=
 OpenBabel11052415323D

 37 39  0  0  1  0  0  0  0  0999 V2000
  184.3470  180.0210  139.1600 O   0  0  0  0  0  1  0  0  0  0  0  0
  183.8340  178.7170  139.1310 C   0  0  1  0  0  0  0  0  0  0  0  0
  179.2530  178.4080  140.8410 O   0  0  0  0  0  1  0  0  0  0  0  0
  181.6000  179.4870  137.8480 C   0  0  0  0  0  2  0  0  0  0  0  0
  181.7910  180.2790  139.1330 C   0  0  2  0  0  3  0  0  0  0  0  0
  180.5440  178.9200  140.7300 C   0  0  0  0  0  0  0  0  0  0  0  0
  182.2900  178.8460  139.0370 C   0  0  2  0  0  0  0  0  0  0  0  0
  181.0890  179.1120  142.0000 O   0  0  0  0  0  1  0  0  0  0  0  0
  180.5270  180.2330  139.9730 C   0  0  0  0  0  2  0  0  0  0  0  0
  181.4170  177.9770  139.9320 C   0  0  0  0  0  2  0  0  0  0  0  0
  184.4690  177.9670  137.9220 C   0  0  2  0  0  3  0  0  0  0  0  0
  183.3160  175.8720  137.0730 C   0  0  0  0  0  0  0  0  0  0  0  0
  184.1980  176.4780  137.8670 C   0  0  0  0  0  3  0  0  0  0  0  0
  182.5020  176.5910  136.2090 O   0  0  0  0  0  1  0  0  0  0  0  0
  183.1870  174.3930  137.1290 C   0  0  0  0  0  1  0  0  0  0  0  0
  185.9390  178.3140  137.6840 C   0  0  0  0  0  2  0  0  0  0  0  0
  186.6920  177.1130  137.1400 C   0  0  0  0  0  2  0  0  0  0  0  0
  187.8180  177.7780  139.0870 C   0  0  0  0  0  2  0  0  0  0  0  0
  187.8730  176.8640  137.9470 N   0  0  0  0  0  0  0  0  0  0  0  0
  189.0260  177.2230  137.1210 C   0  0  0  0  0  2  0  0  0  0  0  0
  190.6000  175.5470  138.1390 C   0  0  0  0  0  1  0  0  0  0  0  0
  190.3100  177.8050  139.2060 C   0  0  0  0  0  2  0  0  0  0  0  0
  190.3350  177.0220  137.8910 C   0  0  2  0  0  3  0  0  0  0  0  0
  189.0250  177.5450  139.9910 C   0  0  0  0  0  2  0  0  0  0  0  0
  184.1680  178.0140  140.4590 C   0  0  0  0  0  2  0  0  0  0  0  0
  184.6050  178.9820  141.5540 C   0  0  0  0  0  2  0  0  0  0  0  0
  185.9100  178.5250  142.1830 C   0  0  0  0  0  2  0  0  0  0  0  0
  185.6890  177.9930  143.5950 C   0  0  2  0  0  3  0  0  0  0  0  0
  184.7830  178.9720  144.3210 C   0  0  0  0  0  1  0  0  0  0  0  0
  186.7640  177.4150  145.7960 C   0  0  0  0  0  1  0  0  0  0  0  0
  187.0170  177.8240  144.3510 C   0  0  1  0  0  3  0  0  0  0  0  0
  189.2230  176.8620  143.6400 C   0  0  0  0  0  0  0  0  0  0  0  0
  187.8870  176.7830  143.7050 C   0  0  0  0  0  3  0  0  0  0  0  0
  189.9760  175.7490  142.9980 C   0  0  0  0  0  1  0  0  0  0  0  0
  189.9940  178.0100  144.2210 C   0  0  0  0  0  2  0  0  0  0  0  0
  191.1680  177.5060  145.0390 C   0  0  0  0  0  2  0  0  0  0  0  0
  190.7090  177.0270  146.2640 O   0  0  0  0  0  1  0  0  0  0  0  0
  2  1  1  1  0  0  0
  2 25  1  0  0  0  0
  4  7  1  0  0  0  0
  5  4  1  6  0  0  0
  5  9  1  0  0  0  0
  6  3  1  0  0  0  0
  6  8  1  0  0  0  0
  7  2  1  6  0  0  0
  7  5  1  0  0  0  0
  7 10  1  0  0  0  0
  9  6  1  0  0  0  0
 10  6  1  0  0  0  0
 11 16  1  1  0  0  0
 11  2  1  0  0  0  0
 12 15  1  0  0  0  0
 12 13  2  0  0  0  0
 13 11  1  0  0  0  0
 14 12  1  0  0  0  0
 17 16  1  0  0  0  0
 17 19  1  0  0  0  0
 18 24  1  0  0  0  0
 19 18  1  0  0  0  0
 20 23  1  0  0  0  0
 20 19  1  0  0  0  0
 22 24  1  0  0  0  0
 23 21  1  1  0  0  0
 23 22  1  0  0  0  0
 25 26  1  0  0  0  0
 26 27  1  0  0  0  0
 27 28  1  0  0  0  0
 28 29  1  1  0  0  0
 28 31  1  0  0  0  0
 31 30  1  1  0  0  0
 32 33  2  0  0  0  0
 32 35  1  0  0  0  0
 33 31  1  0  0  0  0
 34 32  1  0  0  0  0
 35 36  1  0  0  0  0
 36 37  1  0  0  0  0
M  END
>  <MODEL>
1

>  <REMARK>
 VINA RESULT:      -6.9      0.000      0.000
  Name = 
  14 active torsions:
  status: ('A' for Active; 'I' for Inactive)
    1  A    between atoms: C_1  and  C_5
    2  A    between atoms: C_1  and  C_36
    3  A    between atoms: C_5  and  C_17
    4  A    between atoms: N_6  and  C_31
    5  A    between atoms: C_7  and  C_33
    6  A    between atoms: C_10  and  C_14
    7  A    between atoms: C_10  and  C_20
    8  A    between atoms: C_10  and  C_22
    9  A    between atoms: C_11  and  C_33
   10  A    between atoms: C_14  and  C_31
   11  A    between atoms: C_17  and  C_26
   12  A    between atoms: C_20  and  C_24
   13  A    between atoms: C_20  and  C_29
   14  A    between atoms: C_29  and  C_36
                            x       y       z     vdW  Elec       q    Type
                         _______ _______ _______ _____ _____    ______ ____

>  <TORSDO>
F 14

$$$$
=
 OpenBabel11052415323D

 37 39  0  0  1  0  0  0  0  0999 V2000
  189.0870  179.2570  138.7730 O   0  0  0  0  0  1  0  0  0  0  0  0
  189.0370  177.8560  138.8000 C   0  0  1  0  0  0  0  0  0  0  0  0
  186.2500  175.4250  135.5860 O   0  0  0  0  0  1  0  0  0  0  0  0
  189.2260  177.9730  136.1200 C   0  0  0  0  0  2  0  0  0  0  0  0
  187.8660  178.4640  136.5920 C   0  0  2  0  0  3  0  0  0  0  0  0
  186.5570  176.4070  136.5260 C   0  0  0  0  0  0  0  0  0  0  0  0
  188.6090  177.3960  137.3800 C   0  0  2  0  0  0  0  0  0  0  0  0
  185.5290  176.5010  137.4650 O   0  0  0  0  0  1  0  0  0  0  0  0
  186.7570  177.7450  135.8450 C   0  0  0  0  0  2  0  0  0  0  0  0
  187.8600  176.0800  137.2200 C   0  0  0  0  0  2  0  0  0  0  0  0
  190.4360  177.3230  139.2290 C   0  0  2  0  0  3  0  0  0  0  0  0
  192.5210  176.4620  138.0670 C   0  0  0  0  0  0  0  0  0  0  0  0
  191.1950  176.5610  138.1640 C   0  0  0  0  0  3  0  0  0  0  0  0
  193.3640  177.1090  138.9600 O   0  0  0  0  0  1  0  0  0  0  0  0
  193.1090  175.6540  136.9680 C   0  0  0  0  0  1  0  0  0  0  0  0
  190.4360  176.6130  140.5840 C   0  0  0  0  0  2  0  0  0  0  0  0
  191.2640  177.3870  141.5940 C   0  0  0  0  0  2  0  0  0  0  0  0
  189.4350  177.3350  143.0620 C   0  0  0  0  0  2  0  0  0  0  0  0
  190.8590  177.0280  142.9420 N   0  0  0  0  0  0  0  0  0  0  0  0
  191.6000  177.9090  143.8470 C   0  0  0  0  0  2  0  0  0  0  0  0
  191.7280  176.2670  145.7470 C   0  0  0  0  0  1  0  0  0  0  0  0
  189.7130  177.7520  145.5050 C   0  0  0  0  0  2  0  0  0  0  0  0
  191.2260  177.6310  145.3070 C   0  0  2  0  0  3  0  0  0  0  0  0
  188.9420  176.9550  144.4540 C   0  0  0  0  0  2  0  0  0  0  0  0
  187.9440  177.4100  139.7890 C   0  0  0  0  0  2  0  0  0  0  0  0
  187.2900  178.5770  140.5220 C   0  0  0  0  0  2  0  0  0  0  0  0
  185.8150  178.6690  140.1730 C   0  0  0  0  0  2  0  0  0  0  0  0
  184.9770  179.0350  141.3950 C   0  0  2  0  0  3  0  0  0  0  0  0
  185.5000  178.2290  142.5720 C   0  0  0  0  0  1  0  0  0  0  0  0
  183.3010  177.4640  140.3670 C   0  0  0  0  0  1  0  0  0  0  0  0
  183.4850  178.7480  141.1650 C   0  0  1  0  0  3  0  0  0  0  0  0
  181.4570  178.9370  142.6320 C   0  0  0  0  0  0  0  0  0  0  0  0
  182.7460  178.6110  142.4670 C   0  0  0  0  0  3  0  0  0  0  0  0
  180.8310  178.7270  143.9670 C   0  0  0  0  0  1  0  0  0  0  0  0
  180.6100  179.4730  141.5170 C   0  0  0  0  0  2  0  0  0  0  0  0
  179.3880  178.5980  141.3070 C   0  0  0  0  0  2  0  0  0  0  0  0
  179.7900  177.3280  140.8970 O   0  0  0  0  0  1  0  0  0  0  0  0
  2  1  1  1  0  0  0
  2 11  1  0  0  0  0
  2 25  1  0  0  0  0
  3  6  1  0  0  0  0
  4  5  1  0  0  0  0
  4  7  1  0  0  0  0
  5  9  1  6  0  0  0
  5  7  1  0  0  0  0
  6 10  1  0  0  0  0
  6  8  1  0  0  0  0
  7  2  1  1  0  0  0
  9  6  1  0  0  0  0
 10  7  1  0  0  0  0
 11 13  1  6  0  0  0
 11 16  1  0  0  0  0
 12 13  2  0  0  0  0
 12 14  1  0  0  0  0
 15 12  1  0  0  0  0
 16 17  1  0  0  0  0
 17 19  1  0  0  0  0
 18 24  1  0  0  0  0
 19 18  1  0  0  0  0
 19 20  1  0  0  0  0
 20 23  1  0  0  0  0
 23 22  1  0  0  0  0
 23 21  1  6  0  0  0
 24 22  1  0  0  0  0
 25 26  1  0  0  0  0
 27 26  1  0  0  0  0
 27 28  1  0  0  0  0
 28 29  1  1  0  0  0
 31 30  1  1  0  0  0
 31 28  1  0  0  0  0
 31 33  1  0  0  0  0
 32 34  1  0  0  0  0
 33 32  2  0  0  0  0
 35 32  1  0  0  0  0
 36 35  1  0  0  0  0
 37 36  1  0  0  0  0
M  END
>  <MODEL>
2

>  <REMARK>
 VINA RESULT:      -6.4      2.563      7.275
  Name = 
  14 active torsions:
  status: ('A' for Active; 'I' for Inactive)
    1  A    between atoms: C_1  and  C_5
    2  A    between atoms: C_1  and  C_36
    3  A    between atoms: C_5  and  C_17
    4  A    between atoms: N_6  and  C_31
    5  A    between atoms: C_7  and  C_33
    6  A    between atoms: C_10  and  C_14
    7  A    between atoms: C_10  and  C_20
    8  A    between atoms: C_10  and  C_22
    9  A    between atoms: C_11  and  C_33
   10  A    between atoms: C_14  and  C_31
   11  A    between atoms: C_17  and  C_26
   12  A    between atoms: C_20  and  C_24
   13  A    between atoms: C_20  and  C_29
   14  A    between atoms: C_29  and  C_36
                            x       y       z     vdW  Elec       q    Type
                         _______ _______ _______ _____ _____    ______ ____

>  <TORSDO>
F 14

$$$$
=
 OpenBabel11052415323D

 37 39  0  0  1  0  0  0  0  0999 V2000
  189.1140  175.4860  142.3950 O   0  0  0  0  0  1  0  0  0  0  0  0
  189.3090  176.8730  142.3500 C   0  0  1  0  0  0  0  0  0  0  0  0
  191.5760  178.0300  146.5380 O   0  0  0  0  0  1  0  0  0  0  0  0
  191.9670  177.0000  142.7410 C   0  0  0  0  0  2  0  0  0  0  0  0
  191.3350  175.9420  143.6330 C   0  0  2  0  0  3  0  0  0  0  0  0
  190.8610  177.2280  145.6500 C   0  0  0  0  0  0  0  0  0  0  0  0
  190.5450  177.1800  143.2380 C   0  0  2  0  0  0  0  0  0  0  0  0
  189.7760  176.6450  146.3070 O   0  0  0  0  0  1  0  0  0  0  0  0
  191.7560  176.1490  145.0770 C   0  0  0  0  0  2  0  0  0  0  0  0
  190.3720  178.0490  144.4770 C   0  0  0  0  0  2  0  0  0  0  0  0
  189.4940  177.2960  140.8630 C   0  0  2  0  0  3  0  0  0  0  0  0
  191.4080  176.5750  139.3610 C   0  0  0  0  0  0  0  0  0  0  0  0
  190.9230  177.3080  140.3630 C   0  0  0  0  0  3  0  0  0  0  0  0
  190.6140  175.6670  138.6750 O   0  0  0  0  0  1  0  0  0  0  0  0
  192.8370  176.7210  138.9810 C   0  0  0  0  0  1  0  0  0  0  0  0
  188.7190  178.5580  140.4790 C   0  0  0  0  0  2  0  0  0  0  0  0
  187.5150  178.2070  139.6230 C   0  0  0  0  0  2  0  0  0  0  0  0
  188.7410  178.6630  137.6750 C   0  0  0  0  0  2  0  0  0  0  0  0
  187.9560  177.6380  138.3620 N   0  0  0  0  0  0  0  0  0  0  0  0
  186.7480  177.3770  137.5770 C   0  0  0  0  0  2  0  0  0  0  0  0
  187.6730  175.3930  136.3400 C   0  0  0  0  0  1  0  0  0  0  0  0
  188.0750  177.7160  135.4660 C   0  0  0  0  0  2  0  0  0  0  0  0
  187.1030  176.7940  136.2050 C   0  0  2  0  0  3  0  0  0  0  0  0
  189.2570  178.1130  136.3490 C   0  0  0  0  0  2  0  0  0  0  0  0
  188.0910  177.5740  142.9800 C   0  0  0  0  0  2  0  0  0  0  0  0
  187.1260  176.6030  143.6520 C   0  0  0  0  0  2  0  0  0  0  0  0
  186.4530  177.2570  144.8460 C   0  0  0  0  0  2  0  0  0  0  0  0
  185.7930  178.5770  144.4580 C   0  0  2  0  0  3  0  0  0  0  0  0
  185.3950  179.2890  145.7390 C   0  0  0  0  0  1  0  0  0  0  0  0
  183.3050  178.8800  144.2350 C   0  0  0  0  0  1  0  0  0  0  0  0
  184.5650  178.3540  143.5610 C   0  0  1  0  0  3  0  0  0  0  0  0
  184.1190  178.6440  141.1070 C   0  0  0  0  0  0  0  0  0  0  0  0
  184.7220  179.0460  142.2350 C   0  0  0  0  0  3  0  0  0  0  0  0
  184.3320  179.4330  139.8630 C   0  0  0  0  0  1  0  0  0  0  0  0
  183.2120  177.4510  141.0570 C   0  0  0  0  0  2  0  0  0  0  0  0
  181.8580  177.8340  140.4880 C   0  0  0  0  0  2  0  0  0  0  0  0
  181.0430  178.3170  141.5100 O   0  0  0  0  0  1  0  0  0  0  0  0
  2  1  1  1  0  0  0
  2 25  1  0  0  0  0
  4  7  1  0  0  0  0
  5  4  1  6  0  0  0
  5  9  1  0  0  0  0
  6  8  1  0  0  0  0
  6  3  1  0  0  0  0
  7  2  1  6  0  0  0
  7  5  1  0  0  0  0
  7 10  1  0  0  0  0
  9  6  1  0  0  0  0
 10  6  1  0  0  0  0
 11 13  1  1  0  0  0
 11  2  1  0  0  0  0
 12 13  2  0  0  0  0
 14 12  1  0  0  0  0
 15 12  1  0  0  0  0
 16 11  1  0  0  0  0
 17 16  1  0  0  0  0
 18 19  1  0  0  0  0
 19 17  1  0  0  0  0
 20 19  1  0  0  0  0
 22 23  1  0  0  0  0
 22 24  1  0  0  0  0
 23 21  1  1  0  0  0
 23 20  1  0  0  0  0
 24 18  1  0  0  0  0
 25 26  1  0  0  0  0
 26 27  1  0  0  0  0
 28 27  1  0  0  0  0
 28 29  1  1  0  0  0
 31 30  1  1  0  0  0
 31 28  1  0  0  0  0
 32 33  2  0  0  0  0
 33 31  1  0  0  0  0
 34 32  1  0  0  0  0
 35 32  1  0  0  0  0
 36 35  1  0  0  0  0
 36 37  1  0  0  0  0
M  END
>  <MODEL>
3

>  <REMARK>
 VINA RESULT:      -6.4      2.125      7.406
  Name = 
  14 active torsions:
  status: ('A' for Active; 'I' for Inactive)
    1  A    between atoms: C_1  and  C_5
    2  A    between atoms: C_1  and  C_36
    3  A    between atoms: C_5  and  C_17
    4  A    between atoms: N_6  and  C_31
    5  A    between atoms: C_7  and  C_33
    6  A    between atoms: C_10  and  C_14
    7  A    between atoms: C_10  and  C_20
    8  A    between atoms: C_10  and  C_22
    9  A    between atoms: C_11  and  C_33
   10  A    between atoms: C_14  and  C_31
   11  A    between atoms: C_17  and  C_26
   12  A    between atoms: C_20  and  C_24
   13  A    between atoms: C_20  and  C_29
   14  A    between atoms: C_29  and  C_36
                            x       y       z     vdW  Elec       q    Type
                         _______ _______ _______ _____ _____    ______ ____

>  <TORSDO>
F 14

$$$$
=
 OpenBabel11052415323D

 37 39  0  0  1  0  0  0  0  0999 V2000
  187.6350  179.3620  137.2270 O   0  0  0  0  0  1  0  0  0  0  0  0
  187.5730  178.0670  137.7570 C   0  0  1  0  0  0  0  0  0  0  0  0
  184.8710  174.7820  135.3250 O   0  0  0  0  0  1  0  0  0  0  0  0
  188.0800  177.0900  135.3040 C   0  0  0  0  0  2  0  0  0  0  0  0
  186.7530  177.8330  135.3310 C   0  0  2  0  0  3  0  0  0  0  0  0
  185.1970  176.0290  135.8530 C   0  0  0  0  0  0  0  0  0  0  0  0
  187.2520  177.1140  136.5740 C   0  0  2  0  0  0  0  0  0  0  0  0
  184.0910  176.5700  136.5090 O   0  0  0  0  0  1  0  0  0  0  0  0
  185.6510  176.9650  134.7510 C   0  0  0  0  0  2  0  0  0  0  0  0
  186.3570  175.9060  136.8160 C   0  0  0  0  0  2  0  0  0  0  0  0
  188.9310  177.7550  138.4530 C   0  0  2  0  0  3  0  0  0  0  0  0
  190.6040  175.9720  137.7770 C   0  0  0  0  0  0  0  0  0  0  0  0
  189.4310  176.3350  138.2960 C   0  0  0  0  0  3  0  0  0  0  0  0
  191.5000  176.9080  137.2810 O   0  0  0  0  0  1  0  0  0  0  0  0
  190.9520  174.5290  137.7130 C   0  0  0  0  0  1  0  0  0  0  0  0
  189.0140  178.2590  139.8950 C   0  0  0  0  0  2  0  0  0  0  0  0
  188.9780  177.0970  140.8720 C   0  0  0  0  0  2  0  0  0  0  0  0
  190.2870  176.0070  142.4850 C   0  0  0  0  0  2  0  0  0  0  0  0
  189.9410  177.3170  141.9360 N   0  0  0  0  0  0  0  0  0  0  0  0
  189.2480  178.0840  142.9730 C   0  0  0  0  0  2  0  0  0  0  0  0
  191.2860  179.3120  143.7850 C   0  0  0  0  0  1  0  0  0  0  0  0
  190.7380  177.0390  144.7110 C   0  0  0  0  0  2  0  0  0  0  0  0
  190.1720  178.3520  144.1650 C   0  0  2  0  0  3  0  0  0  0  0  0
  191.3190  176.1700  143.5960 C   0  0  0  0  0  2  0  0  0  0  0  0
  186.4040  177.9870  138.7560 C   0  0  0  0  0  2  0  0  0  0  0  0
  185.2790  178.9660  138.4390 C   0  0  0  0  0  2  0  0  0  0  0  0
  184.5640  179.3910  139.7100 C   0  0  0  0  0  2  0  0  0  0  0  0
  184.4810  178.2430  140.7110 C   0  0  2  0  0  3  0  0  0  0  0  0
  183.1610  177.5260  140.4830 C   0  0  0  0  0  1  0  0  0  0  0  0
  183.2170  178.6940  142.8390 C   0  0  0  0  0  1  0  0  0  0  0  0
  184.5780  178.7470  142.1600 C   0  0  1  0  0  3  0  0  0  0  0  0
  185.7360  178.0700  144.2820 C   0  0  0  0  0  0  0  0  0  0  0  0
  185.5450  177.9220  142.9630 C   0  0  0  0  0  3  0  0  0  0  0  0
  186.7020  177.1690  144.9690 C   0  0  0  0  0  1  0  0  0  0  0  0
  184.9900  179.0820  145.0980 C   0  0  0  0  0  2  0  0  0  0  0  0
  184.9710  178.6790  146.5610 C   0  0  0  0  0  2  0  0  0  0  0  0
  185.7130  179.5940  147.3050 O   0  0  0  0  0  1  0  0  0  0  0  0
  2  1  1  6  0  0  0
  2 11  1  0  0  0  0
  2 25  1  0  0  0  0
  3  6  1  0  0  0  0
  4  5  1  0  0  0  0
  4  7  1  0  0  0  0
  5  9  1  6  0  0  0
  5  7  1  0  0  0  0
  6  8  1  0  0  0  0
  6 10  1  0  0  0  0
  7 10  1  0  0  0  0
  7  2  1  1  0  0  0
  9  6  1  0  0  0  0
 11 13  1  1  0  0  0
 11 16  1  0  0  0  0
 12 13  2  0  0  0  0
 14 12  1  0  0  0  0
 15 12  1  0  0  0  0
 16 17  1  0  0  0  0
 17 19  1  0  0  0  0
 18 24  1  0  0  0  0
 19 18  1  0  0  0  0
 19 20  1  0  0  0  0
 20 23  1  0  0  0  0
 23 21  1  6  0  0  0
 23 22  1  0  0  0  0
 24 22  1  0  0  0  0
 26 25  1  0  0  0  0
 26 27  1  0  0  0  0
 27 28  1  0  0  0  0
 28 29  1  1  0  0  0
 28 31  1  0  0  0  0
 31 30  1  1  0  0  0
 31 33  1  0  0  0  0
 32 34  1  0  0  0  0
 32 35  1  0  0  0  0
 33 32  2  0  0  0  0
 35 36  1  0  0  0  0
 36 37  1  0  0  0  0
M  END
>  <MODEL>
4

>  <REMARK>
 VINA RESULT:      -6.2      2.636      5.610
  Name = 
  14 active torsions:
  status: ('A' for Active; 'I' for Inactive)
    1  A    between atoms: C_1  and  C_5
    2  A    between atoms: C_1  and  C_36
    3  A    between atoms: C_5  and  C_17
    4  A    between atoms: N_6  and  C_31
    5  A    between atoms: C_7  and  C_33
    6  A    between atoms: C_10  and  C_14
    7  A    between atoms: C_10  and  C_20
    8  A    between atoms: C_10  and  C_22
    9  A    between atoms: C_11  and  C_33
   10  A    between atoms: C_14  and  C_31
   11  A    between atoms: C_17  and  C_26
   12  A    between atoms: C_20  and  C_24
   13  A    between atoms: C_20  and  C_29
   14  A    between atoms: C_29  and  C_36
                            x       y       z     vdW  Elec       q    Type
                         _______ _______ _______ _____ _____    ______ ____

>  <TORSDO>
F 14

$$$$
=
 OpenBabel11052415323D

 37 39  0  0  1  0  0  0  0  0999 V2000
  182.9510  177.1220  140.1260 O   0  0  0  0  0  1  0  0  0  0  0  0
  183.3640  178.3840  139.6760 C   0  0  1  0  0  0  0  0  0  0  0  0
  187.0340  178.3520  136.4290 O   0  0  0  0  0  1  0  0  0  0  0  0
  183.2240  177.5540  137.1220 C   0  0  0  0  0  2  0  0  0  0  0  0
  184.2120  176.7120  137.9150 C   0  0  2  0  0  3  0  0  0  0  0  0
  186.2960  177.9190  137.5300 C   0  0  0  0  0  0  0  0  0  0  0  0
  183.9940  178.1740  138.2720 C   0  0  2  0  0  0  0  0  0  0  0  0
  187.1480  177.6960  138.6120 O   0  0  0  0  0  1  0  0  0  0  0  0
  185.5460  176.6460  137.1930 C   0  0  0  0  0  2  0  0  0  0  0  0
  185.2510  178.9480  137.9000 C   0  0  0  0  0  2  0  0  0  0  0  0
  182.1270  179.3310  139.6650 C   0  0  2  0  0  3  0  0  0  0  0  0
  180.2330  178.8040  141.2690 C   0  0  0  0  0  0  0  0  0  0  0  0
  180.8170  178.6930  140.0760 C   0  0  0  0  0  3  0  0  0  0  0  0
  180.8200  179.5210  142.3010 O   0  0  0  0  0  1  0  0  0  0  0  0
  178.9310  178.1280  141.5040 C   0  0  0  0  0  1  0  0  0  0  0  0
  182.0070  180.1740  138.3940 C   0  0  0  0  0  2  0  0  0  0  0  0
  182.1650  181.6500  138.7140 C   0  0  0  0  0  2  0  0  0  0  0  0
  180.9400  181.6480  136.7130 C   0  0  0  0  0  2  0  0  0  0  0  0
  181.2380  182.4290  137.9120 N   0  0  0  0  0  0  0  0  0  0  0  0
  181.9540  183.6410  137.5080 C   0  0  0  0  0  2  0  0  0  0  0  0
  179.9240  185.1210  137.4310 C   0  0  0  0  0  1  0  0  0  0  0  0
  180.5520  183.7460  135.4210 C   0  0  0  0  0  2  0  0  0  0  0  0
  181.0710  184.5310  136.6290 C   0  0  2  0  0  3  0  0  0  0  0  0
  179.9470  182.4070  135.8380 C   0  0  0  0  0  2  0  0  0  0  0  0
  184.4650  178.9170  140.6110 C   0  0  0  0  0  2  0  0  0  0  0  0
  184.4360  178.2750  141.9940 C   0  0  0  0  0  2  0  0  0  0  0  0
  185.8230  178.2780  142.6140 C   0  0  0  0  0  2  0  0  0  0  0  0
  185.7620  177.9840  144.1100 C   0  0  2  0  0  3  0  0  0  0  0  0
  185.0130  179.1250  144.7750 C   0  0  0  0  0  1  0  0  0  0  0  0
  187.0820  177.4530  146.1860 C   0  0  0  0  0  1  0  0  0  0  0  0
  187.1680  177.8360  144.7150 C   0  0  1  0  0  3  0  0  0  0  0  0
  189.2510  176.9390  143.6400 C   0  0  0  0  0  0  0  0  0  0  0  0
  187.9670  176.7870  143.9940 C   0  0  0  0  0  3  0  0  0  0  0  0
  189.9420  175.8130  142.9550 C   0  0  0  0  0  1  0  0  0  0  0  0
  190.0290  178.1860  143.9380 C   0  0  0  0  0  2  0  0  0  0  0  0
  191.4770  177.8510  144.2450 C   0  0  0  0  0  2  0  0  0  0  0  0
  191.5710  177.3310  145.5340 O   0  0  0  0  0  1  0  0  0  0  0  0
  2  1  1  1  0  0  0
  2 25  1  0  0  0  0
  3  6  1  0  0  0  0
  4  7  1  0  0  0  0
  5  4  1  6  0  0  0
  5  7  1  0  0  0  0
  6 10  1  0  0  0  0
  6  8  1  0  0  0  0
  7  2  1  1  0  0  0
  9  6  1  0  0  0  0
  9  5  1  0  0  0  0
 10  7  1  0  0  0  0
 11 16  1  6  0  0  0
 11  2  1  0  0  0  0
 11 13  1  0  0  0  0
 12 15  1  0  0  0  0
 12 14  1  0  0  0  0
 13 12  2  0  0  0  0
 16 17  1  0  0  0  0
 18 19  1  0  0  0  0
 19 17  1  0  0  0  0
 20 19  1  0  0  0  0
 22 24  1  0  0  0  0
 22 23  1  0  0  0  0
 23 21  1  1  0  0  0
 23 20  1  0  0  0  0
 24 18  1  0  0  0  0
 25 26  1  0  0  0  0
 26 27  1  0  0  0  0
 27 28  1  0  0  0  0
 28 31  1  0  0  0  0
 28 29  1  1  0  0  0
 31 30  1  1  0  0  0
 32 35  1  0  0  0  0
 32 33  2  0  0  0  0
 33 31  1  0  0  0  0
 34 32  1  0  0  0  0
 35 36  1  0  0  0  0
 36 37  1  0  0  0  0
M  END
>  <MODEL>
5

>  <REMARK>
 VINA RESULT:      -6.2      2.612      6.086
  Name = 
  14 active torsions:
  status: ('A' for Active; 'I' for Inactive)
    1  A    between atoms: C_1  and  C_5
    2  A    between atoms: C_1  and  C_36
    3  A    between atoms: C_5  and  C_17
    4  A    between atoms: N_6  and  C_31
    5  A    between atoms: C_7  and  C_33
    6  A    between atoms: C_10  and  C_14
    7  A    between atoms: C_10  and  C_20
    8  A    between atoms: C_10  and  C_22
    9  A    between atoms: C_11  and  C_33
   10  A    between atoms: C_14  and  C_31
   11  A    between atoms: C_17  and  C_26
   12  A    between atoms: C_20  and  C_24
   13  A    between atoms: C_20  and  C_29
   14  A    between atoms: C_29  and  C_36
                            x       y       z     vdW  Elec       q    Type
                         _______ _______ _______ _____ _____    ______ ____

>  <TORSDO>
F 14

$$$$
=
 OpenBabel11052415323D

 37 39  0  0  1  0  0  0  0  0999 V2000
  189.1940  175.6640  142.8510 O   0  0  0  0  0  1  0  0  0  0  0  0
  189.2990  177.0540  142.7030 C   0  0  1  0  0  0  0  0  0  0  0  0
  190.7050  178.1920  147.2570 O   0  0  0  0  0  1  0  0  0  0  0  0
  191.7690  177.7900  143.4700 C   0  0  0  0  0  2  0  0  0  0  0  0
  191.3450  176.5020  144.1600 C   0  0  2  0  0  3  0  0  0  0  0  0
  190.3300  177.3580  146.2060 C   0  0  0  0  0  0  0  0  0  0  0  0
  190.3040  177.5440  143.7800 C   0  0  2  0  0  0  0  0  0  0  0  0
  189.3730  176.4420  146.6460 O   0  0  0  0  0  1  0  0  0  0  0  0
  191.5360  176.6210  145.6610 C   0  0  0  0  0  2  0  0  0  0  0  0
  189.7730  178.1740  145.0600 C   0  0  0  0  0  2  0  0  0  0  0  0
  189.7530  177.3600  141.2450 C   0  0  2  0  0  3  0  0  0  0  0  0
  188.3870  178.1460  139.2560 C   0  0  0  0  0  0  0  0  0  0  0  0
  188.6750  177.2380  140.1900 C   0  0  0  0  0  3  0  0  0  0  0  0
  189.0610  179.3570  139.1890 O   0  0  0  0  0  1  0  0  0  0  0  0
  187.3070  177.8610  138.2780 C   0  0  0  0  0  1  0  0  0  0  0  0
  191.0580  176.6670  140.8470 C   0  0  0  0  0  2  0  0  0  0  0  0
  191.5990  177.2470  139.5520 C   0  0  0  0  0  2  0  0  0  0  0  0
  193.2200  176.2310  138.1950 C   0  0  0  0  0  2  0  0  0  0  0  0
  191.8120  176.1830  138.5870 N   0  0  0  0  0  0  0  0  0  0  0  0
  190.9950  176.5110  137.4180 C   0  0  0  0  0  2  0  0  0  0  0  0
  190.5600  174.1310  136.7370 C   0  0  0  0  0  1  0  0  0  0  0  0
  192.6440  175.2990  135.9540 C   0  0  0  0  0  2  0  0  0  0  0  0
  191.1660  175.4590  136.3180 C   0  0  2  0  0  3  0  0  0  0  0  0
  193.5140  175.1150  137.1970 C   0  0  0  0  0  2  0  0  0  0  0  0
  187.9330  177.6980  143.0070 C   0  0  0  0  0  2  0  0  0  0  0  0
  186.9330  176.7190  143.6120 C   0  0  0  0  0  2  0  0  0  0  0  0
  186.3380  177.2820  144.8910 C   0  0  0  0  0  2  0  0  0  0  0  0
  185.5950  178.5880  144.6290 C   0  0  2  0  0  3  0  0  0  0  0  0
  185.0910  179.1090  145.9650 C   0  0  0  0  0  1  0  0  0  0  0  0
  183.1310  178.9290  144.2460 C   0  0  0  0  0  1  0  0  0  0  0  0
  184.4250  178.3880  143.6530 C   0  0  1  0  0  3  0  0  0  0  0  0
  184.1980  178.6590  141.1670 C   0  0  0  0  0  0  0  0  0  0  0  0
  184.6780  179.0840  142.3440 C   0  0  0  0  0  3  0  0  0  0  0  0
  184.4950  179.4540  139.9440 C   0  0  0  0  0  1  0  0  0  0  0  0
  183.3440  177.4330  141.0380 C   0  0  0  0  0  2  0  0  0  0  0  0
  182.0190  177.7720  140.3780 C   0  0  0  0  0  2  0  0  0  0  0  0
  181.2660  178.5740  141.2330 O   0  0  0  0  0  1  0  0  0  0  0  0
  2  1  1  1  0  0  0
  2 25  1  0  0  0  0
  4  7  1  0  0  0  0
  5  4  1  6  0  0  0
  5  9  1  0  0  0  0
  6  8  1  0  0  0  0
  6  3  1  0  0  0  0
  7  2  1  6  0  0  0
  7  5  1  0  0  0  0
  7 10  1  0  0  0  0
  9  6  1  0  0  0  0
 10  6  1  0  0  0  0
 11 13  1  6  0  0  0
 11  2  1  0  0  0  0
 12 13  2  0  0  0  0
 14 12  1  0  0  0  0
 15 12  1  0  0  0  0
 16 11  1  0  0  0  0
 17 16  1  0  0  0  0
 18 19  1  0  0  0  0
 19 17  1  0  0  0  0
 20 19  1  0  0  0  0
 22 23  1  0  0  0  0
 22 24  1  0  0  0  0
 23 21  1  1  0  0  0
 23 20  1  0  0  0  0
 24 18  1  0  0  0  0
 25 26  1  0  0  0  0
 26 27  1  0  0  0  0
 28 27  1  0  0  0  0
 28 29  1  1  0  0  0
 31 30  1  1  0  0  0
 31 28  1  0  0  0  0
 32 33  2  0  0  0  0
 33 31  1  0  0  0  0
 34 32  1  0  0  0  0
 35 32  1  0  0  0  0
 36 35  1  0  0  0  0
 36 37  1  0  0  0  0
M  END
>  <MODEL>
6

>  <REMARK>
 VINA RESULT:      -6.2      2.270      7.268
  Name = 
  14 active torsions:
  status: ('A' for Active; 'I' for Inactive)
    1  A    between atoms: C_1  and  C_5
    2  A    between atoms: C_1  and  C_36
    3  A    between atoms: C_5  and  C_17
    4  A    between atoms: N_6  and  C_31
    5  A    between atoms: C_7  and  C_33
    6  A    between atoms: C_10  and  C_14
    7  A    between atoms: C_10  and  C_20
    8  A    between atoms: C_10  and  C_22
    9  A    between atoms: C_11  and  C_33
   10  A    between atoms: C_14  and  C_31
   11  A    between atoms: C_17  and  C_26
   12  A    between atoms: C_20  and  C_24
   13  A    between atoms: C_20  and  C_29
   14  A    between atoms: C_29  and  C_36
                            x       y       z     vdW  Elec       q    Type
                         _______ _______ _______ _____ _____    ______ ____

>  <TORSDO>
F 14

$$$$
=
 OpenBabel11052415323D

 37 39  0  0  1  0  0  0  0  0999 V2000
  188.9160  179.2920  138.6660 O   0  0  0  0  0  1  0  0  0  0  0  0
  188.5870  177.9370  138.8010 C   0  0  1  0  0  0  0  0  0  0  0  0
  185.9740  175.4160  135.5100 O   0  0  0  0  0  1  0  0  0  0  0  0
  188.9810  177.9040  136.1410 C   0  0  0  0  0  2  0  0  0  0  0  0
  187.6060  178.4580  136.4820 C   0  0  2  0  0  3  0  0  0  0  0  0
  186.2400  176.4380  136.4200 C   0  0  0  0  0  0  0  0  0  0  0  0
  188.2520  177.4130  137.3780 C   0  0  2  0  0  0  0  0  0  0  0  0
  185.1480  176.6110  137.2700 O   0  0  0  0  0  1  0  0  0  0  0  0
  186.5340  177.7310  135.6880 C   0  0  0  0  0  2  0  0  0  0  0  0
  187.4760  176.1120  137.2290 C   0  0  0  0  0  2  0  0  0  0  0  0
  189.7880  177.2020  139.4660 C   0  0  2  0  0  3  0  0  0  0  0  0
  191.8090  176.0890  138.4080 C   0  0  0  0  0  0  0  0  0  0  0  0
  190.4920  176.1850  138.5920 C   0  0  0  0  0  3  0  0  0  0  0  0
  192.6920  176.9780  139.0040 O   0  0  0  0  0  1  0  0  0  0  0  0
  192.3410  175.0160  137.5300 C   0  0  0  0  0  1  0  0  0  0  0  0
  189.4890  176.6750  140.8700 C   0  0  0  0  0  2  0  0  0  0  0  0
  190.3470  177.3850  141.9030 C   0  0  0  0  0  2  0  0  0  0  0  0
  190.4630  177.8430  144.2010 C   0  0  0  0  0  2  0  0  0  0  0  0
  189.5460  177.7080  143.0700 N   0  0  0  0  0  0  0  0  0  0  0  0
  188.6780  176.5550  143.3130 C   0  0  0  0  0  2  0  0  0  0  0  0
  186.7750  177.8710  144.2960 C   0  0  0  0  0  1  0  0  0  0  0  0
  188.6650  177.1100  145.7680 C   0  0  0  0  0  2  0  0  0  0  0  0
  187.8010  176.7800  144.5490 C   0  0  2  0  0  3  0  0  0  0  0  0
  189.6800  178.2100  145.4580 C   0  0  0  0  0  2  0  0  0  0  0  0
  187.3140  177.8110  139.6600 C   0  0  0  0  0  2  0  0  0  0  0  0
  187.1820  178.9210  140.6970 C   0  0  0  0  0  2  0  0  0  0  0  0
  185.7390  179.0600  141.1510 C   0  0  0  0  0  2  0  0  0  0  0  0
  184.7690  178.5950  140.0700 C   0  0  2  0  0  3  0  0  0  0  0  0
  184.5970  179.7360  139.0810 C   0  0  0  0  0  1  0  0  0  0  0  0
  183.0410  176.7730  140.2430 C   0  0  0  0  0  1  0  0  0  0  0  0
  183.4110  178.1880  140.6650 C   0  0  1  0  0  3  0  0  0  0  0  0
  182.4100  178.6990  142.9100 C   0  0  0  0  0  0  0  0  0  0  0  0
  183.4310  178.2490  142.1670 C   0  0  0  0  0  3  0  0  0  0  0  0
  182.5410  178.6810  144.3920 C   0  0  0  0  0  1  0  0  0  0  0  0
  181.1260  179.1870  142.3070 C   0  0  0  0  0  2  0  0  0  0  0  0
  180.0820  178.0860  142.3080 C   0  0  0  0  0  2  0  0  0  0  0  0
  179.2000  178.2820  143.3690 O   0  0  0  0  0  1  0  0  0  0  0  0
  2  1  1  6  0  0  0
  2 11  1  0  0  0  0
  2 25  1  0  0  0  0
  3  6  1  0  0  0  0
  4  5  1  0  0  0  0
  4  7  1  0  0  0  0
  5  9  1  6  0  0  0
  5  7  1  0  0  0  0
  6 10  1  0  0  0  0
  6  8  1  0  0  0  0
  7  2  1  1  0  0  0
  9  6  1  0  0  0  0
 10  7  1  0  0  0  0
 11 13  1  6  0  0  0
 11 16  1  0  0  0  0
 12 13  2  0  0  0  0
 12 14  1  0  0  0  0
 15 12  1  0  0  0  0
 16 17  1  0  0  0  0
 17 19  1  0  0  0  0
 18 24  1  0  0  0  0
 19 20  1  0  0  0  0
 19 18  1  0  0  0  0
 20 23  1  0  0  0  0
 23 21  1  6  0  0  0
 23 22  1  0  0  0  0
 24 22  1  0  0  0  0
 25 26  1  0  0  0  0
 26 27  1  0  0  0  0
 28 29  1  6  0  0  0
 28 31  1  0  0  0  0
 28 27  1  0  0  0  0
 31 30  1  1  0  0  0
 31 33  1  0  0  0  0
 32 34  1  0  0  0  0
 33 32  2  0  0  0  0
 35 36  1  0  0  0  0
 35 32  1  0  0  0  0
 36 37  1  0  0  0  0
M  END
>  <MODEL>
7

>  <REMARK>
 VINA RESULT:      -6.1      2.460      6.981
  Name = 
  14 active torsions:
  status: ('A' for Active; 'I' for Inactive)
    1  A    between atoms: C_1  and  C_5
    2  A    between atoms: C_1  and  C_36
    3  A    between atoms: C_5  and  C_17
    4  A    between atoms: N_6  and  C_31
    5  A    between atoms: C_7  and  C_33
    6  A    between atoms: C_10  and  C_14
    7  A    between atoms: C_10  and  C_20
    8  A    between atoms: C_10  and  C_22
    9  A    between atoms: C_11  and  C_33
   10  A    between atoms: C_14  and  C_31
   11  A    between atoms: C_17  and  C_26
   12  A    between atoms: C_20  and  C_24
   13  A    between atoms: C_20  and  C_29
   14  A    between atoms: C_29  and  C_36
                            x       y       z     vdW  Elec       q    Type
                         _______ _______ _______ _____ _____    ______ ____

>  <TORSDO>
F 14

$$$$
=
 OpenBabel11052415323D

 37 39  0  0  1  0  0  0  0  0999 V2000
  190.7090  178.0450  138.0490 O   0  0  0  0  0  1  0  0  0  0  0  0
  189.9930  176.8490  137.9090 C   0  0  1  0  0  0  0  0  0  0  0  0
  185.2280  177.8630  137.3780 O   0  0  0  0  0  1  0  0  0  0  0  0
  188.7490  177.5040  135.6160 C   0  0  0  0  0  2  0  0  0  0  0  0
  188.6500  178.6320  136.6320 C   0  0  2  0  0  3  0  0  0  0  0  0
  186.5510  178.0950  137.7510 C   0  0  0  0  0  0  0  0  0  0  0  0
  188.7120  177.1870  137.0990 C   0  0  2  0  0  0  0  0  0  0  0  0
  186.5950  178.6020  139.0500 O   0  0  0  0  0  1  0  0  0  0  0  0
  187.2050  179.0700  136.7940 C   0  0  0  0  0  2  0  0  0  0  0  0
  187.3510  176.8130  137.6720 C   0  0  0  0  0  2  0  0  0  0  0  0
  190.9120  175.8040  137.2080 C   0  0  2  0  0  3  0  0  0  0  0  0
  190.3350  173.8210  135.7340 C   0  0  0  0  0  0  0  0  0  0  0  0
  190.2610  174.4740  136.8940 C   0  0  0  0  0  3  0  0  0  0  0  0
  191.0200  174.3470  134.6470 O   0  0  0  0  0  1  0  0  0  0  0  0
  189.6520  172.5090  135.5960 C   0  0  0  0  0  1  0  0  0  0  0  0
  192.2870  175.6560  137.8620 C   0  0  0  0  0  2  0  0  0  0  0  0
  193.3720  176.2190  136.9610 C   0  0  0  0  0  2  0  0  0  0  0  0
  195.2920  175.2270  136.0490 C   0  0  0  0  0  2  0  0  0  0  0  0
  194.6520  175.6250  137.3020 N   0  0  0  0  0  0  0  0  0  0  0  0
  194.3580  174.4160  138.0750 C   0  0  0  0  0  2  0  0  0  0  0  0
  196.4430  174.5010  139.4790 C   0  0  0  0  0  1  0  0  0  0  0  0
  196.4900  173.3830  137.2270 C   0  0  0  0  0  2  0  0  0  0  0  0
  195.6490  173.6910  138.4680 C   0  0  2  0  0  3  0  0  0  0  0  0
  196.6590  174.6160  136.3410 C   0  0  0  0  0  2  0  0  0  0  0  0
  189.5540  176.3580  139.3010 C   0  0  0  0  0  2  0  0  0  0  0  0
  190.2520  177.0930  140.4400 C   0  0  0  0  0  2  0  0  0  0  0  0
  189.2500  177.5100  141.5020 C   0  0  0  0  0  2  0  0  0  0  0  0
  189.3940  176.6650  142.7640 C   0  0  2  0  0  3  0  0  0  0  0  0
  187.9980  176.3870  143.2960 C   0  0  0  0  0  1  0  0  0  0  0  0
  190.4820  178.8310  143.4420 C   0  0  0  0  0  1  0  0  0  0  0  0
  190.2450  177.3770  143.8280 C   0  0  1  0  0  3  0  0  0  0  0  0
  190.2160  177.0460  146.3160 C   0  0  0  0  0  0  0  0  0  0  0  0
  189.5780  177.3430  145.1760 C   0  0  0  0  0  3  0  0  0  0  0  0
  189.4490  177.0750  147.5920 C   0  0  0  0  0  1  0  0  0  0  0  0
  191.6790  176.7200  146.3640 C   0  0  0  0  0  2  0  0  0  0  0  0
  191.9780  175.7710  147.5090 C   0  0  0  0  0  2  0  0  0  0  0  0
  192.8240  176.3960  148.4220 O   0  0  0  0  0  1  0  0  0  0  0  0
  2  1  1  1  0  0  0
  2 25  1  0  0  0  0
  3  6  1  0  0  0  0
  4  7  1  0  0  0  0
  5  4  1  6  0  0  0
  5  9  1  0  0  0  0
  5  7  1  0  0  0  0
  6  8  1  0  0  0  0
  7 10  1  0  0  0  0
  7  2  1  1  0  0  0
  9  6  1  0  0  0  0
 10  6  1  0  0  0  0
 11 13  1  1  0  0  0
 11 16  1  0  0  0  0
 11  2  1  0  0  0  0
 12 13  2  0  0  0  0
 14 12  1  0  0  0  0
 15 12  1  0  0  0  0
 17 19  1  0  0  0  0
 17 16  1  0  0  0  0
 18 24  1  0  0  0  0
 18 19  1  0  0  0  0
 19 20  1  0  0  0  0
 20 23  1  0  0  0  0
 22 23  1  0  0  0  0
 23 21  1  1  0  0  0
 24 22  1  0  0  0  0
 25 26  1  0  0  0  0
 26 27  1  0  0  0  0
 27 28  1  0  0  0  0
 28 29  1  1  0  0  0
 28 31  1  0  0  0  0
 31 30  1  6  0  0  0
 31 33  1  0  0  0  0
 32 35  1  0  0  0  0
 32 34  1  0  0  0  0
 33 32  2  0  0  0  0
 35 36  1  0  0  0  0
 36 37  1  0  0  0  0
M  END
>  <MODEL>
8

>  <REMARK>
 VINA RESULT:      -6.0      3.742      6.231
  Name = 
  14 active torsions:
  status: ('A' for Active; 'I' for Inactive)
    1  A    between atoms: C_1  and  C_5
    2  A    between atoms: C_1  and  C_36
    3  A    between atoms: C_5  and  C_17
    4  A    between atoms: N_6  and  C_31
    5  A    between atoms: C_7  and  C_33
    6  A    between atoms: C_10  and  C_14
    7  A    between atoms: C_10  and  C_20
    8  A    between atoms: C_10  and  C_22
    9  A    between atoms: C_11  and  C_33
   10  A    between atoms: C_14  and  C_31
   11  A    between atoms: C_17  and  C_26
   12  A    between atoms: C_20  and  C_24
   13  A    between atoms: C_20  and  C_29
   14  A    between atoms: C_29  and  C_36
                            x       y       z     vdW  Elec       q    Type
                         _______ _______ _______ _____ _____    ______ ____

>  <TORSDO>
F 14

$$$$
=
 OpenBabel11052415323D

 37 39  0  0  1  0  0  0  0  0999 V2000
  189.0520  179.3640  139.0060 O   0  0  0  0  0  1  0  0  0  0  0  0
  188.9720  177.9640  139.0210 C   0  0  1  0  0  0  0  0  0  0  0  0
  186.5320  175.3590  135.6640 O   0  0  0  0  0  1  0  0  0  0  0  0
  189.1640  178.2280  136.3510 C   0  0  0  0  0  2  0  0  0  0  0  0
  187.7500  178.5240  136.8280 C   0  0  2  0  0  3  0  0  0  0  0  0
  186.7080  176.3260  136.6510 C   0  0  0  0  0  0  0  0  0  0  0  0
  188.6150  177.5220  137.5760 C   0  0  2  0  0  0  0  0  0  0  0  0
  185.6700  176.2490  137.5800 O   0  0  0  0  0  1  0  0  0  0  0  0
  186.7450  177.7090  136.0340 C   0  0  0  0  0  2  0  0  0  0  0  0
  188.0370  176.1310  137.3470 C   0  0  0  0  0  2  0  0  0  0  0  0
  190.3340  177.3990  139.5230 C   0  0  2  0  0  3  0  0  0  0  0  0
  192.3340  176.3180  138.3990 C   0  0  0  0  0  0  0  0  0  0  0  0
  191.0190  176.4270  138.5870 C   0  0  0  0  0  3  0  0  0  0  0  0
  193.2330  177.1490  139.0510 O   0  0  0  0  0  1  0  0  0  0  0  0
  192.8480  175.2930  137.4530 C   0  0  0  0  0  1  0  0  0  0  0  0
  190.3000  176.9080  140.9720 C   0  0  0  0  0  2  0  0  0  0  0  0
  191.1700  177.7860  141.8550 C   0  0  0  0  0  2  0  0  0  0  0  0
  191.6750  177.6000  144.1380 C   0  0  0  0  0  2  0  0  0  0  0  0
  190.5970  177.8650  143.1870 N   0  0  0  0  0  0  0  0  0  0  0  0
  189.6180  176.7810  143.2850 C   0  0  0  0  0  2  0  0  0  0  0  0
  188.0800  177.9710  144.8780 C   0  0  0  0  0  1  0  0  0  0  0  0
  190.0340  176.6590  145.7630 C   0  0  0  0  0  2  0  0  0  0  0  0
  188.9660  176.7550  144.6710 C   0  0  2  0  0  3  0  0  0  0  0  0
  191.1400  177.6940  145.5630 C   0  0  0  0  0  2  0  0  0  0  0  0
  187.8170  177.5360  139.9440 C   0  0  0  0  0  2  0  0  0  0  0  0
  187.1880  178.7040  140.6950 C   0  0  0  0  0  2  0  0  0  0  0  0
  186.3480  178.2040  141.8580 C   0  0  0  0  0  2  0  0  0  0  0  0
  185.0750  179.0280  142.0180 C   0  0  2  0  0  3  0  0  0  0  0  0
  184.9160  179.3500  143.4940 C   0  0  0  0  0  1  0  0  0  0  0  0
  182.6060  178.6320  142.3090 C   0  0  0  0  0  1  0  0  0  0  0  0
  183.8420  178.2730  141.4950 C   0  0  1  0  0  3  0  0  0  0  0  0
  183.0110  177.7380  139.1880 C   0  0  0  0  0  0  0  0  0  0  0  0
  183.5730  178.5950  140.0520 C   0  0  0  0  0  3  0  0  0  0  0  0
  182.7710  178.1870  137.7890 C   0  0  0  0  0  1  0  0  0  0  0  0
  182.5830  176.3560  139.5830 C   0  0  0  0  0  2  0  0  0  0  0  0
  182.3480  175.4970  138.3540 C   0  0  0  0  0  2  0  0  0  0  0  0
  181.0700  174.9450  138.4090 O   0  0  0  0  0  1  0  0  0  0  0  0
  2  1  1  1  0  0  0
  2 11  1  0  0  0  0
  2 25  1  0  0  0  0
  3  6  1  0  0  0  0
  4  5  1  0  0  0  0
  4  7  1  0  0  0  0
  5  9  1  6  0  0  0
  5  7  1  0  0  0  0
  6 10  1  0  0  0  0
  6  8  1  0  0  0  0
  7  2  1  1  0  0  0
  9  6  1  0  0  0  0
 10  7  1  0  0  0  0
 11 13  1  6  0  0  0
 11 16  1  0  0  0  0
 12 13  2  0  0  0  0
 12 14  1  0  0  0  0
 15 12  1  0  0  0  0
 16 17  1  0  0  0  0
 17 19  1  0  0  0  0
 18 24  1  0  0  0  0
 19 20  1  0  0  0  0
 19 18  1  0  0  0  0
 20 23  1  0  0  0  0
 23 21  1  1  0  0  0
 23 22  1  0  0  0  0
 24 22  1  0  0  0  0
 25 26  1  0  0  0  0
 26 27  1  0  0  0  0
 27 28  1  0  0  0  0
 28 29  1  1  0  0  0
 31 28  1  0  0  0  0
 31 30  1  1  0  0  0
 32 35  1  0  0  0  0
 32 33  2  0  0  0  0
 33 31  1  0  0  0  0
 34 32  1  0  0  0  0
 36 37  1  0  0  0  0
 36 35  1  0  0  0  0
M  END
>  <MODEL>
9

>  <REMARK>
 VINA RESULT:      -6.0      2.587      7.151
  Name = 
  14 active torsions:
  status: ('A' for Active; 'I' for Inactive)
    1  A    between atoms: C_1  and  C_5
    2  A    between atoms: C_1  and  C_36
    3  A    between atoms: C_5  and  C_17
    4  A    between atoms: N_6  and  C_31
    5  A    between atoms: C_7  and  C_33
    6  A    between atoms: C_10  and  C_14
    7  A    between atoms: C_10  and  C_20
    8  A    between atoms: C_10  and  C_22
    9  A    between atoms: C_11  and  C_33
   10  A    between atoms: C_14  and  C_31
   11  A    between atoms: C_17  and  C_26
   12  A    between atoms: C_20  and  C_24
   13  A    between atoms: C_20  and  C_29
   14  A    between atoms: C_29  and  C_36
                            x       y       z     vdW  Elec       q    Type
                         _______ _______ _______ _____ _____    ______ ____

>  <TORSDO>
F 14

$$$$
