=
 OpenBabel11052415193D

 37 41  0  0  1  0  0  0  0  0999 V2000
  188.5090  176.5780  137.2090 C   0  0  1  0  0  0  0  0  0  0  0  0
  184.5590  176.1810  136.4410 S   0  0  0  0  0  0  0  0  0  0  0  0
  184.6320  179.0130  139.2510 C   0  0  0  0  0  3  0  0  0  0  0  0
  189.8120  177.2270  136.7000 C   0  0  1  0  0  3  0  0  0  0  0  0
  188.7750  176.8520  141.4500 C   0  0  0  0  0  3  0  0  0  0  0  0
  183.0820  176.4280  138.6490 C   0  0  0  0  0  3  0  0  0  0  0  0
  189.2840  178.4450  139.7780 O   0  0  0  0  0  1  0  0  0  0  0  0
  191.8380  177.2190  139.3490 O   0  0  0  0  0  1  0  0  0  0  0  0
  184.4500  178.4280  138.0670 C   0  0  0  0  0  3  0  0  0  0  0  0
  186.8210  177.9110  142.3970 N   0  0  0  0  0  2  0  0  0  0  0  0
  182.4580  176.9720  139.8720 C   0  0  0  0  0  3  0  0  0  0  0  0
  191.0580  176.4560  137.1680 C   0  0  2  0  0  3  0  0  0  0  0  0
  187.2520  176.6520  136.3410 C   0  0  1  0  0  3  0  0  0  0  0  0
  184.5120  177.0940  135.2480 O   0  0  0  0  0  0  0  0  0  0  0  0
  184.8520  179.1650  141.7140 C   0  0  0  0  0  2  0  0  0  0  0  0
  183.0400  177.8300  140.7110 C   0  0  0  0  0  3  0  0  0  0  0  0
  186.2220  175.5910  136.7150 C   0  0  0  0  0  2  0  0  0  0  0  0
  191.0940  176.2290  138.6940 C   0  0  2  0  0  3  0  0  0  0  0  0
  189.2430  177.1290  140.2360 C   0  0  0  0  0  0  0  0  0  0  0  0
  184.4510  178.2850  140.5440 C   0  0  1  0  0  3  0  0  0  0  0  0
  188.6140  175.5820  138.3690 C   0  0  0  0  0  2  0  0  0  0  0  0
  183.9900  177.0360  137.8680 C   0  0  0  0  0  0  0  0  0  0  0  0
  188.2760  177.9200  142.3700 C   0  0  1  0  0  3  0  0  0  0  0  0
  183.6660  175.0010  136.1740 O   0  0  0  0  0  0  0  0  0  0  0  0
  189.7080  176.0010  139.3600 C   0  0  1  0  0  3  0  0  0  0  0  0
  192.2250  177.0810  136.7240 O   0  0  0  0  0  1  0  0  0  0  0  0
  187.4540  177.6280  137.4830 C   0  0  0  0  0  2  0  0  0  0  0  0
  186.3650  179.1880  141.8770 C   0  0  0  0  0  2  0  0  0  0  0  0
  190.2220  177.6390  143.9650 C   0  0  0  0  0  3  0  0  0  0  0  0
  188.8380  177.7190  143.7430 C   0  0  0  0  0  0  0  0  0  0  0  0
  187.9630  177.6660  144.8350 C   0  0  0  0  0  3  0  0  0  0  0  0
  187.5880  177.4620  147.2100 O   0  0  0  0  0  1  0  0  0  0  0  0
  189.8400  177.4250  146.3450 C   0  0  0  0  0  3  0  0  0  0  0  0
  188.4620  177.5170  146.1310 C   0  0  0  0  0  0  0  0  0  0  0  0
  190.7200  177.4870  145.2620 C   0  0  0  0  0  3  0  0  0  0  0  0
  190.0540  176.3340  134.5950 C   0  0  0  0  0  1  0  0  0  0  0  0
  189.8080  177.5160  135.3130 O   0  0  0  0  0  0  0  0  0  0  0  0
  1 27  1  1  0  0  0
  1 21  1  0  0  0  0
  2 17  1  0  0  0  0
  2 22  1  0  0  0  0
  4 37  1  6  0  0  0
  4 12  1  0  0  0  0
  4  1  1  0  0  0  0
  5 23  1  0  0  0  0
  6 11  1  0  0  0  0
  7 19  1  0  0  0  0
  9  3  2  0  0  0  0
 11 16  2  0  0  0  0
 12 26  1  1  0  0  0
 12 18  1  0  0  0  0
 13 17  1  1  0  0  0
 13  1  1  0  0  0  0
 13 27  1  0  0  0  0
 14  2  2  0  0  0  0
 15 28  1  0  0  0  0
 18  8  1  1  0  0  0
 18 25  1  0  0  0  0
 19  5  2  0  0  0  0
 20  3  1  6  0  0  0
 20 16  1  0  0  0  0
 20 15  1  0  0  0  0
 22  9  1  0  0  0  0
 22  6  2  0  0  0  0
 23 10  1  0  0  0  0
 23 30  1  1  0  0  0
 24  2  2  0  0  0  0
 25 21  1  6  0  0  0
 25 19  1  0  0  0  0
 28 10  1  0  0  0  0
 29 35  1  0  0  0  0
 30 29  2  0  0  0  0
 30 31  1  0  0  0  0
 31 34  2  0  0  0  0
 34 33  1  0  0  0  0
 34 32  1  0  0  0  0
 35 33  2  0  0  0  0
 36 37  1  0  0  0  0
M  END
>  <MODEL>
1

>  <REMARK>
 VINA RESULT:      -7.7      0.000      0.000
  Name = 
  2 active torsions:
  status: ('A' for Active; 'I' for Inactive)
    1  A    between atoms: C_5  and  O_23
    2  A    between atoms: C_6  and  C_31
                            x       y       z     vdW  Elec       q    Type
                         _______ _______ _______ _____ _____    ______ ____

>  <TORSDO>
F 2

$$$$
=
 OpenBabel11052415193D

 37 41  0  0  1  0  0  0  0  0999 V2000
  189.1310  177.4920  142.6850 C   0  0  1  0  0  0  0  0  0  0  0  0
  190.2770  176.2740  139.0030 S   0  0  0  0  0  0  0  0  0  0  0  0
  187.4390  178.9630  138.2010 C   0  0  0  0  0  3  0  0  0  0  0  0
  189.5060  178.4230  143.8550 C   0  0  1  0  0  3  0  0  0  0  0  0
  184.8810  177.6790  142.5000 C   0  0  0  0  0  3  0  0  0  0  0  0
  188.2170  176.1240  137.3140 C   0  0  0  0  0  3  0  0  0  0  0  0
  186.4780  179.3970  142.7970 O   0  0  0  0  0  1  0  0  0  0  0  0
  186.6760  178.7680  145.5860 O   0  0  0  0  0  1  0  0  0  0  0  0
  188.6420  178.3900  138.2590 C   0  0  0  0  0  3  0  0  0  0  0  0
  184.1120  178.2590  140.2840 N   0  0  0  0  0  2  0  0  0  0  0  0
  187.0530  176.4800  136.4780 C   0  0  0  0  0  3  0  0  0  0  0  0
  188.9300  177.9250  145.1920 C   0  0  2  0  0  3  0  0  0  0  0  0
  190.1140  177.3200  141.5260 C   0  0  1  0  0  3  0  0  0  0  0  0
  191.4580  177.1940  138.8660 O   0  0  0  0  0  0  0  0  0  0  0  0
  184.9650  179.0790  138.1590 C   0  0  0  0  0  2  0  0  0  0  0  0
  186.1520  177.4160  136.7800 C   0  0  0  0  0  3  0  0  0  0  0  0
  189.8530  176.0490  140.7240 C   0  0  0  0  0  2  0  0  0  0  0  0
  187.4100  177.6630  145.1380 C   0  0  2  0  0  3  0  0  0  0  0  0
  186.0410  178.0900  143.0030 C   0  0  0  0  0  0  0  0  0  0  0  0
  186.1780  178.1710  138.0670 C   0  0  1  0  0  3  0  0  0  0  0  0
  187.9780  176.5050  142.9000 C   0  0  0  0  0  2  0  0  0  0  0  0
  188.9000  176.9390  138.1350 C   0  0  0  0  0  0  0  0  0  0  0  0
  184.0000  178.5840  141.6980 C   0  0  1  0  0  3  0  0  0  0  0  0
  190.6420  174.9380  138.4180 O   0  0  0  0  0  0  0  0  0  0  0  0
  186.8820  177.1190  143.7810 C   0  0  1  0  0  3  0  0  0  0  0  0
  189.2530  178.8030  146.2290 O   0  0  0  0  0  1  0  0  0  0  0  0
  188.9470  178.2790  141.4060 C   0  0  0  0  0  2  0  0  0  0  0  0
  184.6580  179.4230  139.6080 C   0  0  0  0  0  2  0  0  0  0  0  0
  182.2200  178.7420  143.4910 C   0  0  0  0  0  3  0  0  0  0  0  0
  182.5820  178.4640  142.1640 C   0  0  0  0  0  0  0  0  0  0  0  0
  181.5890  178.1220  141.2380 C   0  0  0  0  0  3  0  0  0  0  0  0
  179.2720  177.6970  140.7130 O   0  0  0  0  0  1  0  0  0  0  0  0
  179.8990  178.3060  142.9630 C   0  0  0  0  0  3  0  0  0  0  0  0
  180.2520  178.0410  141.6370 C   0  0  0  0  0  0  0  0  0  0  0  0
  180.8820  178.6580  143.8900 C   0  0  0  0  0  3  0  0  0  0  0  0
  191.5850  177.6830  144.5000 C   0  0  0  0  0  1  0  0  0  0  0  0
  190.8830  178.7490  143.9130 O   0  0  0  0  0  0  0  0  0  0  0  0
  1 27  1  6  0  0  0
  1 21  1  0  0  0  0
  1  4  1  0  0  0  0
  2 17  1  0  0  0  0
  3  9  2  0  0  0  0
  4 37  1  1  0  0  0
  4 12  1  0  0  0  0
  5 19  2  0  0  0  0
  6 22  2  0  0  0  0
  7 19  1  0  0  0  0
 10 23  1  0  0  0  0
 11 16  2  0  0  0  0
 11  6  1  0  0  0  0
 12 26  1  1  0  0  0
 13 17  1  6  0  0  0
 13  1  1  0  0  0  0
 14  2  2  0  0  0  0
 15 28  1  0  0  0  0
 18 12  1  0  0  0  0
 18  8  1  6  0  0  0
 19 25  1  0  0  0  0
 20 16  1  6  0  0  0
 20 15  1  0  0  0  0
 20  3  1  0  0  0  0
 22  9  1  0  0  0  0
 22  2  1  0  0  0  0
 23 30  1  1  0  0  0
 23  5  1  0  0  0  0
 24  2  2  0  0  0  0
 25 21  1  6  0  0  0
 25 18  1  0  0  0  0
 27 13  1  0  0  0  0
 28 10  1  0  0  0  0
 29 35  1  0  0  0  0
 30 29  2  0  0  0  0
 31 34  2  0  0  0  0
 31 30  1  0  0  0  0
 32 34  1  0  0  0  0
 33 35  2  0  0  0  0
 34 33  1  0  0  0  0
 37 36  1  0  0  0  0
M  END
>  <MODEL>
2

>  <REMARK>
 VINA RESULT:      -7.1      2.640      6.724
  Name = 
  2 active torsions:
  status: ('A' for Active; 'I' for Inactive)
    1  A    between atoms: C_5  and  O_23
    2  A    between atoms: C_6  and  C_31
                            x       y       z     vdW  Elec       q    Type
                         _______ _______ _______ _____ _____    ______ ____

>  <TORSDO>
F 2

$$$$
=
 OpenBabel11052415193D

 37 41  0  0  1  0  0  0  0  0999 V2000
  190.3760  176.9870  140.2210 C   0  0  1  0  0  0  0  0  0  0  0  0
  189.2120  175.6310  136.5930 S   0  0  0  0  0  0  0  0  0  0  0  0
  186.6480  178.6090  137.2880 C   0  0  0  0  0  3  0  0  0  0  0  0
  191.4090  177.8780  140.9380 C   0  0  1  0  0  3  0  0  0  0  0  0
  186.7510  177.6340  142.3590 C   0  0  0  0  0  3  0  0  0  0  0  0
  186.5600  175.6980  136.3050 C   0  0  0  0  0  3  0  0  0  0  0  0
  188.3960  179.1700  141.6330 O   0  0  0  0  0  1  0  0  0  0  0  0
  190.0270  178.5380  143.9020 O   0  0  0  0  0  1  0  0  0  0  0  0
  187.6310  177.9090  136.7220 C   0  0  0  0  0  3  0  0  0  0  0  0
  184.9510  178.2830  140.8830 N   0  0  0  0  0  2  0  0  0  0  0  0
  185.1650  176.1740  136.2140 C   0  0  0  0  0  3  0  0  0  0  0  0
  191.6160  177.4520  142.4030 C   0  0  2  0  0  3  0  0  0  0  0  0
  190.5470  176.7020  138.7280 C   0  0  1  0  0  3  0  0  0  0  0  0
  190.2030  176.4160  135.7790 O   0  0  0  0  0  0  0  0  0  0  0  0
  184.5740  178.9940  138.5880 C   0  0  0  0  0  2  0  0  0  0  0  0
  184.6630  177.2040  136.8960 C   0  0  0  0  0  3  0  0  0  0  0  0
  189.7790  175.4640  138.2790 C   0  0  0  0  0  2  0  0  0  0  0  0
  190.2970  177.3570  143.1990 C   0  0  2  0  0  3  0  0  0  0  0  0
  188.0290  177.9190  142.1250 C   0  0  0  0  0  0  0  0  0  0  0  0
  185.4540  177.9580  137.9110 C   0  0  1  0  0  3  0  0  0  0  0  0
  189.4460  176.1320  141.0890 C   0  0  0  0  0  2  0  0  0  0  0  0
  187.6500  176.4380  136.5700 C   0  0  0  0  0  0  0  0  0  0  0  0
  185.6590  178.6260  142.1080 C   0  0  1  0  0  3  0  0  0  0  0  0
  189.0780  174.2610  135.9900 O   0  0  0  0  0  0  0  0  0  0  0  0
  189.0680  176.8660  142.3830 C   0  0  1  0  0  3  0  0  0  0  0  0
  192.5290  178.2950  143.0400 O   0  0  0  0  0  1  0  0  0  0  0  0
  189.5930  177.7820  139.1990 C   0  0  0  0  0  2  0  0  0  0  0  0
  185.1400  179.3770  139.9470 C   0  0  0  0  0  2  0  0  0  0  0  0
  183.3300  178.6600  143.0990 C   0  0  0  0  0  3  0  0  0  0  0  0
  184.7220  178.6640  143.2750 C   0  0  0  0  0  0  0  0  0  0  0  0
  185.2510  178.6450  144.5710 C   0  0  0  0  0  3  0  0  0  0  0  0
  184.9310  178.6270  146.9630 O   0  0  0  0  0  1  0  0  0  0  0  0
  183.0140  178.6510  145.4980 C   0  0  0  0  0  3  0  0  0  0  0  0
  184.3990  178.6410  145.6790 C   0  0  0  0  0  0  0  0  0  0  0  0
  182.4780  178.6590  144.2080 C   0  0  0  0  0  3  0  0  0  0  0  0
  193.3350  176.8450  140.2240 C   0  0  0  0  0  1  0  0  0  0  0  0
  192.6180  178.0520  140.2190 O   0  0  0  0  0  0  0  0  0  0  0  0
  1 27  1  6  0  0  0
  1  4  1  0  0  0  0
  1 21  1  0  0  0  0
  2 17  1  0  0  0  0
  3 20  1  0  0  0  0
  4 37  1  6  0  0  0
  4 12  1  0  0  0  0
  6 22  2  0  0  0  0
  7 19  1  0  0  0  0
  9  3  2  0  0  0  0
 10 23  1  0  0  0  0
 11  6  1  0  0  0  0
 11 16  2  0  0  0  0
 12 26  1  1  0  0  0
 12 18  1  0  0  0  0
 13 17  1  1  0  0  0
 13 27  1  0  0  0  0
 13  1  1  0  0  0  0
 14  2  2  0  0  0  0
 15 28  1  0  0  0  0
 18  8  1  6  0  0  0
 19  5  2  0  0  0  0
 19 25  1  0  0  0  0
 20 16  1  6  0  0  0
 20 15  1  0  0  0  0
 22  2  1  0  0  0  0
 22  9  1  0  0  0  0
 23  5  1  0  0  0  0
 23 30  1  1  0  0  0
 24  2  2  0  0  0  0
 25 21  1  6  0  0  0
 25 18  1  0  0  0  0
 28 10  1  0  0  0  0
 29 30  2  0  0  0  0
 29 35  1  0  0  0  0
 30 31  1  0  0  0  0
 31 34  2  0  0  0  0
 33 34  1  0  0  0  0
 34 32  1  0  0  0  0
 35 33  2  0  0  0  0
 37 36  1  0  0  0  0
M  END
>  <MODEL>
3

>  <REMARK>
 VINA RESULT:      -7.1      2.334      4.461
  Name = 
  2 active torsions:
  status: ('A' for Active; 'I' for Inactive)
    1  A    between atoms: C_5  and  O_23
    2  A    between atoms: C_6  and  C_31
                            x       y       z     vdW  Elec       q    Type
                         _______ _______ _______ _____ _____    ______ ____

>  <TORSDO>
F 2

$$$$
=
 OpenBabel11052415193D

 37 41  0  0  1  0  0  0  0  0999 V2000
  187.5560  176.5940  136.8140 C   0  0  1  0  0  0  0  0  0  0  0  0
  183.5260  176.3880  137.0820 S   0  0  0  0  0  0  0  0  0  0  0  0
  184.4430  179.2270  139.7320 C   0  0  0  0  0  3  0  0  0  0  0  0
  188.7140  177.1760  135.9800 C   0  0  1  0  0  3  0  0  0  0  0  0
  188.9040  176.8740  140.8440 C   0  0  0  0  0  3  0  0  0  0  0  0
  182.6720  176.7190  139.5880 C   0  0  0  0  0  3  0  0  0  0  0  0
  189.0440  178.4320  139.0700 O   0  0  0  0  0  1  0  0  0  0  0  0
  191.3460  177.0800  138.0280 O   0  0  0  0  0  1  0  0  0  0  0  0
  183.9390  178.6460  138.6430 C   0  0  0  0  0  3  0  0  0  0  0  0
  187.3070  178.0320  142.2380 N   0  0  0  0  0  2  0  0  0  0  0  0
  182.4060  177.2980  140.9200 C   0  0  0  0  0  3  0  0  0  0  0  0
  190.0020  176.3460  136.1300 C   0  0  2  0  0  3  0  0  0  0  0  0
  186.1240  176.7260  136.2930 C   0  0  1  0  0  3  0  0  0  0  0  0
  183.2200  177.2970  135.9240 O   0  0  0  0  0  0  0  0  0  0  0  0
  185.2900  179.3790  142.0560 C   0  0  0  0  0  2  0  0  0  0  0  0
  183.2220  178.1300  141.5690 C   0  0  0  0  0  3  0  0  0  0  0  0
  185.1750  175.7180  136.9340 C   0  0  0  0  0  2  0  0  0  0  0  0
  190.4140  176.1250  137.6010 C   0  0  2  0  0  3  0  0  0  0  0  0
  189.0600  177.1220  139.5460 C   0  0  0  0  0  0  0  0  0  0  0  0
  184.5630  178.5140  141.0410 C   0  0  1  0  0  3  0  0  0  0  0  0
  187.9060  175.6000  137.9260 C   0  0  0  0  0  2  0  0  0  0  0  0
  183.3790  177.2770  138.5920 C   0  0  0  0  0  0  0  0  0  0  0  0
  188.7060  177.9700  141.8420 C   0  0  1  0  0  3  0  0  0  0  0  0
  182.5410  175.2530  137.0700 O   0  0  0  0  0  0  0  0  0  0  0  0
  189.2340  175.9690  138.6000 C   0  0  1  0  0  3  0  0  0  0  0  0
  191.0450  176.9110  135.3940 O   0  0  0  0  0  1  0  0  0  0  0  0
  186.6550  177.6960  137.3290 C   0  0  0  0  0  2  0  0  0  0  0  0
  186.7930  179.3280  141.8290 C   0  0  0  0  0  2  0  0  0  0  0  0
  190.9850  177.8650  142.9400 C   0  0  0  0  0  3  0  0  0  0  0  0
  189.5890  177.7470  143.0310 C   0  0  0  0  0  0  0  0  0  0  0  0
  189.0020  177.4710  144.2710 C   0  0  0  0  0  3  0  0  0  0  0  0
  189.2100  177.0190  146.6330 O   0  0  0  0  0  1  0  0  0  0  0  0
  191.1890  177.4020  145.3070 C   0  0  0  0  0  3  0  0  0  0  0  0
  189.7990  177.2970  145.4050 C   0  0  0  0  0  0  0  0  0  0  0  0
  191.7820  177.6870  144.0750 C   0  0  0  0  0  3  0  0  0  0  0  0
  187.5930  178.6270  134.5940 C   0  0  0  0  0  1  0  0  0  0  0  0
  188.3710  177.4580  134.6350 O   0  0  0  0  0  0  0  0  0  0  0  0
  1 27  1  1  0  0  0
  1 21  1  0  0  0  0
  2 22  1  0  0  0  0
  4 37  1  6  0  0  0
  4 12  1  0  0  0  0
  4  1  1  0  0  0  0
  5 23  1  0  0  0  0
  6 11  1  0  0  0  0
  7 19  1  0  0  0  0
  9  3  2  0  0  0  0
 11 16  2  0  0  0  0
 12 26  1  6  0  0  0
 12 18  1  0  0  0  0
 13  1  1  0  0  0  0
 13 17  1  1  0  0  0
 13 27  1  0  0  0  0
 14  2  2  0  0  0  0
 17  2  1  0  0  0  0
 18  8  1  1  0  0  0
 18 25  1  0  0  0  0
 19  5  2  0  0  0  0
 20  3  1  6  0  0  0
 20 16  1  0  0  0  0
 20 15  1  0  0  0  0
 22  9  1  0  0  0  0
 22  6  2  0  0  0  0
 23 10  1  0  0  0  0
 23 30  1  1  0  0  0
 24  2  2  0  0  0  0
 25 21  1  6  0  0  0
 25 19  1  0  0  0  0
 28 15  1  0  0  0  0
 28 10  1  0  0  0  0
 29 30  2  0  0  0  0
 29 35  1  0  0  0  0
 30 31  1  0  0  0  0
 31 34  2  0  0  0  0
 33 34  1  0  0  0  0
 34 32  1  0  0  0  0
 35 33  2  0  0  0  0
 36 37  1  0  0  0  0
M  END
>  <MODEL>
4

>  <REMARK>
 VINA RESULT:      -6.5      1.092      1.268
  Name = 
  2 active torsions:
  status: ('A' for Active; 'I' for Inactive)
    1  A    between atoms: C_5  and  O_23
    2  A    between atoms: C_6  and  C_31
                            x       y       z     vdW  Elec       q    Type
                         _______ _______ _______ _____ _____    ______ ____

>  <TORSDO>
F 2

$$$$
=
 OpenBabel11052415193D

 37 41  0  0  1  0  0  0  0  0999 V2000
  190.0670  176.7660  139.3620 C   0  0  1  0  0  0  0  0  0  0  0  0
  187.8280  175.5470  136.2230 S   0  0  0  0  0  0  0  0  0  0  0  0
  185.7220  178.6110  137.6730 C   0  0  0  0  0  3  0  0  0  0  0  0
  191.3050  177.5960  139.7530 C   0  0  1  0  0  3  0  0  0  0  0  0
  187.2620  177.5120  142.4790 C   0  0  0  0  0  3  0  0  0  0  0  0
  185.2140  175.7310  136.7280 C   0  0  0  0  0  3  0  0  0  0  0  0
  188.6920  178.9960  141.3160 O   0  0  0  0  0  1  0  0  0  0  0  0
  190.8860  178.2420  142.9980 O   0  0  0  0  0  1  0  0  0  0  0  0
  186.4620  177.8850  136.8340 C   0  0  0  0  0  3  0  0  0  0  0  0
  185.1410  178.2700  141.6040 N   0  0  0  0  0  2  0  0  0  0  0  0
  183.8770  176.2660  137.0560 C   0  0  0  0  0  3  0  0  0  0  0  0
  191.9120  177.1280  141.0870 C   0  0  2  0  0  3  0  0  0  0  0  0
  189.7790  176.5110  137.8820 C   0  0  1  0  0  3  0  0  0  0  0  0
  188.5710  176.3100  135.1620 O   0  0  0  0  0  0  0  0  0  0  0  0
  184.1410  179.0500  139.5290 C   0  0  0  0  0  2  0  0  0  0  0  0
  183.6460  177.2990  137.8670 C   0  0  0  0  0  3  0  0  0  0  0  0
  188.8550  175.3160  137.6650 C   0  0  0  0  0  2  0  0  0  0  0  0
  190.8820  177.0680  142.2350 C   0  0  2  0  0  3  0  0  0  0  0  0
  188.4280  177.7500  141.8820 C   0  0  0  0  0  0  0  0  0  0  0  0
  184.7340  177.9960  138.6120 C   0  0  1  0  0  3  0  0  0  0  0  0
  189.3930  175.9310  140.4560 C   0  0  0  0  0  2  0  0  0  0  0  0
  186.3670  176.4180  136.6680 C   0  0  0  0  0  0  0  0  0  0  0  0
  186.1920  178.5540  142.5700 C   0  0  1  0  0  3  0  0  0  0  0  0
  187.4590  174.1980  135.6710 O   0  0  0  0  0  0  0  0  0  0  0  0
  189.4460  176.6490  141.8110 C   0  0  1  0  0  3  0  0  0  0  0  0
  193.0100  177.9160  141.4370 O   0  0  0  0  0  1  0  0  0  0  0  0
  189.0560  177.6180  138.6240 C   0  0  0  0  0  2  0  0  0  0  0  0
  185.0980  179.3780  140.6650 C   0  0  0  0  0  2  0  0  0  0  0  0
  184.3000  178.9330  144.2090 C   0  0  0  0  0  3  0  0  0  0  0  0
  185.6420  178.6030  143.9610 C   0  0  0  0  0  0  0  0  0  0  0  0
  186.4730  178.2550  145.0330 C   0  0  0  0  0  3  0  0  0  0  0  0
  186.8070  177.9120  147.3990 O   0  0  0  0  0  1  0  0  0  0  0  0
  184.6420  178.5970  146.5810 C   0  0  0  0  0  3  0  0  0  0  0  0
  185.9750  178.2540  146.3390 C   0  0  0  0  0  0  0  0  0  0  0  0
  183.8040  178.9360  145.5160 C   0  0  0  0  0  3  0  0  0  0  0  0
  192.8920  176.5030  138.4980 C   0  0  0  0  0  1  0  0  0  0  0  0
  192.2560  177.7380  138.7120 O   0  0  0  0  0  0  0  0  0  0  0  0
  1 27  1  1  0  0  0
  1  4  1  0  0  0  0
  1 21  1  0  0  0  0
  2 22  1  0  0  0  0
  2 17  1  0  0  0  0
  4 37  1  6  0  0  0
  4 12  1  0  0  0  0
  5 23  1  0  0  0  0
  6 11  1  0  0  0  0
  7 19  1  0  0  0  0
  9  3  2  0  0  0  0
 10 23  1  0  0  0  0
 11 16  2  0  0  0  0
 12 26  1  1  0  0  0
 12 18  1  0  0  0  0
 13 17  1  1  0  0  0
 13 27  1  0  0  0  0
 13  1  1  0  0  0  0
 14  2  2  0  0  0  0
 15 28  1  0  0  0  0
 16 20  1  0  0  0  0
 18  8  1  6  0  0  0
 19  5  2  0  0  0  0
 20  3  1  6  0  0  0
 20 15  1  0  0  0  0
 22  6  2  0  0  0  0
 22  9  1  0  0  0  0
 23 30  1  1  0  0  0
 24  2  2  0  0  0  0
 25 21  1  6  0  0  0
 25 19  1  0  0  0  0
 25 18  1  0  0  0  0
 28 10  1  0  0  0  0
 29 35  1  0  0  0  0
 30 29  2  0  0  0  0
 30 31  1  0  0  0  0
 31 34  2  0  0  0  0
 34 33  1  0  0  0  0
 34 32  1  0  0  0  0
 35 33  2  0  0  0  0
 36 37  1  0  0  0  0
M  END
>  <MODEL>
5

>  <REMARK>
 VINA RESULT:      -6.3      1.978      3.356
  Name = 
  2 active torsions:
  status: ('A' for Active; 'I' for Inactive)
    1  A    between atoms: C_5  and  O_23
    2  A    between atoms: C_6  and  C_31
                            x       y       z     vdW  Elec       q    Type
                         _______ _______ _______ _____ _____    ______ ____

>  <TORSDO>
F 2

$$$$
=
 OpenBabel11052415193D

 37 41  0  0  1  0  0  0  0  0999 V2000
  183.5450  178.3250  139.3800 C   0  0  1  0  0  0  0  0  0  0  0  0
  184.9830  178.6280  143.1480 S   0  0  0  0  0  0  0  0  0  0  0  0
  188.3020  178.6250  140.9330 C   0  0  0  0  0  3  0  0  0  0  0  0
  182.9240  179.1300  138.2220 C   0  0  1  0  0  3  0  0  0  0  0  0
  186.0930  175.5010  137.4640 C   0  0  0  0  0  3  0  0  0  0  0  0
  187.2430  177.2480  143.4690 C   0  0  0  0  0  3  0  0  0  0  0  0
  185.7680  177.8050  137.0410 O   0  0  0  0  0  1  0  0  0  0  0  0
  183.4050  177.2230  135.5280 O   0  0  0  0  0  1  0  0  0  0  0  0
  187.3460  179.0560  141.7570 C   0  0  0  0  0  3  0  0  0  0  0  0
  188.3410  175.5920  138.3420 N   0  0  0  0  0  2  0  0  0  0  0  0
  188.6330  176.7680  143.3250 C   0  0  0  0  0  3  0  0  0  0  0  0
  182.0730  178.2420  137.2970 C   0  0  2  0  0  3  0  0  0  0  0  0
  183.7490  179.0050  140.7340 C   0  0  1  0  0  3  0  0  0  0  0  0
  184.8390  180.1190  143.2780 O   0  0  0  0  0  0  0  0  0  0  0  0
  189.7420  176.9790  139.7670 C   0  0  0  0  0  2  0  0  0  0  0  0
  189.3280  176.7690  142.1880 C   0  0  0  0  0  3  0  0  0  0  0  0
  183.8970  178.0030  141.8740 C   0  0  0  0  0  2  0  0  0  0  0  0
  182.8280  176.9990  136.7850 C   0  0  2  0  0  3  0  0  0  0  0  0
  185.2810  176.5550  137.4160 C   0  0  0  0  0  0  0  0  0  0  0  0
  188.7380  177.1950  140.8850 C   0  0  1  0  0  3  0  0  0  0  0  0
  183.5880  176.7990  139.2460 C   0  0  0  0  0  2  0  0  0  0  0  0
  186.6490  178.2220  142.7600 C   0  0  0  0  0  0  0  0  0  0  0  0
  187.5460  175.6050  137.1240 C   0  0  1  0  0  3  0  0  0  0  0  0
  184.6040  177.9960  144.4580 O   0  0  0  0  0  0  0  0  0  0  0  0
  183.8380  176.3790  137.7910 C   0  0  1  0  0  3  0  0  0  0  0  0
  181.5500  178.9870  136.2380 O   0  0  0  0  0  1  0  0  0  0  0  0
  184.9020  178.8790  139.7580 C   0  0  0  0  0  2  0  0  0  0  0  0
  189.0370  176.8660  138.4240 C   0  0  0  0  0  2  0  0  0  0  0  0
  189.1060  174.5440  135.4360 C   0  0  0  0  0  3  0  0  0  0  0  0
  187.9410  174.4820  136.2160 C   0  0  0  0  0  0  0  0  0  0  0  0
  187.1570  173.3220  136.1890 C   0  0  0  0  0  3  0  0  0  0  0  0
  186.7390  171.0960  135.3550 O   0  0  0  0  0  1  0  0  0  0  0  0
  188.6770  172.3160  134.5950 C   0  0  0  0  0  3  0  0  0  0  0  0
  187.5230  172.2430  135.3800 C   0  0  0  0  0  0  0  0  0  0  0  0
  189.4700  173.4660  134.6230 C   0  0  0  0  0  3  0  0  0  0  0  0
  181.0230  179.9920  139.1850 C   0  0  0  0  0  1  0  0  0  0  0  0
  182.2710  180.3190  138.6310 O   0  0  0  0  0  0  0  0  0  0  0  0
  1 21  1  6  0  0  0
  1 27  1  0  0  0  0
  1 13  1  0  0  0  0
  2 14  2  0  0  0  0
  2 24  2  0  0  0  0
  3  9  2  0  0  0  0
  4 37  1  1  0  0  0
  4  1  1  0  0  0  0
  7 19  1  0  0  0  0
  9 22  1  0  0  0  0
 10 28  1  0  0  0  0
 11  6  1  0  0  0  0
 12 26  1  6  0  0  0
 12  4  1  0  0  0  0
 13 27  1  6  0  0  0
 13 17  1  0  0  0  0
 16 11  2  0  0  0  0
 17  2  1  0  0  0  0
 18  8  1  6  0  0  0
 18 12  1  0  0  0  0
 18 25  1  0  0  0  0
 19  5  2  0  0  0  0
 19 25  1  0  0  0  0
 20 15  1  6  0  0  0
 20  3  1  0  0  0  0
 20 16  1  0  0  0  0
 22  2  1  0  0  0  0
 22  6  2  0  0  0  0
 23 30  1  6  0  0  0
 23  5  1  0  0  0  0
 23 10  1  0  0  0  0
 25 21  1  1  0  0  0
 28 15  1  0  0  0  0
 29 30  1  0  0  0  0
 31 30  2  0  0  0  0
 32 34  1  0  0  0  0
 33 35  1  0  0  0  0
 33 34  2  0  0  0  0
 34 31  1  0  0  0  0
 35 29  2  0  0  0  0
 37 36  1  0  0  0  0
M  END
>  <MODEL>
6

>  <REMARK>
 VINA RESULT:      -6.3      2.862      7.834
  Name = 
  2 active torsions:
  status: ('A' for Active; 'I' for Inactive)
    1  A    between atoms: C_5  and  O_23
    2  A    between atoms: C_6  and  C_31
                            x       y       z     vdW  Elec       q    Type
                         _______ _______ _______ _____ _____    ______ ____

>  <TORSDO>
F 2

$$$$
=
 OpenBabel11052415193D

 37 41  0  0  1  0  0  0  0  0999 V2000
  186.2100  177.4690  137.1700 C   0  0  1  0  0  0  0  0  0  0  0  0
  182.8290  175.5270  136.0960 S   0  0  0  0  0  0  0  0  0  0  0  0
  181.5360  178.0800  138.8770 C   0  0  0  0  0  3  0  0  0  0  0  0
  187.1730  178.6000  136.7590 C   0  0  1  0  0  3  0  0  0  0  0  0
  186.0200  177.7250  141.4160 C   0  0  0  0  0  3  0  0  0  0  0  0
  181.2150  175.1040  138.1780 C   0  0  0  0  0  3  0  0  0  0  0  0
  185.9660  179.4270  139.7750 O   0  0  0  0  0  1  0  0  0  0  0  0
  188.8220  179.3480  139.5600 O   0  0  0  0  0  1  0  0  0  0  0  0
  181.6970  177.4990  137.6880 C   0  0  0  0  0  3  0  0  0  0  0  0
  183.7390  177.8810  142.1970 N   0  0  0  0  0  2  0  0  0  0  0  0
  180.3340  175.3200  139.3430 C   0  0  0  0  0  3  0  0  0  0  0  0
  188.5850  178.3870  137.3320 C   0  0  2  0  0  3  0  0  0  0  0  0
  185.1000  177.0490  136.2040 C   0  0  1  0  0  3  0  0  0  0  0  0
  182.5070  176.3720  134.8950 O   0  0  0  0  0  0  0  0  0  0  0  0
  181.4890  178.2490  141.3490 C   0  0  0  0  0  2  0  0  0  0  0  0
  180.4540  176.3190  140.2180 C   0  0  0  0  0  3  0  0  0  0  0  0
  184.5630  175.6540  136.5050 C   0  0  0  0  0  2  0  0  0  0  0  0
  188.5940  178.1580  138.8580 C   0  0  2  0  0  3  0  0  0  0  0  0
  186.4260  178.1960  140.2400 C   0  0  0  0  0  0  0  0  0  0  0  0
  181.5680  177.3100  140.1590 C   0  0  1  0  0  3  0  0  0  0  0  0
  186.6210  176.5730  138.3430 C   0  0  0  0  0  2  0  0  0  0  0  0
  181.8560  176.0460  137.4660 C   0  0  0  0  0  0  0  0  0  0  0  0
  185.0630  178.4780  142.2840 C   0  0  1  0  0  3  0  0  0  0  0  0
  182.5130  174.0940  135.7690 O   0  0  0  0  0  0  0  0  0  0  0  0
  187.3720  177.3740  139.4140 C   0  0  1  0  0  3  0  0  0  0  0  0
  189.4290  179.4420  136.9760 O   0  0  0  0  0  1  0  0  0  0  0  0
  184.8030  177.9960  137.3500 C   0  0  0  0  0  2  0  0  0  0  0  0
  182.8450  178.8770  141.6300 C   0  0  0  0  0  2  0  0  0  0  0  0
  184.7870  179.0400  144.7370 C   0  0  0  0  0  3  0  0  0  0  0  0
  185.5530  178.4880  143.6990 C   0  0  0  0  0  0  0  0  0  0  0  0
  186.7790  177.8820  143.9980 C   0  0  0  0  0  3  0  0  0  0  0  0
  188.4630  177.2420  145.6040 O   0  0  0  0  0  1  0  0  0  0  0  0
  186.4820  178.4050  146.3430 C   0  0  0  0  0  3  0  0  0  0  0  0
  187.2430  177.8420  145.3150 C   0  0  0  0  0  0  0  0  0  0  0  0
  185.2530  179.0030  146.0550 C   0  0  0  0  0  3  0  0  0  0  0  0
  187.8000  177.8610  134.6740 C   0  0  0  0  0  1  0  0  0  0  0  0
  187.1570  178.8960  135.3740 O   0  0  0  0  0  0  0  0  0  0  0  0
  1 27  1  1  0  0  0
  1 21  1  0  0  0  0
  2 17  1  0  0  0  0
  2 22  1  0  0  0  0
  4 37  1  6  0  0  0
  4  1  1  0  0  0  0
  4 12  1  0  0  0  0
  5 23  1  0  0  0  0
  6 11  1  0  0  0  0
  7 19  1  0  0  0  0
  9  3  2  0  0  0  0
 10 23  1  0  0  0  0
 11 16  2  0  0  0  0
 12 26  1  1  0  0  0
 12 18  1  0  0  0  0
 13 17  1  1  0  0  0
 13  1  1  0  0  0  0
 13 27  1  0  0  0  0
 14  2  2  0  0  0  0
 15 28  1  0  0  0  0
 18 25  1  0  0  0  0
 18  8  1  1  0  0  0
 19  5  2  0  0  0  0
 20  3  1  6  0  0  0
 20 16  1  0  0  0  0
 20 15  1  0  0  0  0
 22  9  1  0  0  0  0
 22  6  2  0  0  0  0
 23 30  1  1  0  0  0
 24  2  2  0  0  0  0
 25 21  1  6  0  0  0
 25 19  1  0  0  0  0
 28 10  1  0  0  0  0
 29 35  1  0  0  0  0
 30 31  1  0  0  0  0
 30 29  2  0  0  0  0
 31 34  2  0  0  0  0
 34 32  1  0  0  0  0
 34 33  1  0  0  0  0
 35 33  2  0  0  0  0
 36 37  1  0  0  0  0
M  END
>  <MODEL>
7

>  <REMARK>
 VINA RESULT:      -5.5      2.224      3.045
  Name = 
  2 active torsions:
  status: ('A' for Active; 'I' for Inactive)
    1  A    between atoms: C_5  and  O_23
    2  A    between atoms: C_6  and  C_31
                            x       y       z     vdW  Elec       q    Type
                         _______ _______ _______ _____ _____    ______ ____

>  <TORSDO>
F 2

$$$$
=
 OpenBabel11052415193D

 37 41  0  0  1  0  0  0  0  0999 V2000
  183.2250  177.6870  139.2660 C   0  0  1  0  0  0  0  0  0  0  0  0
  185.4940  178.7240  142.4480 S   0  0  0  0  0  0  0  0  0  0  0  0
  188.1940  178.2940  139.5410 C   0  0  0  0  0  3  0  0  0  0  0  0
  182.3100  178.2490  138.1600 C   0  0  1  0  0  3  0  0  0  0  0  0
  185.3830  174.5480  137.3620 C   0  0  0  0  0  3  0  0  0  0  0  0
  187.8320  177.4370  142.4700 C   0  0  0  0  0  3  0  0  0  0  0  0
  184.8550  176.7250  136.6020 O   0  0  0  0  0  1  0  0  0  0  0  0
  182.2340  175.8530  135.8410 O   0  0  0  0  0  1  0  0  0  0  0  0
  187.4390  178.8760  140.4740 C   0  0  0  0  0  3  0  0  0  0  0  0
  187.7690  174.8140  137.6390 N   0  0  0  0  0  2  0  0  0  0  0  0
  189.1700  176.9410  142.0900 C   0  0  0  0  0  3  0  0  0  0  0  0
  181.3080  177.1960  137.6540 C   0  0  2  0  0  3  0  0  0  0  0  0
  183.7090  178.6190  140.3770 C   0  0  1  0  0  3  0  0  0  0  0  0
  185.3130  180.2110  142.3240 O   0  0  0  0  0  0  0  0  0  0  0  0
  189.3960  176.4550  138.3950 C   0  0  0  0  0  2  0  0  0  0  0  0
  189.5760  176.7220  140.8390 C   0  0  0  0  0  3  0  0  0  0  0  0
  184.1710  177.8590  141.6160 C   0  0  0  0  0  2  0  0  0  0  0  0
  181.9810  175.8780  137.2190 C   0  0  2  0  0  3  0  0  0  0  0  0
  184.5330  175.5700  137.3130 C   0  0  0  0  0  0  0  0  0  0  0  0
  188.6750  176.8830  139.6610 C   0  0  1  0  0  3  0  0  0  0  0  0
  183.3090  176.1640  139.4160 C   0  0  0  0  0  2  0  0  0  0  0  0
  187.0400  178.2530  141.7540 C   0  0  0  0  0  0  0  0  0  0  0  0
  186.7080  174.5860  136.6690 C   0  0  1  0  0  3  0  0  0  0  0  0
  185.4670  178.3600  143.9060 O   0  0  0  0  0  0  0  0  0  0  0  0
  183.2290  175.4690  138.0510 C   0  0  1  0  0  3  0  0  0  0  0  0
  180.5150  177.7180  136.6300 O   0  0  0  0  0  1  0  0  0  0  0  0
  184.6030  178.3070  139.1930 C   0  0  0  0  0  2  0  0  0  0  0  0
  188.4000  176.0800  137.3080 C   0  0  0  0  0  2  0  0  0  0  0  0
  188.2240  172.8630  135.5980 C   0  0  0  0  0  3  0  0  0  0  0  0
  186.9320  173.3080  135.9210 C   0  0  0  0  0  0  0  0  0  0  0  0
  185.8290  172.5140  135.5880 C   0  0  0  0  0  3  0  0  0  0  0  0
  184.9100  170.5150  134.5940 O   0  0  0  0  0  1  0  0  0  0  0  0
  187.2980  170.8660  134.5940 C   0  0  0  0  0  3  0  0  0  0  0  0
  186.0110  171.2980  134.9240 C   0  0  0  0  0  0  0  0  0  0  0  0
  188.4050  171.6480  134.9310 C   0  0  0  0  0  3  0  0  0  0  0  0
  180.6670  179.2820  139.3940 C   0  0  0  0  0  1  0  0  0  0  0  0
  181.7140  179.4940  138.4830 O   0  0  0  0  0  0  0  0  0  0  0  0
  1 27  1  6  0  0  0
  1 21  1  0  0  0  0
  1 13  1  0  0  0  0
  2 24  2  0  0  0  0
  3 20  1  0  0  0  0
  3  9  2  0  0  0  0
  4 37  1  1  0  0  0
  4  1  1  0  0  0  0
  7 19  1  0  0  0  0
  9 22  1  0  0  0  0
 11  6  1  0  0  0  0
 12 26  1  6  0  0  0
 12  4  1  0  0  0  0
 13 27  1  6  0  0  0
 13 17  1  0  0  0  0
 14  2  2  0  0  0  0
 16 11  2  0  0  0  0
 17  2  1  0  0  0  0
 18  8  1  6  0  0  0
 18 12  1  0  0  0  0
 18 25  1  0  0  0  0
 19  5  2  0  0  0  0
 19 25  1  0  0  0  0
 20 15  1  6  0  0  0
 20 16  1  0  0  0  0
 22  2  1  0  0  0  0
 22  6  2  0  0  0  0
 23 30  1  1  0  0  0
 23  5  1  0  0  0  0
 23 10  1  0  0  0  0
 25 21  1  1  0  0  0
 28 10  1  0  0  0  0
 28 15  1  0  0  0  0
 29 30  1  0  0  0  0
 31 30  2  0  0  0  0
 32 34  1  0  0  0  0
 33 34  2  0  0  0  0
 33 35  1  0  0  0  0
 34 31  1  0  0  0  0
 35 29  2  0  0  0  0
 37 36  1  0  0  0  0
M  END
>  <MODEL>
8

>  <REMARK>
 VINA RESULT:      -5.3      3.140      8.256
  Name = 
  2 active torsions:
  status: ('A' for Active; 'I' for Inactive)
    1  A    between atoms: C_5  and  O_23
    2  A    between atoms: C_6  and  C_31
                            x       y       z     vdW  Elec       q    Type
                         _______ _______ _______ _____ _____    ______ ____

>  <TORSDO>
F 2

$$$$
=
 OpenBabel11052415193D

 37 41  0  0  1  0  0  0  0  0999 V2000
  183.7860  178.4880  139.1580 C   0  0  1  0  0  0  0  0  0  0  0  0
  187.7540  177.9480  138.5920 S   0  0  0  0  0  0  0  0  0  0  0  0
  186.1670  176.3700  135.2880 C   0  0  0  0  0  3  0  0  0  0  0  0
  182.6500  179.5240  139.0570 C   0  0  1  0  0  3  0  0  0  0  0  0
  181.9990  174.8270  137.9180 C   0  0  0  0  0  3  0  0  0  0  0  0
  188.2850  175.6270  137.3880 C   0  0  0  0  0  3  0  0  0  0  0  0
  181.8220  177.0030  137.0090 O   0  0  0  0  0  1  0  0  0  0  0  0
  179.8600  177.6970  138.9790 O   0  0  0  0  0  1  0  0  0  0  0  0
  186.8600  177.1940  136.0750 C   0  0  0  0  0  3  0  0  0  0  0  0
  183.2590  173.7780  136.1440 N   0  0  0  0  0  2  0  0  0  0  0  0
  188.3250  174.5290  136.4010 C   0  0  0  0  0  3  0  0  0  0  0  0
  181.4860  179.1940  140.0090 C   0  0  2  0  0  3  0  0  0  0  0  0
  185.2310  178.9450  138.9490 C   0  0  1  0  0  3  0  0  0  0  0  0
  188.0450  179.3130  138.0330 O   0  0  0  0  0  0  0  0  0  0  0  0
  185.0700  174.2600  134.5940 C   0  0  0  0  0  2  0  0  0  0  0  0
  187.3350  174.2180  135.5640 C   0  0  0  0  0  3  0  0  0  0  0  0
  186.2420  177.9700  139.5440 C   0  0  0  0  0  2  0  0  0  0  0  0
  180.9590  177.7530  139.8460 C   0  0  2  0  0  3  0  0  0  0  0  0
  181.9450  176.1440  138.0990 C   0  0  0  0  0  0  0  0  0  0  0  0
  186.0150  174.9120  135.5870 C   0  0  1  0  0  3  0  0  0  0  0  0
  183.4690  177.1430  139.8190 C   0  0  0  0  0  2  0  0  0  0  0  0
  187.6130  176.7850  137.2810 C   0  0  0  0  0  0  0  0  0  0  0  0
  181.9320  174.2110  136.5570 C   0  0  1  0  0  3  0  0  0  0  0  0
  188.8870  177.5510  139.4960 O   0  0  0  0  0  0  0  0  0  0  0  0
  182.0380  176.6920  139.4950 C   0  0  1  0  0  3  0  0  0  0  0  0
  180.4550  180.1260  139.8740 O   0  0  0  0  0  1  0  0  0  0  0  0
  184.4610  178.2940  137.8170 C   0  0  0  0  0  2  0  0  0  0  0  0
  183.6210  174.5420  134.9630 C   0  0  0  0  0  2  0  0  0  0  0  0
  179.8300  173.0630  137.3770 C   0  0  0  0  0  3  0  0  0  0  0  0
  180.9710  173.0630  136.5600 C   0  0  0  0  0  0  0  0  0  0  0  0
  181.1890  171.9920  135.6850 C   0  0  0  0  0  3  0  0  0  0  0  0
  180.5130  169.8640  134.7700 O   0  0  0  0  0  1  0  0  0  0  0  0
  179.1600  170.9250  136.4640 C   0  0  0  0  0  3  0  0  0  0  0  0
  180.2880  170.9260  135.6390 C   0  0  0  0  0  0  0  0  0  0  0  0
  178.9310  171.9940  137.3330 C   0  0  0  0  0  3  0  0  0  0  0  0
  182.2980  181.6620  138.2850 C   0  0  0  0  0  1  0  0  0  0  0  0
  183.0870  180.8690  139.1360 O   0  0  0  0  0  0  0  0  0  0  0  0
  1 27  1  6  0  0  0
  1 21  1  0  0  0  0
  2 24  2  0  0  0  0
  2 17  1  0  0  0  0
  3 20  1  0  0  0  0
  3  9  2  0  0  0  0
  4 37  1  1  0  0  0
  4  1  1  0  0  0  0
  4 12  1  0  0  0  0
  5 19  2  0  0  0  0
  7 19  1  0  0  0  0
  9 22  1  0  0  0  0
 10 23  1  0  0  0  0
 11  6  1  0  0  0  0
 12 26  1  6  0  0  0
 13 27  1  6  0  0  0
 13  1  1  0  0  0  0
 13 17  1  0  0  0  0
 14  2  2  0  0  0  0
 15 28  1  0  0  0  0
 16 20  1  0  0  0  0
 16 11  2  0  0  0  0
 18  8  1  6  0  0  0
 18 12  1  0  0  0  0
 19 25  1  0  0  0  0
 20 15  1  6  0  0  0
 22  6  2  0  0  0  0
 22  2  1  0  0  0  0
 23 30  1  1  0  0  0
 23  5  1  0  0  0  0
 25 21  1  6  0  0  0
 25 18  1  0  0  0  0
 28 10  1  0  0  0  0
 30 29  2  0  0  0  0
 31 30  1  0  0  0  0
 32 34  1  0  0  0  0
 33 35  2  0  0  0  0
 34 31  2  0  0  0  0
 34 33  1  0  0  0  0
 35 29  1  0  0  0  0
 36 37  1  0  0  0  0
M  END
>  <MODEL>
9

>  <REMARK>
 VINA RESULT:      -4.8      3.898      9.240
  Name = 
  2 active torsions:
  status: ('A' for Active; 'I' for Inactive)
    1  A    between atoms: C_5  and  O_23
    2  A    between atoms: C_6  and  C_31
                            x       y       z     vdW  Elec       q    Type
                         _______ _______ _______ _____ _____    ______ ____

>  <TORSDO>
F 2

$$$$
