=
 OpenBabel11052415483D

 34 39  0  0  1  0  0  0  0  0999 V2000
  186.2720  178.1170  143.6430 C   0  0  0  0  0  0  0  0  0  0  0  0
  189.0060  177.9510  146.1920 C   0  0  0  0  0  3  0  0  0  0  0  0
  186.6130  177.8360  146.5810 C   0  0  0  0  0  2  0  0  0  0  0  0
  184.6110  178.6840  141.9540 C   0  0  0  0  0  0  0  0  0  0  0  0
  185.9180  178.2430  142.2870 C   0  0  0  0  0  3  0  0  0  0  0  0
  184.0930  178.8270  144.2850 C   0  0  0  0  0  0  0  0  0  0  0  0
  183.3850  179.0020  145.4200 N   0  0  0  0  0  0  0  0  0  0  0  0
  183.6680  178.9760  142.9680 C   0  0  0  0  0  3  0  0  0  0  0  0
  185.3960  178.3510  145.8750 C   0  0  0  0  0  0  0  0  0  0  0  0
  185.3290  178.4260  144.5510 N   0  0  0  0  0  0  0  0  0  0  0  0
  184.2100  178.6950  146.4270 N   0  0  0  0  0  0  0  0  0  0  0  0
  190.2700  178.0800  145.4120 C   0  0  0  0  0  2  0  0  0  0  0  0
  190.5510  176.8460  144.6140 C   0  0  0  0  0  0  0  0  0  0  0  0
  189.7430  176.4570  143.6290 C   0  0  0  0  0  3  0  0  0  0  0  0
  187.8030  177.7930  145.6370 C   0  0  0  0  0  0  0  0  0  0  0  0
  188.4320  177.0510  143.3060 C   0  0  0  0  0  3  0  0  0  0  0  0
  187.5870  177.6680  144.1490 C   0  0  0  0  0  0  0  0  0  0  0  0
  191.8380  176.1100  144.8080 C   0  0  2  0  0  3  0  0  0  0  0  0
  191.8530  174.8980  144.0060 N   0  0  0  0  0  1  0  0  0  0  0  0
  192.0440  175.7600  146.2700 C   0  0  0  0  0  1  0  0  0  0  0  0
  184.2190  178.8280  140.5090 C   0  0  0  0  0  2  0  0  0  0  0  0
  183.8090  176.2050  137.8610 C   0  0  0  0  0  2  0  0  0  0  0  0
  182.3070  177.4270  140.0830 C   0  0  0  0  0  2  0  0  0  0  0  0
  180.7260  173.9930  138.0140 C   0  0  0  0  0  0  0  0  0  0  0  0
  181.9460  174.5550  137.6120 C   0  0  0  0  0  3  0  0  0  0  0  0
  182.4720  175.6640  138.2810 C   0  0  0  0  0  0  0  0  0  0  0  0
  180.5660  175.6520  139.7830 C   0  0  0  0  0  3  0  0  0  0  0  0
  181.7870  176.2020  139.3880 C   0  0  0  0  0  0  0  0  0  0  0  0
  180.0400  174.5500  139.1030 C   0  0  0  0  0  3  0  0  0  0  0  0
  183.7510  177.5830  139.8840 N   0  0  0  0  0  0  0  0  0  0  0  0
  184.0550  177.5930  138.4500 C   0  0  0  0  0  2  0  0  0  0  0  0
  180.1910  172.8590  137.3180 N   0  0  0  0  0  0  0  0  0  0  0  0
  180.3950  171.7020  137.7380 O   0  0  0  0  0  0  0  0  0  0  0  0
  179.4430  173.0360  136.1760 O   0  0  0  0  0  0  0  0  0  0  0  0
  1 17  1  0  0  0  0
  1 10  1  0  0  0  0
  4  5  1  0  0  0  0
  4  8  2  0  0  0  0
  5  1  2  0  0  0  0
  6 10  1  0  0  0  0
  6  7  2  0  0  0  0
  7 11  1  0  0  0  0
  8  6  1  0  0  0  0
  9 11  2  0  0  0  0
  9  3  1  0  0  0  0
 10  9  1  0  0  0  0
 12  2  1  0  0  0  0
 13 18  1  0  0  0  0
 13 12  1  0  0  0  0
 14 13  2  0  0  0  0
 15  2  2  0  0  0  0
 15  3  1  0  0  0  0
 16 14  1  0  0  0  0
 16 17  2  0  0  0  0
 17 15  1  0  0  0  0
 18 20  1  1  0  0  0
 19 18  1  0  0  0  0
 21  4  1  0  0  0  0
 22 26  1  0  0  0  0
 22 31  1  0  0  0  0
 24 29  1  0  0  0  0
 25 24  2  0  0  0  0
 25 26  1  0  0  0  0
 26 28  2  0  0  0  0
 28 27  1  0  0  0  0
 28 23  1  0  0  0  0
 29 27  2  0  0  0  0
 30 23  1  0  0  0  0
 30 21  1  0  0  0  0
 31 30  1  0  0  0  0
 32 33  2  0  0  0  0
 32 24  1  0  0  0  0
 34 32  2  0  0  0  0
M  END
>  <MODEL>
1

>  <REMARK>
 VINA RESULT:     -10.2      0.000      0.000
  Name = 
  4 active torsions:
  status: ('A' for Active; 'I' for Inactive)
    1  A    between atoms: C_3  and  C_25
    2  A    between atoms: C_7  and  N_11
    3  A    between atoms: C_8  and  C_18
    4  A    between atoms: C_18  and  N_30
                            x       y       z     vdW  Elec       q    Type
                         _______ _______ _______ _____ _____    ______ ____

>  <TORSDO>
F 4

$$$$
=
 OpenBabel11052415483D

 34 39  0  0  1  0  0  0  0  0999 V2000
  188.8740  177.4650  144.3510 C   0  0  0  0  0  0  0  0  0  0  0  0
  191.9870  177.0770  142.3100 C   0  0  0  0  0  3  0  0  0  0  0  0
  191.5800  176.2550  144.5570 C   0  0  0  0  0  2  0  0  0  0  0  0
  186.9840  178.1710  145.7140 C   0  0  0  0  0  0  0  0  0  0  0  0
  187.5650  177.9720  144.4350 C   0  0  0  0  0  3  0  0  0  0  0  0
  188.9900  177.3500  146.7250 C   0  0  0  0  0  0  0  0  0  0  0  0
  189.8580  176.9350  147.6710 N   0  0  0  0  0  0  0  0  0  0  0  0
  187.7010  177.8470  146.8900 C   0  0  0  0  0  3  0  0  0  0  0  0
  190.7060  176.6740  145.7000 C   0  0  0  0  0  0  0  0  0  0  0  0
  189.4990  177.1940  145.5090 N   0  0  0  0  0  0  0  0  0  0  0  0
  190.9420  176.5010  147.0210 N   0  0  0  0  0  0  0  0  0  0  0  0
  191.6970  177.7770  141.0260 C   0  0  0  0  0  2  0  0  0  0  0  0
  190.7160  177.0130  140.1940 C   0  0  0  0  0  0  0  0  0  0  0  0
  189.4640  176.8130  140.6040 C   0  0  0  0  0  3  0  0  0  0  0  0
  191.0710  176.8390  143.2500 C   0  0  0  0  0  0  0  0  0  0  0  0
  188.9330  177.1460  141.9400 C   0  0  0  0  0  3  0  0  0  0  0  0
  189.6140  177.2000  143.0970 C   0  0  0  0  0  0  0  0  0  0  0  0
  191.0830  176.5920  138.8060 C   0  0  2  0  0  3  0  0  0  0  0  0
  190.5780  175.2570  138.5340 N   0  0  0  0  0  1  0  0  0  0  0  0
  192.5880  176.6210  138.6150 C   0  0  0  0  0  1  0  0  0  0  0  0
  185.5860  178.7170  145.8210 C   0  0  0  0  0  2  0  0  0  0  0  0
  184.5720  178.7400  142.2110 C   0  0  0  0  0  2  0  0  0  0  0  0
  183.3680  178.8870  144.8980 C   0  0  0  0  0  2  0  0  0  0  0  0
  180.8660  178.5410  141.4070 C   0  0  0  0  0  0  0  0  0  0  0  0
  182.2580  178.6170  141.2670 C   0  0  0  0  0  3  0  0  0  0  0  0
  183.0810  178.7210  142.3930 C   0  0  0  0  0  0  0  0  0  0  0  0
  181.1200  178.6560  143.8210 C   0  0  0  0  0  3  0  0  0  0  0  0
  182.5070  178.7180  143.6790 C   0  0  0  0  0  0  0  0  0  0  0  0
  180.3020  178.5630  142.6910 C   0  0  0  0  0  3  0  0  0  0  0  0
  184.7500  178.4700  144.6380 N   0  0  0  0  0  0  0  0  0  0  0  0
  185.2790  179.2020  143.4840 C   0  0  0  0  0  2  0  0  0  0  0  0
  180.0290  178.4410  140.2460 N   0  0  0  0  0  0  0  0  0  0  0  0
  180.0030  179.3600  139.4020 O   0  0  0  0  0  0  0  0  0  0  0  0
  179.2450  177.3280  140.0500 O   0  0  0  0  0  0  0  0  0  0  0  0
  1  5  2  0  0  0  0
  1 10  1  0  0  0  0
  2 15  2  0  0  0  0
  3  9  1  0  0  0  0
  4 21  1  0  0  0  0
  4  8  2  0  0  0  0
  5  4  1  0  0  0  0
  6  8  1  0  0  0  0
  6  7  2  0  0  0  0
  9 11  2  0  0  0  0
 10  9  1  0  0  0  0
 10  6  1  0  0  0  0
 11  7  1  0  0  0  0
 12  2  1  0  0  0  0
 13 14  2  0  0  0  0
 13 12  1  0  0  0  0
 14 16  1  0  0  0  0
 15  3  1  0  0  0  0
 16 17  2  0  0  0  0
 17 15  1  0  0  0  0
 17  1  1  0  0  0  0
 18 20  1  1  0  0  0
 18 13  1  0  0  0  0
 19 18  1  0  0  0  0
 22 26  1  0  0  0  0
 22 31  1  0  0  0  0
 24 29  1  0  0  0  0
 25 24  2  0  0  0  0
 25 26  1  0  0  0  0
 26 28  2  0  0  0  0
 28 27  1  0  0  0  0
 28 23  1  0  0  0  0
 29 27  2  0  0  0  0
 30 23  1  0  0  0  0
 30 21  1  0  0  0  0
 31 30  1  0  0  0  0
 32 24  1  0  0  0  0
 33 32  2  0  0  0  0
 34 32  2  0  0  0  0
M  END
>  <MODEL>
2

>  <REMARK>
 VINA RESULT:     -10.0      3.084      5.291
  Name = 
  4 active torsions:
  status: ('A' for Active; 'I' for Inactive)
    1  A    between atoms: C_3  and  C_25
    2  A    between atoms: C_7  and  N_11
    3  A    between atoms: C_8  and  C_18
    4  A    between atoms: C_18  and  N_30
                            x       y       z     vdW  Elec       q    Type
                         _______ _______ _______ _____ _____    ______ ____

>  <TORSDO>
F 4

$$$$
=
 OpenBabel11052415483D

 34 39  0  0  1  0  0  0  0  0999 V2000
  186.4410  178.2170  144.0620 C   0  0  0  0  0  0  0  0  0  0  0  0
  188.0340  178.2060  147.4480 C   0  0  0  0  0  3  0  0  0  0  0  0
  185.6640  178.1370  146.9290 C   0  0  0  0  0  2  0  0  0  0  0  0
  185.5400  178.6790  141.8470 C   0  0  0  0  0  0  0  0  0  0  0  0
  186.6170  178.2520  142.6670 C   0  0  0  0  0  3  0  0  0  0  0  0
  184.2030  178.9860  143.8060 C   0  0  0  0  0  0  0  0  0  0  0  0
  183.1330  179.2450  144.5850 N   0  0  0  0  0  0  0  0  0  0  0  0
  184.3000  179.0480  142.4190 C   0  0  0  0  0  3  0  0  0  0  0  0
  184.8110  178.6120  145.7910 C   0  0  0  0  0  0  0  0  0  0  0  0
  185.2410  178.5950  144.5350 N   0  0  0  0  0  0  0  0  0  0  0  0
  183.5170  179.0020  145.8430 N   0  0  0  0  0  0  0  0  0  0  0  0
  189.5000  178.2710  147.1860 C   0  0  0  0  0  2  0  0  0  0  0  0
  190.0150  176.9830  146.6260 C   0  0  0  0  0  0  0  0  0  0  0  0
  189.6150  176.5330  145.4370 C   0  0  0  0  0  3  0  0  0  0  0  0
  187.1170  178.0190  146.4980 C   0  0  0  0  0  0  0  0  0  0  0  0
  188.5360  177.1130  144.6160 C   0  0  0  0  0  3  0  0  0  0  0  0
  187.4610  177.7940  145.0460 C   0  0  0  0  0  0  0  0  0  0  0  0
  191.1150  176.2510  147.3280 C   0  0  2  0  0  3  0  0  0  0  0  0
  191.8580  177.1590  148.1850 N   0  0  0  0  0  1  0  0  0  0  0  0
  192.0550  175.6040  146.3270 C   0  0  0  0  0  1  0  0  0  0  0  0
  185.7150  178.7260  140.3540 C   0  0  0  0  0  2  0  0  0  0  0  0
  188.5720  178.0000  138.0370 C   0  0  0  0  0  2  0  0  0  0  0  0
  187.9010  177.8780  140.9040 C   0  0  0  0  0  2  0  0  0  0  0  0
  191.9330  177.1370  139.5780 C   0  0  0  0  0  0  0  0  0  0  0  0
  190.9250  177.4060  138.6420 C   0  0  0  0  0  3  0  0  0  0  0  0
  189.6150  177.6570  139.0610 C   0  0  0  0  0  0  0  0  0  0  0  0
  190.3120  177.3880  141.3700 C   0  0  0  0  0  3  0  0  0  0  0  0
  189.3120  177.6690  140.4370 C   0  0  0  0  0  0  0  0  0  0  0  0
  191.6170  177.1280  140.9450 C   0  0  0  0  0  3  0  0  0  0  0  0
  187.1080  178.6020  139.9040 N   0  0  0  0  0  0  0  0  0  0  0  0
  187.1650  177.8950  138.6220 C   0  0  0  0  0  2  0  0  0  0  0  0
  193.2730  176.8750  139.1390 N   0  0  0  0  0  0  0  0  0  0  0  0
  194.1990  176.7520  139.9660 O   0  0  0  0  0  0  0  0  0  0  0  0
  193.5530  176.7550  137.7970 O   0  0  0  0  0  0  0  0  0  0  0  0
  1 10  1  0  0  0  0
  1 17  1  0  0  0  0
  4  8  2  0  0  0  0
  4  5  1  0  0  0  0
  5  1  2  0  0  0  0
  6 10  1  0  0  0  0
  6  7  2  0  0  0  0
  7 11  1  0  0  0  0
  8  6  1  0  0  0  0
  9 11  2  0  0  0  0
  9  3  1  0  0  0  0
 10  9  1  0  0  0  0
 12  2  1  0  0  0  0
 13 12  1  0  0  0  0
 13 18  1  0  0  0  0
 14 13  2  0  0  0  0
 15  3  1  0  0  0  0
 15  2  2  0  0  0  0
 16 17  2  0  0  0  0
 16 14  1  0  0  0  0
 17 15  1  0  0  0  0
 18 20  1  6  0  0  0
 18 19  1  0  0  0  0
 21  4  1  0  0  0  0
 22 31  1  0  0  0  0
 22 26  1  0  0  0  0
 24 29  1  0  0  0  0
 25 26  1  0  0  0  0
 25 24  2  0  0  0  0
 26 28  2  0  0  0  0
 28 23  1  0  0  0  0
 28 27  1  0  0  0  0
 29 27  2  0  0  0  0
 30 21  1  0  0  0  0
 30 23  1  0  0  0  0
 31 30  1  0  0  0  0
 32 24  1  0  0  0  0
 32 33  2  0  0  0  0
 34 32  2  0  0  0  0
M  END
>  <MODEL>
3

>  <REMARK>
 VINA RESULT:      -9.8      4.887      6.303
  Name = 
  4 active torsions:
  status: ('A' for Active; 'I' for Inactive)
    1  A    between atoms: C_3  and  C_25
    2  A    between atoms: C_7  and  N_11
    3  A    between atoms: C_8  and  C_18
    4  A    between atoms: C_18  and  N_30
                            x       y       z     vdW  Elec       q    Type
                         _______ _______ _______ _____ _____    ______ ____

>  <TORSDO>
F 4

$$$$
=
 OpenBabel11052415483D

 34 39  0  0  1  0  0  0  0  0999 V2000
  183.8080  178.6700  141.3800 C   0  0  0  0  0  0  0  0  0  0  0  0
  184.2360  177.6020  137.8190 C   0  0  0  0  0  3  0  0  0  0  0  0
  182.3400  178.7570  138.7980 C   0  0  0  0  0  2  0  0  0  0  0  0
  183.4740  178.9010  143.7810 C   0  0  0  0  0  0  0  0  0  0  0  0
  184.3480  178.7190  142.6780 C   0  0  0  0  0  3  0  0  0  0  0  0
  181.6240  178.9900  142.2680 C   0  0  0  0  0  0  0  0  0  0  0  0
  180.3630  179.1390  141.8110 N   0  0  0  0  0  0  0  0  0  0  0  0
  182.0820  179.0490  143.5810 C   0  0  0  0  0  3  0  0  0  0  0  0
  181.7330  178.8350  140.1670 C   0  0  0  0  0  0  0  0  0  0  0  0
  182.4750  178.8040  141.2680 N   0  0  0  0  0  0  0  0  0  0  0  0
  180.4350  179.0460  140.4790 N   0  0  0  0  0  0  0  0  0  0  0  0
  185.5680  176.9340  137.7730 C   0  0  0  0  0  2  0  0  0  0  0  0
  186.6830  177.9210  137.9080 C   0  0  0  0  0  0  0  0  0  0  0  0
  186.8500  178.6310  139.0240 C   0  0  0  0  0  3  0  0  0  0  0  0
  183.7790  178.2770  138.8750 C   0  0  0  0  0  0  0  0  0  0  0  0
  185.9150  178.6770  140.1630 C   0  0  0  0  0  3  0  0  0  0  0  0
  184.5840  178.4910  140.1330 C   0  0  0  0  0  0  0  0  0  0  0  0
  187.7300  178.0140  136.8450 C   0  0  2  0  0  3  0  0  0  0  0  0
  188.6370  179.1140  137.1240 N   0  0  0  0  0  1  0  0  0  0  0  0
  187.0960  178.2050  135.4800 C   0  0  0  0  0  1  0  0  0  0  0  0
  184.0360  178.9510  145.1750 C   0  0  0  0  0  2  0  0  0  0  0  0
  187.3350  177.4100  144.2800 C   0  0  0  0  0  2  0  0  0  0  0  0
  185.8570  178.3700  146.6420 C   0  0  0  0  0  2  0  0  0  0  0  0
  189.9850  177.1860  146.9910 C   0  0  0  0  0  0  0  0  0  0  0  0
  189.3280  177.0860  145.7560 C   0  0  0  0  0  3  0  0  0  0  0  0
  187.9910  177.4750  145.6290 C   0  0  0  0  0  0  0  0  0  0  0  0
  187.9560  178.0900  147.9770 C   0  0  0  0  0  3  0  0  0  0  0  0
  187.3080  178.0010  146.7430 C   0  0  0  0  0  0  0  0  0  0  0  0
  189.2890  177.6890  148.1000 C   0  0  0  0  0  3  0  0  0  0  0  0
  185.4760  178.6680  145.2570 N   0  0  0  0  0  0  0  0  0  0  0  0
  185.8170  177.5320  144.3950 C   0  0  0  0  0  2  0  0  0  0  0  0
  191.3540  176.7790  147.1130 N   0  0  0  0  0  0  0  0  0  0  0  0
  192.0330  177.1250  148.1010 O   0  0  0  0  0  0  0  0  0  0  0  0
  191.9360  175.9990  146.1400 O   0  0  0  0  0  0  0  0  0  0  0  0
  1  5  2  0  0  0  0
  2 15  2  0  0  0  0
  3 15  1  0  0  0  0
  3  9  1  0  0  0  0
  4 21  1  0  0  0  0
  5  4  1  0  0  0  0
  6  8  1  0  0  0  0
  7  6  2  0  0  0  0
  8  4  2  0  0  0  0
  9 11  2  0  0  0  0
  9 10  1  0  0  0  0
 10  1  1  0  0  0  0
 10  6  1  0  0  0  0
 11  7  1  0  0  0  0
 12  2  1  0  0  0  0
 12 13  1  0  0  0  0
 13 14  2  0  0  0  0
 14 16  1  0  0  0  0
 15 17  1  0  0  0  0
 17 16  2  0  0  0  0
 17  1  1  0  0  0  0
 18 20  1  6  0  0  0
 18 19  1  0  0  0  0
 18 13  1  0  0  0  0
 21 30  1  0  0  0  0
 22 31  1  0  0  0  0
 22 26  1  0  0  0  0
 23 28  1  0  0  0  0
 24 32  1  0  0  0  0
 24 29  1  0  0  0  0
 25 24  2  0  0  0  0
 26 25  1  0  0  0  0
 26 28  2  0  0  0  0
 27 29  2  0  0  0  0
 28 27  1  0  0  0  0
 30 23  1  0  0  0  0
 31 30  1  0  0  0  0
 32 33  2  0  0  0  0
 34 32  2  0  0  0  0
M  END
>  <MODEL>
4

>  <REMARK>
 VINA RESULT:      -9.8      4.506      8.899
  Name = 
  4 active torsions:
  status: ('A' for Active; 'I' for Inactive)
    1  A    between atoms: C_3  and  C_25
    2  A    between atoms: C_7  and  N_11
    3  A    between atoms: C_8  and  C_18
    4  A    between atoms: C_18  and  N_30
                            x       y       z     vdW  Elec       q    Type
                         _______ _______ _______ _____ _____    ______ ____

>  <TORSDO>
F 4

$$$$
=
 OpenBabel11052415483D

 34 39  0  0  1  0  0  0  0  0999 V2000
  186.7880  178.1700  144.1460 C   0  0  0  0  0  0  0  0  0  0  0  0
  188.1720  178.1980  147.6230 C   0  0  0  0  0  3  0  0  0  0  0  0
  185.8380  178.1390  146.9620 C   0  0  0  0  0  2  0  0  0  0  0  0
  186.0270  178.6050  141.8740 C   0  0  0  0  0  0  0  0  0  0  0  0
  187.0490  178.1820  142.7640 C   0  0  0  0  0  3  0  0  0  0  0  0
  184.5760  178.9520  143.7440 C   0  0  0  0  0  0  0  0  0  0  0  0
  183.4630  179.2300  144.4530 N   0  0  0  0  0  0  0  0  0  0  0  0
  184.7580  178.9910  142.3640 C   0  0  0  0  0  3  0  0  0  0  0  0
  185.0590  178.6020  145.7680 C   0  0  0  0  0  0  0  0  0  0  0  0
  185.5640  178.5640  144.5400 N   0  0  0  0  0  0  0  0  0  0  0  0
  183.7680  179.0030  145.7340 N   0  0  0  0  0  0  0  0  0  0  0  0
  189.6520  178.2480  147.4490 C   0  0  0  0  0  2  0  0  0  0  0  0
  190.1900  176.9480  146.9410 C   0  0  0  0  0  0  0  0  0  0  0  0
  189.8590  176.4830  145.7370 C   0  0  0  0  0  3  0  0  0  0  0  0
  187.3130  178.0040  146.6210 C   0  0  0  0  0  0  0  0  0  0  0  0
  188.8370  177.0590  144.8430 C   0  0  0  0  0  3  0  0  0  0  0  0
  187.7430  177.7540  145.1970 C   0  0  0  0  0  0  0  0  0  0  0  0
  191.2390  176.2200  147.7190 C   0  0  2  0  0  3  0  0  0  0  0  0
  192.0550  177.1590  148.4680 N   0  0  0  0  0  1  0  0  0  0  0  0
  192.1180  175.3960  146.7960 C   0  0  0  0  0  1  0  0  0  0  0  0
  186.2920  178.6280  140.3940 C   0  0  0  0  0  2  0  0  0  0  0  0
  189.9120  177.6520  140.4630 C   0  0  0  0  0  2  0  0  0  0  0  0
  187.7130  178.0410  138.5390 C   0  0  0  0  0  2  0  0  0  0  0  0
  191.4660  176.3660  137.2450 C   0  0  0  0  0  0  0  0  0  0  0  0
  191.2960  176.7590  138.5800 C   0  0  0  0  0  3  0  0  0  0  0  0
  190.0800  177.2960  139.0130 C   0  0  0  0  0  0  0  0  0  0  0  0
  189.1780  177.0350  136.7760 C   0  0  0  0  0  3  0  0  0  0  0  0
  189.0070  177.4140  138.1080 C   0  0  0  0  0  0  0  0  0  0  0  0
  190.3990  176.5090  136.3460 C   0  0  0  0  0  3  0  0  0  0  0  0
  187.5270  177.9410  139.9910 N   0  0  0  0  0  0  0  0  0  0  0  0
  188.6800  178.5290  140.6790 C   0  0  0  0  0  2  0  0  0  0  0  0
  192.7190  175.8220  136.8080 N   0  0  0  0  0  0  0  0  0  0  0  0
  192.7680  174.7040  136.2560 O   0  0  0  0  0  0  0  0  0  0  0  0
  193.8850  176.5300  136.9940 O   0  0  0  0  0  0  0  0  0  0  0  0
  1 10  1  0  0  0  0
  1 17  1  0  0  0  0
  4  8  2  0  0  0  0
  4  5  1  0  0  0  0
  5  1  2  0  0  0  0
  6  7  2  0  0  0  0
  6 10  1  0  0  0  0
  7 11  1  0  0  0  0
  8  6  1  0  0  0  0
  9  3  1  0  0  0  0
 10  9  1  0  0  0  0
 11  9  2  0  0  0  0
 12  2  1  0  0  0  0
 13 12  1  0  0  0  0
 13 18  1  0  0  0  0
 14 13  2  0  0  0  0
 15  3  1  0  0  0  0
 15  2  2  0  0  0  0
 16 17  2  0  0  0  0
 16 14  1  0  0  0  0
 17 15  1  0  0  0  0
 18 20  1  6  0  0  0
 18 19  1  0  0  0  0
 21  4  1  0  0  0  0
 22 31  1  0  0  0  0
 23 30  1  0  0  0  0
 24 25  1  0  0  0  0
 25 26  2  0  0  0  0
 26 22  1  0  0  0  0
 27 28  2  0  0  0  0
 28 23  1  0  0  0  0
 28 26  1  0  0  0  0
 29 27  1  0  0  0  0
 29 24  2  0  0  0  0
 30 21  1  0  0  0  0
 30 31  1  0  0  0  0
 32 34  2  0  0  0  0
 32 24  1  0  0  0  0
 33 32  2  0  0  0  0
M  END
>  <MODEL>
5

>  <REMARK>
 VINA RESULT:      -9.7      4.796      6.127
  Name = 
  4 active torsions:
  status: ('A' for Active; 'I' for Inactive)
    1  A    between atoms: C_3  and  C_25
    2  A    between atoms: C_7  and  N_11
    3  A    between atoms: C_8  and  C_18
    4  A    between atoms: C_18  and  N_30
                            x       y       z     vdW  Elec       q    Type
                         _______ _______ _______ _____ _____    ______ ____

>  <TORSDO>
F 4

$$$$
=
 OpenBabel11052415483D

 34 39  0  0  1  0  0  0  0  0999 V2000
  187.4190  178.0500  140.9390 C   0  0  0  0  0  0  0  0  0  0  0  0
  189.4820  176.8570  138.0540 C   0  0  0  0  0  3  0  0  0  0  0  0
  187.6110  178.4010  137.9950 C   0  0  0  0  0  2  0  0  0  0  0  0
  185.9000  178.3870  142.8120 C   0  0  0  0  0  0  0  0  0  0  0  0
  187.1780  178.0070  142.3240 C   0  0  0  0  0  3  0  0  0  0  0  0
  185.2040  178.8380  140.5690 C   0  0  0  0  0  0  0  0  0  0  0  0
  184.4400  179.2410  139.5330 N   0  0  0  0  0  0  0  0  0  0  0  0
  184.8890  178.8220  141.9240 C   0  0  0  0  0  3  0  0  0  0  0  0
  186.3920  178.6280  138.8380 C   0  0  0  0  0  0  0  0  0  0  0  0
  186.4070  178.4600  140.1550 N   0  0  0  0  0  0  0  0  0  0  0  0
  185.1950  179.1130  138.4380 N   0  0  0  0  0  0  0  0  0  0  0  0
  190.4780  175.9220  138.6510 C   0  0  0  0  0  2  0  0  0  0  0  0
  191.5080  176.6550  139.4510 C   0  0  0  0  0  0  0  0  0  0  0  0
  191.1800  177.3330  140.5510 C   0  0  0  0  0  3  0  0  0  0  0  0
  188.6650  177.6300  138.7710 C   0  0  0  0  0  0  0  0  0  0  0  0
  189.8070  177.5940  141.0240 C   0  0  0  0  0  3  0  0  0  0  0  0
  188.6930  177.6910  140.2780 C   0  0  0  0  0  0  0  0  0  0  0  0
  192.9570  176.5070  139.1150 C   0  0  2  0  0  3  0  0  0  0  0  0
  193.7430  177.5040  139.8220 N   0  0  0  0  0  1  0  0  0  0  0  0
  193.1800  176.6430  137.6200 C   0  0  0  0  0  1  0  0  0  0  0  0
  185.6250  178.3420  144.2900 C   0  0  0  0  0  2  0  0  0  0  0  0
  187.5850  177.4170  147.3500 C   0  0  0  0  0  2  0  0  0  0  0  0
  188.0120  178.1140  144.5180 C   0  0  0  0  0  2  0  0  0  0  0  0
  191.3000  176.7470  146.9440 C   0  0  0  0  0  0  0  0  0  0  0  0
  190.0250  176.8930  147.5080 C   0  0  0  0  0  3  0  0  0  0  0  0
  188.9490  177.3280  146.7290 C   0  0  0  0  0  0  0  0  0  0  0  0
  190.4120  177.4580  144.7970 C   0  0  0  0  0  3  0  0  0  0  0  0
  189.1410  177.5910  145.3580 C   0  0  0  0  0  0  0  0  0  0  0  0
  191.4860  177.0340  145.5840 C   0  0  0  0  0  3  0  0  0  0  0  0
  186.7090  177.7540  145.0890 N   0  0  0  0  0  0  0  0  0  0  0  0
  186.6290  178.2250  146.4740 C   0  0  0  0  0  2  0  0  0  0  0  0
  192.4000  176.3070  147.7520 N   0  0  0  0  0  0  0  0  0  0  0  0
  193.0080  175.2530  147.4760 O   0  0  0  0  0  0  0  0  0  0  0  0
  192.7970  177.0440  148.8440 O   0  0  0  0  0  0  0  0  0  0  0  0
  1  5  2  0  0  0  0
  2 12  1  0  0  0  0
  2 15  2  0  0  0  0
  3 15  1  0  0  0  0
  3  9  1  0  0  0  0
  4 21  1  0  0  0  0
  5  4  1  0  0  0  0
  6  8  1  0  0  0  0
  7  6  2  0  0  0  0
  8  4  2  0  0  0  0
  9 10  1  0  0  0  0
 10  6  1  0  0  0  0
 10  1  1  0  0  0  0
 11  9  2  0  0  0  0
 11  7  1  0  0  0  0
 12 13  1  0  0  0  0
 13 14  2  0  0  0  0
 14 16  1  0  0  0  0
 15 17  1  0  0  0  0
 17  1  1  0  0  0  0
 17 16  2  0  0  0  0
 18 20  1  6  0  0  0
 18 13  1  0  0  0  0
 18 19  1  0  0  0  0
 21 30  1  0  0  0  0
 23 30  1  0  0  0  0
 23 28  1  0  0  0  0
 24 25  1  0  0  0  0
 24 32  1  0  0  0  0
 26 22  1  0  0  0  0
 26 25  2  0  0  0  0
 27 28  2  0  0  0  0
 27 29  1  0  0  0  0
 28 26  1  0  0  0  0
 29 24  2  0  0  0  0
 30 31  1  0  0  0  0
 31 22  1  0  0  0  0
 32 34  2  0  0  0  0
 33 32  2  0  0  0  0
M  END
>  <MODEL>
6

>  <REMARK>
 VINA RESULT:      -9.6      5.297      8.910
  Name = 
  4 active torsions:
  status: ('A' for Active; 'I' for Inactive)
    1  A    between atoms: C_3  and  C_25
    2  A    between atoms: C_7  and  N_11
    3  A    between atoms: C_8  and  C_18
    4  A    between atoms: C_18  and  N_30
                            x       y       z     vdW  Elec       q    Type
                         _______ _______ _______ _____ _____    ______ ____

>  <TORSDO>
F 4

$$$$
=
 OpenBabel11052415483D

 34 39  0  0  1  0  0  0  0  0999 V2000
  189.4840  177.2540  144.6960 C   0  0  0  0  0  0  0  0  0  0  0  0
  191.9410  176.9690  141.8880 C   0  0  0  0  0  3  0  0  0  0  0  0
  192.0570  175.9070  144.0670 C   0  0  0  0  0  2  0  0  0  0  0  0
  188.0590  177.8790  146.5690 C   0  0  0  0  0  0  0  0  0  0  0  0
  188.2800  177.8060  145.1690 C   0  0  0  0  0  3  0  0  0  0  0  0
  190.1890  176.8540  146.9340 C   0  0  0  0  0  0  0  0  0  0  0  0
  191.2340  176.2920  147.5740 N   0  0  0  0  0  0  0  0  0  0  0  0
  189.0240  177.3870  147.4780 C   0  0  0  0  0  3  0  0  0  0  0  0
  191.5340  176.2280  145.4350 C   0  0  0  0  0  0  0  0  0  0  0  0
  190.3600  176.8200  145.6180 N   0  0  0  0  0  0  0  0  0  0  0  0
  192.0840  175.8900  146.6230 N   0  0  0  0  0  0  0  0  0  0  0  0
  191.3880  177.8270  140.8020 C   0  0  0  0  0  2  0  0  0  0  0  0
  190.1740  177.2120  140.1800 C   0  0  0  0  0  0  0  0  0  0  0  0
  189.0560  177.0230  140.8790 C   0  0  0  0  0  3  0  0  0  0  0  0
  191.2770  176.6630  143.0040 C   0  0  0  0  0  0  0  0  0  0  0  0
  188.9070  177.2190  142.3330 C   0  0  0  0  0  3  0  0  0  0  0  0
  189.8600  177.1060  143.2730 C   0  0  0  0  0  0  0  0  0  0  0  0
  190.1460  176.9420  138.7090 C   0  0  2  0  0  3  0  0  0  0  0  0
  188.7900  176.6500  138.2760 N   0  0  0  0  0  1  0  0  0  0  0  0
  191.0590  175.7820  138.3570 C   0  0  0  0  0  1  0  0  0  0  0  0
  186.7780  178.4710  147.0900 C   0  0  0  0  0  2  0  0  0  0  0  0
  183.4120  178.9930  145.5230 C   0  0  0  0  0  2  0  0  0  0  0  0
  186.1240  178.0940  144.8030 C   0  0  0  0  0  2  0  0  0  0  0  0
  183.1420  178.6790  141.7490 C   0  0  0  0  0  0  0  0  0  0  0  0
  182.8160  178.8850  143.0960 C   0  0  0  0  0  3  0  0  0  0  0  0
  183.7770  178.7070  144.0950 C   0  0  0  0  0  0  0  0  0  0  0  0
  185.4160  178.1280  142.4010 C   0  0  0  0  0  3  0  0  0  0  0  0
  185.0930  178.3470  143.7420 C   0  0  0  0  0  0  0  0  0  0  0  0
  184.4480  178.2980  141.4080 C   0  0  0  0  0  3  0  0  0  0  0  0
  185.7950  178.7960  146.0470 N   0  0  0  0  0  0  0  0  0  0  0  0
  184.4490  178.4200  146.4870 C   0  0  0  0  0  2  0  0  0  0  0  0
  182.1470  178.8590  140.7310 N   0  0  0  0  0  0  0  0  0  0  0  0
  180.9350  178.7270  140.9990 O   0  0  0  0  0  0  0  0  0  0  0  0
  182.5190  179.1790  139.4460 O   0  0  0  0  0  0  0  0  0  0  0  0
  1  5  2  0  0  0  0
  1 10  1  0  0  0  0
  2 15  2  0  0  0  0
  3  9  1  0  0  0  0
  4 21  1  0  0  0  0
  4  8  2  0  0  0  0
  5  4  1  0  0  0  0
  6  8  1  0  0  0  0
  6  7  2  0  0  0  0
  9 10  1  0  0  0  0
  9 11  2  0  0  0  0
 10  6  1  0  0  0  0
 11  7  1  0  0  0  0
 12  2  1  0  0  0  0
 13 12  1  0  0  0  0
 13 14  2  0  0  0  0
 14 16  1  0  0  0  0
 15 17  1  0  0  0  0
 15  3  1  0  0  0  0
 16 17  2  0  0  0  0
 17  1  1  0  0  0  0
 18 20  1  1  0  0  0
 18 13  1  0  0  0  0
 19 18  1  0  0  0  0
 22 31  1  0  0  0  0
 23 30  1  0  0  0  0
 24 25  1  0  0  0  0
 25 26  2  0  0  0  0
 26 22  1  0  0  0  0
 27 28  2  0  0  0  0
 28 26  1  0  0  0  0
 28 23  1  0  0  0  0
 29 24  2  0  0  0  0
 29 27  1  0  0  0  0
 30 31  1  0  0  0  0
 30 21  1  0  0  0  0
 32 33  2  0  0  0  0
 32 24  1  0  0  0  0
 34 32  2  0  0  0  0
M  END
>  <MODEL>
7

>  <REMARK>
 VINA RESULT:      -9.6      3.453      6.299
  Name = 
  4 active torsions:
  status: ('A' for Active; 'I' for Inactive)
    1  A    between atoms: C_3  and  C_25
    2  A    between atoms: C_7  and  N_11
    3  A    between atoms: C_8  and  C_18
    4  A    between atoms: C_18  and  N_30
                            x       y       z     vdW  Elec       q    Type
                         _______ _______ _______ _____ _____    ______ ____

>  <TORSDO>
F 4

$$$$
=
 OpenBabel11052415483D

 34 39  0  0  1  0  0  0  0  0999 V2000
  185.1980  178.4660  142.6440 C   0  0  0  0  0  0  0  0  0  0  0  0
  185.1790  178.8460  146.3670 C   0  0  0  0  0  3  0  0  0  0  0  0
  183.2740  178.4770  144.9080 C   0  0  0  0  0  2  0  0  0  0  0  0
  185.3030  178.6830  140.2210 C   0  0  0  0  0  0  0  0  0  0  0  0
  185.9530  178.4330  141.4570 C   0  0  0  0  0  3  0  0  0  0  0  0
  183.2350  178.9590  141.3910 C   0  0  0  0  0  0  0  0  0  0  0  0
  181.9180  179.1430  141.6150 N   0  0  0  0  0  0  0  0  0  0  0  0
  183.9130  178.9440  140.1750 C   0  0  0  0  0  3  0  0  0  0  0  0
  182.9580  178.7800  143.4750 C   0  0  0  0  0  0  0  0  0  0  0  0
  183.8860  178.7340  142.5250 N   0  0  0  0  0  0  0  0  0  0  0  0
  181.7420  179.0230  142.9350 N   0  0  0  0  0  0  0  0  0  0  0  0
  186.6060  179.0600  146.7410 C   0  0  0  0  0  2  0  0  0  0  0  0
  187.4070  177.8070  146.5880 C   0  0  0  0  0  0  0  0  0  0  0  0
  187.5920  177.2410  145.3960 C   0  0  0  0  0  3  0  0  0  0  0  0
  184.7750  178.4980  145.1440 C   0  0  0  0  0  0  0  0  0  0  0  0
  186.9300  177.6430  144.1410 C   0  0  0  0  0  3  0  0  0  0  0  0
  185.7250  178.2230  144.0040 C   0  0  0  0  0  0  0  0  0  0  0  0
  188.1510  177.2500  147.7600 C   0  0  2  0  0  3  0  0  0  0  0  0
  188.1770  178.2140  148.8460 N   0  0  0  0  0  1  0  0  0  0  0  0
  189.5700  176.8780  147.3690 C   0  0  0  0  0  1  0  0  0  0  0  0
  186.0980  178.6560  138.9440 C   0  0  0  0  0  2  0  0  0  0  0  0
  189.5100  177.6710  140.1460 C   0  0  0  0  0  2  0  0  0  0  0  0
  187.8930  177.6620  137.6820 C   0  0  0  0  0  2  0  0  0  0  0  0
  191.7260  175.6970  137.7770 C   0  0  0  0  0  0  0  0  0  0  0  0
  191.2560  176.3730  138.9110 C   0  0  0  0  0  3  0  0  0  0  0  0
  190.0100  177.0070  138.8950 C   0  0  0  0  0  0  0  0  0  0  0  0
  189.6790  176.2790  136.6040 C   0  0  0  0  0  3  0  0  0  0  0  0
  189.2070  176.9400  137.7390 C   0  0  0  0  0  0  0  0  0  0  0  0
  190.9300  175.6560  136.6230 C   0  0  0  0  0  3  0  0  0  0  0  0
  187.3440  177.8820  139.0250 N   0  0  0  0  0  0  0  0  0  0  0  0
  188.3260  178.5900  139.8510 C   0  0  0  0  0  2  0  0  0  0  0  0
  193.0080  175.0550  137.8010 N   0  0  0  0  0  0  0  0  0  0  0  0
  193.1410  173.8880  137.3800 O   0  0  0  0  0  0  0  0  0  0  0  0
  194.1090  175.7210  138.2890 O   0  0  0  0  0  0  0  0  0  0  0  0
  1 17  1  0  0  0  0
  2 12  1  0  0  0  0
  3 15  1  0  0  0  0
  4  5  1  0  0  0  0
  5  1  2  0  0  0  0
  6  7  2  0  0  0  0
  6 10  1  0  0  0  0
  7 11  1  0  0  0  0
  8  4  2  0  0  0  0
  8  6  1  0  0  0  0
  9  3  1  0  0  0  0
 10  1  1  0  0  0  0
 10  9  1  0  0  0  0
 11  9  2  0  0  0  0
 13 12  1  0  0  0  0
 13 18  1  0  0  0  0
 14 13  2  0  0  0  0
 15  2  2  0  0  0  0
 16 14  1  0  0  0  0
 17 16  2  0  0  0  0
 17 15  1  0  0  0  0
 18 20  1  6  0  0  0
 18 19  1  0  0  0  0
 21 30  1  0  0  0  0
 21  4  1  0  0  0  0
 23 28  1  0  0  0  0
 23 30  1  0  0  0  0
 24 32  1  0  0  0  0
 24 25  1  0  0  0  0
 26 25  2  0  0  0  0
 26 22  1  0  0  0  0
 27 29  1  0  0  0  0
 27 28  2  0  0  0  0
 28 26  1  0  0  0  0
 29 24  2  0  0  0  0
 30 31  1  0  0  0  0
 31 22  1  0  0  0  0
 32 34  2  0  0  0  0
 33 32  2  0  0  0  0
M  END
>  <MODEL>
8

>  <REMARK>
 VINA RESULT:      -9.6      4.645      6.590
  Name = 
  4 active torsions:
  status: ('A' for Active; 'I' for Inactive)
    1  A    between atoms: C_3  and  C_25
    2  A    between atoms: C_7  and  N_11
    3  A    between atoms: C_8  and  C_18
    4  A    between atoms: C_18  and  N_30
                            x       y       z     vdW  Elec       q    Type
                         _______ _______ _______ _____ _____    ______ ____

>  <TORSDO>
F 4

$$$$
=
 OpenBabel11052415483D

 34 39  0  0  1  0  0  0  0  0999 V2000
  186.8110  178.0900  143.7590 C   0  0  0  0  0  0  0  0  0  0  0  0
  189.0360  177.8530  146.7590 C   0  0  0  0  0  3  0  0  0  0  0  0
  186.6110  177.7610  146.7050 C   0  0  0  0  0  2  0  0  0  0  0  0
  185.4900  178.7020  141.8070 C   0  0  0  0  0  0  0  0  0  0  0  0
  186.7110  178.2400  142.3640 C   0  0  0  0  0  3  0  0  0  0  0  0
  184.5580  178.8160  144.0070 C   0  0  0  0  0  0  0  0  0  0  0  0
  183.6580  178.9830  144.9980 N   0  0  0  0  0  0  0  0  0  0  0  0
  184.3810  178.9900  142.6380 C   0  0  0  0  0  3  0  0  0  0  0  0
  185.5470  178.3010  145.7980 C   0  0  0  0  0  0  0  0  0  0  0  0
  185.7230  178.3960  144.4860 N   0  0  0  0  0  0  0  0  0  0  0  0
  184.2840  178.6510  146.1320 N   0  0  0  0  0  0  0  0  0  0  0  0
  190.4210  177.9780  146.2230 C   0  0  0  0  0  2  0  0  0  0  0  0
  190.8320  176.7530  145.4690 C   0  0  0  0  0  0  0  0  0  0  0  0
  190.2120  176.3880  144.3470 C   0  0  0  0  0  3  0  0  0  0  0  0
  187.9520  177.7170  145.9920 C   0  0  0  0  0  0  0  0  0  0  0  0
  188.9870  177.0030  143.8020 C   0  0  0  0  0  3  0  0  0  0  0  0
  188.0090  177.6180  144.4880 C   0  0  0  0  0  0  0  0  0  0  0  0
  192.0550  175.9980  145.8800 C   0  0  2  0  0  3  0  0  0  0  0  0
  192.2020  174.7980  145.0760 N   0  0  0  0  0  1  0  0  0  0  0  0
  191.9900  175.6280  147.3510 C   0  0  0  0  0  1  0  0  0  0  0  0
  185.3690  178.8730  140.3170 C   0  0  0  0  0  2  0  0  0  0  0  0
  187.5840  177.9300  137.4430 C   0  0  0  0  0  2  0  0  0  0  0  0
  187.5390  177.8310  140.3880 C   0  0  0  0  0  2  0  0  0  0  0  0
  191.1100  176.7590  138.2280 C   0  0  0  0  0  0  0  0  0  0  0  0
  189.9510  177.1270  137.5300 C   0  0  0  0  0  3  0  0  0  0  0  0
  188.7900  177.4850  138.2210 C   0  0  0  0  0  0  0  0  0  0  0  0
  189.9410  177.1280  140.3270 C   0  0  0  0  0  3  0  0  0  0  0  0
  188.7930  177.5060  139.6290 C   0  0  0  0  0  0  0  0  0  0  0  0
  191.0960  176.7600  139.6310 C   0  0  0  0  0  3  0  0  0  0  0  0
  186.6160  178.6340  139.5790 N   0  0  0  0  0  0  0  0  0  0  0  0
  186.3330  177.9410  138.3190 C   0  0  0  0  0  2  0  0  0  0  0  0
  192.2950  176.3870  137.5120 N   0  0  0  0  0  0  0  0  0  0  0  0
  193.4200  176.7530  137.9120 O   0  0  0  0  0  0  0  0  0  0  0  0
  192.2060  175.6210  136.3720 O   0  0  0  0  0  0  0  0  0  0  0  0
  1 10  1  0  0  0  0
  1 17  1  0  0  0  0
  4  5  1  0  0  0  0
  4  8  2  0  0  0  0
  5  1  2  0  0  0  0
  6 10  1  0  0  0  0
  6  7  2  0  0  0  0
  7 11  1  0  0  0  0
  8  6  1  0  0  0  0
  9 11  2  0  0  0  0
  9  3  1  0  0  0  0
 10  9  1  0  0  0  0
 12  2  1  0  0  0  0
 13 18  1  0  0  0  0
 13 12  1  0  0  0  0
 14 13  2  0  0  0  0
 15  3  1  0  0  0  0
 15  2  2  0  0  0  0
 16 14  1  0  0  0  0
 16 17  2  0  0  0  0
 17 15  1  0  0  0  0
 18 20  1  1  0  0  0
 19 18  1  0  0  0  0
 21  4  1  0  0  0  0
 22 26  1  0  0  0  0
 22 31  1  0  0  0  0
 24 29  1  0  0  0  0
 25 26  1  0  0  0  0
 25 24  2  0  0  0  0
 26 28  2  0  0  0  0
 28 27  1  0  0  0  0
 28 23  1  0  0  0  0
 29 27  2  0  0  0  0
 30 21  1  0  0  0  0
 30 23  1  0  0  0  0
 31 30  1  0  0  0  0
 32 33  2  0  0  0  0
 32 24  1  0  0  0  0
 34 32  2  0  0  0  0
M  END
>  <MODEL>
9

>  <REMARK>
 VINA RESULT:      -9.5      4.385      5.671
  Name = 
  4 active torsions:
  status: ('A' for Active; 'I' for Inactive)
    1  A    between atoms: C_3  and  C_25
    2  A    between atoms: C_7  and  N_11
    3  A    between atoms: C_8  and  C_18
    4  A    between atoms: C_18  and  N_30
                            x       y       z     vdW  Elec       q    Type
                         _______ _______ _______ _____ _____    ______ ____

>  <TORSDO>
F 4

$$$$
