=
 OpenBabel11052413573D

 34 39  0  0  1  0  0  0  0  0999 V2000
  189.5830  177.1520  146.4290 C   0  0  0  0  0  0  0  0  0  0  0  0
  191.1150  176.2390  144.7950 C   0  0  0  0  0  0  0  0  0  0  0  0
  188.9510  177.3190  144.0650 C   0  0  0  0  0  0  0  0  0  0  0  0
  188.2630  177.7680  141.7900 C   0  0  0  0  0  0  0  0  0  0  0  0
  191.6900  176.3180  147.1340 C   0  0  0  0  0  3  0  0  0  0  0  0
  192.0110  175.9670  145.8280 C   0  0  0  0  0  3  0  0  0  0  0  0
  190.5020  177.4230  142.0580 N   0  0  0  0  0  2  0  0  0  0  0  0
  189.8980  176.9180  145.0620 C   0  0  0  0  0  0  0  0  0  0  0  0
  188.8070  177.9310  140.4210 C   0  0  0  0  0  2  0  0  0  0  0  0
  190.4860  176.8780  147.4070 N   0  0  0  0  0  0  0  0  0  0  0  0
  187.6360  177.7160  144.4720 C   0  0  0  0  0  0  0  0  0  0  0  0
  188.3290  177.6260  146.7970 C   0  0  0  0  0  3  0  0  0  0  0  0
  191.3960  175.6880  143.5910 F   0  0  0  0  0  0  0  0  0  0  0  0
  187.0010  178.0580  142.1750 N   0  0  0  0  0  0  0  0  0  0  0  0
  186.6450  178.0280  143.4920 C   0  0  0  0  0  0  0  0  0  0  0  0
  190.3160  177.7060  140.6360 C   0  0  2  0  0  3  0  0  0  0  0  0
  189.2330  177.4270  142.6850 C   0  0  0  0  0  0  0  0  0  0  0  0
  187.3640  177.8800  145.8350 C   0  0  0  0  0  3  0  0  0  0  0  0
  182.9270  178.7660  143.2010 C   0  0  0  0  0  0  0  0  0  0  0  0
  182.6390  179.0890  144.5270 C   0  0  0  0  0  3  0  0  0  0  0  0
  185.2360  178.3650  143.8290 C   0  0  0  0  0  0  0  0  0  0  0  0
  183.6220  179.0570  145.4640 N   0  0  0  0  0  0  0  0  0  0  0  0
  184.2300  178.4100  142.8530 C   0  0  0  0  0  3  0  0  0  0  0  0
  184.8990  178.7120  145.1450 C   0  0  0  0  0  3  0  0  0  0  0  0
  181.9300  178.8020  142.2370 O   0  0  0  0  0  1  0  0  0  0  0  0
  190.8430  176.5570  139.7780 C   0  0  0  0  0  2  0  0  0  0  0  0
  191.0300  176.9610  138.3190 C   0  0  0  0  0  2  0  0  0  0  0  0
  189.1290  178.7270  136.9690 C   0  0  0  0  0  1  0  0  0  0  0  0
  189.9420  176.3780  137.4680 C   0  0  0  0  0  0  0  0  0  0  0  0
  189.0010  177.2470  136.6560 C   0  0  1  0  0  3  0  0  0  0  0  0
  187.3420  175.2740  136.8820 C   0  0  0  0  0  2  0  0  0  0  0  0
  188.6300  174.4760  136.6460 C   0  0  0  0  0  2  0  0  0  0  0  0
  189.7470  175.0520  137.4650 C   0  0  0  0  0  3  0  0  0  0  0  0
  187.5400  176.8030  136.8280 C   0  0  0  0  0  2  0  0  0  0  0  0
  1 12  1  0  0  0  0
  1 10  2  0  0  0  0
  2  8  2  0  0  0  0
  2  6  1  0  0  0  0
  3 11  1  0  0  0  0
  3  8  1  0  0  0  0
  4 14  2  0  0  0  0
  4 17  1  0  0  0  0
  5 10  1  0  0  0  0
  6  5  2  0  0  0  0
  7 17  1  0  0  0  0
  8  1  1  0  0  0  0
  9 16  1  0  0  0  0
  9  4  1  0  0  0  0
 11 18  1  0  0  0  0
 13  2  1  0  0  0  0
 14 15  1  0  0  0  0
 15 21  1  0  0  0  0
 15 11  2  0  0  0  0
 16 26  1  6  0  0  0
 16  7  1  0  0  0  0
 17  3  2  0  0  0  0
 18 12  2  0  0  0  0
 19 20  1  0  0  0  0
 20 22  2  0  0  0  0
 21 24  2  0  0  0  0
 23 19  2  0  0  0  0
 23 21  1  0  0  0  0
 24 22  1  0  0  0  0
 25 19  1  0  0  0  0
 27 26  1  0  0  0  0
 29 27  1  0  0  0  0
 30 34  1  0  0  0  0
 30 28  1  1  0  0  0
 30 29  1  0  0  0  0
 32 31  1  0  0  0  0
 32 33  1  0  0  0  0
 33 29  2  0  0  0  0
 34 31  1  0  0  0  0
M  END
>  <MODEL>
1

>  <REMARK>
 VINA RESULT:     -11.1      0.000      0.000
  Name = 
  4 active torsions:
  status: ('A' for Active; 'I' for Inactive)
    1  A    between atoms: C_3  and  C_13
    2  A    between atoms: C_3  and  C_17
    3  A    between atoms: C_12  and  C_28
    4  A    between atoms: C_17  and  C_29
                            x       y       z     vdW  Elec       q    Type
                         _______ _______ _______ _____ _____    ______ ____

>  <TORSDO>
F 4

$$$$
=
 OpenBabel11052413573D

 34 39  0  0  1  0  0  0  0  0999 V2000
  189.5670  177.2200  146.5910 C   0  0  0  0  0  0  0  0  0  0  0  0
  191.1540  176.2990  145.0140 C   0  0  0  0  0  0  0  0  0  0  0  0
  188.9990  177.3460  144.2080 C   0  0  0  0  0  0  0  0  0  0  0  0
  188.3700  177.7530  141.9090 C   0  0  0  0  0  0  0  0  0  0  0  0
  191.6620  176.4190  147.3660 C   0  0  0  0  0  3  0  0  0  0  0  0
  192.0230  176.0510  146.0750 C   0  0  0  0  0  3  0  0  0  0  0  0
  190.6040  177.4360  142.2440 N   0  0  0  0  0  2  0  0  0  0  0  0
  189.9220  176.9690  145.2370 C   0  0  0  0  0  0  0  0  0  0  0  0
  188.9510  177.9010  140.5530 C   0  0  0  0  0  2  0  0  0  0  0  0
  190.4460  176.9700  147.5970 N   0  0  0  0  0  0  0  0  0  0  0  0
  187.6700  177.7350  144.5730 C   0  0  0  0  0  0  0  0  0  0  0  0
  188.3000  177.6870  146.9170 C   0  0  0  0  0  3  0  0  0  0  0  0
  191.4730  175.7330  143.8270 F   0  0  0  0  0  0  0  0  0  0  0  0
  187.0950  178.0360  142.2540 N   0  0  0  0  0  0  0  0  0  0  0  0
  186.7040  178.0220  143.5610 C   0  0  0  0  0  0  0  0  0  0  0  0
  190.4550  177.6960  140.8130 C   0  0  2  0  0  3  0  0  0  0  0  0
  189.3190  177.4360  142.8350 C   0  0  0  0  0  0  0  0  0  0  0  0
  187.3580  177.9160  145.9250 C   0  0  0  0  0  3  0  0  0  0  0  0
  182.9920  178.7380  143.1540 C   0  0  0  0  0  0  0  0  0  0  0  0
  182.6600  179.0550  144.4710 C   0  0  0  0  0  3  0  0  0  0  0  0
  185.2830  178.3490  143.8540 C   0  0  0  0  0  0  0  0  0  0  0  0
  183.6130  179.0260  145.4390 N   0  0  0  0  0  0  0  0  0  0  0  0
  184.3080  178.3910  142.8470 C   0  0  0  0  0  3  0  0  0  0  0  0
  184.9010  178.6900  145.1600 C   0  0  0  0  0  3  0  0  0  0  0  0
  182.0260  178.7710  142.1590 O   0  0  0  0  0  1  0  0  0  0  0  0
  191.0170  176.5390  139.9870 C   0  0  0  0  0  2  0  0  0  0  0  0
  190.4880  176.5370  138.5560 C   0  0  0  0  0  2  0  0  0  0  0  0
  189.8790  174.0770  137.0970 C   0  0  0  0  0  1  0  0  0  0  0  0
  191.5030  175.9530  137.6210 C   0  0  0  0  0  0  0  0  0  0  0  0
  191.1990  174.7460  136.7550 C   0  0  1  0  0  3  0  0  0  0  0  0
  193.7520  174.3280  136.8320 C   0  0  0  0  0  2  0  0  0  0  0  0
  193.7650  175.8540  136.6790 C   0  0  0  0  0  2  0  0  0  0  0  0
  192.7390  176.4680  137.5850 C   0  0  0  0  0  3  0  0  0  0  0  0
  192.3360  173.7140  136.8130 C   0  0  0  0  0  2  0  0  0  0  0  0
  1 12  1  0  0  0  0
  1 10  2  0  0  0  0
  2  8  2  0  0  0  0
  2  6  1  0  0  0  0
  3 11  1  0  0  0  0
  3  8  1  0  0  0  0
  4 14  2  0  0  0  0
  4 17  1  0  0  0  0
  5 10  1  0  0  0  0
  6  5  2  0  0  0  0
  7 17  1  0  0  0  0
  8  1  1  0  0  0  0
  9 16  1  0  0  0  0
  9  4  1  0  0  0  0
 11 18  1  0  0  0  0
 13  2  1  0  0  0  0
 14 15  1  0  0  0  0
 15 21  1  0  0  0  0
 15 11  2  0  0  0  0
 16 26  1  6  0  0  0
 16  7  1  0  0  0  0
 17  3  2  0  0  0  0
 18 12  2  0  0  0  0
 19 20  1  0  0  0  0
 20 22  2  0  0  0  0
 21 24  2  0  0  0  0
 23 19  2  0  0  0  0
 23 21  1  0  0  0  0
 24 22  1  0  0  0  0
 25 19  1  0  0  0  0
 27 26  1  0  0  0  0
 29 27  1  0  0  0  0
 30 34  1  0  0  0  0
 30 28  1  1  0  0  0
 30 29  1  0  0  0  0
 32 31  1  0  0  0  0
 32 33  1  0  0  0  0
 33 29  2  0  0  0  0
 34 31  1  0  0  0  0
M  END
>  <MODEL>
2

>  <REMARK>
 VINA RESULT:     -10.9      1.181      2.107
  Name = 
  4 active torsions:
  status: ('A' for Active; 'I' for Inactive)
    1  A    between atoms: C_3  and  C_13
    2  A    between atoms: C_3  and  C_17
    3  A    between atoms: C_12  and  C_28
    4  A    between atoms: C_17  and  C_29
                            x       y       z     vdW  Elec       q    Type
                         _______ _______ _______ _____ _____    ______ ____

>  <TORSDO>
F 4

$$$$
=
 OpenBabel11052413573D

 34 39  0  0  1  0  0  0  0  0999 V2000
  187.2510  178.1780  138.5270 C   0  0  0  0  0  0  0  0  0  0  0  0
  186.8200  178.3200  140.9030 C   0  0  0  0  0  0  0  0  0  0  0  0
  189.1000  177.6440  140.0490 C   0  0  0  0  0  0  0  0  0  0  0  0
  191.0890  177.2950  141.3790 C   0  0  0  0  0  0  0  0  0  0  0  0
  185.1600  178.9990  139.2930 C   0  0  0  0  0  3  0  0  0  0  0  0
  185.5460  178.8070  140.6140 C   0  0  0  0  0  3  0  0  0  0  0  0
  189.4620  178.5240  142.4020 N   0  0  0  0  0  2  0  0  0  0  0  0
  187.7440  178.0650  139.8570 C   0  0  0  0  0  0  0  0  0  0  0  0
  191.6800  177.6290  142.6970 C   0  0  0  0  0  2  0  0  0  0  0  0
  186.0050  178.6630  138.2870 N   0  0  0  0  0  0  0  0  0  0  0  0
  189.8340  177.1280  138.9330 C   0  0  0  0  0  0  0  0  0  0  0  0
  188.0190  177.7550  137.4480 C   0  0  0  0  0  3  0  0  0  0  0  0
  187.0530  177.9630  142.1870 F   0  0  0  0  0  0  0  0  0  0  0  0
  191.7450  176.7310  140.3430 N   0  0  0  0  0  0  0  0  0  0  0  0
  191.1540  176.6140  139.1190 C   0  0  0  0  0  0  0  0  0  0  0  0
  190.5680  178.4670  143.3560 C   0  0  2  0  0  3  0  0  0  0  0  0
  189.8150  177.7650  141.2610 C   0  0  0  0  0  0  0  0  0  0  0  0
  189.2800  177.2160  137.6510 C   0  0  0  0  0  3  0  0  0  0  0  0
  193.7620  176.0100  136.4200 C   0  0  0  0  0  0  0  0  0  0  0  0
  193.3330  174.7740  135.9380 C   0  0  0  0  0  3  0  0  0  0  0  0
  191.9490  175.9830  138.0310 C   0  0  0  0  0  0  0  0  0  0  0  0
  192.2420  174.1740  136.4830 N   0  0  0  0  0  0  0  0  0  0  0  0
  193.0640  176.6170  137.4640 C   0  0  0  0  0  3  0  0  0  0  0  0
  191.5480  174.7480  137.5020 C   0  0  0  0  0  3  0  0  0  0  0  0
  194.8710  176.6330  135.8640 O   0  0  0  0  0  1  0  0  0  0  0  0
  190.1140  177.8570  144.6820 C   0  0  0  0  0  2  0  0  0  0  0  0
  188.6760  177.3510  144.6250 C   0  0  0  0  0  2  0  0  0  0  0  0
  185.8640  178.1090  144.8920 C   0  0  0  0  0  1  0  0  0  0  0  0
  188.0430  177.4080  145.9820 C   0  0  0  0  0  0  0  0  0  0  0  0
  186.5640  177.6830  146.1710 C   0  0  1  0  0  3  0  0  0  0  0  0
  187.2580  178.5960  148.4900 C   0  0  0  0  0  2  0  0  0  0  0  0
  188.1810  177.3740  148.4300 C   0  0  0  0  0  2  0  0  0  0  0  0
  188.8100  177.2730  147.0730 C   0  0  0  0  0  3  0  0  0  0  0  0
  186.3240  178.7310  147.2690 C   0  0  0  0  0  2  0  0  0  0  0  0
  1  8  1  0  0  0  0
  2 13  1  0  0  0  0
  3 17  1  0  0  0  0
  4  9  1  0  0  0  0
  5  6  2  0  0  0  0
  6  2  1  0  0  0  0
  7 16  1  0  0  0  0
  8  3  1  0  0  0  0
  8  2  2  0  0  0  0
  9 16  1  0  0  0  0
 10  1  2  0  0  0  0
 10  5  1  0  0  0  0
 11 15  1  0  0  0  0
 11  3  2  0  0  0  0
 12 18  2  0  0  0  0
 12  1  1  0  0  0  0
 14  4  1  0  0  0  0
 15 14  2  0  0  0  0
 16 26  1  1  0  0  0
 17  4  2  0  0  0  0
 17  7  1  0  0  0  0
 18 11  1  0  0  0  0
 19 23  1  0  0  0  0
 20 19  2  0  0  0  0
 20 22  1  0  0  0  0
 21 15  1  0  0  0  0
 22 24  2  0  0  0  0
 23 21  2  0  0  0  0
 24 21  1  0  0  0  0
 25 19  1  0  0  0  0
 27 26  1  0  0  0  0
 27 29  1  0  0  0  0
 29 30  1  0  0  0  0
 29 33  2  0  0  0  0
 30 28  1  6  0  0  0
 30 34  1  0  0  0  0
 32 31  1  0  0  0  0
 33 32  1  0  0  0  0
 34 31  1  0  0  0  0
M  END
>  <MODEL>
3

>  <REMARK>
 VINA RESULT:     -10.7      3.494      8.883
  Name = 
  4 active torsions:
  status: ('A' for Active; 'I' for Inactive)
    1  A    between atoms: C_3  and  C_13
    2  A    between atoms: C_3  and  C_17
    3  A    between atoms: C_12  and  C_28
    4  A    between atoms: C_17  and  C_29
                            x       y       z     vdW  Elec       q    Type
                         _______ _______ _______ _____ _____    ______ ____

>  <TORSDO>
F 4

$$$$
=
 OpenBabel11052413573D

 34 39  0  0  1  0  0  0  0  0999 V2000
  184.3640  178.6920  144.6720 C   0  0  0  0  0  0  0  0  0  0  0  0
  186.5320  177.6960  145.0750 C   0  0  0  0  0  0  0  0  0  0  0  0
  185.8230  178.3290  142.7330 C   0  0  0  0  0  0  0  0  0  0  0  0
  187.1950  178.2500  140.7430 C   0  0  0  0  0  0  0  0  0  0  0  0
  185.0740  178.2860  146.9000 C   0  0  0  0  0  3  0  0  0  0  0  0
  186.2680  177.7410  146.4430 C   0  0  0  0  0  3  0  0  0  0  0  0
  188.3600  178.2560  142.7050 N   0  0  0  0  0  2  0  0  0  0  0  0
  185.6100  178.2490  144.1470 C   0  0  0  0  0  0  0  0  0  0  0  0
  188.6110  178.2220  140.3080 C   0  0  0  0  0  2  0  0  0  0  0  0
  184.1490  178.7260  146.0130 N   0  0  0  0  0  0  0  0  0  0  0  0
  184.7120  178.6210  141.8770 C   0  0  0  0  0  0  0  0  0  0  0  0
  183.3280  179.0590  143.8230 C   0  0  0  0  0  3  0  0  0  0  0  0
  187.6080  176.9700  144.6900 F   0  0  0  0  0  0  0  0  0  0  0  0
  186.1270  178.4400  139.9380 N   0  0  0  0  0  0  0  0  0  0  0  0
  184.8790  178.6110  140.4580 C   0  0  0  0  0  0  0  0  0  0  0  0
  189.3710  178.2410  141.6480 C   0  0  2  0  0  3  0  0  0  0  0  0
  187.0800  178.2120  142.1010 C   0  0  0  0  0  0  0  0  0  0  0  0
  183.4920  179.0000  142.4470 C   0  0  0  0  0  3  0  0  0  0  0  0
  182.1850  180.2470  138.3320 C   0  0  0  0  0  0  0  0  0  0  0  0
  181.6040  179.1150  137.7610 C   0  0  0  0  0  3  0  0  0  0  0  0
  183.7590  178.8190  139.5010 C   0  0  0  0  0  0  0  0  0  0  0  0
  182.0840  177.8800  138.0620 N   0  0  0  0  0  0  0  0  0  0  0  0
  183.2600  180.0960  139.2080 C   0  0  0  0  0  3  0  0  0  0  0  0
  183.1320  177.7110  138.9120 C   0  0  0  0  0  3  0  0  0  0  0  0
  181.6960  181.5120  138.0350 O   0  0  0  0  0  1  0  0  0  0  0  0
  190.2910  177.0290  141.7920 C   0  0  0  0  0  2  0  0  0  0  0  0
  191.4970  177.3200  142.6800 C   0  0  0  0  0  2  0  0  0  0  0  0
  190.4000  178.4480  145.1450 C   0  0  0  0  0  1  0  0  0  0  0  0
  191.4470  176.4870  143.9250 C   0  0  0  0  0  0  0  0  0  0  0  0
  190.7870  176.9800  145.1980 C   0  0  1  0  0  3  0  0  0  0  0  0
  192.4120  175.3650  146.4010 C   0  0  0  0  0  2  0  0  0  0  0  0
  192.0400  174.4810  145.2050 C   0  0  0  0  0  2  0  0  0  0  0  0
  192.0550  175.2930  143.9450 C   0  0  0  0  0  3  0  0  0  0  0  0
  191.6730  176.7200  146.4260 C   0  0  0  0  0  2  0  0  0  0  0  0
  1 10  2  0  0  0  0
  2  6  1  0  0  0  0
  3  8  1  0  0  0  0
  4 17  2  0  0  0  0
  6  5  2  0  0  0  0
  8  1  1  0  0  0  0
  8  2  2  0  0  0  0
  9  4  1  0  0  0  0
  9 16  1  0  0  0  0
 10  5  1  0  0  0  0
 11 18  1  0  0  0  0
 11  3  2  0  0  0  0
 12  1  1  0  0  0  0
 13  2  1  0  0  0  0
 14 15  2  0  0  0  0
 14  4  1  0  0  0  0
 15 11  1  0  0  0  0
 16 26  1  1  0  0  0
 16  7  1  0  0  0  0
 17  7  1  0  0  0  0
 17  3  1  0  0  0  0
 18 12  2  0  0  0  0
 19 23  1  0  0  0  0
 20 22  1  0  0  0  0
 20 19  2  0  0  0  0
 21 15  1  0  0  0  0
 22 24  2  0  0  0  0
 23 21  2  0  0  0  0
 24 21  1  0  0  0  0
 25 19  1  0  0  0  0
 26 27  1  0  0  0  0
 27 29  1  0  0  0  0
 29 33  2  0  0  0  0
 29 30  1  0  0  0  0
 30 28  1  6  0  0  0
 30 34  1  0  0  0  0
 31 34  1  0  0  0  0
 32 31  1  0  0  0  0
 33 32  1  0  0  0  0
M  END
>  <MODEL>
4

>  <REMARK>
 VINA RESULT:     -10.6      2.694      5.839
  Name = 
  4 active torsions:
  status: ('A' for Active; 'I' for Inactive)
    1  A    between atoms: C_3  and  C_13
    2  A    between atoms: C_3  and  C_17
    3  A    between atoms: C_12  and  C_28
    4  A    between atoms: C_17  and  C_29
                            x       y       z     vdW  Elec       q    Type
                         _______ _______ _______ _____ _____    ______ ____

>  <TORSDO>
F 4

$$$$
=
 OpenBabel11052413573D

 34 39  0  0  1  0  0  0  0  0999 V2000
  186.4570  178.1960  146.4930 C   0  0  0  0  0  0  0  0  0  0  0  0
  188.4790  177.3140  145.5000 C   0  0  0  0  0  0  0  0  0  0  0  0
  186.5500  178.0550  144.0450 C   0  0  0  0  0  0  0  0  0  0  0  0
  186.5390  178.1950  141.6310 C   0  0  0  0  0  0  0  0  0  0  0  0
  188.3180  177.6880  147.8750 C   0  0  0  0  0  3  0  0  0  0  0  0
  189.0440  177.2510  146.7730 C   0  0  0  0  0  3  0  0  0  0  0  0
  188.6160  178.1440  142.5740 N   0  0  0  0  0  2  0  0  0  0  0  0
  187.1850  177.8680  145.3150 C   0  0  0  0  0  0  0  0  0  0  0  0
  187.4530  178.2860  140.4680 C   0  0  0  0  0  2  0  0  0  0  0  0
  187.0460  178.1270  147.7150 N   0  0  0  0  0  0  0  0  0  0  0  0
  185.1450  178.3330  144.0030 C   0  0  0  0  0  0  0  0  0  0  0  0
  185.1160  178.5530  146.4200 C   0  0  0  0  0  3  0  0  0  0  0  0
  189.1520  176.6850  144.5080 F   0  0  0  0  0  0  0  0  0  0  0  0
  185.2000  178.3710  141.5960 N   0  0  0  0  0  0  0  0  0  0  0  0
  184.4710  178.4280  142.7470 C   0  0  0  0  0  0  0  0  0  0  0  0
  188.8410  178.2630  141.1340 C   0  0  2  0  0  3  0  0  0  0  0  0
  187.2220  178.0600  142.8030 C   0  0  0  0  0  0  0  0  0  0  0  0
  184.4650  178.5950  145.1970 C   0  0  0  0  0  3  0  0  0  0  0  0
  180.7890  178.8850  143.5790 C   0  0  0  0  0  0  0  0  0  0  0  0
  180.2510  178.9130  142.2930 C   0  0  0  0  0  3  0  0  0  0  0  0
  183.0020  178.6280  142.6190 C   0  0  0  0  0  0  0  0  0  0  0  0
  181.0650  178.7930  141.2120 N   0  0  0  0  0  0  0  0  0  0  0  0
  182.1670  178.7360  143.7400 C   0  0  0  0  0  3  0  0  0  0  0  0
  182.4110  178.6470  141.3470 C   0  0  0  0  0  3  0  0  0  0  0  0
  179.9640  179.0020  144.6890 O   0  0  0  0  0  1  0  0  0  0  0  0
  189.6960  177.1050  140.6190 C   0  0  0  0  0  2  0  0  0  0  0  0
  190.5630  177.5090  139.4310 C   0  0  0  0  0  2  0  0  0  0  0  0
  189.0560  179.0050  137.4200 C   0  0  0  0  0  1  0  0  0  0  0  0
  190.0980  176.8220  138.1820 C   0  0  0  0  0  0  0  0  0  0  0  0
  189.4130  177.5740  137.0570 C   0  0  1  0  0  3  0  0  0  0  0  0
  188.3120  175.2980  136.5060 C   0  0  0  0  0  2  0  0  0  0  0  0
  189.7240  174.8040  136.8400 C   0  0  0  0  0  2  0  0  0  0  0  0
  190.2300  175.4940  138.0720 C   0  0  0  0  0  3  0  0  0  0  0  0
  188.1590  176.8320  136.5690 C   0  0  0  0  0  2  0  0  0  0  0  0
  1 10  2  0  0  0  0
  2  6  1  0  0  0  0
  3  8  1  0  0  0  0
  4 17  1  0  0  0  0
  6  5  2  0  0  0  0
  7 17  1  0  0  0  0
  8  2  2  0  0  0  0
  8  1  1  0  0  0  0
  9 16  1  0  0  0  0
  9  4  1  0  0  0  0
 10  5  1  0  0  0  0
 11  3  1  0  0  0  0
 11 18  1  0  0  0  0
 12  1  1  0  0  0  0
 13  2  1  0  0  0  0
 14  4  2  0  0  0  0
 14 15  1  0  0  0  0
 15 11  2  0  0  0  0
 16 26  1  6  0  0  0
 16  7  1  0  0  0  0
 17  3  2  0  0  0  0
 18 12  2  0  0  0  0
 19 23  1  0  0  0  0
 19 25  1  0  0  0  0
 20 19  2  0  0  0  0
 21 15  1  0  0  0  0
 21 23  2  0  0  0  0
 22 24  2  0  0  0  0
 22 20  1  0  0  0  0
 24 21  1  0  0  0  0
 27 26  1  0  0  0  0
 29 27  1  0  0  0  0
 30 28  1  1  0  0  0
 30 29  1  0  0  0  0
 31 34  1  0  0  0  0
 31 32  1  0  0  0  0
 32 33  1  0  0  0  0
 33 29  2  0  0  0  0
 34 30  1  0  0  0  0
M  END
>  <MODEL>
5

>  <REMARK>
 VINA RESULT:     -10.6      1.747      2.569
  Name = 
  4 active torsions:
  status: ('A' for Active; 'I' for Inactive)
    1  A    between atoms: C_3  and  C_13
    2  A    between atoms: C_3  and  C_17
    3  A    between atoms: C_12  and  C_28
    4  A    between atoms: C_17  and  C_29
                            x       y       z     vdW  Elec       q    Type
                         _______ _______ _______ _____ _____    ______ ____

>  <TORSDO>
F 4

$$$$
=
 OpenBabel11052413573D

 34 39  0  0  1  0  0  0  0  0999 V2000
  187.0060  178.0580  146.7460 C   0  0  0  0  0  0  0  0  0  0  0  0
  189.0050  177.1710  145.7110 C   0  0  0  0  0  0  0  0  0  0  0  0
  187.0680  177.9630  144.2950 C   0  0  0  0  0  0  0  0  0  0  0  0
  187.0300  178.1500  141.8840 C   0  0  0  0  0  0  0  0  0  0  0  0
  188.8780  177.5010  148.0950 C   0  0  0  0  0  3  0  0  0  0  0  0
  189.5840  177.0770  146.9760 C   0  0  0  0  0  3  0  0  0  0  0  0
  189.1170  178.0560  142.8010 N   0  0  0  0  0  2  0  0  0  0  0  0
  187.7160  177.7440  145.5540 C   0  0  0  0  0  0  0  0  0  0  0  0
  187.9310  178.2530  140.7120 C   0  0  0  0  0  2  0  0  0  0  0  0
  187.6090  177.9580  147.9600 N   0  0  0  0  0  0  0  0  0  0  0  0
  185.6670  178.2590  144.2750 C   0  0  0  0  0  0  0  0  0  0  0  0
  185.6690  178.4320  146.6970 C   0  0  0  0  0  3  0  0  0  0  0  0
  189.6580  176.5530  144.7000 F   0  0  0  0  0  0  0  0  0  0  0  0
  185.6930  178.3430  141.8690 N   0  0  0  0  0  0  0  0  0  0  0  0
  184.9790  178.3870  143.0300 C   0  0  0  0  0  0  0  0  0  0  0  0
  189.3270  178.2000  141.3610 C   0  0  2  0  0  3  0  0  0  0  0  0
  187.7250  177.9840  143.0460 C   0  0  0  0  0  0  0  0  0  0  0  0
  185.0030  178.5060  145.4820 C   0  0  0  0  0  3  0  0  0  0  0  0
  181.4800  178.8740  141.6230 C   0  0  0  0  0  0  0  0  0  0  0  0
  180.7740  179.1110  142.8020 C   0  0  0  0  0  3  0  0  0  0  0  0
  183.5110  178.6060  142.9230 C   0  0  0  0  0  0  0  0  0  0  0  0
  181.4230  179.1030  143.9960 N   0  0  0  0  0  0  0  0  0  0  0  0
  182.8520  178.6280  141.6860 C   0  0  0  0  0  3  0  0  0  0  0  0
  182.7600  178.8650  144.0790 C   0  0  0  0  0  3  0  0  0  0  0  0
  180.8260  178.8860  140.3990 O   0  0  0  0  0  1  0  0  0  0  0  0
  190.1610  177.0420  140.8130 C   0  0  0  0  0  2  0  0  0  0  0  0
  190.9990  177.4520  139.6060 C   0  0  0  0  0  2  0  0  0  0  0  0
  189.2580  178.6280  137.5720 C   0  0  0  0  0  1  0  0  0  0  0  0
  190.6130  176.6500  138.4000 C   0  0  0  0  0  0  0  0  0  0  0  0
  189.8080  177.2460  137.2620 C   0  0  1  0  0  3  0  0  0  0  0  0
  189.0290  174.8150  136.8360 C   0  0  0  0  0  2  0  0  0  0  0  0
  190.5040  174.5410  137.1550 C   0  0  0  0  0  2  0  0  0  0  0  0
  190.9300  175.3500  138.3430 C   0  0  0  0  0  3  0  0  0  0  0  0
  188.6620  176.3140  136.8370 C   0  0  0  0  0  2  0  0  0  0  0  0
  1 10  2  0  0  0  0
  2  6  1  0  0  0  0
  3  8  1  0  0  0  0
  4 17  1  0  0  0  0
  6  5  2  0  0  0  0
  7 17  1  0  0  0  0
  8  2  2  0  0  0  0
  8  1  1  0  0  0  0
  9 16  1  0  0  0  0
  9  4  1  0  0  0  0
 10  5  1  0  0  0  0
 11  3  1  0  0  0  0
 11 18  1  0  0  0  0
 12  1  1  0  0  0  0
 13  2  1  0  0  0  0
 14  4  2  0  0  0  0
 14 15  1  0  0  0  0
 15 11  2  0  0  0  0
 16 26  1  6  0  0  0
 16  7  1  0  0  0  0
 17  3  2  0  0  0  0
 18 12  2  0  0  0  0
 19 23  2  0  0  0  0
 19 20  1  0  0  0  0
 20 22  2  0  0  0  0
 21 15  1  0  0  0  0
 21 24  2  0  0  0  0
 22 24  1  0  0  0  0
 23 21  1  0  0  0  0
 25 19  1  0  0  0  0
 27 26  1  0  0  0  0
 29 27  1  0  0  0  0
 30 28  1  1  0  0  0
 30 29  1  0  0  0  0
 31 34  1  0  0  0  0
 31 32  1  0  0  0  0
 32 33  1  0  0  0  0
 33 29  2  0  0  0  0
 34 30  1  0  0  0  0
M  END
>  <MODEL>
6

>  <REMARK>
 VINA RESULT:     -10.6      1.480      2.047
  Name = 
  4 active torsions:
  status: ('A' for Active; 'I' for Inactive)
    1  A    between atoms: C_3  and  C_13
    2  A    between atoms: C_3  and  C_17
    3  A    between atoms: C_12  and  C_28
    4  A    between atoms: C_17  and  C_29
                            x       y       z     vdW  Elec       q    Type
                         _______ _______ _______ _____ _____    ______ ____

>  <TORSDO>
F 4

$$$$
=
 OpenBabel11052413573D

 34 39  0  0  1  0  0  0  0  0999 V2000
  189.5460  177.1960  146.1760 C   0  0  0  0  0  0  0  0  0  0  0  0
  191.2980  176.2590  144.7970 C   0  0  0  0  0  0  0  0  0  0  0  0
  189.2470  177.2930  143.7440 C   0  0  0  0  0  0  0  0  0  0  0  0
  188.8780  177.6730  141.3840 C   0  0  0  0  0  0  0  0  0  0  0  0
  191.5420  176.4070  147.1900 C   0  0  0  0  0  3  0  0  0  0  0  0
  192.0440  176.0250  145.9510 C   0  0  0  0  0  3  0  0  0  0  0  0
  191.0610  177.3620  141.9690 N   0  0  0  0  0  2  0  0  0  0  0  0
  190.0500  176.9300  144.8730 C   0  0  0  0  0  0  0  0  0  0  0  0
  189.6060  177.8050  140.1000 C   0  0  0  0  0  2  0  0  0  0  0  0
  190.3070  176.9600  147.2770 N   0  0  0  0  0  0  0  0  0  0  0  0
  187.8860  177.6850  143.9530 C   0  0  0  0  0  0  0  0  0  0  0  0
  188.2500  177.6650  146.3530 C   0  0  0  0  0  3  0  0  0  0  0  0
  191.7480  175.6790  143.6590 F   0  0  0  0  0  0  0  0  0  0  0  0
  187.5730  177.9580  141.5820 N   0  0  0  0  0  0  0  0  0  0  0  0
  187.0380  177.9590  142.8360 C   0  0  0  0  0  0  0  0  0  0  0  0
  191.0720  177.6050  140.5270 C   0  0  2  0  0  3  0  0  0  0  0  0
  189.7180  177.3680  142.4140 C   0  0  0  0  0  0  0  0  0  0  0  0
  187.4250  177.8810  145.2600 C   0  0  0  0  0  3  0  0  0  0  0  0
  183.6480  178.8840  144.2870 C   0  0  0  0  0  0  0  0  0  0  0  0
  182.8610  178.8050  143.1370 C   0  0  0  0  0  3  0  0  0  0  0  0
  185.5930  178.2870  142.9650 C   0  0  0  0  0  0  0  0  0  0  0  0
  183.4270  178.4690  141.9480 N   0  0  0  0  0  0  0  0  0  0  0  0
  185.0140  178.6180  144.1990 C   0  0  0  0  0  3  0  0  0  0  0  0
  184.7580  178.2070  141.8410 C   0  0  0  0  0  3  0  0  0  0  0  0
  183.0760  179.2200  145.5060 O   0  0  0  0  0  1  0  0  0  0  0  0
  191.7230  176.4390  139.7840 C   0  0  0  0  0  2  0  0  0  0  0  0
  191.5600  176.5530  138.2710 C   0  0  0  0  0  2  0  0  0  0  0  0
  193.6940  174.7760  137.3550 C   0  0  0  0  0  1  0  0  0  0  0  0
  191.2180  175.2210  137.6770 C   0  0  0  0  0  0  0  0  0  0  0  0
  192.2850  174.2140  137.2910 C   0  0  1  0  0  3  0  0  0  0  0  0
  190.5360  173.3470  135.5920 C   0  0  0  0  0  2  0  0  0  0  0  0
  189.6040  173.6060  136.7820 C   0  0  0  0  0  2  0  0  0  0  0  0
  189.9380  174.9230  137.4170 C   0  0  0  0  0  3  0  0  0  0  0  0
  192.0220  173.6270  135.8950 C   0  0  0  0  0  2  0  0  0  0  0  0
  1 12  1  0  0  0  0
  1 10  2  0  0  0  0
  2  8  2  0  0  0  0
  2  6  1  0  0  0  0
  3 11  1  0  0  0  0
  3  8  1  0  0  0  0
  4 14  2  0  0  0  0
  4 17  1  0  0  0  0
  5 10  1  0  0  0  0
  6  5  2  0  0  0  0
  7 17  1  0  0  0  0
  8  1  1  0  0  0  0
  9 16  1  0  0  0  0
  9  4  1  0  0  0  0
 11 18  1  0  0  0  0
 13  2  1  0  0  0  0
 14 15  1  0  0  0  0
 15 21  1  0  0  0  0
 15 11  2  0  0  0  0
 16 26  1  6  0  0  0
 16  7  1  0  0  0  0
 17  3  2  0  0  0  0
 18 12  2  0  0  0  0
 19 25  1  0  0  0  0
 20 19  2  0  0  0  0
 21 23  2  0  0  0  0
 22 20  1  0  0  0  0
 23 19  1  0  0  0  0
 24 22  2  0  0  0  0
 24 21  1  0  0  0  0
 27 26  1  0  0  0  0
 29 27  1  0  0  0  0
 30 28  1  6  0  0  0
 30 29  1  0  0  0  0
 31 34  1  0  0  0  0
 31 32  1  0  0  0  0
 32 33  1  0  0  0  0
 33 29  2  0  0  0  0
 34 30  1  0  0  0  0
M  END
>  <MODEL>
7

>  <REMARK>
 VINA RESULT:     -10.4      1.482      2.157
  Name = 
  4 active torsions:
  status: ('A' for Active; 'I' for Inactive)
    1  A    between atoms: C_3  and  C_13
    2  A    between atoms: C_3  and  C_17
    3  A    between atoms: C_12  and  C_28
    4  A    between atoms: C_17  and  C_29
                            x       y       z     vdW  Elec       q    Type
                         _______ _______ _______ _____ _____    ______ ____

>  <TORSDO>
F 4

$$$$
=
 OpenBabel11052413573D

 34 39  0  0  1  0  0  0  0  0999 V2000
  186.0900  178.4570  139.3760 C   0  0  0  0  0  0  0  0  0  0  0  0
  188.0940  178.5440  140.7290 C   0  0  0  0  0  0  0  0  0  0  0  0
  185.8150  178.4030  141.8130 C   0  0  0  0  0  0  0  0  0  0  0  0
  185.3590  178.1210  144.1720 C   0  0  0  0  0  0  0  0  0  0  0  0
  188.2180  178.3960  138.3270 C   0  0  0  0  0  3  0  0  0  0  0  0
  188.8520  178.4940  139.5610 C   0  0  0  0  0  3  0  0  0  0  0  0
  187.4680  177.5320  143.5320 N   0  0  0  0  0  2  0  0  0  0  0  0
  186.6790  178.4460  140.6710 C   0  0  0  0  0  0  0  0  0  0  0  0
  185.9880  177.6560  145.4300 C   0  0  0  0  0  2  0  0  0  0  0  0
  186.8650  178.4010  138.2610 N   0  0  0  0  0  0  0  0  0  0  0  0
  184.4100  178.6100  141.6320 C   0  0  0  0  0  0  0  0  0  0  0  0
  184.7130  178.5660  139.2240 C   0  0  0  0  0  3  0  0  0  0  0  0
  188.7580  178.8470  141.8690 F   0  0  0  0  0  0  0  0  0  0  0  0
  184.0490  178.4030  144.0040 N   0  0  0  0  0  0  0  0  0  0  0  0
  183.5420  178.6670  142.7650 C   0  0  0  0  0  0  0  0  0  0  0  0
  187.4010  177.2540  144.9660 C   0  0  2  0  0  3  0  0  0  0  0  0
  186.2340  178.0930  143.1260 C   0  0  0  0  0  0  0  0  0  0  0  0
  183.8890  178.6670  140.3350 C   0  0  0  0  0  3  0  0  0  0  0  0
  179.8650  179.0890  143.6340 C   0  0  0  0  0  0  0  0  0  0  0  0
  179.3600  179.4540  142.3860 C   0  0  0  0  0  3  0  0  0  0  0  0
  182.0870  178.9640  142.6690 C   0  0  0  0  0  0  0  0  0  0  0  0
  180.1950  179.5600  141.3190 N   0  0  0  0  0  0  0  0  0  0  0  0
  181.2300  178.8380  143.7720 C   0  0  0  0  0  3  0  0  0  0  0  0
  181.5290  179.3200  141.4330 C   0  0  0  0  0  3  0  0  0  0  0  0
  179.0170  178.9740  144.7270 O   0  0  0  0  0  1  0  0  0  0  0  0
  188.4840  178.0230  145.7220 C   0  0  0  0  0  2  0  0  0  0  0  0
  189.7000  178.3190  144.8500 C   0  0  0  0  0  2  0  0  0  0  0  0
  191.2750  177.1450  142.6840 C   0  0  0  0  0  1  0  0  0  0  0  0
  190.8180  177.3740  145.1680 C   0  0  0  0  0  0  0  0  0  0  0  0
  191.7380  176.8250  144.0940 C   0  0  1  0  0  3  0  0  0  0  0  0
  192.0600  174.8270  145.7060 C   0  0  0  0  0  2  0  0  0  0  0  0
  192.0750  175.9650  146.7330 C   0  0  0  0  0  2  0  0  0  0  0  0
  190.9820  176.9450  146.4260 C   0  0  0  0  0  3  0  0  0  0  0  0
  191.9350  175.3090  144.2460 C   0  0  0  0  0  2  0  0  0  0  0  0
  1  8  1  0  0  0  0
  2 13  1  0  0  0  0
  3 17  1  0  0  0  0
  4  9  1  0  0  0  0
  5  6  1  0  0  0  0
  6  2  2  0  0  0  0
  7 16  1  0  0  0  0
  8  2  1  0  0  0  0
  8  3  2  0  0  0  0
 10  5  2  0  0  0  0
 10  1  1  0  0  0  0
 11  3  1  0  0  0  0
 11 15  1  0  0  0  0
 12  1  2  0  0  0  0
 12 18  1  0  0  0  0
 14  4  1  0  0  0  0
 15 14  2  0  0  0  0
 16  9  1  0  0  0  0
 16 26  1  1  0  0  0
 17  7  1  0  0  0  0
 17  4  2  0  0  0  0
 18 11  2  0  0  0  0
 19 23  1  0  0  0  0
 19 25  1  0  0  0  0
 20 19  2  0  0  0  0
 21 15  1  0  0  0  0
 21 23  2  0  0  0  0
 22 24  2  0  0  0  0
 22 20  1  0  0  0  0
 24 21  1  0  0  0  0
 27 29  1  0  0  0  0
 27 26  1  0  0  0  0
 29 33  2  0  0  0  0
 30 28  1  6  0  0  0
 30 34  1  0  0  0  0
 30 29  1  0  0  0  0
 31 32  1  0  0  0  0
 33 32  1  0  0  0  0
 34 31  1  0  0  0  0
M  END
>  <MODEL>
8

>  <REMARK>
 VINA RESULT:     -10.3      2.334      6.441
  Name = 
  4 active torsions:
  status: ('A' for Active; 'I' for Inactive)
    1  A    between atoms: C_3  and  C_13
    2  A    between atoms: C_3  and  C_17
    3  A    between atoms: C_12  and  C_28
    4  A    between atoms: C_17  and  C_29
                            x       y       z     vdW  Elec       q    Type
                         _______ _______ _______ _____ _____    ______ ____

>  <TORSDO>
F 4

$$$$
=
 OpenBabel11052413573D

 34 39  0  0  1  0  0  0  0  0999 V2000
  185.4380  178.0630  143.4530 C   0  0  0  0  0  0  0  0  0  0  0  0
  185.7220  178.7570  141.1530 C   0  0  0  0  0  0  0  0  0  0  0  0
  187.6750  177.8420  142.4700 C   0  0  0  0  0  0  0  0  0  0  0  0
  189.8830  177.3500  141.6140 C   0  0  0  0  0  0  0  0  0  0  0  0
  183.5460  178.7370  142.1880 C   0  0  0  0  0  3  0  0  0  0  0  0
  184.3500  178.9960  141.0850 C   0  0  0  0  0  3  0  0  0  0  0  0
  188.2560  177.5050  140.0220 N   0  0  0  0  0  2  0  0  0  0  0  0
  186.2960  178.2030  142.3270 C   0  0  0  0  0  0  0  0  0  0  0  0
  190.6050  177.0760  140.3490 C   0  0  0  0  0  2  0  0  0  0  0  0
  184.1050  178.3010  143.3440 N   0  0  0  0  0  0  0  0  0  0  0  0
  188.1950  177.5840  143.7780 C   0  0  0  0  0  0  0  0  0  0  0  0
  185.9520  177.7210  144.6980 C   0  0  0  0  0  3  0  0  0  0  0  0
  186.4680  179.2240  140.1250 F   0  0  0  0  0  0  0  0  0  0  0  0
  190.3850  177.1930  142.8580 N   0  0  0  0  0  0  0  0  0  0  0  0
  189.5870  177.3170  143.9570 C   0  0  0  0  0  0  0  0  0  0  0  0
  189.4830  177.1740  139.2980 C   0  0  2  0  0  3  0  0  0  0  0  0
  188.5700  177.6450  141.3950 C   0  0  0  0  0  0  0  0  0  0  0  0
  187.3130  177.5100  144.8620 C   0  0  0  0  0  3  0  0  0  0  0  0
  190.3160  177.5010  147.6840 C   0  0  0  0  0  0  0  0  0  0  0  0
  191.5150  176.7910  147.7330 C   0  0  0  0  0  3  0  0  0  0  0  0
  190.2210  177.1240  145.2890 C   0  0  0  0  0  0  0  0  0  0  0  0
  192.0480  176.2760  146.5940 N   0  0  0  0  0  0  0  0  0  0  0  0
  189.6730  177.6710  146.4570 C   0  0  0  0  0  3  0  0  0  0  0  0
  191.4360  176.4310  145.3880 C   0  0  0  0  0  3  0  0  0  0  0  0
  189.7690  178.0350  148.8420 O   0  0  0  0  0  1  0  0  0  0  0  0
  189.7930  178.2300  138.2380 C   0  0  0  0  0  2  0  0  0  0  0  0
  188.5500  178.6550  137.4630 C   0  0  0  0  0  2  0  0  0  0  0  0
  185.8690  177.4900  137.3630 C   0  0  0  0  0  1  0  0  0  0  0  0
  188.2140  177.6430  136.4100 C   0  0  0  0  0  0  0  0  0  0  0  0
  186.8120  177.0920  136.2400 C   0  0  1  0  0  3  0  0  0  0  0  0
  187.9880  175.0180  135.2360 C   0  0  0  0  0  2  0  0  0  0  0  0
  188.8560  176.1130  134.6040 C   0  0  0  0  0  2  0  0  0  0  0  0
  189.1880  177.1570  135.6280 C   0  0  0  0  0  3  0  0  0  0  0  0
  186.8250  175.5630  136.0900 C   0  0  0  0  0  2  0  0  0  0  0  0
  1 12  1  0  0  0  0
  2  8  1  0  0  0  0
  3 11  1  0  0  0  0
  4 14  2  0  0  0  0
  5 10  2  0  0  0  0
  6  2  2  0  0  0  0
  6  5  1  0  0  0  0
  7 17  1  0  0  0  0
  8  3  1  0  0  0  0
  8  1  2  0  0  0  0
  9  4  1  0  0  0  0
 10  1  1  0  0  0  0
 11 15  2  0  0  0  0
 11 18  1  0  0  0  0
 12 18  2  0  0  0  0
 13  2  1  0  0  0  0
 14 15  1  0  0  0  0
 15 21  1  0  0  0  0
 16 26  1  6  0  0  0
 16  7  1  0  0  0  0
 16  9  1  0  0  0  0
 17  4  1  0  0  0  0
 17  3  2  0  0  0  0
 19 20  1  0  0  0  0
 19 25  1  0  0  0  0
 21 24  2  0  0  0  0
 21 23  1  0  0  0  0
 22 20  2  0  0  0  0
 23 19  2  0  0  0  0
 24 22  1  0  0  0  0
 27 26  1  0  0  0  0
 29 27  1  0  0  0  0
 30 29  1  0  0  0  0
 30 28  1  1  0  0  0
 31 34  1  0  0  0  0
 32 31  1  0  0  0  0
 32 33  1  0  0  0  0
 33 29  2  0  0  0  0
 34 30  1  0  0  0  0
M  END
>  <MODEL>
9

>  <REMARK>
 VINA RESULT:     -10.1      2.513      5.390
  Name = 
  4 active torsions:
  status: ('A' for Active; 'I' for Inactive)
    1  A    between atoms: C_3  and  C_13
    2  A    between atoms: C_3  and  C_17
    3  A    between atoms: C_12  and  C_28
    4  A    between atoms: C_17  and  C_29
                            x       y       z     vdW  Elec       q    Type
                         _______ _______ _______ _____ _____    ______ ____

>  <TORSDO>
F 4

$$$$
