=
 OpenBabel11052414423D

 32 36  0  0  1  0  0  0  0  0999 V2000
  187.9060  178.3410  142.1310 C   0  0  2  0  0  3  0  0  0  0  0  0
  186.3450  177.7670  144.0590 C   0  0  0  0  0  0  0  0  0  0  0  0
  188.7520  177.7090  141.0260 C   0  0  0  0  0  2  0  0  0  0  0  0
  187.3870  177.2620  143.1070 C   0  0  2  0  0  3  0  0  0  0  0  0
  186.7620  177.7260  145.3760 C   0  0  0  0  0  0  0  0  0  0  0  0
  185.0470  178.1750  143.7370 C   0  0  0  0  0  3  0  0  0  0  0  0
  184.6210  178.5510  146.1050 C   0  0  0  0  0  3  0  0  0  0  0  0
  188.4790  176.8710  144.0810 C   0  0  0  0  0  0  0  0  0  0  0  0
  185.9150  178.1100  146.4170 C   0  0  0  0  0  3  0  0  0  0  0  0
  189.6310  176.2760  143.7410 C   0  0  0  0  0  3  0  0  0  0  0  0
  189.9950  175.9660  142.3230 C   0  0  0  0  0  2  0  0  0  0  0  0
  184.1880  178.5850  144.7670 C   0  0  0  0  0  0  0  0  0  0  0  0
  188.1370  177.1860  145.5110 C   0  0  1  0  0  3  0  0  0  0  0  0
  190.1180  177.2490  141.5150 C   0  0  0  0  0  2  0  0  0  0  0  0
  189.1020  178.2000  146.1400 C   0  0  0  0  0  2  0  0  0  0  0  0
  189.3020  177.9940  147.9440 S   0  0  0  0  0  1  0  0  0  0  0  0
  186.7710  179.0930  141.4550 C   0  0  0  0  0  2  0  0  0  0  0  0
  186.7120  178.7450  140.0780 O   0  0  0  0  0  0  0  0  0  0  0  0
  181.9420  178.1110  137.2940 F   0  0  0  0  0  0  0  0  0  0  0  0
  183.1010  178.8880  139.2230 C   0  0  0  0  0  3  0  0  0  0  0  0
  185.5060  178.5670  139.3920 C   0  0  0  0  0  0  0  0  0  0  0  0
  184.2950  177.7730  137.4430 C   0  0  0  0  0  3  0  0  0  0  0  0
  184.2970  179.0460  139.9250 C   0  0  0  0  0  3  0  0  0  0  0  0
  185.5000  177.9050  138.1480 C   0  0  0  0  0  0  0  0  0  0  0  0
  183.1000  178.2560  137.9810 C   0  0  0  0  0  0  0  0  0  0  0  0
  186.6420  177.3540  136.0150 C   0  0  0  0  0  2  0  0  0  0  0  0
  187.3980  178.4990  136.6470 C   0  0  0  0  0  2  0  0  0  0  0  0
  186.7830  177.4220  137.5280 C   0  0  0  0  0  3  0  0  0  0  0  0
  182.8170  179.0730  144.4340 C   0  0  0  0  0  2  0  0  0  0  0  0
  182.5050  178.9050  142.9510 C   0  0  0  0  0  2  0  0  0  0  0  0
  180.2550  178.5670  143.9710 C   0  0  0  0  0  1  0  0  0  0  0  0
  181.0060  178.8840  142.6930 C   0  0  0  0  0  2  0  0  0  0  0  0
  1 17  1  6  0  0  0
  1  4  1  0  0  0  0
  2  5  1  0  0  0  0
  3 14  1  0  0  0  0
  3  1  1  0  0  0  0
  4  2  1  1  0  0  0
  4  8  1  0  0  0  0
  5 13  1  0  0  0  0
  5  9  2  0  0  0  0
  6  2  2  0  0  0  0
  6 12  1  0  0  0  0
  7  9  1  0  0  0  0
  8 13  1  0  0  0  0
 10  8  2  0  0  0  0
 11 10  1  0  0  0  0
 12  7  2  0  0  0  0
 13 15  1  6  0  0  0
 14 11  1  0  0  0  0
 15 16  1  0  0  0  0
 18 17  1  0  0  0  0
 19 25  1  0  0  0  0
 20 23  1  0  0  0  0
 21 23  2  0  0  0  0
 21 18  1  0  0  0  0
 22 25  1  0  0  0  0
 22 24  2  0  0  0  0
 24 21  1  0  0  0  0
 25 20  2  0  0  0  0
 26 27  1  0  0  0  0
 26 28  1  0  0  0  0
 27 28  1  0  0  0  0
 28 24  1  0  0  0  0
 29 12  1  0  0  0  0
 30 29  1  0  0  0  0
 32 30  1  0  0  0  0
 32 31  1  0  0  0  0
M  END
>  <MODEL>
1

>  <REMARK>
 VINA RESULT:      -9.1      0.000      0.000
  Name = 
  8 active torsions:
  status: ('A' for Active; 'I' for Inactive)
    1  A    between atoms: C_1  and  C_27
    2  A    between atoms: C_9  and  C_31
    3  A    between atoms: C_9  and  C_32
    4  A    between atoms: C_13  and  C_29
    5  A    between atoms: C_16  and  O_24
    6  A    between atoms: C_22  and  C_23
    7  A    between atoms: O_24  and  C_27
    8  A    between atoms: C_28  and  C_32
                            x       y       z     vdW  Elec       q    Type
                         _______ _______ _______ _____ _____    ______ ____

>  <TORSDO>
F 8

$$$$
=
 OpenBabel11052414423D

 32 36  0  0  1  0  0  0  0  0999 V2000
  187.7620  177.1630  145.8810 C   0  0  2  0  0  3  0  0  0  0  0  0
  189.6500  177.6720  144.2510 C   0  0  0  0  0  0  0  0  0  0  0  0
  187.0060  177.7380  147.0790 C   0  0  0  0  0  2  0  0  0  0  0  0
  189.0090  178.0180  145.5600 C   0  0  2  0  0  3  0  0  0  0  0  0
  190.9280  177.1670  144.4000 C   0  0  0  0  0  0  0  0  0  0  0  0
  189.1140  177.8810  142.9760 C   0  0  0  0  0  3  0  0  0  0  0  0
  191.1710  177.0070  142.0110 C   0  0  0  0  0  3  0  0  0  0  0  0
  190.1340  177.6760  146.5140 C   0  0  0  0  0  0  0  0  0  0  0  0
  191.7100  176.8310  143.2930 C   0  0  0  0  0  3  0  0  0  0  0  0
  190.1040  177.8800  147.8380 C   0  0  0  0  0  3  0  0  0  0  0  0
  188.9090  178.4380  148.5450 C   0  0  0  0  0  2  0  0  0  0  0  0
  189.8760  177.5300  141.8520 C   0  0  0  0  0  0  0  0  0  0  0  0
  191.3400  177.1010  145.8240 C   0  0  1  0  0  3  0  0  0  0  0  0
  187.7210  177.5000  148.4010 C   0  0  0  0  0  2  0  0  0  0  0  0
  191.6510  175.6670  146.2740 C   0  0  0  0  0  2  0  0  0  0  0  0
  192.6130  175.5830  147.8250 S   0  0  0  0  0  1  0  0  0  0  0  0
  186.7870  177.1140  144.7150 C   0  0  0  0  0  2  0  0  0  0  0  0
  186.1870  178.3880  144.5310 O   0  0  0  0  0  0  0  0  0  0  0  0
  180.9020  179.1120  142.9640 F   0  0  0  0  0  0  0  0  0  0  0  0
  182.5350  179.0460  144.6950 C   0  0  0  0  0  3  0  0  0  0  0  0
  184.8520  178.5480  144.1450 C   0  0  0  0  0  0  0  0  0  0  0  0
  183.1620  178.6080  142.4020 C   0  0  0  0  0  3  0  0  0  0  0  0
  183.8610  178.8620  145.0910 C   0  0  0  0  0  3  0  0  0  0  0  0
  184.4930  178.3990  142.7910 C   0  0  0  0  0  0  0  0  0  0  0  0
  182.1860  178.9230  143.3510 C   0  0  0  0  0  0  0  0  0  0  0  0
  185.1870  178.8160  140.4450 C   0  0  0  0  0  2  0  0  0  0  0  0
  186.2650  179.3820  141.3390 C   0  0  0  0  0  2  0  0  0  0  0  0
  185.5360  178.1100  141.7460 C   0  0  0  0  0  3  0  0  0  0  0  0
  189.2960  177.6990  140.4870 C   0  0  0  0  0  2  0  0  0  0  0  0
  190.0520  176.8760  139.4490 C   0  0  0  0  0  2  0  0  0  0  0  0
  189.0280  178.6990  138.0910 C   0  0  0  0  0  1  0  0  0  0  0  0
  189.9000  177.4600  138.0530 C   0  0  0  0  0  2  0  0  0  0  0  0
  1 17  1  6  0  0  0
  1  3  1  0  0  0  0
  2  5  1  0  0  0  0
  3 14  1  0  0  0  0
  4  2  1  6  0  0  0
  4  1  1  0  0  0  0
  4  8  1  0  0  0  0
  5 13  1  0  0  0  0
  6  2  2  0  0  0  0
  7  9  1  0  0  0  0
  8 10  2  0  0  0  0
  9  5  2  0  0  0  0
 10 11  1  0  0  0  0
 12  7  2  0  0  0  0
 12  6  1  0  0  0  0
 13 15  1  1  0  0  0
 13  8  1  0  0  0  0
 14 11  1  0  0  0  0
 15 16  1  0  0  0  0
 18 17  1  0  0  0  0
 19 25  1  0  0  0  0
 20 23  1  0  0  0  0
 21 18  1  0  0  0  0
 21 23  2  0  0  0  0
 22 24  2  0  0  0  0
 22 25  1  0  0  0  0
 24 21  1  0  0  0  0
 25 20  2  0  0  0  0
 26 27  1  0  0  0  0
 26 28  1  0  0  0  0
 27 28  1  0  0  0  0
 28 24  1  0  0  0  0
 29 12  1  0  0  0  0
 30 29  1  0  0  0  0
 32 31  1  0  0  0  0
 32 30  1  0  0  0  0
M  END
>  <MODEL>
2

>  <REMARK>
 VINA RESULT:      -8.9      2.218      5.788
  Name = 
  8 active torsions:
  status: ('A' for Active; 'I' for Inactive)
    1  A    between atoms: C_1  and  C_27
    2  A    between atoms: C_9  and  C_31
    3  A    between atoms: C_9  and  C_32
    4  A    between atoms: C_13  and  C_29
    5  A    between atoms: C_16  and  O_24
    6  A    between atoms: C_22  and  C_23
    7  A    between atoms: O_24  and  C_27
    8  A    between atoms: C_28  and  C_32
                            x       y       z     vdW  Elec       q    Type
                         _______ _______ _______ _____ _____    ______ ____

>  <TORSDO>
F 8

$$$$
=
 OpenBabel11052414423D

 32 36  0  0  1  0  0  0  0  0999 V2000
  188.1000  178.3970  140.8780 C   0  0  2  0  0  3  0  0  0  0  0  0
  189.4060  177.0070  142.5640 C   0  0  0  0  0  0  0  0  0  0  0  0
  187.2080  178.2810  139.6410 C   0  0  0  0  0  2  0  0  0  0  0  0
  188.7330  177.0320  141.2250 C   0  0  2  0  0  3  0  0  0  0  0  0
  190.7700  176.8010  142.4720 C   0  0  0  0  0  0  0  0  0  0  0  0
  188.7850  177.0960  143.8140 C   0  0  0  0  0  3  0  0  0  0  0  0
  190.9600  176.8170  144.8710 C   0  0  0  0  0  3  0  0  0  0  0  0
  189.9170  176.7610  140.3200 C   0  0  0  0  0  0  0  0  0  0  0  0
  191.5670  176.6980  143.6130 C   0  0  0  0  0  3  0  0  0  0  0  0
  189.8440  176.6000  138.9920 C   0  0  0  0  0  3  0  0  0  0  0  0
  188.5610  176.7180  138.2300 C   0  0  0  0  0  2  0  0  0  0  0  0
  189.5710  177.0160  144.9720 C   0  0  0  0  0  0  0  0  0  0  0  0
  191.2180  176.6510  141.0650 C   0  0  1  0  0  3  0  0  0  0  0  0
  188.0010  178.1270  138.3510 C   0  0  0  0  0  2  0  0  0  0  0  0
  192.2260  177.7340  140.6570 C   0  0  0  0  0  2  0  0  0  0  0  0
  193.5570  177.1170  139.5680 S   0  0  0  0  0  1  0  0  0  0  0  0
  187.2340  178.9300  142.0090 C   0  0  0  0  0  2  0  0  0  0  0  0
  186.2290  177.9810  142.3380 O   0  0  0  0  0  0  0  0  0  0  0  0
  181.0020  179.3470  143.6460 F   0  0  0  0  0  0  0  0  0  0  0  0
  182.5920  178.6590  142.0140 C   0  0  0  0  0  3  0  0  0  0  0  0
  184.9170  178.3460  142.6570 C   0  0  0  0  0  0  0  0  0  0  0  0
  183.2750  179.0610  144.2970 C   0  0  0  0  0  3  0  0  0  0  0  0
  183.9050  178.3180  141.6830 C   0  0  0  0  0  3  0  0  0  0  0  0
  184.6020  178.7430  143.9720 C   0  0  0  0  0  0  0  0  0  0  0  0
  182.2770  179.0270  143.3220 C   0  0  0  0  0  0  0  0  0  0  0  0
  185.0030  178.5680  146.4140 C   0  0  0  0  0  2  0  0  0  0  0  0
  185.6940  177.3950  145.7610 C   0  0  0  0  0  2  0  0  0  0  0  0
  185.6510  178.7380  145.0490 C   0  0  0  0  0  3  0  0  0  0  0  0
  188.9290  177.1620  146.3110 C   0  0  0  0  0  2  0  0  0  0  0  0
  189.9650  177.3100  147.4200 C   0  0  0  0  0  2  0  0  0  0  0  0
  187.9470  178.0110  148.7040 C   0  0  0  0  0  1  0  0  0  0  0  0
  189.4470  178.1730  148.5600 C   0  0  0  0  0  2  0  0  0  0  0  0
  1  4  1  0  0  0  0
  1 17  1  1  0  0  0
  2  6  1  0  0  0  0
  3  1  1  0  0  0  0
  4  8  1  6  0  0  0
  4  2  1  0  0  0  0
  5  2  2  0  0  0  0
  5  9  1  0  0  0  0
  6 12  2  0  0  0  0
  7 12  1  0  0  0  0
  8 13  1  0  0  0  0
  9  7  2  0  0  0  0
 10  8  2  0  0  0  0
 11 14  1  0  0  0  0
 11 10  1  0  0  0  0
 12 29  1  0  0  0  0
 13 15  1  6  0  0  0
 13  5  1  0  0  0  0
 14  3  1  0  0  0  0
 16 15  1  0  0  0  0
 17 18  1  0  0  0  0
 18 21  1  0  0  0  0
 20 25  1  0  0  0  0
 21 24  2  0  0  0  0
 23 20  2  0  0  0  0
 23 21  1  0  0  0  0
 24 22  1  0  0  0  0
 24 28  1  0  0  0  0
 25 19  1  0  0  0  0
 25 22  2  0  0  0  0
 27 26  1  0  0  0  0
 28 27  1  0  0  0  0
 28 26  1  0  0  0  0
 29 30  1  0  0  0  0
 30 32  1  0  0  0  0
 32 31  1  0  0  0  0
M  END
>  <MODEL>
3

>  <REMARK>
 VINA RESULT:      -8.6      2.643      6.050
  Name = 
  8 active torsions:
  status: ('A' for Active; 'I' for Inactive)
    1  A    between atoms: C_1  and  C_27
    2  A    between atoms: C_9  and  C_31
    3  A    between atoms: C_9  and  C_32
    4  A    between atoms: C_13  and  C_29
    5  A    between atoms: C_16  and  O_24
    6  A    between atoms: C_22  and  C_23
    7  A    between atoms: O_24  and  C_27
    8  A    between atoms: C_28  and  C_32
                            x       y       z     vdW  Elec       q    Type
                         _______ _______ _______ _____ _____    ______ ____

>  <TORSDO>
F 8

$$$$
=
 OpenBabel11052414423D

 32 36  0  0  1  0  0  0  0  0999 V2000
  189.3200  178.1160  142.4370 C   0  0  2  0  0  3  0  0  0  0  0  0
  187.2000  177.5940  143.7470 C   0  0  0  0  0  0  0  0  0  0  0  0
  190.5190  177.4550  141.7570 C   0  0  0  0  0  2  0  0  0  0  0  0
  188.5240  177.0830  143.2660 C   0  0  2  0  0  3  0  0  0  0  0  0
  187.1290  177.6770  145.1250 C   0  0  0  0  0  0  0  0  0  0  0  0
  186.0850  177.8980  142.9590 C   0  0  0  0  0  3  0  0  0  0  0  0
  184.8440  178.4230  144.9870 C   0  0  0  0  0  3  0  0  0  0  0  0
  189.2170  176.8320  144.5900 C   0  0  0  0  0  0  0  0  0  0  0  0
  185.9580  178.0850  145.7680 C   0  0  0  0  0  3  0  0  0  0  0  0
  190.4320  176.2850  144.7260 C   0  0  0  0  0  3  0  0  0  0  0  0
  191.2800  175.8930  143.5580 C   0  0  0  0  0  2  0  0  0  0  0  0
  184.9070  178.3300  143.5850 C   0  0  0  0  0  0  0  0  0  0  0  0
  188.3850  177.2320  145.7770 C   0  0  1  0  0  3  0  0  0  0  0  0
  191.6400  177.1160  142.7300 C   0  0  0  0  0  2  0  0  0  0  0  0
  189.0360  178.3470  146.6070 C   0  0  0  0  0  2  0  0  0  0  0  0
  188.8020  178.1460  148.4080 S   0  0  0  0  0  1  0  0  0  0  0  0
  188.4720  178.7460  141.3430 C   0  0  0  0  0  2  0  0  0  0  0  0
  188.9400  178.3290  140.0680 O   0  0  0  0  0  0  0  0  0  0  0  0
  185.6260  176.2920  136.0960 F   0  0  0  0  0  0  0  0  0  0  0  0
  185.9740  177.8150  137.8920 C   0  0  0  0  0  3  0  0  0  0  0  0
  188.0930  177.8040  139.0850 C   0  0  0  0  0  0  0  0  0  0  0  0
  187.7050  176.2520  137.2570 C   0  0  0  0  0  3  0  0  0  0  0  0
  186.8030  178.3260  138.8920 C   0  0  0  0  0  3  0  0  0  0  0  0
  188.5400  176.7420  138.2730 C   0  0  0  0  0  0  0  0  0  0  0  0
  186.4260  176.7810  137.0730 C   0  0  0  0  0  0  0  0  0  0  0  0
  190.2220  175.1890  137.3160 C   0  0  0  0  0  2  0  0  0  0  0  0
  190.8000  176.5820  137.2350 C   0  0  0  0  0  2  0  0  0  0  0  0
  189.9320  176.1920  138.4220 C   0  0  0  0  0  3  0  0  0  0  0  0
  183.7270  178.7090  142.7530 C   0  0  0  0  0  2  0  0  0  0  0  0
  184.0150  178.5550  141.2640 C   0  0  0  0  0  2  0  0  0  0  0  0
  181.5310  178.3660  141.1480 C   0  0  0  0  0  1  0  0  0  0  0  0
  182.8420  177.9230  140.5290 C   0  0  0  0  0  2  0  0  0  0  0  0
  1 17  1  6  0  0  0
  1  4  1  0  0  0  0
  2  5  1  0  0  0  0
  3  1  1  0  0  0  0
  3 14  1  0  0  0  0
  4  2  1  1  0  0  0
  4  8  1  0  0  0  0
  5  9  2  0  0  0  0
  5 13  1  0  0  0  0
  6 12  1  0  0  0  0
  6  2  2  0  0  0  0
  7  9  1  0  0  0  0
  8 10  2  0  0  0  0
  8 13  1  0  0  0  0
 11 10  1  0  0  0  0
 12  7  2  0  0  0  0
 13 15  1  6  0  0  0
 14 11  1  0  0  0  0
 15 16  1  0  0  0  0
 18 17  1  0  0  0  0
 19 25  1  0  0  0  0
 20 23  1  0  0  0  0
 21 18  1  0  0  0  0
 22 24  2  0  0  0  0
 23 21  2  0  0  0  0
 24 28  1  0  0  0  0
 24 21  1  0  0  0  0
 25 22  1  0  0  0  0
 25 20  2  0  0  0  0
 26 28  1  0  0  0  0
 27 26  1  0  0  0  0
 27 28  1  0  0  0  0
 29 12  1  0  0  0  0
 30 29  1  0  0  0  0
 32 31  1  0  0  0  0
 32 30  1  0  0  0  0
M  END
>  <MODEL>
4

>  <REMARK>
 VINA RESULT:      -8.6      1.825      2.438
  Name = 
  8 active torsions:
  status: ('A' for Active; 'I' for Inactive)
    1  A    between atoms: C_1  and  C_27
    2  A    between atoms: C_9  and  C_31
    3  A    between atoms: C_9  and  C_32
    4  A    between atoms: C_13  and  C_29
    5  A    between atoms: C_16  and  O_24
    6  A    between atoms: C_22  and  C_23
    7  A    between atoms: O_24  and  C_27
    8  A    between atoms: C_28  and  C_32
                            x       y       z     vdW  Elec       q    Type
                         _______ _______ _______ _____ _____    ______ ____

>  <TORSDO>
F 8

$$$$
=
 OpenBabel11052414423D

 32 36  0  0  1  0  0  0  0  0999 V2000
  187.3300  177.2740  145.2430 C   0  0  2  0  0  3  0  0  0  0  0  0
  189.5990  177.7330  144.1830 C   0  0  0  0  0  0  0  0  0  0  0  0
  186.2740  177.8890  146.1620 C   0  0  0  0  0  2  0  0  0  0  0  0
  188.6210  178.1230  145.2500 C   0  0  2  0  0  3  0  0  0  0  0  0
  190.7830  177.2400  144.7000 C   0  0  0  0  0  0  0  0  0  0  0  0
  189.4390  177.8910  142.8030 C   0  0  0  0  0  3  0  0  0  0  0  0
  191.6790  176.9930  142.4800 C   0  0  0  0  0  3  0  0  0  0  0  0
  189.4360  177.8230  146.4900 C   0  0  0  0  0  0  0  0  0  0  0  0
  191.8390  176.8680  143.8670 C   0  0  0  0  0  3  0  0  0  0  0  0
  189.0410  178.0760  147.7450 C   0  0  0  0  0  3  0  0  0  0  0  0
  187.6990  178.6540  148.0720 C   0  0  0  0  0  2  0  0  0  0  0  0
  190.4810  177.5030  141.9480 C   0  0  0  0  0  0  0  0  0  0  0  0
  190.7840  177.2300  146.1840 C   0  0  1  0  0  3  0  0  0  0  0  0
  186.5940  177.7040  147.6390 C   0  0  0  0  0  2  0  0  0  0  0  0
  190.9500  175.8150  146.7550 C   0  0  0  0  0  2  0  0  0  0  0  0
  192.4300  175.6250  147.8090 S   0  0  0  0  0  1  0  0  0  0  0  0
  186.7170  177.1760  143.8550 C   0  0  0  0  0  2  0  0  0  0  0  0
  186.1440  178.4240  143.4900 O   0  0  0  0  0  0  0  0  0  0  0  0
  183.1960  179.0430  138.8170 F   0  0  0  0  0  0  0  0  0  0  0  0
  185.3070  178.9880  139.9150 C   0  0  0  0  0  3  0  0  0  0  0  0
  185.4060  178.6030  142.3150 C   0  0  0  0  0  0  0  0  0  0  0  0
  183.2650  178.6790  141.1710 C   0  0  0  0  0  3  0  0  0  0  0  0
  186.0500  178.8350  141.0880 C   0  0  0  0  0  3  0  0  0  0  0  0
  183.9980  178.5460  142.3590 C   0  0  0  0  0  0  0  0  0  0  0  0
  183.9160  178.9050  139.9560 C   0  0  0  0  0  0  0  0  0  0  0  0
  183.3400  179.4600  144.5700 C   0  0  0  0  0  2  0  0  0  0  0  0
  182.0690  179.1580  143.8130 C   0  0  0  0  0  2  0  0  0  0  0  0
  183.2800  178.2530  143.6480 C   0  0  0  0  0  3  0  0  0  0  0  0
  190.3030  177.6170  140.4700 C   0  0  0  0  0  2  0  0  0  0  0  0
  188.9270  177.1300  140.0290 C   0  0  0  0  0  2  0  0  0  0  0  0
  189.0560  178.6370  138.0470 C   0  0  0  0  0  1  0  0  0  0  0  0
  188.7550  177.2290  138.5210 C   0  0  0  0  0  2  0  0  0  0  0  0
  1 17  1  6  0  0  0
  1  4  1  0  0  0  0
  1  3  1  0  0  0  0
  2  5  1  0  0  0  0
  3 14  1  0  0  0  0
  4  2  1  6  0  0  0
  4  8  1  0  0  0  0
  5 13  1  0  0  0  0
  6  2  2  0  0  0  0
  7  9  1  0  0  0  0
  8 10  2  0  0  0  0
  9  5  2  0  0  0  0
 10 11  1  0  0  0  0
 12  7  2  0  0  0  0
 12  6  1  0  0  0  0
 13  8  1  0  0  0  0
 13 15  1  6  0  0  0
 14 11  1  0  0  0  0
 15 16  1  0  0  0  0
 18 17  1  0  0  0  0
 19 25  1  0  0  0  0
 20 25  2  0  0  0  0
 20 23  1  0  0  0  0
 21 24  1  0  0  0  0
 21 18  1  0  0  0  0
 22 24  2  0  0  0  0
 23 21  2  0  0  0  0
 24 28  1  0  0  0  0
 25 22  1  0  0  0  0
 27 26  1  0  0  0  0
 28 27  1  0  0  0  0
 28 26  1  0  0  0  0
 29 12  1  0  0  0  0
 30 29  1  0  0  0  0
 31 32  1  0  0  0  0
 32 30  1  0  0  0  0
M  END
>  <MODEL>
5

>  <REMARK>
 VINA RESULT:      -8.4      1.787      5.688
  Name = 
  8 active torsions:
  status: ('A' for Active; 'I' for Inactive)
    1  A    between atoms: C_1  and  C_27
    2  A    between atoms: C_9  and  C_31
    3  A    between atoms: C_9  and  C_32
    4  A    between atoms: C_13  and  C_29
    5  A    between atoms: C_16  and  O_24
    6  A    between atoms: C_22  and  C_23
    7  A    between atoms: O_24  and  C_27
    8  A    between atoms: C_28  and  C_32
                            x       y       z     vdW  Elec       q    Type
                         _______ _______ _______ _____ _____    ______ ____

>  <TORSDO>
F 8

$$$$
=
 OpenBabel11052414423D

 32 36  0  0  1  0  0  0  0  0999 V2000
  189.3140  178.1460  142.5280 C   0  0  2  0  0  3  0  0  0  0  0  0
  187.2580  177.6090  143.9290 C   0  0  0  0  0  0  0  0  0  0  0  0
  190.4820  177.4940  141.7880 C   0  0  0  0  0  2  0  0  0  0  0  0
  188.5590  177.1050  143.3840 C   0  0  2  0  0  3  0  0  0  0  0  0
  187.2500  177.6800  145.3090 C   0  0  0  0  0  0  0  0  0  0  0  0
  186.1070  177.9180  143.1950 C   0  0  0  0  0  3  0  0  0  0  0  0
  184.9600  178.4220  145.2820 C   0  0  0  0  0  3  0  0  0  0  0  0
  189.3120  176.8450  144.6720 C   0  0  0  0  0  0  0  0  0  0  0  0
  186.1090  178.0810  146.0090 C   0  0  0  0  0  3  0  0  0  0  0  0
  190.5330  176.2990  144.7480 C   0  0  0  0  0  3  0  0  0  0  0  0
  191.3280  175.9180  143.5380 C   0  0  0  0  0  2  0  0  0  0  0  0
  184.9590  178.3420  143.8780 C   0  0  0  0  0  0  0  0  0  0  0  0
  188.5350  177.2320  145.9000 C   0  0  1  0  0  3  0  0  0  0  0  0
  191.6470  177.1500  142.7050 C   0  0  0  0  0  2  0  0  0  0  0  0
  189.2220  178.3420  146.7080 C   0  0  0  0  0  2  0  0  0  0  0  0
  188.8800  178.2550  148.5010 S   0  0  0  0  0  1  0  0  0  0  0  0
  188.4160  178.7840  141.4790 C   0  0  0  0  0  2  0  0  0  0  0  0
  187.9020  177.7840  140.6110 O   0  0  0  0  0  0  0  0  0  0  0  0
  187.0550  178.5550  135.1700 F   0  0  0  0  0  0  0  0  0  0  0  0
  188.5250  177.9850  136.9550 C   0  0  0  0  0  3  0  0  0  0  0  0
  187.7000  177.9990  139.2430 C   0  0  0  0  0  0  0  0  0  0  0  0
  186.2280  178.5910  137.4040 C   0  0  0  0  0  3  0  0  0  0  0  0
  188.7400  177.7930  138.3210 C   0  0  0  0  0  3  0  0  0  0  0  0
  186.4380  178.4240  138.7810 C   0  0  0  0  0  0  0  0  0  0  0  0
  187.2680  178.3790  136.4960 C   0  0  0  0  0  0  0  0  0  0  0  0
  184.1570  179.3600  139.0570 C   0  0  0  0  0  2  0  0  0  0  0  0
  184.0550  177.8660  139.2510 C   0  0  0  0  0  2  0  0  0  0  0  0
  185.2910  178.6080  139.7360 C   0  0  0  0  0  3  0  0  0  0  0  0
  183.7400  178.7250  143.1050 C   0  0  0  0  0  2  0  0  0  0  0  0
  182.5940  179.1290  144.0250 C   0  0  0  0  0  2  0  0  0  0  0  0
  180.5800  179.6440  142.6490 C   0  0  0  0  0  1  0  0  0  0  0  0
  181.2580  178.6060  143.5190 C   0  0  0  0  0  2  0  0  0  0  0  0
  1 17  1  6  0  0  0
  1  4  1  0  0  0  0
  2  5  1  0  0  0  0
  3  1  1  0  0  0  0
  3 14  1  0  0  0  0
  4  2  1  1  0  0  0
  4  8  1  0  0  0  0
  5 13  1  0  0  0  0
  5  9  2  0  0  0  0
  6 12  1  0  0  0  0
  6  2  2  0  0  0  0
  7  9  1  0  0  0  0
  8 10  2  0  0  0  0
  8 13  1  0  0  0  0
 11 10  1  0  0  0  0
 12  7  2  0  0  0  0
 13 15  1  6  0  0  0
 14 11  1  0  0  0  0
 15 16  1  0  0  0  0
 18 17  1  0  0  0  0
 19 25  1  0  0  0  0
 20 23  1  0  0  0  0
 21 18  1  0  0  0  0
 22 24  2  0  0  0  0
 23 21  2  0  0  0  0
 24 21  1  0  0  0  0
 24 28  1  0  0  0  0
 25 20  2  0  0  0  0
 25 22  1  0  0  0  0
 26 27  1  0  0  0  0
 26 28  1  0  0  0  0
 27 28  1  0  0  0  0
 29 12  1  0  0  0  0
 29 30  1  0  0  0  0
 31 32  1  0  0  0  0
 32 30  1  0  0  0  0
M  END
>  <MODEL>
6

>  <REMARK>
 VINA RESULT:      -8.3      1.487      2.524
  Name = 
  8 active torsions:
  status: ('A' for Active; 'I' for Inactive)
    1  A    between atoms: C_1  and  C_27
    2  A    between atoms: C_9  and  C_31
    3  A    between atoms: C_9  and  C_32
    4  A    between atoms: C_13  and  C_29
    5  A    between atoms: C_16  and  O_24
    6  A    between atoms: C_22  and  C_23
    7  A    between atoms: O_24  and  C_27
    8  A    between atoms: C_28  and  C_32
                            x       y       z     vdW  Elec       q    Type
                         _______ _______ _______ _____ _____    ______ ____

>  <TORSDO>
F 8

$$$$
=
 OpenBabel11052414423D

 32 36  0  0  1  0  0  0  0  0999 V2000
  189.2440  176.8090  141.4750 C   0  0  2  0  0  3  0  0  0  0  0  0
  187.4380  178.2790  140.4470 C   0  0  0  0  0  0  0  0  0  0  0  0
  190.7350  176.7740  141.8090 C   0  0  0  0  0  2  0  0  0  0  0  0
  188.9080  178.0340  140.5970 C   0  0  2  0  0  3  0  0  0  0  0  0
  187.0040  178.1330  139.1420 C   0  0  0  0  0  0  0  0  0  0  0  0
  186.5510  178.6880  141.4480 C   0  0  0  0  0  3  0  0  0  0  0  0
  184.7690  178.7480  139.7910 C   0  0  0  0  0  3  0  0  0  0  0  0
  189.2880  177.7630  139.1560 C   0  0  0  0  0  0  0  0  0  0  0  0
  185.6730  178.3670  138.7900 C   0  0  0  0  0  3  0  0  0  0  0  0
  190.5390  177.5570  138.7200 C   0  0  0  0  0  3  0  0  0  0  0  0
  191.7220  177.5260  139.6360 C   0  0  0  0  0  2  0  0  0  0  0  0
  185.2060  178.9070  141.1180 C   0  0  0  0  0  0  0  0  0  0  0  0
  188.1110  177.7770  138.2210 C   0  0  1  0  0  3  0  0  0  0  0  0
  191.5990  176.3750  140.6220 C   0  0  0  0  0  2  0  0  0  0  0  0
  187.8840  176.4230  137.5360 C   0  0  0  0  0  2  0  0  0  0  0  0
  187.3080  176.5680  135.8080 S   0  0  0  0  0  1  0  0  0  0  0  0
  188.4870  176.8260  142.7950 C   0  0  0  0  0  2  0  0  0  0  0  0
  189.1980  177.6010  143.7500 O   0  0  0  0  0  0  0  0  0  0  0  0
  187.8350  177.6450  149.1390 F   0  0  0  0  0  0  0  0  0  0  0  0
  187.1750  177.8080  146.8580 C   0  0  0  0  0  3  0  0  0  0  0  0
  188.8530  177.6360  145.1050 C   0  0  0  0  0  0  0  0  0  0  0  0
  189.4990  177.4880  147.4420 C   0  0  0  0  0  3  0  0  0  0  0  0
  187.5160  177.8000  145.5040 C   0  0  0  0  0  3  0  0  0  0  0  0
  189.8570  177.5010  146.0850 C   0  0  0  0  0  0  0  0  0  0  0  0
  188.1660  177.6480  147.8260 C   0  0  0  0  0  0  0  0  0  0  0  0
  191.9730  176.3580  146.6940 C   0  0  0  0  0  2  0  0  0  0  0  0
  191.5390  175.8150  145.3530 C   0  0  0  0  0  2  0  0  0  0  0  0
  191.2910  177.2770  145.6930 C   0  0  0  0  0  3  0  0  0  0  0  0
  184.2380  179.2940  142.1870 C   0  0  0  0  0  2  0  0  0  0  0  0
  184.8440  179.1380  143.5780 C   0  0  0  0  0  2  0  0  0  0  0  0
  182.3920  178.9920  144.0080 C   0  0  0  0  0  1  0  0  0  0  0  0
  183.7680  178.9910  144.6440 C   0  0  0  0  0  2  0  0  0  0  0  0
  1  3  1  0  0  0  0
  1 17  1  1  0  0  0
  2  4  1  0  0  0  0
  2  6  1  0  0  0  0
  4  8  1  6  0  0  0
  4  1  1  0  0  0  0
  5  2  2  0  0  0  0
  7 12  1  0  0  0  0
  9  5  1  0  0  0  0
  9  7  2  0  0  0  0
 10  8  2  0  0  0  0
 10 11  1  0  0  0  0
 11 14  1  0  0  0  0
 12  6  2  0  0  0  0
 12 29  1  0  0  0  0
 13 15  1  1  0  0  0
 13  5  1  0  0  0  0
 13  8  1  0  0  0  0
 14  3  1  0  0  0  0
 16 15  1  0  0  0  0
 17 18  1  0  0  0  0
 18 21  1  0  0  0  0
 20 25  1  0  0  0  0
 21 23  1  0  0  0  0
 21 24  2  0  0  0  0
 22 25  2  0  0  0  0
 23 20  2  0  0  0  0
 24 22  1  0  0  0  0
 25 19  1  0  0  0  0
 27 28  1  0  0  0  0
 27 26  1  0  0  0  0
 28 24  1  0  0  0  0
 28 26  1  0  0  0  0
 29 30  1  0  0  0  0
 30 32  1  0  0  0  0
 31 32  1  0  0  0  0
M  END
>  <MODEL>
7

>  <REMARK>
 VINA RESULT:      -8.2      3.656      7.094
  Name = 
  8 active torsions:
  status: ('A' for Active; 'I' for Inactive)
    1  A    between atoms: C_1  and  C_27
    2  A    between atoms: C_9  and  C_31
    3  A    between atoms: C_9  and  C_32
    4  A    between atoms: C_13  and  C_29
    5  A    between atoms: C_16  and  O_24
    6  A    between atoms: C_22  and  C_23
    7  A    between atoms: O_24  and  C_27
    8  A    between atoms: C_28  and  C_32
                            x       y       z     vdW  Elec       q    Type
                         _______ _______ _______ _____ _____    ______ ____

>  <TORSDO>
F 8

$$$$
=
 OpenBabel11052414423D

 32 36  0  0  1  0  0  0  0  0999 V2000
  189.1890  176.8190  142.0430 C   0  0  2  0  0  3  0  0  0  0  0  0
  187.8680  178.1070  140.2890 C   0  0  0  0  0  0  0  0  0  0  0  0
  190.4440  176.8940  142.9130 C   0  0  0  0  0  2  0  0  0  0  0  0
  189.1790  177.9580  140.9990 C   0  0  2  0  0  3  0  0  0  0  0  0
  187.9630  177.8440  138.9350 C   0  0  0  0  0  0  0  0  0  0  0  0
  186.6580  178.5340  140.8450 C   0  0  0  0  0  3  0  0  0  0  0  0
  185.6330  178.3740  138.6430 C   0  0  0  0  0  3  0  0  0  0  0  0
  190.0820  177.6080  139.8350 C   0  0  0  0  0  0  0  0  0  0  0  0
  186.8580  177.9760  138.0910 C   0  0  0  0  0  3  0  0  0  0  0  0
  191.4090  177.4440  139.9190 C   0  0  0  0  0  3  0  0  0  0  0  0
  192.1590  177.5460  141.2100 C   0  0  0  0  0  2  0  0  0  0  0  0
  185.5320  178.6520  140.0180 C   0  0  0  0  0  0  0  0  0  0  0  0
  189.3450  177.4880  138.5300 C   0  0  1  0  0  3  0  0  0  0  0  0
  191.7030  176.4620  142.1740 C   0  0  0  0  0  2  0  0  0  0  0  0
  189.4300  176.0780  137.9300 C   0  0  0  0  0  2  0  0  0  0  0  0
  189.8380  176.0660  136.1500 S   0  0  0  0  0  1  0  0  0  0  0  0
  187.9900  176.8870  142.9760 C   0  0  0  0  0  2  0  0  0  0  0  0
  188.1110  178.0100  143.8380 O   0  0  0  0  0  0  0  0  0  0  0  0
  188.0030  177.6680  149.3860 F   0  0  0  0  0  0  0  0  0  0  0  0
  189.2510  177.6950  147.3590 C   0  0  0  0  0  3  0  0  0  0  0  0
  188.0880  177.9000  145.2330 C   0  0  0  0  0  0  0  0  0  0  0  0
  186.8390  177.8560  147.3160 C   0  0  0  0  0  3  0  0  0  0  0  0
  189.2800  177.7780  145.9650 C   0  0  0  0  0  3  0  0  0  0  0  0
  186.8540  177.9170  145.9140 C   0  0  0  0  0  0  0  0  0  0  0  0
  188.0310  177.7380  148.0340 C   0  0  0  0  0  0  0  0  0  0  0  0
  184.4760  178.6000  146.1000 C   0  0  0  0  0  2  0  0  0  0  0  0
  185.1440  179.5570  145.1410 C   0  0  0  0  0  2  0  0  0  0  0  0
  185.5630  178.0950  145.1640 C   0  0  0  0  0  3  0  0  0  0  0  0
  184.2220  179.0570  140.6080 C   0  0  0  0  0  2  0  0  0  0  0  0
  183.9810  178.3860  141.9560 C   0  0  0  0  0  2  0  0  0  0  0  0
  181.5900  178.8140  141.3930 C   0  0  0  0  0  1  0  0  0  0  0  0
  182.6070  178.7270  142.5130 C   0  0  0  0  0  2  0  0  0  0  0  0
  1  3  1  0  0  0  0
  1 17  1  1  0  0  0
  2  6  1  0  0  0  0
  2  4  1  0  0  0  0
  4  8  1  6  0  0  0
  4  1  1  0  0  0  0
  5  2  2  0  0  0  0
  7 12  1  0  0  0  0
  8 10  2  0  0  0  0
  9  7  2  0  0  0  0
  9  5  1  0  0  0  0
 10 11  1  0  0  0  0
 11 14  1  0  0  0  0
 12 29  1  0  0  0  0
 12  6  2  0  0  0  0
 13 15  1  1  0  0  0
 13  5  1  0  0  0  0
 13  8  1  0  0  0  0
 14  3  1  0  0  0  0
 16 15  1  0  0  0  0
 17 18  1  0  0  0  0
 18 21  1  0  0  0  0
 20 25  1  0  0  0  0
 21 24  2  0  0  0  0
 21 23  1  0  0  0  0
 22 25  2  0  0  0  0
 23 20  2  0  0  0  0
 24 22  1  0  0  0  0
 25 19  1  0  0  0  0
 27 28  1  0  0  0  0
 27 26  1  0  0  0  0
 28 24  1  0  0  0  0
 28 26  1  0  0  0  0
 29 30  1  0  0  0  0
 30 32  1  0  0  0  0
 31 32  1  0  0  0  0
M  END
>  <MODEL>
8

>  <REMARK>
 VINA RESULT:      -8.2      3.550      6.952
  Name = 
  8 active torsions:
  status: ('A' for Active; 'I' for Inactive)
    1  A    between atoms: C_1  and  C_27
    2  A    between atoms: C_9  and  C_31
    3  A    between atoms: C_9  and  C_32
    4  A    between atoms: C_13  and  C_29
    5  A    between atoms: C_16  and  O_24
    6  A    between atoms: C_22  and  C_23
    7  A    between atoms: O_24  and  C_27
    8  A    between atoms: C_28  and  C_32
                            x       y       z     vdW  Elec       q    Type
                         _______ _______ _______ _____ _____    ______ ____

>  <TORSDO>
F 8

$$$$
=
 OpenBabel11052414423D

 32 36  0  0  1  0  0  0  0  0999 V2000
  188.1160  178.3880  140.6210 C   0  0  2  0  0  3  0  0  0  0  0  0
  189.2860  177.0740  142.4620 C   0  0  0  0  0  0  0  0  0  0  0  0
  187.3270  178.2170  139.3230 C   0  0  0  0  0  2  0  0  0  0  0  0
  188.7230  177.0410  141.0730 C   0  0  2  0  0  3  0  0  0  0  0  0
  190.6540  176.8720  142.4870 C   0  0  0  0  0  0  0  0  0  0  0  0
  188.5660  177.2080  143.6530 C   0  0  0  0  0  3  0  0  0  0  0  0
  190.6500  176.9840  144.8920 C   0  0  0  0  0  3  0  0  0  0  0  0
  189.9770  176.7410  140.2770 C   0  0  0  0  0  0  0  0  0  0  0  0
  191.3570  176.8190  143.6920 C   0  0  0  0  0  3  0  0  0  0  0  0
  190.0110  176.5270  138.9550 C   0  0  0  0  0  3  0  0  0  0  0  0
  188.7940  176.6080  138.0890 C   0  0  0  0  0  2  0  0  0  0  0  0
  189.2570  177.1790  144.8730 C   0  0  0  0  0  0  0  0  0  0  0  0
  191.2140  176.6680  141.1290 C   0  0  1  0  0  3  0  0  0  0  0  0
  188.2220  178.0170  138.1080 C   0  0  0  0  0  2  0  0  0  0  0  0
  192.2490  177.7400  140.7600 C   0  0  0  0  0  2  0  0  0  0  0  0
  193.6090  177.1110  139.7150 S   0  0  0  0  0  1  0  0  0  0  0  0
  187.1610  178.9600  141.6570 C   0  0  0  0  0  2  0  0  0  0  0  0
  185.8720  179.1310  141.0840 O   0  0  0  0  0  0  0  0  0  0  0  0
  181.1570  178.8540  144.0170 F   0  0  0  0  0  0  0  0  0  0  0  0
  183.5030  179.2540  143.9420 C   0  0  0  0  0  3  0  0  0  0  0  0
  184.6920  179.0400  141.8310 C   0  0  0  0  0  0  0  0  0  0  0  0
  182.3020  178.6250  141.9410 C   0  0  0  0  0  3  0  0  0  0  0  0
  184.6890  179.3220  143.2080 C   0  0  0  0  0  3  0  0  0  0  0  0
  183.4910  178.6670  141.1970 C   0  0  0  0  0  0  0  0  0  0  0  0
  182.3100  178.9100  143.3080 C   0  0  0  0  0  0  0  0  0  0  0  0
  182.0650  178.7050  139.1660 C   0  0  0  0  0  2  0  0  0  0  0  0
  183.1890  179.6890  138.9440 C   0  0  0  0  0  2  0  0  0  0  0  0
  183.4510  178.4050  139.7160 C   0  0  0  0  0  3  0  0  0  0  0  0
  188.5080  177.3750  146.1490 C   0  0  0  0  0  2  0  0  0  0  0  0
  187.0010  177.3770  145.9220 C   0  0  0  0  0  2  0  0  0  0  0  0
  184.9650  178.3430  146.9900 C   0  0  0  0  0  1  0  0  0  0  0  0
  186.3550  178.6430  146.4660 C   0  0  0  0  0  2  0  0  0  0  0  0
  1  4  1  0  0  0  0
  1 17  1  1  0  0  0
  2  5  2  0  0  0  0
  2  6  1  0  0  0  0
  3  1  1  0  0  0  0
  4  8  1  6  0  0  0
  4  2  1  0  0  0  0
  5  9  1  0  0  0  0
  6 12  2  0  0  0  0
  8 13  1  0  0  0  0
  9  7  2  0  0  0  0
 10  8  2  0  0  0  0
 11 14  1  0  0  0  0
 11 10  1  0  0  0  0
 12  7  1  0  0  0  0
 12 29  1  0  0  0  0
 13 15  1  6  0  0  0
 13  5  1  0  0  0  0
 14  3  1  0  0  0  0
 16 15  1  0  0  0  0
 18 17  1  0  0  0  0
 18 21  1  0  0  0  0
 21 23  1  0  0  0  0
 22 25  2  0  0  0  0
 23 20  2  0  0  0  0
 24 21  2  0  0  0  0
 24 22  1  0  0  0  0
 25 20  1  0  0  0  0
 25 19  1  0  0  0  0
 26 28  1  0  0  0  0
 27 26  1  0  0  0  0
 27 28  1  0  0  0  0
 28 24  1  0  0  0  0
 30 29  1  0  0  0  0
 30 32  1  0  0  0  0
 32 31  1  0  0  0  0
M  END
>  <MODEL>
9

>  <REMARK>
 VINA RESULT:      -8.1      2.466      4.921
  Name = 
  8 active torsions:
  status: ('A' for Active; 'I' for Inactive)
    1  A    between atoms: C_1  and  C_27
    2  A    between atoms: C_9  and  C_31
    3  A    between atoms: C_9  and  C_32
    4  A    between atoms: C_13  and  C_29
    5  A    between atoms: C_16  and  O_24
    6  A    between atoms: C_22  and  C_23
    7  A    between atoms: O_24  and  C_27
    8  A    between atoms: C_28  and  C_32
                            x       y       z     vdW  Elec       q    Type
                         _______ _______ _______ _____ _____    ______ ____

>  <TORSDO>
F 8

$$$$
