=
 OpenBabel11052415523D

 34 39  0  0  1  0  0  0  0  0999 V2000
  188.7360  177.9840  141.3480 C   0  0  0  0  0  0  0  0  0  0  0  0
  190.2340  176.1290  139.0410 C   0  0  0  0  0  2  0  0  0  0  0  0
  191.4470  177.3970  140.7520 N   0  0  0  0  0  2  0  0  0  0  0  0
  187.7640  177.5390  143.8860 N   0  0  0  0  0  0  0  0  0  0  0  0
  187.4390  178.2540  141.6650 N   0  0  0  0  0  0  0  0  0  0  0  0
  189.0710  177.2750  143.6340 C   0  0  0  0  0  0  0  0  0  0  0  0
  191.2610  176.5670  144.3870 C   0  0  0  0  0  3  0  0  0  0  0  0
  189.9100  176.8150  144.6520 C   0  0  0  0  0  3  0  0  0  0  0  0
  186.9430  178.0210  142.9120 C   0  0  0  0  0  0  0  0  0  0  0  0
  190.9380  177.2190  142.0750 C   0  0  0  0  0  0  0  0  0  0  0  0
  189.5880  177.4870  142.3430 C   0  0  0  0  0  0  0  0  0  0  0  0
  191.7760  176.7700  143.1010 C   0  0  0  0  0  3  0  0  0  0  0  0
  189.4860  176.1390  137.6990 C   0  0  0  0  0  2  0  0  0  0  0  0
  189.6200  177.4640  136.9430 C   0  0  2  0  0  3  0  0  0  0  0  0
  188.6950  178.5680  137.4880 C   0  0  0  0  0  2  0  0  0  0  0  0
  190.5430  177.5220  139.6120 C   0  0  2  0  0  3  0  0  0  0  0  0
  188.1820  178.3250  138.9120 C   0  0  0  0  0  2  0  0  0  0  0  0
  189.2830  178.3480  139.9830 C   0  0  1  0  0  3  0  0  0  0  0  0
  183.7820  178.8890  144.8420 C   0  0  0  0  0  3  0  0  0  0  0  0
  184.5660  178.2820  142.1780 C   0  0  0  0  0  3  0  0  0  0  0  0
  181.0820  178.9420  142.6390 C   0  0  0  0  0  0  0  0  0  0  0  0
  181.5730  179.0790  143.8590 O   0  0  0  0  0  0  0  0  0  0  0  0
  182.8640  178.8540  143.7970 C   0  0  0  0  0  0  0  0  0  0  0  0
  182.1030  178.6120  141.7470 C   0  0  0  0  0  0  0  0  0  0  0  0
  183.2430  178.5610  142.5140 C   0  0  0  0  0  0  0  0  0  0  0  0
  182.0020  178.3670  140.2800 C   0  0  0  0  0  1  0  0  0  0  0  0
  185.5270  178.3080  143.2110 C   0  0  0  0  0  0  0  0  0  0  0  0
  185.1260  178.6120  144.5360 C   0  0  0  0  0  3  0  0  0  0  0  0
  179.6580  179.1210  142.3250 C   0  0  0  0  0  0  0  0  0  0  0  0
  178.9310  178.1330  142.0420 O   0  0  0  0  0  0  0  0  0  0  0  0
  179.1050  180.3950  142.3410 O   0  0  0  0  0  1  0  0  0  0  0  0
  189.3450  177.2510  135.5330 N   0  0  0  0  0  2  0  0  0  0  0  0
  188.4340  176.1230  135.4410 C   0  0  0  0  0  2  0  0  0  0  0  0
  187.1350  176.5750  134.8070 C   0  0  0  0  0  1  0  0  0  0  0  0
  1  5  2  0  0  0  0
  1 11  1  0  0  0  0
  3 10  1  0  0  0  0
  5  9  1  0  0  0  0
  6  4  1  0  0  0  0
  6  8  1  0  0  0  0
  7  8  2  0  0  0  0
  9 27  1  0  0  0  0
  9  4  2  0  0  0  0
 10 11  1  0  0  0  0
 10 12  2  0  0  0  0
 11  6  2  0  0  0  0
 12  7  1  0  0  0  0
 13  2  1  0  0  0  0
 14 32  1  6  0  0  0
 14 15  1  0  0  0  0
 14 13  1  0  0  0  0
 15 17  1  0  0  0  0
 16  2  1  1  0  0  0
 16 18  1  0  0  0  0
 16  3  1  0  0  0  0
 18 17  1  6  0  0  0
 18  1  1  0  0  0  0
 20 25  2  0  0  0  0
 20 27  1  0  0  0  0
 21 22  1  0  0  0  0
 23 22  1  0  0  0  0
 23 19  2  0  0  0  0
 24 25  1  0  0  0  0
 24 21  2  0  0  0  0
 25 23  1  0  0  0  0
 26 24  1  0  0  0  0
 27 28  2  0  0  0  0
 28 19  1  0  0  0  0
 29 31  1  0  0  0  0
 29 21  1  0  0  0  0
 30 29  2  0  0  0  0
 33 32  1  0  0  0  0
 34 33  1  0  0  0  0
M  END
>  <MODEL>
1

>  <REMARK>
 VINA RESULT:      -9.9      0.000      0.000
  Name = 
  4 active torsions:
  status: ('A' for Active; 'I' for Inactive)
    1  A    between atoms: N_3  and  C_13
    2  A    between atoms: N_3  and  C_25
    3  A    between atoms: C_7  and  C_11
    4  A    between atoms: C_18  and  C_30
                            x       y       z     vdW  Elec       q    Type
                         _______ _______ _______ _____ _____    ______ ____

>  <TORSDO>
F 4

$$$$
=
 OpenBabel11052415523D

 34 39  0  0  1  0  0  0  0  0999 V2000
  187.6180  177.4000  144.0530 C   0  0  0  0  0  0  0  0  0  0  0  0
  185.5120  179.5910  145.3840 C   0  0  0  0  0  2  0  0  0  0  0  0
  186.3450  177.6200  146.5780 N   0  0  0  0  0  2  0  0  0  0  0  0
  190.3580  177.1560  143.9160 N   0  0  0  0  0  0  0  0  0  0  0  0
  188.2590  177.2950  142.8560 N   0  0  0  0  0  0  0  0  0  0  0  0
  189.7710  177.2320  145.1380 C   0  0  0  0  0  0  0  0  0  0  0  0
  189.9250  177.2160  147.5550 C   0  0  0  0  0  3  0  0  0  0  0  0
  190.5430  177.1590  146.3000 C   0  0  0  0  0  3  0  0  0  0  0  0
  189.6150  177.1910  142.7760 C   0  0  0  0  0  0  0  0  0  0  0  0
  187.7590  177.4430  146.4900 C   0  0  0  0  0  0  0  0  0  0  0  0
  188.3740  177.3650  145.2320 C   0  0  0  0  0  0  0  0  0  0  0  0
  188.5350  177.3560  147.6510 C   0  0  0  0  0  3  0  0  0  0  0  0
  184.5330  180.1710  144.3500 C   0  0  0  0  0  2  0  0  0  0  0  0
  183.4600  179.1720  143.9100 C   0  0  2  0  0  3  0  0  0  0  0  0
  183.9710  178.1480  142.8790 C   0  0  0  0  0  2  0  0  0  0  0  0
  185.5700  178.0560  145.4200 C   0  0  2  0  0  3  0  0  0  0  0  0
  185.4950  178.0000  142.8310 C   0  0  0  0  0  2  0  0  0  0  0  0
  186.1040  177.4110  144.1130 C   0  0  1  0  0  3  0  0  0  0  0  0
  192.2990  177.3220  140.0830 C   0  0  0  0  0  3  0  0  0  0  0  0
  189.5350  176.7050  140.3230 C   0  0  0  0  0  3  0  0  0  0  0  0
  190.8940  176.4020  137.0300 C   0  0  0  0  0  0  0  0  0  0  0  0
  191.9360  176.7890  137.7450 O   0  0  0  0  0  0  0  0  0  0  0  0
  191.5370  176.9300  138.9870 C   0  0  0  0  0  0  0  0  0  0  0  0
  189.7690  176.2880  137.8460 C   0  0  0  0  0  0  0  0  0  0  0  0
  190.2060  176.6330  139.1040 C   0  0  0  0  0  0  0  0  0  0  0  0
  188.3860  175.8830  137.4610 C   0  0  0  0  0  1  0  0  0  0  0  0
  190.2740  177.0990  141.4590 C   0  0  0  0  0  0  0  0  0  0  0  0
  191.6520  177.4040  141.3290 C   0  0  0  0  0  3  0  0  0  0  0  0
  190.9670  176.1440  135.5850 C   0  0  0  0  0  0  0  0  0  0  0  0
  191.6550  175.1900  135.1350 O   0  0  0  0  0  1  0  0  0  0  0  0
  190.2680  176.9590  134.7040 O   0  0  0  0  0  0  0  0  0  0  0  0
  182.3220  179.8890  143.3610 N   0  0  0  0  0  2  0  0  0  0  0  0
  181.3930  178.8940  142.8560 C   0  0  0  0  0  2  0  0  0  0  0  0
  180.3940  178.5420  143.9380 C   0  0  0  0  0  1  0  0  0  0  0  0
  1 18  1  0  0  0  0
  1 11  1  0  0  0  0
  4  6  1  0  0  0  0
  5  1  2  0  0  0  0
  6 11  2  0  0  0  0
  6  8  1  0  0  0  0
  7 12  1  0  0  0  0
  8  7  2  0  0  0  0
  9  5  1  0  0  0  0
  9  4  2  0  0  0  0
 10  3  1  0  0  0  0
 10 12  2  0  0  0  0
 11 10  1  0  0  0  0
 13  2  1  0  0  0  0
 14 32  1  6  0  0  0
 14 13  1  0  0  0  0
 15 14  1  0  0  0  0
 16  2  1  6  0  0  0
 16  3  1  0  0  0  0
 17 15  1  0  0  0  0
 18 17  1  6  0  0  0
 18 16  1  0  0  0  0
 19 28  1  0  0  0  0
 20 27  1  0  0  0  0
 21 22  1  0  0  0  0
 21 24  2  0  0  0  0
 22 23  1  0  0  0  0
 23 25  1  0  0  0  0
 23 19  2  0  0  0  0
 24 25  1  0  0  0  0
 25 20  2  0  0  0  0
 26 24  1  0  0  0  0
 27  9  1  0  0  0  0
 28 27  2  0  0  0  0
 29 21  1  0  0  0  0
 30 29  1  0  0  0  0
 31 29  2  0  0  0  0
 33 32  1  0  0  0  0
 33 34  1  0  0  0  0
M  END
>  <MODEL>
2

>  <REMARK>
 VINA RESULT:      -9.4      4.418      8.292
  Name = 
  4 active torsions:
  status: ('A' for Active; 'I' for Inactive)
    1  A    between atoms: N_3  and  C_13
    2  A    between atoms: N_3  and  C_25
    3  A    between atoms: C_7  and  C_11
    4  A    between atoms: C_18  and  C_30
                            x       y       z     vdW  Elec       q    Type
                         _______ _______ _______ _____ _____    ______ ____

>  <TORSDO>
F 4

$$$$
=
 OpenBabel11052415523D

 34 39  0  0  1  0  0  0  0  0999 V2000
  188.3050  177.5850  138.7860 C   0  0  0  0  0  0  0  0  0  0  0  0
  185.8610  176.3300  136.9260 C   0  0  0  0  0  2  0  0  0  0  0  0
  187.8380  177.4360  135.9910 N   0  0  0  0  0  2  0  0  0  0  0  0
  190.6600  176.6130  139.8350 N   0  0  0  0  0  0  0  0  0  0  0  0
  188.5580  177.6400  140.1230 N   0  0  0  0  0  0  0  0  0  0  0  0
  190.4720  176.5550  138.4920 C   0  0  0  0  0  0  0  0  0  0  0  0
  191.2730  176.0030  136.2740 C   0  0  0  0  0  3  0  0  0  0  0  0
  191.4680  176.0380  137.6600 C   0  0  0  0  0  3  0  0  0  0  0  0
  189.7120  177.1460  140.6550 C   0  0  0  0  0  0  0  0  0  0  0  0
  189.0730  176.9820  136.5470 C   0  0  0  0  0  0  0  0  0  0  0  0
  189.2740  177.0370  137.9340 C   0  0  0  0  0  0  0  0  0  0  0  0
  190.0790  176.4760  135.7180 C   0  0  0  0  0  3  0  0  0  0  0  0
  184.4830  176.4710  137.5910 C   0  0  0  0  0  2  0  0  0  0  0  0
  183.9560  177.9080  137.5900 C   0  0  2  0  0  3  0  0  0  0  0  0
  184.5930  178.7880  138.6820 C   0  0  0  0  0  2  0  0  0  0  0  0
  186.6640  177.6370  136.8370 C   0  0  2  0  0  3  0  0  0  0  0  0
  185.9160  178.2530  139.2390 C   0  0  0  0  0  2  0  0  0  0  0  0
  187.0610  178.2330  138.2140 C   0  0  1  0  0  3  0  0  0  0  0  0
  191.4980  177.1980  144.0130 C   0  0  0  0  0  3  0  0  0  0  0  0
  188.8480  177.3310  142.9950 C   0  0  0  0  0  3  0  0  0  0  0  0
  189.1340  177.5000  146.5550 C   0  0  0  0  0  0  0  0  0  0  0  0
  190.3910  177.3900  146.1620 O   0  0  0  0  0  0  0  0  0  0  0  0
  190.3950  177.3200  144.8520 C   0  0  0  0  0  0  0  0  0  0  0  0
  188.2850  177.5010  145.4480 C   0  0  0  0  0  0  0  0  0  0  0  0
  189.1190  177.3840  144.3610 C   0  0  0  0  0  0  0  0  0  0  0  0
  186.7980  177.6060  145.4260 C   0  0  0  0  0  1  0  0  0  0  0  0
  189.9400  177.2070  142.1110 C   0  0  0  0  0  0  0  0  0  0  0  0
  191.2580  177.1420  142.6280 C   0  0  0  0  0  3  0  0  0  0  0  0
  188.7430  177.6040  147.9680 C   0  0  0  0  0  0  0  0  0  0  0  0
  187.9310  176.7840  148.4730 O   0  0  0  0  0  0  0  0  0  0  0  0
  189.2750  178.6140  148.7570 O   0  0  0  0  0  1  0  0  0  0  0  0
  182.5130  177.8990  137.7530 N   0  0  0  0  0  2  0  0  0  0  0  0
  182.1740  176.6970  138.4960 C   0  0  0  0  0  2  0  0  0  0  0  0
  181.5000  177.0820  139.7960 C   0  0  0  0  0  1  0  0  0  0  0  0
  1  5  2  0  0  0  0
  2 13  1  0  0  0  0
  3 10  1  0  0  0  0
  3 16  1  0  0  0  0
  4  9  2  0  0  0  0
  5  9  1  0  0  0  0
  6  4  1  0  0  0  0
  7  8  1  0  0  0  0
  8  6  2  0  0  0  0
  9 27  1  0  0  0  0
 10 11  2  0  0  0  0
 11  6  1  0  0  0  0
 11  1  1  0  0  0  0
 12  7  2  0  0  0  0
 12 10  1  0  0  0  0
 14 13  1  0  0  0  0
 14 32  1  1  0  0  0
 14 15  1  0  0  0  0
 15 17  1  0  0  0  0
 16  2  1  1  0  0  0
 16 18  1  0  0  0  0
 18  1  1  0  0  0  0
 18 17  1  1  0  0  0
 19 23  1  0  0  0  0
 20 25  1  0  0  0  0
 21 29  1  0  0  0  0
 22 21  1  0  0  0  0
 23 22  1  0  0  0  0
 24 21  2  0  0  0  0
 25 23  2  0  0  0  0
 25 24  1  0  0  0  0
 26 24  1  0  0  0  0
 27 28  1  0  0  0  0
 27 20  2  0  0  0  0
 28 19  2  0  0  0  0
 29 30  2  0  0  0  0
 29 31  1  0  0  0  0
 32 33  1  0  0  0  0
 33 34  1  0  0  0  0
M  END
>  <MODEL>
3

>  <REMARK>
 VINA RESULT:      -9.0      3.715      6.742
  Name = 
  4 active torsions:
  status: ('A' for Active; 'I' for Inactive)
    1  A    between atoms: N_3  and  C_13
    2  A    between atoms: N_3  and  C_25
    3  A    between atoms: C_7  and  C_11
    4  A    between atoms: C_18  and  C_30
                            x       y       z     vdW  Elec       q    Type
                         _______ _______ _______ _____ _____    ______ ____

>  <TORSDO>
F 4

$$$$
=
 OpenBabel11052415523D

 34 39  0  0  1  0  0  0  0  0999 V2000
  190.4060  176.0020  138.0480 C   0  0  0  0  0  0  0  0  0  0  0  0
  192.3900  176.3740  135.4150 C   0  0  0  0  0  2  0  0  0  0  0  0
  190.0110  175.8100  135.2450 N   0  0  0  0  0  2  0  0  0  0  0  0
  188.8100  177.6750  139.5450 N   0  0  0  0  0  0  0  0  0  0  0  0
  190.5720  176.1180  139.3950 N   0  0  0  0  0  0  0  0  0  0  0  0
  188.5830  177.5800  138.2100 C   0  0  0  0  0  0  0  0  0  0  0  0
  187.3010  178.1740  136.2430 C   0  0  0  0  0  3  0  0  0  0  0  0
  187.5400  178.2960  137.6160 C   0  0  0  0  0  3  0  0  0  0  0  0
  189.8000  176.9560  140.1420 C   0  0  0  0  0  0  0  0  0  0  0  0
  189.1620  176.6340  136.0440 C   0  0  0  0  0  0  0  0  0  0  0  0
  189.3900  176.7390  137.4230 C   0  0  0  0  0  0  0  0  0  0  0  0
  188.1090  177.3430  135.4570 C   0  0  0  0  0  3  0  0  0  0  0  0
  193.8260  175.8970  135.6860 C   0  0  0  0  0  2  0  0  0  0  0  0
  193.9510  174.3730  135.7610 C   0  0  2  0  0  3  0  0  0  0  0  0
  193.4840  173.7920  137.1080 C   0  0  0  0  0  2  0  0  0  0  0  0
  191.3000  175.3460  135.7530 C   0  0  2  0  0  3  0  0  0  0  0  0
  192.5730  174.7190  137.9200 C   0  0  0  0  0  2  0  0  0  0  0  0
  191.2120  174.9890  137.2610 C   0  0  1  0  0  3  0  0  0  0  0  0
  191.5780  177.2300  143.4940 C   0  0  0  0  0  3  0  0  0  0  0  0
  188.9250  177.1230  142.4800 C   0  0  0  0  0  3  0  0  0  0  0  0
  189.1990  177.3970  146.0350 C   0  0  0  0  0  0  0  0  0  0  0  0
  190.4610  177.3810  145.6410 O   0  0  0  0  0  0  0  0  0  0  0  0
  190.4690  177.2810  144.3330 C   0  0  0  0  0  0  0  0  0  0  0  0
  188.3520  177.3030  144.9300 C   0  0  0  0  0  0  0  0  0  0  0  0
  189.1920  177.2300  143.8430 C   0  0  0  0  0  0  0  0  0  0  0  0
  186.8610  177.2860  144.9090 C   0  0  0  0  0  1  0  0  0  0  0  0
  190.0230  177.0680  141.5960 C   0  0  0  0  0  0  0  0  0  0  0  0
  191.3430  177.1230  142.1110 C   0  0  0  0  0  3  0  0  0  0  0  0
  188.8020  177.5010  147.4460 C   0  0  0  0  0  0  0  0  0  0  0  0
  188.2020  176.5530  148.0170 O   0  0  0  0  0  0  0  0  0  0  0  0
  189.0930  178.6550  148.1590 O   0  0  0  0  0  1  0  0  0  0  0  0
  195.3290  173.9850  135.5150 N   0  0  0  0  0  2  0  0  0  0  0  0
  196.1620  175.1240  135.8580 C   0  0  0  0  0  2  0  0  0  0  0  0
  197.2360  174.6890  136.8330 C   0  0  0  0  0  1  0  0  0  0  0  0
  1  5  2  0  0  0  0
  2 13  1  0  0  0  0
  3 16  1  0  0  0  0
  3 10  1  0  0  0  0
  4  9  2  0  0  0  0
  5  9  1  0  0  0  0
  6  4  1  0  0  0  0
  7  8  2  0  0  0  0
  8  6  1  0  0  0  0
  9 27  1  0  0  0  0
 10 11  1  0  0  0  0
 11  1  1  0  0  0  0
 11  6  2  0  0  0  0
 12 10  2  0  0  0  0
 12  7  1  0  0  0  0
 13 14  1  0  0  0  0
 14 32  1  1  0  0  0
 14 15  1  0  0  0  0
 15 17  1  0  0  0  0
 16  2  1  1  0  0  0
 16 18  1  0  0  0  0
 18 17  1  1  0  0  0
 18  1  1  0  0  0  0
 19 23  1  0  0  0  0
 20 25  1  0  0  0  0
 21 29  1  0  0  0  0
 22 21  1  0  0  0  0
 23 22  1  0  0  0  0
 24 21  2  0  0  0  0
 25 23  2  0  0  0  0
 25 24  1  0  0  0  0
 26 24  1  0  0  0  0
 27 28  1  0  0  0  0
 27 20  2  0  0  0  0
 28 19  2  0  0  0  0
 29 30  2  0  0  0  0
 29 31  1  0  0  0  0
 32 33  1  0  0  0  0
 33 34  1  0  0  0  0
M  END
>  <MODEL>
4

>  <REMARK>
 VINA RESULT:      -8.7      4.298      7.109
  Name = 
  4 active torsions:
  status: ('A' for Active; 'I' for Inactive)
    1  A    between atoms: N_3  and  C_13
    2  A    between atoms: N_3  and  C_25
    3  A    between atoms: C_7  and  C_11
    4  A    between atoms: C_18  and  C_30
                            x       y       z     vdW  Elec       q    Type
                         _______ _______ _______ _____ _____    ______ ____

>  <TORSDO>
F 4

$$$$
=
 OpenBabel11052415523D

 34 39  0  0  1  0  0  0  0  0999 V2000
  188.3930  177.4070  141.7220 C   0  0  0  0  0  0  0  0  0  0  0  0
  190.9600  178.3040  143.6220 C   0  0  0  0  0  2  0  0  0  0  0  0
  191.1390  176.7000  141.7780 N   0  0  0  0  0  2  0  0  0  0  0  0
  187.2650  178.3410  139.3890 N   0  0  0  0  0  0  0  0  0  0  0  0
  187.0770  177.7560  141.6640 N   0  0  0  0  0  0  0  0  0  0  0  0
  188.5750  177.9840  139.3820 C   0  0  0  0  0  0  0  0  0  0  0  0
  190.6680  177.6720  138.2050 C   0  0  0  0  0  3  0  0  0  0  0  0
  189.3240  178.0630  138.2060 C   0  0  0  0  0  3  0  0  0  0  0  0
  186.5130  178.2360  140.5200 C   0  0  0  0  0  0  0  0  0  0  0  0
  190.5260  177.1390  140.5650 C   0  0  0  0  0  0  0  0  0  0  0  0
  189.1750  177.5120  140.5640 C   0  0  0  0  0  0  0  0  0  0  0  0
  191.2690  177.2090  139.3820 C   0  0  0  0  0  3  0  0  0  0  0  0
  190.5500  178.5740  145.0780 C   0  0  0  0  0  2  0  0  0  0  0  0
  190.2190  177.2990  145.8580 C   0  0  2  0  0  3  0  0  0  0  0  0
  188.8160  176.7450  145.5460 C   0  0  0  0  0  2  0  0  0  0  0  0
  190.5050  176.9440  143.0710 C   0  0  2  0  0  3  0  0  0  0  0  0
  188.2100  177.2490  144.2320 C   0  0  0  0  0  2  0  0  0  0  0  0
  188.9640  176.7810  142.9790 C   0  0  1  0  0  3  0  0  0  0  0  0
  183.1260  179.4150  139.2540 C   0  0  0  0  0  3  0  0  0  0  0  0
  184.3270  178.5720  141.6880 C   0  0  0  0  0  3  0  0  0  0  0  0
  180.8680  179.4520  141.9090 C   0  0  0  0  0  0  0  0  0  0  0  0
  181.1440  179.6520  140.6310 O   0  0  0  0  0  0  0  0  0  0  0  0
  182.4080  179.3530  140.4440 C   0  0  0  0  0  0  0  0  0  0  0  0
  182.0070  179.0040  142.5790 C   0  0  0  0  0  0  0  0  0  0  0  0
  182.9870  178.9470  141.6160 C   0  0  0  0  0  0  0  0  0  0  0  0
  182.1520  178.6560  144.0220 C   0  0  0  0  0  1  0  0  0  0  0  0
  185.0900  178.6220  140.5020 C   0  0  0  0  0  0  0  0  0  0  0  0
  184.4810  179.0430  139.2930 C   0  0  0  0  0  3  0  0  0  0  0  0
  179.5380  179.6850  142.4870 C   0  0  0  0  0  0  0  0  0  0  0  0
  178.9320  180.7710  142.2930 O   0  0  0  0  0  0  0  0  0  0  0  0
  178.9390  178.6950  143.2550 O   0  0  0  0  0  1  0  0  0  0  0  0
  190.3350  177.5550  147.2830 N   0  0  0  0  0  2  0  0  0  0  0  0
  189.0950  177.1170  147.8990 C   0  0  0  0  0  2  0  0  0  0  0  0
  188.5810  178.2010  148.8230 C   0  0  0  0  0  1  0  0  0  0  0  0
  1 18  1  0  0  0  0
  2 13  1  0  0  0  0
  3 16  1  0  0  0  0
  4  9  2  0  0  0  0
  5  1  2  0  0  0  0
  6  4  1  0  0  0  0
  6 11  1  0  0  0  0
  7  8  1  0  0  0  0
  7 12  2  0  0  0  0
  8  6  2  0  0  0  0
  9  5  1  0  0  0  0
 10  3  1  0  0  0  0
 11 10  2  0  0  0  0
 11  1  1  0  0  0  0
 12 10  1  0  0  0  0
 13 14  1  0  0  0  0
 14 32  1  1  0  0  0
 15 14  1  0  0  0  0
 16  2  1  6  0  0  0
 17 15  1  0  0  0  0
 18 16  1  0  0  0  0
 18 17  1  1  0  0  0
 19 28  2  0  0  0  0
 19 23  1  0  0  0  0
 21 29  1  0  0  0  0
 21 24  2  0  0  0  0
 22 21  1  0  0  0  0
 23 22  1  0  0  0  0
 23 25  2  0  0  0  0
 24 26  1  0  0  0  0
 25 20  1  0  0  0  0
 25 24  1  0  0  0  0
 27  9  1  0  0  0  0
 27 20  2  0  0  0  0
 28 27  1  0  0  0  0
 29 31  1  0  0  0  0
 30 29  2  0  0  0  0
 32 33  1  0  0  0  0
 33 34  1  0  0  0  0
M  END
>  <MODEL>
5

>  <REMARK>
 VINA RESULT:      -8.6      1.835      5.574
  Name = 
  4 active torsions:
  status: ('A' for Active; 'I' for Inactive)
    1  A    between atoms: N_3  and  C_13
    2  A    between atoms: N_3  and  C_25
    3  A    between atoms: C_7  and  C_11
    4  A    between atoms: C_18  and  C_30
                            x       y       z     vdW  Elec       q    Type
                         _______ _______ _______ _____ _____    ______ ____

>  <TORSDO>
F 4

$$$$
=
 OpenBabel11052415523D

 34 39  0  0  1  0  0  0  0  0999 V2000
  188.8470  177.1980  138.3800 C   0  0  0  0  0  0  0  0  0  0  0  0
  187.6550  175.3250  135.9150 C   0  0  0  0  0  2  0  0  0  0  0  0
  189.5890  176.8090  135.6700 N   0  0  0  0  0  2  0  0  0  0  0  0
  190.7130  176.8480  140.3760 N   0  0  0  0  0  0  0  0  0  0  0  0
  188.5210  177.3760  139.6910 N   0  0  0  0  0  0  0  0  0  0  0  0
  191.1000  176.6820  139.0860 C   0  0  0  0  0  0  0  0  0  0  0  0
  192.8200  176.2210  137.4450 C   0  0  0  0  0  3  0  0  0  0  0  0
  192.4270  176.3680  138.7790 C   0  0  0  0  0  3  0  0  0  0  0  0
  189.4310  177.1880  140.6870 C   0  0  0  0  0  0  0  0  0  0  0  0
  190.5550  176.6800  136.7140 C   0  0  0  0  0  0  0  0  0  0  0  0
  190.1630  176.8480  138.0500 C   0  0  0  0  0  0  0  0  0  0  0  0
  191.8870  176.3790  136.4120 C   0  0  0  0  0  3  0  0  0  0  0  0
  186.1260  175.1760  135.9740 C   0  0  0  0  0  2  0  0  0  0  0  0
  185.3800  176.4520  135.5740 C   0  0  2  0  0  3  0  0  0  0  0  0
  185.3390  177.5070  136.6950 C   0  0  0  0  0  2  0  0  0  0  0  0
  188.1590  176.7750  135.9630 C   0  0  2  0  0  3  0  0  0  0  0  0
  186.4000  177.3200  137.7850 C   0  0  0  0  0  2  0  0  0  0  0  0
  187.8410  177.5130  137.2910 C   0  0  1  0  0  3  0  0  0  0  0  0
  189.6120  177.3070  144.4850 C   0  0  0  0  0  3  0  0  0  0  0  0
  187.7220  177.7790  142.4160 C   0  0  0  0  0  3  0  0  0  0  0  0
  186.5150  178.2930  145.7420 C   0  0  0  0  0  0  0  0  0  0  0  0
  187.7700  177.9260  145.9360 O   0  0  0  0  0  0  0  0  0  0  0  0
  188.3090  177.7100  144.7590 C   0  0  0  0  0  0  0  0  0  0  0  0
  186.2290  178.3160  144.3760 C   0  0  0  0  0  0  0  0  0  0  0  0
  187.3990  177.9370  143.7620 C   0  0  0  0  0  0  0  0  0  0  0  0
  184.9440  178.6710  143.7080 C   0  0  0  0  0  1  0  0  0  0  0  0
  189.0340  177.3710  142.0960 C   0  0  0  0  0  0  0  0  0  0  0  0
  189.9700  177.1390  143.1350 C   0  0  0  0  0  3  0  0  0  0  0  0
  185.5970  178.6190  146.8420 C   0  0  0  0  0  0  0  0  0  0  0  0
  184.5470  177.9480  147.0250 O   0  0  0  0  0  0  0  0  0  0  0  0
  185.8890  179.6780  147.6910 O   0  0  0  0  0  1  0  0  0  0  0  0
  184.0260  176.1190  135.1690 N   0  0  0  0  0  2  0  0  0  0  0  0
  183.3740  175.5120  136.3170 C   0  0  0  0  0  2  0  0  0  0  0  0
  181.8920  175.8210  136.2770 C   0  0  0  0  0  1  0  0  0  0  0  0
  1  5  2  0  0  0  0
  2 13  1  0  0  0  0
  3 16  1  0  0  0  0
  3 10  1  0  0  0  0
  4  9  2  0  0  0  0
  5  9  1  0  0  0  0
  6  4  1  0  0  0  0
  7  8  2  0  0  0  0
  8  6  1  0  0  0  0
  9 27  1  0  0  0  0
 10 11  1  0  0  0  0
 11  1  1  0  0  0  0
 11  6  2  0  0  0  0
 12 10  2  0  0  0  0
 12  7  1  0  0  0  0
 14 32  1  1  0  0  0
 14 13  1  0  0  0  0
 14 15  1  0  0  0  0
 15 17  1  0  0  0  0
 16  2  1  1  0  0  0
 16 18  1  0  0  0  0
 18 17  1  1  0  0  0
 18  1  1  0  0  0  0
 19 23  1  0  0  0  0
 20 25  1  0  0  0  0
 21 22  1  0  0  0  0
 21 29  1  0  0  0  0
 23 22  1  0  0  0  0
 24 21  2  0  0  0  0
 25 24  1  0  0  0  0
 25 23  2  0  0  0  0
 26 24  1  0  0  0  0
 27 20  2  0  0  0  0
 27 28  1  0  0  0  0
 28 19  2  0  0  0  0
 29 30  2  0  0  0  0
 29 31  1  0  0  0  0
 32 33  1  0  0  0  0
 34 33  1  0  0  0  0
M  END
>  <MODEL>
6

>  <REMARK>
 VINA RESULT:      -8.4      2.869      5.235
  Name = 
  4 active torsions:
  status: ('A' for Active; 'I' for Inactive)
    1  A    between atoms: N_3  and  C_13
    2  A    between atoms: N_3  and  C_25
    3  A    between atoms: C_7  and  C_11
    4  A    between atoms: C_18  and  C_30
                            x       y       z     vdW  Elec       q    Type
                         _______ _______ _______ _____ _____    ______ ____

>  <TORSDO>
F 4

$$$$
=
 OpenBabel11052415523D

 34 39  0  0  1  0  0  0  0  0999 V2000
  188.7460  177.2520  138.4470 C   0  0  0  0  0  0  0  0  0  0  0  0
  187.7960  175.3280  135.9170 C   0  0  0  0  0  2  0  0  0  0  0  0
  189.7350  176.8230  135.8230 N   0  0  0  0  0  2  0  0  0  0  0  0
  190.4240  176.9500  140.6100 N   0  0  0  0  0  0  0  0  0  0  0  0
  188.3010  177.4490  139.7190 N   0  0  0  0  0  0  0  0  0  0  0  0
  190.9290  176.7650  139.3640 C   0  0  0  0  0  0  0  0  0  0  0  0
  192.7940  176.2900  137.8950 C   0  0  0  0  0  3  0  0  0  0  0  0
  192.2800  176.4570  139.1850 C   0  0  0  0  0  3  0  0  0  0  0  0
  189.1170  177.2850  140.7970 C   0  0  0  0  0  0  0  0  0  0  0  0
  190.6030  176.7190  136.9530 C   0  0  0  0  0  0  0  0  0  0  0  0
  190.0890  176.9060  138.2440 C   0  0  0  0  0  0  0  0  0  0  0  0
  191.9580  176.4230  136.7790 C   0  0  0  0  0  3  0  0  0  0  0  0
  186.2690  175.1690  135.8380 C   0  0  0  0  0  2  0  0  0  0  0  0
  185.5550  176.4320  135.3490 C   0  0  2  0  0  3  0  0  0  0  0  0
  185.4050  177.5050  136.4430 C   0  0  0  0  0  2  0  0  0  0  0  0
  188.2850  176.7830  135.9850 C   0  0  2  0  0  3  0  0  0  0  0  0
  186.3630  177.3440  137.6280 C   0  0  0  0  0  2  0  0  0  0  0  0
  187.8420  177.5400  137.2650 C   0  0  1  0  0  3  0  0  0  0  0  0
  186.7140  178.0470  143.6460 C   0  0  0  0  0  3  0  0  0  0  0  0
  189.4380  177.3240  143.2780 C   0  0  0  0  0  3  0  0  0  0  0  0
  188.4110  177.7570  146.6760 C   0  0  0  0  0  0  0  0  0  0  0  0
  187.3050  178.0100  145.9980 O   0  0  0  0  0  0  0  0  0  0  0  0
  187.5800  177.8760  144.7220 C   0  0  0  0  0  0  0  0  0  0  0  0
  189.4500  177.4450  145.7970 C   0  0  0  0  0  0  0  0  0  0  0  0
  188.8920  177.5280  144.5430 C   0  0  0  0  0  0  0  0  0  0  0  0
  190.8620  177.0950  146.1250 C   0  0  0  0  0  1  0  0  0  0  0  0
  188.5920  177.4890  142.1610 C   0  0  0  0  0  0  0  0  0  0  0  0
  187.2350  177.8490  142.3540 C   0  0  0  0  0  3  0  0  0  0  0  0
  188.4810  177.8100  148.1420 C   0  0  0  0  0  0  0  0  0  0  0  0
  187.6940  177.1280  148.8500 O   0  0  0  0  0  1  0  0  0  0  0  0
  189.4270  178.6200  148.7570 O   0  0  0  0  0  0  0  0  0  0  0  0
  184.2460  176.0810  134.8290 N   0  0  0  0  0  2  0  0  0  0  0  0
  183.7950  174.9080  135.5590 C   0  0  0  0  0  2  0  0  0  0  0  0
  182.4590  175.2010  136.2070 C   0  0  0  0  0  1  0  0  0  0  0  0
  1  5  2  0  0  0  0
  3 16  1  0  0  0  0
  3 10  1  0  0  0  0
  4  9  2  0  0  0  0
  5  9  1  0  0  0  0
  6  4  1  0  0  0  0
  7  8  2  0  0  0  0
  8  6  1  0  0  0  0
  9 27  1  0  0  0  0
 10 11  1  0  0  0  0
 11  1  1  0  0  0  0
 11  6  2  0  0  0  0
 12 10  2  0  0  0  0
 12  7  1  0  0  0  0
 13  2  1  0  0  0  0
 14 32  1  1  0  0  0
 14 13  1  0  0  0  0
 14 15  1  0  0  0  0
 15 17  1  0  0  0  0
 16  2  1  1  0  0  0
 16 18  1  0  0  0  0
 18 17  1  1  0  0  0
 18  1  1  0  0  0  0
 19 23  1  0  0  0  0
 20 25  1  0  0  0  0
 21 29  1  0  0  0  0
 22 21  1  0  0  0  0
 23 22  1  0  0  0  0
 24 26  1  0  0  0  0
 24 21  2  0  0  0  0
 25 23  2  0  0  0  0
 25 24  1  0  0  0  0
 27 28  1  0  0  0  0
 27 20  2  0  0  0  0
 28 19  2  0  0  0  0
 29 31  2  0  0  0  0
 29 30  1  0  0  0  0
 32 33  1  0  0  0  0
 33 34  1  0  0  0  0
M  END
>  <MODEL>
7

>  <REMARK>
 VINA RESULT:      -8.4      3.662      6.026
  Name = 
  4 active torsions:
  status: ('A' for Active; 'I' for Inactive)
    1  A    between atoms: N_3  and  C_13
    2  A    between atoms: N_3  and  C_25
    3  A    between atoms: C_7  and  C_11
    4  A    between atoms: C_18  and  C_30
                            x       y       z     vdW  Elec       q    Type
                         _______ _______ _______ _____ _____    ______ ____

>  <TORSDO>
F 4

$$$$
=
 OpenBabel11052415523D

 34 39  0  0  1  0  0  0  0  0999 V2000
  189.9430  176.9190  139.3560 C   0  0  0  0  0  0  0  0  0  0  0  0
  188.1850  177.1580  142.1590 C   0  0  0  0  0  2  0  0  0  0  0  0
  187.8530  178.6280  140.2260 N   0  0  0  0  0  2  0  0  0  0  0  0
  189.6800  175.5240  136.9950 N   0  0  0  0  0  0  0  0  0  0  0  0
  190.9280  176.0890  138.9120 N   0  0  0  0  0  0  0  0  0  0  0  0
  188.6770  176.3560  137.3750 C   0  0  0  0  0  0  0  0  0  0  0  0
  186.5300  177.3970  136.9600 C   0  0  0  0  0  3  0  0  0  0  0  0
  187.5480  176.5200  136.5690 C   0  0  0  0  0  3  0  0  0  0  0  0
  190.8010  175.3810  137.7540 C   0  0  0  0  0  0  0  0  0  0  0  0
  187.7550  177.9350  138.9810 C   0  0  0  0  0  0  0  0  0  0  0  0
  188.7850  177.0720  138.5810 C   0  0  0  0  0  0  0  0  0  0  0  0
  186.6330  178.1060  138.1630 C   0  0  0  0  0  3  0  0  0  0  0  0
  189.0140  176.8140  143.4060 C   0  0  0  0  0  2  0  0  0  0  0  0
  190.0340  177.8960  143.7700 C   0  0  2  0  0  3  0  0  0  0  0  0
  191.3000  177.8550  142.8940 C   0  0  0  0  0  2  0  0  0  0  0  0
  188.8190  178.2140  141.2410 C   0  0  2  0  0  3  0  0  0  0  0  0
  191.1340  177.1010  141.5710 C   0  0  0  0  0  2  0  0  0  0  0  0
  190.1570  177.7690  140.5920 C   0  0  1  0  0  3  0  0  0  0  0  0
  192.6860  172.7110  135.8090 C   0  0  0  0  0  3  0  0  0  0  0  0
  193.1340  174.5040  137.9680 C   0  0  0  0  0  3  0  0  0  0  0  0
  195.9090  172.4230  137.1010 C   0  0  0  0  0  0  0  0  0  0  0  0
  194.9800  172.0510  136.2370 O   0  0  0  0  0  0  0  0  0  0  0  0
  193.9060  172.7660  136.4760 C   0  0  0  0  0  0  0  0  0  0  0  0
  195.4130  173.4250  137.9360 C   0  0  0  0  0  0  0  0  0  0  0  0
  194.1210  173.6300  137.5160 C   0  0  0  0  0  0  0  0  0  0  0  0
  196.1140  174.1310  139.0470 C   0  0  0  0  0  1  0  0  0  0  0  0
  191.8820  174.4780  137.3170 C   0  0  0  0  0  0  0  0  0  0  0  0
  191.6690  173.5810  136.2410 C   0  0  0  0  0  3  0  0  0  0  0  0
  197.2550  171.8330  137.1320 C   0  0  0  0  0  0  0  0  0  0  0  0
  197.4270  170.6400  137.4960 O   0  0  0  0  0  1  0  0  0  0  0  0
  198.3500  172.5980  136.7550 O   0  0  0  0  0  0  0  0  0  0  0  0
  190.4050  177.7660  145.1680 N   0  0  0  0  0  2  0  0  0  0  0  0
  191.4460  176.7560  145.2420 C   0  0  0  0  0  2  0  0  0  0  0  0
  191.6790  176.3780  146.6900 C   0  0  0  0  0  1  0  0  0  0  0  0
  1 18  1  0  0  0  0
  2 13  1  0  0  0  0
  3 16  1  0  0  0  0
  4  6  1  0  0  0  0
  4  9  2  0  0  0  0
  5  1  2  0  0  0  0
  6 11  1  0  0  0  0
  7 12  2  0  0  0  0
  8  7  1  0  0  0  0
  8  6  2  0  0  0  0
  9  5  1  0  0  0  0
 10  3  1  0  0  0  0
 11 10  2  0  0  0  0
 11  1  1  0  0  0  0
 12 10  1  0  0  0  0
 13 14  1  0  0  0  0
 14 32  1  1  0  0  0
 15 14  1  0  0  0  0
 16  2  1  6  0  0  0
 17 15  1  0  0  0  0
 18 16  1  0  0  0  0
 18 17  1  1  0  0  0
 19 28  2  0  0  0  0
 19 23  1  0  0  0  0
 21 29  1  0  0  0  0
 21 24  2  0  0  0  0
 22 23  1  0  0  0  0
 22 21  1  0  0  0  0
 23 25  2  0  0  0  0
 24 26  1  0  0  0  0
 25 24  1  0  0  0  0
 25 20  1  0  0  0  0
 27  9  1  0  0  0  0
 27 20  2  0  0  0  0
 28 27  1  0  0  0  0
 29 30  1  0  0  0  0
 31 29  2  0  0  0  0
 32 33  1  0  0  0  0
 33 34  1  0  0  0  0
M  END
>  <MODEL>
8

>  <REMARK>
 VINA RESULT:      -8.2      6.383     11.041
  Name = 
  4 active torsions:
  status: ('A' for Active; 'I' for Inactive)
    1  A    between atoms: N_3  and  C_13
    2  A    between atoms: N_3  and  C_25
    3  A    between atoms: C_7  and  C_11
    4  A    between atoms: C_18  and  C_30
                            x       y       z     vdW  Elec       q    Type
                         _______ _______ _______ _____ _____    ______ ____

>  <TORSDO>
F 4

$$$$
=
 OpenBabel11052415523D

 34 39  0  0  1  0  0  0  0  0999 V2000
  188.4130  178.1180  140.4970 C   0  0  0  0  0  0  0  0  0  0  0  0
  187.0640  177.2550  143.4030 C   0  0  0  0  0  2  0  0  0  0  0  0
  186.2320  179.1010  142.0220 N   0  0  0  0  0  2  0  0  0  0  0  0
  188.0290  177.3880  137.8690 N   0  0  0  0  0  0  0  0  0  0  0  0
  189.4400  177.6410  139.7400 N   0  0  0  0  0  0  0  0  0  0  0  0
  186.9760  177.8810  138.5690 C   0  0  0  0  0  0  0  0  0  0  0  0
  184.6570  178.5690  138.6810 C   0  0  0  0  0  3  0  0  0  0  0  0
  185.7300  178.0400  137.9560 C   0  0  0  0  0  3  0  0  0  0  0  0
  189.2570  177.2610  138.4440 C   0  0  0  0  0  0  0  0  0  0  0  0
  186.0630  178.7640  140.6450 C   0  0  0  0  0  0  0  0  0  0  0  0
  187.1460  178.2530  139.9150 C   0  0  0  0  0  0  0  0  0  0  0  0
  184.8220  178.9330  140.0230 C   0  0  0  0  0  3  0  0  0  0  0  0
  188.1090  176.7510  144.4110 C   0  0  0  0  0  2  0  0  0  0  0  0
  188.9910  177.8680  144.9760 C   0  0  2  0  0  3  0  0  0  0  0  0
  190.1070  178.3050  144.0100 C   0  0  0  0  0  2  0  0  0  0  0  0
  187.3870  178.6200  142.7760 C   0  0  2  0  0  3  0  0  0  0  0  0
  189.8700  177.9190  142.5460 C   0  0  0  0  0  2  0  0  0  0  0  0
  188.6700  178.6280  141.9010 C   0  0  1  0  0  3  0  0  0  0  0  0
  191.3190  176.0030  135.5050 C   0  0  0  0  0  3  0  0  0  0  0  0
  191.6170  176.4430  138.2970 C   0  0  0  0  0  3  0  0  0  0  0  0
  194.5070  175.1560  136.6300 C   0  0  0  0  0  0  0  0  0  0  0  0
  193.6240  175.2620  135.6530 O   0  0  0  0  0  0  0  0  0  0  0  0
  192.5120  175.7320  136.1680 C   0  0  0  0  0  0  0  0  0  0  0  0
  193.9400  175.5770  137.8340 C   0  0  0  0  0  0  0  0  0  0  0  0
  192.6550  175.9440  137.5130 C   0  0  0  0  0  0  0  0  0  0  0  0
  194.5720  175.6280  139.1840 C   0  0  0  0  0  1  0  0  0  0  0  0
  190.3900  176.7300  137.6620 C   0  0  0  0  0  0  0  0  0  0  0  0
  190.2520  176.5080  136.2690 C   0  0  0  0  0  3  0  0  0  0  0  0
  195.8740  174.6590  136.4240 C   0  0  0  0  0  0  0  0  0  0  0  0
  196.0900  173.4380  136.2060 O   0  0  0  0  0  0  0  0  0  0  0  0
  196.9420  175.5460  136.4690 O   0  0  0  0  0  1  0  0  0  0  0  0
  189.5760  177.4390  146.2340 N   0  0  0  0  0  2  0  0  0  0  0  0
  188.4950  177.3520  147.2000 C   0  0  0  0  0  2  0  0  0  0  0  0
  188.8030  178.2470  148.3820 C   0  0  0  0  0  1  0  0  0  0  0  0
  1 18  1  0  0  0  0
  2 13  1  0  0  0  0
  3 16  1  0  0  0  0
  4  9  2  0  0  0  0
  4  6  1  0  0  0  0
  5  1  2  0  0  0  0
  6 11  1  0  0  0  0
  7 12  2  0  0  0  0
  8  6  2  0  0  0  0
  8  7  1  0  0  0  0
  9  5  1  0  0  0  0
 10  3  1  0  0  0  0
 11  1  1  0  0  0  0
 11 10  2  0  0  0  0
 12 10  1  0  0  0  0
 13 14  1  0  0  0  0
 14 32  1  1  0  0  0
 15 14  1  0  0  0  0
 16  2  1  6  0  0  0
 17 15  1  0  0  0  0
 18 17  1  1  0  0  0
 18 16  1  0  0  0  0
 19 23  2  0  0  0  0
 19 28  1  0  0  0  0
 21 24  2  0  0  0  0
 22 23  1  0  0  0  0
 22 21  1  0  0  0  0
 23 25  1  0  0  0  0
 24 26  1  0  0  0  0
 25 24  1  0  0  0  0
 25 20  2  0  0  0  0
 27 20  1  0  0  0  0
 27  9  1  0  0  0  0
 28 27  2  0  0  0  0
 29 31  1  0  0  0  0
 29 21  1  0  0  0  0
 30 29  2  0  0  0  0
 32 33  1  0  0  0  0
 33 34  1  0  0  0  0
M  END
>  <MODEL>
9

>  <REMARK>
 VINA RESULT:      -8.0      5.572     10.211
  Name = 
  4 active torsions:
  status: ('A' for Active; 'I' for Inactive)
    1  A    between atoms: N_3  and  C_13
    2  A    between atoms: N_3  and  C_25
    3  A    between atoms: C_7  and  C_11
    4  A    between atoms: C_18  and  C_30
                            x       y       z     vdW  Elec       q    Type
                         _______ _______ _______ _____ _____    ______ ____

>  <TORSDO>
F 4

$$$$
