=
 OpenBabel11052413443D

 27 31  0  0  1  0  0  0  0  0999 V2000
  188.5070  177.1490  144.3810 N   0  0  0  0  0  0  0  0  0  0  0  0
  187.3450  177.5630  142.2590 C   0  0  2  0  0  3  0  0  0  0  0  0
  189.8750  176.8880  142.3780 C   0  0  1  0  0  3  0  0  0  0  0  0
  187.6050  177.9430  138.3080 N   0  0  0  0  0  0  0  0  0  0  0  0
  189.1900  176.7140  136.7230 C   0  0  0  0  0  1  0  0  0  0  0  0
  186.3750  178.4640  141.5130 C   0  0  0  0  0  3  0  0  0  0  0  0
  189.6120  177.2600  139.1300 C   0  0  0  0  0  0  0  0  0  0  0  0
  192.0610  178.5060  144.3860 C   0  0  0  0  0  2  0  0  0  0  0  0
  190.9810  176.6710  139.1880 C   0  0  0  0  0  1  0  0  0  0  0  0
  191.2140  178.1650  145.6020 C   0  0  0  0  0  2  0  0  0  0  0  0
  188.9340  178.0070  140.2330 C   0  0  1  0  0  3  0  0  0  0  0  0
  187.6320  178.0630  143.6800 C   0  0  1  0  0  3  0  0  0  0  0  0
  188.8460  177.3060  138.0480 C   0  0  0  0  0  0  0  0  0  0  0  0
  187.6560  178.3240  139.5410 C   0  0  0  0  0  0  0  0  0  0  0  0
  189.5370  176.6110  143.8220 C   0  0  0  0  0  0  0  0  0  0  0  0
  188.6370  177.1570  141.4810 C   0  0  2  0  0  3  0  0  0  0  0  0
  191.1710  178.9530  143.2340 C   0  0  0  0  0  2  0  0  0  0  0  0
  186.5090  178.7600  140.2560 N   0  0  0  0  0  0  0  0  0  0  0  0
  191.0790  176.6550  145.8330 C   0  0  0  0  0  2  0  0  0  0  0  0
  190.5240  175.8480  144.6490 C   0  0  0  0  0  2  0  0  0  0  0  0
  191.0700  177.8440  142.1930 C   0  0  0  0  0  2  0  0  0  0  0  0
  184.0690  178.6590  146.0120 C   0  0  0  0  0  3  0  0  0  0  0  0
  186.3820  178.2740  144.4810 C   0  0  0  0  0  0  0  0  0  0  0  0
  186.4310  178.1410  145.8730 C   0  0  0  0  0  3  0  0  0  0  0  0
  185.2770  178.3340  146.6370 C   0  0  0  0  0  3  0  0  0  0  0  0
  184.0150  178.7920  144.6210 C   0  0  0  0  0  3  0  0  0  0  0  0
  185.1690  178.6000  143.8550 C   0  0  0  0  0  3  0  0  0  0  0  0
  2  6  1  6  0  0  0
  2 12  1  0  0  0  0
  3 21  1  1  0  0  0
  3 15  1  0  0  0  0
  4 14  2  0  0  0  0
  5 13  1  0  0  0  0
  7  9  1  0  0  0  0
  8 10  1  0  0  0  0
 10 19  1  0  0  0  0
 11  7  1  6  0  0  0
 11 16  1  0  0  0  0
 12  1  1  0  0  0  0
 12 23  1  1  0  0  0
 13  4  1  0  0  0  0
 13  7  2  0  0  0  0
 14 11  1  0  0  0  0
 14 18  1  0  0  0  0
 15  1  2  0  0  0  0
 15 20  1  0  0  0  0
 16  2  1  0  0  0  0
 16  3  1  0  0  0  0
 17  8  1  0  0  0  0
 18  6  2  0  0  0  0
 20 19  1  0  0  0  0
 21 17  1  0  0  0  0
 22 25  1  0  0  0  0
 23 24  1  0  0  0  0
 24 25  2  0  0  0  0
 26 22  2  0  0  0  0
 27 23  2  0  0  0  0
 27 26  1  0  0  0  0
M  END
>  <MODEL>
1

>  <REMARK>
 VINA RESULT:      -8.9      0.000      0.000
  Name = 
  1 active torsions:
  status: ('A' for Active; 'I' for Inactive)
    1  A    between atoms: C_9  and  C_15
                            x       y       z     vdW  Elec       q    Type
                         _______ _______ _______ _____ _____    ______ ____

>  <TORSDO>
F 1

$$$$
=
 OpenBabel11052413443D

 27 31  0  0  1  0  0  0  0  0999 V2000
  189.0680  178.2270  140.8510 N   0  0  0  0  0  0  0  0  0  0  0  0
  186.6660  178.5580  140.4730 C   0  0  2  0  0  3  0  0  0  0  0  0
  187.7050  178.3580  142.8700 C   0  0  1  0  0  3  0  0  0  0  0  0
  183.0170  178.7640  142.0430 N   0  0  0  0  0  0  0  0  0  0  0  0
  182.3570  179.6600  144.3440 C   0  0  0  0  0  1  0  0  0  0  0  0
  185.4560  178.1500  139.6490 C   0  0  0  0  0  3  0  0  0  0  0  0
  184.5480  178.6240  143.7180 C   0  0  0  0  0  0  0  0  0  0  0  0
  189.7750  175.8210  143.7110 C   0  0  0  0  0  2  0  0  0  0  0  0
  185.1640  178.7250  145.0730 C   0  0  0  0  0  1  0  0  0  0  0  0
  190.7280  176.2130  142.5930 C   0  0  0  0  0  2  0  0  0  0  0  0
  185.1630  177.9640  142.5250 C   0  0  1  0  0  3  0  0  0  0  0  0
  187.9250  177.7680  140.0930 C   0  0  1  0  0  3  0  0  0  0  0  0
  183.3150  179.0030  143.4100 C   0  0  0  0  0  0  0  0  0  0  0  0
  184.0640  178.1910  141.5490 C   0  0  0  0  0  0  0  0  0  0  0  0
  189.0030  178.4900  142.1110 C   0  0  0  0  0  0  0  0  0  0  0  0
  186.4430  178.6500  142.0160 C   0  0  2  0  0  3  0  0  0  0  0  0
  188.3360  175.8760  143.2190 C   0  0  0  0  0  2  0  0  0  0  0  0
  184.2640  178.0350  140.1510 N   0  0  0  0  0  0  0  0  0  0  0  0
  191.2970  177.6280  142.7590 C   0  0  0  0  0  2  0  0  0  0  0  0
  190.2560  178.7520  142.8870 C   0  0  0  0  0  2  0  0  0  0  0  0
  187.6410  177.1130  143.7770 C   0  0  0  0  0  2  0  0  0  0  0  0
  188.7930  177.9370  135.8860 C   0  0  0  0  0  3  0  0  0  0  0  0
  188.2320  177.8410  138.6280 C   0  0  0  0  0  0  0  0  0  0  0  0
  187.9720  176.7300  137.8180 C   0  0  0  0  0  3  0  0  0  0  0  0
  188.2510  176.7780  136.4490 C   0  0  0  0  0  3  0  0  0  0  0  0
  189.0560  179.0490  136.6900 C   0  0  0  0  0  3  0  0  0  0  0  0
  188.7770  179.0030  138.0600 C   0  0  0  0  0  3  0  0  0  0  0  0
  1 15  2  0  0  0  0
  2  6  1  6  0  0  0
  2 16  1  0  0  0  0
  3 21  1  6  0  0  0
  4 13  1  0  0  0  0
  6 18  2  0  0  0  0
  7  9  1  0  0  0  0
 10 19  1  0  0  0  0
 10  8  1  0  0  0  0
 11 14  1  6  0  0  0
 11  7  1  0  0  0  0
 12 23  1  6  0  0  0
 12  2  1  0  0  0  0
 12  1  1  0  0  0  0
 13  7  2  0  0  0  0
 13  5  1  0  0  0  0
 14  4  2  0  0  0  0
 15  3  1  0  0  0  0
 15 20  1  0  0  0  0
 16 11  1  0  0  0  0
 16  3  1  0  0  0  0
 17  8  1  0  0  0  0
 17 21  1  0  0  0  0
 18 14  1  0  0  0  0
 19 20  1  0  0  0  0
 22 25  2  0  0  0  0
 22 26  1  0  0  0  0
 24 23  2  0  0  0  0
 25 24  1  0  0  0  0
 26 27  2  0  0  0  0
 27 23  1  0  0  0  0
M  END
>  <MODEL>
2

>  <REMARK>
 VINA RESULT:      -8.0      1.754      6.070
  Name = 
  1 active torsions:
  status: ('A' for Active; 'I' for Inactive)
    1  A    between atoms: C_9  and  C_15
                            x       y       z     vdW  Elec       q    Type
                         _______ _______ _______ _____ _____    ______ ____

>  <TORSDO>
F 1

$$$$
=
 OpenBabel11052413443D

 27 31  0  0  1  0  0  0  0  0999 V2000
  183.6010  178.7800  141.4070 N   0  0  0  0  0  0  0  0  0  0  0  0
  186.0430  178.6320  141.2010 C   0  0  2  0  0  3  0  0  0  0  0  0
  184.4430  178.5840  139.1260 C   0  0  1  0  0  3  0  0  0  0  0  0
  189.1830  178.0610  138.8270 N   0  0  0  0  0  0  0  0  0  0  0  0
  189.4330  178.7480  136.3780 C   0  0  0  0  0  1  0  0  0  0  0  0
  187.3140  178.0100  141.7540 C   0  0  0  0  0  3  0  0  0  0  0  0
  187.2980  178.1880  137.5620 C   0  0  0  0  0  0  0  0  0  0  0  0
  181.7910  176.4930  138.9650 C   0  0  0  0  0  2  0  0  0  0  0  0
  186.4080  178.3770  136.3800 C   0  0  0  0  0  1  0  0  0  0  0  0
  181.2240  177.0970  140.2410 C   0  0  0  0  0  2  0  0  0  0  0  0
  186.8730  177.6960  138.9080 C   0  0  1  0  0  3  0  0  0  0  0  0
  184.7850  178.1210  141.9150 C   0  0  1  0  0  3  0  0  0  0  0  0
  188.6180  178.3200  137.5520 C   0  0  0  0  0  0  0  0  0  0  0  0
  188.1950  177.7220  139.5870 C   0  0  0  0  0  0  0  0  0  0  0  0
  183.4130  178.9930  140.1500 C   0  0  0  0  0  0  0  0  0  0  0  0
  185.9050  178.6380  139.6450 C   0  0  2  0  0  3  0  0  0  0  0  0
  183.2900  176.2710  139.1110 C   0  0  0  0  0  2  0  0  0  0  0  0
  188.3080  177.6460  141.0020 N   0  0  0  0  0  0  0  0  0  0  0  0
  180.9100  178.5920  140.1070 C   0  0  0  0  0  2  0  0  0  0  0  0
  182.0830  179.4810  139.6650 C   0  0  0  0  0  2  0  0  0  0  0  0
  184.0530  177.3280  138.3210 C   0  0  0  0  0  2  0  0  0  0  0  0
  184.9490  178.6280  146.1810 C   0  0  0  0  0  3  0  0  0  0  0  0
  184.8560  178.2910  143.4020 C   0  0  0  0  0  0  0  0  0  0  0  0
  183.7600  178.8360  144.0810 C   0  0  0  0  0  3  0  0  0  0  0  0
  183.8050  179.0030  145.4680 C   0  0  0  0  0  3  0  0  0  0  0  0
  186.0460  178.0850  145.5070 C   0  0  0  0  0  3  0  0  0  0  0  0
  186.0020  177.9170  144.1190 C   0  0  0  0  0  3  0  0  0  0  0  0
  1 12  1  0  0  0  0
  2  6  1  6  0  0  0
  2 12  1  0  0  0  0
  3 21  1  1  0  0  0
  3 16  1  0  0  0  0
  3 15  1  0  0  0  0
  4 14  2  0  0  0  0
  5 13  1  0  0  0  0
  8 17  1  0  0  0  0
  8 10  1  0  0  0  0
  9  7  1  0  0  0  0
 11  7  1  6  0  0  0
 11 14  1  0  0  0  0
 11 16  1  0  0  0  0
 12 23  1  1  0  0  0
 13  7  2  0  0  0  0
 13  4  1  0  0  0  0
 14 18  1  0  0  0  0
 15  1  2  0  0  0  0
 16  2  1  0  0  0  0
 18  6  2  0  0  0  0
 19 10  1  0  0  0  0
 20 19  1  0  0  0  0
 20 15  1  0  0  0  0
 21 17  1  0  0  0  0
 23 24  2  0  0  0  0
 23 27  1  0  0  0  0
 24 25  1  0  0  0  0
 25 22  2  0  0  0  0
 26 22  1  0  0  0  0
 27 26  2  0  0  0  0
M  END
>  <MODEL>
3

>  <REMARK>
 VINA RESULT:      -7.8      2.839      5.836
  Name = 
  1 active torsions:
  status: ('A' for Active; 'I' for Inactive)
    1  A    between atoms: C_9  and  C_15
                            x       y       z     vdW  Elec       q    Type
                         _______ _______ _______ _____ _____    ______ ____

>  <TORSDO>
F 1

$$$$
=
 OpenBabel11052413443D

 27 31  0  0  1  0  0  0  0  0999 V2000
  188.5140  176.9670  144.4330 N   0  0  0  0  0  0  0  0  0  0  0  0
  186.3470  177.9390  145.0530 C   0  0  2  0  0  3  0  0  0  0  0  0
  186.9320  177.2420  142.5950 C   0  0  1  0  0  3  0  0  0  0  0  0
  182.8340  179.3580  143.8410 N   0  0  0  0  0  0  0  0  0  0  0  0
  181.4470  178.5870  141.8370 C   0  0  0  0  0  1  0  0  0  0  0  0
  185.6360  179.0110  145.8610 C   0  0  0  0  0  3  0  0  0  0  0  0
  183.9370  178.4690  142.0630 C   0  0  0  0  0  0  0  0  0  0  0  0
  189.7830  178.2530  141.0850 C   0  0  0  0  0  2  0  0  0  0  0  0
  184.1910  177.8780  140.7180 C   0  0  0  0  0  1  0  0  0  0  0  0
  190.6090  177.6040  142.1850 C   0  0  0  0  0  2  0  0  0  0  0  0
  184.9840  178.8980  143.0410 C   0  0  1  0  0  3  0  0  0  0  0  0
  187.8730  178.0400  145.1620 C   0  0  1  0  0  3  0  0  0  0  0  0
  182.7450  178.8060  142.5370 C   0  0  0  0  0  0  0  0  0  0  0  0
  184.0930  179.3960  144.1230 C   0  0  0  0  0  0  0  0  0  0  0  0
  188.1180  176.5910  143.2650 C   0  0  0  0  0  0  0  0  0  0  0  0
  185.8490  177.7470  143.5850 C   0  0  2  0  0  3  0  0  0  0  0  0
  188.5980  178.9960  141.6860 C   0  0  0  0  0  2  0  0  0  0  0  0
  184.5770  179.6320  145.4380 N   0  0  0  0  0  0  0  0  0  0  0  0
  190.3980  176.0880  142.2780 C   0  0  0  0  0  2  0  0  0  0  0  0
  188.9440  175.6290  142.4690 C   0  0  0  0  0  2  0  0  0  0  0  0
  187.3150  178.2060  141.4540 C   0  0  0  0  0  2  0  0  0  0  0  0
  189.2860  178.0220  149.2220 C   0  0  0  0  0  3  0  0  0  0  0  0
  188.3520  178.0370  146.5820 C   0  0  0  0  0  0  0  0  0  0  0  0
  189.7070  177.8120  146.8470 C   0  0  0  0  0  3  0  0  0  0  0  0
  190.1740  177.8050  148.1640 C   0  0  0  0  0  3  0  0  0  0  0  0
  187.9310  178.2460  148.9630 C   0  0  0  0  0  3  0  0  0  0  0  0
  187.4620  178.2530  147.6450 C   0  0  0  0  0  3  0  0  0  0  0  0
  1 12  1  0  0  0  0
  2 12  1  0  0  0  0
  2  6  1  6  0  0  0
  3 21  1  1  0  0  0
  3 15  1  0  0  0  0
  3 16  1  0  0  0  0
  4 14  2  0  0  0  0
  5 13  1  0  0  0  0
  7 13  2  0  0  0  0
  8 17  1  0  0  0  0
  8 10  1  0  0  0  0
  9  7  1  0  0  0  0
 10 19  1  0  0  0  0
 11  7  1  6  0  0  0
 11 16  1  0  0  0  0
 11 14  1  0  0  0  0
 12 23  1  1  0  0  0
 13  4  1  0  0  0  0
 14 18  1  0  0  0  0
 15  1  2  0  0  0  0
 16  2  1  0  0  0  0
 18  6  2  0  0  0  0
 19 20  1  0  0  0  0
 20 15  1  0  0  0  0
 21 17  1  0  0  0  0
 23 24  2  0  0  0  0
 23 27  1  0  0  0  0
 24 25  1  0  0  0  0
 25 22  2  0  0  0  0
 26 22  1  0  0  0  0
 27 26  2  0  0  0  0
M  END
>  <MODEL>
4

>  <REMARK>
 VINA RESULT:      -7.8      2.400      4.921
  Name = 
  1 active torsions:
  status: ('A' for Active; 'I' for Inactive)
    1  A    between atoms: C_9  and  C_15
                            x       y       z     vdW  Elec       q    Type
                         _______ _______ _______ _____ _____    ______ ____

>  <TORSDO>
F 1

$$$$
=
 OpenBabel11052413443D

 27 31  0  0  1  0  0  0  0  0999 V2000
  186.6110  178.6430  138.4160 N   0  0  0  0  0  0  0  0  0  0  0  0
  186.8390  178.6280  140.8600 C   0  0  2  0  0  3  0  0  0  0  0  0
  188.8440  178.1230  139.2500 C   0  0  1  0  0  3  0  0  0  0  0  0
  189.1460  177.8780  144.0120 N   0  0  0  0  0  0  0  0  0  0  0  0
  191.6800  178.1570  144.1920 C   0  0  0  0  0  1  0  0  0  0  0  0
  186.2160  178.1950  142.1770 C   0  0  0  0  0  3  0  0  0  0  0  0
  190.3770  177.6630  142.1130 C   0  0  0  0  0  0  0  0  0  0  0  0
  188.5990  175.8600  136.7490 C   0  0  0  0  0  2  0  0  0  0  0  0
  191.5560  177.5890  141.2020 C   0  0  0  0  0  1  0  0  0  0  0  0
  187.4310  176.6310  136.1520 C   0  0  0  0  0  2  0  0  0  0  0  0
  188.9590  177.3770  141.7340 C   0  0  1  0  0  3  0  0  0  0  0  0
  186.0250  178.1600  139.6470 C   0  0  1  0  0  3  0  0  0  0  0  0
  190.4360  177.8800  143.4200 C   0  0  0  0  0  0  0  0  0  0  0  0
  188.3200  177.6070  143.0570 C   0  0  0  0  0  0  0  0  0  0  0  0
  187.8820  178.6280  138.2030 C   0  0  0  0  0  0  0  0  0  0  0  0
  188.3710  178.3620  140.7090 C   0  0  2  0  0  3  0  0  0  0  0  0
  188.4480  175.7680  138.2620 C   0  0  0  0  0  2  0  0  0  0  0  0
  186.9160  177.7770  143.1870 N   0  0  0  0  0  0  0  0  0  0  0  0
  187.8070  178.0580  135.7340 C   0  0  0  0  0  2  0  0  0  0  0  0
  188.4160  178.9360  136.8380 C   0  0  0  0  0  2  0  0  0  0  0  0
  189.4200  176.7260  138.9420 C   0  0  0  0  0  2  0  0  0  0  0  0
  181.9140  179.4090  139.8280 C   0  0  0  0  0  3  0  0  0  0  0  0
  184.5890  178.5830  139.7180 C   0  0  0  0  0  0  0  0  0  0  0  0
  184.1800  179.7370  139.0400 C   0  0  0  0  0  3  0  0  0  0  0  0
  182.8460  180.1490  139.0930 C   0  0  0  0  0  3  0  0  0  0  0  0
  182.3170  178.2560  140.5090 C   0  0  0  0  0  3  0  0  0  0  0  0
  183.6520  177.8430  140.4560 C   0  0  0  0  0  3  0  0  0  0  0  0
  1 12  1  0  0  0  0
  2  6  1  1  0  0  0
  3 21  1  6  0  0  0
  3 16  1  0  0  0  0
  6 18  2  0  0  0  0
  7 13  2  0  0  0  0
  8 17  1  0  0  0  0
  9  7  1  0  0  0  0
 10  8  1  0  0  0  0
 11  7  1  1  0  0  0
 11 14  1  0  0  0  0
 12 23  1  1  0  0  0
 12  2  1  0  0  0  0
 13  4  1  0  0  0  0
 13  5  1  0  0  0  0
 14 18  1  0  0  0  0
 14  4  2  0  0  0  0
 15  1  2  0  0  0  0
 15  3  1  0  0  0  0
 16  2  1  0  0  0  0
 16 11  1  0  0  0  0
 17 21  1  0  0  0  0
 19 10  1  0  0  0  0
 19 20  1  0  0  0  0
 20 15  1  0  0  0  0
 22 26  1  0  0  0  0
 23 27  1  0  0  0  0
 24 25  1  0  0  0  0
 24 23  2  0  0  0  0
 25 22  2  0  0  0  0
 27 26  2  0  0  0  0
M  END
>  <MODEL>
5

>  <REMARK>
 VINA RESULT:      -7.8      2.162      5.908
  Name = 
  1 active torsions:
  status: ('A' for Active; 'I' for Inactive)
    1  A    between atoms: C_9  and  C_15
                            x       y       z     vdW  Elec       q    Type
                         _______ _______ _______ _____ _____    ______ ____

>  <TORSDO>
F 1

$$$$
=
 OpenBabel11052413443D

 27 31  0  0  1  0  0  0  0  0999 V2000
  190.4190  175.5040  136.3560 N   0  0  0  0  0  0  0  0  0  0  0  0
  191.8260  175.9630  138.3140 C   0  0  2  0  0  3  0  0  0  0  0  0
  189.2460  176.4220  138.2890 C   0  0  1  0  0  3  0  0  0  0  0  0
  192.0920  177.5080  141.9700 N   0  0  0  0  0  0  0  0  0  0  0  0
  190.2830  177.5670  143.7740 C   0  0  0  0  0  1  0  0  0  0  0  0
  193.1440  176.5360  138.8070 C   0  0  0  0  0  3  0  0  0  0  0  0
  189.9200  177.5410  141.2970 C   0  0  0  0  0  0  0  0  0  0  0  0
  187.7710  178.1790  135.8060 C   0  0  0  0  0  2  0  0  0  0  0  0
  188.4310  177.5990  141.3540 C   0  0  0  0  0  1  0  0  0  0  0  0
  188.2890  177.1850  134.7790 C   0  0  0  0  0  2  0  0  0  0  0  0
  190.7500  177.5870  140.0540 C   0  0  1  0  0  3  0  0  0  0  0  0
  191.6530  176.1160  136.7980 C   0  0  1  0  0  3  0  0  0  0  0  0
  190.7260  177.5590  142.3500 C   0  0  0  0  0  0  0  0  0  0  0  0
  192.0980  177.5120  140.6780 C   0  0  0  0  0  0  0  0  0  0  0  0
  189.3120  175.6340  137.0030 C   0  0  0  0  0  0  0  0  0  0  0  0
  190.5550  176.3790  139.1210 C   0  0  2  0  0  3  0  0  0  0  0  0
  188.8620  178.5090  136.8150 C   0  0  0  0  0  2  0  0  0  0  0  0
  193.2560  177.2000  139.9170 N   0  0  0  0  0  0  0  0  0  0  0  0
  187.7600  175.7620  135.0020 C   0  0  0  0  0  2  0  0  0  0  0  0
  188.0280  175.1640  136.3920 C   0  0  0  0  0  2  0  0  0  0  0  0
  188.5800  177.8040  138.1370 C   0  0  0  0  0  2  0  0  0  0  0  0
  194.9390  174.4340  134.5940 C   0  0  0  0  0  3  0  0  0  0  0  0
  192.8020  175.5430  136.0250 C   0  0  0  0  0  0  0  0  0  0  0  0
  192.9990  174.1580  136.0170 C   0  0  0  0  0  3  0  0  0  0  0  0
  194.0640  173.6040  135.3020 C   0  0  0  0  0  3  0  0  0  0  0  0
  194.7480  175.8180  134.6000 C   0  0  0  0  0  3  0  0  0  0  0  0
  193.6820  176.3740  135.3140 C   0  0  0  0  0  3  0  0  0  0  0  0
  1 12  1  0  0  0  0
  1 15  2  0  0  0  0
  2  6  1  1  0  0  0
  2 16  1  0  0  0  0
  3 21  1  6  0  0  0
  3 16  1  0  0  0  0
  4 13  1  0  0  0  0
  6 18  2  0  0  0  0
  7  9  1  0  0  0  0
  7 13  2  0  0  0  0
  8 17  1  0  0  0  0
 10 19  1  0  0  0  0
 10  8  1  0  0  0  0
 11 14  1  1  0  0  0
 11  7  1  0  0  0  0
 12 23  1  6  0  0  0
 12  2  1  0  0  0  0
 13  5  1  0  0  0  0
 14  4  2  0  0  0  0
 15  3  1  0  0  0  0
 16 11  1  0  0  0  0
 17 21  1  0  0  0  0
 18 14  1  0  0  0  0
 19 20  1  0  0  0  0
 20 15  1  0  0  0  0
 22 26  2  0  0  0  0
 22 25  1  0  0  0  0
 24 23  1  0  0  0  0
 25 24  2  0  0  0  0
 26 27  1  0  0  0  0
 27 23  2  0  0  0  0
M  END
>  <MODEL>
6

>  <REMARK>
 VINA RESULT:      -7.5      3.266      8.910
  Name = 
  1 active torsions:
  status: ('A' for Active; 'I' for Inactive)
    1  A    between atoms: C_9  and  C_15
                            x       y       z     vdW  Elec       q    Type
                         _______ _______ _______ _____ _____    ______ ____

>  <TORSDO>
F 1

$$$$
=
 OpenBabel11052413443D

 27 31  0  0  1  0  0  0  0  0999 V2000
  188.9140  176.7240  144.4540 N   0  0  0  0  0  0  0  0  0  0  0  0
  186.8270  177.8340  143.7950 C   0  0  2  0  0  3  0  0  0  0  0  0
  188.5660  176.9420  142.0490 C   0  0  1  0  0  3  0  0  0  0  0  0
  184.6000  179.3220  140.8540 N   0  0  0  0  0  0  0  0  0  0  0  0
  184.4260  178.4780  138.4480 C   0  0  0  0  0  1  0  0  0  0  0  0
  185.8800  178.9910  144.0640 C   0  0  0  0  0  3  0  0  0  0  0  0
  186.4050  178.2630  139.9660 C   0  0  0  0  0  0  0  0  0  0  0  0
  191.8510  177.7150  142.2490 C   0  0  0  0  0  2  0  0  0  0  0  0
  187.2850  177.5690  138.9820 C   0  0  0  0  0  1  0  0  0  0  0  0
  191.9210  177.1080  143.6420 C   0  0  0  0  0  2  0  0  0  0  0  0
  186.8070  178.7120  141.3340 C   0  0  1  0  0  3  0  0  0  0  0  0
  188.0680  177.8730  144.6940 C   0  0  1  0  0  3  0  0  0  0  0  0
  185.1720  178.6850  139.7220 C   0  0  0  0  0  0  0  0  0  0  0  0
  185.5200  179.3230  141.7600 C   0  0  0  0  0  0  0  0  0  0  0  0
  189.1680  176.2870  143.2690 C   0  0  0  0  0  0  0  0  0  0  0  0
  187.1650  177.5630  142.2940 C   0  0  2  0  0  3  0  0  0  0  0  0
  190.5870  178.5510  142.1030 C   0  0  0  0  0  2  0  0  0  0  0  0
  185.2540  179.6280  143.1220 N   0  0  0  0  0  0  0  0  0  0  0  0
  191.5790  175.6130  143.6610 C   0  0  0  0  0  2  0  0  0  0  0  0
  190.2140  175.2350  143.0670 C   0  0  0  0  0  2  0  0  0  0  0  0
  189.5650  177.8060  141.2530 C   0  0  0  0  0  2  0  0  0  0  0  0
  187.1210  178.0760  148.8820 C   0  0  0  0  0  3  0  0  0  0  0  0
  187.7240  177.9470  146.1510 C   0  0  0  0  0  0  0  0  0  0  0  0
  188.7250  177.7240  147.1030 C   0  0  0  0  0  3  0  0  0  0  0  0
  188.4240  177.7890  148.4660 C   0  0  0  0  0  3  0  0  0  0  0  0
  186.1170  178.2980  147.9360 C   0  0  0  0  0  3  0  0  0  0  0  0
  186.4160  178.2340  146.5710 C   0  0  0  0  0  3  0  0  0  0  0  0
  1 12  1  0  0  0  0
  2  6  1  6  0  0  0
  2 12  1  0  0  0  0
  3 21  1  1  0  0  0
  3 16  1  0  0  0  0
  3 15  1  0  0  0  0
  4 14  2  0  0  0  0
  5 13  1  0  0  0  0
  8 10  1  0  0  0  0
  9  7  1  0  0  0  0
 10 19  1  0  0  0  0
 11  7  1  6  0  0  0
 11 14  1  0  0  0  0
 11 16  1  0  0  0  0
 12 23  1  1  0  0  0
 13  7  2  0  0  0  0
 13  4  1  0  0  0  0
 14 18  1  0  0  0  0
 15  1  2  0  0  0  0
 16  2  1  0  0  0  0
 17  8  1  0  0  0  0
 18  6  2  0  0  0  0
 20 15  1  0  0  0  0
 20 19  1  0  0  0  0
 21 17  1  0  0  0  0
 23 27  2  0  0  0  0
 23 24  1  0  0  0  0
 24 25  2  0  0  0  0
 25 22  1  0  0  0  0
 26 22  2  0  0  0  0
 27 26  1  0  0  0  0
M  END
>  <MODEL>
7

>  <REMARK>
 VINA RESULT:      -7.3      1.773      2.902
  Name = 
  1 active torsions:
  status: ('A' for Active; 'I' for Inactive)
    1  A    between atoms: C_9  and  C_15
                            x       y       z     vdW  Elec       q    Type
                         _______ _______ _______ _____ _____    ______ ____

>  <TORSDO>
F 1

$$$$
=
 OpenBabel11052413443D

 27 31  0  0  1  0  0  0  0  0999 V2000
  190.7290  177.5810  141.1390 N   0  0  0  0  0  0  0  0  0  0  0  0
  189.1300  177.6680  139.2790 C   0  0  2  0  0  3  0  0  0  0  0  0
  188.4960  178.3720  141.7230 C   0  0  1  0  0  3  0  0  0  0  0  0
  185.3810  178.2840  138.1010 N   0  0  0  0  0  0  0  0  0  0  0  0
  183.6820  179.9160  139.0930 C   0  0  0  0  0  1  0  0  0  0  0  0
  188.5860  176.9490  138.0560 C   0  0  0  0  0  3  0  0  0  0  0  0
  185.5700  178.8060  140.3060 C   0  0  0  0  0  0  0  0  0  0  0  0
  189.1360  176.3770  144.3770 C   0  0  0  0  0  2  0  0  0  0  0  0
  185.2760  179.4050  141.6400 C   0  0  0  0  0  1  0  0  0  0  0  0
  190.6180  176.3810  144.0360 C   0  0  0  0  0  2  0  0  0  0  0  0
  186.6270  177.7880  140.0180 C   0  0  1  0  0  3  0  0  0  0  0  0
  190.1890  176.8410  140.0190 C   0  0  1  0  0  3  0  0  0  0  0  0
  184.8570  179.0050  139.2060 C   0  0  0  0  0  0  0  0  0  0  0  0
  186.3830  177.6120  138.5620 C   0  0  0  0  0  0  0  0  0  0  0  0
  189.9870  178.2720  141.9340 C   0  0  0  0  0  0  0  0  0  0  0  0
  188.0640  178.2940  140.2340 C   0  0  2  0  0  3  0  0  0  0  0  0
  188.3060  176.2010  143.1120 C   0  0  0  0  0  2  0  0  0  0  0  0
  187.3330  176.9770  137.7180 N   0  0  0  0  0  0  0  0  0  0  0  0
  191.2400  177.7820  144.0820 C   0  0  0  0  0  2  0  0  0  0  0  0
  190.5650  178.8390  143.1940 C   0  0  0  0  0  2  0  0  0  0  0  0
  187.6710  177.5290  142.7160 C   0  0  0  0  0  2  0  0  0  0  0  0
  193.4170  175.6080  137.4620 C   0  0  0  0  0  3  0  0  0  0  0  0
  191.3060  176.4000  139.1230 C   0  0  0  0  0  0  0  0  0  0  0  0
  192.5010  177.1280  139.1090 C   0  0  0  0  0  3  0  0  0  0  0  0
  193.5550  176.7330  138.2810 C   0  0  0  0  0  3  0  0  0  0  0  0
  192.2250  174.8780  137.4700 C   0  0  0  0  0  3  0  0  0  0  0  0
  191.1700  175.2720  138.2990 C   0  0  0  0  0  3  0  0  0  0  0  0
  1 15  2  0  0  0  0
  2  6  1  6  0  0  0
  2 12  1  0  0  0  0
  2 16  1  0  0  0  0
  3 15  1  0  0  0  0
  3 21  1  1  0  0  0
  4 14  2  0  0  0  0
  4 13  1  0  0  0  0
  5 13  1  0  0  0  0
  7  9  1  0  0  0  0
 10 19  1  0  0  0  0
 10  8  1  0  0  0  0
 11 14  1  6  0  0  0
 11 16  1  0  0  0  0
 11  7  1  0  0  0  0
 12 23  1  6  0  0  0
 12  1  1  0  0  0  0
 13  7  2  0  0  0  0
 15 20  1  0  0  0  0
 16  3  1  0  0  0  0
 17  8  1  0  0  0  0
 18  6  2  0  0  0  0
 18 14  1  0  0  0  0
 20 19  1  0  0  0  0
 21 17  1  0  0  0  0
 22 26  2  0  0  0  0
 22 25  1  0  0  0  0
 24 23  1  0  0  0  0
 25 24  2  0  0  0  0
 26 27  1  0  0  0  0
 27 23  2  0  0  0  0
M  END
>  <MODEL>
8

>  <REMARK>
 VINA RESULT:      -7.1      2.123      5.975
  Name = 
  1 active torsions:
  status: ('A' for Active; 'I' for Inactive)
    1  A    between atoms: C_9  and  C_15
                            x       y       z     vdW  Elec       q    Type
                         _______ _______ _______ _____ _____    ______ ____

>  <TORSDO>
F 1

$$$$
=
 OpenBabel11052413443D

 27 31  0  0  1  0  0  0  0  0999 V2000
  183.0450  178.4330  140.3140 N   0  0  0  0  0  0  0  0  0  0  0  0
  185.4900  178.6280  140.4020 C   0  0  2  0  0  3  0  0  0  0  0  0
  184.1940  178.0830  138.1900 C   0  0  1  0  0  3  0  0  0  0  0  0
  188.9590  178.2440  138.4940 N   0  0  0  0  0  0  0  0  0  0  0  0
  189.4300  178.6500  136.0150 C   0  0  0  0  0  1  0  0  0  0  0  0
  186.7510  178.2780  141.1740 C   0  0  0  0  0  3  0  0  0  0  0  0
  187.2550  177.9290  137.0230 C   0  0  0  0  0  0  0  0  0  0  0  0
  181.8890  175.6140  138.0360 C   0  0  0  0  0  2  0  0  0  0  0  0
  186.5080  177.8330  135.7350 C   0  0  0  0  0  1  0  0  0  0  0  0
  181.0850  176.2800  139.1420 C   0  0  0  0  0  2  0  0  0  0  0  0
  186.7280  177.5500  138.3700 C   0  0  1  0  0  3  0  0  0  0  0  0
  184.2300  178.0270  141.0370 C   0  0  1  0  0  3  0  0  0  0  0  0
  188.5350  178.2550  137.1400 C   0  0  0  0  0  0  0  0  0  0  0  0
  187.9350  177.8580  139.1810 C   0  0  0  0  0  0  0  0  0  0  0  0
  182.9940  178.4560  139.0260 C   0  0  0  0  0  0  0  0  0  0  0  0
  185.5550  178.4200  138.8550 C   0  0  2  0  0  3  0  0  0  0  0  0
  183.3730  175.6390  138.3760 C   0  0  0  0  0  2  0  0  0  0  0  0
  187.8730  177.9760  140.5960 N   0  0  0  0  0  0  0  0  0  0  0  0
  180.5940  177.6830  138.7640 C   0  0  0  0  0  2  0  0  0  0  0  0
  181.6850  178.6750  138.3320 C   0  0  0  0  0  2  0  0  0  0  0  0
  184.0830  176.6920  137.5330 C   0  0  0  0  0  2  0  0  0  0  0  0
  183.8520  179.0570  145.1940 C   0  0  0  0  0  3  0  0  0  0  0  0
  184.0840  178.3900  142.4840 C   0  0  0  0  0  0  0  0  0  0  0  0
  185.1940  178.2890  143.3300 C   0  0  0  0  0  3  0  0  0  0  0  0
  185.0790  178.6230  144.6830 C   0  0  0  0  0  3  0  0  0  0  0  0
  182.7400  179.1570  144.3530 C   0  0  0  0  0  3  0  0  0  0  0  0
  182.8540  178.8240  143.0000 C   0  0  0  0  0  3  0  0  0  0  0  0
  1 12  1  0  0  0  0
  2 12  1  0  0  0  0
  2  6  1  1  0  0  0
  3 21  1  1  0  0  0
  3 16  1  0  0  0  0
  3 15  1  0  0  0  0
  4 14  2  0  0  0  0
  5 13  1  0  0  0  0
  7 13  2  0  0  0  0
  8 17  1  0  0  0  0
  8 10  1  0  0  0  0
  9  7  1  0  0  0  0
 11  7  1  6  0  0  0
 11 16  1  0  0  0  0
 11 14  1  0  0  0  0
 12 23  1  1  0  0  0
 13  4  1  0  0  0  0
 14 18  1  0  0  0  0
 15  1  2  0  0  0  0
 16  2  1  0  0  0  0
 18  6  2  0  0  0  0
 19 10  1  0  0  0  0
 20 19  1  0  0  0  0
 20 15  1  0  0  0  0
 21 17  1  0  0  0  0
 23 27  2  0  0  0  0
 23 24  1  0  0  0  0
 24 25  2  0  0  0  0
 25 22  1  0  0  0  0
 26 22  2  0  0  0  0
 27 26  1  0  0  0  0
M  END
>  <MODEL>
9

>  <REMARK>
 VINA RESULT:      -7.0      3.290      6.269
  Name = 
  1 active torsions:
  status: ('A' for Active; 'I' for Inactive)
    1  A    between atoms: C_9  and  C_15
                            x       y       z     vdW  Elec       q    Type
                         _______ _______ _______ _____ _____    ______ ____

>  <TORSDO>
F 1

$$$$
