=
 OpenBabel11052414043D

 34 38  0  0  1  0  0  0  0  0999 V2000
  185.8700  178.2110  139.0080 C   0  0  2  0  0  3  0  0  0  0  0  0
  183.7660  177.5670  137.7310 C   0  0  0  0  0  0  0  0  0  0  0  0
  182.0100  177.3050  136.0730 O   0  0  0  0  0  0  0  0  0  0  0  0
  183.6070  179.4080  139.4930 C   0  0  2  0  0  3  0  0  0  0  0  0
  180.2080  181.1630  138.7920 C   0  0  0  0  0  2  0  0  0  0  0  0
  184.3580  176.5560  137.3770 O   0  0  0  0  0  0  0  0  0  0  0  0
  181.8690  179.2050  137.5970 C   0  0  1  0  0  3  0  0  0  0  0  0
  181.9180  175.6750  138.8220 N   0  0  0  0  0  2  0  0  0  0  0  0
  181.2770  176.2220  136.5990 C   0  0  1  0  0  3  0  0  0  0  0  0
  181.3510  176.7350  138.0060 C   0  0  2  0  0  3  0  0  0  0  0  0
  184.5040  178.6810  138.4460 C   0  0  1  0  0  3  0  0  0  0  0  0
  180.1430  180.8700  137.4140 O   0  0  0  0  0  0  0  0  0  0  0  0
  181.6480  181.0480  139.3050 C   0  0  2  0  0  3  0  0  0  0  0  0
  180.0380  173.8640  137.9130 S   0  0  0  0  0  0  0  0  0  0  0  0
  183.7230  178.7670  140.8640 C   0  0  0  0  0  0  0  0  0  0  0  0
  179.0450  175.2340  137.1720 C   0  0  0  0  0  2  0  0  0  0  0  0
  186.1380  178.6880  140.4390 C   0  0  0  0  0  2  0  0  0  0  0  0
  182.3000  177.7470  137.3820 C   0  0  2  0  0  0  0  0  0  0  0  0
  182.4590  181.9810  138.6540 O   0  0  0  0  0  1  0  0  0  0  0  0
  180.3990  179.4920  137.2690 C   0  0  0  0  0  2  0  0  0  0  0  0
  182.1450  179.6240  139.0440 C   0  0  2  0  0  3  0  0  0  0  0  0
  184.9390  178.4090  141.2950 C   0  0  0  0  0  3  0  0  0  0  0  0
  179.8280  176.1020  136.1650 C   0  0  0  0  0  2  0  0  0  0  0  0
  180.7790  174.8680  139.2750 C   0  0  0  0  0  2  0  0  0  0  0  0
  187.7630  177.5450  138.0730 C   0  0  0  0  0  1  0  0  0  0  0  0
  186.8990  178.6380  138.1670 O   0  0  0  0  0  0  0  0  0  0  0  0
  182.5080  178.4140  141.6850 C   0  0  0  0  0  2  0  0  0  0  0  0
  182.2820  179.3260  142.8960 C   0  0  1  0  0  3  0  0  0  0  0  0
  179.8930  178.9930  143.6610 C   0  0  0  0  0  0  0  0  0  0  0  0
  179.0070  178.4400  144.5750 O   0  0  0  0  0  1  0  0  0  0  0  0
  181.2930  178.7550  143.8000 N   0  0  0  0  0  2  0  0  0  0  0  0
  179.4510  179.6970  142.7130 O   0  0  0  0  0  0  0  0  0  0  0  0
  183.3000  178.7490  145.2460 C   0  0  0  0  0  1  0  0  0  0  0  0
  183.8360  179.6770  143.7820 S   0  0  0  0  0  0  0  0  0  0  0  0
  1 26  1  6  0  0  0
  1 17  1  0  0  0  0
  3  9  1  0  0  0  0
  4 15  1  1  0  0  0
  5 13  1  0  0  0  0
  6  2  2  0  0  0  0
  7 20  1  1  0  0  0
  7 21  1  0  0  0  0
  8 24  1  0  0  0  0
  9 23  1  6  0  0  0
  9 10  1  0  0  0  0
 10  8  1  1  0  0  0
 11  2  1  1  0  0  0
 11  1  1  0  0  0  0
 11  4  1  0  0  0  0
 12  5  1  0  0  0  0
 13 19  1  6  0  0  0
 14 24  1  0  0  0  0
 15 22  2  0  0  0  0
 15 27  1  0  0  0  0
 16 14  1  0  0  0  0
 17 22  1  0  0  0  0
 18  3  1  6  0  0  0
 18  7  1  0  0  0  0
 18  2  1  0  0  0  0
 18 10  1  0  0  0  0
 20 12  1  0  0  0  0
 21 13  1  0  0  0  0
 21  4  1  0  0  0  0
 23 16  1  0  0  0  0
 25 26  1  0  0  0  0
 27 28  1  0  0  0  0
 28 34  1  0  0  0  0
 28 31  1  0  0  0  0
 29 31  1  0  0  0  0
 29 30  1  0  0  0  0
 32 29  2  0  0  0  0
 34 33  1  0  0  0  0
M  END
>  <MODEL>
1

>  <REMARK>
 VINA RESULT:      -5.3      0.000      0.000
  Name = 
  5 active torsions:
  status: ('A' for Active; 'I' for Inactive)
    1  A    between atoms: C_1  and  O_19
    2  A    between atoms: C_12  and  N_23
    3  A    between atoms: C_12  and  S_27
    4  A    between atoms: C_12  and  C_28
    5  A    between atoms: C_21  and  C_28
                            x       y       z     vdW  Elec       q    Type
                         _______ _______ _______ _____ _____    ______ ____

>  <TORSDO>
F 5

$$$$
=
 OpenBabel11052414043D

 34 38  0  0  1  0  0  0  0  0999 V2000
  181.1620  179.9450  136.1800 C   0  0  2  0  0  3  0  0  0  0  0  0
  182.0650  177.6030  135.7700 C   0  0  0  0  0  0  0  0  0  0  0  0
  182.3880  175.2940  135.0880 O   0  0  0  0  0  0  0  0  0  0  0  0
  181.0590  178.1400  138.0550 C   0  0  2  0  0  3  0  0  0  0  0  0
  180.4900  174.6760  139.7290 C   0  0  0  0  0  2  0  0  0  0  0  0
  182.6340  178.0540  134.7860 O   0  0  0  0  0  0  0  0  0  0  0  0
  181.2480  175.7120  137.2050 C   0  0  1  0  0  3  0  0  0  0  0  0
  184.7280  176.9080  136.5510 N   0  0  0  0  0  2  0  0  0  0  0  0
  183.7660  175.1150  135.3210 C   0  0  1  0  0  3  0  0  0  0  0  0
  183.7360  175.8500  136.6270 C   0  0  2  0  0  3  0  0  0  0  0  0
  181.0510  178.4390  136.5260 C   0  0  1  0  0  3  0  0  0  0  0  0
  180.3340  173.9330  138.5410 O   0  0  0  0  0  0  0  0  0  0  0  0
  180.2470  176.1680  139.4740 C   0  0  2  0  0  3  0  0  0  0  0  0
  186.6970  175.1140  135.8090 S   0  0  0  0  0  0  0  0  0  0  0  0
  182.0190  179.0560  138.7950 C   0  0  0  0  0  0  0  0  0  0  0  0
  185.6050  173.6950  136.2650 C   0  0  0  0  0  2  0  0  0  0  0  0
  181.1030  180.8600  137.4070 C   0  0  0  0  0  2  0  0  0  0  0  0
  182.3120  176.1660  136.1960 C   0  0  2  0  0  0  0  0  0  0  0  0
  178.9330  176.3670  139.0430 O   0  0  0  0  0  1  0  0  0  0  0  0
  181.4100  174.2680  137.6960 C   0  0  0  0  0  2  0  0  0  0  0  0
  181.2420  176.6500  138.4160 C   0  0  2  0  0  3  0  0  0  0  0  0
  182.0420  180.3520  138.4590 C   0  0  0  0  0  3  0  0  0  0  0  0
  184.2450  173.6920  135.5360 C   0  0  0  0  0  2  0  0  0  0  0  0
  185.9840  176.3120  137.0220 C   0  0  0  0  0  2  0  0  0  0  0  0
  180.6000  181.4850  134.6910 C   0  0  0  0  0  1  0  0  0  0  0  0
  180.1570  180.2980  135.2780 O   0  0  0  0  0  0  0  0  0  0  0  0
  183.0180  178.5260  139.7920 C   0  0  0  0  0  2  0  0  0  0  0  0
  182.7060  178.8910  141.2480 C   0  0  1  0  0  3  0  0  0  0  0  0
  180.5000  178.9310  142.4850 C   0  0  0  0  0  0  0  0  0  0  0  0
  179.3600  178.2550  142.8980 O   0  0  0  0  0  1  0  0  0  0  0  0
  181.4750  178.2540  141.6920 N   0  0  0  0  0  2  0  0  0  0  0  0
  180.6620  180.1370  142.8110 O   0  0  0  0  0  0  0  0  0  0  0  0
  185.3280  179.0020  141.1530 C   0  0  0  0  0  1  0  0  0  0  0  0
  184.0860  178.4690  142.3640 S   0  0  0  0  0  0  0  0  0  0  0  0
  1 26  1  6  0  0  0
  1 11  1  0  0  0  0
  1 17  1  0  0  0  0
  2 18  1  0  0  0  0
  3  9  1  0  0  0  0
  4 21  1  0  0  0  0
  4 15  1  1  0  0  0
  6  2  2  0  0  0  0
  7 20  1  1  0  0  0
  7 21  1  0  0  0  0
  8 24  1  0  0  0  0
  9 23  1  1  0  0  0
  9 10  1  0  0  0  0
 10  8  1  6  0  0  0
 11  2  1  6  0  0  0
 11  4  1  0  0  0  0
 12  5  1  0  0  0  0
 13 19  1  6  0  0  0
 13  5  1  0  0  0  0
 14 16  1  0  0  0  0
 14 24  1  0  0  0  0
 15 27  1  0  0  0  0
 17 22  1  0  0  0  0
 18  3  1  6  0  0  0
 18 10  1  0  0  0  0
 18  7  1  0  0  0  0
 20 12  1  0  0  0  0
 21 13  1  0  0  0  0
 22 15  2  0  0  0  0
 23 16  1  0  0  0  0
 25 26  1  0  0  0  0
 27 28  1  0  0  0  0
 28 31  1  0  0  0  0
 28 34  1  0  0  0  0
 29 32  2  0  0  0  0
 29 30  1  0  0  0  0
 31 29  1  0  0  0  0
 33 34  1  0  0  0  0
M  END
>  <MODEL>
2

>  <REMARK>
 VINA RESULT:      -5.2      2.541      4.643
  Name = 
  5 active torsions:
  status: ('A' for Active; 'I' for Inactive)
    1  A    between atoms: C_1  and  O_19
    2  A    between atoms: C_12  and  N_23
    3  A    between atoms: C_12  and  S_27
    4  A    between atoms: C_12  and  C_28
    5  A    between atoms: C_21  and  C_28
                            x       y       z     vdW  Elec       q    Type
                         _______ _______ _______ _____ _____    ______ ____

>  <TORSDO>
F 5

$$$$
=
 OpenBabel11052414043D

 34 38  0  0  1  0  0  0  0  0999 V2000
  182.1680  174.7840  137.6610 C   0  0  2  0  0  3  0  0  0  0  0  0
  180.7470  176.3480  139.0760 C   0  0  0  0  0  0  0  0  0  0  0  0
  178.9320  177.6110  140.0840 O   0  0  0  0  0  0  0  0  0  0  0  0
  182.0740  177.3330  137.1300 C   0  0  2  0  0  3  0  0  0  0  0  0
  180.5550  180.8700  136.5810 C   0  0  0  0  0  2  0  0  0  0  0  0
  180.6870  175.4510  139.9070 O   0  0  0  0  0  0  0  0  0  0  0  0
  180.0200  178.5470  138.1100 C   0  0  1  0  0  3  0  0  0  0  0  0
  181.9020  177.8030  141.2520 N   0  0  0  0  0  2  0  0  0  0  0  0
  179.5450  178.1170  141.2460 C   0  0  1  0  0  3  0  0  0  0  0  0
  180.8210  178.4600  140.5370 C   0  0  2  0  0  3  0  0  0  0  0  0
  181.3320  176.0870  137.7020 C   0  0  1  0  0  3  0  0  0  0  0  0
  179.2660  180.5840  137.0770 O   0  0  0  0  0  0  0  0  0  0  0  0
  181.2860  179.5810  136.1900 C   0  0  2  0  0  3  0  0  0  0  0  0
  181.0970  178.9180  143.6500 S   0  0  0  0  0  0  0  0  0  0  0  0
  183.5460  177.3220  137.5030 C   0  0  0  0  0  0  0  0  0  0  0  0
  179.9670  180.0740  142.7580 C   0  0  0  0  0  2  0  0  0  0  0  0
  183.5040  174.9380  136.9250 C   0  0  0  0  0  2  0  0  0  0  0  0
  180.1590  177.7120  139.3910 C   0  0  2  0  0  0  0  0  0  0  0  0
  180.5920  178.9360  135.1620 O   0  0  0  0  0  1  0  0  0  0  0  0
  179.4310  179.9470  138.3220 C   0  0  0  0  0  2  0  0  0  0  0  0
  181.3830  178.6820  137.4240 C   0  0  2  0  0  3  0  0  0  0  0  0
  184.2120  176.1630  137.4190 C   0  0  0  0  0  3  0  0  0  0  0  0
  178.9360  179.3680  141.8520 C   0  0  0  0  0  2  0  0  0  0  0  0
  182.3310  178.7520  142.2850 C   0  0  0  0  0  2  0  0  0  0  0  0
  182.2980  173.1390  136.1840 C   0  0  0  0  0  1  0  0  0  0  0  0
  181.4210  173.7610  137.0750 O   0  0  0  0  0  0  0  0  0  0  0  0
  184.2330  178.5360  138.0770 C   0  0  0  0  0  2  0  0  0  0  0  0
  185.5200  178.2240  138.8470 C   0  0  1  0  0  3  0  0  0  0  0  0
  187.6820  177.8810  137.5780 C   0  0  0  0  0  0  0  0  0  0  0  0
  188.7840  178.4360  136.9420 O   0  0  0  0  0  0  0  0  0  0  0  0
  186.6870  178.7350  138.1410 N   0  0  0  0  0  2  0  0  0  0  0  0
  187.5690  176.6280  137.6490 O   0  0  0  0  0  1  0  0  0  0  0  0
  187.2280  178.5270  140.8180 C   0  0  0  0  0  1  0  0  0  0  0  0
  185.4660  178.8710  140.5510 S   0  0  0  0  0  0  0  0  0  0  0  0
  1 26  1  6  0  0  0
  1 11  1  0  0  0  0
  2  6  2  0  0  0  0
  3  9  1  0  0  0  0
  4 21  1  0  0  0  0
  4 15  1  1  0  0  0
  4 11  1  0  0  0  0
  5 12  1  0  0  0  0
  7 20  1  1  0  0  0
  7 18  1  0  0  0  0
  8 24  1  0  0  0  0
  9 23  1  6  0  0  0
 10  9  1  0  0  0  0
 10  8  1  1  0  0  0
 11  2  1  1  0  0  0
 12 20  1  0  0  0  0
 13 19  1  6  0  0  0
 13  5  1  0  0  0  0
 13 21  1  0  0  0  0
 15 27  1  0  0  0  0
 16 14  1  0  0  0  0
 17 22  1  0  0  0  0
 17  1  1  0  0  0  0
 18  2  1  6  0  0  0
 18  3  1  0  0  0  0
 18 10  1  0  0  0  0
 21  7  1  0  0  0  0
 22 15  2  0  0  0  0
 23 16  1  0  0  0  0
 24 14  1  0  0  0  0
 25 26  1  0  0  0  0
 27 28  1  0  0  0  0
 28 34  1  0  0  0  0
 29 32  1  0  0  0  0
 29 31  1  0  0  0  0
 30 29  2  0  0  0  0
 31 28  1  0  0  0  0
 34 33  1  0  0  0  0
M  END
>  <MODEL>
3

>  <REMARK>
 VINA RESULT:      -5.1      2.503      5.674
  Name = 
  5 active torsions:
  status: ('A' for Active; 'I' for Inactive)
    1  A    between atoms: C_1  and  O_19
    2  A    between atoms: C_12  and  N_23
    3  A    between atoms: C_12  and  S_27
    4  A    between atoms: C_12  and  C_28
    5  A    between atoms: C_21  and  C_28
                            x       y       z     vdW  Elec       q    Type
                         _______ _______ _______ _____ _____    ______ ____

>  <TORSDO>
F 5

$$$$
=
 OpenBabel11052414043D

 34 38  0  0  1  0  0  0  0  0999 V2000
  192.9180  176.3790  137.6410 C   0  0  2  0  0  3  0  0  0  0  0  0
  190.9200  175.5490  136.3050 C   0  0  0  0  0  0  0  0  0  0  0  0
  189.2490  175.1220  134.5940 O   0  0  0  0  0  0  0  0  0  0  0  0
  190.5500  177.3900  138.0340 C   0  0  2  0  0  3  0  0  0  0  0  0
  187.0430  178.8490  137.1970 C   0  0  0  0  0  2  0  0  0  0  0  0
  191.6040  174.5860  135.9850 O   0  0  0  0  0  0  0  0  0  0  0  0
  188.9000  177.0220  136.0860 C   0  0  1  0  0  3  0  0  0  0  0  0
  189.1980  173.5220  137.3620 N   0  0  0  0  0  2  0  0  0  0  0  0
  188.5910  173.9890  135.1110 C   0  0  1  0  0  3  0  0  0  0  0  0
  188.5740  174.5220  136.5120 C   0  0  2  0  0  3  0  0  0  0  0  0
  191.5390  176.7280  137.0290 C   0  0  1  0  0  3  0  0  0  0  0  0
  187.0490  178.5350  135.8220 O   0  0  0  0  0  0  0  0  0  0  0  0
  188.4690  178.8590  137.7590 C   0  0  2  0  0  3  0  0  0  0  0  0
  187.5060  171.5510  136.4170 S   0  0  0  0  0  0  0  0  0  0  0  0
  190.6710  176.7760  139.4180 C   0  0  0  0  0  0  0  0  0  0  0  0
  186.4290  172.8250  135.6250 C   0  0  0  0  0  2  0  0  0  0  0  0
  193.0980  176.8930  139.0740 C   0  0  0  0  0  2  0  0  0  0  0  0
  189.4560  175.6020  135.9060 C   0  0  2  0  0  0  0  0  0  0  0  0
  189.2220  179.8490  137.1220 O   0  0  0  0  0  1  0  0  0  0  0  0
  187.4230  177.1820  135.7050 C   0  0  0  0  0  2  0  0  0  0  0  0
  189.0910  177.4790  137.5350 C   0  0  2  0  0  3  0  0  0  0  0  0
  191.8980  176.5260  139.8930 C   0  0  0  0  0  3  0  0  0  0  0  0
  187.1720  173.7440  134.6320 C   0  0  0  0  0  2  0  0  0  0  0  0
  188.1160  172.6290  137.7880 C   0  0  0  0  0  2  0  0  0  0  0  0
  194.6530  175.7560  136.4140 C   0  0  0  0  0  1  0  0  0  0  0  0
  193.9370  176.8810  136.8280 O   0  0  0  0  0  0  0  0  0  0  0  0
  189.4630  176.3340  140.2030 C   0  0  0  0  0  2  0  0  0  0  0  0
  189.3460  176.9740  141.5910 C   0  0  1  0  0  3  0  0  0  0  0  0
  187.3120  178.4800  141.5780 C   0  0  0  0  0  0  0  0  0  0  0  0
  185.9910  178.6900  141.9480 O   0  0  0  0  0  1  0  0  0  0  0  0
  187.9550  177.2520  141.9210 N   0  0  0  0  0  2  0  0  0  0  0  0
  187.9310  179.3730  140.9400 O   0  0  0  0  0  0  0  0  0  0  0  0
  191.2370  177.2800  143.3870 C   0  0  0  0  0  1  0  0  0  0  0  0
  190.1180  175.9430  142.8810 S   0  0  0  0  0  0  0  0  0  0  0  0
  1 26  1  6  0  0  0
  1 17  1  0  0  0  0
  3  9  1  0  0  0  0
  4 15  1  1  0  0  0
  5 13  1  0  0  0  0
  6  2  2  0  0  0  0
  7 20  1  1  0  0  0
  7 21  1  0  0  0  0
  8 24  1  0  0  0  0
  9 23  1  6  0  0  0
  9 10  1  0  0  0  0
 10  8  1  1  0  0  0
 11  2  1  1  0  0  0
 11  1  1  0  0  0  0
 11  4  1  0  0  0  0
 12  5  1  0  0  0  0
 13 19  1  6  0  0  0
 14 24  1  0  0  0  0
 15 22  2  0  0  0  0
 15 27  1  0  0  0  0
 16 14  1  0  0  0  0
 17 22  1  0  0  0  0
 18  3  1  6  0  0  0
 18  7  1  0  0  0  0
 18  2  1  0  0  0  0
 18 10  1  0  0  0  0
 20 12  1  0  0  0  0
 21 13  1  0  0  0  0
 21  4  1  0  0  0  0
 23 16  1  0  0  0  0
 25 26  1  0  0  0  0
 27 28  1  0  0  0  0
 28 31  1  0  0  0  0
 28 34  1  0  0  0  0
 29 31  1  0  0  0  0
 29 30  1  0  0  0  0
 32 29  2  0  0  0  0
 34 33  1  0  0  0  0
M  END
>  <MODEL>
4

>  <REMARK>
 VINA RESULT:      -4.7      5.737      7.586
  Name = 
  5 active torsions:
  status: ('A' for Active; 'I' for Inactive)
    1  A    between atoms: C_1  and  O_19
    2  A    between atoms: C_12  and  N_23
    3  A    between atoms: C_12  and  S_27
    4  A    between atoms: C_12  and  C_28
    5  A    between atoms: C_21  and  C_28
                            x       y       z     vdW  Elec       q    Type
                         _______ _______ _______ _____ _____    ______ ____

>  <TORSDO>
F 5

$$$$
=
 OpenBabel11052414043D

 34 38  0  0  1  0  0  0  0  0999 V2000
  192.8720  176.3790  137.6510 C   0  0  2  0  0  3  0  0  0  0  0  0
  190.8860  175.5310  136.3080 C   0  0  0  0  0  0  0  0  0  0  0  0
  189.2160  175.1010  134.5960 O   0  0  0  0  0  0  0  0  0  0  0  0
  190.4830  177.3280  138.0760 C   0  0  2  0  0  3  0  0  0  0  0  0
  186.9400  178.7220  137.2860 C   0  0  0  0  0  2  0  0  0  0  0  0
  191.5910  174.5910  135.9650 O   0  0  0  0  0  0  0  0  0  0  0  0
  188.8320  176.9620  136.1280 C   0  0  1  0  0  3  0  0  0  0  0  0
  189.2160  173.4440  137.3310 N   0  0  0  0  0  2  0  0  0  0  0  0
  188.5860  173.9430  135.0930 C   0  0  1  0  0  3  0  0  0  0  0  0
  188.5650  174.4470  136.5050 C   0  0  2  0  0  3  0  0  0  0  0  0
  191.4820  176.7090  137.0520 C   0  0  1  0  0  3  0  0  0  0  0  0
  186.9460  178.4370  135.9050 O   0  0  0  0  0  0  0  0  0  0  0  0
  188.3680  178.7540  137.8410 C   0  0  2  0  0  3  0  0  0  0  0  0
  187.5650  171.4550  136.3540 S   0  0  0  0  0  0  0  0  0  0  0  0
  190.6260  176.6890  139.4460 C   0  0  0  0  0  0  0  0  0  0  0  0
  186.4550  172.7200  135.5930 C   0  0  0  0  0  2  0  0  0  0  0  0
  193.0470  176.8680  139.0930 C   0  0  0  0  0  2  0  0  0  0  0  0
  189.4190  175.5590  135.9170 C   0  0  2  0  0  0  0  0  0  0  0  0
  189.0950  179.7740  137.2210 O   0  0  0  0  0  1  0  0  0  0  0  0
  187.3500  177.0960  135.7580 C   0  0  0  0  0  2  0  0  0  0  0  0
  189.0200  177.3930  137.5860 C   0  0  2  0  0  3  0  0  0  0  0  0
  191.8600  176.4570  139.9110 C   0  0  0  0  0  3  0  0  0  0  0  0
  187.1710  173.6750  134.6160 C   0  0  0  0  0  2  0  0  0  0  0  0
  188.1560  172.5180  137.7440 C   0  0  0  0  0  2  0  0  0  0  0  0
  194.6550  175.8280  136.4590 C   0  0  0  0  0  1  0  0  0  0  0  0
  193.8750  176.9200  136.8440 O   0  0  0  0  0  0  0  0  0  0  0  0
  189.4310  176.2020  140.2280 C   0  0  0  0  0  2  0  0  0  0  0  0
  189.1790  176.9680  141.5310 C   0  0  1  0  0  3  0  0  0  0  0  0
  190.8730  177.3130  143.3790 C   0  0  0  0  0  0  0  0  0  0  0  0
  192.0470  177.9130  143.8140 O   0  0  0  0  0  0  0  0  0  0  0  0
  190.4150  177.5410  142.0460 N   0  0  0  0  0  2  0  0  0  0  0  0
  190.2260  176.5690  144.1630 O   0  0  0  0  0  1  0  0  0  0  0  0
  187.0870  177.8070  142.8770 C   0  0  0  0  0  1  0  0  0  0  0  0
  187.9100  178.2610  141.3250 S   0  0  0  0  0  0  0  0  0  0  0  0
  1 26  1  6  0  0  0
  1 17  1  0  0  0  0
  3  9  1  0  0  0  0
  4 15  1  1  0  0  0
  5 13  1  0  0  0  0
  6  2  2  0  0  0  0
  7 20  1  1  0  0  0
  7 21  1  0  0  0  0
  8 24  1  0  0  0  0
  9 23  1  6  0  0  0
  9 10  1  0  0  0  0
 10  8  1  1  0  0  0
 11  2  1  1  0  0  0
 11  1  1  0  0  0  0
 11  4  1  0  0  0  0
 12  5  1  0  0  0  0
 13 19  1  6  0  0  0
 14 24  1  0  0  0  0
 15 22  2  0  0  0  0
 15 27  1  0  0  0  0
 16 14  1  0  0  0  0
 17 22  1  0  0  0  0
 18  3  1  6  0  0  0
 18  7  1  0  0  0  0
 18  2  1  0  0  0  0
 18 10  1  0  0  0  0
 20 12  1  0  0  0  0
 21 13  1  0  0  0  0
 21  4  1  0  0  0  0
 23 16  1  0  0  0  0
 25 26  1  0  0  0  0
 27 28  1  0  0  0  0
 28 31  1  0  0  0  0
 29 30  2  0  0  0  0
 29 32  1  0  0  0  0
 31 29  1  0  0  0  0
 34 28  1  0  0  0  0
 34 33  1  0  0  0  0
M  END
>  <MODEL>
5

>  <REMARK>
 VINA RESULT:      -4.5      6.084      7.930
  Name = 
  5 active torsions:
  status: ('A' for Active; 'I' for Inactive)
    1  A    between atoms: C_1  and  O_19
    2  A    between atoms: C_12  and  N_23
    3  A    between atoms: C_12  and  S_27
    4  A    between atoms: C_12  and  C_28
    5  A    between atoms: C_21  and  C_28
                            x       y       z     vdW  Elec       q    Type
                         _______ _______ _______ _____ _____    ______ ____

>  <TORSDO>
F 5

$$$$
=
 OpenBabel11052414043D

 34 38  0  0  1  0  0  0  0  0999 V2000
  184.8540  178.3490  140.0570 C   0  0  2  0  0  3  0  0  0  0  0  0
  183.8590  177.4270  137.9060 C   0  0  0  0  0  0  0  0  0  0  0  0
  183.2790  176.9660  135.5920 O   0  0  0  0  0  0  0  0  0  0  0  0
  182.4820  179.0870  139.2710 C   0  0  2  0  0  3  0  0  0  0  0  0
  179.6550  180.2480  136.8660 C   0  0  0  0  0  2  0  0  0  0  0  0
  184.7260  176.5640  137.9410 O   0  0  0  0  0  0  0  0  0  0  0  0
  182.0270  178.7040  136.7610 C   0  0  1  0  0  3  0  0  0  0  0  0
  182.1070  175.1650  137.9600 N   0  0  0  0  0  2  0  0  0  0  0  0
  182.5990  175.7370  135.7050 C   0  0  1  0  0  3  0  0  0  0  0  0
  181.8480  176.1590  136.9320 C   0  0  2  0  0  3  0  0  0  0  0  0
  183.9050  178.6040  138.8590 C   0  0  1  0  0  3  0  0  0  0  0  0
  180.3580  180.0410  135.6610 O   0  0  0  0  0  0  0  0  0  0  0  0
  180.6250  180.3580  138.0490 C   0  0  2  0  0  3  0  0  0  0  0  0
  181.3320  173.1120  136.2790 S   0  0  0  0  0  0  0  0  0  0  0  0
  182.0000  178.3860  140.5290 C   0  0  0  0  0  0  0  0  0  0  0  0
  180.6180  174.3290  135.0870 C   0  0  0  0  0  2  0  0  0  0  0  0
  184.2600  178.7690  141.4060 C   0  0  0  0  0  2  0  0  0  0  0  0
  182.7720  177.3640  136.8480 C   0  0  2  0  0  0  0  0  0  0  0  0
  181.4620  181.4630  137.8730 O   0  0  0  0  0  1  0  0  0  0  0  0
  180.9060  178.7450  135.7160 C   0  0  0  0  0  2  0  0  0  0  0  0
  181.4420  179.0670  138.1300 C   0  0  2  0  0  3  0  0  0  0  0  0
  182.8700  178.2240  141.5350 C   0  0  0  0  0  3  0  0  0  0  0  0
  181.6260  175.3890  134.5940 C   0  0  0  0  0  2  0  0  0  0  0  0
  181.0720  174.1390  137.7920 C   0  0  0  0  0  2  0  0  0  0  0  0
  186.8380  178.7060  140.9720 C   0  0  0  0  0  1  0  0  0  0  0  0
  186.0660  179.0090  139.8490 O   0  0  0  0  0  0  0  0  0  0  0  0
  180.6290  177.7670  140.6230 C   0  0  0  0  0  2  0  0  0  0  0  0
  179.6240  178.5880  141.4380 C   0  0  1  0  0  3  0  0  0  0  0  0
  179.8290  177.9810  143.8860 C   0  0  0  0  0  0  0  0  0  0  0  0
  179.3780  177.2310  144.9630 O   0  0  0  0  0  1  0  0  0  0  0  0
  179.1870  177.8540  142.6180 N   0  0  0  0  0  2  0  0  0  0  0  0
  180.7980  178.7730  144.0400 O   0  0  0  0  0  0  0  0  0  0  0  0
  178.9390  181.0990  141.0930 C   0  0  0  0  0  1  0  0  0  0  0  0
  180.2980  180.2150  141.9090 S   0  0  0  0  0  0  0  0  0  0  0  0
  1 26  1  6  0  0  0
  1 17  1  0  0  0  0
  2  6  2  0  0  0  0
  3  9  1  0  0  0  0
  4 15  1  1  0  0  0
  5 13  1  0  0  0  0
  7 20  1  6  0  0  0
  7 18  1  0  0  0  0
  7 21  1  0  0  0  0
  9 23  1  6  0  0  0
  9 10  1  0  0  0  0
 10  8  1  1  0  0  0
 11  2  1  1  0  0  0
 11  4  1  0  0  0  0
 11  1  1  0  0  0  0
 12 20  1  0  0  0  0
 12  5  1  0  0  0  0
 13 19  1  6  0  0  0
 13 21  1  0  0  0  0
 14 24  1  0  0  0  0
 15 27  1  0  0  0  0
 15 22  2  0  0  0  0
 16 14  1  0  0  0  0
 17 22  1  0  0  0  0
 18  3  1  6  0  0  0
 18 10  1  0  0  0  0
 18  2  1  0  0  0  0
 21  4  1  0  0  0  0
 23 16  1  0  0  0  0
 24  8  1  0  0  0  0
 26 25  1  0  0  0  0
 27 28  1  0  0  0  0
 28 34  1  0  0  0  0
 28 31  1  0  0  0  0
 29 32  2  0  0  0  0
 29 30  1  0  0  0  0
 31 29  1  0  0  0  0
 33 34  1  0  0  0  0
M  END
>  <MODEL>
6

>  <REMARK>
 VINA RESULT:      -4.3      1.744      2.216
  Name = 
  5 active torsions:
  status: ('A' for Active; 'I' for Inactive)
    1  A    between atoms: C_1  and  O_19
    2  A    between atoms: C_12  and  N_23
    3  A    between atoms: C_12  and  S_27
    4  A    between atoms: C_12  and  C_28
    5  A    between atoms: C_21  and  C_28
                            x       y       z     vdW  Elec       q    Type
                         _______ _______ _______ _____ _____    ______ ____

>  <TORSDO>
F 5

$$$$
=
 OpenBabel11052414043D

 34 38  0  0  1  0  0  0  0  0999 V2000
  186.1700  178.0000  138.0680 C   0  0  2  0  0  3  0  0  0  0  0  0
  183.7860  177.4210  137.3970 C   0  0  0  0  0  0  0  0  0  0  0  0
  181.6580  177.1840  136.2490 O   0  0  0  0  0  0  0  0  0  0  0  0
  184.1590  179.3460  139.0320 C   0  0  2  0  0  3  0  0  0  0  0  0
  180.7740  181.2600  139.1010 C   0  0  0  0  0  2  0  0  0  0  0  0
  184.2240  176.3620  136.9670 O   0  0  0  0  0  0  0  0  0  0  0  0
  181.9910  179.1580  137.6460 C   0  0  1  0  0  3  0  0  0  0  0  0
  182.1920  175.6900  139.0250 N   0  0  0  0  0  2  0  0  0  0  0  0
  181.0350  176.1710  137.0040 C   0  0  1  0  0  3  0  0  0  0  0  0
  181.4850  176.7420  138.3150 C   0  0  2  0  0  3  0  0  0  0  0  0
  184.7300  178.5220  137.8390 C   0  0  1  0  0  3  0  0  0  0  0  0
  180.3500  180.9080  137.8030 O   0  0  0  0  0  0  0  0  0  0  0  0
  182.2910  181.0850  139.2440 C   0  0  2  0  0  3  0  0  0  0  0  0
  180.0650  173.9500  138.7230 S   0  0  0  0  0  0  0  0  0  0  0  0
  184.5890  178.7630  140.3660 C   0  0  0  0  0  0  0  0  0  0  0  0
  178.9780  175.3400  138.1750 C   0  0  0  0  0  2  0  0  0  0  0  0
  186.8130  178.5250  139.3560 C   0  0  0  0  0  2  0  0  0  0  0  0
  182.2890  177.6690  137.4160 C   0  0  2  0  0  0  0  0  0  0  0  0
  182.9510  181.9400  138.3570 O   0  0  0  0  0  1  0  0  0  0  0  0
  180.5000  179.5130  137.6800 C   0  0  0  0  0  2  0  0  0  0  0  0
  182.6420  179.6250  138.9510 C   0  0  2  0  0  3  0  0  0  0  0  0
  185.8580  178.3560  140.4990 C   0  0  0  0  0  3  0  0  0  0  0  0
  179.5190  176.1150  136.9550 C   0  0  0  0  0  2  0  0  0  0  0  0
  181.1700  174.9710  139.7940 C   0  0  0  0  0  2  0  0  0  0  0  0
  188.2820  178.1530  137.4200 C   0  0  0  0  0  1  0  0  0  0  0  0
  186.9710  178.3280  136.9720 O   0  0  0  0  0  0  0  0  0  0  0  0
  183.6070  178.5180  141.4830 C   0  0  0  0  0  2  0  0  0  0  0  0
  184.2570  178.2910  142.8530 C   0  0  1  0  0  3  0  0  0  0  0  0
  186.5570  177.8360  143.8040 C   0  0  0  0  0  0  0  0  0  0  0  0
  187.9350  177.8780  143.6440 O   0  0  0  0  0  0  0  0  0  0  0  0
  185.7090  178.2800  142.7450 N   0  0  0  0  0  2  0  0  0  0  0  0
  186.0670  177.4010  144.8800 O   0  0  0  0  0  1  0  0  0  0  0  0
  182.1200  178.6950  144.3250 C   0  0  0  0  0  1  0  0  0  0  0  0
  183.7130  179.5290  144.0760 S   0  0  0  0  0  0  0  0  0  0  0  0
  1 26  1  6  0  0  0
  1 17  1  0  0  0  0
  2 18  1  0  0  0  0
  3  9  1  0  0  0  0
  4 15  1  1  0  0  0
  5 13  1  0  0  0  0
  6  2  2  0  0  0  0
  7 20  1  1  0  0  0
  7 21  1  0  0  0  0
  8 24  1  0  0  0  0
  9 23  1  1  0  0  0
  9 10  1  0  0  0  0
 10  8  1  1  0  0  0
 11  2  1  1  0  0  0
 11  1  1  0  0  0  0
 11  4  1  0  0  0  0
 12  5  1  0  0  0  0
 13 19  1  6  0  0  0
 14 24  1  0  0  0  0
 15 22  2  0  0  0  0
 15 27  1  0  0  0  0
 16 14  1  0  0  0  0
 17 22  1  0  0  0  0
 18  3  1  6  0  0  0
 18  7  1  0  0  0  0
 18 10  1  0  0  0  0
 20 12  1  0  0  0  0
 21  4  1  0  0  0  0
 21 13  1  0  0  0  0
 23 16  1  0  0  0  0
 26 25  1  0  0  0  0
 27 28  1  0  0  0  0
 28 34  1  0  0  0  0
 29 32  1  0  0  0  0
 30 29  2  0  0  0  0
 31 28  1  0  0  0  0
 31 29  1  0  0  0  0
 34 33  1  0  0  0  0
M  END
>  <MODEL>
7

>  <REMARK>
 VINA RESULT:      -3.6      1.935      2.568
  Name = 
  5 active torsions:
  status: ('A' for Active; 'I' for Inactive)
    1  A    between atoms: C_1  and  O_19
    2  A    between atoms: C_12  and  N_23
    3  A    between atoms: C_12  and  S_27
    4  A    between atoms: C_12  and  C_28
    5  A    between atoms: C_21  and  C_28
                            x       y       z     vdW  Elec       q    Type
                         _______ _______ _______ _____ _____    ______ ____

>  <TORSDO>
F 5

$$$$
=
 OpenBabel11052414043D

 34 38  0  0  1  0  0  0  0  0999 V2000
  182.0790  174.7710  137.7920 C   0  0  2  0  0  3  0  0  0  0  0  0
  181.3920  176.4140  139.6080 C   0  0  0  0  0  0  0  0  0  0  0  0
  180.1690  177.8500  141.1390 O   0  0  0  0  0  0  0  0  0  0  0  0
  182.2560  177.3390  137.3900 C   0  0  2  0  0  3  0  0  0  0  0  0
  181.2430  181.0940  137.4170 C   0  0  0  0  0  2  0  0  0  0  0  0
  181.4240  175.4760  140.3910 O   0  0  0  0  0  0  0  0  0  0  0  0
  180.7910  178.7650  138.9640 C   0  0  1  0  0  3  0  0  0  0  0  0
  183.3380  177.5120  141.3950 N   0  0  0  0  0  2  0  0  0  0  0  0
  181.1600  178.1700  142.0870 C   0  0  1  0  0  3  0  0  0  0  0  0
  182.2210  178.3740  141.0480 C   0  0  2  0  0  3  0  0  0  0  0  0
  181.5140  176.1770  138.1150 C   0  0  1  0  0  3  0  0  0  0  0  0
  180.1190  180.9630  138.2590 O   0  0  0  0  0  0  0  0  0  0  0  0
  181.6130  179.7450  136.7900 C   0  0  2  0  0  3  0  0  0  0  0  0
  183.4390  178.5460  143.9570 S   0  0  0  0  0  0  0  0  0  0  0  0
  183.7510  177.0830  137.3170 C   0  0  0  0  0  0  0  0  0  0  0  0
  182.3060  179.9220  143.4690 C   0  0  0  0  0  2  0  0  0  0  0  0
  183.1570  174.7820  136.7030 C   0  0  0  0  0  2  0  0  0  0  0  0
  181.1480  177.8220  140.1220 C   0  0  2  0  0  0  0  0  0  0  0  0
  180.5600  179.2900  135.9910 O   0  0  0  0  0  1  0  0  0  0  0  0
  180.5230  180.2160  139.3810 C   0  0  0  0  0  2  0  0  0  0  0  0
  181.9070  178.7490  137.9140 C   0  0  2  0  0  3  0  0  0  0  0  0
  184.1670  175.8480  137.0060 C   0  0  0  0  0  3  0  0  0  0  0  0
  180.9610  179.4470  142.8820 C   0  0  0  0  0  2  0  0  0  0  0  0
  184.1910  178.3050  142.2870 C   0  0  0  0  0  2  0  0  0  0  0  0
  181.1350  173.8200  136.0290 C   0  0  0  0  0  1  0  0  0  0  0  0
  181.0390  173.9180  137.4180 O   0  0  0  0  0  0  0  0  0  0  0  0
  184.7610  178.1340  137.7030 C   0  0  0  0  0  2  0  0  0  0  0  0
  186.1030  178.0130  136.9740 C   0  0  1  0  0  3  0  0  0  0  0  0
  188.0850  177.6700  138.5090 C   0  0  0  0  0  0  0  0  0  0  0  0
  188.9400  176.7940  139.1630 O   0  0  0  0  0  1  0  0  0  0  0  0
  187.0200  177.1550  137.7100 N   0  0  0  0  0  2  0  0  0  0  0  0
  188.2550  178.9130  138.6300 O   0  0  0  0  0  0  0  0  0  0  0  0
  187.4300  176.4450  135.3370 C   0  0  0  0  0  1  0  0  0  0  0  0
  185.8970  177.4140  135.2640 S   0  0  0  0  0  0  0  0  0  0  0  0
  1 26  1  6  0  0  0
  1 11  1  0  0  0  0
  2  6  2  0  0  0  0
  3  9  1  0  0  0  0
  4 15  1  1  0  0  0
  4 21  1  0  0  0  0
  4 11  1  0  0  0  0
  5 12  1  0  0  0  0
  7 20  1  1  0  0  0
  7 18  1  0  0  0  0
  8 24  1  0  0  0  0
  9 23  1  6  0  0  0
 10  8  1  1  0  0  0
 10  9  1  0  0  0  0
 11  2  1  1  0  0  0
 12 20  1  0  0  0  0
 13 19  1  1  0  0  0
 13  5  1  0  0  0  0
 13 21  1  0  0  0  0
 15 27  1  0  0  0  0
 16 14  1  0  0  0  0
 17 22  1  0  0  0  0
 17  1  1  0  0  0  0
 18  2  1  6  0  0  0
 18 10  1  0  0  0  0
 18  3  1  0  0  0  0
 21  7  1  0  0  0  0
 22 15  2  0  0  0  0
 23 16  1  0  0  0  0
 24 14  1  0  0  0  0
 25 26  1  0  0  0  0
 28 27  1  0  0  0  0
 28 31  1  0  0  0  0
 29 32  2  0  0  0  0
 29 30  1  0  0  0  0
 31 29  1  0  0  0  0
 34 33  1  0  0  0  0
 34 28  1  0  0  0  0
M  END
>  <MODEL>
8

>  <REMARK>
 VINA RESULT:      -3.6      2.476      6.227
  Name = 
  5 active torsions:
  status: ('A' for Active; 'I' for Inactive)
    1  A    between atoms: C_1  and  O_19
    2  A    between atoms: C_12  and  N_23
    3  A    between atoms: C_12  and  S_27
    4  A    between atoms: C_12  and  C_28
    5  A    between atoms: C_21  and  C_28
                            x       y       z     vdW  Elec       q    Type
                         _______ _______ _______ _____ _____    ______ ____

>  <TORSDO>
F 5

$$$$
=
 OpenBabel11052414043D

 34 38  0  0  1  0  0  0  0  0999 V2000
  188.0400  178.5900  135.9630 C   0  0  2  0  0  3  0  0  0  0  0  0
  189.7170  176.7290  135.5250 C   0  0  0  0  0  0  0  0  0  0  0  0
  190.9870  174.8790  134.5940 O   0  0  0  0  0  0  0  0  0  0  0  0
  187.7980  176.2840  137.1490 C   0  0  2  0  0  3  0  0  0  0  0  0
  187.7500  172.4200  137.5950 C   0  0  0  0  0  2  0  0  0  0  0  0
  190.4480  177.5780  135.0340 O   0  0  0  0  0  0  0  0  0  0  0  0
  189.0520  174.3530  135.9860 C   0  0  1  0  0  3  0  0  0  0  0  0
  191.9480  176.3340  137.2730 N   0  0  0  0  0  2  0  0  0  0  0  0
  192.1500  174.8980  135.3890 C   0  0  1  0  0  3  0  0  0  0  0  0
  191.3900  175.1420  136.6580 C   0  0  2  0  0  3  0  0  0  0  0  0
  188.2840  177.0620  135.8900 C   0  0  1  0  0  3  0  0  0  0  0  0
  188.3050  172.0950  136.3400 O   0  0  0  0  0  0  0  0  0  0  0  0
  187.1680  173.8390  137.5810 C   0  0  2  0  0  3  0  0  0  0  0  0
  194.5060  175.2920  137.1550 S   0  0  0  0  0  0  0  0  0  0  0  0
  188.0590  177.0690  138.4220 C   0  0  0  0  0  0  0  0  0  0  0  0
  193.8300  173.6220  136.7450 C   0  0  0  0  0  2  0  0  0  0  0  0
  187.2290  179.0220  137.1890 C   0  0  0  0  0  2  0  0  0  0  0  0
  190.2210  175.3070  135.7000 C   0  0  2  0  0  0  0  0  0  0  0  0
  186.1300  173.9160  136.6480 O   0  0  0  0  0  1  0  0  0  0  0  0
  189.4580  172.8860  136.1760 C   0  0  0  0  0  2  0  0  0  0  0  0
  188.2870  174.8210  137.2270 C   0  0  2  0  0  3  0  0  0  0  0  0
  187.8000  178.3830  138.4190 C   0  0  0  0  0  3  0  0  0  0  0  0
  192.9300  173.6010  135.4910 C   0  0  0  0  0  2  0  0  0  0  0  0
  193.0440  175.8660  138.1290 C   0  0  0  0  0  2  0  0  0  0  0  0
  186.3500  178.1260  134.6100 C   0  0  0  0  0  1  0  0  0  0  0  0
  187.4030  179.0230  134.7990 O   0  0  0  0  0  0  0  0  0  0  0  0
  188.7090  176.4400  139.6280 C   0  0  0  0  0  2  0  0  0  0  0  0
  188.9790  177.4170  140.7780 C   0  0  1  0  0  3  0  0  0  0  0  0
  186.9700  178.1180  142.1480 C   0  0  0  0  0  0  0  0  0  0  0  0
  186.1240  177.8750  143.2210 O   0  0  0  0  0  1  0  0  0  0  0  0
  188.0360  177.2110  141.8690 N   0  0  0  0  0  2  0  0  0  0  0  0
  186.7860  179.1360  141.4270 O   0  0  0  0  0  0  0  0  0  0  0  0
  190.2390  176.1110  142.6760 C   0  0  0  0  0  1  0  0  0  0  0  0
  190.6950  177.2990  141.3820 S   0  0  0  0  0  0  0  0  0  0  0  0
  1 26  1  6  0  0  0
  1 17  1  0  0  0  0
  2 18  1  0  0  0  0
  3  9  1  0  0  0  0
  4 21  1  0  0  0  0
  4 15  1  1  0  0  0
  6  2  2  0  0  0  0
  7 20  1  1  0  0  0
  7 21  1  0  0  0  0
  8 24  1  0  0  0  0
  9 23  1  1  0  0  0
  9 10  1  0  0  0  0
 10  8  1  6  0  0  0
 11  2  1  1  0  0  0
 11  1  1  0  0  0  0
 11  4  1  0  0  0  0
 12  5  1  0  0  0  0
 13 19  1  6  0  0  0
 13  5  1  0  0  0  0
 14 24  1  0  0  0  0
 15 27  1  0  0  0  0
 16 14  1  0  0  0  0
 17 22  1  0  0  0  0
 18  3  1  6  0  0  0
 18  7  1  0  0  0  0
 18 10  1  0  0  0  0
 20 12  1  0  0  0  0
 21 13  1  0  0  0  0
 22 15  2  0  0  0  0
 23 16  1  0  0  0  0
 25 26  1  0  0  0  0
 27 28  1  0  0  0  0
 28 34  1  0  0  0  0
 28 31  1  0  0  0  0
 29 30  1  0  0  0  0
 31 29  1  0  0  0  0
 32 29  2  0  0  0  0
 34 33  1  0  0  0  0
M  END
>  <MODEL>
9

>  <REMARK>
 VINA RESULT:      -3.4      5.919      8.813
  Name = 
  5 active torsions:
  status: ('A' for Active; 'I' for Inactive)
    1  A    between atoms: C_1  and  O_19
    2  A    between atoms: C_12  and  N_23
    3  A    between atoms: C_12  and  S_27
    4  A    between atoms: C_12  and  C_28
    5  A    between atoms: C_21  and  C_28
                            x       y       z     vdW  Elec       q    Type
                         _______ _______ _______ _____ _____    ______ ____

>  <TORSDO>
F 5

$$$$
