=
 OpenBabel11052416463D

 32 37  0  0  1  0  0  0  0  0999 V2000
  183.6200  179.6350  144.5210 C   0  0  0  0  0  3  0  0  0  0  0  0
  187.9440  177.5870  142.8380 C   0  0  0  0  0  0  0  0  0  0  0  0
  190.3220  176.6450  147.1450 C   0  0  0  0  0  2  0  0  0  0  0  0
  191.5180  177.4010  146.5610 C   0  0  0  0  0  2  0  0  0  0  0  0
  189.6660  177.5390  140.8800 C   0  0  0  0  0  0  0  0  0  0  0  0
  189.0660  178.0340  139.6310 C   0  0  0  0  0  0  0  0  0  0  0  0
  185.5390  178.0300  142.7460 C   0  0  2  0  0  3  0  0  0  0  0  0
  186.6810  177.5780  144.9410 C   0  0  0  0  0  3  0  0  0  0  0  0
  191.7640  177.1750  139.6990 N   0  0  0  0  0  0  0  0  0  0  0  0
  184.8330  179.1740  144.8250 C   0  0  0  0  0  3  0  0  0  0  0  0
  189.0780  177.0280  146.4060 C   0  0  0  0  0  2  0  0  0  0  0  0
  187.8550  177.4200  144.3080 C   0  0  0  0  0  0  0  0  0  0  0  0
  189.0810  177.0630  145.0680 C   0  0  0  0  0  0  0  0  0  0  0  0
  190.3440  177.0000  142.9200 N   0  0  0  0  0  0  0  0  0  0  0  0
  191.0800  177.3080  138.4070 C   0  0  0  0  0  2  0  0  0  0  0  0
  183.0970  178.4560  142.3980 C   0  0  0  0  0  3  0  0  0  0  0  0
  185.3940  177.9210  144.2420 C   0  0  0  0  0  0  0  0  0  0  0  0
  189.7660  177.9740  138.5320 N   0  0  0  0  0  0  0  0  0  0  0  0
  184.4850  178.2120  141.9520 C   0  0  0  0  0  3  0  0  0  0  0  0
  182.6910  179.0410  143.5380 C   0  0  0  0  0  0  0  0  0  0  0  0
  191.6020  177.3140  145.0240 C   0  0  0  0  0  2  0  0  0  0  0  0
  190.3660  176.6830  144.3510 C   0  0  0  0  0  0  0  0  0  0  0  0
  191.3920  176.8410  142.1220 N   0  0  0  0  0  0  0  0  0  0  0  0
  186.8530  177.8490  142.1170 C   0  0  0  0  0  3  0  0  0  0  0  0
  187.8200  178.7200  139.6200 N   0  0  0  0  0  1  0  0  0  0  0  0
  193.1710  176.8120  139.7330 C   0  0  0  0  0  1  0  0  0  0  0  0
  189.2650  177.4050  142.2080 C   0  0  0  0  0  0  0  0  0  0  0  0
  190.9760  177.1710  140.8870 C   0  0  0  0  0  0  0  0  0  0  0  0
  180.3340  179.8460  142.8950 C   0  0  0  0  0  0  0  0  0  0  0  0
  181.2910  179.2500  143.7800 N   0  0  0  0  0  2  0  0  0  0  0  0
  180.6550  180.2170  141.7350 O   0  0  0  0  0  0  0  0  0  0  0  0
  178.9310  180.0190  143.3520 C   0  0  0  0  0  1  0  0  0  0  0  0
  1 10  1  0  0  0  0
  2 12  1  0  0  0  0
  4  3  1  0  0  0  0
  5 28  1  0  0  0  0
  5 27  2  0  0  0  0
  6  5  1  0  0  0  0
  7 19  1  6  0  0  0
  7 17  1  0  0  0  0
  9 26  1  0  0  0  0
  9 28  1  0  0  0  0
 11  3  1  0  0  0  0
 12  8  2  0  0  0  0
 12 13  1  0  0  0  0
 13 11  1  0  0  0  0
 14 22  1  0  0  0  0
 15 18  1  0  0  0  0
 15  9  1  0  0  0  0
 16 20  1  0  0  0  0
 17 10  2  0  0  0  0
 17  8  1  0  0  0  0
 18  6  2  0  0  0  0
 19 16  2  0  0  0  0
 20 30  1  0  0  0  0
 20  1  2  0  0  0  0
 21  4  1  0  0  0  0
 22 21  1  0  0  0  0
 22 13  2  0  0  0  0
 23 14  1  0  0  0  0
 24  7  1  0  0  0  0
 24  2  2  0  0  0  0
 25  6  1  0  0  0  0
 27  2  1  0  0  0  0
 27 14  1  0  0  0  0
 28 23  2  0  0  0  0
 29 32  1  0  0  0  0
 29 30  1  0  0  0  0
 31 29  2  0  0  0  0
M  END
>  <MODEL>
1

>  <REMARK>
 VINA RESULT:     -11.6      0.000      0.000
  Name = 
  1 active torsions:
  status: ('A' for Active; 'I' for Inactive)
    1  A    between atoms: N_10  and  C_24
                            x       y       z     vdW  Elec       q    Type
                         _______ _______ _______ _____ _____    ______ ____

>  <TORSDO>
F 1

$$$$
=
 OpenBabel11052416463D

 32 37  0  0  0  0  0  0  0  0999 V2000
  189.6010  176.3930  146.8750 C   0  0  0  0  0  3  0  0  0  0  0  0
  187.9830  178.1060  142.3840 C   0  0  0  0  0  0  0  0  0  0  0  0
  183.1780  179.1030  143.3900 C   0  0  0  0  0  2  0  0  0  0  0  0
  182.8250  178.2520  142.1680 C   0  0  0  0  0  2  0  0  0  0  0  0
  188.3050  177.9630  139.8000 C   0  0  0  0  0  0  0  0  0  0  0  0
  189.6410  177.4470  139.4580 C   0  0  0  0  0  0  0  0  0  0  0  0
  189.6490  177.8010  144.1500 C   0  0  0  0  0  0  0  0  0  0  0  0
  187.2470  178.2850  144.7170 C   0  0  0  0  0  3  0  0  0  0  0  0
  187.7950  178.1480  137.4260 N   0  0  0  0  0  0  0  0  0  0  0  0
  188.5670  176.7960  146.1370 C   0  0  0  0  0  3  0  0  0  0  0  0
  184.5580  178.7600  143.8580 C   0  0  0  0  0  2  0  0  0  0  0  0
  186.9420  178.3440  143.4100 C   0  0  0  0  0  0  0  0  0  0  0  0
  185.5570  178.6630  142.9720 C   0  0  0  0  0  0  0  0  0  0  0  0
  186.3260  178.5540  140.6040 N   0  0  0  0  0  0  0  0  0  0  0  0
  189.2170  177.9970  137.0900 C   0  0  0  0  0  2  0  0  0  0  0  0
  191.5320  177.5030  145.7720 C   0  0  0  0  0  3  0  0  0  0  0  0
  188.6260  177.9860  145.2400 C   0  0  0  0  0  0  0  0  0  0  0  0
  189.9980  177.4160  138.2030 N   0  0  0  0  0  0  0  0  0  0  0  0
  190.9440  177.6440  144.4240 C   0  0  0  0  0  3  0  0  0  0  0  0
  190.9510  176.9950  146.8740 C   0  0  0  0  0  0  0  0  0  0  0  0
  183.9190  178.2630  141.0810 C   0  0  0  0  0  2  0  0  0  0  0  0
  185.2390  178.9340  141.5110 C   0  0  0  0  0  0  0  0  0  0  0  0
  186.2280  178.6150  139.2820 N   0  0  0  0  0  0  0  0  0  0  0  0
  189.2470  177.8750  142.7400 C   0  0  0  0  0  2  0  0  0  0  0  0
  190.4790  176.8360  140.4300 N   0  0  0  0  0  1  0  0  0  0  0  0
  186.8350  178.4300  136.3720 C   0  0  0  0  0  1  0  0  0  0  0  0
  187.5770  178.1800  140.9670 C   0  0  0  0  0  0  0  0  0  0  0  0
  187.4290  178.2530  138.8000 C   0  0  0  0  0  0  0  0  0  0  0  0
  192.8050  176.0080  148.3570 C   0  0  0  0  0  0  0  0  0  0  0  0
  191.6990  176.8800  148.0930 N   0  0  0  0  0  2  0  0  0  0  0  0
  193.2730  175.2530  147.4640 O   0  0  0  0  0  0  0  0  0  0  0  0
  193.4200  176.0010  149.7100 C   0  0  0  0  0  1  0  0  0  0  0  0
  2 24  1  0  0  0  0
  2 12  2  0  0  0  0
  3 11  1  0  0  0  0
  4  3  1  0  0  0  0
  5 27  2  0  0  0  0
  6  5  1  0  0  0  0
  6 25  1  0  0  0  0
  7 19  2  0  0  0  0
  7 17  1  0  0  0  0
  8 17  2  0  0  0  0
  9 28  1  0  0  0  0
 10  1  2  0  0  0  0
 12  8  1  0  0  0  0
 13 12  1  0  0  0  0
 13 11  1  0  0  0  0
 14 27  1  0  0  0  0
 14 22  1  0  0  0  0
 15  9  1  0  0  0  0
 15 18  1  0  0  0  0
 16 20  2  0  0  0  0
 17 10  1  0  0  0  0
 18  6  2  0  0  0  0
 19 16  1  0  0  0  0
 20  1  1  0  0  0  0
 20 30  1  0  0  0  0
 21 22  1  0  0  0  0
 21  4  1  0  0  0  0
 22 13  2  0  0  0  0
 23 14  1  0  0  0  0
 24  7  1  0  0  0  0
 26  9  1  0  0  0  0
 27  2  1  0  0  0  0
 28 23  2  0  0  0  0
 28  5  1  0  0  0  0
 29 32  1  0  0  0  0
 30 29  1  0  0  0  0
 31 29  2  0  0  0  0
M  END
>  <MODEL>
2

>  <REMARK>
 VINA RESULT:     -10.4      3.230      7.197
  Name = 
  1 active torsions:
  status: ('A' for Active; 'I' for Inactive)
    1  A    between atoms: N_10  and  C_24
                            x       y       z     vdW  Elec       q    Type
                         _______ _______ _______ _____ _____    ______ ____

>  <TORSDO>
F 1

$$$$
=
 OpenBabel11052416463D

 32 37  0  0  1  0  0  0  0  0999 V2000
  182.6830  178.0150  140.7440 C   0  0  0  0  0  3  0  0  0  0  0  0
  187.1830  178.0750  143.0830 C   0  0  0  0  0  0  0  0  0  0  0  0
  190.3160  177.7390  139.1890 C   0  0  0  0  0  2  0  0  0  0  0  0
  190.9750  176.5670  139.9190 C   0  0  0  0  0  2  0  0  0  0  0  0
  188.4630  177.4560  145.2690 C   0  0  0  0  0  0  0  0  0  0  0  0
  187.5390  177.3150  146.4060 C   0  0  0  0  0  0  0  0  0  0  0  0
  184.8350  178.7100  142.8170 C   0  0  0  0  0  0  0  0  0  0  0  0
  186.3570  178.5430  140.8220 C   0  0  0  0  0  3  0  0  0  0  0  0
  190.3250  176.9300  146.7490 N   0  0  0  0  0  0  0  0  0  0  0  0
  184.0060  177.8990  140.6290 C   0  0  0  0  0  3  0  0  0  0  0  0
  188.9370  177.9560  139.7310 C   0  0  0  0  0  2  0  0  0  0  0  0
  187.3820  178.2070  141.6210 C   0  0  0  0  0  0  0  0  0  0  0  0
  188.7360  177.9740  141.0550 C   0  0  0  0  0  0  0  0  0  0  0  0
  189.5870  177.5730  143.3620 N   0  0  0  0  0  0  0  0  0  0  0  0
  189.4760  177.1550  147.9260 C   0  0  0  0  0  2  0  0  0  0  0  0
  182.4240  179.3860  142.8000 C   0  0  0  0  0  3  0  0  0  0  0  0
  184.9630  178.8120  141.3190 C   0  0  1  0  0  3  0  0  0  0  0  0
  188.0350  177.1120  147.5960 N   0  0  0  0  0  0  0  0  0  0  0  0
  183.7040  179.0280  143.4460 C   0  0  0  0  0  3  0  0  0  0  0  0
  181.9710  178.9880  141.5980 C   0  0  0  0  0  0  0  0  0  0  0  0
  190.8710  176.6690  141.4540 C   0  0  0  0  0  2  0  0  0  0  0  0
  189.9450  177.7940  141.9580 C   0  0  0  0  0  0  0  0  0  0  0  0
  190.4770  177.2980  144.3070 N   0  0  0  0  0  0  0  0  0  0  0  0
  185.9960  178.3350  143.6330 C   0  0  0  0  0  3  0  0  0  0  0  0
  186.1320  177.2310  146.2200 N   0  0  0  0  0  1  0  0  0  0  0  0
  191.7400  176.6540  146.9270 C   0  0  0  0  0  1  0  0  0  0  0  0
  188.3500  177.6970  143.9020 C   0  0  0  0  0  0  0  0  0  0  0  0
  189.7910  177.2260  145.4600 C   0  0  0  0  0  0  0  0  0  0  0  0
  180.3500  180.2260  140.0310 C   0  0  0  0  0  0  0  0  0  0  0  0
  180.6670  179.3900  141.1520 N   0  0  0  0  0  2  0  0  0  0  0  0
  181.2490  180.6670  139.2670 O   0  0  0  0  0  0  0  0  0  0  0  0
  178.9310  180.5720  139.7600 C   0  0  0  0  0  1  0  0  0  0  0  0
  1 20  1  0  0  0  0
  2 24  2  0  0  0  0
  2 27  1  0  0  0  0
  3 11  1  0  0  0  0
  3  4  1  0  0  0  0
  4 21  1  0  0  0  0
  5 28  1  0  0  0  0
  5  6  1  0  0  0  0
  6 18  2  0  0  0  0
  7 19  2  0  0  0  0
  7 24  1  0  0  0  0
  8 17  1  0  0  0  0
  8 12  2  0  0  0  0
  9 26  1  0  0  0  0
  9 15  1  0  0  0  0
 10  1  2  0  0  0  0
 11 13  1  0  0  0  0
 12  2  1  0  0  0  0
 13 12  1  0  0  0  0
 13 22  2  0  0  0  0
 14 27  1  0  0  0  0
 14 23  1  0  0  0  0
 16 19  1  0  0  0  0
 17 10  1  6  0  0  0
 17  7  1  0  0  0  0
 18 15  1  0  0  0  0
 20 16  2  0  0  0  0
 21 22  1  0  0  0  0
 22 14  1  0  0  0  0
 23 28  2  0  0  0  0
 25  6  1  0  0  0  0
 27  5  2  0  0  0  0
 28  9  1  0  0  0  0
 29 30  1  0  0  0  0
 30 20  1  0  0  0  0
 31 29  2  0  0  0  0
 32 29  1  0  0  0  0
M  END
>  <MODEL>
3

>  <REMARK>
 VINA RESULT:     -10.4      2.060      4.848
  Name = 
  1 active torsions:
  status: ('A' for Active; 'I' for Inactive)
    1  A    between atoms: N_10  and  C_24
                            x       y       z     vdW  Elec       q    Type
                         _______ _______ _______ _____ _____    ______ ____

>  <TORSDO>
F 1

$$$$
=
 OpenBabel11052416463D

 32 37  0  0  0  0  0  0  0  0999 V2000
  190.8210  178.3040  144.9950 C   0  0  0  0  0  3  0  0  0  0  0  0
  187.0350  178.0010  141.6340 C   0  0  0  0  0  0  0  0  0  0  0  0
  189.5690  177.8500  137.3160 C   0  0  0  0  0  2  0  0  0  0  0  0
  188.6810  179.0030  136.8440 C   0  0  0  0  0  2  0  0  0  0  0  0
  184.5520  178.6350  141.1500 C   0  0  0  0  0  0  0  0  0  0  0  0
  183.8220  178.9180  142.3960 C   0  0  0  0  0  0  0  0  0  0  0  0
  188.1030  177.5510  143.7900 C   0  0  0  0  0  0  0  0  0  0  0  0
  189.4300  177.4750  141.6550 C   0  0  0  0  0  3  0  0  0  0  0  0
  182.5210  179.0870  139.8840 N   0  0  0  0  0  0  0  0  0  0  0  0
  190.4610  178.3020  143.7130 C   0  0  0  0  0  3  0  0  0  0  0  0
  189.5470  177.7810  138.8120 C   0  0  0  0  0  2  0  0  0  0  0  0
  188.3270  177.7690  140.9480 C   0  0  0  0  0  0  0  0  0  0  0  0
  188.3810  177.8560  139.4650 C   0  0  0  0  0  0  0  0  0  0  0  0
  185.9320  178.3150  139.4450 N   0  0  0  0  0  0  0  0  0  0  0  0
  181.7170  179.0030  141.1110 C   0  0  0  0  0  2  0  0  0  0  0  0
  188.9590  177.0790  146.0950 C   0  0  0  0  0  3  0  0  0  0  0  0
  189.4540  177.3530  143.1540 C   0  0  0  0  0  0  0  0  0  0  0  0
  182.5390  179.1470  142.3320 N   0  0  0  0  0  0  0  0  0  0  0  0
  187.9090  177.3650  145.0950 C   0  0  0  0  0  3  0  0  0  0  0  0
  190.2530  177.4450  146.0550 C   0  0  0  0  0  0  0  0  0  0  0  0
  187.2810  178.9980  137.4900 C   0  0  0  0  0  2  0  0  0  0  0  0
  187.1120  177.9850  138.6400 C   0  0  0  0  0  0  0  0  0  0  0  0
  184.7390  178.5680  138.9210 N   0  0  0  0  0  0  0  0  0  0  0  0
  186.9370  177.8740  142.9590 C   0  0  0  0  0  2  0  0  0  0  0  0
  184.4970  179.1090  143.6320 N   0  0  0  0  0  1  0  0  0  0  0  0
  181.8580  179.2540  138.6020 C   0  0  0  0  0  1  0  0  0  0  0  0
  185.8640  178.3260  140.7980 C   0  0  0  0  0  0  0  0  0  0  0  0
  183.9080  178.7640  139.9580 C   0  0  0  0  0  0  0  0  0  0  0  0
  192.0550  176.0420  147.2380 C   0  0  0  0  0  0  0  0  0  0  0  0
  191.1230  177.1280  147.1520 N   0  0  0  0  0  2  0  0  0  0  0  0
  192.2330  175.2530  146.2720 O   0  0  0  0  0  0  0  0  0  0  0  0
  192.8360  175.8510  148.4870 C   0  0  0  0  0  1  0  0  0  0  0  0
  1 20  1  0  0  0  0
  2 24  1  0  0  0  0
  3 11  1  0  0  0  0
  4  3  1  0  0  0  0
  4 21  1  0  0  0  0
  5  6  1  0  0  0  0
  6 25  1  0  0  0  0
  7 19  2  0  0  0  0
  8 17  2  0  0  0  0
  9 28  1  0  0  0  0
  9 15  1  0  0  0  0
 10  1  2  0  0  0  0
 11 13  1  0  0  0  0
 12  2  2  0  0  0  0
 12  8  1  0  0  0  0
 13 12  1  0  0  0  0
 14 27  1  0  0  0  0
 15 18  1  0  0  0  0
 17 10  1  0  0  0  0
 17  7  1  0  0  0  0
 18  6  2  0  0  0  0
 19 16  1  0  0  0  0
 20 16  2  0  0  0  0
 20 30  1  0  0  0  0
 21 22  1  0  0  0  0
 22 14  1  0  0  0  0
 22 13  2  0  0  0  0
 23 14  1  0  0  0  0
 23 28  2  0  0  0  0
 24  7  1  0  0  0  0
 26  9  1  0  0  0  0
 27  5  2  0  0  0  0
 27  2  1  0  0  0  0
 28  5  1  0  0  0  0
 29 32  1  0  0  0  0
 30 29  1  0  0  0  0
 31 29  2  0  0  0  0
M  END
>  <MODEL>
4

>  <REMARK>
 VINA RESULT:     -10.3      3.346      7.988
  Name = 
  1 active torsions:
  status: ('A' for Active; 'I' for Inactive)
    1  A    between atoms: N_10  and  C_24
                            x       y       z     vdW  Elec       q    Type
                         _______ _______ _______ _____ _____    ______ ____

>  <TORSDO>
F 1

$$$$
=
 OpenBabel11052416463D

 32 37  0  0  0  0  0  0  0  0999 V2000
  189.5100  178.4550  138.2560 C   0  0  0  0  0  3  0  0  0  0  0  0
  188.2760  177.6570  143.1100 C   0  0  0  0  0  0  0  0  0  0  0  0
  183.4140  178.8620  143.0950 C   0  0  0  0  0  2  0  0  0  0  0  0
  183.7190  179.7900  144.2730 C   0  0  0  0  0  2  0  0  0  0  0  0
  189.1530  177.6630  145.5660 C   0  0  0  0  0  0  0  0  0  0  0  0
  190.6190  177.5430  145.6090 C   0  0  0  0  0  0  0  0  0  0  0  0
  189.5100  177.1880  141.0500 C   0  0  0  0  0  0  0  0  0  0  0  0
  187.0720  177.8030  140.9780 C   0  0  0  0  0  2  0  0  0  0  0  0
  189.1130  177.7360  148.0000 N   0  0  0  0  0  0  0  0  0  0  0  0
  188.5790  178.5520  139.2040 C   0  0  0  0  0  3  0  0  0  0  0  0
  184.6790  178.5610  142.3530 C   0  0  0  0  0  2  0  0  0  0  0  0
  187.0470  177.8930  142.3180 C   0  0  0  0  0  0  0  0  0  0  0  0
  185.7820  178.2160  143.0290 C   0  0  0  0  0  0  0  0  0  0  0  0
  186.9930  177.9940  145.1960 N   0  0  0  0  0  0  0  0  0  0  0  0
  190.4980  177.2510  148.0550 C   0  0  0  0  0  2  0  0  0  0  0  0
  190.9610  176.6180  139.0910 C   0  0  0  0  0  3  0  0  0  0  0  0
  188.3060  177.4630  140.1870 C   0  0  0  0  0  0  0  0  0  0  0  0
  191.2050  177.4230  146.7680 N   0  0  0  0  0  0  0  0  0  0  0  0
  190.6600  176.7590  140.5300 C   0  0  0  0  0  3  0  0  0  0  0  0
  190.4400  177.3220  138.0690 C   0  0  0  0  0  0  0  0  0  0  0  0
  184.9000  179.3070  145.1390 C   0  0  0  0  0  2  0  0  0  0  0  0
  185.6870  178.1230  144.5430 C   0  0  0  0  0  0  0  0  0  0  0  0
  187.1520  177.9910  146.5130 N   0  0  0  0  0  0  0  0  0  0  0  0
  189.4150  177.3070  142.5100 C   0  0  0  0  0  3  0  0  0  0  0  0
  191.4180  177.7180  144.4460 N   0  0  0  0  0  1  0  0  0  0  0  0
  188.3640  177.9120  149.2330 C   0  0  0  0  0  1  0  0  0  0  0  0
  188.1790  177.7780  144.5770 C   0  0  0  0  0  0  0  0  0  0  0  0
  188.4630  177.7930  146.7320 C   0  0  0  0  0  0  0  0  0  0  0  0
  190.7500  175.8900  135.9550 C   0  0  0  0  0  0  0  0  0  0  0  0
  190.8970  177.0880  136.7290 N   0  0  0  0  0  2  0  0  0  0  0  0
  190.1240  174.8940  136.4030 O   0  0  0  0  0  0  0  0  0  0  0  0
  191.3410  175.8270  134.5940 C   0  0  0  0  0  1  0  0  0  0  0  0
  1 10  1  0  0  0  0
  2 27  1  0  0  0  0
  3  4  1  0  0  0  0
  4 21  1  0  0  0  0
  5  6  1  0  0  0  0
  5 28  1  0  0  0  0
  6 18  2  0  0  0  0
  7 24  2  0  0  0  0
  8 12  1  0  0  0  0
  9 15  1  0  0  0  0
  9 26  1  0  0  0  0
 10 17  2  0  0  0  0
 11 13  1  0  0  0  0
 11  3  1  0  0  0  0
 12 13  1  0  0  0  0
 12  2  2  0  0  0  0
 13 22  2  0  0  0  0
 14 23  1  0  0  0  0
 16 19  2  0  0  0  0
 17  8  1  0  0  0  0
 17  7  1  0  0  0  0
 18 15  1  0  0  0  0
 19  7  1  0  0  0  0
 20  1  2  0  0  0  0
 20 16  1  0  0  0  0
 22 21  1  0  0  0  0
 22 14  1  0  0  0  0
 23 28  2  0  0  0  0
 24  2  1  0  0  0  0
 25  6  1  0  0  0  0
 27 14  1  0  0  0  0
 27  5  2  0  0  0  0
 28  9  1  0  0  0  0
 29 31  2  0  0  0  0
 29 30  1  0  0  0  0
 30 20  1  0  0  0  0
 32 29  1  0  0  0  0
M  END
>  <MODEL>
5

>  <REMARK>
 VINA RESULT:      -9.9      3.006      7.792
  Name = 
  1 active torsions:
  status: ('A' for Active; 'I' for Inactive)
    1  A    between atoms: N_10  and  C_24
                            x       y       z     vdW  Elec       q    Type
                         _______ _______ _______ _____ _____    ______ ____

>  <TORSDO>
F 1

$$$$
=
 OpenBabel11052416463D

 32 37  0  0  1  0  0  0  0  0999 V2000
  190.2330  176.3960  140.7920 C   0  0  0  0  0  3  0  0  0  0  0  0
  185.8570  178.4700  142.3000 C   0  0  0  0  0  0  0  0  0  0  0  0
  186.4900  178.5890  147.2670 C   0  0  0  0  0  2  0  0  0  0  0  0
  185.1410  177.8780  147.3800 C   0  0  0  0  0  2  0  0  0  0  0  0
  183.3220  178.7450  141.7520 C   0  0  0  0  0  0  0  0  0  0  0  0
  183.0540  178.4870  140.3280 C   0  0  0  0  0  0  0  0  0  0  0  0
  187.7290  178.1680  140.7530 C   0  0  2  0  0  3  0  0  0  0  0  0
  188.1070  178.2040  143.2390 C   0  0  0  0  0  3  0  0  0  0  0  0
  180.9520  179.1890  142.0940 N   0  0  0  0  0  0  0  0  0  0  0  0
  189.4520  176.7410  141.8150 C   0  0  0  0  0  3  0  0  0  0  0  0
  187.0480  178.3920  145.8920 C   0  0  0  0  0  2  0  0  0  0  0  0
  186.7950  178.4030  143.4450 C   0  0  0  0  0  0  0  0  0  0  0  0
  186.2630  178.5720  144.8230 C   0  0  0  0  0  0  0  0  0  0  0  0
  183.9910  178.9160  143.8590 N   0  0  0  0  0  0  0  0  0  0  0  0
  180.7460  179.3000  140.6440 C   0  0  0  0  0  2  0  0  0  0  0  0
  189.4830  177.9260  138.9830 C   0  0  0  0  0  3  0  0  0  0  0  0
  188.7240  178.0420  141.8770 C   0  0  0  0  0  0  0  0  0  0  0  0
  181.8480  178.6890  139.8720 N   0  0  0  0  0  0  0  0  0  0  0  0
  188.1110  178.1680  139.4760 C   0  0  0  0  0  3  0  0  0  0  0  0
  190.4450  177.1860  139.5610 C   0  0  0  0  0  0  0  0  0  0  0  0
  184.1810  178.2060  146.2180 C   0  0  0  0  0  2  0  0  0  0  0  0
  184.8240  178.9970  145.0620 C   0  0  0  0  0  0  0  0  0  0  0  0
  182.6840  179.1490  143.8590 N   0  0  0  0  0  0  0  0  0  0  0  0
  186.3070  178.3820  141.0470 C   0  0  0  0  0  3  0  0  0  0  0  0
  184.0200  177.8760  139.4840 N   0  0  0  0  0  1  0  0  0  0  0  0
  179.8510  179.4710  142.9990 C   0  0  0  0  0  1  0  0  0  0  0  0
  184.4280  178.6840  142.5970 C   0  0  0  0  0  0  0  0  0  0  0  0
  182.2840  179.0410  142.5810 C   0  0  0  0  0  0  0  0  0  0  0  0
  192.1540  175.8690  138.1600 C   0  0  0  0  0  0  0  0  0  0  0  0
  191.7100  177.0110  138.9040 N   0  0  0  0  0  2  0  0  0  0  0  0
  191.4010  174.8780  137.9690 O   0  0  0  0  0  0  0  0  0  0  0  0
  193.5270  175.8600  137.5940 C   0  0  0  0  0  1  0  0  0  0  0  0
  1 10  1  0  0  0  0
  2 27  1  0  0  0  0
  2 12  1  0  0  0  0
  3  4  1  0  0  0  0
  5 28  1  0  0  0  0
  5 27  2  0  0  0  0
  6  5  1  0  0  0  0
  7 19  1  6  0  0  0
  7 24  1  0  0  0  0
  7 17  1  0  0  0  0
  8 12  2  0  0  0  0
  9 28  1  0  0  0  0
  9 26  1  0  0  0  0
 10 17  2  0  0  0  0
 11  3  1  0  0  0  0
 12 13  1  0  0  0  0
 13 22  2  0  0  0  0
 13 11  1  0  0  0  0
 14 23  1  0  0  0  0
 14 22  1  0  0  0  0
 15  9  1  0  0  0  0
 16 19  2  0  0  0  0
 16 20  1  0  0  0  0
 17  8  1  0  0  0  0
 18  6  2  0  0  0  0
 18 15  1  0  0  0  0
 20  1  2  0  0  0  0
 21  4  1  0  0  0  0
 22 21  1  0  0  0  0
 24  2  2  0  0  0  0
 25  6  1  0  0  0  0
 27 14  1  0  0  0  0
 28 23  2  0  0  0  0
 29 30  1  0  0  0  0
 30 20  1  0  0  0  0
 31 29  2  0  0  0  0
 32 29  1  0  0  0  0
M  END
>  <MODEL>
6

>  <REMARK>
 VINA RESULT:      -9.2      3.080      7.979
  Name = 
  1 active torsions:
  status: ('A' for Active; 'I' for Inactive)
    1  A    between atoms: N_10  and  C_24
                            x       y       z     vdW  Elec       q    Type
                         _______ _______ _______ _____ _____    ______ ____

>  <TORSDO>
F 1

$$$$
=
 OpenBabel11052416463D

 32 37  0  0  1  0  0  0  0  0999 V2000
  190.6860  176.1760  139.0820 C   0  0  0  0  0  3  0  0  0  0  0  0
  186.8960  178.1320  141.8260 C   0  0  0  0  0  0  0  0  0  0  0  0
  188.8000  177.8700  146.4510 C   0  0  0  0  0  2  0  0  0  0  0  0
  187.5110  177.1540  146.8590 C   0  0  0  0  0  2  0  0  0  0  0  0
  184.3120  178.4500  141.9790 C   0  0  0  0  0  0  0  0  0  0  0  0
  183.6780  178.3020  140.6590 C   0  0  0  0  0  0  0  0  0  0  0  0
  188.2950  177.9470  139.8270 C   0  0  2  0  0  3  0  0  0  0  0  0
  189.3070  177.7930  142.1240 C   0  0  0  0  0  3  0  0  0  0  0  0
  182.1220  178.8680  142.9580 N   0  0  0  0  0  0  0  0  0  0  0  0
  190.2050  176.4420  140.2950 C   0  0  0  0  0  3  0  0  0  0  0  0
  188.9770  177.7790  144.9680 C   0  0  0  0  0  2  0  0  0  0  0  0
  188.0970  177.9770  142.6790 C   0  0  0  0  0  0  0  0  0  0  0  0
  187.9450  178.0400  144.1560 C   0  0  0  0  0  0  0  0  0  0  0  0
  185.5080  178.4580  143.8450 N   0  0  0  0  0  0  0  0  0  0  0  0
  181.5480  179.0900  141.6240 C   0  0  0  0  0  2  0  0  0  0  0  0
  189.5240  177.8400  137.6480 C   0  0  0  0  0  3  0  0  0  0  0  0
  189.5460  177.7350  140.6400 C   0  0  0  0  0  0  0  0  0  0  0  0
  182.3990  178.5380  140.5480 N   0  0  0  0  0  0  0  0  0  0  0  0
  188.3320  178.0440  138.4980 C   0  0  0  0  0  3  0  0  0  0  0  0
  190.5880  177.0570  137.8990 C   0  0  0  0  0  0  0  0  0  0  0  0
  186.2890  177.5700  146.0150 C   0  0  0  0  0  2  0  0  0  0  0  0
  186.6270  178.4470  144.7920 C   0  0  0  0  0  0  0  0  0  0  0  0
  184.2520  178.6920  144.2030 N   0  0  0  0  0  0  0  0  0  0  0  0
  187.0030  178.1390  140.4960 C   0  0  0  0  0  3  0  0  0  0  0  0
  184.3780  177.7560  139.5500 N   0  0  0  0  0  1  0  0  0  0  0  0
  181.3000  179.0820  144.1370 C   0  0  0  0  0  1  0  0  0  0  0  0
  185.5980  178.3240  142.5000 C   0  0  0  0  0  0  0  0  0  0  0  0
  183.5310  178.6830  143.0690 C   0  0  0  0  0  0  0  0  0  0  0  0
  191.7350  175.9610  135.8750 C   0  0  0  0  0  0  0  0  0  0  0  0
  191.6350  176.9320  136.9250 N   0  0  0  0  0  2  0  0  0  0  0  0
  190.8280  175.1100  135.6800 O   0  0  0  0  0  0  0  0  0  0  0  0
  192.9310  175.9650  134.9930 C   0  0  0  0  0  1  0  0  0  0  0  0
  1 10  1  0  0  0  0
  2 27  1  0  0  0  0
  2 12  1  0  0  0  0
  3  4  1  0  0  0  0
  5 27  2  0  0  0  0
  5 28  1  0  0  0  0
  6  5  1  0  0  0  0
  7 19  1  1  0  0  0
  7 24  1  0  0  0  0
  7 17  1  0  0  0  0
  8 12  2  0  0  0  0
  9 28  1  0  0  0  0
  9 26  1  0  0  0  0
 10 17  2  0  0  0  0
 11  3  1  0  0  0  0
 12 13  1  0  0  0  0
 13 22  2  0  0  0  0
 13 11  1  0  0  0  0
 14 23  1  0  0  0  0
 14 22  1  0  0  0  0
 15  9  1  0  0  0  0
 16 20  1  0  0  0  0
 16 19  2  0  0  0  0
 17  8  1  0  0  0  0
 18  6  2  0  0  0  0
 18 15  1  0  0  0  0
 20  1  2  0  0  0  0
 21  4  1  0  0  0  0
 22 21  1  0  0  0  0
 24  2  2  0  0  0  0
 25  6  1  0  0  0  0
 27 14  1  0  0  0  0
 28 23  2  0  0  0  0
 29 30  1  0  0  0  0
 30 20  1  0  0  0  0
 31 29  2  0  0  0  0
 32 29  1  0  0  0  0
M  END
>  <MODEL>
7

>  <REMARK>
 VINA RESULT:      -9.1      3.089      7.811
  Name = 
  1 active torsions:
  status: ('A' for Active; 'I' for Inactive)
    1  A    between atoms: N_10  and  C_24
                            x       y       z     vdW  Elec       q    Type
                         _______ _______ _______ _____ _____    ______ ____

>  <TORSDO>
F 1

$$$$
=
 OpenBabel11052416463D

 32 37  0  0  1  0  0  0  0  0999 V2000
  181.6720  180.1840  139.0820 C   0  0  0  0  0  3  0  0  0  0  0  0
  185.7450  178.2180  141.3780 C   0  0  0  0  0  0  0  0  0  0  0  0
  184.3540  178.4240  146.1850 C   0  0  0  0  0  2  0  0  0  0  0  0
  185.6760  179.1420  146.4580 C   0  0  0  0  0  2  0  0  0  0  0  0
  188.3320  177.9110  141.2470 C   0  0  0  0  0  0  0  0  0  0  0  0
  188.8190  178.0750  139.8670 C   0  0  0  0  0  0  0  0  0  0  0  0
  184.1370  178.4160  139.5450 C   0  0  2  0  0  3  0  0  0  0  0  0
  183.3800  178.5420  141.9400 C   0  0  0  0  0  3  0  0  0  0  0  0
  190.6170  177.4940  141.9780 N   0  0  0  0  0  0  0  0  0  0  0  0
  182.2840  179.9070  140.2330 C   0  0  0  0  0  3  0  0  0  0  0  0
  184.0160  178.5290  144.7300 C   0  0  0  0  0  2  0  0  0  0  0  0
  184.6430  178.3590  142.3570 C   0  0  0  0  0  0  0  0  0  0  0  0
  184.9550  178.2810  143.8090 C   0  0  0  0  0  0  0  0  0  0  0  0
  187.3450  177.8780  143.2310 N   0  0  0  0  0  0  0  0  0  0  0  0
  191.0430  177.2880  140.5870 C   0  0  0  0  0  2  0  0  0  0  0  0
  182.6790  178.5400  137.5130 C   0  0  0  0  0  3  0  0  0  0  0  0
  182.9810  178.6140  140.4910 C   0  0  0  0  0  0  0  0  0  0  0  0
  190.0780  177.8460  139.6160 N   0  0  0  0  0  0  0  0  0  0  0  0
  183.9560  178.3320  138.2270 C   0  0  0  0  0  3  0  0  0  0  0  0
  181.6450  179.3150  137.8860 C   0  0  0  0  0  0  0  0  0  0  0  0
  186.8010  178.7400  145.4820 C   0  0  0  0  0  2  0  0  0  0  0  0
  186.3360  177.8740  144.2940 C   0  0  0  0  0  0  0  0  0  0  0  0
  188.6340  177.6470  143.4480 N   0  0  0  0  0  0  0  0  0  0  0  0
  185.4950  178.2240  140.0680 C   0  0  0  0  0  3  0  0  0  0  0  0
  187.9990  178.6290  138.8460 N   0  0  0  0  0  1  0  0  0  0  0  0
  191.5630  177.2720  143.0580 C   0  0  0  0  0  1  0  0  0  0  0  0
  187.1100  178.0260  141.9050 C   0  0  0  0  0  0  0  0  0  0  0  0
  189.2270  177.6710  142.2430 C   0  0  0  0  0  0  0  0  0  0  0  0
  180.2060  180.5150  136.1240 C   0  0  0  0  0  0  0  0  0  0  0  0
  180.4980  179.4450  137.0330 N   0  0  0  0  0  2  0  0  0  0  0  0
  181.0090  181.4700  135.9550 O   0  0  0  0  0  0  0  0  0  0  0  0
  178.9330  180.4910  135.3590 C   0  0  0  0  0  1  0  0  0  0  0  0
  1 10  1  0  0  0  0
  2 27  1  0  0  0  0
  2 12  1  0  0  0  0
  3  4  1  0  0  0  0
  5 27  2  0  0  0  0
  5 28  1  0  0  0  0
  6  5  1  0  0  0  0
  7 19  1  1  0  0  0
  7 24  1  0  0  0  0
  7 17  1  0  0  0  0
  8 12  2  0  0  0  0
  9 28  1  0  0  0  0
  9 26  1  0  0  0  0
 10 17  2  0  0  0  0
 11  3  1  0  0  0  0
 12 13  1  0  0  0  0
 13 22  2  0  0  0  0
 13 11  1  0  0  0  0
 14 23  1  0  0  0  0
 14 22  1  0  0  0  0
 15  9  1  0  0  0  0
 16 20  1  0  0  0  0
 16 19  2  0  0  0  0
 17  8  1  0  0  0  0
 18  6  2  0  0  0  0
 18 15  1  0  0  0  0
 20  1  2  0  0  0  0
 21  4  1  0  0  0  0
 22 21  1  0  0  0  0
 24  2  2  0  0  0  0
 25  6  1  0  0  0  0
 27 14  1  0  0  0  0
 28 23  2  0  0  0  0
 29 30  1  0  0  0  0
 30 20  1  0  0  0  0
 31 29  2  0  0  0  0
 32 29  1  0  0  0  0
M  END
>  <MODEL>
8

>  <REMARK>
 VINA RESULT:      -9.0      3.160      4.462
  Name = 
  1 active torsions:
  status: ('A' for Active; 'I' for Inactive)
    1  A    between atoms: N_10  and  C_24
                            x       y       z     vdW  Elec       q    Type
                         _______ _______ _______ _____ _____    ______ ____

>  <TORSDO>
F 1

$$$$
=
 OpenBabel11052416463D

 32 37  0  0  0  0  0  0  0  0999 V2000
  189.8050  176.3780  145.0220 C   0  0  0  0  0  3  0  0  0  0  0  0
  187.9760  178.0020  140.5780 C   0  0  0  0  0  0  0  0  0  0  0  0
  183.2150  178.9900  141.7810 C   0  0  0  0  0  2  0  0  0  0  0  0
  182.8140  178.1160  140.5920 C   0  0  0  0  0  2  0  0  0  0  0  0
  188.1840  177.8140  137.9850 C   0  0  0  0  0  0  0  0  0  0  0  0
  189.5060  177.3000  137.5930 C   0  0  0  0  0  0  0  0  0  0  0  0
  189.7220  177.7380  142.2730 C   0  0  0  0  0  0  0  0  0  0  0  0
  187.3450  178.2180  142.9380 C   0  0  0  0  0  3  0  0  0  0  0  0
  187.5670  177.9550  135.6340 N   0  0  0  0  0  0  0  0  0  0  0  0
  188.7370  176.7620  144.3240 C   0  0  0  0  0  3  0  0  0  0  0  0
  184.6170  178.6630  142.1930 C   0  0  0  0  0  2  0  0  0  0  0  0
  186.9810  178.2530  141.6460 C   0  0  0  0  0  0  0  0  0  0  0  0
  185.5760  178.5560  141.2650 C   0  0  0  0  0  0  0  0  0  0  0  0
  186.2390  178.4090  138.8670 N   0  0  0  0  0  0  0  0  0  0  0  0
  188.9730  177.8060  135.2380 C   0  0  0  0  0  2  0  0  0  0  0  0
  191.6780  177.4790  143.8140 C   0  0  0  0  0  3  0  0  0  0  0  0
  188.7470  177.9360  143.4040 C   0  0  0  0  0  0  0  0  0  0  0  0
  189.8070  177.2490  136.3240 N   0  0  0  0  0  0  0  0  0  0  0  0
  191.0290  177.5930  142.4920 C   0  0  0  0  0  3  0  0  0  0  0  0
  191.1500  176.9880  144.9490 C   0  0  0  0  0  0  0  0  0  0  0  0
  183.8580  178.1140  139.4570 C   0  0  0  0  0  2  0  0  0  0  0  0
  185.1920  178.7990  139.8150 C   0  0  0  0  0  0  0  0  0  0  0  0
  186.0820  178.4460  137.5500 N   0  0  0  0  0  0  0  0  0  0  0  0
  189.2570  177.7850  140.8810 C   0  0  0  0  0  2  0  0  0  0  0  0
  190.3900  176.7110  138.5370 N   0  0  0  0  0  1  0  0  0  0  0  0
  186.5590  178.2120  134.6200 C   0  0  0  0  0  1  0  0  0  0  0  0
  187.5070  178.0490  139.1800 C   0  0  0  0  0  0  0  0  0  0  0  0
  187.2620  178.0820  137.0210 C   0  0  0  0  0  0  0  0  0  0  0  0
  191.5060  176.6230  147.4700 C   0  0  0  0  0  0  0  0  0  0  0  0
  191.9520  176.8990  146.1360 N   0  0  0  0  0  2  0  0  0  0  0  0
  190.2970  176.3720  147.7190 O   0  0  0  0  0  0  0  0  0  0  0  0
  192.4930  176.6230  148.5810 C   0  0  0  0  0  1  0  0  0  0  0  0
  2 24  1  0  0  0  0
  2 12  2  0  0  0  0
  3 11  1  0  0  0  0
  4  3  1  0  0  0  0
  5 27  2  0  0  0  0
  6  5  1  0  0  0  0
  6 25  1  0  0  0  0
  7 19  2  0  0  0  0
  7 17  1  0  0  0  0
  8 17  2  0  0  0  0
  9 28  1  0  0  0  0
 10  1  2  0  0  0  0
 12  8  1  0  0  0  0
 13 12  1  0  0  0  0
 13 11  1  0  0  0  0
 14 27  1  0  0  0  0
 14 22  1  0  0  0  0
 15  9  1  0  0  0  0
 15 18  1  0  0  0  0
 16 20  2  0  0  0  0
 17 10  1  0  0  0  0
 18  6  2  0  0  0  0
 19 16  1  0  0  0  0
 20  1  1  0  0  0  0
 20 30  1  0  0  0  0
 21 22  1  0  0  0  0
 21  4  1  0  0  0  0
 22 13  2  0  0  0  0
 23 14  1  0  0  0  0
 24  7  1  0  0  0  0
 26  9  1  0  0  0  0
 27  2  1  0  0  0  0
 28 23  2  0  0  0  0
 28  5  1  0  0  0  0
 29 31  2  0  0  0  0
 29 32  1  0  0  0  0
 30 29  1  0  0  0  0
M  END
>  <MODEL>
9

>  <REMARK>
 VINA RESULT:      -8.8      3.173      7.211
  Name = 
  1 active torsions:
  status: ('A' for Active; 'I' for Inactive)
    1  A    between atoms: N_10  and  C_24
                            x       y       z     vdW  Elec       q    Type
                         _______ _______ _______ _____ _____    ______ ____

>  <TORSDO>
F 1

$$$$
