=
 OpenBabel11052414323D

 32 34  0  0  1  0  0  0  0  0999 V2000
  185.3120  179.2540  143.6150 C   0  0  1  0  0  3  0  0  0  0  0  0
  186.5210  177.1610  143.8660 O   0  0  0  0  0  0  0  0  0  0  0  0
  183.9420  178.6600  143.9790 C   0  0  0  0  0  2  0  0  0  0  0  0
  186.4810  178.5250  144.2880 C   0  0  2  0  0  3  0  0  0  0  0  0
  189.3970  176.9530  145.5200 C   0  0  0  0  0  2  0  0  0  0  0  0
  186.3310  178.6330  145.8200 C   0  0  2  0  0  3  0  0  0  0  0  0
  189.0640  176.9830  144.0260 C   0  0  1  0  0  3  0  0  0  0  0  0
  187.2610  177.6980  146.5820 C   0  0  0  0  0  2  0  0  0  0  0  0
  184.8840  178.4860  146.3240 C   0  0  0  0  0  2  0  0  0  0  0  0
  187.7020  176.4230  143.7200 C   0  0  0  0  0  0  0  0  0  0  0  0
  188.7160  178.0620  146.3150 C   0  0  1  0  0  3  0  0  0  0  0  0
  183.9570  177.8570  145.2850 C   0  0  0  0  0  2  0  0  0  0  0  0
  187.6230  175.2310  143.3280 O   0  0  0  0  0  0  0  0  0  0  0  0
  184.4730  178.8620  141.2580 N   0  0  0  0  0  2  0  0  0  0  0  0
  186.5100  179.9280  141.6740 O   0  0  0  0  0  0  0  0  0  0  0  0
  185.4810  179.3690  142.1370 C   0  0  0  0  0  0  0  0  0  0  0  0
  186.0130  178.5730  139.1100 O   0  0  0  0  0  0  0  0  0  0  0  0
  184.6110  178.9210  139.5340 S   0  0  0  0  0  0  0  0  0  0  0  0
  184.2670  180.3060  139.0580 O   0  0  0  0  0  0  0  0  0  0  0  0
  182.8590  176.8270  139.6820 C   0  0  0  0  0  3  0  0  0  0  0  0
  183.4980  177.7530  138.8460 C   0  0  0  0  0  0  0  0  0  0  0  0
  181.9610  175.9000  139.1430 C   0  0  0  0  0  3  0  0  0  0  0  0
  182.3400  176.8180  136.9330 C   0  0  0  0  0  3  0  0  0  0  0  0
  183.2390  177.7440  137.4710 C   0  0  0  0  0  3  0  0  0  0  0  0
  181.7000  175.8970  137.7690 C   0  0  0  0  0  3  0  0  0  0  0  0
  189.4520  178.2570  147.6280 C   0  0  0  0  0  2  0  0  0  0  0  0
  188.4900  178.1270  148.7930 C   0  0  0  0  0  1  0  0  0  0  0  0
  189.2440  178.2570  143.4780 O   0  0  0  0  0  0  0  0  0  0  0  0
  189.4530  178.0330  142.1150 C   0  0  0  0  0  2  0  0  0  0  0  0
  190.8200  177.4060  141.8790 C   0  0  0  0  0  2  0  0  0  0  0  0
  189.8820  177.6490  139.5860 C   0  0  0  0  0  1  0  0  0  0  0  0
  191.0820  177.1960  140.3950 C   0  0  0  0  0  2  0  0  0  0  0  0
  1 16  1  6  0  0  0
  1  3  1  0  0  0  0
  1  4  1  0  0  0  0
  3 12  1  0  0  0  0
  4  2  1  1  0  0  0
  4  6  1  0  0  0  0
  5 11  1  0  0  0  0
  6  9  1  6  0  0  0
  6  8  1  0  0  0  0
  7 28  1  1  0  0  0
  7  5  1  0  0  0  0
 10  2  1  0  0  0  0
 10  7  1  0  0  0  0
 11  8  1  0  0  0  0
 11 26  1  1  0  0  0
 12  9  1  0  0  0  0
 13 10  2  0  0  0  0
 14 16  1  0  0  0  0
 15 16  2  0  0  0  0
 17 18  2  0  0  0  0
 18 14  1  0  0  0  0
 19 18  2  0  0  0  0
 21 18  1  0  0  0  0
 21 20  2  0  0  0  0
 22 20  1  0  0  0  0
 23 24  2  0  0  0  0
 23 25  1  0  0  0  0
 24 21  1  0  0  0  0
 25 22  2  0  0  0  0
 26 27  1  0  0  0  0
 29 28  1  0  0  0  0
 30 29  1  0  0  0  0
 31 32  1  0  0  0  0
 32 30  1  0  0  0  0
M  END
>  <MODEL>
1

>  <REMARK>
 VINA RESULT:      -7.3      0.000      0.000
  Name = 
  8 active torsions:
  status: ('A' for Active; 'I' for Inactive)
    1  A    between atoms: C_1  and  C_27
    2  A    between atoms: C_7  and  S_22
    3  A    between atoms: C_9  and  C_12
    4  A    between atoms: C_9  and  C_31
    5  A    between atoms: O_10  and  C_12
    6  A    between atoms: O_10  and  C_17
    7  A    between atoms: C_13  and  C_29
    8  A    between atoms: N_16  and  S_22
                            x       y       z     vdW  Elec       q    Type
                         _______ _______ _______ _____ _____    ______ ____

>  <TORSDO>
F 8

$$$$
=
 OpenBabel11052414323D

 32 34  0  0  1  0  0  0  0  0999 V2000
  187.9810  177.6840  141.3300 C   0  0  1  0  0  3  0  0  0  0  0  0
  189.7450  178.7110  142.6490 O   0  0  0  0  0  0  0  0  0  0  0  0
  188.4750  178.2460  139.9870 C   0  0  0  0  0  2  0  0  0  0  0  0
  189.1110  177.4680  142.3430 C   0  0  2  0  0  3  0  0  0  0  0  0
  191.4410  177.0350  144.9660 C   0  0  0  0  0  2  0  0  0  0  0  0
  190.1200  176.4510  141.7690 C   0  0  2  0  0  3  0  0  0  0  0  0
  190.3040  178.0580  145.0540 C   0  0  1  0  0  3  0  0  0  0  0  0
  191.4240  176.3900  142.5520 C   0  0  0  0  0  2  0  0  0  0  0  0
  190.3990  176.6210  140.2650 C   0  0  0  0  0  2  0  0  0  0  0  0
  190.2940  179.0210  143.8990 C   0  0  0  0  0  0  0  0  0  0  0  0
  191.1680  175.9100  143.9750 C   0  0  1  0  0  3  0  0  0  0  0  0
  189.9650  177.9870  139.7340 C   0  0  0  0  0  2  0  0  0  0  0  0
  190.8170  180.1530  144.0630 O   0  0  0  0  0  0  0  0  0  0  0  0
  186.1480  178.0530  143.0390 N   0  0  0  0  0  2  0  0  0  0  0  0
  186.5620  179.5920  141.3310 O   0  0  0  0  0  0  0  0  0  0  0  0
  186.8610  178.5010  141.8830 C   0  0  0  0  0  0  0  0  0  0  0  0
  185.1180  180.3940  143.7660 O   0  0  0  0  0  0  0  0  0  0  0  0
  184.8130  178.9200  143.7160 S   0  0  0  0  0  0  0  0  0  0  0  0
  184.5480  178.4110  145.1070 O   0  0  0  0  0  0  0  0  0  0  0  0
  182.1330  178.9880  143.1800 C   0  0  0  0  0  3  0  0  0  0  0  0
  183.4070  178.6600  142.7000 C   0  0  0  0  0  0  0  0  0  0  0  0
  181.0090  178.7940  142.3720 C   0  0  0  0  0  3  0  0  0  0  0  0
  182.4270  177.9420  140.6020 C   0  0  0  0  0  3  0  0  0  0  0  0
  183.5520  178.1340  141.4110 C   0  0  0  0  0  3  0  0  0  0  0  0
  181.1560  178.2730  141.0830 C   0  0  0  0  0  3  0  0  0  0  0  0
  192.0720  174.7340  144.2970 C   0  0  0  0  0  2  0  0  0  0  0  0
  192.3880  174.7050  145.7790 C   0  0  0  0  0  1  0  0  0  0  0  0
  189.0620  177.4410  145.2350 O   0  0  0  0  0  0  0  0  0  0  0  0
  189.0310  177.0890  146.5860 C   0  0  0  0  0  2  0  0  0  0  0  0
  187.6920  177.4630  147.2060 C   0  0  0  0  0  2  0  0  0  0  0  0
  189.3580  178.4000  148.8010 C   0  0  0  0  0  1  0  0  0  0  0  0
  187.8810  178.2660  148.4840 C   0  0  0  0  0  2  0  0  0  0  0  0
  1 16  1  1  0  0  0
  1  4  1  0  0  0  0
  2 10  1  0  0  0  0
  3  1  1  0  0  0  0
  4  2  1  6  0  0  0
  5  7  1  0  0  0  0
  6  9  1  6  0  0  0
  6  4  1  0  0  0  0
  6  8  1  0  0  0  0
  7 28  1  6  0  0  0
  8 11  1  0  0  0  0
 10 13  2  0  0  0  0
 10  7  1  0  0  0  0
 11 26  1  1  0  0  0
 11  5  1  0  0  0  0
 12  3  1  0  0  0  0
 12  9  1  0  0  0  0
 14 18  1  0  0  0  0
 15 16  2  0  0  0  0
 16 14  1  0  0  0  0
 18 17  2  0  0  0  0
 18 19  2  0  0  0  0
 21 20  1  0  0  0  0
 21 18  1  0  0  0  0
 22 20  2  0  0  0  0
 23 25  2  0  0  0  0
 23 24  1  0  0  0  0
 24 21  2  0  0  0  0
 25 22  1  0  0  0  0
 26 27  1  0  0  0  0
 28 29  1  0  0  0  0
 29 30  1  0  0  0  0
 30 32  1  0  0  0  0
 32 31  1  0  0  0  0
M  END
>  <MODEL>
2

>  <REMARK>
 VINA RESULT:      -7.2      2.271      5.136
  Name = 
  8 active torsions:
  status: ('A' for Active; 'I' for Inactive)
    1  A    between atoms: C_1  and  C_27
    2  A    between atoms: C_7  and  S_22
    3  A    between atoms: C_9  and  C_12
    4  A    between atoms: C_9  and  C_31
    5  A    between atoms: O_10  and  C_12
    6  A    between atoms: O_10  and  C_17
    7  A    between atoms: C_13  and  C_29
    8  A    between atoms: N_16  and  S_22
                            x       y       z     vdW  Elec       q    Type
                         _______ _______ _______ _____ _____    ______ ____

>  <TORSDO>
F 8

$$$$
=
 OpenBabel11052414323D

 32 34  0  0  1  0  0  0  0  0999 V2000
  184.8560  178.1330  142.9060 C   0  0  1  0  0  3  0  0  0  0  0  0
  184.2240  179.3960  140.9290 O   0  0  0  0  0  0  0  0  0  0  0  0
  184.6430  179.3000  143.8830 C   0  0  0  0  0  2  0  0  0  0  0  0
  183.9480  178.2080  141.6730 C   0  0  2  0  0  3  0  0  0  0  0  0
  182.1490  178.1850  138.6310 C   0  0  0  0  0  2  0  0  0  0  0  0
  182.4740  178.1590  142.1240 C   0  0  2  0  0  3  0  0  0  0  0  0
  183.6720  178.3420  138.6690 C   0  0  1  0  0  3  0  0  0  0  0  0
  181.4940  178.5270  141.0180 C   0  0  0  0  0  2  0  0  0  0  0  0
  182.1780  178.9660  143.4010 C   0  0  0  0  0  2  0  0  0  0  0  0
  184.1190  179.4870  139.5360 C   0  0  0  0  0  0  0  0  0  0  0  0
  181.5770  177.5200  139.8780 C   0  0  1  0  0  3  0  0  0  0  0  0
  183.2760  179.9780  143.7280 C   0  0  0  0  0  2  0  0  0  0  0  0
  184.4000  180.5800  138.9810 O   0  0  0  0  0  0  0  0  0  0  0  0
  187.2310  177.5130  143.5310 N   0  0  0  0  0  2  0  0  0  0  0  0
  186.6770  178.2410  141.3810 O   0  0  0  0  0  0  0  0  0  0  0  0
  186.2970  177.9760  142.5520 C   0  0  0  0  0  0  0  0  0  0  0  0
  189.4650  178.5990  142.5800 O   0  0  0  0  0  0  0  0  0  0  0  0
  188.9230  177.3430  143.2110 S   0  0  0  0  0  0  0  0  0  0  0  0
  189.1360  176.1780  142.2840 O   0  0  0  0  0  0  0  0  0  0  0  0
  189.0450  177.1690  145.9370 C   0  0  0  0  0  3  0  0  0  0  0  0
  189.7510  177.0630  144.7320 C   0  0  0  0  0  0  0  0  0  0  0  0
  189.6950  176.9370  147.1530 C   0  0  0  0  0  3  0  0  0  0  0  0
  191.7590  176.4940  145.9650 C   0  0  0  0  0  3  0  0  0  0  0  0
  191.1100  176.7290  144.7490 C   0  0  0  0  0  3  0  0  0  0  0  0
  191.0510  176.5970  147.1670 C   0  0  0  0  0  3  0  0  0  0  0  0
  180.1950  176.9780  139.5630 C   0  0  0  0  0  2  0  0  0  0  0  0
  179.2910  177.1080  140.7730 C   0  0  0  0  0  1  0  0  0  0  0  0
  184.3100  177.1450  139.0080 O   0  0  0  0  0  0  0  0  0  0  0  0
  184.4660  176.4680  137.7960 C   0  0  0  0  0  2  0  0  0  0  0  0
  185.2130  177.3320  136.7910 C   0  0  0  0  0  2  0  0  0  0  0  0
  187.4170  178.1380  137.6210 C   0  0  0  0  0  1  0  0  0  0  0  0
  186.7080  177.0570  136.8280 C   0  0  0  0  0  2  0  0  0  0  0  0
  1 16  1  6  0  0  0
  1  3  1  0  0  0  0
  4  2  1  1  0  0  0
  4  6  1  0  0  0  0
  4  1  1  0  0  0  0
  5  7  1  0  0  0  0
  5 11  1  0  0  0  0
  6  8  1  6  0  0  0
  6  9  1  0  0  0  0
  7 28  1  1  0  0  0
  7 10  1  0  0  0  0
  9 12  1  0  0  0  0
 10  2  1  0  0  0  0
 11 26  1  6  0  0  0
 11  8  1  0  0  0  0
 12  3  1  0  0  0  0
 13 10  2  0  0  0  0
 15 16  2  0  0  0  0
 16 14  1  0  0  0  0
 17 18  2  0  0  0  0
 18 14  1  0  0  0  0
 18 21  1  0  0  0  0
 19 18  2  0  0  0  0
 20 22  1  0  0  0  0
 21 24  1  0  0  0  0
 21 20  2  0  0  0  0
 22 25  2  0  0  0  0
 23 25  1  0  0  0  0
 24 23  2  0  0  0  0
 26 27  1  0  0  0  0
 29 28  1  0  0  0  0
 30 32  1  0  0  0  0
 30 29  1  0  0  0  0
 32 31  1  0  0  0  0
M  END
>  <MODEL>
3

>  <REMARK>
 VINA RESULT:      -7.1      2.370      7.637
  Name = 
  8 active torsions:
  status: ('A' for Active; 'I' for Inactive)
    1  A    between atoms: C_1  and  C_27
    2  A    between atoms: C_7  and  S_22
    3  A    between atoms: C_9  and  C_12
    4  A    between atoms: C_9  and  C_31
    5  A    between atoms: O_10  and  C_12
    6  A    between atoms: O_10  and  C_17
    7  A    between atoms: C_13  and  C_29
    8  A    between atoms: N_16  and  S_22
                            x       y       z     vdW  Elec       q    Type
                         _______ _______ _______ _____ _____    ______ ____

>  <TORSDO>
F 8

$$$$
=
 OpenBabel11052414323D

 32 34  0  0  1  0  0  0  0  0999 V2000
  186.3680  179.0470  141.5000 C   0  0  1  0  0  3  0  0  0  0  0  0
  186.8710  177.0840  142.8410 O   0  0  0  0  0  0  0  0  0  0  0  0
  185.0850  178.4650  140.8870 C   0  0  0  0  0  2  0  0  0  0  0  0
  186.6700  178.4970  142.8990 C   0  0  2  0  0  3  0  0  0  0  0  0
  187.7560  177.2910  146.0390 C   0  0  0  0  0  2  0  0  0  0  0  0
  185.5080  178.8600  143.8480 C   0  0  2  0  0  3  0  0  0  0  0  0
  188.5590  177.0500  144.7570 C   0  0  1  0  0  3  0  0  0  0  0  0
  185.5600  178.1110  145.1730 C   0  0  0  0  0  2  0  0  0  0  0  0
  184.1120  178.7380  143.2110 C   0  0  0  0  0  2  0  0  0  0  0  0
  187.7490  176.3850  143.6780 C   0  0  0  0  0  0  0  0  0  0  0  0
  186.8160  178.4880  145.9480 C   0  0  1  0  0  3  0  0  0  0  0  0
  184.1170  177.8990  141.9330 C   0  0  0  0  0  2  0  0  0  0  0  0
  187.8590  175.1410  143.5310 O   0  0  0  0  0  0  0  0  0  0  0  0
  187.3110  178.5280  139.2070 N   0  0  0  0  0  2  0  0  0  0  0  0
  188.6880  179.1600  140.9870 O   0  0  0  0  0  0  0  0  0  0  0  0
  187.5260  178.9150  140.5670 C   0  0  0  0  0  0  0  0  0  0  0  0
  189.7580  177.6040  138.7290 O   0  0  0  0  0  0  0  0  0  0  0  0
  188.6020  178.3140  138.0750 S   0  0  0  0  0  0  0  0  0  0  0  0
  189.0510  179.6600  137.5770 O   0  0  0  0  0  0  0  0  0  0  0  0
  186.6890  177.4840  136.3060 C   0  0  0  0  0  3  0  0  0  0  0  0
  188.0130  177.3410  136.7390 C   0  0  0  0  0  0  0  0  0  0  0  0
  186.2160  176.7200  135.2350 C   0  0  0  0  0  3  0  0  0  0  0  0
  188.3880  175.6670  135.0270 C   0  0  0  0  0  3  0  0  0  0  0  0
  188.8600  176.4290  136.0990 C   0  0  0  0  0  3  0  0  0  0  0  0
  187.0650  175.8140  134.5940 C   0  0  0  0  0  3  0  0  0  0  0  0
  186.4460  178.9380  147.3500 C   0  0  0  0  0  2  0  0  0  0  0  0
  187.4680  178.4320  148.3500 C   0  0  0  0  0  1  0  0  0  0  0  0
  189.1810  178.2170  144.3050 O   0  0  0  0  0  0  0  0  0  0  0  0
  190.5030  177.8420  144.0520 C   0  0  0  0  0  2  0  0  0  0  0  0
  191.2640  177.6490  145.3560 C   0  0  0  0  0  2  0  0  0  0  0  0
  192.1180  175.9640  146.9770 C   0  0  0  0  0  1  0  0  0  0  0  0
  191.6760  176.1970  145.5450 C   0  0  0  0  0  2  0  0  0  0  0  0
  1 16  1  6  0  0  0
  1  4  1  0  0  0  0
  2 10  1  0  0  0  0
  3  1  1  0  0  0  0
  3 12  1  0  0  0  0
  4  2  1  6  0  0  0
  4  6  1  0  0  0  0
  6  9  1  6  0  0  0
  6  8  1  0  0  0  0
  7 28  1  6  0  0  0
  7  5  1  0  0  0  0
  8 11  1  0  0  0  0
 10  7  1  0  0  0  0
 11  5  1  0  0  0  0
 11 26  1  1  0  0  0
 12  9  1  0  0  0  0
 13 10  2  0  0  0  0
 14 16  1  0  0  0  0
 16 15  2  0  0  0  0
 18 17  2  0  0  0  0
 18 14  1  0  0  0  0
 19 18  2  0  0  0  0
 20 21  1  0  0  0  0
 21 18  1  0  0  0  0
 22 20  2  0  0  0  0
 23 24  1  0  0  0  0
 24 21  2  0  0  0  0
 25 23  2  0  0  0  0
 25 22  1  0  0  0  0
 26 27  1  0  0  0  0
 29 28  1  0  0  0  0
 29 30  1  0  0  0  0
 30 32  1  0  0  0  0
 32 31  1  0  0  0  0
M  END
>  <MODEL>
4

>  <REMARK>
 VINA RESULT:      -6.9      2.635      3.805
  Name = 
  8 active torsions:
  status: ('A' for Active; 'I' for Inactive)
    1  A    between atoms: C_1  and  C_27
    2  A    between atoms: C_7  and  S_22
    3  A    between atoms: C_9  and  C_12
    4  A    between atoms: C_9  and  C_31
    5  A    between atoms: O_10  and  C_12
    6  A    between atoms: O_10  and  C_17
    7  A    between atoms: C_13  and  C_29
    8  A    between atoms: N_16  and  S_22
                            x       y       z     vdW  Elec       q    Type
                         _______ _______ _______ _____ _____    ______ ____

>  <TORSDO>
F 8

$$$$
=
 OpenBabel11052414323D

 32 34  0  0  1  0  0  0  0  0999 V2000
  185.3600  176.9640  137.3070 C   0  0  1  0  0  3  0  0  0  0  0  0
  187.4520  178.1870  137.1310 O   0  0  0  0  0  0  0  0  0  0  0  0
  184.9090  177.2650  135.8690 C   0  0  0  0  0  2  0  0  0  0  0  0
  186.8850  176.9190  137.4610 C   0  0  2  0  0  3  0  0  0  0  0  0
  190.3420  176.9360  138.1980 C   0  0  0  0  0  2  0  0  0  0  0  0
  187.4530  175.8000  136.5630 C   0  0  2  0  0  3  0  0  0  0  0  0
  189.3830  177.9740  138.7900 C   0  0  1  0  0  3  0  0  0  0  0  0
  188.9660  175.8640  136.4090 C   0  0  0  0  0  2  0  0  0  0  0  0
  186.7730  175.6890  135.1870 C   0  0  0  0  0  2  0  0  0  0  0  0
  188.6000  178.7110  137.7380 C   0  0  0  0  0  0  0  0  0  0  0  0
  189.6470  175.6530  137.7550 C   0  0  1  0  0  3  0  0  0  0  0  0
  185.9780  176.9420  134.8180 C   0  0  0  0  0  2  0  0  0  0  0  0
  189.0060  179.8460  137.3800 O   0  0  0  0  0  0  0  0  0  0  0  0
  183.6050  177.4300  139.0720 N   0  0  0  0  0  2  0  0  0  0  0  0
  185.1530  179.0540  138.4210 O   0  0  0  0  0  0  0  0  0  0  0  0
  184.7100  177.8830  138.2860 C   0  0  0  0  0  0  0  0  0  0  0  0
  181.3910  177.9060  140.4660 O   0  0  0  0  0  0  0  0  0  0  0  0
  182.7710  178.4460  140.1980 S   0  0  0  0  0  0  0  0  0  0  0  0
  182.6700  179.8350  139.6290 O   0  0  0  0  0  0  0  0  0  0  0  0
  183.0200  178.7560  142.9030 C   0  0  0  0  0  3  0  0  0  0  0  0
  183.6780  178.4730  141.6990 C   0  0  0  0  0  0  0  0  0  0  0  0
  183.7330  178.7690  144.1050 C   0  0  0  0  0  3  0  0  0  0  0  0
  185.7640  178.2180  142.9050 C   0  0  0  0  0  3  0  0  0  0  0  0
  185.0520  178.2070  141.7030 C   0  0  0  0  0  3  0  0  0  0  0  0
  185.1050  178.4970  144.1070 C   0  0  0  0  0  3  0  0  0  0  0  0
  190.6760  174.5420  137.6490 C   0  0  0  0  0  2  0  0  0  0  0  0
  192.0780  175.1170  137.7060 C   0  0  0  0  0  1  0  0  0  0  0  0
  188.5540  177.4190  139.7690 O   0  0  0  0  0  0  0  0  0  0  0  0
  188.9440  178.0370  140.9600 C   0  0  0  0  0  2  0  0  0  0  0  0
  189.6960  177.0580  141.8500 C   0  0  0  0  0  2  0  0  0  0  0  0
  189.0200  176.8580  144.2370 C   0  0  0  0  0  1  0  0  0  0  0  0
  188.7570  176.3670  142.8260 C   0  0  0  0  0  2  0  0  0  0  0  0
  1  4  1  0  0  0  0
  1 16  1  1  0  0  0
  2 10  1  0  0  0  0
  3  1  1  0  0  0  0
  4  2  1  6  0  0  0
  5  7  1  0  0  0  0
  6  9  1  6  0  0  0
  6  4  1  0  0  0  0
  7 28  1  1  0  0  0
  8  6  1  0  0  0  0
  8 11  1  0  0  0  0
 10  7  1  0  0  0  0
 11 26  1  6  0  0  0
 11  5  1  0  0  0  0
 12  9  1  0  0  0  0
 12  3  1  0  0  0  0
 13 10  2  0  0  0  0
 14 18  1  0  0  0  0
 16 15  2  0  0  0  0
 16 14  1  0  0  0  0
 18 17  2  0  0  0  0
 18 21  1  0  0  0  0
 19 18  2  0  0  0  0
 20 22  1  0  0  0  0
 21 24  1  0  0  0  0
 21 20  2  0  0  0  0
 22 25  2  0  0  0  0
 23 25  1  0  0  0  0
 24 23  2  0  0  0  0
 26 27  1  0  0  0  0
 28 29  1  0  0  0  0
 29 30  1  0  0  0  0
 30 32  1  0  0  0  0
 32 31  1  0  0  0  0
M  END
>  <MODEL>
5

>  <REMARK>
 VINA RESULT:      -6.9      2.595      6.843
  Name = 
  8 active torsions:
  status: ('A' for Active; 'I' for Inactive)
    1  A    between atoms: C_1  and  C_27
    2  A    between atoms: C_7  and  S_22
    3  A    between atoms: C_9  and  C_12
    4  A    between atoms: C_9  and  C_31
    5  A    between atoms: O_10  and  C_12
    6  A    between atoms: O_10  and  C_17
    7  A    between atoms: C_13  and  C_29
    8  A    between atoms: N_16  and  S_22
                            x       y       z     vdW  Elec       q    Type
                         _______ _______ _______ _____ _____    ______ ____

>  <TORSDO>
F 8

$$$$
=
 OpenBabel11052414323D

 32 34  0  0  1  0  0  0  0  0999 V2000
  189.6440  177.7760  146.5880 C   0  0  1  0  0  3  0  0  0  0  0  0
  189.0820  176.3230  144.7240 O   0  0  0  0  0  0  0  0  0  0  0  0
  190.0490  176.6310  147.5310 C   0  0  0  0  0  2  0  0  0  0  0  0
  189.8760  177.4460  145.1090 C   0  0  2  0  0  3  0  0  0  0  0  0
  190.1000  176.9340  141.6190 C   0  0  0  0  0  2  0  0  0  0  0  0
  191.3770  177.1760  144.8780 C   0  0  2  0  0  3  0  0  0  0  0  0
  188.7540  177.1300  142.3230 C   0  0  1  0  0  3  0  0  0  0  0  0
  191.6730  176.5500  143.5220 C   0  0  0  0  0  2  0  0  0  0  0  0
  192.0550  176.3750  146.0040 C   0  0  0  0  0  2  0  0  0  0  0  0
  188.5360  176.1530  143.4460 C   0  0  0  0  0  0  0  0  0  0  0  0
  191.2810  177.5020  142.4000 C   0  0  1  0  0  3  0  0  0  0  0  0
  191.0500  175.6540  146.9030 C   0  0  0  0  0  2  0  0  0  0  0  0
  187.8390  175.1310  143.2180 O   0  0  0  0  0  0  0  0  0  0  0  0
  187.2640  178.1990  145.8320 N   0  0  0  0  0  2  0  0  0  0  0  0
  187.9590  178.6580  148.0150 O   0  0  0  0  0  0  0  0  0  0  0  0
  188.2540  178.2420  146.8630 C   0  0  0  0  0  0  0  0  0  0  0  0
  185.6440  180.1820  146.5460 O   0  0  0  0  0  0  0  0  0  0  0  0
  185.6430  178.7580  146.0580 S   0  0  0  0  0  0  0  0  0  0  0  0
  184.9540  177.8780  147.0660 O   0  0  0  0  0  0  0  0  0  0  0  0
  183.4580  179.0510  144.4400 C   0  0  0  0  0  3  0  0  0  0  0  0
  184.8070  178.6800  144.5180 C   0  0  0  0  0  0  0  0  0  0  0  0
  182.7880  179.0020  143.2140 C   0  0  0  0  0  3  0  0  0  0  0  0
  184.8100  178.2080  142.1400 C   0  0  0  0  0  3  0  0  0  0  0  0
  185.4800  178.2550  143.3670 C   0  0  0  0  0  3  0  0  0  0  0  0
  183.4640  178.5830  142.0640 C   0  0  0  0  0  3  0  0  0  0  0  0
  192.4520  177.7020  141.4550 C   0  0  0  0  0  2  0  0  0  0  0  0
  192.0380  177.3830  140.0310 C   0  0  0  0  0  1  0  0  0  0  0  0
  188.5700  178.4530  142.7340 O   0  0  0  0  0  0  0  0  0  0  0  0
  188.3880  179.1730  141.5500 C   0  0  0  0  0  2  0  0  0  0  0  0
  187.9280  178.2530  140.4290 C   0  0  0  0  0  2  0  0  0  0  0  0
  188.6350  177.4090  138.1960 C   0  0  0  0  0  1  0  0  0  0  0  0
  188.5860  178.6200  139.1080 C   0  0  0  0  0  2  0  0  0  0  0  0
  1 16  1  6  0  0  0
  1  3  1  0  0  0  0
  4  2  1  1  0  0  0
  4  1  1  0  0  0  0
  5  7  1  0  0  0  0
  5 11  1  0  0  0  0
  6  8  1  6  0  0  0
  6  4  1  0  0  0  0
  6  9  1  0  0  0  0
  7 28  1  1  0  0  0
  7 10  1  0  0  0  0
  9 12  1  0  0  0  0
 10  2  1  0  0  0  0
 11 26  1  6  0  0  0
 11  8  1  0  0  0  0
 12  3  1  0  0  0  0
 13 10  2  0  0  0  0
 14 18  1  0  0  0  0
 14 16  1  0  0  0  0
 16 15  2  0  0  0  0
 18 17  2  0  0  0  0
 18 19  2  0  0  0  0
 20 21  1  0  0  0  0
 21 18  1  0  0  0  0
 22 20  2  0  0  0  0
 23 24  1  0  0  0  0
 24 21  2  0  0  0  0
 25 23  2  0  0  0  0
 25 22  1  0  0  0  0
 27 26  1  0  0  0  0
 29 28  1  0  0  0  0
 30 29  1  0  0  0  0
 31 32  1  0  0  0  0
 32 30  1  0  0  0  0
M  END
>  <MODEL>
6

>  <REMARK>
 VINA RESULT:      -6.5      3.024      5.464
  Name = 
  8 active torsions:
  status: ('A' for Active; 'I' for Inactive)
    1  A    between atoms: C_1  and  C_27
    2  A    between atoms: C_7  and  S_22
    3  A    between atoms: C_9  and  C_12
    4  A    between atoms: C_9  and  C_31
    5  A    between atoms: O_10  and  C_12
    6  A    between atoms: O_10  and  C_17
    7  A    between atoms: C_13  and  C_29
    8  A    between atoms: N_16  and  S_22
                            x       y       z     vdW  Elec       q    Type
                         _______ _______ _______ _____ _____    ______ ____

>  <TORSDO>
F 8

$$$$
=
 OpenBabel11052414323D

 32 34  0  0  1  0  0  0  0  0999 V2000
  183.0560  175.3030  138.3310 C   0  0  1  0  0  3  0  0  0  0  0  0
  184.4000  175.8830  136.3920 O   0  0  0  0  0  0  0  0  0  0  0  0
  181.8350  174.8480  137.5150 C   0  0  0  0  0  2  0  0  0  0  0  0
  184.3830  175.1040  137.5890 C   0  0  2  0  0  3  0  0  0  0  0  0
  187.5800  174.9620  136.0900 C   0  0  0  0  0  2  0  0  0  0  0  0
  184.5730  173.6040  137.2850 C   0  0  2  0  0  3  0  0  0  0  0  0
  186.9200  176.2920  136.4630 C   0  0  1  0  0  3  0  0  0  0  0  0
  185.6990  173.3300  136.2960 C   0  0  0  0  0  2  0  0  0  0  0  0
  183.2860  172.8780  136.8540 C   0  0  0  0  0  2  0  0  0  0  0  0
  185.5560  176.4590  135.8520 C   0  0  0  0  0  0  0  0  0  0  0  0
  187.0360  173.7740  136.8750 C   0  0  1  0  0  3  0  0  0  0  0  0
  182.1850  173.8420  136.4120 C   0  0  0  0  0  2  0  0  0  0  0  0
  185.4550  177.1380  134.7980 O   0  0  0  0  0  0  0  0  0  0  0  0
  183.4140  177.0670  140.1130 N   0  0  0  0  0  2  0  0  0  0  0  0
  182.2790  177.5410  138.1260 O   0  0  0  0  0  0  0  0  0  0  0  0
  182.8830  176.6960  138.8380 C   0  0  0  0  0  0  0  0  0  0  0  0
  181.7650  179.0270  140.8250 O   0  0  0  0  0  0  0  0  0  0  0  0
  183.2210  178.6480  140.7890 S   0  0  0  0  0  0  0  0  0  0  0  0
  183.9820  179.6390  139.9510 O   0  0  0  0  0  0  0  0  0  0  0  0
  185.1800  178.2560  142.6560 C   0  0  0  0  0  3  0  0  0  0  0  0
  183.8510  178.6340  142.4260 C   0  0  0  0  0  0  0  0  0  0  0  0
  185.6920  178.2520  143.9570 C   0  0  0  0  0  3  0  0  0  0  0  0
  183.5500  179.0020  144.8030 C   0  0  0  0  0  3  0  0  0  0  0  0
  183.0360  179.0030  143.5020 C   0  0  0  0  0  3  0  0  0  0  0  0
  184.8790  178.6280  145.0300 C   0  0  0  0  0  3  0  0  0  0  0  0
  188.0350  172.6330  136.8090 C   0  0  0  0  0  2  0  0  0  0  0  0
  187.5270  171.5430  135.8860 C   0  0  0  0  0  1  0  0  0  0  0  0
  186.9050  176.4950  137.8460 O   0  0  0  0  0  0  0  0  0  0  0  0
  187.0230  177.8780  138.0060 C   0  0  0  0  0  2  0  0  0  0  0  0
  188.4870  178.2930  138.0120 C   0  0  0  0  0  2  0  0  0  0  0  0
  188.4600  178.2510  140.5000 C   0  0  0  0  0  1  0  0  0  0  0  0
  189.1990  177.7900  139.2580 C   0  0  0  0  0  2  0  0  0  0  0  0
  1 16  1  6  0  0  0
  3  1  1  0  0  0  0
  4  2  1  6  0  0  0
  4  1  1  0  0  0  0
  5  7  1  0  0  0  0
  5 11  1  0  0  0  0
  6  8  1  6  0  0  0
  6  4  1  0  0  0  0
  7 28  1  1  0  0  0
  8 11  1  0  0  0  0
  9  6  1  0  0  0  0
 10  2  1  0  0  0  0
 10  7  1  0  0  0  0
 11 26  1  6  0  0  0
 12  9  1  0  0  0  0
 12  3  1  0  0  0  0
 13 10  2  0  0  0  0
 14 18  1  0  0  0  0
 15 16  2  0  0  0  0
 16 14  1  0  0  0  0
 18 17  2  0  0  0  0
 18 21  1  0  0  0  0
 19 18  2  0  0  0  0
 20 22  1  0  0  0  0
 21 20  2  0  0  0  0
 21 24  1  0  0  0  0
 22 25  2  0  0  0  0
 23 25  1  0  0  0  0
 24 23  2  0  0  0  0
 27 26  1  0  0  0  0
 28 29  1  0  0  0  0
 29 30  1  0  0  0  0
 30 32  1  0  0  0  0
 32 31  1  0  0  0  0
M  END
>  <MODEL>
7

>  <REMARK>
 VINA RESULT:      -6.4      3.300      7.695
  Name = 
  8 active torsions:
  status: ('A' for Active; 'I' for Inactive)
    1  A    between atoms: C_1  and  C_27
    2  A    between atoms: C_7  and  S_22
    3  A    between atoms: C_9  and  C_12
    4  A    between atoms: C_9  and  C_31
    5  A    between atoms: O_10  and  C_12
    6  A    between atoms: O_10  and  C_17
    7  A    between atoms: C_13  and  C_29
    8  A    between atoms: N_16  and  S_22
                            x       y       z     vdW  Elec       q    Type
                         _______ _______ _______ _____ _____    ______ ____

>  <TORSDO>
F 8

$$$$
=
 OpenBabel11052414323D

 32 34  0  0  1  0  0  0  0  0999 V2000
  188.7730  177.4260  140.8720 C   0  0  1  0  0  3  0  0  0  0  0  0
  190.1170  178.6840  142.4570 O   0  0  0  0  0  0  0  0  0  0  0  0
  189.5790  177.8640  139.6380 C   0  0  0  0  0  2  0  0  0  0  0  0
  189.6130  177.3830  142.1530 C   0  0  2  0  0  3  0  0  0  0  0  0
  191.2080  177.3660  145.3080 C   0  0  0  0  0  2  0  0  0  0  0  0
  190.7600  176.3660  141.9740 C   0  0  2  0  0  3  0  0  0  0  0  0
  190.0610  178.3290  144.9860 C   0  0  1  0  0  3  0  0  0  0  0  0
  191.8220  176.4620  143.0610 C   0  0  0  0  0  2  0  0  0  0  0  0
  191.4090  176.3850  140.5790 C   0  0  0  0  0  2  0  0  0  0  0  0
  190.3220  179.1580  143.7580 C   0  0  0  0  0  0  0  0  0  0  0  0
  191.2250  176.1260  144.4210 C   0  0  1  0  0  3  0  0  0  0  0  0
  191.0900  177.6600  139.7970 C   0  0  0  0  0  2  0  0  0  0  0  0
  190.7580  180.3280  143.9120 O   0  0  0  0  0  0  0  0  0  0  0  0
  186.2490  177.6270  140.8400 N   0  0  0  0  0  2  0  0  0  0  0  0
  187.6200  179.4530  141.3330 O   0  0  0  0  0  0  0  0  0  0  0  0
  187.5290  178.2360  141.0250 C   0  0  0  0  0  0  0  0  0  0  0  0
  183.6570  177.7610  140.2600 O   0  0  0  0  0  0  0  0  0  0  0  0
  184.7630  178.5060  140.9600 S   0  0  0  0  0  0  0  0  0  0  0  0
  184.9380  179.8610  140.3310 O   0  0  0  0  0  0  0  0  0  0  0  0
  183.0170  178.8500  143.0350 C   0  0  0  0  0  3  0  0  0  0  0  0
  184.3540  178.6770  142.6580 C   0  0  0  0  0  0  0  0  0  0  0  0
  182.6820  178.9760  144.3870 C   0  0  0  0  0  3  0  0  0  0  0  0
  185.0190  178.7590  144.9870 C   0  0  0  0  0  3  0  0  0  0  0  0
  185.3540  178.6350  143.6350 C   0  0  0  0  0  3  0  0  0  0  0  0
  183.6820  178.9280  145.3630 C   0  0  0  0  0  3  0  0  0  0  0  0
  192.0460  175.0430  145.0970 C   0  0  0  0  0  2  0  0  0  0  0  0
  192.2450  175.3730  146.5630 C   0  0  0  0  0  1  0  0  0  0  0  0
  188.8300  177.6690  144.9220 O   0  0  0  0  0  0  0  0  0  0  0  0
  188.6470  177.1300  146.1980 C   0  0  0  0  0  2  0  0  0  0  0  0
  187.4220  177.7380  146.8660 C   0  0  0  0  0  2  0  0  0  0  0  0
  189.2370  178.1070  148.5290 C   0  0  0  0  0  1  0  0  0  0  0  0
  187.7530  178.2630  148.2540 C   0  0  0  0  0  2  0  0  0  0  0  0
  1 16  1  1  0  0  0
  1  4  1  0  0  0  0
  2 10  1  0  0  0  0
  3 12  1  0  0  0  0
  3  1  1  0  0  0  0
  4  2  1  6  0  0  0
  6  9  1  6  0  0  0
  6  4  1  0  0  0  0
  6  8  1  0  0  0  0
  7 28  1  6  0  0  0
  7  5  1  0  0  0  0
  8 11  1  0  0  0  0
 10 13  2  0  0  0  0
 10  7  1  0  0  0  0
 11 26  1  1  0  0  0
 11  5  1  0  0  0  0
 12  9  1  0  0  0  0
 14 18  1  0  0  0  0
 14 16  1  0  0  0  0
 16 15  2  0  0  0  0
 17 18  2  0  0  0  0
 18 21  1  0  0  0  0
 19 18  2  0  0  0  0
 20 22  1  0  0  0  0
 21 20  2  0  0  0  0
 21 24  1  0  0  0  0
 22 25  2  0  0  0  0
 23 25  1  0  0  0  0
 24 23  2  0  0  0  0
 26 27  1  0  0  0  0
 28 29  1  0  0  0  0
 29 30  1  0  0  0  0
 30 32  1  0  0  0  0
 32 31  1  0  0  0  0
M  END
>  <MODEL>
8

>  <REMARK>
 VINA RESULT:      -6.3      2.651      5.476
  Name = 
  8 active torsions:
  status: ('A' for Active; 'I' for Inactive)
    1  A    between atoms: C_1  and  C_27
    2  A    between atoms: C_7  and  S_22
    3  A    between atoms: C_9  and  C_12
    4  A    between atoms: C_9  and  C_31
    5  A    between atoms: O_10  and  C_12
    6  A    between atoms: O_10  and  C_17
    7  A    between atoms: C_13  and  C_29
    8  A    between atoms: N_16  and  S_22
                            x       y       z     vdW  Elec       q    Type
                         _______ _______ _______ _____ _____    ______ ____

>  <TORSDO>
F 8

$$$$
=
 OpenBabel11052414323D

 32 34  0  0  1  0  0  0  0  0999 V2000
  186.2540  178.9540  141.3820 C   0  0  1  0  0  3  0  0  0  0  0  0
  187.0810  176.9900  142.5500 O   0  0  0  0  0  0  0  0  0  0  0  0
  184.9580  178.2850  140.8970 C   0  0  0  0  0  2  0  0  0  0  0  0
  186.7700  178.3760  142.7050 C   0  0  2  0  0  3  0  0  0  0  0  0
  188.3310  177.1420  145.6260 C   0  0  0  0  0  2  0  0  0  0  0  0
  185.7070  178.5930  143.8020 C   0  0  2  0  0  3  0  0  0  0  0  0
  188.9880  177.0270  144.2480 C   0  0  1  0  0  3  0  0  0  0  0  0
  185.9840  177.7980  145.0710 C   0  0  0  0  0  2  0  0  0  0  0  0
  184.2590  178.3730  143.3310 C   0  0  0  0  0  2  0  0  0  0  0  0
  188.1100  176.3390  143.2390 C   0  0  0  0  0  0  0  0  0  0  0  0
  187.2890  178.2530  145.7100 C   0  0  1  0  0  3  0  0  0  0  0  0
  184.1770  177.5910  142.0190 C   0  0  0  0  0  2  0  0  0  0  0  0
  188.3060  175.1170  143.0150 O   0  0  0  0  0  0  0  0  0  0  0  0
  186.9380  178.6720  138.9600 N   0  0  0  0  0  2  0  0  0  0  0  0
  188.4850  179.2490  140.6130 O   0  0  0  0  0  0  0  0  0  0  0  0
  187.2950  178.9650  140.3130 C   0  0  0  0  0  0  0  0  0  0  0  0
  189.0570  179.7730  137.7910 O   0  0  0  0  0  0  0  0  0  0  0  0
  188.0910  178.6240  137.6710 S   0  0  0  0  0  0  0  0  0  0  0  0
  187.3650  178.7080  136.3560 O   0  0  0  0  0  0  0  0  0  0  0  0
  190.1690  177.0590  138.5120 C   0  0  0  0  0  3  0  0  0  0  0  0
  188.9790  177.1150  137.7750 C   0  0  0  0  0  0  0  0  0  0  0  0
  190.8770  175.8560  138.6090 C   0  0  0  0  0  3  0  0  0  0  0  0
  189.2100  174.7640  137.2310 C   0  0  0  0  0  3  0  0  0  0  0  0
  188.5040  175.9660  137.1320 C   0  0  0  0  0  3  0  0  0  0  0  0
  190.3960  174.7090  137.9710 C   0  0  0  0  0  3  0  0  0  0  0  0
  187.0580  178.6090  147.1680 C   0  0  0  0  0  2  0  0  0  0  0  0
  188.1780  178.0560  148.0270 C   0  0  0  0  0  1  0  0  0  0  0  0
  189.4500  178.2640  143.7870 O   0  0  0  0  0  0  0  0  0  0  0  0
  190.7610  178.3540  144.2590 C   0  0  0  0  0  2  0  0  0  0  0  0
  191.2590  176.9930  144.7230 C   0  0  0  0  0  2  0  0  0  0  0  0
  192.0560  175.6330  146.6490 C   0  0  0  0  0  1  0  0  0  0  0  0
  191.6810  177.0270  146.1830 C   0  0  0  0  0  2  0  0  0  0  0  0
  1 16  1  6  0  0  0
  1  4  1  0  0  0  0
  2 10  1  0  0  0  0
  3  1  1  0  0  0  0
  3 12  1  0  0  0  0
  4  2  1  6  0  0  0
  4  6  1  0  0  0  0
  5 11  1  0  0  0  0
  6  9  1  6  0  0  0
  6  8  1  0  0  0  0
  7 28  1  6  0  0  0
  7  5  1  0  0  0  0
  8 11  1  0  0  0  0
 10  7  1  0  0  0  0
 11 26  1  1  0  0  0
 12  9  1  0  0  0  0
 13 10  2  0  0  0  0
 14 16  1  0  0  0  0
 16 15  2  0  0  0  0
 18 21  1  0  0  0  0
 18 17  2  0  0  0  0
 18 14  1  0  0  0  0
 19 18  2  0  0  0  0
 20 22  1  0  0  0  0
 21 20  2  0  0  0  0
 23 25  1  0  0  0  0
 24 23  2  0  0  0  0
 24 21  1  0  0  0  0
 25 22  2  0  0  0  0
 26 27  1  0  0  0  0
 28 29  1  0  0  0  0
 29 30  1  0  0  0  0
 30 32  1  0  0  0  0
 32 31  1  0  0  0  0
M  END
>  <MODEL>
9

>  <REMARK>
 VINA RESULT:      -6.3      2.480      4.205
  Name = 
  8 active torsions:
  status: ('A' for Active; 'I' for Inactive)
    1  A    between atoms: C_1  and  C_27
    2  A    between atoms: C_7  and  S_22
    3  A    between atoms: C_9  and  C_12
    4  A    between atoms: C_9  and  C_31
    5  A    between atoms: O_10  and  C_12
    6  A    between atoms: O_10  and  C_17
    7  A    between atoms: C_13  and  C_29
    8  A    between atoms: N_16  and  S_22
                            x       y       z     vdW  Elec       q    Type
                         _______ _______ _______ _____ _____    ______ ____

>  <TORSDO>
F 8

$$$$
