=
 OpenBabel11052414413D

 32 36  0  0  1  0  0  0  0  0999 V2000
  187.1400  178.0570  140.1910 C   0  0  2  0  0  3  0  0  0  0  0  0
  188.4810  179.0050  142.1170 O   0  0  0  0  0  0  0  0  0  0  0  0
  185.9180  178.4610  139.3480 C   0  0  0  0  0  2  0  0  0  0  0  0
  187.2270  178.9330  141.4440 C   0  0  2  0  0  3  0  0  0  0  0  0
  188.7690  176.5700  142.3280 C   0  0  0  0  0  2  0  0  0  0  0  0
  189.3560  177.9170  141.8390 C   0  0  1  0  0  0  0  0  0  0  0  0
  186.0250  178.6860  142.3760 C   0  0  2  0  0  3  0  0  0  0  0  0
  188.3130  176.5420  143.7910 C   0  0  0  0  0  2  0  0  0  0  0  0
  186.1400  177.4100  143.0810 N   0  0  0  0  0  2  0  0  0  0  0  0
  184.7040  178.6700  141.5810 C   0  0  0  0  0  2  0  0  0  0  0  0
  189.6470  177.8150  140.3270 C   0  0  0  0  0  2  0  0  0  0  0  0
  188.4520  178.1390  139.4220 C   0  0  1  0  0  3  0  0  0  0  0  0
  187.1850  177.5240  144.0910 C   0  0  1  0  0  3  0  0  0  0  0  0
  184.8400  179.2120  140.1510 C   0  0  0  0  0  2  0  0  0  0  0  0
  187.3990  177.0400  135.9530 C   0  0  0  0  0  0  0  0  0  0  0  0
  188.7500  173.8710  135.3690 F   0  0  0  0  0  0  0  0  0  0  0  0
  186.9610  177.6240  134.8110 F   0  0  0  0  0  0  0  0  0  0  0  0
  189.2700  175.0450  137.2960 C   0  0  0  0  0  3  0  0  0  0  0  0
  188.4680  177.2630  138.2010 C   0  0  0  0  0  0  0  0  0  0  0  0
  187.1620  175.5770  136.1300 C   0  0  0  0  0  2  0  0  0  0  0  0
  189.0840  176.0780  138.3350 C   0  0  0  0  0  3  0  0  0  0  0  0
  187.9540  177.7970  136.9070 C   0  0  0  0  0  0  0  0  0  0  0  0
  188.0100  179.1370  136.6990 F   0  0  0  0  0  0  0  0  0  0  0  0
  188.4520  174.8430  136.2640 C   0  0  0  0  0  0  0  0  0  0  0  0
  191.4550  176.4790  145.5290 C   0  0  0  0  0  1  0  0  0  0  0  0
  190.7450  178.5950  144.6920 O   0  0  0  0  0  0  0  0  0  0  0  0
  190.6080  179.2060  143.5170 O   0  0  0  0  0  0  0  0  0  0  0  0
  190.7080  178.2160  142.5220 C   0  0  1  0  0  3  0  0  0  0  0  0
  191.6660  177.5620  144.4910 C   0  0  2  0  0  3  0  0  0  0  0  0
  191.3760  177.0210  143.1370 C   0  0  0  0  0  2  0  0  0  0  0  0
  186.6170  177.2320  145.4680 C   0  0  0  0  0  2  0  0  0  0  0  0
  187.6130  177.6220  146.5420 C   0  0  0  0  0  1  0  0  0  0  0  0
  1  3  1  6  0  0  0
  1  4  1  0  0  0  0
  3 14  1  0  0  0  0
  4  2  1  1  0  0  0
  4  7  1  0  0  0  0
  5  8  1  0  0  0  0
  6 11  1  6  0  0  0
  6  2  1  0  0  0  0
  6  5  1  0  0  0  0
  6 28  1  0  0  0  0
  7 10  1  6  0  0  0
  7  9  1  0  0  0  0
  8 13  1  0  0  0  0
  9 13  1  0  0  0  0
 12 19  1  6  0  0  0
 12  1  1  0  0  0  0
 12 11  1  0  0  0  0
 13 31  1  1  0  0  0
 14 10  1  0  0  0  0
 15 20  1  0  0  0  0
 15 22  2  0  0  0  0
 16 24  1  0  0  0  0
 17 15  1  0  0  0  0
 18 21  1  0  0  0  0
 19 21  2  0  0  0  0
 20 24  1  0  0  0  0
 22 19  1  0  0  0  0
 23 22  1  0  0  0  0
 24 18  2  0  0  0  0
 27 26  1  0  0  0  0
 28 30  1  1  0  0  0
 28 27  1  0  0  0  0
 29 26  1  0  0  0  0
 29 25  1  1  0  0  0
 30 29  1  0  0  0  0
 31 32  1  0  0  0  0
M  END
>  <MODEL>
1

>  <REMARK>
 VINA RESULT:      -8.2      0.000      0.000
  Name = 
  3 active torsions:
  status: ('A' for Active; 'I' for Inactive)
    1  A    between atoms: C_10  and  C_28
    2  A    between atoms: C_13  and  C_29
    3  A    between atoms: C_16  and  C_27
                            x       y       z     vdW  Elec       q    Type
                         _______ _______ _______ _____ _____    ______ ____

>  <TORSDO>
F 3

$$$$
=
 OpenBabel11052414413D

 32 36  0  0  1  0  0  0  0  0999 V2000
  187.5290  177.8590  139.8990 C   0  0  2  0  0  3  0  0  0  0  0  0
  188.7430  178.8760  141.8730 O   0  0  0  0  0  0  0  0  0  0  0  0
  186.4230  178.2680  138.9100 C   0  0  0  0  0  2  0  0  0  0  0  0
  187.5570  178.8270  141.0850 C   0  0  2  0  0  3  0  0  0  0  0  0
  188.8400  176.4540  142.2940 C   0  0  0  0  0  2  0  0  0  0  0  0
  189.5630  177.7180  141.7670 C   0  0  1  0  0  0  0  0  0  0  0  0
  186.2570  178.7320  141.9080 C   0  0  2  0  0  3  0  0  0  0  0  0
  188.2460  176.5740  143.7030 C   0  0  0  0  0  2  0  0  0  0  0  0
  186.2160  177.5140  142.7150 N   0  0  0  0  0  2  0  0  0  0  0  0
  185.0200  178.7330  140.9880 C   0  0  0  0  0  2  0  0  0  0  0  0
  189.9890  177.4740  140.3030 C   0  0  0  0  0  2  0  0  0  0  0  0
  188.9110  177.7960  139.2610 C   0  0  1  0  0  3  0  0  0  0  0  0
  187.1650  177.6450  143.8130 C   0  0  1  0  0  3  0  0  0  0  0  0
  185.3290  179.1470  139.5420 C   0  0  0  0  0  2  0  0  0  0  0  0
  190.2120  176.4200  135.9810 C   0  0  0  0  0  0  0  0  0  0  0  0
  188.0770  173.8480  134.9670 F   0  0  0  0  0  0  0  0  0  0  0  0
  191.3840  176.4070  135.2990 F   0  0  0  0  0  0  0  0  0  0  0  0
  187.7960  174.8830  137.0190 C   0  0  0  0  0  3  0  0  0  0  0  0
  188.9810  176.8250  138.1180 C   0  0  0  0  0  0  0  0  0  0  0  0
  188.9580  176.1200  135.2300 C   0  0  0  0  0  2  0  0  0  0  0  0
  187.9630  175.9550  138.0200 C   0  0  0  0  0  3  0  0  0  0  0  0
  190.2090  176.7720  137.2720 C   0  0  0  0  0  0  0  0  0  0  0  0
  191.3880  177.1480  137.8300 F   0  0  0  0  0  0  0  0  0  0  0  0
  188.2860  174.9100  135.7810 C   0  0  0  0  0  0  0  0  0  0  0  0
  191.1340  176.5800  145.8070 C   0  0  0  0  0  1  0  0  0  0  0  0
  190.7150  178.6270  144.6600 O   0  0  0  0  0  0  0  0  0  0  0  0
  190.7560  179.0970  143.4150 O   0  0  0  0  0  0  0  0  0  0  0  0
  190.8620  177.9870  142.5570 C   0  0  1  0  0  3  0  0  0  0  0  0
  191.5500  177.5050  144.6830 C   0  0  2  0  0  3  0  0  0  0  0  0
  191.3480  176.8260  143.3750 C   0  0  0  0  0  2  0  0  0  0  0  0
  186.4510  177.5010  145.1440 C   0  0  0  0  0  2  0  0  0  0  0  0
  187.4400  177.6110  146.2880 C   0  0  0  0  0  1  0  0  0  0  0  0
  1  3  1  6  0  0  0
  1  4  1  0  0  0  0
  3 14  1  0  0  0  0
  4  2  1  1  0  0  0
  4  7  1  0  0  0  0
  5  8  1  0  0  0  0
  6 11  1  6  0  0  0
  6  2  1  0  0  0  0
  6  5  1  0  0  0  0
  6 28  1  0  0  0  0
  7 10  1  6  0  0  0
  7  9  1  0  0  0  0
  8 13  1  0  0  0  0
  9 13  1  0  0  0  0
 12 19  1  6  0  0  0
 12  1  1  0  0  0  0
 12 11  1  0  0  0  0
 13 31  1  1  0  0  0
 14 10  1  0  0  0  0
 15 22  2  0  0  0  0
 16 24  1  0  0  0  0
 17 15  1  0  0  0  0
 18 21  1  0  0  0  0
 20 24  1  0  0  0  0
 20 15  1  0  0  0  0
 21 19  2  0  0  0  0
 22 23  1  0  0  0  0
 22 19  1  0  0  0  0
 24 18  2  0  0  0  0
 26 29  1  0  0  0  0
 27 26  1  0  0  0  0
 28 30  1  1  0  0  0
 28 27  1  0  0  0  0
 29 25  1  1  0  0  0
 30 29  1  0  0  0  0
 31 32  1  0  0  0  0
M  END
>  <MODEL>
2

>  <REMARK>
 VINA RESULT:      -7.5      1.244      1.436
  Name = 
  3 active torsions:
  status: ('A' for Active; 'I' for Inactive)
    1  A    between atoms: C_10  and  C_28
    2  A    between atoms: C_13  and  C_29
    3  A    between atoms: C_16  and  C_27
                            x       y       z     vdW  Elec       q    Type
                         _______ _______ _______ _____ _____    ______ ____

>  <TORSDO>
F 3

$$$$
=
 OpenBabel11052414413D

 32 36  0  0  1  0  0  0  0  0999 V2000
  181.3750  179.3780  141.6960 C   0  0  2  0  0  3  0  0  0  0  0  0
  180.6310  178.2640  139.5480 O   0  0  0  0  0  0  0  0  0  0  0  0
  180.7650  179.7350  143.0620 C   0  0  0  0  0  2  0  0  0  0  0  0
  180.2670  179.0120  140.7050 C   0  0  2  0  0  3  0  0  0  0  0  0
  182.4210  179.7960  138.8400 C   0  0  0  0  0  2  0  0  0  0  0  0
  182.0100  178.3500  139.2090 C   0  0  1  0  0  0  0  0  0  0  0  0
  179.3630  180.2260  140.4120 C   0  0  2  0  0  3  0  0  0  0  0  0
  181.5550  180.4750  137.7720 C   0  0  0  0  0  2  0  0  0  0  0  0
  180.0260  181.1950  139.5390 N   0  0  0  0  0  2  0  0  0  0  0  0
  178.9740  180.9520  141.7150 C   0  0  0  0  0  2  0  0  0  0  0  0
  182.8970  177.8620  140.3740 C   0  0  0  0  0  2  0  0  0  0  0  0
  182.3860  178.2410  141.7700 C   0  0  1  0  0  3  0  0  0  0  0  0
  180.0980  180.6410  138.1930 C   0  0  1  0  0  3  0  0  0  0  0  0
  179.2830  180.1460  142.9840 C   0  0  0  0  0  2  0  0  0  0  0  0
  186.0370  178.5870  142.7170 C   0  0  0  0  0  0  0  0  0  0  0  0
  186.2140  179.0600  146.1740 F   0  0  0  0  0  0  0  0  0  0  0  0
  187.2030  178.9010  142.1010 F   0  0  0  0  0  0  0  0  0  0  0  0
  184.1690  178.9780  145.0920 C   0  0  0  0  0  3  0  0  0  0  0  0
  183.5380  178.5450  142.6840 C   0  0  0  0  0  0  0  0  0  0  0  0
  186.1040  177.8780  144.0290 C   0  0  0  0  0  2  0  0  0  0  0  0
  183.2410  178.6580  143.9890 C   0  0  0  0  0  3  0  0  0  0  0  0
  184.8780  178.8490  142.1030 C   0  0  0  0  0  0  0  0  0  0  0  0
  184.9290  179.3830  140.8550 F   0  0  0  0  0  0  0  0  0  0  0  0
  185.4700  178.6920  145.1050 C   0  0  0  0  0  0  0  0  0  0  0  0
  180.4910  174.3030  138.0210 C   0  0  0  0  0  1  0  0  0  0  0  0
  182.6320  175.2520  138.4720 O   0  0  0  0  0  0  0  0  0  0  0  0
  183.2530  176.4200  138.3280 O   0  0  0  0  0  0  0  0  0  0  0  0
  182.2660  177.3800  138.0350 C   0  0  1  0  0  3  0  0  0  0  0  0
  181.5740  175.2550  137.5560 C   0  0  2  0  0  3  0  0  0  0  0  0
  181.0490  176.6460  137.5520 C   0  0  0  0  0  2  0  0  0  0  0  0
  179.3930  181.5580  137.2100 C   0  0  0  0  0  2  0  0  0  0  0  0
  180.4040  182.3940  136.4510 C   0  0  0  0  0  1  0  0  0  0  0  0
  1 12  1  0  0  0  0
  1  3  1  1  0  0  0
  4  2  1  6  0  0  0
  4  1  1  0  0  0  0
  6  5  1  6  0  0  0
  6  2  1  0  0  0  0
  6 11  1  0  0  0  0
  7  4  1  0  0  0  0
  7 10  1  1  0  0  0
  8 13  1  0  0  0  0
  8  5  1  0  0  0  0
  9  7  1  0  0  0  0
 10 14  1  0  0  0  0
 11 12  1  0  0  0  0
 12 19  1  1  0  0  0
 13 31  1  6  0  0  0
 13  9  1  0  0  0  0
 14  3  1  0  0  0  0
 15 20  1  0  0  0  0
 17 15  1  0  0  0  0
 18 24  2  0  0  0  0
 19 21  2  0  0  0  0
 20 24  1  0  0  0  0
 21 18  1  0  0  0  0
 22 19  1  0  0  0  0
 22 15  2  0  0  0  0
 23 22  1  0  0  0  0
 24 16  1  0  0  0  0
 27 26  1  0  0  0  0
 28 30  1  1  0  0  0
 28 27  1  0  0  0  0
 28  6  1  0  0  0  0
 29 25  1  1  0  0  0
 29 26  1  0  0  0  0
 30 29  1  0  0  0  0
 32 31  1  0  0  0  0
M  END
>  <MODEL>
3

>  <REMARK>
 VINA RESULT:      -6.9      5.372      8.999
  Name = 
  3 active torsions:
  status: ('A' for Active; 'I' for Inactive)
    1  A    between atoms: C_10  and  C_28
    2  A    between atoms: C_13  and  C_29
    3  A    between atoms: C_16  and  C_27
                            x       y       z     vdW  Elec       q    Type
                         _______ _______ _______ _____ _____    ______ ____

>  <TORSDO>
F 3

$$$$
=
 OpenBabel11052414413D

 32 36  0  0  1  0  0  0  0  0999 V2000
  184.0050  178.6550  142.4510 C   0  0  2  0  0  3  0  0  0  0  0  0
  186.3430  179.5920  142.7010 O   0  0  0  0  0  0  0  0  0  0  0  0
  182.5830  179.0030  142.9260 C   0  0  0  0  0  2  0  0  0  0  0  0
  185.0370  179.4520  143.2530 C   0  0  2  0  0  3  0  0  0  0  0  0
  186.6980  177.1840  142.3400 C   0  0  0  0  0  2  0  0  0  0  0  0
  186.6740  178.6060  141.7290 C   0  0  1  0  0  0  0  0  0  0  0  0
  185.0210  179.0410  144.7390 C   0  0  2  0  0  3  0  0  0  0  0  0
  187.5620  177.0210  143.5970 C   0  0  0  0  0  2  0  0  0  0  0  0
  185.6510  177.7370  144.9450 N   0  0  0  0  0  2  0  0  0  0  0  0
  183.5780  178.9590  145.2740 C   0  0  0  0  0  2  0  0  0  0  0  0
  185.6700  178.6280  140.5560 C   0  0  0  0  0  2  0  0  0  0  0  0
  184.2170  178.9020  140.9630 C   0  0  1  0  0  3  0  0  0  0  0  0
  187.0910  177.8780  144.7680 C   0  0  1  0  0  3  0  0  0  0  0  0
  182.5400  179.6020  144.3430 C   0  0  0  0  0  2  0  0  0  0  0  0
  181.1530  178.3590  138.8040 C   0  0  0  0  0  0  0  0  0  0  0  0
  180.8270  174.9280  138.2350 F   0  0  0  0  0  0  0  0  0  0  0  0
  180.3860  179.0890  137.9570 F   0  0  0  0  0  0  0  0  0  0  0  0
  182.6660  175.7750  139.3600 C   0  0  0  0  0  3  0  0  0  0  0  0
  183.2750  178.1120  140.1010 C   0  0  0  0  0  0  0  0  0  0  0  0
  180.5830  177.0950  139.3550 C   0  0  0  0  0  2  0  0  0  0  0  0
  183.4310  176.7790  140.1260 C   0  0  0  0  0  3  0  0  0  0  0  0
  182.3500  178.8280  139.1740 C   0  0  0  0  0  0  0  0  0  0  0  0
  182.7230  180.0490  138.7140 F   0  0  0  0  0  0  0  0  0  0  0  0
  181.4070  175.9210  138.9500 C   0  0  0  0  0  0  0  0  0  0  0  0
  189.4900  176.7290  138.7910 C   0  0  0  0  0  1  0  0  0  0  0  0
  189.6290  177.4460  141.0600 O   0  0  0  0  0  0  0  0  0  0  0  0
  189.1220  178.4030  141.8350 O   0  0  0  0  0  0  0  0  0  0  0  0
  188.0470  178.9790  141.1310 C   0  0  1  0  0  3  0  0  0  0  0  0
  189.5140  177.9050  139.7440 C   0  0  2  0  0  3  0  0  0  0  0  0
  188.2150  178.6260  139.6810 C   0  0  0  0  0  2  0  0  0  0  0  0
  187.8190  177.4480  146.0290 C   0  0  0  0  0  2  0  0  0  0  0  0
  189.3180  177.5010  145.8150 C   0  0  0  0  0  1  0  0  0  0  0  0
  1  3  1  1  0  0  0
  1  4  1  0  0  0  0
  3 14  1  0  0  0  0
  4  2  1  6  0  0  0
  4  7  1  0  0  0  0
  5  8  1  0  0  0  0
  6 11  1  6  0  0  0
  6  5  1  0  0  0  0
  6  2  1  0  0  0  0
  7  9  1  0  0  0  0
  7 10  1  6  0  0  0
  8 13  1  0  0  0  0
 11 12  1  0  0  0  0
 12 19  1  6  0  0  0
 12  1  1  0  0  0  0
 13  9  1  0  0  0  0
 13 31  1  1  0  0  0
 14 10  1  0  0  0  0
 15 22  2  0  0  0  0
 15 20  1  0  0  0  0
 16 24  1  0  0  0  0
 17 15  1  0  0  0  0
 18 21  1  0  0  0  0
 19 21  2  0  0  0  0
 22 19  1  0  0  0  0
 23 22  1  0  0  0  0
 24 20  1  0  0  0  0
 24 18  2  0  0  0  0
 26 27  1  0  0  0  0
 28 30  1  6  0  0  0
 28  6  1  0  0  0  0
 28 27  1  0  0  0  0
 29 25  1  6  0  0  0
 29 26  1  0  0  0  0
 30 29  1  0  0  0  0
 32 31  1  0  0  0  0
M  END
>  <MODEL>
4

>  <REMARK>
 VINA RESULT:      -6.8      3.125      4.894
  Name = 
  3 active torsions:
  status: ('A' for Active; 'I' for Inactive)
    1  A    between atoms: C_10  and  C_28
    2  A    between atoms: C_13  and  C_29
    3  A    between atoms: C_16  and  C_27
                            x       y       z     vdW  Elec       q    Type
                         _______ _______ _______ _____ _____    ______ ____

>  <TORSDO>
F 3

$$$$
=
 OpenBabel11052414413D

 32 36  0  0  1  0  0  0  0  0999 V2000
  190.1910  177.4030  140.0720 C   0  0  2  0  0  3  0  0  0  0  0  0
  189.5150  178.0260  137.7140 O   0  0  0  0  0  0  0  0  0  0  0  0
  191.4480  177.4840  140.9550 C   0  0  0  0  0  2  0  0  0  0  0  0
  190.5590  177.6480  138.6070 C   0  0  2  0  0  3  0  0  0  0  0  0
  188.0340  176.1460  138.2840 C   0  0  0  0  0  2  0  0  0  0  0  0
  188.2100  177.6790  138.1630 C   0  0  1  0  0  0  0  0  0  0  0  0
  191.4720  176.5260  138.0710 C   0  0  2  0  0  3  0  0  0  0  0  0
  188.4130  175.3380  137.0380 C   0  0  0  0  0  2  0  0  0  0  0  0
  190.7260  175.2920  137.8300 N   0  0  0  0  0  2  0  0  0  0  0  0
  192.6020  176.2100  139.0710 C   0  0  0  0  0  2  0  0  0  0  0  0
  187.9060  178.3260  139.5310 C   0  0  0  0  0  2  0  0  0  0  0  0
  189.1000  178.3810  140.4920 C   0  0  1  0  0  3  0  0  0  0  0  0
  189.8840  175.4740  136.6550 C   0  0  1  0  0  3  0  0  0  0  0  0
  192.7580  177.2630  140.1770 C   0  0  0  0  0  2  0  0  0  0  0  0
  189.5430  177.8900  144.2210 C   0  0  0  0  0  0  0  0  0  0  0  0
  186.4470  176.9910  145.5670 F   0  0  0  0  0  0  0  0  0  0  0  0
  190.4230  178.2690  145.1810 F   0  0  0  0  0  0  0  0  0  0  0  0
  186.6450  177.5780  143.3350 C   0  0  0  0  0  3  0  0  0  0  0  0
  188.6430  178.1710  141.9070 C   0  0  0  0  0  0  0  0  0  0  0  0
  188.6440  176.7340  144.5100 C   0  0  0  0  0  2  0  0  0  0  0  0
  187.3570  177.8170  142.0640 C   0  0  0  0  0  3  0  0  0  0  0  0
  189.5610  178.5070  143.0340 C   0  0  0  0  0  0  0  0  0  0  0  0
  190.5030  179.4620  142.8300 F   0  0  0  0  0  0  0  0  0  0  0  0
  187.2140  177.1500  144.4620 C   0  0  0  0  0  0  0  0  0  0  0  0
  185.1310  176.0230  135.3580 C   0  0  0  0  0  1  0  0  0  0  0  0
  187.0540  177.4160  135.1430 O   0  0  0  0  0  0  0  0  0  0  0  0
  187.6970  178.3420  135.8510 O   0  0  0  0  0  0  0  0  0  0  0  0
  187.1960  178.2790  137.1650 C   0  0  1  0  0  3  0  0  0  0  0  0
  185.7480  177.3760  135.6440 C   0  0  2  0  0  3  0  0  0  0  0  0
  185.8750  177.5690  137.1120 C   0  0  0  0  0  2  0  0  0  0  0  0
  190.2250  174.4380  135.5990 C   0  0  0  0  0  2  0  0  0  0  0  0
  191.1610  173.3910  136.1720 C   0  0  0  0  0  1  0  0  0  0  0  0
  1 12  1  0  0  0  0
  1  3  1  1  0  0  0
  2  6  1  0  0  0  0
  4  2  1  6  0  0  0
  4  1  1  0  0  0  0
  6  5  1  1  0  0  0
  6 11  1  0  0  0  0
  7  4  1  0  0  0  0
  7 10  1  1  0  0  0
  8  5  1  0  0  0  0
  9  7  1  0  0  0  0
 10 14  1  0  0  0  0
 11 12  1  0  0  0  0
 12 19  1  1  0  0  0
 13 31  1  6  0  0  0
 13  8  1  0  0  0  0
 13  9  1  0  0  0  0
 14  3  1  0  0  0  0
 15 20  1  0  0  0  0
 15 17  1  0  0  0  0
 18 24  2  0  0  0  0
 19 21  2  0  0  0  0
 19 22  1  0  0  0  0
 21 18  1  0  0  0  0
 22 15  2  0  0  0  0
 23 22  1  0  0  0  0
 24 20  1  0  0  0  0
 24 16  1  0  0  0  0
 26 29  1  0  0  0  0
 26 27  1  0  0  0  0
 27 28  1  0  0  0  0
 28 30  1  6  0  0  0
 28  6  1  0  0  0  0
 29 25  1  1  0  0  0
 29 30  1  0  0  0  0
 31 32  1  0  0  0  0
M  END
>  <MODEL>
5

>  <REMARK>
 VINA RESULT:      -6.7      3.751      7.724
  Name = 
  3 active torsions:
  status: ('A' for Active; 'I' for Inactive)
    1  A    between atoms: C_10  and  C_28
    2  A    between atoms: C_13  and  C_29
    3  A    between atoms: C_16  and  C_27
                            x       y       z     vdW  Elec       q    Type
                         _______ _______ _______ _____ _____    ______ ____

>  <TORSDO>
F 3

$$$$
=
 OpenBabel11052414413D

 32 36  0  0  1  0  0  0  0  0999 V2000
  186.2800  178.2560  140.2110 C   0  0  2  0  0  3  0  0  0  0  0  0
  184.7790  179.0380  138.3300 O   0  0  0  0  0  0  0  0  0  0  0  0
  187.7440  178.4370  140.6490 C   0  0  0  0  0  2  0  0  0  0  0  0
  186.1000  178.7330  138.7680 C   0  0  2  0  0  3  0  0  0  0  0  0
  183.8060  176.8850  139.0170 C   0  0  0  0  0  2  0  0  0  0  0  0
  183.7520  178.4300  139.1050 C   0  0  1  0  0  0  0  0  0  0  0  0
  186.9000  177.8500  137.7890 C   0  0  2  0  0  3  0  0  0  0  0  0
  183.8310  176.3070  137.5970 C   0  0  0  0  0  2  0  0  0  0  0  0
  186.2650  176.5480  137.5940 N   0  0  0  0  0  2  0  0  0  0  0  0
  188.3300  177.6060  138.3100 C   0  0  0  0  0  2  0  0  0  0  0  0
  183.8570  178.8490  140.5870 C   0  0  0  0  0  2  0  0  0  0  0  0
  185.2910  178.9830  141.1140 C   0  0  1  0  0  3  0  0  0  0  0  0
  185.0590  176.7290  136.7950 C   0  0  1  0  0  3  0  0  0  0  0  0
  188.7290  178.5290  139.4690 C   0  0  0  0  0  2  0  0  0  0  0  0
  184.2480  178.8690  144.7530 C   0  0  0  0  0  0  0  0  0  0  0  0
  186.7040  177.1280  146.5260 F   0  0  0  0  0  0  0  0  0  0  0  0
  183.1040  179.0020  145.4690 F   0  0  0  0  0  0  0  0  0  0  0  0
  186.8060  177.3040  144.2190 C   0  0  0  0  0  3  0  0  0  0  0  0
  185.3680  178.5320  142.5450 C   0  0  0  0  0  0  0  0  0  0  0  0
  185.5480  179.0150  145.4720 C   0  0  0  0  0  2  0  0  0  0  0  0
  186.4860  177.8780  142.8970 C   0  0  0  0  0  3  0  0  0  0  0  0
  184.1770  178.6880  143.4290 C   0  0  0  0  0  0  0  0  0  0  0  0
  182.9470  178.6950  142.8540 F   0  0  0  0  0  0  0  0  0  0  0  0
  186.3470  177.7610  145.3830 C   0  0  0  0  0  0  0  0  0  0  0  0
  180.0730  180.1280  141.0220 C   0  0  0  0  0  1  0  0  0  0  0  0
  180.5450  178.2900  139.5790 O   0  0  0  0  0  0  0  0  0  0  0  0
  181.3880  177.9890  138.5930 O   0  0  0  0  0  0  0  0  0  0  0  0
  182.3980  178.9700  138.5980 C   0  0  1  0  0  3  0  0  0  0  0  0
  180.4900  179.6870  139.6350 C   0  0  2  0  0  3  0  0  0  0  0  0
  181.8730  180.1560  139.3550 C   0  0  0  0  0  2  0  0  0  0  0  0
  185.1400  175.8980  135.5280 C   0  0  0  0  0  2  0  0  0  0  0  0
  186.2300  174.8520  135.6520 C   0  0  0  0  0  1  0  0  0  0  0  0
  1  3  1  1  0  0  0
  1 12  1  0  0  0  0
  2  6  1  0  0  0  0
  4  2  1  6  0  0  0
  4  1  1  0  0  0  0
  6  5  1  6  0  0  0
  6 11  1  0  0  0  0
  7 10  1  1  0  0  0
  7  4  1  0  0  0  0
  8  5  1  0  0  0  0
  9  7  1  0  0  0  0
 10 14  1  0  0  0  0
 11 12  1  0  0  0  0
 12 19  1  1  0  0  0
 13 31  1  6  0  0  0
 13  9  1  0  0  0  0
 13  8  1  0  0  0  0
 14  3  1  0  0  0  0
 15 17  1  0  0  0  0
 15 20  1  0  0  0  0
 18 24  2  0  0  0  0
 19 21  2  0  0  0  0
 19 22  1  0  0  0  0
 21 18  1  0  0  0  0
 22 15  2  0  0  0  0
 23 22  1  0  0  0  0
 24 20  1  0  0  0  0
 24 16  1  0  0  0  0
 26 29  1  0  0  0  0
 27 28  1  0  0  0  0
 27 26  1  0  0  0  0
 28  6  1  0  0  0  0
 28 30  1  1  0  0  0
 29 25  1  1  0  0  0
 30 29  1  0  0  0  0
 31 32  1  0  0  0  0
M  END
>  <MODEL>
6

>  <REMARK>
 VINA RESULT:      -6.6      4.279      8.223
  Name = 
  3 active torsions:
  status: ('A' for Active; 'I' for Inactive)
    1  A    between atoms: C_10  and  C_28
    2  A    between atoms: C_13  and  C_29
    3  A    between atoms: C_16  and  C_27
                            x       y       z     vdW  Elec       q    Type
                         _______ _______ _______ _____ _____    ______ ____

>  <TORSDO>
F 3

$$$$
=
 OpenBabel11052414413D

 32 36  0  0  1  0  0  0  0  0999 V2000
  185.8920  178.0200  139.5180 C   0  0  2  0  0  3  0  0  0  0  0  0
  183.6700  179.0280  138.8500 O   0  0  0  0  0  0  0  0  0  0  0  0
  187.3270  177.9590  138.9640 C   0  0  0  0  0  2  0  0  0  0  0  0
  184.9310  178.5110  138.4340 C   0  0  2  0  0  3  0  0  0  0  0  0
  183.0550  177.0680  140.2060 C   0  0  0  0  0  2  0  0  0  0  0  0
  183.2640  178.6020  140.1460 C   0  0  1  0  0  0  0  0  0  0  0  0
  184.8460  177.5030  137.2710 C   0  0  2  0  0  3  0  0  0  0  0  0
  182.1340  176.4860  139.1280 C   0  0  0  0  0  2  0  0  0  0  0  0
  184.0640  176.3220  137.6350 N   0  0  0  0  0  2  0  0  0  0  0  0
  186.2500  177.0290  136.8480 C   0  0  0  0  0  2  0  0  0  0  0  0
  184.3040  179.0060  141.2120 C   0  0  0  0  0  2  0  0  0  0  0  0
  185.7640  178.9050  140.7510 C   0  0  1  0  0  3  0  0  0  0  0  0
  182.6570  176.6940  137.7100 C   0  0  1  0  0  3  0  0  0  0  0  0
  187.3880  177.8810  137.4280 C   0  0  0  0  0  2  0  0  0  0  0  0
  188.9590  177.6470  142.3500 C   0  0  0  0  0  0  0  0  0  0  0  0
  188.2360  176.7530  145.6490 F   0  0  0  0  0  0  0  0  0  0  0  0
  190.2930  177.7540  142.1340 F   0  0  0  0  0  0  0  0  0  0  0  0
  186.6310  177.7540  144.3120 C   0  0  0  0  0  3  0  0  0  0  0  0
  186.6400  178.4550  141.8860 C   0  0  0  0  0  0  0  0  0  0  0  0
  188.4750  176.5340  143.2190 C   0  0  0  0  0  2  0  0  0  0  0  0
  186.0140  178.1820  143.0410 C   0  0  0  0  0  3  0  0  0  0  0  0
  188.1230  178.4840  141.7240 C   0  0  0  0  0  0  0  0  0  0  0  0
  188.6560  179.3810  140.8570 F   0  0  0  0  0  0  0  0  0  0  0  0
  187.7670  177.0660  144.4170 C   0  0  0  0  0  0  0  0  0  0  0  0
  179.0120  177.4290  140.9460 C   0  0  0  0  0  1  0  0  0  0  0  0
  180.1170  178.8700  139.4020 O   0  0  0  0  0  0  0  0  0  0  0  0
  181.1860  179.6630  139.3700 O   0  0  0  0  0  0  0  0  0  0  0  0
  181.9640  179.3550  140.5020 C   0  0  1  0  0  3  0  0  0  0  0  0
  179.7820  178.7180  140.7520 C   0  0  2  0  0  3  0  0  0  0  0  0
  181.0760  178.6430  141.4810 C   0  0  0  0  0  2  0  0  0  0  0  0
  181.8400  175.8540  136.7450 C   0  0  0  0  0  2  0  0  0  0  0  0
  182.0900  174.3790  136.9890 C   0  0  0  0  0  1  0  0  0  0  0  0
  1  3  1  6  0  0  0
  1 12  1  0  0  0  0
  2  6  1  0  0  0  0
  4  2  1  1  0  0  0
  4  1  1  0  0  0  0
  6  5  1  1  0  0  0
  6 28  1  0  0  0  0
  6 11  1  0  0  0  0
  7 10  1  1  0  0  0
  7  9  1  0  0  0  0
  7  4  1  0  0  0  0
  8  5  1  0  0  0  0
  9 13  1  0  0  0  0
 10 14  1  0  0  0  0
 12 11  1  0  0  0  0
 12 19  1  1  0  0  0
 13 31  1  6  0  0  0
 13  8  1  0  0  0  0
 14  3  1  0  0  0  0
 15 20  1  0  0  0  0
 17 15  1  0  0  0  0
 18 24  2  0  0  0  0
 19 21  2  0  0  0  0
 20 24  1  0  0  0  0
 21 18  1  0  0  0  0
 22 19  1  0  0  0  0
 22 15  2  0  0  0  0
 23 22  1  0  0  0  0
 24 16  1  0  0  0  0
 26 29  1  0  0  0  0
 27 26  1  0  0  0  0
 27 28  1  0  0  0  0
 28 30  1  1  0  0  0
 29 25  1  6  0  0  0
 29 30  1  0  0  0  0
 31 32  1  0  0  0  0
M  END
>  <MODEL>
7

>  <REMARK>
 VINA RESULT:      -6.5      4.132      7.733
  Name = 
  3 active torsions:
  status: ('A' for Active; 'I' for Inactive)
    1  A    between atoms: C_10  and  C_28
    2  A    between atoms: C_13  and  C_29
    3  A    between atoms: C_16  and  C_27
                            x       y       z     vdW  Elec       q    Type
                         _______ _______ _______ _____ _____    ______ ____

>  <TORSDO>
F 3

$$$$
=
 OpenBabel11052414413D

 32 36  0  0  1  0  0  0  0  0999 V2000
  184.8020  178.2140  140.4810 C   0  0  2  0  0  3  0  0  0  0  0  0
  182.6240  178.9080  139.3970 O   0  0  0  0  0  0  0  0  0  0  0  0
  186.3050  178.4850  140.2920 C   0  0  0  0  0  2  0  0  0  0  0  0
  184.0240  178.6850  139.2510 C   0  0  2  0  0  3  0  0  0  0  0  0
  182.1380  176.6940  140.3530 C   0  0  0  0  0  2  0  0  0  0  0  0
  182.0380  178.2310  140.5030 C   0  0  1  0  0  0  0  0  0  0  0  0
  184.4040  177.8610  138.0050 C   0  0  2  0  0  3  0  0  0  0  0  0
  181.6150  176.1260  139.0280 C   0  0  0  0  0  2  0  0  0  0  0  0
  183.8190  176.5210  138.0440 N   0  0  0  0  0  2  0  0  0  0  0  0
  185.9340  177.7050  137.8920 C   0  0  0  0  0  2  0  0  0  0  0  0
  182.7130  178.6480  141.8270 C   0  0  0  0  0  2  0  0  0  0  0  0
  184.2280  178.8710  141.7300 C   0  0  1  0  0  3  0  0  0  0  0  0
  182.3840  176.6290  137.8100 C   0  0  1  0  0  3  0  0  0  0  0  0
  186.7180  178.6460  138.8180 C   0  0  0  0  0  2  0  0  0  0  0  0
  184.7260  178.6190  145.4760 C   0  0  0  0  0  0  0  0  0  0  0  0
  187.8300  177.1250  146.0540 F   0  0  0  0  0  0  0  0  0  0  0  0
  183.9520  178.6290  146.5890 F   0  0  0  0  0  0  0  0  0  0  0  0
  186.9940  177.3300  143.9040 C   0  0  0  0  0  3  0  0  0  0  0  0
  184.9050  178.4180  142.9910 C   0  0  0  0  0  0  0  0  0  0  0  0
  186.1850  178.8920  145.6320 C   0  0  0  0  0  2  0  0  0  0  0  0
  186.1260  177.8790  142.8440 C   0  0  0  0  0  3  0  0  0  0  0  0
  184.1530  178.4440  144.2790 C   0  0  0  0  0  0  0  0  0  0  0  0
  182.8010  178.3280  144.2350 F   0  0  0  0  0  0  0  0  0  0  0  0
  186.9940  177.7270  145.1750 C   0  0  0  0  0  0  0  0  0  0  0  0
  179.2810  179.3880  143.8420 C   0  0  0  0  0  1  0  0  0  0  0  0
  179.2640  177.7460  142.1140 O   0  0  0  0  0  0  0  0  0  0  0  0
  179.6830  177.6200  140.8570 O   0  0  0  0  0  0  0  0  0  0  0  0
  180.5660  178.6870  140.6060 C   0  0  1  0  0  3  0  0  0  0  0  0
  179.1620  179.1200  142.3570 C   0  0  2  0  0  3  0  0  0  0  0  0
  180.3080  179.7410  141.6420 C   0  0  0  0  0  2  0  0  0  0  0  0
  181.9890  175.8120  136.5940 C   0  0  0  0  0  2  0  0  0  0  0  0
  182.3560  174.3550  136.7950 C   0  0  0  0  0  1  0  0  0  0  0  0
  1  3  1  6  0  0  0
  1 12  1  0  0  0  0
  2  6  1  0  0  0  0
  4  2  1  1  0  0  0
  4  1  1  0  0  0  0
  6  5  1  6  0  0  0
  6 28  1  0  0  0  0
  6 11  1  0  0  0  0
  7 10  1  1  0  0  0
  7  9  1  0  0  0  0
  7  4  1  0  0  0  0
  8  5  1  0  0  0  0
 10 14  1  0  0  0  0
 12 11  1  0  0  0  0
 12 19  1  1  0  0  0
 13 31  1  6  0  0  0
 13  9  1  0  0  0  0
 13  8  1  0  0  0  0
 14  3  1  0  0  0  0
 15 20  1  0  0  0  0
 15 17  1  0  0  0  0
 18 24  2  0  0  0  0
 19 22  1  0  0  0  0
 21 19  2  0  0  0  0
 21 18  1  0  0  0  0
 22 15  2  0  0  0  0
 23 22  1  0  0  0  0
 24 20  1  0  0  0  0
 24 16  1  0  0  0  0
 26 29  1  0  0  0  0
 27 26  1  0  0  0  0
 28 27  1  0  0  0  0
 28 30  1  1  0  0  0
 29 25  1  1  0  0  0
 30 29  1  0  0  0  0
 31 32  1  0  0  0  0
M  END
>  <MODEL>
8

>  <REMARK>
 VINA RESULT:      -6.5      4.948      8.583
  Name = 
  3 active torsions:
  status: ('A' for Active; 'I' for Inactive)
    1  A    between atoms: C_10  and  C_28
    2  A    between atoms: C_13  and  C_29
    3  A    between atoms: C_16  and  C_27
                            x       y       z     vdW  Elec       q    Type
                         _______ _______ _______ _____ _____    ______ ____

>  <TORSDO>
F 3

$$$$
=
 OpenBabel11052414413D

 32 36  0  0  1  0  0  0  0  0999 V2000
  189.2320  177.6140  140.6570 C   0  0  2  0  0  3  0  0  0  0  0  0
  189.0630  178.3320  138.2360 O   0  0  0  0  0  0  0  0  0  0  0  0
  190.2280  177.7620  141.8210 C   0  0  0  0  0  2  0  0  0  0  0  0
  189.9040  178.0010  139.3370 C   0  0  2  0  0  3  0  0  0  0  0  0
  187.7220  176.2710  138.3450 C   0  0  0  0  0  2  0  0  0  0  0  0
  187.7390  177.8200  138.3390 C   0  0  1  0  0  0  0  0  0  0  0  0
  191.0440  177.0220  138.9880 C   0  0  2  0  0  3  0  0  0  0  0  0
  188.4770  175.6000  137.1920 C   0  0  0  0  0  2  0  0  0  0  0  0
  190.5270  175.7370  138.5190 N   0  0  0  0  0  2  0  0  0  0  0  0
  191.9350  176.7530  140.2160 C   0  0  0  0  0  2  0  0  0  0  0  0
  187.0470  178.3310  139.6200 C   0  0  0  0  0  2  0  0  0  0  0  0
  187.9660  178.4400  140.8430 C   0  0  1  0  0  3  0  0  0  0  0  0
  189.9700  175.9150  137.1830 C   0  0  1  0  0  3  0  0  0  0  0  0
  191.7010  177.7340  141.3740 C   0  0  0  0  0  2  0  0  0  0  0  0
  185.0610  178.5490  143.2720 C   0  0  0  0  0  0  0  0  0  0  0  0
  186.0540  176.9480  146.2140 F   0  0  0  0  0  0  0  0  0  0  0  0
  183.7170  178.7170  143.2140 F   0  0  0  0  0  0  0  0  0  0  0  0
  187.4350  176.9770  144.3550 C   0  0  0  0  0  3  0  0  0  0  0  0
  187.2160  178.0820  142.0950 C   0  0  0  0  0  0  0  0  0  0  0  0
  185.7390  178.7530  144.5860 C   0  0  0  0  0  2  0  0  0  0  0  0
  187.9260  177.4620  143.0500 C   0  0  0  0  0  3  0  0  0  0  0  0
  185.7390  178.2830  142.1490 C   0  0  0  0  0  0  0  0  0  0  0  0
  185.0420  178.2410  140.9840 F   0  0  0  0  0  0  0  0  0  0  0  0
  186.4160  177.5030  145.0330 C   0  0  0  0  0  0  0  0  0  0  0  0
  185.7580  176.0750  134.7160 C   0  0  0  0  0  1  0  0  0  0  0  0
  187.4300  177.7280  135.1100 O   0  0  0  0  0  0  0  0  0  0  0  0
  187.7220  178.6500  136.0250 O   0  0  0  0  0  0  0  0  0  0  0  0
  186.9250  178.3810  137.1530 C   0  0  1  0  0  3  0  0  0  0  0  0
  186.0640  177.4600  135.2470 C   0  0  2  0  0  3  0  0  0  0  0  0
  185.7870  177.5100  136.7070 C   0  0  0  0  0  2  0  0  0  0  0  0
  190.6710  175.0000  136.1960 C   0  0  0  0  0  2  0  0  0  0  0  0
  191.4750  173.9470  136.9340 C   0  0  0  0  0  1  0  0  0  0  0  0
  1 12  1  0  0  0  0
  1  3  1  1  0  0  0
  2  6  1  0  0  0  0
  4  2  1  6  0  0  0
  4  1  1  0  0  0  0
  6  5  1  6  0  0  0
  6 11  1  0  0  0  0
  7  4  1  0  0  0  0
  7 10  1  1  0  0  0
  8  5  1  0  0  0  0
  9  7  1  0  0  0  0
 10 14  1  0  0  0  0
 11 12  1  0  0  0  0
 12 19  1  1  0  0  0
 13 31  1  6  0  0  0
 13  8  1  0  0  0  0
 13  9  1  0  0  0  0
 14  3  1  0  0  0  0
 15 20  1  0  0  0  0
 17 15  1  0  0  0  0
 18 24  2  0  0  0  0
 19 22  1  0  0  0  0
 19 21  2  0  0  0  0
 20 24  1  0  0  0  0
 21 18  1  0  0  0  0
 22 15  2  0  0  0  0
 23 22  1  0  0  0  0
 24 16  1  0  0  0  0
 26 29  1  0  0  0  0
 26 27  1  0  0  0  0
 27 28  1  0  0  0  0
 28 30  1  6  0  0  0
 28  6  1  0  0  0  0
 29 25  1  1  0  0  0
 29 30  1  0  0  0  0
 31 32  1  0  0  0  0
M  END
>  <MODEL>
9

>  <REMARK>
 VINA RESULT:      -6.1      3.484      7.463
  Name = 
  3 active torsions:
  status: ('A' for Active; 'I' for Inactive)
    1  A    between atoms: C_10  and  C_28
    2  A    between atoms: C_13  and  C_29
    3  A    between atoms: C_16  and  C_27
                            x       y       z     vdW  Elec       q    Type
                         _______ _______ _______ _____ _____    ______ ____

>  <TORSDO>
F 3

$$$$
