=
 OpenBabel11052413373D

 28 29  0  0  1  0  0  0  0  0999 V2000
  191.6010  175.8410  143.5760 C   0  0  0  0  0  1  0  0  0  0  0  0
  188.3310  177.2840  143.1010 N   0  0  1  0  0  0  0  0  0  0  0  0
  189.8220  178.8870  144.3770 F   0  0  0  0  0  0  0  0  0  0  0  0
  190.1380  176.0880  141.8030 O   0  0  0  0  0  0  0  0  0  0  0  0
  188.0730  177.3970  141.7390 O   0  0  0  0  0  0  0  0  0  0  0  0
  190.7600  176.9110  142.7220 C   0  0  1  0  0  0  0  0  0  0  0  0
  189.6640  177.6380  143.6570 C   0  0  2  0  0  3  0  0  0  0  0  0
  189.3140  176.9800  141.0600 C   0  0  2  0  0  3  0  0  0  0  0  0
  185.8930  178.2060  143.2210 C   0  0  0  0  0  3  0  0  0  0  0  0
  187.1230  177.6040  145.4240 C   0  0  0  0  0  0  0  0  0  0  0  0
  184.8690  178.5940  145.4380 C   0  0  0  0  0  0  0  0  0  0  0  0
  187.0680  177.5000  143.9060 C   0  0  2  0  0  3  0  0  0  0  0  0
  186.0710  178.0570  146.1010 C   0  0  0  0  0  3  0  0  0  0  0  0
  188.1270  177.0780  146.1660 F   0  0  0  0  0  0  0  0  0  0  0  0
  183.9800  179.0060  146.1870 O   0  0  0  0  0  0  0  0  0  0  0  0
  184.8420  178.6700  143.9570 C   0  0  0  0  0  3  0  0  0  0  0  0
  189.1500  176.6630  139.6610 C   0  0  2  0  0  3  0  0  0  0  0  0
  190.3720  176.1250  139.2570 O   0  0  0  0  0  1  0  0  0  0  0  0
  188.9840  179.0760  139.4780 O   0  0  0  0  0  1  0  0  0  0  0  0
  188.8290  177.8440  138.7980 C   0  0  2  0  0  3  0  0  0  0  0  0
  187.4510  177.6450  138.1830 C   0  0  0  0  0  0  0  0  0  0  0  0
  187.2190  176.6250  137.5490 O   0  0  0  0  0  0  0  0  0  0  0  0
  186.4680  178.6860  138.2080 O   0  0  0  0  0  0  0  0  0  0  0  0
  185.2950  178.7050  138.9360 C   0  0  0  0  0  0  0  0  0  0  0  0
  185.2470  179.3890  139.9640 O   0  0  0  0  0  0  0  0  0  0  0  0
  184.0780  177.8100  138.6080 C   0  0  0  0  0  1  0  0  0  0  0  0
  192.6330  177.2010  141.3100 O   0  0  0  0  0  1  0  0  0  0  0  0
  191.6730  177.9250  142.0620 C   0  0  0  0  0  2  0  0  0  0  0  0
  2  5  1  6  0  0  0
  2  7  1  0  0  0  0
  2 12  1  0  0  0  0
  4  6  1  0  0  0  0
  6  1  1  1  0  0  0
  6  7  1  0  0  0  0
  7  3  1  6  0  0  0
  8 17  1  6  0  0  0
  8  5  1  0  0  0  0
  8  4  1  0  0  0  0
  9 16  2  0  0  0  0
 10 13  2  0  0  0  0
 10 14  1  0  0  0  0
 11 13  1  0  0  0  0
 11 15  2  0  0  0  0
 12  9  1  6  0  0  0
 12 10  1  0  0  0  0
 16 11  1  0  0  0  0
 17 18  1  6  0  0  0
 20 19  1  1  0  0  0
 20 17  1  0  0  0  0
 21 23  1  0  0  0  0
 21 20  1  0  0  0  0
 22 21  2  0  0  0  0
 23 24  1  0  0  0  0
 24 25  2  0  0  0  0
 26 24  1  0  0  0  0
 27 28  1  0  0  0  0
 28  6  1  0  0  0  0
M  END
>  <MODEL>
1

>  <REMARK>
 VINA RESULT:      -7.9      0.000      0.000
  Name = 
  7 active torsions:
  status: ('A' for Active; 'I' for Inactive)
    1  A    between atoms: C_1  and  C_11
    2  A    between atoms: C_1  and  C_27
    3  A    between atoms: C_3  and  C_11
    4  A    between atoms: C_3  and  O_28
    5  A    between atoms: C_6  and  O_28
    6  A    between atoms: N_10  and  C_13
    7  A    between atoms: C_20  and  C_21
                            x       y       z     vdW  Elec       q    Type
                         _______ _______ _______ _____ _____    ______ ____

>  <TORSDO>
F 7

$$$$
=
 OpenBabel11052413373D

 28 29  0  0  1  0  0  0  0  0999 V2000
  191.5010  175.6550  143.9780 C   0  0  0  0  0  1  0  0  0  0  0  0
  188.3440  177.2470  143.2740 N   0  0  1  0  0  0  0  0  0  0  0  0
  189.7700  178.7350  144.7490 F   0  0  0  0  0  0  0  0  0  0  0  0
  190.2180  176.0320  142.0930 O   0  0  0  0  0  0  0  0  0  0  0  0
  188.2170  177.4250  141.9010 O   0  0  0  0  0  0  0  0  0  0  0  0
  190.7820  176.7910  143.0990 C   0  0  1  0  0  0  0  0  0  0  0  0
  189.6320  177.5240  143.9640 C   0  0  2  0  0  3  0  0  0  0  0  0
  189.4990  176.9860  141.3180 C   0  0  2  0  0  3  0  0  0  0  0  0
  185.9130  178.1890  143.1850 C   0  0  0  0  0  3  0  0  0  0  0  0
  186.9540  177.6010  145.4870 C   0  0  0  0  0  0  0  0  0  0  0  0
  184.7140  178.6080  145.3070 C   0  0  0  0  0  0  0  0  0  0  0  0
  187.0220  177.4820  143.9710 C   0  0  2  0  0  3  0  0  0  0  0  0
  185.8540  178.0690  146.0710 C   0  0  0  0  0  3  0  0  0  0  0  0
  187.8890  177.0760  146.3150 F   0  0  0  0  0  0  0  0  0  0  0  0
  183.7700  179.0360  145.9770 O   0  0  0  0  0  0  0  0  0  0  0  0
  184.8090  178.6690  143.8280 C   0  0  0  0  0  3  0  0  0  0  0  0
  189.4520  176.7330  139.8980 C   0  0  2  0  0  3  0  0  0  0  0  0
  190.5980  175.9880  139.6170 O   0  0  0  0  0  1  0  0  0  0  0  0
  188.8280  179.0680  139.6900 O   0  0  0  0  0  1  0  0  0  0  0  0
  189.4560  177.9700  139.0540 C   0  0  2  0  0  3  0  0  0  0  0  0
  188.8810  177.6340  137.6850 C   0  0  0  0  0  0  0  0  0  0  0  0
  189.4890  177.9740  136.6800 O   0  0  0  0  0  0  0  0  0  0  0  0
  187.5760  177.0590  137.5480 O   0  0  0  0  0  0  0  0  0  0  0  0
  186.3980  177.7260  137.2770 C   0  0  0  0  0  0  0  0  0  0  0  0
  186.1180  178.7280  137.9450 O   0  0  0  0  0  0  0  0  0  0  0  0
  185.3430  177.2100  136.2720 C   0  0  0  0  0  1  0  0  0  0  0  0
  192.0730  178.7010  143.6200 O   0  0  0  0  0  1  0  0  0  0  0  0
  191.7890  177.7930  142.5690 C   0  0  0  0  0  2  0  0  0  0  0  0
  2  5  1  6  0  0  0
  2  7  1  0  0  0  0
  2 12  1  0  0  0  0
  4  6  1  0  0  0  0
  6  7  1  0  0  0  0
  6  1  1  1  0  0  0
  7  3  1  6  0  0  0
  8 17  1  6  0  0  0
  8  5  1  0  0  0  0
  8  4  1  0  0  0  0
  9 16  2  0  0  0  0
 10 13  2  0  0  0  0
 10 14  1  0  0  0  0
 11 15  2  0  0  0  0
 11 13  1  0  0  0  0
 12  9  1  6  0  0  0
 12 10  1  0  0  0  0
 16 11  1  0  0  0  0
 17 18  1  6  0  0  0
 20 19  1  1  0  0  0
 20 17  1  0  0  0  0
 21 20  1  0  0  0  0
 22 21  2  0  0  0  0
 23 21  1  0  0  0  0
 24 23  1  0  0  0  0
 24 25  2  0  0  0  0
 26 24  1  0  0  0  0
 28  6  1  0  0  0  0
 28 27  1  0  0  0  0
M  END
>  <MODEL>
2

>  <REMARK>
 VINA RESULT:      -7.6      1.036      1.229
  Name = 
  7 active torsions:
  status: ('A' for Active; 'I' for Inactive)
    1  A    between atoms: C_1  and  C_11
    2  A    between atoms: C_1  and  C_27
    3  A    between atoms: C_3  and  C_11
    4  A    between atoms: C_3  and  O_28
    5  A    between atoms: C_6  and  O_28
    6  A    between atoms: N_10  and  C_13
    7  A    between atoms: C_20  and  C_21
                            x       y       z     vdW  Elec       q    Type
                         _______ _______ _______ _____ _____    ______ ____

>  <TORSDO>
F 7

$$$$
=
 OpenBabel11052413373D

 28 29  0  0  1  0  0  0  0  0999 V2000
  191.3610  175.7440  144.0650 C   0  0  0  0  0  1  0  0  0  0  0  0
  188.3220  177.5230  143.2890 N   0  0  1  0  0  0  0  0  0  0  0  0
  189.6170  178.7410  145.0960 F   0  0  0  0  0  0  0  0  0  0  0  0
  190.2850  176.4260  142.1370 O   0  0  0  0  0  0  0  0  0  0  0  0
  188.3400  177.8970  141.9490 O   0  0  0  0  0  0  0  0  0  0  0  0
  190.7570  177.0170  143.2920 C   0  0  1  0  0  0  0  0  0  0  0  0
  189.5380  177.6580  144.1350 C   0  0  2  0  0  3  0  0  0  0  0  0
  189.6670  177.5020  141.4400 C   0  0  2  0  0  3  0  0  0  0  0  0
  185.8870  178.4210  143.0300 C   0  0  0  0  0  3  0  0  0  0  0  0
  186.7390  177.7500  145.3860 C   0  0  0  0  0  0  0  0  0  0  0  0
  184.5010  178.7210  145.0560 C   0  0  0  0  0  0  0  0  0  0  0  0
  186.9400  177.7000  143.8780 C   0  0  2  0  0  3  0  0  0  0  0  0
  185.5830  178.1690  145.8920 C   0  0  0  0  0  3  0  0  0  0  0  0
  187.6110  177.2050  146.2680 F   0  0  0  0  0  0  0  0  0  0  0  0
  183.4930  179.0990  145.6590 O   0  0  0  0  0  0  0  0  0  0  0  0
  184.7210  178.8510  143.5950 C   0  0  0  0  0  3  0  0  0  0  0  0
  189.7620  177.4540  140.0000 C   0  0  2  0  0  3  0  0  0  0  0  0
  188.5230  176.9840  139.5630 O   0  0  0  0  0  1  0  0  0  0  0  0
  192.1260  177.1240  139.5710 O   0  0  0  0  0  1  0  0  0  0  0  0
  190.8360  176.5470  139.4860 C   0  0  2  0  0  3  0  0  0  0  0  0
  190.4580  176.0800  138.0870 C   0  0  0  0  0  0  0  0  0  0  0  0
  190.2220  174.8950  137.8940 O   0  0  0  0  0  0  0  0  0  0  0  0
  190.5130  176.9690  136.9660 O   0  0  0  0  0  0  0  0  0  0  0  0
  189.4430  177.5220  136.2910 C   0  0  0  0  0  0  0  0  0  0  0  0
  189.0250  178.6290  136.6490 O   0  0  0  0  0  0  0  0  0  0  0  0
  188.6520  176.7730  135.1940 C   0  0  0  0  0  1  0  0  0  0  0  0
  192.0860  178.7310  144.2310 O   0  0  0  0  0  1  0  0  0  0  0  0
  191.8310  178.0490  143.0140 C   0  0  0  0  0  2  0  0  0  0  0  0
  2  5  1  6  0  0  0
  2 12  1  0  0  0  0
  2  7  1  0  0  0  0
  4  6  1  0  0  0  0
  6  1  1  1  0  0  0
  6  7  1  0  0  0  0
  7  3  1  6  0  0  0
  8 17  1  6  0  0  0
  8  5  1  0  0  0  0
  8  4  1  0  0  0  0
  9 16  2  0  0  0  0
 10 13  2  0  0  0  0
 10 14  1  0  0  0  0
 11 15  2  0  0  0  0
 11 13  1  0  0  0  0
 12  9  1  6  0  0  0
 12 10  1  0  0  0  0
 16 11  1  0  0  0  0
 17 18  1  6  0  0  0
 20 19  1  6  0  0  0
 20 17  1  0  0  0  0
 21 20  1  0  0  0  0
 22 21  2  0  0  0  0
 23 21  1  0  0  0  0
 24 25  2  0  0  0  0
 24 23  1  0  0  0  0
 26 24  1  0  0  0  0
 28  6  1  0  0  0  0
 28 27  1  0  0  0  0
M  END
>  <MODEL>
3

>  <REMARK>
 VINA RESULT:      -7.4      1.880      2.475
  Name = 
  7 active torsions:
  status: ('A' for Active; 'I' for Inactive)
    1  A    between atoms: C_1  and  C_11
    2  A    between atoms: C_1  and  C_27
    3  A    between atoms: C_3  and  C_11
    4  A    between atoms: C_3  and  O_28
    5  A    between atoms: C_6  and  O_28
    6  A    between atoms: N_10  and  C_13
    7  A    between atoms: C_20  and  C_21
                            x       y       z     vdW  Elec       q    Type
                         _______ _______ _______ _____ _____    ______ ____

>  <TORSDO>
F 7

$$$$
=
 OpenBabel11052413373D

 28 29  0  0  1  0  0  0  0  0999 V2000
  191.7680  179.2190  144.3020 C   0  0  0  0  0  1  0  0  0  0  0  0
  189.6870  177.3930  141.9920 N   0  0  1  0  0  0  0  0  0  0  0  0
  192.0190  176.4040  142.0460 F   0  0  0  0  0  0  0  0  0  0  0  0
  189.6440  178.3080  144.3470 O   0  0  0  0  0  0  0  0  0  0  0  0
  188.6080  176.8490  142.6790 O   0  0  0  0  0  0  0  0  0  0  0  0
  190.9280  177.8650  144.0950 C   0  0  1  0  0  0  0  0  0  0  0  0
  191.0580  177.3540  142.5690 C   0  0  2  0  0  3  0  0  0  0  0  0
  188.8410  177.1580  144.1030 C   0  0  2  0  0  3  0  0  0  0  0  0
  190.6430  176.8520  139.6260 C   0  0  0  0  0  3  0  0  0  0  0  0
  188.4270  178.1860  139.8160 C   0  0  0  0  0  0  0  0  0  0  0  0
  189.4720  177.7310  137.6330 C   0  0  0  0  0  0  0  0  0  0  0  0
  189.4690  177.3110  140.4970 C   0  0  2  0  0  3  0  0  0  0  0  0
  188.4210  178.3100  138.4910 C   0  0  0  0  0  3  0  0  0  0  0  0
  187.3610  178.7120  140.4650 F   0  0  0  0  0  0  0  0  0  0  0  0
  189.3590  177.9460  136.4240 O   0  0  0  0  0  0  0  0  0  0  0  0
  190.6030  177.0140  138.2720 C   0  0  0  0  0  3  0  0  0  0  0  0
  187.6750  177.0180  144.9420 C   0  0  2  0  0  3  0  0  0  0  0  0
  186.5890  177.0110  144.0670 O   0  0  0  0  0  1  0  0  0  0  0  0
  188.1250  177.8600  147.1720 O   0  0  0  0  0  1  0  0  0  0  0  0
  187.4950  178.1260  145.9320 C   0  0  2  0  0  3  0  0  0  0  0  0
  186.0110  178.4470  146.0490 C   0  0  0  0  0  0  0  0  0  0  0  0
  185.2910  177.7160  146.7160 O   0  0  0  0  0  0  0  0  0  0  0  0
  185.4140  179.4970  145.2800 O   0  0  0  0  0  0  0  0  0  0  0  0
  184.5400  179.3590  144.2200 C   0  0  0  0  0  0  0  0  0  0  0  0
  184.9260  179.6760  143.0900 O   0  0  0  0  0  0  0  0  0  0  0  0
  183.0580  178.9520  144.3900 C   0  0  0  0  0  1  0  0  0  0  0  0
  191.7670  177.4440  146.2640 O   0  0  0  0  0  1  0  0  0  0  0  0
  191.3700  176.7920  145.0690 C   0  0  0  0  0  2  0  0  0  0  0  0
  2  7  1  0  0  0  0
  2  5  1  1  0  0  0
  5  8  1  0  0  0  0
  6  1  1  1  0  0  0
  6  4  1  0  0  0  0
  6 28  1  0  0  0  0
  7  3  1  1  0  0  0
  7  6  1  0  0  0  0
  8  4  1  0  0  0  0
  8 17  1  1  0  0  0
 10 14  1  0  0  0  0
 10 12  1  0  0  0  0
 11 16  1  0  0  0  0
 11 13  1  0  0  0  0
 12  9  1  6  0  0  0
 12  2  1  0  0  0  0
 13 10  2  0  0  0  0
 15 11  2  0  0  0  0
 16  9  2  0  0  0  0
 17 18  1  6  0  0  0
 17 20  1  0  0  0  0
 20 21  1  0  0  0  0
 20 19  1  1  0  0  0
 21 22  2  0  0  0  0
 23 21  1  0  0  0  0
 24 26  1  0  0  0  0
 24 23  1  0  0  0  0
 25 24  2  0  0  0  0
 28 27  1  0  0  0  0
M  END
>  <MODEL>
4

>  <REMARK>
 VINA RESULT:      -7.0      2.527      6.043
  Name = 
  7 active torsions:
  status: ('A' for Active; 'I' for Inactive)
    1  A    between atoms: C_1  and  C_11
    2  A    between atoms: C_1  and  C_27
    3  A    between atoms: C_3  and  C_11
    4  A    between atoms: C_3  and  O_28
    5  A    between atoms: C_6  and  O_28
    6  A    between atoms: N_10  and  C_13
    7  A    between atoms: C_20  and  C_21
                            x       y       z     vdW  Elec       q    Type
                         _______ _______ _______ _____ _____    ______ ____

>  <TORSDO>
F 7

$$$$
=
 OpenBabel11052413373D

 28 29  0  0  1  0  0  0  0  0999 V2000
  187.8810  176.0690  148.1390 C   0  0  0  0  0  1  0  0  0  0  0  0
  186.9800  178.2210  145.3900 N   0  0  1  0  0  0  0  0  0  0  0  0
  186.4670  179.3540  147.5980 F   0  0  0  0  0  0  0  0  0  0  0  0
  188.8900  176.7690  146.1810 O   0  0  0  0  0  0  0  0  0  0  0  0
  188.1130  178.4960  144.6330 O   0  0  0  0  0  0  0  0  0  0  0  0
  188.3270  177.3610  147.2950 C   0  0  1  0  0  0  0  0  0  0  0  0
  187.0340  178.2310  146.8770 C   0  0  2  0  0  3  0  0  0  0  0  0
  189.2390  177.8750  145.3560 C   0  0  2  0  0  3  0  0  0  0  0  0
  184.4610  178.8920  145.4800 C   0  0  0  0  0  3  0  0  0  0  0  0
  185.5140  178.2500  143.1980 C   0  0  0  0  0  0  0  0  0  0  0  0
  183.1180  178.7800  143.4060 C   0  0  0  0  0  0  0  0  0  0  0  0
  185.7260  178.6400  144.6540 C   0  0  2  0  0  3  0  0  0  0  0  0
  184.3140  178.3830  142.6390 C   0  0  0  0  0  3  0  0  0  0  0  0
  186.5310  177.9460  142.3560 F   0  0  0  0  0  0  0  0  0  0  0  0
  182.0640  178.8360  142.7680 O   0  0  0  0  0  0  0  0  0  0  0  0
  183.2470  179.0040  144.8660 C   0  0  0  0  0  3  0  0  0  0  0  0
  190.4380  177.7150  144.5670 C   0  0  2  0  0  3  0  0  0  0  0  0
  190.2680  178.5520  143.4630 O   0  0  0  0  0  1  0  0  0  0  0  0
  192.0510  175.9970  143.9950 O   0  0  0  0  0  1  0  0  0  0  0  0
  190.6750  176.3170  144.0870 C   0  0  2  0  0  3  0  0  0  0  0  0
  189.9010  176.1030  142.7940 C   0  0  0  0  0  0  0  0  0  0  0  0
  188.7240  175.7720  142.8470 O   0  0  0  0  0  0  0  0  0  0  0  0
  190.5560  176.1380  141.5200 O   0  0  0  0  0  0  0  0  0  0  0  0
  190.1020  176.7500  140.3690 C   0  0  0  0  0  0  0  0  0  0  0  0
  190.6260  176.4460  139.2910 O   0  0  0  0  0  0  0  0  0  0  0  0
  189.0610  177.8940  140.3690 C   0  0  0  0  0  1  0  0  0  0  0  0
  188.8590  178.2890  149.4020 O   0  0  0  0  0  1  0  0  0  0  0  0
  189.3250  178.2020  148.0660 C   0  0  0  0  0  2  0  0  0  0  0  0
  2  5  1  6  0  0  0
  2  7  1  0  0  0  0
  4  6  1  0  0  0  0
  5  8  1  0  0  0  0
  6 28  1  0  0  0  0
  6  1  1  1  0  0  0
  7  6  1  0  0  0  0
  7  3  1  6  0  0  0
  8 17  1  6  0  0  0
  8  4  1  0  0  0  0
 10 12  1  0  0  0  0
 11 16  1  0  0  0  0
 12  2  1  0  0  0  0
 12  9  1  1  0  0  0
 13 10  2  0  0  0  0
 13 11  1  0  0  0  0
 14 10  1  0  0  0  0
 15 11  2  0  0  0  0
 16  9  2  0  0  0  0
 17 18  1  6  0  0  0
 20 19  1  6  0  0  0
 20 17  1  0  0  0  0
 21 22  2  0  0  0  0
 21 20  1  0  0  0  0
 23 21  1  0  0  0  0
 24 23  1  0  0  0  0
 25 24  2  0  0  0  0
 26 24  1  0  0  0  0
 28 27  1  0  0  0  0
M  END
>  <MODEL>
5

>  <REMARK>
 VINA RESULT:      -7.0      2.601      4.904
  Name = 
  7 active torsions:
  status: ('A' for Active; 'I' for Inactive)
    1  A    between atoms: C_1  and  C_11
    2  A    between atoms: C_1  and  C_27
    3  A    between atoms: C_3  and  C_11
    4  A    between atoms: C_3  and  O_28
    5  A    between atoms: C_6  and  O_28
    6  A    between atoms: N_10  and  C_13
    7  A    between atoms: C_20  and  C_21
                            x       y       z     vdW  Elec       q    Type
                         _______ _______ _______ _____ _____    ______ ____

>  <TORSDO>
F 7

$$$$
=
 OpenBabel11052413373D

 28 29  0  0  1  0  0  0  0  0999 V2000
  183.1520  179.8550  138.8630 C   0  0  0  0  0  1  0  0  0  0  0  0
  185.6840  178.5880  141.0950 N   0  0  1  0  0  0  0  0  0  0  0  0
  183.5970  177.1570  141.2300 F   0  0  0  0  0  0  0  0  0  0  0  0
  185.4080  179.3780  138.7110 O   0  0  0  0  0  0  0  0  0  0  0  0
  186.8090  178.2340  140.3580 O   0  0  0  0  0  0  0  0  0  0  0  0
  184.2550  178.7040  139.0630 C   0  0  1  0  0  0  0  0  0  0  0  0
  184.3180  178.2520  140.6120 C   0  0  2  0  0  3  0  0  0  0  0  0
  186.4370  178.4220  138.9430 C   0  0  2  0  0  3  0  0  0  0  0  0
  187.1290  177.7220  143.0870 C   0  0  0  0  0  3  0  0  0  0  0  0
  184.9310  179.0050  143.5870 C   0  0  0  0  0  0  0  0  0  0  0  0
  186.3000  178.0440  145.3950 C   0  0  0  0  0  0  0  0  0  0  0  0
  186.0000  178.6230  142.5740 C   0  0  2  0  0  3  0  0  0  0  0  0
  185.1270  178.7780  144.8840 C   0  0  0  0  0  3  0  0  0  0  0  0
  183.8450  179.7510  143.2730 F   0  0  0  0  0  0  0  0  0  0  0  0
  186.3420  177.8790  146.6160 O   0  0  0  0  0  0  0  0  0  0  0  0
  187.2820  177.5020  144.4250 C   0  0  0  0  0  3  0  0  0  0  0  0
  187.5580  178.4740  138.0340 C   0  0  2  0  0  3  0  0  0  0  0  0
  187.1220  179.2410  136.9530 O   0  0  0  0  0  1  0  0  0  0  0  0
  186.9980  176.1470  137.6420 O   0  0  0  0  0  1  0  0  0  0  0  0
  188.0050  177.1360  137.5340 C   0  0  2  0  0  3  0  0  0  0  0  0
  189.3130  176.7660  138.2200 C   0  0  0  0  0  0  0  0  0  0  0  0
  189.8120  175.6690  138.0070 O   0  0  0  0  0  0  0  0  0  0  0  0
  189.8950  177.6120  139.2190 O   0  0  0  0  0  0  0  0  0  0  0  0
  190.5710  177.2140  140.3540 C   0  0  0  0  0  0  0  0  0  0  0  0
  189.9300  176.6940  141.2740 O   0  0  0  0  0  0  0  0  0  0  0  0
  192.0720  177.5030  140.5940 C   0  0  0  0  0  1  0  0  0  0  0  0
  182.5860  177.2720  138.1970 O   0  0  0  0  0  1  0  0  0  0  0  0
  183.9810  177.5190  138.1590 C   0  0  0  0  0  2  0  0  0  0  0  0
  2  5  1  6  0  0  0
  2 12  1  0  0  0  0
  4  8  1  0  0  0  0
  4  6  1  0  0  0  0
  6  1  1  6  0  0  0
  6  7  1  0  0  0  0
  7  2  1  0  0  0  0
  7  3  1  6  0  0  0
  8 17  1  6  0  0  0
  8  5  1  0  0  0  0
  9 16  2  0  0  0  0
 10 13  2  0  0  0  0
 11 15  2  0  0  0  0
 12  9  1  1  0  0  0
 12 10  1  0  0  0  0
 13 11  1  0  0  0  0
 14 10  1  0  0  0  0
 16 11  1  0  0  0  0
 17 18  1  6  0  0  0
 20 19  1  1  0  0  0
 20 17  1  0  0  0  0
 20 21  1  0  0  0  0
 21 23  1  0  0  0  0
 22 21  2  0  0  0  0
 23 24  1  0  0  0  0
 24 26  1  0  0  0  0
 24 25  2  0  0  0  0
 28 27  1  0  0  0  0
 28  6  1  0  0  0  0
M  END
>  <MODEL>
6

>  <REMARK>
 VINA RESULT:      -6.6      2.315      5.337
  Name = 
  7 active torsions:
  status: ('A' for Active; 'I' for Inactive)
    1  A    between atoms: C_1  and  C_11
    2  A    between atoms: C_1  and  C_27
    3  A    between atoms: C_3  and  C_11
    4  A    between atoms: C_3  and  O_28
    5  A    between atoms: C_6  and  O_28
    6  A    between atoms: N_10  and  C_13
    7  A    between atoms: C_20  and  C_21
                            x       y       z     vdW  Elec       q    Type
                         _______ _______ _______ _____ _____    ______ ____

>  <TORSDO>
F 7

$$$$
=
 OpenBabel11052413373D

 28 29  0  0  1  0  0  0  0  0999 V2000
  182.4820  180.8760  139.0850 C   0  0  0  0  0  1  0  0  0  0  0  0
  184.2240  178.6460  141.3190 N   0  0  1  0  0  0  0  0  0  0  0  0
  181.8230  177.8930  141.0220 F   0  0  0  0  0  0  0  0  0  0  0  0
  184.5140  179.7740  139.0770 O   0  0  0  0  0  0  0  0  0  0  0  0
  185.2970  178.0700  140.6480 O   0  0  0  0  0  0  0  0  0  0  0  0
  183.1810  179.4350  139.2040 C   0  0  1  0  0  0  0  0  0  0  0  0
  182.9000  178.7940  140.6590 C   0  0  2  0  0  3  0  0  0  0  0  0
  185.1930  178.5350  139.2510 C   0  0  2  0  0  3  0  0  0  0  0  0
  183.2140  178.9510  143.7050 C   0  0  0  0  0  3  0  0  0  0  0  0
  185.6840  178.1950  143.4690 C   0  0  0  0  0  0  0  0  0  0  0  0
  184.6760  178.6280  145.6740 C   0  0  0  0  0  0  0  0  0  0  0  0
  184.3290  178.4000  142.8090 C   0  0  2  0  0  3  0  0  0  0  0  0
  185.7970  178.2490  144.7940 C   0  0  0  0  0  3  0  0  0  0  0  0
  186.7790  177.7660  142.7960 F   0  0  0  0  0  0  0  0  0  0  0  0
  184.9280  178.6640  146.8810 O   0  0  0  0  0  0  0  0  0  0  0  0
  183.3800  179.0030  145.0590 C   0  0  0  0  0  3  0  0  0  0  0  0
  186.3980  178.3660  138.4760 C   0  0  2  0  0  3  0  0  0  0  0  0
  186.1800  177.2300  137.6950 O   0  0  0  0  0  1  0  0  0  0  0  0
  187.6780  179.0040  140.4350 O   0  0  0  0  0  1  0  0  0  0  0  0
  187.6330  178.1630  139.2970 C   0  0  2  0  0  3  0  0  0  0  0  0
  188.8520  178.2800  138.3920 C   0  0  0  0  0  0  0  0  0  0  0  0
  189.0550  179.3280  137.7940 O   0  0  0  0  0  0  0  0  0  0  0  0
  189.6830  177.1480  138.1130 O   0  0  0  0  0  0  0  0  0  0  0  0
  190.5560  176.5250  138.9820 C   0  0  0  0  0  0  0  0  0  0  0  0
  190.9410  175.3800  138.7150 O   0  0  0  0  0  0  0  0  0  0  0  0
  190.9780  177.1290  140.3420 C   0  0  0  0  0  1  0  0  0  0  0  0
  181.8110  179.2370  137.2890 O   0  0  0  0  0  1  0  0  0  0  0  0
  182.7160  178.5070  138.1000 C   0  0  0  0  0  2  0  0  0  0  0  0
  2  5  1  6  0  0  0
  2 12  1  0  0  0  0
  4  6  1  0  0  0  0
  4  8  1  0  0  0  0
  6  1  1  6  0  0  0
  6  7  1  0  0  0  0
  7  3  1  6  0  0  0
  7  2  1  0  0  0  0
  8 17  1  1  0  0  0
  8  5  1  0  0  0  0
  9 16  2  0  0  0  0
 10 13  2  0  0  0  0
 11 15  2  0  0  0  0
 12 10  1  0  0  0  0
 12  9  1  1  0  0  0
 13 11  1  0  0  0  0
 14 10  1  0  0  0  0
 16 11  1  0  0  0  0
 17 18  1  6  0  0  0
 17 20  1  0  0  0  0
 20 19  1  1  0  0  0
 21 20  1  0  0  0  0
 22 21  2  0  0  0  0
 23 21  1  0  0  0  0
 23 24  1  0  0  0  0
 24 26  1  0  0  0  0
 25 24  2  0  0  0  0
 27 28  1  0  0  0  0
 28  6  1  0  0  0  0
M  END
>  <MODEL>
7

>  <REMARK>
 VINA RESULT:      -6.6      2.535      5.728
  Name = 
  7 active torsions:
  status: ('A' for Active; 'I' for Inactive)
    1  A    between atoms: C_1  and  C_11
    2  A    between atoms: C_1  and  C_27
    3  A    between atoms: C_3  and  C_11
    4  A    between atoms: C_3  and  O_28
    5  A    between atoms: C_6  and  O_28
    6  A    between atoms: N_10  and  C_13
    7  A    between atoms: C_20  and  C_21
                            x       y       z     vdW  Elec       q    Type
                         _______ _______ _______ _____ _____    ______ ____

>  <TORSDO>
F 7

$$$$
=
 OpenBabel11052413373D

 28 29  0  0  1  0  0  0  0  0999 V2000
  192.0700  178.4130  144.1250 C   0  0  0  0  0  1  0  0  0  0  0  0
  188.7740  178.1690  142.6830 N   0  0  1  0  0  0  0  0  0  0  0  0
  190.2140  176.2280  141.9180 F   0  0  0  0  0  0  0  0  0  0  0  0
  189.9010  178.5810  144.9060 O   0  0  0  0  0  0  0  0  0  0  0  0
  187.8340  178.0700  143.7030 O   0  0  0  0  0  0  0  0  0  0  0  0
  190.6580  177.6510  144.2210 C   0  0  1  0  0  0  0  0  0  0  0  0
  190.0510  177.4090  142.7450 C   0  0  2  0  0  3  0  0  0  0  0  0
  188.6080  177.9880  144.9560 C   0  0  2  0  0  3  0  0  0  0  0  0
  186.5730  178.5580  141.3390 C   0  0  0  0  0  3  0  0  0  0  0  0
  188.7660  178.0550  140.0480 C   0  0  0  0  0  0  0  0  0  0  0  0
  186.6150  178.3160  138.8780 C   0  0  0  0  0  0  0  0  0  0  0  0
  188.1010  178.4540  141.3580 C   0  0  2  0  0  3  0  0  0  0  0  0
  188.0670  178.0600  138.9160 C   0  0  0  0  0  3  0  0  0  0  0  0
  190.1020  177.8720  139.9210 F   0  0  0  0  0  0  0  0  0  0  0  0
  186.0880  178.2620  137.7640 O   0  0  0  0  0  0  0  0  0  0  0  0
  185.8940  178.5400  140.1540 C   0  0  0  0  0  3  0  0  0  0  0  0
  187.8410  178.2560  146.1490 C   0  0  2  0  0  3  0  0  0  0  0  0
  188.6230  177.7870  147.2050 O   0  0  0  0  0  1  0  0  0  0  0  0
  186.2400  176.8310  145.0130 O   0  0  0  0  0  1  0  0  0  0  0  0
  186.5100  177.5730  146.1880 C   0  0  2  0  0  3  0  0  0  0  0  0
  185.4390  178.5990  146.5330 C   0  0  0  0  0  0  0  0  0  0  0  0
  185.6910  179.4780  147.3450 O   0  0  0  0  0  0  0  0  0  0  0  0
  184.1010  178.4740  146.0360 O   0  0  0  0  0  0  0  0  0  0  0  0
  183.6030  178.9830  144.8540 C   0  0  0  0  0  0  0  0  0  0  0  0
  182.4350  178.7220  144.5430 O   0  0  0  0  0  0  0  0  0  0  0  0
  184.4670  179.7550  143.8300 C   0  0  0  0  0  1  0  0  0  0  0  0
  191.8810  176.4860  145.8740 O   0  0  0  0  0  1  0  0  0  0  0  0
  190.7900  176.3460  144.9780 C   0  0  0  0  0  2  0  0  0  0  0  0
  2  7  1  0  0  0  0
  2  5  1  1  0  0  0
  4  8  1  0  0  0  0
  5  8  1  0  0  0  0
  6  1  1  6  0  0  0
  6  4  1  0  0  0  0
  6 28  1  0  0  0  0
  7  3  1  1  0  0  0
  7  6  1  0  0  0  0
  8 17  1  1  0  0  0
 10 12  1  0  0  0  0
 11 13  1  0  0  0  0
 11 16  1  0  0  0  0
 12  9  1  1  0  0  0
 12  2  1  0  0  0  0
 13 10  2  0  0  0  0
 14 10  1  0  0  0  0
 15 11  2  0  0  0  0
 16  9  2  0  0  0  0
 17 20  1  0  0  0  0
 17 18  1  1  0  0  0
 20 19  1  6  0  0  0
 20 21  1  0  0  0  0
 21 22  2  0  0  0  0
 23 21  1  0  0  0  0
 24 23  1  0  0  0  0
 25 24  2  0  0  0  0
 26 24  1  0  0  0  0
 28 27  1  0  0  0  0
M  END
>  <MODEL>
8

>  <REMARK>
 VINA RESULT:      -6.5      2.392      5.802
  Name = 
  7 active torsions:
  status: ('A' for Active; 'I' for Inactive)
    1  A    between atoms: C_1  and  C_11
    2  A    between atoms: C_1  and  C_27
    3  A    between atoms: C_3  and  C_11
    4  A    between atoms: C_3  and  O_28
    5  A    between atoms: C_6  and  O_28
    6  A    between atoms: N_10  and  C_13
    7  A    between atoms: C_20  and  C_21
                            x       y       z     vdW  Elec       q    Type
                         _______ _______ _______ _____ _____    ______ ____

>  <TORSDO>
F 7

$$$$
=
 OpenBabel11052413373D

 28 29  0  0  1  0  0  0  0  0999 V2000
  189.0560  179.0110  137.3280 C   0  0  0  0  0  1  0  0  0  0  0  0
  186.9230  178.4010  140.1700 N   0  0  1  0  0  0  0  0  0  0  0  0
  186.1720  177.0060  138.1930 F   0  0  0  0  0  0  0  0  0  0  0  0
  189.3730  178.5600  139.5720 O   0  0  0  0  0  0  0  0  0  0  0  0
  187.6880  177.8980  141.2170 O   0  0  0  0  0  0  0  0  0  0  0  0
  188.7200  177.9720  138.5060 C   0  0  1  0  0  0  0  0  0  0  0  0
  187.1290  177.9250  138.7770 C   0  0  2  0  0  3  0  0  0  0  0  0
  189.0460  177.7150  140.6710 C   0  0  2  0  0  3  0  0  0  0  0  0
  185.1430  178.4090  142.0770 C   0  0  0  0  0  3  0  0  0  0  0  0
  184.4160  179.0490  139.6720 C   0  0  0  0  0  0  0  0  0  0  0  0
  182.7880  178.9080  141.5140 C   0  0  0  0  0  0  0  0  0  0  0  0
  185.5510  178.8140  140.6570 C   0  0  2  0  0  3  0  0  0  0  0  0
  183.1620  179.1450  140.1070 C   0  0  0  0  0  3  0  0  0  0  0  0
  184.6170  179.3610  138.3690 F   0  0  0  0  0  0  0  0  0  0  0  0
  181.5860  179.0030  141.7740 O   0  0  0  0  0  0  0  0  0  0  0  0
  183.8420  178.5080  142.4770 C   0  0  0  0  0  3  0  0  0  0  0  0
  190.0750  177.5610  141.6710 C   0  0  2  0  0  3  0  0  0  0  0  0
  191.2750  177.5090  140.9620 O   0  0  0  0  0  1  0  0  0  0  0  0
  188.5960  175.9900  142.7800 O   0  0  0  0  0  1  0  0  0  0  0  0
  189.9440  176.3220  142.5000 C   0  0  2  0  0  3  0  0  0  0  0  0
  190.8160  176.4640  143.7400 C   0  0  0  0  0  0  0  0  0  0  0  0
  191.6800  175.6280  143.9640 O   0  0  0  0  0  0  0  0  0  0  0  0
  190.5530  177.4720  144.7230 O   0  0  0  0  0  0  0  0  0  0  0  0
  189.6510  177.4010  145.7650 C   0  0  0  0  0  0  0  0  0  0  0  0
  188.5210  177.8760  145.6030 O   0  0  0  0  0  0  0  0  0  0  0  0
  190.0180  176.8790  147.1730 C   0  0  0  0  0  1  0  0  0  0  0  0
  188.9740  176.3280  136.8270 O   0  0  0  0  0  1  0  0  0  0  0  0
  189.2610  176.5920  138.1900 C   0  0  0  0  0  2  0  0  0  0  0  0
  2 12  1  0  0  0  0
  2  5  1  1  0  0  0
  4  8  1  0  0  0  0
  6  1  1  6  0  0  0
  6  7  1  0  0  0  0
  6  4  1  0  0  0  0
  7  3  1  1  0  0  0
  7  2  1  0  0  0  0
  8  5  1  0  0  0  0
  8 17  1  1  0  0  0
  9 16  2  0  0  0  0
 10 13  2  0  0  0  0
 10 12  1  0  0  0  0
 11 15  2  0  0  0  0
 11 16  1  0  0  0  0
 12  9  1  1  0  0  0
 13 11  1  0  0  0  0
 14 10  1  0  0  0  0
 17 18  1  6  0  0  0
 17 20  1  0  0  0  0
 20 19  1  1  0  0  0
 20 21  1  0  0  0  0
 21 22  2  0  0  0  0
 21 23  1  0  0  0  0
 23 24  1  0  0  0  0
 24 26  1  0  0  0  0
 25 24  2  0  0  0  0
 27 28  1  0  0  0  0
 28  6  1  0  0  0  0
M  END
>  <MODEL>
9

>  <REMARK>
 VINA RESULT:      -6.5      2.992      5.713
  Name = 
  7 active torsions:
  status: ('A' for Active; 'I' for Inactive)
    1  A    between atoms: C_1  and  C_11
    2  A    between atoms: C_1  and  C_27
    3  A    between atoms: C_3  and  C_11
    4  A    between atoms: C_3  and  O_28
    5  A    between atoms: C_6  and  O_28
    6  A    between atoms: N_10  and  C_13
    7  A    between atoms: C_20  and  C_21
                            x       y       z     vdW  Elec       q    Type
                         _______ _______ _______ _____ _____    ______ ____

>  <TORSDO>
F 7

$$$$
