=
 OpenBabel11052414333D

 32 37  0  0  1  0  0  0  0  0999 V2000
  191.2810  177.5110  140.2260 C   0  0  2  0  0  3  0  0  0  0  0  0
  189.8580  177.2280  138.1980 C   0  0  1  0  0  3  0  0  0  0  0  0
  192.6350  177.5080  140.8840 C   0  0  0  0  0  2  0  0  0  0  0  0
  191.1900  177.3030  138.8920 C   0  0  2  0  0  3  0  0  0  0  0  0
  189.5640  175.7530  137.8870 C   0  0  1  0  0  3  0  0  0  0  0  0
  185.0170  178.1090  138.2950 C   0  0  0  0  0  3  0  0  0  0  0  0
  188.7330  177.8610  139.0370 C   0  0  2  0  0  3  0  0  0  0  0  0
  185.9040  176.2200  137.0670 C   0  0  0  0  0  3  0  0  0  0  0  0
  187.1750  176.4690  137.5930 C   0  0  0  0  0  0  0  0  0  0  0  0
  192.3450  176.7330  138.0970 C   0  0  2  0  0  3  0  0  0  0  0  0
  188.2770  175.6430  137.2080 N   0  0  0  0  0  2  0  0  0  0  0  0
  192.0480  175.2710  137.7470 C   0  0  0  0  0  2  0  0  0  0  0  0
  193.6480  176.8740  138.7640 N   0  0  0  0  0  2  0  0  0  0  0  0
  188.8150  177.3950  140.4170 N   0  0  0  0  0  2  0  0  0  0  0  0
  190.0480  177.9170  141.0170 C   0  0  1  0  0  3  0  0  0  0  0  0
  187.3730  177.5610  138.4660 C   0  0  0  0  0  0  0  0  0  0  0  0
  190.6900  175.1410  137.0370 C   0  0  1  0  0  3  0  0  0  0  0  0
  193.5510  176.5180  140.1790 C   0  0  0  0  0  2  0  0  0  0  0  0
  184.8260  177.0360  137.4190 C   0  0  0  0  0  3  0  0  0  0  0  0
  186.2860  178.3710  138.8160 C   0  0  0  0  0  3  0  0  0  0  0  0
  188.7420  177.8820  144.6610 C   0  0  1  0  0  3  0  0  0  0  0  0
  192.0010  176.3220  146.4430 Cl  0  0  0  0  0  0  0  0  0  0  0  0
  187.3540  177.8210  145.2760 C   0  0  0  0  0  1  0  0  0  0  0  0
  191.5850  178.1960  144.4320 C   0  0  0  0  0  3  0  0  0  0  0  0
  190.1300  177.5290  142.4990 C   0  0  1  0  0  3  0  0  0  0  0  0
  189.6800  177.0800  145.4400 N   0  0  0  0  0  0  0  0  0  0  0  0
  191.1720  178.3830  143.1760 C   0  0  0  0  0  3  0  0  0  0  0  0
  188.7390  177.4810  143.1780 C   0  0  1  0  0  3  0  0  0  0  0  0
  188.1210  176.1040  142.9760 C   0  0  0  0  0  1  0  0  0  0  0  0
  190.9690  177.2210  145.3530 C   0  0  0  0  0  0  0  0  0  0  0  0
  190.4130  173.7360  136.7850 N   0  0  0  0  0  2  0  0  0  0  0  0
  191.5890  173.1770  136.1420 C   0  0  0  0  0  1  0  0  0  0  0  0
  1  3  1  6  0  0  0
  1 15  1  0  0  0  0
  2  4  1  0  0  0  0
  2  7  1  0  0  0  0
  4  1  1  0  0  0  0
  5  2  1  0  0  0  0
  6 20  1  0  0  0  0
  7 14  1  0  0  0  0
  8 19  1  0  0  0  0
  8  9  2  0  0  0  0
  9 16  1  0  0  0  0
 10 13  1  0  0  0  0
 10  4  1  0  0  0  0
 11  9  1  0  0  0  0
 11  5  1  0  0  0  0
 12 10  1  0  0  0  0
 13 18  1  0  0  0  0
 14 15  1  0  0  0  0
 15 25  1  0  0  0  0
 16 20  2  0  0  0  0
 16  7  1  0  0  0  0
 17 12  1  0  0  0  0
 17  5  1  0  0  0  0
 18  3  1  0  0  0  0
 19  6  2  0  0  0  0
 21 23  1  0  0  0  0
 21 26  1  0  0  0  0
 24 30  1  0  0  0  0
 25 27  1  0  0  0  0
 25 28  1  0  0  0  0
 27 24  2  0  0  0  0
 28 21  1  0  0  0  0
 29 28  1  0  0  0  0
 30 26  2  0  0  0  0
 30 22  1  0  0  0  0
 31 17  1  0  0  0  0
 32 31  1  0  0  0  0
M  END
>  <MODEL>
1

>  <REMARK>
 VINA RESULT:      -8.4      0.000      0.000
  Name = 
  2 active torsions:
  status: ('A' for Active; 'I' for Inactive)
    1  A    between atoms: N_13  and  C_29
    2  A    between atoms: C_16  and  C_27
                            x       y       z     vdW  Elec       q    Type
                         _______ _______ _______ _____ _____    ______ ____

>  <TORSDO>
F 2

$$$$
=
 OpenBabel11052414333D

 32 37  0  0  1  0  0  0  0  0999 V2000
  186.9320  178.5300  140.3210 C   0  0  2  0  0  3  0  0  0  0  0  0
  184.4800  178.6960  139.9040 C   0  0  1  0  0  3  0  0  0  0  0  0
  188.3440  178.4480  139.8040 C   0  0  0  0  0  2  0  0  0  0  0  0
  185.9120  178.6780  139.4450 C   0  0  2  0  0  3  0  0  0  0  0  0
  183.8490  177.3400  139.5550 C   0  0  1  0  0  3  0  0  0  0  0  0
  181.2570  179.1760  143.5930 C   0  0  0  0  0  3  0  0  0  0  0  0
  184.3580  179.0020  141.4080 C   0  0  2  0  0  3  0  0  0  0  0  0
  180.7640  177.7480  141.7000 C   0  0  0  0  0  3  0  0  0  0  0  0
  182.0610  177.9380  141.2140 C   0  0  0  0  0  0  0  0  0  0  0  0
  186.0940  178.4230  137.9640 C   0  0  2  0  0  3  0  0  0  0  0  0
  182.4540  177.3230  139.9840 N   0  0  0  0  0  2  0  0  0  0  0  0
  185.4350  177.0890  137.5950 C   0  0  0  0  0  2  0  0  0  0  0  0
  187.4950  178.4730  137.5230 N   0  0  0  0  0  2  0  0  0  0  0  0
  185.3100  178.1940  142.1620 N   0  0  0  0  0  2  0  0  0  0  0  0
  186.6700  178.6230  141.8160 C   0  0  1  0  0  3  0  0  0  0  0  0
  182.9600  178.7690  141.9150 C   0  0  0  0  0  0  0  0  0  0  0  0
  183.9660  177.0570  138.0480 C   0  0  1  0  0  3  0  0  0  0  0  0
  188.3600  177.7480  138.4530 C   0  0  0  0  0  2  0  0  0  0  0  0
  180.3630  178.3630  142.8890 C   0  0  0  0  0  3  0  0  0  0  0  0
  182.5520  179.3780  143.1080 C   0  0  0  0  0  3  0  0  0  0  0  0
  188.5860  177.8720  145.0950 C   0  0  1  0  0  3  0  0  0  0  0  0
  191.3900  175.4030  143.5890 Cl  0  0  0  0  0  0  0  0  0  0  0  0
  188.1940  177.8820  146.5630 C   0  0  0  0  0  1  0  0  0  0  0  0
  190.2100  177.7690  142.7320 C   0  0  0  0  0  3  0  0  0  0  0  0
  187.7040  177.8620  142.6560 C   0  0  1  0  0  3  0  0  0  0  0  0
  189.4850  176.7570  144.8150 N   0  0  0  0  0  0  0  0  0  0  0  0
  189.0860  178.3340  142.2840 C   0  0  0  0  0  3  0  0  0  0  0  0
  187.3610  177.8680  144.1660 C   0  0  1  0  0  3  0  0  0  0  0  0
  186.4280  176.7070  144.4820 C   0  0  0  0  0  1  0  0  0  0  0  0
  190.2330  176.7050  143.7540 C   0  0  0  0  0  0  0  0  0  0  0  0
  183.3980  175.7540  137.7430 N   0  0  0  0  0  2  0  0  0  0  0  0
  184.4650  174.9430  137.1830 C   0  0  0  0  0  1  0  0  0  0  0  0
  1  3  1  6  0  0  0
  1 15  1  0  0  0  0
  2  7  1  0  0  0  0
  4  2  1  0  0  0  0
  4  1  1  0  0  0  0
  5  2  1  0  0  0  0
  5 11  1  0  0  0  0
  7 16  1  0  0  0  0
  7 14  1  0  0  0  0
  8 19  1  0  0  0  0
  9  8  2  0  0  0  0
  9 16  1  0  0  0  0
 10  4  1  0  0  0  0
 11  9  1  0  0  0  0
 12 10  1  0  0  0  0
 12 17  1  0  0  0  0
 13 10  1  0  0  0  0
 13 18  1  0  0  0  0
 15 14  1  0  0  0  0
 15 25  1  0  0  0  0
 16 20  2  0  0  0  0
 17  5  1  0  0  0  0
 18  3  1  0  0  0  0
 19  6  2  0  0  0  0
 20  6  1  0  0  0  0
 21 23  1  0  0  0  0
 22 30  1  0  0  0  0
 24 30  1  0  0  0  0
 25 28  1  0  0  0  0
 26 21  1  0  0  0  0
 27 25  1  0  0  0  0
 27 24  2  0  0  0  0
 28 29  1  0  0  0  0
 28 21  1  0  0  0  0
 30 26  2  0  0  0  0
 31 17  1  0  0  0  0
 32 31  1  0  0  0  0
M  END
>  <MODEL>
2

>  <REMARK>
 VINA RESULT:      -7.3      3.197      5.173
  Name = 
  2 active torsions:
  status: ('A' for Active; 'I' for Inactive)
    1  A    between atoms: N_13  and  C_29
    2  A    between atoms: C_16  and  C_27
                            x       y       z     vdW  Elec       q    Type
                         _______ _______ _______ _____ _____    ______ ____

>  <TORSDO>
F 2

$$$$
=
 OpenBabel11052414333D

 32 37  0  0  1  0  0  0  0  0999 V2000
  189.8910  177.2830  139.0040 C   0  0  2  0  0  3  0  0  0  0  0  0
  187.8480  177.5470  137.5990 C   0  0  1  0  0  3  0  0  0  0  0  0
  191.3480  176.9280  139.1390 C   0  0  0  0  0  2  0  0  0  0  0  0
  189.3150  177.2670  137.7800 C   0  0  2  0  0  3  0  0  0  0  0  0
  187.1360  176.2110  137.3400 C   0  0  1  0  0  3  0  0  0  0  0  0
  183.6580  179.3520  139.4430 C   0  0  0  0  0  3  0  0  0  0  0  0
  187.2450  178.2800  138.8110 C   0  0  2  0  0  3  0  0  0  0  0  0
  183.6240  177.4950  137.8900 C   0  0  0  0  0  3  0  0  0  0  0  0
  185.0180  177.4180  137.9450 C   0  0  0  0  0  0  0  0  0  0  0  0
  189.9740  176.5840  136.6010 C   0  0  2  0  0  3  0  0  0  0  0  0
  185.7070  176.4450  137.1550 N   0  0  0  0  0  2  0  0  0  0  0  0
  189.2490  175.2670  136.3080 C   0  0  0  0  0  2  0  0  0  0  0  0
  191.4200  176.3780  136.7700 N   0  0  0  0  0  2  0  0  0  0  0  0
  187.6740  177.6360  140.0480 N   0  0  0  0  0  2  0  0  0  0  0  0
  189.1210  177.8230  140.1990 C   0  0  1  0  0  3  0  0  0  0  0  0
  185.7420  178.3300  138.7430 C   0  0  0  0  0  0  0  0  0  0  0  0
  187.7400  175.5000  136.1170 C   0  0  1  0  0  3  0  0  0  0  0  0
  191.7210  175.8730  138.1090 C   0  0  0  0  0  2  0  0  0  0  0  0
  182.9440  178.4570  138.6400 C   0  0  0  0  0  3  0  0  0  0  0  0
  185.0520  179.2890  139.4950 C   0  0  0  0  0  3  0  0  0  0  0  0
  189.4500  177.8330  144.0560 C   0  0  1  0  0  3  0  0  0  0  0  0
  192.1620  174.8770  144.4260 Cl  0  0  0  0  0  0  0  0  0  0  0  0
  188.5250  178.2530  145.1860 C   0  0  0  0  0  1  0  0  0  0  0  0
  191.8250  177.0080  142.6730 C   0  0  0  0  0  3  0  0  0  0  0  0
  189.6020  177.2430  141.5350 C   0  0  1  0  0  3  0  0  0  0  0  0
  190.1870  176.6270  144.4220 N   0  0  0  0  0  0  0  0  0  0  0  0
  191.0770  177.5090  141.6870 C   0  0  0  0  0  3  0  0  0  0  0  0
  188.7030  177.6670  142.7230 C   0  0  1  0  0  3  0  0  0  0  0  0
  187.5410  176.6930  142.8560 C   0  0  0  0  0  1  0  0  0  0  0  0
  191.2690  176.2500  143.8100 C   0  0  0  0  0  0  0  0  0  0  0  0
  187.0800  174.2210  135.9110 N   0  0  0  0  0  2  0  0  0  0  0  0
  187.6740  173.2780  136.8430 C   0  0  0  0  0  1  0  0  0  0  0  0
  1  3  1  6  0  0  0
  1 15  1  0  0  0  0
  2  4  1  0  0  0  0
  2  7  1  0  0  0  0
  4  1  1  0  0  0  0
  5  2  1  0  0  0  0
  6 20  1  0  0  0  0
  7 14  1  0  0  0  0
  8  9  2  0  0  0  0
  8 19  1  0  0  0  0
  9 16  1  0  0  0  0
 10 13  1  0  0  0  0
 10  4  1  0  0  0  0
 11  5  1  0  0  0  0
 11  9  1  0  0  0  0
 12 10  1  0  0  0  0
 13 18  1  0  0  0  0
 14 15  1  0  0  0  0
 15 25  1  0  0  0  0
 16  7  1  0  0  0  0
 16 20  2  0  0  0  0
 17 12  1  0  0  0  0
 17  5  1  0  0  0  0
 18  3  1  0  0  0  0
 19  6  2  0  0  0  0
 21 26  1  0  0  0  0
 21 23  1  0  0  0  0
 24 30  1  0  0  0  0
 25 27  1  0  0  0  0
 25 28  1  0  0  0  0
 27 24  2  0  0  0  0
 28 29  1  0  0  0  0
 28 21  1  0  0  0  0
 30 26  2  0  0  0  0
 30 22  1  0  0  0  0
 31 17  1  0  0  0  0
 31 32  1  0  0  0  0
M  END
>  <MODEL>
3

>  <REMARK>
 VINA RESULT:      -7.1      1.583      2.263
  Name = 
  2 active torsions:
  status: ('A' for Active; 'I' for Inactive)
    1  A    between atoms: N_13  and  C_29
    2  A    between atoms: C_16  and  C_27
                            x       y       z     vdW  Elec       q    Type
                         _______ _______ _______ _____ _____    ______ ____

>  <TORSDO>
F 2

$$$$
=
 OpenBabel11052414333D

 32 37  0  0  1  0  0  0  0  0999 V2000
  183.9370  178.9980  141.2990 C   0  0  2  0  0  3  0  0  0  0  0  0
  186.4000  178.9830  141.6860 C   0  0  1  0  0  3  0  0  0  0  0  0
  182.5370  179.2510  141.7920 C   0  0  0  0  0  2  0  0  0  0  0  0
  184.9860  179.2800  142.1050 C   0  0  2  0  0  3  0  0  0  0  0  0
  186.8690  177.7320  142.4420 C   0  0  1  0  0  3  0  0  0  0  0  0
  189.5770  177.9200  138.0810 C   0  0  0  0  0  3  0  0  0  0  0  0
  186.5260  178.8000  140.1630 C   0  0  2  0  0  3  0  0  0  0  0  0
  189.9340  177.0870  140.3270 C   0  0  0  0  0  3  0  0  0  0  0  0
  188.6810  177.5730  140.7110 C   0  0  0  0  0  0  0  0  0  0  0  0
  184.8060  179.5130  143.5890 C   0  0  2  0  0  3  0  0  0  0  0  0
  188.2420  177.4150  142.0630 N   0  0  0  0  0  2  0  0  0  0  0  0
  185.3060  178.2850  144.3580 C   0  0  0  0  0  2  0  0  0  0  0  0
  183.4310  179.8650  143.9700 N   0  0  0  0  0  2  0  0  0  0  0  0
  185.4670  177.9230  139.6760 N   0  0  0  0  0  2  0  0  0  0  0  0
  184.1770  178.6000  139.8510 C   0  0  1  0  0  3  0  0  0  0  0  0
  187.8740  178.2550  139.7750 C   0  0  0  0  0  0  0  0  0  0  0  0
  186.7500  177.9380  143.9620 C   0  0  1  0  0  3  0  0  0  0  0  0
  182.4650  179.0030  143.2910 C   0  0  0  0  0  2  0  0  0  0  0  0
  190.3810  177.2580  139.0140 C   0  0  0  0  0  3  0  0  0  0  0  0
  188.3280  178.4170  138.4600 C   0  0  0  0  0  3  0  0  0  0  0  0
  180.4550  177.8520  139.0920 C   0  0  1  0  0  3  0  0  0  0  0  0
  180.8680  174.0680  137.7750 Cl  0  0  0  0  0  0  0  0  0  0  0  0
  179.2610  178.7250  138.7410 C   0  0  0  0  0  1  0  0  0  0  0  0
  181.9900  175.5470  139.8440 C   0  0  0  0  0  3  0  0  0  0  0  0
  183.0410  177.7510  139.2650 C   0  0  1  0  0  3  0  0  0  0  0  0
  180.4190  176.6090  138.3290 N   0  0  0  0  0  0  0  0  0  0  0  0
  182.8120  176.5540  140.1510 C   0  0  0  0  0  3  0  0  0  0  0  0
  181.7890  178.5940  138.9170 C   0  0  1  0  0  3  0  0  0  0  0  0
  181.9300  179.1590  137.5100 C   0  0  0  0  0  1  0  0  0  0  0  0
  181.1010  175.5550  138.6650 C   0  0  0  0  0  0  0  0  0  0  0  0
  187.1620  176.7300  144.6590 N   0  0  0  0  0  2  0  0  0  0  0  0
  188.1220  177.1280  145.6740 C   0  0  0  0  0  1  0  0  0  0  0  0
  1  3  1  6  0  0  0
  1  4  1  0  0  0  0
  2  4  1  0  0  0  0
  2  5  1  0  0  0  0
  3 18  1  0  0  0  0
  4 10  1  0  0  0  0
  5 17  1  0  0  0  0
  6 20  2  0  0  0  0
  6 19  1  0  0  0  0
  7  2  1  0  0  0  0
  8  9  1  0  0  0  0
  9 11  1  0  0  0  0
 10 13  1  0  0  0  0
 10 12  1  0  0  0  0
 11  5  1  0  0  0  0
 14 15  1  0  0  0  0
 14  7  1  0  0  0  0
 15  1  1  0  0  0  0
 16  7  1  0  0  0  0
 16  9  2  0  0  0  0
 17 12  1  0  0  0  0
 17 31  1  0  0  0  0
 18 13  1  0  0  0  0
 19  8  2  0  0  0  0
 20 16  1  0  0  0  0
 22 30  1  0  0  0  0
 23 21  1  0  0  0  0
 24 27  2  0  0  0  0
 25 15  1  0  0  0  0
 25 27  1  0  0  0  0
 26 30  2  0  0  0  0
 26 21  1  0  0  0  0
 28 21  1  0  0  0  0
 28 25  1  0  0  0  0
 29 28  1  0  0  0  0
 30 24  1  0  0  0  0
 31 32  1  0  0  0  0
M  END
>  <MODEL>
4

>  <REMARK>
 VINA RESULT:      -7.1      4.271      8.488
  Name = 
  2 active torsions:
  status: ('A' for Active; 'I' for Inactive)
    1  A    between atoms: N_13  and  C_29
    2  A    between atoms: C_16  and  C_27
                            x       y       z     vdW  Elec       q    Type
                         _______ _______ _______ _____ _____    ______ ____

>  <TORSDO>
F 2

$$$$
=
 OpenBabel11052414333D

 32 37  0  0  1  0  0  0  0  0999 V2000
  186.8460  177.8830  138.4550 C   0  0  2  0  0  3  0  0  0  0  0  0
  189.3190  177.6910  138.7100 C   0  0  1  0  0  3  0  0  0  0  0  0
  185.5130  178.3670  138.9610 C   0  0  0  0  0  2  0  0  0  0  0  0
  187.9710  178.2060  139.1340 C   0  0  2  0  0  3  0  0  0  0  0  0
  189.7250  176.5660  139.6720 C   0  0  1  0  0  3  0  0  0  0  0  0
  192.1240  175.6400  135.2250 C   0  0  0  0  0  3  0  0  0  0  0  0
  189.3190  177.2080  137.2480 C   0  0  2  0  0  3  0  0  0  0  0  0
  192.5630  175.2200  137.5690 C   0  0  0  0  0  3  0  0  0  0  0  0
  191.3880  175.8950  137.9140 C   0  0  0  0  0  0  0  0  0  0  0  0
  187.9180  178.7340  140.5520 C   0  0  2  0  0  3  0  0  0  0  0  0
  191.0340  176.0430  139.2920 N   0  0  0  0  0  2  0  0  0  0  0  0
  188.3580  177.6310  141.5200 C   0  0  0  0  0  2  0  0  0  0  0  0
  186.6110  179.2920  140.9260 N   0  0  0  0  0  2  0  0  0  0  0  0
  188.1540  176.3670  136.9980 N   0  0  0  0  0  2  0  0  0  0  0  0
  186.9460  177.1930  137.1040 C   0  0  1  0  0  3  0  0  0  0  0  0
  190.5820  176.4640  136.9050 C   0  0  0  0  0  0  0  0  0  0  0  0
  189.7340  177.0690  141.1250 C   0  0  1  0  0  3  0  0  0  0  0  0
  185.5250  178.4190  140.4820 C   0  0  0  0  0  2  0  0  0  0  0  0
  192.9290  175.0890  136.2270 C   0  0  0  0  0  3  0  0  0  0  0  0
  190.9550  176.3260  135.5630 C   0  0  0  0  0  3  0  0  0  0  0  0
  185.0610  174.4200  135.1700 C   0  0  1  0  0  3  0  0  0  0  0  0
  181.3090  175.3550  136.3000 Cl  0  0  0  0  0  0  0  0  0  0  0  0
  185.4540  173.0400  134.6670 C   0  0  0  0  0  1  0  0  0  0  0  0
  183.5460  176.8260  135.5520 C   0  0  0  0  0  3  0  0  0  0  0  0
  185.6990  176.3690  136.7570 C   0  0  1  0  0  3  0  0  0  0  0  0
  183.6910  174.4070  135.6740 N   0  0  0  0  0  0  0  0  0  0  0  0
  184.7780  177.2030  135.9030 C   0  0  0  0  0  3  0  0  0  0  0  0
  186.0510  174.9630  136.2130 C   0  0  1  0  0  3  0  0  0  0  0  0
  186.2200  173.9940  137.3750 C   0  0  0  0  0  1  0  0  0  0  0  0
  182.9920  175.4890  135.8410 C   0  0  0  0  0  0  0  0  0  0  0  0
  190.0830  175.9810  142.0240 N   0  0  0  0  0  2  0  0  0  0  0  0
  189.1860  176.0620  143.1630 C   0  0  0  0  0  1  0  0  0  0  0  0
  1  3  1  6  0  0  0
  1  4  1  0  0  0  0
  2  4  1  0  0  0  0
  2  5  1  0  0  0  0
  3 18  1  0  0  0  0
  4 10  1  0  0  0  0
  5 17  1  0  0  0  0
  6 20  2  0  0  0  0
  6 19  1  0  0  0  0
  7  2  1  0  0  0  0
  8  9  1  0  0  0  0
  9 11  1  0  0  0  0
 10 13  1  0  0  0  0
 10 12  1  0  0  0  0
 11  5  1  0  0  0  0
 14 15  1  0  0  0  0
 14  7  1  0  0  0  0
 15  1  1  0  0  0  0
 16  7  1  0  0  0  0
 16  9  2  0  0  0  0
 17 12  1  0  0  0  0
 17 31  1  0  0  0  0
 18 13  1  0  0  0  0
 19  8  2  0  0  0  0
 20 16  1  0  0  0  0
 21 26  1  0  0  0  0
 21 28  1  0  0  0  0
 23 21  1  0  0  0  0
 24 30  1  0  0  0  0
 24 27  2  0  0  0  0
 25 15  1  0  0  0  0
 26 30  2  0  0  0  0
 27 25  1  0  0  0  0
 28 25  1  0  0  0  0
 28 29  1  0  0  0  0
 30 22  1  0  0  0  0
 31 32  1  0  0  0  0
M  END
>  <MODEL>
5

>  <REMARK>
 VINA RESULT:      -7.1      3.316      7.650
  Name = 
  2 active torsions:
  status: ('A' for Active; 'I' for Inactive)
    1  A    between atoms: N_13  and  C_29
    2  A    between atoms: C_16  and  C_27
                            x       y       z     vdW  Elec       q    Type
                         _______ _______ _______ _____ _____    ______ ____

>  <TORSDO>
F 2

$$$$
=
 OpenBabel11052414333D

 32 37  0  0  1  0  0  0  0  0999 V2000
  183.7970  178.7580  142.0650 C   0  0  2  0  0  3  0  0  0  0  0  0
  186.2780  178.9580  141.9360 C   0  0  1  0  0  3  0  0  0  0  0  0
  182.5130  178.8890  142.8410 C   0  0  0  0  0  2  0  0  0  0  0  0
  184.9620  179.1330  142.6410 C   0  0  2  0  0  3  0  0  0  0  0  0
  187.0000  177.7550  142.5600 C   0  0  1  0  0  3  0  0  0  0  0  0
  188.7190  178.1620  137.7370 C   0  0  0  0  0  3  0  0  0  0  0  0
  186.1010  178.7810  140.4160 C   0  0  2  0  0  3  0  0  0  0  0  0
  189.6040  177.3720  139.8480 C   0  0  0  0  0  3  0  0  0  0  0  0
  188.4200  177.7480  140.4890 C   0  0  0  0  0  0  0  0  0  0  0  0
  185.0740  179.3540  144.1340 C   0  0  2  0  0  3  0  0  0  0  0  0
  188.2860  177.5570  141.9000 N   0  0  0  0  0  2  0  0  0  0  0  0
  185.8260  178.1770  144.7660 C   0  0  0  0  0  2  0  0  0  0  0  0
  183.7830  179.5870  144.7960 N   0  0  0  0  0  2  0  0  0  0  0  0
  185.0440  177.8130  140.1460 N   0  0  0  0  0  2  0  0  0  0  0  0
  183.7650  178.3760  140.5940 C   0  0  1  0  0  3  0  0  0  0  0  0
  187.3820  178.3540  139.7500 C   0  0  0  0  0  0  0  0  0  0  0  0
  187.1820  177.9550  144.0740 C   0  0  1  0  0  3  0  0  0  0  0  0
  182.7740  178.6420  144.3190 C   0  0  0  0  0  2  0  0  0  0  0  0
  189.7530  177.5750  138.4740 C   0  0  0  0  0  3  0  0  0  0  0  0
  187.5380  178.5500  138.3730 C   0  0  0  0  0  3  0  0  0  0  0  0
  181.2110  176.7890  138.1550 C   0  0  1  0  0  3  0  0  0  0  0  0
  178.9310  174.8600  140.8590 Cl  0  0  0  0  0  0  0  0  0  0  0  0
  181.2690  176.3940  136.6890 C   0  0  0  0  0  1  0  0  0  0  0  0
  180.1560  177.3540  140.7620 C   0  0  0  0  0  3  0  0  0  0  0  0
  182.6090  177.4300  140.2440 C   0  0  1  0  0  3  0  0  0  0  0  0
  180.4510  175.8040  138.9190 N   0  0  0  0  0  0  0  0  0  0  0  0
  181.3220  178.0040  140.7770 C   0  0  0  0  0  3  0  0  0  0  0  0
  182.6090  177.0210  138.7500 C   0  0  1  0  0  3  0  0  0  0  0  0
  183.5050  175.8050  138.5550 C   0  0  0  0  0  1  0  0  0  0  0  0
  179.9590  176.0520  140.0960 C   0  0  0  0  0  0  0  0  0  0  0  0
  187.8310  176.7900  144.6540 N   0  0  0  0  0  2  0  0  0  0  0  0
  188.7550  177.2740  145.6640 C   0  0  0  0  0  1  0  0  0  0  0  0
  1  4  1  0  0  0  0
  1  3  1  6  0  0  0
  2  5  1  0  0  0  0
  2  4  1  0  0  0  0
  3 18  1  0  0  0  0
  4 10  1  0  0  0  0
  5 17  1  0  0  0  0
  6 20  2  0  0  0  0
  6 19  1  0  0  0  0
  7  2  1  0  0  0  0
  8  9  1  0  0  0  0
  9 11  1  0  0  0  0
 10 12  1  0  0  0  0
 10 13  1  0  0  0  0
 11  5  1  0  0  0  0
 14  7  1  0  0  0  0
 14 15  1  0  0  0  0
 15  1  1  0  0  0  0
 16  7  1  0  0  0  0
 16  9  2  0  0  0  0
 17 31  1  0  0  0  0
 17 12  1  0  0  0  0
 18 13  1  0  0  0  0
 19  8  2  0  0  0  0
 20 16  1  0  0  0  0
 21 28  1  0  0  0  0
 21 26  1  0  0  0  0
 23 21  1  0  0  0  0
 24 27  2  0  0  0  0
 25 15  1  0  0  0  0
 25 27  1  0  0  0  0
 26 30  2  0  0  0  0
 28 25  1  0  0  0  0
 29 28  1  0  0  0  0
 30 24  1  0  0  0  0
 30 22  1  0  0  0  0
 31 32  1  0  0  0  0
M  END
>  <MODEL>
6

>  <REMARK>
 VINA RESULT:      -7.1      4.288      8.468
  Name = 
  2 active torsions:
  status: ('A' for Active; 'I' for Inactive)
    1  A    between atoms: N_13  and  C_29
    2  A    between atoms: C_16  and  C_27
                            x       y       z     vdW  Elec       q    Type
                         _______ _______ _______ _____ _____    ______ ____

>  <TORSDO>
F 2

$$$$
=
 OpenBabel11052414333D

 32 37  0  0  1  0  0  0  0  0999 V2000
  180.5770  177.0980  138.2670 C   0  0  2  0  0  3  0  0  0  0  0  0
  179.5800  179.3790  138.4100 C   0  0  1  0  0  3  0  0  0  0  0  0
  180.6530  175.6720  138.7430 C   0  0  0  0  0  2  0  0  0  0  0  0
  179.6530  177.9290  138.8020 C   0  0  2  0  0  3  0  0  0  0  0  0
  180.1810  180.2130  139.5510 C   0  0  1  0  0  3  0  0  0  0  0  0
  180.8070  182.9400  135.2420 C   0  0  0  0  0  3  0  0  0  0  0  0
  180.2950  179.6540  137.0750 C   0  0  2  0  0  3  0  0  0  0  0  0
  180.5010  183.4310  137.5940 C   0  0  0  0  0  3  0  0  0  0  0  0
  180.3720  182.0660  137.8660 C   0  0  0  0  0  0  0  0  0  0  0  0
  178.9310  177.5880  140.0880 C   0  0  2  0  0  3  0  0  0  0  0  0
  180.1240  181.6300  139.2060 N   0  0  0  0  0  2  0  0  0  0  0  0
  179.4960  178.4420  141.2280 C   0  0  0  0  0  2  0  0  0  0  0  0
  178.9580  176.1570  140.4200 N   0  0  0  0  0  2  0  0  0  0  0  0
  181.6020  179.0050  137.0650 N   0  0  0  0  0  2  0  0  0  0  0  0
  181.4060  177.5510  137.0750 C   0  0  1  0  0  3  0  0  0  0  0  0
  180.4430  181.1290  136.8130 C   0  0  0  0  0  0  0  0  0  0  0  0
  179.4460  179.9380  140.8730 C   0  0  1  0  0  3  0  0  0  0  0  0
  180.2960  175.6010  140.2210 C   0  0  0  0  0  2  0  0  0  0  0  0
  180.7210  183.8680  136.2850 C   0  0  0  0  0  3  0  0  0  0  0  0
  180.6680  181.5750  135.5060 C   0  0  0  0  0  3  0  0  0  0  0  0
  185.2720  177.4430  136.9250 C   0  0  1  0  0  3  0  0  0  0  0  0
  185.7170  173.5690  135.9150 Cl  0  0  0  0  0  0  0  0  0  0  0  0
  186.3700  178.2550  137.5920 C   0  0  0  0  0  1  0  0  0  0  0  0
  183.9730  175.5960  135.1550 C   0  0  0  0  0  3  0  0  0  0  0  0
  182.7530  176.8260  136.9700 C   0  0  1  0  0  3  0  0  0  0  0  0
  185.6550  176.0360  136.8490 N   0  0  0  0  0  0  0  0  0  0  0  0
  182.9640  176.3780  135.5470 C   0  0  0  0  0  3  0  0  0  0  0  0
  183.9110  177.6300  137.6130 C   0  0  1  0  0  3  0  0  0  0  0  0
  183.9900  177.3090  139.0990 C   0  0  0  0  0  1  0  0  0  0  0  0
  185.0810  175.1930  136.0430 C   0  0  0  0  0  0  0  0  0  0  0  0
  180.0530  180.7060  141.9480 N   0  0  0  0  0  2  0  0  0  0  0  0
  179.6460  180.0890  143.1980 C   0  0  0  0  0  1  0  0  0  0  0  0
  1  3  1  6  0  0  0
  1  4  1  0  0  0  0
  2  4  1  0  0  0  0
  2  5  1  0  0  0  0
  3 18  1  0  0  0  0
  4 10  1  0  0  0  0
  5 17  1  0  0  0  0
  6 20  2  0  0  0  0
  6 19  1  0  0  0  0
  7  2  1  0  0  0  0
  8  9  1  0  0  0  0
  9 11  1  0  0  0  0
 10 13  1  0  0  0  0
 10 12  1  0  0  0  0
 11  5  1  0  0  0  0
 14  7  1  0  0  0  0
 14 15  1  0  0  0  0
 15  1  1  0  0  0  0
 16  7  1  0  0  0  0
 16  9  2  0  0  0  0
 17 12  1  0  0  0  0
 17 31  1  0  0  0  0
 18 13  1  0  0  0  0
 19  8  2  0  0  0  0
 20 16  1  0  0  0  0
 21 23  1  0  0  0  0
 21 28  1  0  0  0  0
 22 30  1  0  0  0  0
 24 27  2  0  0  0  0
 24 30  1  0  0  0  0
 25 15  1  0  0  0  0
 25 28  1  0  0  0  0
 26 21  1  0  0  0  0
 27 25  1  0  0  0  0
 28 29  1  0  0  0  0
 30 26  2  0  0  0  0
 31 32  1  0  0  0  0
M  END
>  <MODEL>
7

>  <REMARK>
 VINA RESULT:      -6.8      6.124     10.700
  Name = 
  2 active torsions:
  status: ('A' for Active; 'I' for Inactive)
    1  A    between atoms: N_13  and  C_29
    2  A    between atoms: C_16  and  C_27
                            x       y       z     vdW  Elec       q    Type
                         _______ _______ _______ _____ _____    ______ ____

>  <TORSDO>
F 2

$$$$
=
 OpenBabel11052414333D

 32 37  0  0  1  0  0  0  0  0999 V2000
  189.4280  177.8520  139.9400 C   0  0  2  0  0  3  0  0  0  0  0  0
  187.7280  177.7770  138.1180 C   0  0  1  0  0  3  0  0  0  0  0  0
  190.8340  177.6220  140.4270 C   0  0  0  0  0  2  0  0  0  0  0  0
  189.1300  177.6280  138.6400 C   0  0  2  0  0  3  0  0  0  0  0  0
  187.1390  176.3730  137.9200 C   0  0  1  0  0  3  0  0  0  0  0  0
  183.1730  179.5280  138.7590 C   0  0  0  0  0  3  0  0  0  0  0  0
  186.8500  178.6280  139.0550 C   0  0  2  0  0  3  0  0  0  0  0  0
  183.5450  177.4750  137.5290 C   0  0  0  0  0  3  0  0  0  0  0  0
  184.8970  177.5030  137.8840 C   0  0  0  0  0  0  0  0  0  0  0  0
  190.0540  176.8350  137.7400 C   0  0  2  0  0  3  0  0  0  0  0  0
  185.7770  176.4790  137.4100 N   0  0  0  0  0  2  0  0  0  0  0  0
  189.4600  175.4430  137.5030 C   0  0  0  0  0  2  0  0  0  0  0  0
  191.4360  176.7550  138.2350 N   0  0  0  0  0  2  0  0  0  0  0  0
  187.0260  178.1930  140.4360 N   0  0  0  0  0  2  0  0  0  0  0  0
  188.3990  178.4990  140.8550 C   0  0  1  0  0  3  0  0  0  0  0  0
  185.3970  178.5640  138.6690 C   0  0  0  0  0  0  0  0  0  0  0  0
  188.0200  175.5430  136.9710 C   0  0  1  0  0  3  0  0  0  0  0  0
  191.4610  176.4620  139.6670 C   0  0  0  0  0  2  0  0  0  0  0  0
  182.6840  178.4830  137.9690 C   0  0  0  0  0  3  0  0  0  0  0  0
  184.5250  179.5680  139.1080 C   0  0  0  0  0  3  0  0  0  0  0  0
  190.2160  176.7020  143.7630 C   0  0  1  0  0  3  0  0  0  0  0  0
  187.5600  177.4800  146.6900 Cl  0  0  0  0  0  0  0  0  0  0  0  0
  191.6700  176.3560  144.0360 C   0  0  0  0  0  1  0  0  0  0  0  0
  187.3580  176.7570  144.0140 C   0  0  0  0  0  3  0  0  0  0  0  0
  188.6020  178.1430  142.3330 C   0  0  1  0  0  3  0  0  0  0  0  0
  189.5490  177.1100  144.9960 N   0  0  0  0  0  0  0  0  0  0  0  0
  187.5440  177.1560  142.7530 C   0  0  0  0  0  3  0  0  0  0  0  0
  190.0660  177.7560  142.6550 C   0  0  1  0  0  3  0  0  0  0  0  0
  190.8670  179.0120  142.9710 C   0  0  0  0  0  1  0  0  0  0  0  0
  188.2560  177.1280  145.1240 C   0  0  0  0  0  0  0  0  0  0  0  0
  187.4690  174.2050  136.8260 N   0  0  0  0  0  2  0  0  0  0  0  0
  188.5860  173.2780  136.8430 C   0  0  0  0  0  1  0  0  0  0  0  0
  1  3  1  6  0  0  0
  1 15  1  0  0  0  0
  2  4  1  0  0  0  0
  2  7  1  0  0  0  0
  4  1  1  0  0  0  0
  5  2  1  0  0  0  0
  6 20  1  0  0  0  0
  7 14  1  0  0  0  0
  8  9  2  0  0  0  0
  8 19  1  0  0  0  0
  9 16  1  0  0  0  0
 10 13  1  0  0  0  0
 10  4  1  0  0  0  0
 11  9  1  0  0  0  0
 11  5  1  0  0  0  0
 12 10  1  0  0  0  0
 13 18  1  0  0  0  0
 14 15  1  0  0  0  0
 15 25  1  0  0  0  0
 16  7  1  0  0  0  0
 16 20  2  0  0  0  0
 17 12  1  0  0  0  0
 17  5  1  0  0  0  0
 18  3  1  0  0  0  0
 19  6  2  0  0  0  0
 21 23  1  0  0  0  0
 21 26  1  0  0  0  0
 24 30  1  0  0  0  0
 25 28  1  0  0  0  0
 25 27  1  0  0  0  0
 26 30  2  0  0  0  0
 27 24  2  0  0  0  0
 28 29  1  0  0  0  0
 28 21  1  0  0  0  0
 30 22  1  0  0  0  0
 31 32  1  0  0  0  0
 31 17  1  0  0  0  0
M  END
>  <MODEL>
8

>  <REMARK>
 VINA RESULT:      -6.8      1.677      2.713
  Name = 
  2 active torsions:
  status: ('A' for Active; 'I' for Inactive)
    1  A    between atoms: N_13  and  C_29
    2  A    between atoms: C_16  and  C_27
                            x       y       z     vdW  Elec       q    Type
                         _______ _______ _______ _____ _____    ______ ____

>  <TORSDO>
F 2

$$$$
=
 OpenBabel11052414333D

 32 37  0  0  1  0  0  0  0  0999 V2000
  182.7130  177.2300  138.2620 C   0  0  2  0  0  3  0  0  0  0  0  0
  184.7810  178.6010  138.5080 C   0  0  1  0  0  3  0  0  0  0  0  0
  181.2880  176.9320  138.6460 C   0  0  0  0  0  2  0  0  0  0  0  0
  183.3390  178.2990  138.8060 C   0  0  2  0  0  3  0  0  0  0  0  0
  185.6180  178.1900  139.7280 C   0  0  1  0  0  3  0  0  0  0  0  0
  188.7180  177.8750  135.6450 C   0  0  0  0  0  3  0  0  0  0  0  0
  185.2680  177.8940  137.2290 C   0  0  2  0  0  3  0  0  0  0  0  0
  188.9790  178.3450  138.0060 C   0  0  0  0  0  3  0  0  0  0  0  0
  187.5950  178.2520  138.1810 C   0  0  0  0  0  0  0  0  0  0  0  0
  182.7900  179.0010  140.0300 C   0  0  2  0  0  3  0  0  0  0  0  0
  187.0270  178.4730  139.4750 N   0  0  0  0  0  2  0  0  0  0  0  0
  183.6390  178.6290  141.2500 C   0  0  0  0  0  2  0  0  0  0  0  0
  181.3620  178.7450  140.2680 N   0  0  0  0  0  2  0  0  0  0  0  0
  184.8460  176.4970  137.2390 N   0  0  0  0  0  2  0  0  0  0  0  0
  183.3830  176.4460  137.1440 C   0  0  1  0  0  3  0  0  0  0  0  0
  186.7620  177.9860  137.0730 C   0  0  0  0  0  0  0  0  0  0  0  0
  185.1280  178.9170  140.9920 C   0  0  1  0  0  3  0  0  0  0  0  0
  181.0510  177.3270  140.0970 C   0  0  0  0  0  2  0  0  0  0  0  0
  189.5400  178.1540  136.7410 C   0  0  0  0  0  3  0  0  0  0  0  0
  187.3340  177.7920  135.8100 C   0  0  0  0  0  3  0  0  0  0  0  0
  183.5970  172.8010  135.8570 C   0  0  1  0  0  3  0  0  0  0  0  0
  180.0420  171.4830  137.2190 Cl  0  0  0  0  0  0  0  0  0  0  0  0
  184.7540  171.8720  135.5300 C   0  0  0  0  0  1  0  0  0  0  0  0
  180.9260  173.8350  136.0290 C   0  0  0  0  0  3  0  0  0  0  0  0
  182.9000  174.9930  137.0570 C   0  0  1  0  0  3  0  0  0  0  0  0
  182.5140  172.0610  136.4980 N   0  0  0  0  0  0  0  0  0  0  0  0
  181.6700  174.9320  136.1880 C   0  0  0  0  0  3  0  0  0  0  0  0
  184.0410  174.0090  136.6970 C   0  0  1  0  0  3  0  0  0  0  0  0
  184.7540  173.5700  137.9690 C   0  0  0  0  0  1  0  0  0  0  0  0
  181.2990  172.5140  136.5720 C   0  0  0  0  0  0  0  0  0  0  0  0
  185.9060  178.4870  142.1430 N   0  0  0  0  0  2  0  0  0  0  0  0
  184.9690  178.2530  143.2290 C   0  0  0  0  0  1  0  0  0  0  0  0
  1  3  1  6  0  0  0
  1  4  1  0  0  0  0
  2  4  1  0  0  0  0
  2  5  1  0  0  0  0
  3 18  1  0  0  0  0
  4 10  1  0  0  0  0
  5 17  1  0  0  0  0
  6 20  2  0  0  0  0
  6 19  1  0  0  0  0
  7 14  1  0  0  0  0
  7  2  1  0  0  0  0
  8  9  1  0  0  0  0
  9 11  1  0  0  0  0
 10 13  1  0  0  0  0
 10 12  1  0  0  0  0
 11  5  1  0  0  0  0
 15 14  1  0  0  0  0
 15  1  1  0  0  0  0
 16  7  1  0  0  0  0
 16  9  2  0  0  0  0
 17 12  1  0  0  0  0
 17 31  1  0  0  0  0
 18 13  1  0  0  0  0
 19  8  2  0  0  0  0
 20 16  1  0  0  0  0
 21 26  1  0  0  0  0
 21 28  1  0  0  0  0
 23 21  1  0  0  0  0
 24 27  2  0  0  0  0
 24 30  1  0  0  0  0
 25 15  1  0  0  0  0
 26 30  2  0  0  0  0
 27 25  1  0  0  0  0
 28 25  1  0  0  0  0
 28 29  1  0  0  0  0
 30 22  1  0  0  0  0
 31 32  1  0  0  0  0
M  END
>  <MODEL>
9

>  <REMARK>
 VINA RESULT:      -6.8      4.824      9.204
  Name = 
  2 active torsions:
  status: ('A' for Active; 'I' for Inactive)
    1  A    between atoms: N_13  and  C_29
    2  A    between atoms: C_16  and  C_27
                            x       y       z     vdW  Elec       q    Type
                         _______ _______ _______ _____ _____    ______ ____

>  <TORSDO>
F 2

$$$$
