=
 OpenBabel11052414263D

 34 38  0  0  1  0  0  0  0  0999 V2000
  181.3580  181.0140  137.9920 C   0  0  1  0  0  3  0  0  0  0  0  0
  179.6800  181.5750  139.9310 C   0  0  0  0  0  2  0  0  0  0  0  0
  183.4500  178.7000  145.5990 O   0  0  0  0  0  0  0  0  0  0  0  0
  180.7800  179.2370  139.8390 C   0  0  1  0  0  3  0  0  0  0  0  0
  183.1270  178.6780  140.7850 C   0  0  1  0  0  3  0  0  0  0  0  0
  181.1570  179.3580  142.3320 C   0  0  0  0  0  2  0  0  0  0  0  0
  180.4190  180.5330  139.1170 C   0  0  0  0  0  0  0  0  0  0  0  0
  181.9110  178.4280  143.2800 C   0  0  0  0  0  2  0  0  0  0  0  0
  184.0540  178.8680  141.9870 C   0  0  0  0  0  2  0  0  0  0  0  0
  181.1860  178.1460  138.8260 C   0  0  2  0  0  3  0  0  0  0  0  0
  181.6620  179.8620  137.0380 C   0  0  0  0  0  2  0  0  0  0  0  0
  178.9310  180.7200  138.9120 C   0  0  0  0  0  2  0  0  0  0  0  0
  182.8930  177.1850  140.5130 C   0  0  0  0  0  2  0  0  0  0  0  0
  181.6950  176.9150  139.5900 C   0  0  2  0  0  3  0  0  0  0  0  0
  183.3390  178.7390  143.2630 N   0  0  0  0  0  0  0  0  0  0  0  0
  181.8190  179.4840  140.9510 C   0  0  2  0  0  3  0  0  0  0  0  0
  182.2130  178.6630  137.8040 C   0  0  0  0  0  2  0  0  0  0  0  0
  184.0530  178.8590  144.5030 C   0  0  0  0  0  0  0  0  0  0  0  0
  183.3680  174.1220  137.6670 C   0  0  0  0  0  0  0  0  0  0  0  0
  182.2920  173.4630  137.1600 N   0  0  0  0  0  0  0  0  0  0  0  0
  181.8870  175.7080  138.7230 C   0  0  0  0  0  0  0  0  0  0  0  0
  181.0210  173.8790  137.4050 C   0  0  0  0  0  3  0  0  0  0  0  0
  183.1820  175.2570  138.4610 C   0  0  0  0  0  3  0  0  0  0  0  0
  180.7940  175.0090  138.1930 C   0  0  0  0  0  3  0  0  0  0  0  0
  184.6200  173.6770  137.4050 F   0  0  0  0  0  0  0  0  0  0  0  0
  180.8840  182.2210  137.2380 C   0  0  0  0  0  0  0  0  0  0  0  0
  181.3360  183.4910  137.5750 O   0  0  0  0  0  1  0  0  0  0  0  0
  180.0880  182.0780  136.2750 O   0  0  0  0  0  0  0  0  0  0  0  0
  185.5080  179.2040  144.5270 C   0  0  0  0  0  2  0  0  0  0  0  0
  186.3590  177.9490  144.6900 C   0  0  0  0  0  3  0  0  0  0  0  0
  187.0890  177.5780  143.3940 C   0  0  0  0  0  2  0  0  0  0  0  0
  187.9800  176.3550  143.5580 C   0  0  0  0  0  1  0  0  0  0  0  0
  187.3230  178.1240  145.8550 C   0  0  0  0  0  2  0  0  0  0  0  0
  186.5630  178.1950  147.1650 C   0  0  0  0  0  1  0  0  0  0  0  0
  1 26  1  6  0  0  0
  1  7  1  0  0  0  0
  4  7  1  6  0  0  0
  4 16  1  0  0  0  0
  5 13  1  1  0  0  0
  5 16  1  0  0  0  0
  5  9  1  0  0  0  0
  6  8  1  0  0  0  0
  7  2  1  0  0  0  0
  9 15  1  0  0  0  0
 10 17  1  6  0  0  0
 10 14  1  0  0  0  0
 10  4  1  0  0  0  0
 11 17  1  0  0  0  0
 11  1  1  0  0  0  0
 12  7  1  0  0  0  0
 12  2  1  0  0  0  0
 14 21  1  6  0  0  0
 14 13  1  0  0  0  0
 15  8  1  0  0  0  0
 15 18  1  0  0  0  0
 16  6  1  1  0  0  0
 18 29  1  0  0  0  0
 18  3  2  0  0  0  0
 19 23  1  0  0  0  0
 20 22  1  0  0  0  0
 20 19  2  0  0  0  0
 22 24  2  0  0  0  0
 23 21  2  0  0  0  0
 24 21  1  0  0  0  0
 25 19  1  0  0  0  0
 26 27  1  0  0  0  0
 28 26  2  0  0  0  0
 29 30  1  0  0  0  0
 30 33  1  0  0  0  0
 31 32  1  0  0  0  0
 31 30  1  0  0  0  0
 33 34  1  0  0  0  0
M  END
>  <MODEL>
1

>  <REMARK>
 VINA RESULT:      -6.8      0.000      0.000
  Name = 
  6 active torsions:
  status: ('A' for Active; 'I' for Inactive)
    1  A    between atoms: C_1  and  C_6
    2  A    between atoms: C_11  and  C_20
    3  A    between atoms: C_12  and  C_28
    4  A    between atoms: C_13  and  C_20
    5  A    between atoms: C_13  and  C_33
    6  A    between atoms: C_14  and  C_20
                            x       y       z     vdW  Elec       q    Type
                         _______ _______ _______ _____ _____    ______ ____

>  <TORSDO>
F 6

$$$$
=
 OpenBabel11052414263D

 34 38  0  0  1  0  0  0  0  0999 V2000
  180.5780  176.2930  136.8760 C   0  0  1  0  0  3  0  0  0  0  0  0
  183.0050  175.9610  135.9330 C   0  0  0  0  0  2  0  0  0  0  0  0
  186.8480  178.6690  141.6340 O   0  0  0  0  0  0  0  0  0  0  0  0
  182.3910  178.1810  137.1080 C   0  0  1  0  0  3  0  0  0  0  0  0
  182.4420  178.5510  139.6710 C   0  0  1  0  0  3  0  0  0  0  0  0
  184.6080  178.1130  138.3100 C   0  0  0  0  0  2  0  0  0  0  0  0
  181.9210  176.9000  136.4220 C   0  0  0  0  0  0  0  0  0  0  0  0
  185.1790  179.0020  139.4140 C   0  0  0  0  0  2  0  0  0  0  0  0
  183.2650  178.3170  140.9390 C   0  0  0  0  0  2  0  0  0  0  0  0
  181.2310  179.1930  137.2200 C   0  0  2  0  0  3  0  0  0  0  0  0
  179.5040  177.3780  136.9180 C   0  0  0  0  0  2  0  0  0  0  0  0
  182.2480  176.8450  134.9450 C   0  0  0  0  0  2  0  0  0  0  0  0
  182.1690  180.0490  139.4720 C   0  0  0  0  0  2  0  0  0  0  0  0
  181.6930  180.3970  138.0530 C   0  0  2  0  0  3  0  0  0  0  0  0
  184.6970  178.5580  140.7210 N   0  0  0  0  0  0  0  0  0  0  0  0
  183.0960  177.8770  138.4440 C   0  0  2  0  0  3  0  0  0  0  0  0
  179.9560  178.5460  137.7890 C   0  0  0  0  0  2  0  0  0  0  0  0
  185.6250  178.4160  141.8070 C   0  0  0  0  0  0  0  0  0  0  0  0
  179.8050  183.4500  136.8670 C   0  0  0  0  0  0  0  0  0  0  0  0
  178.9590  183.6650  137.9090 N   0  0  0  0  0  0  0  0  0  0  0  0
  180.7360  181.5490  138.0250 C   0  0  0  0  0  0  0  0  0  0  0  0
  178.9630  182.8620  139.0070 C   0  0  0  0  0  3  0  0  0  0  0  0
  180.7080  182.3840  136.9060 C   0  0  0  0  0  3  0  0  0  0  0  0
  179.8500  181.7870  139.0850 C   0  0  0  0  0  3  0  0  0  0  0  0
  179.7710  184.2680  135.7880 F   0  0  0  0  0  0  0  0  0  0  0  0
  180.1100  175.1100  136.0810 C   0  0  0  0  0  0  0  0  0  0  0  0
  180.5220  173.8250  136.4130 O   0  0  0  0  0  1  0  0  0  0  0  0
  179.3190  175.2830  135.1190 O   0  0  0  0  0  0  0  0  0  0  0  0
  185.1740  177.9360  143.1510 C   0  0  0  0  0  2  0  0  0  0  0  0
  185.1940  179.0740  144.1650 C   0  0  0  0  0  3  0  0  0  0  0  0
  183.8140  179.7200  144.3310 C   0  0  0  0  0  2  0  0  0  0  0  0
  182.6970  178.6900  144.4260 C   0  0  0  0  0  1  0  0  0  0  0  0
  185.7510  178.5770  145.4910 C   0  0  0  0  0  2  0  0  0  0  0  0
  186.8250  177.5320  145.2560 C   0  0  0  0  0  1  0  0  0  0  0  0
  1 26  1  6  0  0  0
  1 11  1  0  0  0  0
  2  7  1  0  0  0  0
  3 18  2  0  0  0  0
  4  7  1  1  0  0  0
  4 10  1  0  0  0  0
  4 16  1  0  0  0  0
  5 13  1  6  0  0  0
  5  9  1  0  0  0  0
  6  8  1  0  0  0  0
  7  1  1  0  0  0  0
  8 15  1  0  0  0  0
 10 17  1  1  0  0  0
 10 14  1  0  0  0  0
 11 17  1  0  0  0  0
 12  2  1  0  0  0  0
 12  7  1  0  0  0  0
 14 21  1  1  0  0  0
 14 13  1  0  0  0  0
 15  9  1  0  0  0  0
 15 18  1  0  0  0  0
 16  6  1  6  0  0  0
 16  5  1  0  0  0  0
 18 29  1  0  0  0  0
 19 23  2  0  0  0  0
 19 20  1  0  0  0  0
 20 22  2  0  0  0  0
 21 24  2  0  0  0  0
 22 24  1  0  0  0  0
 23 21  1  0  0  0  0
 25 19  1  0  0  0  0
 26 27  1  0  0  0  0
 28 26  2  0  0  0  0
 29 30  1  0  0  0  0
 30 31  1  0  0  0  0
 30 33  1  0  0  0  0
 31 32  1  0  0  0  0
 34 33  1  0  0  0  0
M  END
>  <MODEL>
2

>  <REMARK>
 VINA RESULT:      -6.4      3.607      5.847
  Name = 
  6 active torsions:
  status: ('A' for Active; 'I' for Inactive)
    1  A    between atoms: C_1  and  C_6
    2  A    between atoms: C_11  and  C_20
    3  A    between atoms: C_12  and  C_28
    4  A    between atoms: C_13  and  C_20
    5  A    between atoms: C_13  and  C_33
    6  A    between atoms: C_14  and  C_20
                            x       y       z     vdW  Elec       q    Type
                         _______ _______ _______ _____ _____    ______ ____

>  <TORSDO>
F 6

$$$$
=
 OpenBabel11052414263D

 34 38  0  0  1  0  0  0  0  0999 V2000
  180.9690  180.8360  137.1740 C   0  0  1  0  0  3  0  0  0  0  0  0
  180.1760  181.2640  139.6390 C   0  0  0  0  0  2  0  0  0  0  0  0
  185.8900  178.2600  143.2360 O   0  0  0  0  0  0  0  0  0  0  0  0
  181.1760  178.9640  139.0070 C   0  0  1  0  0  3  0  0  0  0  0  0
  183.7110  178.4340  138.9350 C   0  0  1  0  0  3  0  0  0  0  0  0
  182.4950  178.9900  141.1590 C   0  0  0  0  0  2  0  0  0  0  0  0
  180.5490  180.2790  138.5490 C   0  0  0  0  0  0  0  0  0  0  0  0
  183.5690  178.0430  141.6890 C   0  0  0  0  0  2  0  0  0  0  0  0
  185.0320  178.6000  139.6870 C   0  0  0  0  0  2  0  0  0  0  0  0
  181.1650  177.9300  137.8620 C   0  0  2  0  0  3  0  0  0  0  0  0
  180.8870  179.7340  136.1190 C   0  0  0  0  0  2  0  0  0  0  0  0
  179.0960  180.4320  138.9510 C   0  0  0  0  0  2  0  0  0  0  0  0
  183.4050  176.9480  138.7000 C   0  0  0  0  0  2  0  0  0  0  0  0
  181.9440  176.6830  138.3040 C   0  0  2  0  0  3  0  0  0  0  0  0
  184.8750  178.3960  141.1330 N   0  0  0  0  0  0  0  0  0  0  0  0
  182.5640  179.1950  139.6370 C   0  0  2  0  0  3  0  0  0  0  0  0
  181.7060  178.5200  136.5480 C   0  0  0  0  0  2  0  0  0  0  0  0
  186.0150  178.4830  142.0010 C   0  0  0  0  0  0  0  0  0  0  0  0
  182.8060  173.7870  136.0310 C   0  0  0  0  0  0  0  0  0  0  0  0
  181.5700  173.3460  135.6760 N   0  0  0  0  0  0  0  0  0  0  0  0
  181.7950  175.5210  137.3700 C   0  0  0  0  0  0  0  0  0  0  0  0
  180.4400  173.9480  136.1360 C   0  0  0  0  0  3  0  0  0  0  0  0
  182.9390  174.8830  136.8880 C   0  0  0  0  0  3  0  0  0  0  0  0
  180.5310  175.0450  136.9940 C   0  0  0  0  0  3  0  0  0  0  0  0
  183.9100  173.1620  135.5560 F   0  0  0  0  0  0  0  0  0  0  0  0
  180.2250  182.0590  136.7260 C   0  0  0  0  0  0  0  0  0  0  0  0
  180.6810  183.3290  137.0620 O   0  0  0  0  0  1  0  0  0  0  0  0
  179.1920  181.9340  136.0190 O   0  0  0  0  0  0  0  0  0  0  0  0
  187.3600  178.8700  141.4730 C   0  0  0  0  0  2  0  0  0  0  0  0
  188.3670  177.7450  141.6840 C   0  0  0  0  0  3  0  0  0  0  0  0
  189.1550  177.4320  140.4070 C   0  0  0  0  0  2  0  0  0  0  0  0
  188.7040  178.2760  139.2230 C   0  0  0  0  0  1  0  0  0  0  0  0
  189.2860  178.0830  142.8490 C   0  0  0  0  0  2  0  0  0  0  0  0
  189.2290  176.9920  143.9020 C   0  0  0  0  0  1  0  0  0  0  0  0
  1 26  1  6  0  0  0
  1  7  1  0  0  0  0
  4  7  1  6  0  0  0
  4 16  1  0  0  0  0
  5 13  1  1  0  0  0
  5 16  1  0  0  0  0
  5  9  1  0  0  0  0
  6  8  1  0  0  0  0
  7 12  1  0  0  0  0
  7  2  1  0  0  0  0
  9 15  1  0  0  0  0
 10 17  1  6  0  0  0
 10 14  1  0  0  0  0
 10  4  1  0  0  0  0
 11 17  1  0  0  0  0
 11  1  1  0  0  0  0
 12  2  1  0  0  0  0
 14 21  1  6  0  0  0
 14 13  1  0  0  0  0
 15  8  1  0  0  0  0
 15 18  1  0  0  0  0
 16  6  1  1  0  0  0
 18  3  2  0  0  0  0
 19 23  1  0  0  0  0
 20 19  2  0  0  0  0
 20 22  1  0  0  0  0
 22 24  2  0  0  0  0
 23 21  2  0  0  0  0
 24 21  1  0  0  0  0
 25 19  1  0  0  0  0
 26 27  1  0  0  0  0
 28 26  2  0  0  0  0
 29 30  1  0  0  0  0
 29 18  1  0  0  0  0
 30 33  1  0  0  0  0
 31 30  1  0  0  0  0
 32 31  1  0  0  0  0
 33 34  1  0  0  0  0
M  END
>  <MODEL>
3

>  <REMARK>
 VINA RESULT:      -5.8      1.845      2.283
  Name = 
  6 active torsions:
  status: ('A' for Active; 'I' for Inactive)
    1  A    between atoms: C_1  and  C_6
    2  A    between atoms: C_11  and  C_20
    3  A    between atoms: C_12  and  C_28
    4  A    between atoms: C_13  and  C_20
    5  A    between atoms: C_13  and  C_33
    6  A    between atoms: C_14  and  C_20
                            x       y       z     vdW  Elec       q    Type
                         _______ _______ _______ _____ _____    ______ ____

>  <TORSDO>
F 6

$$$$
=
 OpenBabel11052414263D

 34 38  0  0  1  0  0  0  0  0999 V2000
  180.9310  175.1430  137.6270 C   0  0  1  0  0  3  0  0  0  0  0  0
  183.3170  174.6620  136.6430 C   0  0  0  0  0  2  0  0  0  0  0  0
  187.2940  179.0930  141.0210 O   0  0  0  0  0  0  0  0  0  0  0  0
  182.6260  177.0980  137.1690 C   0  0  1  0  0  3  0  0  0  0  0  0
  182.8000  178.2030  139.5070 C   0  0  1  0  0  3  0  0  0  0  0  0
  184.9090  177.4870  138.1740 C   0  0  0  0  0  2  0  0  0  0  0  0
  182.2030  175.6520  136.9200 C   0  0  0  0  0  0  0  0  0  0  0  0
  185.4820  178.6850  138.9290 C   0  0  0  0  0  2  0  0  0  0  0  0
  183.7080  178.3880  140.7240 C   0  0  0  0  0  2  0  0  0  0  0  0
  181.4110  178.0440  137.0710 C   0  0  2  0  0  3  0  0  0  0  0  0
  179.7920  176.1420  137.4330 C   0  0  0  0  0  2  0  0  0  0  0  0
  182.4490  175.1830  135.5000 C   0  0  0  0  0  2  0  0  0  0  0  0
  182.4180  179.5630  138.9050 C   0  0  0  0  0  2  0  0  0  0  0  0
  181.8400  179.4590  137.4840 C   0  0  2  0  0  3  0  0  0  0  0  0
  185.1060  178.6200  140.3400 N   0  0  0  0  0  0  0  0  0  0  0  0
  183.4250  177.2300  138.4810 C   0  0  2  0  0  3  0  0  0  0  0  0
  180.2160  177.5330  137.8940 C   0  0  0  0  0  2  0  0  0  0  0  0
  186.1020  178.8450  141.3500 C   0  0  0  0  0  0  0  0  0  0  0  0
  179.6060  182.4820  137.8810 C   0  0  0  0  0  0  0  0  0  0  0  0
  178.9430  182.4850  136.6940 N   0  0  0  0  0  0  0  0  0  0  0  0
  180.8090  180.5060  137.1960 C   0  0  0  0  0  0  0  0  0  0  0  0
  179.1770  181.5390  135.7460 C   0  0  0  0  0  3  0  0  0  0  0  0
  180.5540  181.4920  138.1510 C   0  0  0  0  0  3  0  0  0  0  0  0
  180.1160  180.5320  135.9770 C   0  0  0  0  0  3  0  0  0  0  0  0
  179.3490  183.4420  138.8020 F   0  0  0  0  0  0  0  0  0  0  0  0
  180.4980  173.7590  137.2430 C   0  0  0  0  0  0  0  0  0  0  0  0
  179.5810  173.5620  136.2180 O   0  0  0  0  0  0  0  0  0  0  0  0
  180.9890  172.7670  137.8410 O   0  0  0  0  0  1  0  0  0  0  0  0
  185.7600  178.7590  142.8040 C   0  0  0  0  0  2  0  0  0  0  0  0
  186.4090  177.5350  143.4400 C   0  0  0  0  0  3  0  0  0  0  0  0
  187.9160  177.4750  143.1640 C   0  0  0  0  0  2  0  0  0  0  0  0
  188.6970  176.8770  144.3260 C   0  0  0  0  0  1  0  0  0  0  0  0
  186.1030  177.5000  144.9300 C   0  0  0  0  0  2  0  0  0  0  0  0
  185.3910  178.7710  145.3540 C   0  0  0  0  0  1  0  0  0  0  0  0
  1 26  1  6  0  0  0
  2  7  1  0  0  0  0
  3 18  2  0  0  0  0
  4  7  1  1  0  0  0
  4 16  1  0  0  0  0
  5 13  1  6  0  0  0
  5  9  1  0  0  0  0
  6  8  1  0  0  0  0
  7  1  1  0  0  0  0
  8 15  1  0  0  0  0
 10  4  1  0  0  0  0
 10 14  1  0  0  0  0
 10 17  1  1  0  0  0
 11  1  1  0  0  0  0
 11 17  1  0  0  0  0
 12  2  1  0  0  0  0
 12  7  1  0  0  0  0
 14 21  1  1  0  0  0
 14 13  1  0  0  0  0
 15  9  1  0  0  0  0
 15 18  1  0  0  0  0
 16  6  1  6  0  0  0
 16  5  1  0  0  0  0
 18 29  1  0  0  0  0
 19 23  1  0  0  0  0
 19 25  1  0  0  0  0
 20 19  2  0  0  0  0
 21 23  2  0  0  0  0
 22 24  2  0  0  0  0
 22 20  1  0  0  0  0
 24 21  1  0  0  0  0
 26 28  1  0  0  0  0
 27 26  2  0  0  0  0
 29 30  1  0  0  0  0
 30 33  1  0  0  0  0
 31 30  1  0  0  0  0
 31 32  1  0  0  0  0
 33 34  1  0  0  0  0
M  END
>  <MODEL>
4

>  <REMARK>
 VINA RESULT:      -5.6      3.776      5.828
  Name = 
  6 active torsions:
  status: ('A' for Active; 'I' for Inactive)
    1  A    between atoms: C_1  and  C_6
    2  A    between atoms: C_11  and  C_20
    3  A    between atoms: C_12  and  C_28
    4  A    between atoms: C_13  and  C_20
    5  A    between atoms: C_13  and  C_33
    6  A    between atoms: C_14  and  C_20
                            x       y       z     vdW  Elec       q    Type
                         _______ _______ _______ _____ _____    ______ ____

>  <TORSDO>
F 6

$$$$
=
 OpenBabel11052414263D

 34 38  0  0  1  0  0  0  0  0999 V2000
  186.3340  177.8420  137.1650 C   0  0  1  0  0  3  0  0  0  0  0  0
  184.3120  176.6230  136.0180 C   0  0  0  0  0  2  0  0  0  0  0  0
  178.9420  181.3930  137.7550 O   0  0  0  0  0  0  0  0  0  0  0  0
  184.0230  177.6030  138.3940 C   0  0  1  0  0  3  0  0  0  0  0  0
  183.4380  180.0750  138.9040 C   0  0  1  0  0  3  0  0  0  0  0  0
  181.7630  178.4930  137.7100 C   0  0  0  0  0  2  0  0  0  0  0  0
  184.9650  177.1420  137.2830 C   0  0  0  0  0  0  0  0  0  0  0  0
  180.7750  179.3970  138.4460 C   0  0  0  0  0  2  0  0  0  0  0  0
  182.5270  181.2370  138.5090 C   0  0  0  0  0  2  0  0  0  0  0  0
  184.7870  177.7530  139.7260 C   0  0  2  0  0  3  0  0  0  0  0  0
  187.0070  177.9020  138.5350 C   0  0  0  0  0  2  0  0  0  0  0  0
  184.9180  175.6500  137.0260 C   0  0  0  0  0  2  0  0  0  0  0  0
  183.2750  179.7410  140.3930 C   0  0  0  0  0  2  0  0  0  0  0  0
  183.8520  178.3680  140.7760 C   0  0  2  0  0  3  0  0  0  0  0  0
  181.1460  180.8000  138.2680 N   0  0  0  0  0  0  0  0  0  0  0  0
  183.2320  178.8570  137.9740 C   0  0  2  0  0  3  0  0  0  0  0  0
  186.0860  178.5610  139.5560 C   0  0  0  0  0  2  0  0  0  0  0  0
  180.1380  181.7590  137.9150 C   0  0  0  0  0  0  0  0  0  0  0  0
  184.0920  178.6480  144.5380 C   0  0  0  0  0  0  0  0  0  0  0  0
  185.3750  178.2550  144.7560 N   0  0  0  0  0  0  0  0  0  0  0  0
  184.4070  178.3360  142.1670 C   0  0  0  0  0  0  0  0  0  0  0  0
  186.1940  177.8970  143.7310 C   0  0  0  0  0  3  0  0  0  0  0  0
  183.5850  178.6930  143.2370 C   0  0  0  0  0  3  0  0  0  0  0  0
  185.7250  177.9290  142.4170 C   0  0  0  0  0  3  0  0  0  0  0  0
  183.3030  178.9950  145.5830 F   0  0  0  0  0  0  0  0  0  0  0  0
  187.2620  177.2610  136.1400 C   0  0  0  0  0  0  0  0  0  0  0  0
  187.2420  177.7180  134.8270 O   0  0  0  0  0  0  0  0  0  0  0  0
  188.0810  176.3690  136.4780 O   0  0  0  0  0  1  0  0  0  0  0  0
  180.4840  183.1990  137.6970 C   0  0  0  0  0  2  0  0  0  0  0  0
  179.2220  184.0410  137.5480 C   0  0  0  0  0  3  0  0  0  0  0  0
  178.9370  184.8750  138.8020 C   0  0  0  0  0  2  0  0  0  0  0  0
  179.5780  186.2550  138.7410 C   0  0  0  0  0  1  0  0  0  0  0  0
  179.3210  184.9070  136.3000 C   0  0  0  0  0  2  0  0  0  0  0  0
  180.6200  184.6330  135.5670 C   0  0  0  0  0  1  0  0  0  0  0  0
  1 26  1  6  0  0  0
  1  7  1  0  0  0  0
  1 11  1  0  0  0  0
  2 12  1  0  0  0  0
  2  7  1  0  0  0  0
  3 18  2  0  0  0  0
  4  7  1  6  0  0  0
  4 10  1  0  0  0  0
  5  9  1  6  0  0  0
  5 13  1  0  0  0  0
  6  8  1  0  0  0  0
 10 17  1  6  0  0  0
 10 14  1  0  0  0  0
 11 17  1  0  0  0  0
 12  7  1  0  0  0  0
 13 14  1  0  0  0  0
 14 21  1  1  0  0  0
 15  8  1  0  0  0  0
 15  9  1  0  0  0  0
 16  6  1  1  0  0  0
 16  4  1  0  0  0  0
 16  5  1  0  0  0  0
 18 15  1  0  0  0  0
 19 20  1  0  0  0  0
 19 25  1  0  0  0  0
 21 24  2  0  0  0  0
 21 23  1  0  0  0  0
 22 20  2  0  0  0  0
 23 19  2  0  0  0  0
 24 22  1  0  0  0  0
 26 28  1  0  0  0  0
 27 26  2  0  0  0  0
 29 18  1  0  0  0  0
 30 29  1  0  0  0  0
 30 31  1  0  0  0  0
 32 31  1  0  0  0  0
 33 30  1  0  0  0  0
 34 33  1  0  0  0  0
M  END
>  <MODEL>
5

>  <REMARK>
 VINA RESULT:      -5.5      3.818      8.097
  Name = 
  6 active torsions:
  status: ('A' for Active; 'I' for Inactive)
    1  A    between atoms: C_1  and  C_6
    2  A    between atoms: C_11  and  C_20
    3  A    between atoms: C_12  and  C_28
    4  A    between atoms: C_13  and  C_20
    5  A    between atoms: C_13  and  C_33
    6  A    between atoms: C_14  and  C_20
                            x       y       z     vdW  Elec       q    Type
                         _______ _______ _______ _____ _____    ______ ____

>  <TORSDO>
F 6

$$$$
=
 OpenBabel11052414263D

 34 38  0  0  1  0  0  0  0  0999 V2000
  180.9390  180.2940  136.4070 C   0  0  1  0  0  3  0  0  0  0  0  0
  181.6220  181.7420  138.4870 C   0  0  0  0  0  2  0  0  0  0  0  0
  188.0680  178.5050  140.0890 O   0  0  0  0  0  0  0  0  0  0  0  0
  181.9160  179.1750  138.5740 C   0  0  1  0  0  3  0  0  0  0  0  0
  183.9630  177.8960  137.6300 C   0  0  1  0  0  3  0  0  0  0  0  0
  184.1730  179.5090  139.6530 C   0  0  0  0  0  2  0  0  0  0  0  0
  181.2650  180.3870  137.9110 C   0  0  0  0  0  0  0  0  0  0  0  0
  185.2720  178.5100  140.0110 C   0  0  0  0  0  2  0  0  0  0  0  0
  185.4900  177.8880  137.5560 C   0  0  0  0  0  2  0  0  0  0  0  0
  181.2020  177.8750  138.1480 C   0  0  2  0  0  3  0  0  0  0  0  0
  180.2070  178.9860  136.1120 C   0  0  0  0  0  2  0  0  0  0  0  0
  180.2710  181.1050  138.7990 C   0  0  0  0  0  2  0  0  0  0  0  0
  183.4430  176.5890  138.2430 C   0  0  0  0  0  2  0  0  0  0  0  0
  181.9780  176.6710  138.7010 C   0  0  2  0  0  3  0  0  0  0  0  0
  186.1070  178.2370  138.8420 N   0  0  0  0  0  0  0  0  0  0  0  0
  183.4400  179.1620  138.3470 C   0  0  2  0  0  3  0  0  0  0  0  0
  181.0130  177.7960  136.6230 C   0  0  0  0  0  2  0  0  0  0  0  0
  187.5370  178.2530  138.9740 C   0  0  0  0  0  0  0  0  0  0  0  0
  181.0240  173.2200  137.4860 C   0  0  0  0  0  0  0  0  0  0  0  0
  179.9590  172.9390  138.2820 N   0  0  0  0  0  0  0  0  0  0  0  0
  181.2480  175.3700  138.5580 C   0  0  0  0  0  0  0  0  0  0  0  0
  179.5130  173.8240  139.2140 C   0  0  0  0  0  3  0  0  0  0  0  0
  181.6900  174.4420  137.6120 C   0  0  0  0  0  3  0  0  0  0  0  0
  180.1510  175.0560  139.3710 C   0  0  0  0  0  3  0  0  0  0  0  0
  181.4430  172.3140  136.5700 F   0  0  0  0  0  0  0  0  0  0  0  0
  180.1870  181.4640  135.8440 C   0  0  0  0  0  0  0  0  0  0  0  0
  180.8660  182.5730  135.3510 O   0  0  0  0  0  0  0  0  0  0  0  0
  178.9310  181.4300  135.7960 O   0  0  0  0  0  1  0  0  0  0  0  0
  188.4240  178.0060  137.7950 C   0  0  0  0  0  2  0  0  0  0  0  0
  189.1150  176.6520  137.9120 C   0  0  0  0  0  3  0  0  0  0  0  0
  188.3290  175.5430  137.2030 C   0  0  0  0  0  2  0  0  0  0  0  0
  188.7870  175.3320  135.7660 C   0  0  0  0  0  1  0  0  0  0  0  0
  190.5440  176.7530  137.3980 C   0  0  0  0  0  2  0  0  0  0  0  0
  191.4970  176.0470  138.3440 C   0  0  0  0  0  1  0  0  0  0  0  0
  1 26  1  1  0  0  0
  1  7  1  0  0  0  0
  2 12  1  0  0  0  0
  4  7  1  6  0  0  0
  5  9  1  1  0  0  0
  5 13  1  0  0  0  0
  5 16  1  0  0  0  0
  6  8  1  0  0  0  0
  7  2  1  0  0  0  0
  7 12  1  0  0  0  0
  9 15  1  0  0  0  0
 10 17  1  6  0  0  0
 10  4  1  0  0  0  0
 10 14  1  0  0  0  0
 11  1  1  0  0  0  0
 11 17  1  0  0  0  0
 13 14  1  0  0  0  0
 14 21  1  6  0  0  0
 15 18  1  0  0  0  0
 15  8  1  0  0  0  0
 16  4  1  0  0  0  0
 16  6  1  1  0  0  0
 18  3  2  0  0  0  0
 19 23  2  0  0  0  0
 19 20  1  0  0  0  0
 20 22  2  0  0  0  0
 21 24  2  0  0  0  0
 22 24  1  0  0  0  0
 23 21  1  0  0  0  0
 25 19  1  0  0  0  0
 27 26  2  0  0  0  0
 28 26  1  0  0  0  0
 29 30  1  0  0  0  0
 29 18  1  0  0  0  0
 31 30  1  0  0  0  0
 32 31  1  0  0  0  0
 33 30  1  0  0  0  0
 33 34  1  0  0  0  0
M  END
>  <MODEL>
6

>  <REMARK>
 VINA RESULT:      -5.4      3.367      4.507
  Name = 
  6 active torsions:
  status: ('A' for Active; 'I' for Inactive)
    1  A    between atoms: C_1  and  C_6
    2  A    between atoms: C_11  and  C_20
    3  A    between atoms: C_12  and  C_28
    4  A    between atoms: C_13  and  C_20
    5  A    between atoms: C_13  and  C_33
    6  A    between atoms: C_14  and  C_20
                            x       y       z     vdW  Elec       q    Type
                         _______ _______ _______ _____ _____    ______ ____

>  <TORSDO>
F 6

$$$$
=
 OpenBabel11052414263D

 34 38  0  0  1  0  0  0  0  0999 V2000
  187.0050  175.3580  136.8660 C   0  0  1  0  0  3  0  0  0  0  0  0
  186.7180  177.8440  136.0730 C   0  0  0  0  0  2  0  0  0  0  0  0
  181.1740  179.8530  140.5260 O   0  0  0  0  0  0  0  0  0  0  0  0
  184.6200  176.3790  136.4460 C   0  0  1  0  0  3  0  0  0  0  0  0
  183.4750  176.0070  138.7400 C   0  0  1  0  0  3  0  0  0  0  0  0
  183.5060  178.3330  137.5900 C   0  0  0  0  0  2  0  0  0  0  0  0
  186.1300  176.4560  136.2290 C   0  0  0  0  0  0  0  0  0  0  0  0
  182.1750  178.4370  138.3310 C   0  0  0  0  0  2  0  0  0  0  0  0
  182.9890  176.7100  140.0090 C   0  0  0  0  0  2  0  0  0  0  0  0
  184.1130  174.9390  136.2220 C   0  0  2  0  0  3  0  0  0  0  0  0
  186.4240  173.9810  136.5510 C   0  0  0  0  0  2  0  0  0  0  0  0
  186.5210  176.9490  134.8510 C   0  0  0  0  0  2  0  0  0  0  0  0
  182.3190  175.2640  138.0560 C   0  0  0  0  0  2  0  0  0  0  0  0
  182.6270  174.8640  136.6040 C   0  0  2  0  0  3  0  0  0  0  0  0
  182.3300  177.9880  139.7140 N   0  0  0  0  0  0  0  0  0  0  0  0
  184.2170  176.9870  137.8030 C   0  0  2  0  0  3  0  0  0  0  0  0
  184.9620  173.9050  136.9810 C   0  0  0  0  0  2  0  0  0  0  0  0
  181.7820  178.7780  140.7810 C   0  0  0  0  0  0  0  0  0  0  0  0
  180.4620  171.7670  136.7130 C   0  0  0  0  0  0  0  0  0  0  0  0
  180.6960  171.2320  135.4850 N   0  0  0  0  0  0  0  0  0  0  0  0
  181.9680  173.5810  136.2000 C   0  0  0  0  0  0  0  0  0  0  0  0
  181.5390  171.8250  134.5980 C   0  0  0  0  0  3  0  0  0  0  0  0
  181.0940  172.9550  137.0910 C   0  0  0  0  0  3  0  0  0  0  0  0
  182.1900  173.0130  134.9380 C   0  0  0  0  0  3  0  0  0  0  0  0
  179.6140  171.1500  137.5700 F   0  0  0  0  0  0  0  0  0  0  0  0
  188.4610  175.4160  136.5120 C   0  0  0  0  0  0  0  0  0  0  0  0
  189.3910  175.9210  137.4150 O   0  0  0  0  0  1  0  0  0  0  0  0
  188.8470  174.9820  135.3960 O   0  0  0  0  0  0  0  0  0  0  0  0
  181.9460  178.3670  142.2100 C   0  0  0  0  0  2  0  0  0  0  0  0
  183.1740  179.0290  142.8250 C   0  0  0  0  0  3  0  0  0  0  0  0
  183.0120  179.2510  144.3330 C   0  0  0  0  0  2  0  0  0  0  0  0
  184.2400  178.8160  145.1210 C   0  0  0  0  0  1  0  0  0  0  0  0
  184.4190  178.2140  142.5020 C   0  0  0  0  0  2  0  0  0  0  0  0
  185.3440  179.0010  141.5940 C   0  0  0  0  0  1  0  0  0  0  0  0
  1 26  1  6  0  0  0
  2  7  1  0  0  0  0
  3 18  2  0  0  0  0
  4  7  1  1  0  0  0
  4 16  1  0  0  0  0
  5 13  1  6  0  0  0
  5  9  1  0  0  0  0
  6  8  1  0  0  0  0
  7  1  1  0  0  0  0
  8 15  1  0  0  0  0
 10  4  1  0  0  0  0
 10 14  1  0  0  0  0
 10 17  1  1  0  0  0
 11  1  1  0  0  0  0
 11 17  1  0  0  0  0
 12  2  1  0  0  0  0
 12  7  1  0  0  0  0
 14 21  1  1  0  0  0
 14 13  1  0  0  0  0
 15  9  1  0  0  0  0
 15 18  1  0  0  0  0
 16  6  1  6  0  0  0
 16  5  1  0  0  0  0
 18 29  1  0  0  0  0
 19 23  1  0  0  0  0
 19 25  1  0  0  0  0
 20 19  2  0  0  0  0
 21 23  2  0  0  0  0
 22 24  2  0  0  0  0
 22 20  1  0  0  0  0
 24 21  1  0  0  0  0
 26 27  1  0  0  0  0
 28 26  2  0  0  0  0
 29 30  1  0  0  0  0
 30 31  1  0  0  0  0
 31 32  1  0  0  0  0
 33 30  1  0  0  0  0
 34 33  1  0  0  0  0
M  END
>  <MODEL>
7

>  <REMARK>
 VINA RESULT:      -5.3      3.824      5.979
  Name = 
  6 active torsions:
  status: ('A' for Active; 'I' for Inactive)
    1  A    between atoms: C_1  and  C_6
    2  A    between atoms: C_11  and  C_20
    3  A    between atoms: C_12  and  C_28
    4  A    between atoms: C_13  and  C_20
    5  A    between atoms: C_13  and  C_33
    6  A    between atoms: C_14  and  C_20
                            x       y       z     vdW  Elec       q    Type
                         _______ _______ _______ _____ _____    ______ ____

>  <TORSDO>
F 6

$$$$
=
 OpenBabel11052414263D

 34 38  0  0  1  0  0  0  0  0999 V2000
  186.7450  178.1280  137.5190 C   0  0  1  0  0  3  0  0  0  0  0  0
  184.9540  176.6820  136.2570 C   0  0  0  0  0  2  0  0  0  0  0  0
  178.9310  180.6680  137.8140 O   0  0  0  0  0  0  0  0  0  0  0  0
  184.4330  177.5610  138.6320 C   0  0  1  0  0  3  0  0  0  0  0  0
  183.5050  179.9240  139.1540 C   0  0  1  0  0  3  0  0  0  0  0  0
  182.1080  178.1630  137.8560 C   0  0  0  0  0  2  0  0  0  0  0  0
  185.4760  177.2530  137.5600 C   0  0  0  0  0  0  0  0  0  0  0  0
  180.9780  178.9140  138.5590 C   0  0  0  0  0  2  0  0  0  0  0  0
  182.4670  180.9660  138.7350 C   0  0  0  0  0  2  0  0  0  0  0  0
  185.1100  177.7800  140.0010 C   0  0  2  0  0  3  0  0  0  0  0  0
  187.3420  178.2450  138.9200 C   0  0  0  0  0  2  0  0  0  0  0  0
  185.6380  175.7740  137.2770 C   0  0  0  0  0  2  0  0  0  0  0  0
  183.3210  179.5380  140.6280 C   0  0  0  0  0  2  0  0  0  0  0  0
  184.0550  178.2450  141.0160 C   0  0  2  0  0  3  0  0  0  0  0  0
  181.1680  180.3570  138.4220 N   0  0  0  0  0  0  0  0  0  0  0  0
  183.5030  178.7110  138.1960 C   0  0  2  0  0  3  0  0  0  0  0  0
  186.2970  178.7550  139.9070 C   0  0  0  0  0  2  0  0  0  0  0  0
  180.0590  181.1840  138.0360 C   0  0  0  0  0  0  0  0  0  0  0  0
  186.3340  177.9010  144.0120 C   0  0  0  0  0  0  0  0  0  0  0  0
  185.5130  178.2930  145.0220 N   0  0  0  0  0  0  0  0  0  0  0  0
  184.5460  178.2540  142.4300 C   0  0  0  0  0  0  0  0  0  0  0  0
  184.2270  178.6700  144.7880 C   0  0  0  0  0  3  0  0  0  0  0  0
  185.8650  177.8770  142.6960 C   0  0  0  0  0  3  0  0  0  0  0  0
  183.7200  178.6590  143.4880 C   0  0  0  0  0  3  0  0  0  0  0  0
  187.6100  177.5350  144.2810 F   0  0  0  0  0  0  0  0  0  0  0  0
  187.7860  177.6970  136.5290 C   0  0  0  0  0  0  0  0  0  0  0  0
  187.7320  178.1290  135.2100 O   0  0  0  0  0  0  0  0  0  0  0  0
  188.7300  176.9550  136.9050 O   0  0  0  0  0  1  0  0  0  0  0  0
  180.2230  182.6610  137.8580 C   0  0  0  0  0  2  0  0  0  0  0  0
  181.0420  182.9670  136.6100 C   0  0  0  0  0  3  0  0  0  0  0  0
  180.2680  182.6570  135.3240 C   0  0  0  0  0  2  0  0  0  0  0  0
  180.8140  181.4380  134.5940 C   0  0  0  0  0  1  0  0  0  0  0  0
  181.5250  184.4100  136.6480 C   0  0  0  0  0  2  0  0  0  0  0  0
  180.5280  185.2820  137.3870 C   0  0  0  0  0  1  0  0  0  0  0  0
  1 26  1  6  0  0  0
  1  7  1  0  0  0  0
  1 11  1  0  0  0  0
  2 12  1  0  0  0  0
  2  7  1  0  0  0  0
  3 18  2  0  0  0  0
  4  7  1  6  0  0  0
  4 10  1  0  0  0  0
  5  9  1  6  0  0  0
  5 13  1  0  0  0  0
  6  8  1  0  0  0  0
 10 17  1  6  0  0  0
 10 14  1  0  0  0  0
 11 17  1  0  0  0  0
 12  7  1  0  0  0  0
 13 14  1  0  0  0  0
 14 21  1  1  0  0  0
 15  8  1  0  0  0  0
 15  9  1  0  0  0  0
 16  6  1  1  0  0  0
 16  4  1  0  0  0  0
 16  5  1  0  0  0  0
 18 15  1  0  0  0  0
 19 25  1  0  0  0  0
 19 20  1  0  0  0  0
 21 23  1  0  0  0  0
 21 24  2  0  0  0  0
 22 20  2  0  0  0  0
 23 19  2  0  0  0  0
 24 22  1  0  0  0  0
 26 28  1  0  0  0  0
 27 26  2  0  0  0  0
 29 18  1  0  0  0  0
 30 33  1  0  0  0  0
 30 29  1  0  0  0  0
 31 30  1  0  0  0  0
 32 31  1  0  0  0  0
 33 34  1  0  0  0  0
M  END
>  <MODEL>
8

>  <REMARK>
 VINA RESULT:      -5.2      3.660      7.842
  Name = 
  6 active torsions:
  status: ('A' for Active; 'I' for Inactive)
    1  A    between atoms: C_1  and  C_6
    2  A    between atoms: C_11  and  C_20
    3  A    between atoms: C_12  and  C_28
    4  A    between atoms: C_13  and  C_20
    5  A    between atoms: C_13  and  C_33
    6  A    between atoms: C_14  and  C_20
                            x       y       z     vdW  Elec       q    Type
                         _______ _______ _______ _____ _____    ______ ____

>  <TORSDO>
F 6

$$$$
=
 OpenBabel11052414263D

 34 38  0  0  1  0  0  0  0  0999 V2000
  181.1010  178.5400  141.5760 C   0  0  1  0  0  3  0  0  0  0  0  0
  179.4290  179.3430  139.7190 C   0  0  0  0  0  2  0  0  0  0  0  0
  180.5150  173.9630  134.7710 O   0  0  0  0  0  0  0  0  0  0  0  0
  181.7850  178.5200  139.0390 C   0  0  1  0  0  3  0  0  0  0  0  0
  182.4280  176.0350  138.6860 C   0  0  1  0  0  3  0  0  0  0  0  0
  180.7450  177.2460  137.1250 C   0  0  0  0  0  2  0  0  0  0  0  0
  180.8520  179.0300  140.1360 C   0  0  0  0  0  0  0  0  0  0  0  0
  181.3520  176.2620  136.1260 C   0  0  0  0  0  2  0  0  0  0  0  0
  181.9800  174.7200  138.0460 C   0  0  0  0  0  2  0  0  0  0  0  0
  183.2550  178.5920  139.5010 C   0  0  2  0  0  3  0  0  0  0  0  0
  182.5790  178.6900  141.9300 C   0  0  0  0  0  2  0  0  0  0  0  0
  180.4300  180.4730  139.9520 C   0  0  0  0  0  2  0  0  0  0  0  0
  183.8050  176.4560  138.1530 C   0  0  0  0  0  2  0  0  0  0  0  0
  184.1470  177.9250  138.4440 C   0  0  2  0  0  3  0  0  0  0  0  0
  181.4100  174.9220  136.7080 N   0  0  0  0  0  0  0  0  0  0  0  0
  181.3490  177.1310  138.5340 C   0  0  2  0  0  3  0  0  0  0  0  0
  183.4510  177.9800  140.8990 C   0  0  0  0  0  2  0  0  0  0  0  0
  180.9600  173.7960  135.9390 C   0  0  0  0  0  0  0  0  0  0  0  0
  187.4350  178.6290  140.1720 C   0  0  0  0  0  0  0  0  0  0  0  0
  188.3100  178.5340  139.1350 N   0  0  0  0  0  0  0  0  0  0  0  0
  185.6110  178.1500  138.6660 C   0  0  0  0  0  0  0  0  0  0  0  0
  187.8900  178.2520  137.8720 C   0  0  0  0  0  3  0  0  0  0  0  0
  186.0680  178.4360  139.9540 C   0  0  0  0  0  3  0  0  0  0  0  0
  186.5330  178.0530  137.6140 C   0  0  0  0  0  3  0  0  0  0  0  0
  187.8890  178.9080  141.4170 F   0  0  0  0  0  0  0  0  0  0  0  0
  180.2340  179.1730  142.6250 C   0  0  0  0  0  0  0  0  0  0  0  0
  179.0980  178.5230  143.0930 O   0  0  0  0  0  0  0  0  0  0  0  0
  180.5540  180.2920  143.1010 O   0  0  0  0  0  1  0  0  0  0  0  0
  180.9780  172.4140  136.5110 C   0  0  0  0  0  2  0  0  0  0  0  0
  182.0480  171.5630  135.8370 C   0  0  0  0  0  3  0  0  0  0  0  0
  183.1520  171.1460  136.8150 C   0  0  0  0  0  2  0  0  0  0  0  0
  184.2290  172.2120  136.9670 C   0  0  0  0  0  1  0  0  0  0  0  0
  181.4050  170.3610  135.1600 C   0  0  0  0  0  2  0  0  0  0  0  0
  180.0060  170.1350  135.7010 C   0  0  0  0  0  1  0  0  0  0  0  0
  1 11  1  0  0  0  0
  1 26  1  1  0  0  0
  2 12  1  0  0  0  0
  2  7  1  0  0  0  0
  3 18  2  0  0  0  0
  4 10  1  0  0  0  0
  4  7  1  1  0  0  0
  5  9  1  6  0  0  0
  7  1  1  0  0  0  0
  8 15  1  0  0  0  0
  8  6  1  0  0  0  0
 10 17  1  1  0  0  0
 12  7  1  0  0  0  0
 13 14  1  0  0  0  0
 13  5  1  0  0  0  0
 14 21  1  1  0  0  0
 14 10  1  0  0  0  0
 15  9  1  0  0  0  0
 16  6  1  6  0  0  0
 16  5  1  0  0  0  0
 16  4  1  0  0  0  0
 17 11  1  0  0  0  0
 18 29  1  0  0  0  0
 18 15  1  0  0  0  0
 19 25  1  0  0  0  0
 20 19  2  0  0  0  0
 21 23  2  0  0  0  0
 22 20  1  0  0  0  0
 23 19  1  0  0  0  0
 24 22  2  0  0  0  0
 24 21  1  0  0  0  0
 26 27  2  0  0  0  0
 26 28  1  0  0  0  0
 30 29  1  0  0  0  0
 30 31  1  0  0  0  0
 31 32  1  0  0  0  0
 33 34  1  0  0  0  0
 33 30  1  0  0  0  0
M  END
>  <MODEL>
9

>  <REMARK>
 VINA RESULT:      -5.1      3.454      7.498
  Name = 
  6 active torsions:
  status: ('A' for Active; 'I' for Inactive)
    1  A    between atoms: C_1  and  C_6
    2  A    between atoms: C_11  and  C_20
    3  A    between atoms: C_12  and  C_28
    4  A    between atoms: C_13  and  C_20
    5  A    between atoms: C_13  and  C_33
    6  A    between atoms: C_14  and  C_20
                            x       y       z     vdW  Elec       q    Type
                         _______ _______ _______ _____ _____    ______ ____

>  <TORSDO>
F 6

$$$$
