=
 OpenBabel11052412403D

 25 27  0  0  1  0  0  0  0  0999 V2000
  189.6260  177.3150  144.5120 C   0  0  0  0  0  0  0  0  0  0  0  0
  188.5580  177.6310  145.3850 C   0  0  0  0  0  0  0  0  0  0  0  0
  191.0780  176.9950  146.3780 C   0  0  0  0  0  3  0  0  0  0  0  0
  190.0560  177.3060  147.2710 C   0  0  0  0  0  3  0  0  0  0  0  0
  187.7280  177.9290  147.6680 C   0  0  0  0  0  0  0  0  0  0  0  0
  187.9180  177.9400  149.1490 C   0  0  0  0  0  1  0  0  0  0  0  0
  187.2720  177.9220  144.9040 C   0  0  0  0  0  3  0  0  0  0  0  0
  190.8440  177.0050  145.0410 N   0  0  0  0  0  0  0  0  0  0  0  0
  186.4610  178.2240  147.1600 C   0  0  0  0  0  3  0  0  0  0  0  0
  186.2320  178.2240  145.7840 C   0  0  0  0  0  0  0  0  0  0  0  0
  188.7850  177.6250  146.7850 C   0  0  0  0  0  0  0  0  0  0  0  0
  189.4810  177.3200  143.0340 C   0  0  0  0  0  0  0  0  0  0  0  0
  189.2700  177.3770  140.2570 C   0  0  0  0  0  3  0  0  0  0  0  0
  189.9790  176.2670  142.2370 C   0  0  0  0  0  0  0  0  0  0  0  0
  189.8550  176.3240  140.8830 N   0  0  0  0  0  0  0  0  0  0  0  0
  188.7710  178.4440  141.0020 C   0  0  0  0  0  3  0  0  0  0  0  0
  190.5840  175.1210  142.8290 N   0  0  0  0  0  1  0  0  0  0  0  0
  188.8820  178.4120  142.3920 C   0  0  0  0  0  3  0  0  0  0  0  0
  184.8720  178.5170  145.2540 C   0  0  0  0  0  2  0  0  0  0  0  0
  184.9730  179.1480  143.8760 C   0  0  0  0  0  2  0  0  0  0  0  0
  183.7990  178.7570  143.0410 C   0  0  0  0  0  0  0  0  0  0  0  0
  182.6660  178.8970  143.4760 O   0  0  0  0  0  0  0  0  0  0  0  0
  184.0240  178.2100  141.6680 C   0  0  2  0  0  3  0  0  0  0  0  0
  185.1250  178.9780  140.9600 C   0  0  0  0  0  1  0  0  0  0  0  0
  182.8460  178.2860  140.9250 O   0  0  0  0  0  1  0  0  0  0  0  0
  1  8  2  0  0  0  0
  1  2  1  0  0  0  0
  2 11  1  0  0  0  0
  3  4  2  0  0  0  0
  5  6  1  0  0  0  0
  7  2  2  0  0  0  0
  7 10  1  0  0  0  0
  8  3  1  0  0  0  0
  9  5  1  0  0  0  0
 10  9  2  0  0  0  0
 11  4  1  0  0  0  0
 11  5  2  0  0  0  0
 12  1  1  0  0  0  0
 13 15  2  0  0  0  0
 13 16  1  0  0  0  0
 14 17  1  0  0  0  0
 14 12  2  0  0  0  0
 15 14  1  0  0  0  0
 16 18  2  0  0  0  0
 18 12  1  0  0  0  0
 19 10  1  0  0  0  0
 20 19  1  0  0  0  0
 21 22  2  0  0  0  0
 21 20  1  0  0  0  0
 23 24  1  6  0  0  0
 23 21  1  0  0  0  0
 25 23  1  0  0  0  0
M  END
>  <MODEL>
1

>  <REMARK>
 VINA RESULT:      -8.9      0.000      0.000
  Name = 
  5 active torsions:
  status: ('A' for Active; 'I' for Inactive)
    1  A    between atoms: C_1  and  C_5
    2  A    between atoms: C_2  and  C_21
    3  A    between atoms: C_6  and  C_15
    4  A    between atoms: C_6  and  C_23
    5  A    between atoms: C_15  and  C_21
                            x       y       z     vdW  Elec       q    Type
                         _______ _______ _______ _____ _____    ______ ____

>  <TORSDO>
F 5

$$$$
=
 OpenBabel11052412403D

 25 27  0  0  1  0  0  0  0  0999 V2000
  187.3630  177.7610  145.8870 C   0  0  0  0  0  0  0  0  0  0  0  0
  188.6310  177.3900  145.3790 C   0  0  0  0  0  0  0  0  0  0  0  0
  188.1400  177.4250  148.1180 C   0  0  0  0  0  3  0  0  0  0  0  0
  189.4000  177.0480  147.6590 C   0  0  0  0  0  3  0  0  0  0  0  0
  190.9310  176.6640  145.7940 C   0  0  0  0  0  0  0  0  0  0  0  0
  192.0450  176.2720  146.7080 C   0  0  0  0  0  1  0  0  0  0  0  0
  188.9060  177.3990  144.0030 C   0  0  0  0  0  3  0  0  0  0  0  0
  187.1670  177.7690  147.2370 N   0  0  0  0  0  0  0  0  0  0  0  0
  191.1730  176.6740  144.4190 C   0  0  0  0  0  3  0  0  0  0  0  0
  190.1650  177.0360  143.5250 C   0  0  0  0  0  0  0  0  0  0  0  0
  189.6600  177.0280  146.2850 C   0  0  0  0  0  0  0  0  0  0  0  0
  186.2250  178.1320  145.0080 C   0  0  0  0  0  0  0  0  0  0  0  0
  184.0700  178.7520  143.3560 C   0  0  0  0  0  3  0  0  0  0  0  0
  185.0230  178.6560  145.5320 C   0  0  0  0  0  0  0  0  0  0  0  0
  183.9910  178.9530  144.6970 N   0  0  0  0  0  0  0  0  0  0  0  0
  185.2330  178.2290  142.7940 C   0  0  0  0  0  3  0  0  0  0  0  0
  184.8820  178.9130  146.9270 N   0  0  0  0  0  1  0  0  0  0  0  0
  186.3080  177.9180  143.6260 C   0  0  0  0  0  3  0  0  0  0  0  0
  190.4420  177.0640  142.0620 C   0  0  0  0  0  2  0  0  0  0  0  0
  189.1930  177.4800  141.3030 C   0  0  0  0  0  2  0  0  0  0  0  0
  189.3770  177.2510  139.8400 C   0  0  0  0  0  0  0  0  0  0  0  0
  190.3430  176.6200  139.4360 O   0  0  0  0  0  0  0  0  0  0  0  0
  188.3650  177.7870  138.8790 C   0  0  2  0  0  3  0  0  0  0  0  0
  189.0320  178.6530  137.8270 C   0  0  0  0  0  1  0  0  0  0  0  0
  187.4060  178.5340  139.5640 O   0  0  0  0  0  1  0  0  0  0  0  0
  1  8  1  0  0  0  0
  2  1  2  0  0  0  0
  2 11  1  0  0  0  0
  4  3  1  0  0  0  0
  5 11  1  0  0  0  0
  5  6  1  0  0  0  0
  7  2  1  0  0  0  0
  8  3  2  0  0  0  0
  9  5  2  0  0  0  0
 10  7  2  0  0  0  0
 10  9  1  0  0  0  0
 11  4  2  0  0  0  0
 12 14  1  0  0  0  0
 12  1  1  0  0  0  0
 13 15  1  0  0  0  0
 14 17  1  0  0  0  0
 15 14  2  0  0  0  0
 16 13  2  0  0  0  0
 16 18  1  0  0  0  0
 18 12  2  0  0  0  0
 19 10  1  0  0  0  0
 20 19  1  0  0  0  0
 21 20  1  0  0  0  0
 22 21  2  0  0  0  0
 23 24  1  6  0  0  0
 23 25  1  0  0  0  0
 23 21  1  0  0  0  0
M  END
>  <MODEL>
2

>  <REMARK>
 VINA RESULT:      -8.9      2.998      5.087
  Name = 
  5 active torsions:
  status: ('A' for Active; 'I' for Inactive)
    1  A    between atoms: C_1  and  C_5
    2  A    between atoms: C_2  and  C_21
    3  A    between atoms: C_6  and  C_15
    4  A    between atoms: C_6  and  C_23
    5  A    between atoms: C_15  and  C_21
                            x       y       z     vdW  Elec       q    Type
                         _______ _______ _______ _____ _____    ______ ____

>  <TORSDO>
F 5

$$$$
=
 OpenBabel11052412403D

 25 27  0  0  1  0  0  0  0  0999 V2000
  187.0160  178.2960  141.4390 C   0  0  0  0  0  0  0  0  0  0  0  0
  186.5310  178.2550  142.7680 C   0  0  0  0  0  0  0  0  0  0  0  0
  184.8840  179.0360  140.6660 C   0  0  0  0  0  3  0  0  0  0  0  0
  184.3650  179.0030  141.9570 C   0  0  0  0  0  3  0  0  0  0  0  0
  184.6880  178.5860  144.3430 C   0  0  0  0  0  0  0  0  0  0  0  0
  183.2750  178.9530  144.6620 C   0  0  0  0  0  1  0  0  0  0  0  0
  187.3560  177.8960  143.8440 C   0  0  0  0  0  3  0  0  0  0  0  0
  186.1760  178.6890  140.4390 N   0  0  0  0  0  0  0  0  0  0  0  0
  185.5290  178.2160  145.3930 C   0  0  0  0  0  3  0  0  0  0  0  0
  186.8580  177.8680  145.1470 C   0  0  0  0  0  0  0  0  0  0  0  0
  185.1830  178.6140  143.0230 C   0  0  0  0  0  0  0  0  0  0  0  0
  188.4060  177.9150  141.0810 C   0  0  0  0  0  0  0  0  0  0  0  0
  190.9900  177.1250  140.4040 C   0  0  0  0  0  3  0  0  0  0  0  0
  188.9170  178.1110  139.7800 C   0  0  0  0  0  0  0  0  0  0  0  0
  190.1860  177.7180  139.4830 N   0  0  0  0  0  0  0  0  0  0  0  0
  190.5260  176.9030  141.6990 C   0  0  0  0  0  3  0  0  0  0  0  0
  188.1360  178.7480  138.7730 N   0  0  0  0  0  1  0  0  0  0  0  0
  189.2300  177.2980  142.0320 C   0  0  0  0  0  3  0  0  0  0  0  0
  187.7530  177.4980  146.2780 C   0  0  0  0  0  2  0  0  0  0  0  0
  189.1340  177.1390  145.7540 C   0  0  0  0  0  2  0  0  0  0  0  0
  190.1290  177.1580  146.8660 C   0  0  0  0  0  0  0  0  0  0  0  0
  189.7950  177.5340  147.9800 O   0  0  0  0  0  0  0  0  0  0  0  0
  191.5290  176.7000  146.6070 C   0  0  2  0  0  3  0  0  0  0  0  0
  191.7120  176.3410  145.1440 C   0  0  0  0  0  1  0  0  0  0  0  0
  191.8240  175.5940  147.4030 O   0  0  0  0  0  1  0  0  0  0  0  0
  1  2  1  0  0  0  0
  2 11  2  0  0  0  0
  2  7  1  0  0  0  0
  3  4  2  0  0  0  0
  4 11  1  0  0  0  0
  5  6  1  0  0  0  0
  5  9  2  0  0  0  0
  7 10  2  0  0  0  0
  8  3  1  0  0  0  0
  8  1  2  0  0  0  0
 10  9  1  0  0  0  0
 10 19  1  0  0  0  0
 11  5  1  0  0  0  0
 12  1  1  0  0  0  0
 12 18  1  0  0  0  0
 13 16  1  0  0  0  0
 14 12  2  0  0  0  0
 15 14  1  0  0  0  0
 15 13  2  0  0  0  0
 16 18  2  0  0  0  0
 17 14  1  0  0  0  0
 20 19  1  0  0  0  0
 20 21  1  0  0  0  0
 21 22  2  0  0  0  0
 23 24  1  6  0  0  0
 23 21  1  0  0  0  0
 23 25  1  0  0  0  0
M  END
>  <MODEL>
3

>  <REMARK>
 VINA RESULT:      -8.8      3.181      5.737
  Name = 
  5 active torsions:
  status: ('A' for Active; 'I' for Inactive)
    1  A    between atoms: C_1  and  C_5
    2  A    between atoms: C_2  and  C_21
    3  A    between atoms: C_6  and  C_15
    4  A    between atoms: C_6  and  C_23
    5  A    between atoms: C_15  and  C_21
                            x       y       z     vdW  Elec       q    Type
                         _______ _______ _______ _____ _____    ______ ____

>  <TORSDO>
F 5

$$$$
=
 OpenBabel11052412403D

 25 27  0  0  1  0  0  0  0  0999 V2000
  187.9250  177.8310  144.8630 C   0  0  0  0  0  0  0  0  0  0  0  0
  186.7480  178.1830  144.1590 C   0  0  0  0  0  0  0  0  0  0  0  0
  186.7150  177.8290  146.9190 C   0  0  0  0  0  3  0  0  0  0  0  0
  185.5370  178.1810  146.2670 C   0  0  0  0  0  3  0  0  0  0  0  0
  184.3570  178.7020  144.1920 C   0  0  0  0  0  0  0  0  0  0  0  0
  183.0610  178.9030  144.9060 C   0  0  0  0  0  1  0  0  0  0  0  0
  186.7390  178.3330  142.7650 C   0  0  0  0  0  3  0  0  0  0  0  0
  187.8640  177.6640  146.2150 N   0  0  0  0  0  0  0  0  0  0  0  0
  184.3790  178.8540  142.8040 C   0  0  0  0  0  3  0  0  0  0  0  0
  185.5650  178.6740  142.0910 C   0  0  0  0  0  0  0  0  0  0  0  0
  185.5390  178.3600  144.8800 C   0  0  0  0  0  0  0  0  0  0  0  0
  189.2360  177.6490  144.1900 C   0  0  0  0  0  0  0  0  0  0  0  0
  191.7250  177.2800  142.9950 C   0  0  0  0  0  3  0  0  0  0  0  0
  189.5080  176.5160  143.3920 C   0  0  0  0  0  0  0  0  0  0  0  0
  190.7340  176.3690  142.8190 N   0  0  0  0  0  0  0  0  0  0  0  0
  191.5060  178.4100  143.7820 C   0  0  0  0  0  3  0  0  0  0  0  0
  188.5060  175.5340  143.1470 N   0  0  0  0  0  1  0  0  0  0  0  0
  190.2590  178.5880  144.3800 C   0  0  0  0  0  3  0  0  0  0  0  0
  185.5730  178.8150  140.6090 C   0  0  0  0  0  2  0  0  0  0  0  0
  184.2200  178.4200  140.0400 C   0  0  0  0  0  2  0  0  0  0  0  0
  183.6020  179.5750  139.3270 C   0  0  0  0  0  0  0  0  0  0  0  0
  184.2950  180.5180  138.9720 O   0  0  0  0  0  0  0  0  0  0  0  0
  182.1350  179.5610  139.0390 C   0  0  2  0  0  3  0  0  0  0  0  0
  181.7290  180.8030  138.2670 C   0  0  0  0  0  1  0  0  0  0  0  0
  181.4150  179.4930  140.2320 O   0  0  0  0  0  1  0  0  0  0  0  0
  1  8  1  0  0  0  0
  2  1  2  0  0  0  0
  2 11  1  0  0  0  0
  4  3  1  0  0  0  0
  5 11  1  0  0  0  0
  5  6  1  0  0  0  0
  7  2  1  0  0  0  0
  8  3  2  0  0  0  0
  9  5  2  0  0  0  0
 10  7  2  0  0  0  0
 10  9  1  0  0  0  0
 11  4  2  0  0  0  0
 12 18  1  0  0  0  0
 12  1  1  0  0  0  0
 13 16  1  0  0  0  0
 14 12  2  0  0  0  0
 15 13  2  0  0  0  0
 15 14  1  0  0  0  0
 16 18  2  0  0  0  0
 17 14  1  0  0  0  0
 19 10  1  0  0  0  0
 20 19  1  0  0  0  0
 21 20  1  0  0  0  0
 22 21  2  0  0  0  0
 23 24  1  1  0  0  0
 23 21  1  0  0  0  0
 23 25  1  0  0  0  0
M  END
>  <MODEL>
4

>  <REMARK>
 VINA RESULT:      -8.8      2.008      3.736
  Name = 
  5 active torsions:
  status: ('A' for Active; 'I' for Inactive)
    1  A    between atoms: C_1  and  C_5
    2  A    between atoms: C_2  and  C_21
    3  A    between atoms: C_6  and  C_15
    4  A    between atoms: C_6  and  C_23
    5  A    between atoms: C_15  and  C_21
                            x       y       z     vdW  Elec       q    Type
                         _______ _______ _______ _____ _____    ______ ____

>  <TORSDO>
F 5

$$$$
=
 OpenBabel11052412403D

 25 27  0  0  1  0  0  0  0  0999 V2000
  189.0530  177.4510  144.9140 C   0  0  0  0  0  0  0  0  0  0  0  0
  187.6840  177.7910  144.7940 C   0  0  0  0  0  0  0  0  0  0  0  0
  188.8330  177.3290  147.2860 C   0  0  0  0  0  3  0  0  0  0  0  0
  187.4840  177.6670  147.2130 C   0  0  0  0  0  3  0  0  0  0  0  0
  185.5270  178.2290  145.8640 C   0  0  0  0  0  0  0  0  0  0  0  0
  184.6550  178.3580  147.0700 C   0  0  0  0  0  1  0  0  0  0  0  0
  187.0800  177.9950  143.5450 C   0  0  0  0  0  3  0  0  0  0  0  0
  189.5750  177.2300  146.1540 N   0  0  0  0  0  0  0  0  0  0  0  0
  184.9550  178.4350  144.6070 C   0  0  0  0  0  3  0  0  0  0  0  0
  185.7270  178.3220  143.4500 C   0  0  0  0  0  0  0  0  0  0  0  0
  186.8940  177.8990  145.9680 C   0  0  0  0  0  0  0  0  0  0  0  0
  189.9550  177.3390  143.7400 C   0  0  0  0  0  0  0  0  0  0  0  0
  191.5880  177.1480  141.4910 C   0  0  0  0  0  3  0  0  0  0  0  0
  190.8570  178.3690  143.3960 C   0  0  0  0  0  0  0  0  0  0  0  0
  191.6440  178.2420  142.2940 N   0  0  0  0  0  0  0  0  0  0  0  0
  190.7060  176.1090  141.7840 C   0  0  0  0  0  3  0  0  0  0  0  0
  190.9840  179.5340  144.2080 N   0  0  0  0  0  1  0  0  0  0  0  0
  189.8890  176.2110  142.9100 C   0  0  0  0  0  3  0  0  0  0  0  0
  185.1010  178.5210  142.1140 C   0  0  0  0  0  2  0  0  0  0  0  0
  186.1730  178.7870  141.0710 C   0  0  0  0  0  2  0  0  0  0  0  0
  185.5760  178.7740  139.7030 C   0  0  0  0  0  0  0  0  0  0  0  0
  186.2370  178.3830  138.7510 O   0  0  0  0  0  0  0  0  0  0  0  0
  184.1650  179.2280  139.5120 C   0  0  2  0  0  3  0  0  0  0  0  0
  183.4390  178.3210  138.5350 C   0  0  0  0  0  1  0  0  0  0  0  0
  184.1450  180.5400  139.0390 O   0  0  0  0  0  1  0  0  0  0  0  0
  1  8  1  0  0  0  0
  2  1  2  0  0  0  0
  2 11  1  0  0  0  0
  4  3  1  0  0  0  0
  5 11  1  0  0  0  0
  5  6  1  0  0  0  0
  7  2  1  0  0  0  0
  8  3  2  0  0  0  0
  9  5  2  0  0  0  0
 10  7  2  0  0  0  0
 10  9  1  0  0  0  0
 11  4  2  0  0  0  0
 12  1  1  0  0  0  0
 13 16  2  0  0  0  0
 13 15  1  0  0  0  0
 14 12  1  0  0  0  0
 14 17  1  0  0  0  0
 15 14  2  0  0  0  0
 16 18  1  0  0  0  0
 18 12  2  0  0  0  0
 19 10  1  0  0  0  0
 20 19  1  0  0  0  0
 21 20  1  0  0  0  0
 22 21  2  0  0  0  0
 23 24  1  6  0  0  0
 23 21  1  0  0  0  0
 25 23  1  0  0  0  0
M  END
>  <MODEL>
5

>  <REMARK>
 VINA RESULT:      -8.7      1.979      2.940
  Name = 
  5 active torsions:
  status: ('A' for Active; 'I' for Inactive)
    1  A    between atoms: C_1  and  C_5
    2  A    between atoms: C_2  and  C_21
    3  A    between atoms: C_6  and  C_15
    4  A    between atoms: C_6  and  C_23
    5  A    between atoms: C_15  and  C_21
                            x       y       z     vdW  Elec       q    Type
                         _______ _______ _______ _____ _____    ______ ____

>  <TORSDO>
F 5

$$$$
=
 OpenBabel11052412403D

 25 27  0  0  1  0  0  0  0  0999 V2000
  188.4180  177.5670  143.5830 C   0  0  0  0  0  0  0  0  0  0  0  0
  187.0950  177.9060  143.9560 C   0  0  0  0  0  0  0  0  0  0  0  0
  189.0470  177.4210  145.8790 C   0  0  0  0  0  3  0  0  0  0  0  0
  187.7590  177.7580  146.2890 C   0  0  0  0  0  3  0  0  0  0  0  0
  185.4530  178.3310  145.7210 C   0  0  0  0  0  0  0  0  0  0  0  0
  185.0620  178.4470  147.1570 C   0  0  0  0  0  1  0  0  0  0  0  0
  186.0900  178.1220  143.0010 C   0  0  0  0  0  3  0  0  0  0  0  0
  189.3420  177.3340  144.5580 N   0  0  0  0  0  0  0  0  0  0  0  0
  184.4760  178.5480  144.7480 C   0  0  0  0  0  3  0  0  0  0  0  0
  184.7910  178.4490  143.3920 C   0  0  0  0  0  0  0  0  0  0  0  0
  186.7690  178.0020  145.3330 C   0  0  0  0  0  0  0  0  0  0  0  0
  188.8490  177.4670  142.1650 C   0  0  0  0  0  0  0  0  0  0  0  0
  189.7070  177.3400  139.5180 C   0  0  0  0  0  3  0  0  0  0  0  0
  189.7880  176.5020  141.7420 C   0  0  0  0  0  0  0  0  0  0  0  0
  190.1820  176.4630  140.4400 N   0  0  0  0  0  0  0  0  0  0  0  0
  188.7850  178.3160  139.8910 C   0  0  0  0  0  3  0  0  0  0  0  0
  190.3090  175.5370  142.6520 N   0  0  0  0  0  1  0  0  0  0  0  0
  188.3610  178.3770  141.2180 C   0  0  0  0  0  3  0  0  0  0  0  0
  183.7360  178.6600  142.3640 C   0  0  0  0  0  2  0  0  0  0  0  0
  184.1110  177.9450  141.0770 C   0  0  0  0  0  2  0  0  0  0  0  0
  184.0780  178.8980  139.9280 C   0  0  0  0  0  0  0  0  0  0  0  0
  184.9560  179.7390  139.8060 O   0  0  0  0  0  0  0  0  0  0  0  0
  182.9730  178.8020  138.9260 C   0  0  2  0  0  3  0  0  0  0  0  0
  182.3520  180.1660  138.6830 C   0  0  0  0  0  1  0  0  0  0  0  0
  181.9960  177.9140  139.3760 O   0  0  0  0  0  1  0  0  0  0  0  0
  1  2  2  0  0  0  0
  1  8  1  0  0  0  0
  2 11  1  0  0  0  0
  3  4  1  0  0  0  0
  5  6  1  0  0  0  0
  7 10  2  0  0  0  0
  7  2  1  0  0  0  0
  8  3  2  0  0  0  0
  9  5  2  0  0  0  0
 10  9  1  0  0  0  0
 11  5  1  0  0  0  0
 11  4  2  0  0  0  0
 12  1  1  0  0  0  0
 13 16  2  0  0  0  0
 13 15  1  0  0  0  0
 14 12  1  0  0  0  0
 14 17  1  0  0  0  0
 15 14  2  0  0  0  0
 16 18  1  0  0  0  0
 18 12  2  0  0  0  0
 19 10  1  0  0  0  0
 20 19  1  0  0  0  0
 21 20  1  0  0  0  0
 22 21  2  0  0  0  0
 23 24  1  1  0  0  0
 23 25  1  0  0  0  0
 23 21  1  0  0  0  0
M  END
>  <MODEL>
6

>  <REMARK>
 VINA RESULT:      -8.6      1.505      2.466
  Name = 
  5 active torsions:
  status: ('A' for Active; 'I' for Inactive)
    1  A    between atoms: C_1  and  C_5
    2  A    between atoms: C_2  and  C_21
    3  A    between atoms: C_6  and  C_15
    4  A    between atoms: C_6  and  C_23
    5  A    between atoms: C_15  and  C_21
                            x       y       z     vdW  Elec       q    Type
                         _______ _______ _______ _____ _____    ______ ____

>  <TORSDO>
F 5

$$$$
=
 OpenBabel11052412403D

 25 27  0  0  1  0  0  0  0  0999 V2000
  185.5620  178.5850  144.6430 C   0  0  0  0  0  0  0  0  0  0  0  0
  186.8270  177.9740  144.8130 C   0  0  0  0  0  0  0  0  0  0  0  0
  185.4240  178.9930  146.9890 C   0  0  0  0  0  3  0  0  0  0  0  0
  186.6630  178.3950  147.2010 C   0  0  0  0  0  3  0  0  0  0  0  0
  188.6430  177.2830  146.3000 C   0  0  0  0  0  0  0  0  0  0  0  0
  189.2650  177.1570  147.6520 C   0  0  0  0  0  1  0  0  0  0  0  0
  187.5640  177.4850  143.7230 C   0  0  0  0  0  3  0  0  0  0  0  0
  184.9100  179.0740  145.7350 N   0  0  0  0  0  0  0  0  0  0  0  0
  189.3490  176.7960  145.1980 C   0  0  0  0  0  3  0  0  0  0  0  0
  188.8120  176.8930  143.9140 C   0  0  0  0  0  0  0  0  0  0  0  0
  187.3790  177.8800  146.1160 C   0  0  0  0  0  0  0  0  0  0  0  0
  184.9020  178.7040  143.3170 C   0  0  0  0  0  0  0  0  0  0  0  0
  183.6800  178.8520  140.8180 C   0  0  0  0  0  3  0  0  0  0  0  0
  183.4980  178.6570  143.1810 C   0  0  0  0  0  0  0  0  0  0  0  0
  182.9320  178.7370  141.9460 N   0  0  0  0  0  0  0  0  0  0  0  0
  185.0710  178.8940  140.9020 C   0  0  0  0  0  3  0  0  0  0  0  0
  182.6530  178.5600  144.3250 N   0  0  0  0  0  1  0  0  0  0  0  0
  185.6770  178.8160  142.1550 C   0  0  0  0  0  3  0  0  0  0  0  0
  189.5840  176.3920  142.7440 C   0  0  0  0  0  2  0  0  0  0  0  0
  189.3620  177.2990  141.5450 C   0  0  0  0  0  2  0  0  0  0  0  0
  190.5320  177.2310  140.6210 C   0  0  0  0  0  0  0  0  0  0  0  0
  191.6620  177.4070  141.0510 O   0  0  0  0  0  0  0  0  0  0  0  0
  190.3080  176.9310  139.1730 C   0  0  2  0  0  3  0  0  0  0  0  0
  188.8460  177.1140  138.8090 C   0  0  0  0  0  1  0  0  0  0  0  0
  190.7040  175.6240  138.8900 O   0  0  0  0  0  1  0  0  0  0  0  0
  1  2  2  0  0  0  0
  1  8  1  0  0  0  0
  2 11  1  0  0  0  0
  3  4  1  0  0  0  0
  5  6  1  0  0  0  0
  7 10  2  0  0  0  0
  7  2  1  0  0  0  0
  8  3  2  0  0  0  0
  9  5  2  0  0  0  0
 10  9  1  0  0  0  0
 11  5  1  0  0  0  0
 11  4  2  0  0  0  0
 12  1  1  0  0  0  0
 13 16  2  0  0  0  0
 13 15  1  0  0  0  0
 14 12  1  0  0  0  0
 14 17  1  0  0  0  0
 15 14  2  0  0  0  0
 16 18  1  0  0  0  0
 18 12  2  0  0  0  0
 19 10  1  0  0  0  0
 20 19  1  0  0  0  0
 21 22  2  0  0  0  0
 21 20  1  0  0  0  0
 23 24  1  1  0  0  0
 23 21  1  0  0  0  0
 25 23  1  0  0  0  0
M  END
>  <MODEL>
7

>  <REMARK>
 VINA RESULT:      -8.6      3.679      5.500
  Name = 
  5 active torsions:
  status: ('A' for Active; 'I' for Inactive)
    1  A    between atoms: C_1  and  C_5
    2  A    between atoms: C_2  and  C_21
    3  A    between atoms: C_6  and  C_15
    4  A    between atoms: C_6  and  C_23
    5  A    between atoms: C_15  and  C_21
                            x       y       z     vdW  Elec       q    Type
                         _______ _______ _______ _____ _____    ______ ____

>  <TORSDO>
F 5

$$$$
=
 OpenBabel11052412403D

 25 27  0  0  1  0  0  0  0  0999 V2000
  187.9040  177.8670  144.8860 C   0  0  0  0  0  0  0  0  0  0  0  0
  186.7310  178.2000  144.1680 C   0  0  0  0  0  0  0  0  0  0  0  0
  186.6980  177.9780  146.9410 C   0  0  0  0  0  3  0  0  0  0  0  0
  185.5230  178.3140  146.2740 C   0  0  0  0  0  3  0  0  0  0  0  0
  184.3470  178.7520  144.1770 C   0  0  0  0  0  0  0  0  0  0  0  0
  183.0540  179.0030  144.8820 C   0  0  0  0  0  1  0  0  0  0  0  0
  186.7220  178.2840  142.7670 C   0  0  0  0  0  3  0  0  0  0  0  0
  187.8430  177.7650  146.2440 N   0  0  0  0  0  0  0  0  0  0  0  0
  184.3690  178.8370  142.7840 C   0  0  0  0  0  3  0  0  0  0  0  0
  185.5520  178.6080  142.0790 C   0  0  0  0  0  0  0  0  0  0  0  0
  185.5260  178.4270  144.8800 C   0  0  0  0  0  0  0  0  0  0  0  0
  189.2120  177.6360  144.2210 C   0  0  0  0  0  0  0  0  0  0  0  0
  191.6940  177.1760  143.0430 C   0  0  0  0  0  3  0  0  0  0  0  0
  189.4560  176.4800  143.4480 C   0  0  0  0  0  0  0  0  0  0  0  0
  190.6780  176.2890  142.8820 N   0  0  0  0  0  0  0  0  0  0  0  0
  191.5030  178.3270  143.8060 C   0  0  0  0  0  3  0  0  0  0  0  0
  188.4290  175.5200  143.2190 N   0  0  0  0  0  1  0  0  0  0  0  0
  190.2590  178.5510  144.3960 C   0  0  0  0  0  3  0  0  0  0  0  0
  185.5590  178.6790  140.5920 C   0  0  0  0  0  2  0  0  0  0  0  0
  186.9730  178.4980  140.0680 C   0  0  0  0  0  2  0  0  0  0  0  0
  186.9710  178.4580  138.5760 C   0  0  0  0  0  0  0  0  0  0  0  0
  185.9280  178.6260  137.9620 O   0  0  0  0  0  0  0  0  0  0  0  0
  188.2540  178.2250  137.8450 C   0  0  2  0  0  3  0  0  0  0  0  0
  189.0160  177.0640  138.4580 C   0  0  0  0  0  1  0  0  0  0  0  0
  189.0410  179.3760  137.8840 O   0  0  0  0  0  1  0  0  0  0  0  0
  1  8  1  0  0  0  0
  2 11  1  0  0  0  0
  2  1  2  0  0  0  0
  4  3  1  0  0  0  0
  5 11  1  0  0  0  0
  5  6  1  0  0  0  0
  7  2  1  0  0  0  0
  8  3  2  0  0  0  0
  9  5  2  0  0  0  0
 10  7  2  0  0  0  0
 10  9  1  0  0  0  0
 11  4  2  0  0  0  0
 12 18  1  0  0  0  0
 12  1  1  0  0  0  0
 13 16  1  0  0  0  0
 14 12  2  0  0  0  0
 15 13  2  0  0  0  0
 15 14  1  0  0  0  0
 16 18  2  0  0  0  0
 17 14  1  0  0  0  0
 19 10  1  0  0  0  0
 20 19  1  0  0  0  0
 21 20  1  0  0  0  0
 22 21  2  0  0  0  0
 23 25  1  0  0  0  0
 23 24  1  1  0  0  0
 23 21  1  0  0  0  0
M  END
>  <MODEL>
8

>  <REMARK>
 VINA RESULT:      -8.6      2.330      4.265
  Name = 
  5 active torsions:
  status: ('A' for Active; 'I' for Inactive)
    1  A    between atoms: C_1  and  C_5
    2  A    between atoms: C_2  and  C_21
    3  A    between atoms: C_6  and  C_15
    4  A    between atoms: C_6  and  C_23
    5  A    between atoms: C_15  and  C_21
                            x       y       z     vdW  Elec       q    Type
                         _______ _______ _______ _____ _____    ______ ____

>  <TORSDO>
F 5

$$$$
=
 OpenBabel11052412403D

 25 27  0  0  1  0  0  0  0  0999 V2000
  186.9860  177.8630  145.4070 C   0  0  0  0  0  0  0  0  0  0  0  0
  188.2190  177.4840  144.8250 C   0  0  0  0  0  0  0  0  0  0  0  0
  187.9010  177.5540  147.5890 C   0  0  0  0  0  3  0  0  0  0  0  0
  189.1290  177.1690  147.0570 C   0  0  0  0  0  3  0  0  0  0  0  0
  190.5400  176.7600  145.1040 C   0  0  0  0  0  0  0  0  0  0  0  0
  191.7090  176.3770  145.9520 C   0  0  0  0  0  1  0  0  0  0  0  0
  188.4070  177.4750  143.4350 C   0  0  0  0  0  3  0  0  0  0  0  0
  186.8750  177.8880  146.7660 N   0  0  0  0  0  0  0  0  0  0  0  0
  190.6960  176.7510  143.7170 C   0  0  0  0  0  3  0  0  0  0  0  0
  189.6340  177.1030  142.8830 C   0  0  0  0  0  0  0  0  0  0  0  0
  189.3030  177.1320  145.6700 C   0  0  0  0  0  0  0  0  0  0  0  0
  185.7950  178.2250  144.5970 C   0  0  0  0  0  0  0  0  0  0  0  0
  183.5420  178.8270  143.0730 C   0  0  0  0  0  3  0  0  0  0  0  0
  184.6200  178.7320  145.1910 C   0  0  0  0  0  0  0  0  0  0  0  0
  183.5380  179.0210  144.4180 N   0  0  0  0  0  0  0  0  0  0  0  0
  184.6770  178.3200  142.4430 C   0  0  0  0  0  3  0  0  0  0  0  0
  184.5550  178.9820  146.5930 N   0  0  0  0  0  1  0  0  0  0  0  0
  185.8010  178.0170  143.2110 C   0  0  0  0  0  3  0  0  0  0  0  0
  189.8180  177.1130  141.4050 C   0  0  0  0  0  2  0  0  0  0  0  0
  188.7520  177.9770  140.7530 C   0  0  0  0  0  2  0  0  0  0  0  0
  188.9970  178.0780  139.2840 C   0  0  0  0  0  0  0  0  0  0  0  0
  189.0390  179.1740  138.7440 O   0  0  0  0  0  0  0  0  0  0  0  0
  189.2030  176.8300  138.4860 C   0  0  2  0  0  3  0  0  0  0  0  0
  190.1810  177.0760  137.3520 C   0  0  0  0  0  1  0  0  0  0  0  0
  187.9850  176.3880  137.9690 O   0  0  0  0  0  1  0  0  0  0  0  0
  1  8  1  0  0  0  0
  2  1  2  0  0  0  0
  2 11  1  0  0  0  0
  4  3  1  0  0  0  0
  5 11  1  0  0  0  0
  5  6  1  0  0  0  0
  7  2  1  0  0  0  0
  8  3  2  0  0  0  0
  9  5  2  0  0  0  0
 10  7  2  0  0  0  0
 10  9  1  0  0  0  0
 11  4  2  0  0  0  0
 12 14  1  0  0  0  0
 12  1  1  0  0  0  0
 13 15  1  0  0  0  0
 14 17  1  0  0  0  0
 15 14  2  0  0  0  0
 16 13  2  0  0  0  0
 16 18  1  0  0  0  0
 18 12  2  0  0  0  0
 19 10  1  0  0  0  0
 20 19  1  0  0  0  0
 21 20  1  0  0  0  0
 22 21  2  0  0  0  0
 23 24  1  6  0  0  0
 23 21  1  0  0  0  0
 25 23  1  0  0  0  0
M  END
>  <MODEL>
9

>  <REMARK>
 VINA RESULT:      -8.6      3.067      5.257
  Name = 
  5 active torsions:
  status: ('A' for Active; 'I' for Inactive)
    1  A    between atoms: C_1  and  C_5
    2  A    between atoms: C_2  and  C_21
    3  A    between atoms: C_6  and  C_15
    4  A    between atoms: C_6  and  C_23
    5  A    between atoms: C_15  and  C_21
                            x       y       z     vdW  Elec       q    Type
                         _______ _______ _______ _____ _____    ______ ____

>  <TORSDO>
F 5

$$$$
