=
 OpenBabel11052413403D

 27 31  0  0  1  0  0  0  0  0999 V2000
  188.2570  176.7550  143.1490 C   0  0  2  0  0  3  0  0  0  0  0  0
  187.6480  178.5940  144.5690 C   0  0  2  0  0  3  0  0  0  0  0  0
  187.4280  177.7080  142.2660 C   0  0  1  0  0  3  0  0  0  0  0  0
  183.3160  178.8300  144.7330 C   0  0  0  0  0  3  0  0  0  0  0  0
  181.1830  178.5190  143.7190 F   0  0  0  0  0  0  0  0  0  0  0  0
  186.7870  178.3310  145.8150 C   0  0  0  0  0  2  0  0  0  0  0  0
  184.5330  178.3430  142.2640 C   0  0  0  0  0  3  0  0  0  0  0  0
  189.0220  178.8150  138.8960 C   0  0  0  0  0  1  0  0  0  0  0  0
  183.1410  178.3100  142.3760 C   0  0  0  0  0  3  0  0  0  0  0  0
  189.0760  176.6230  139.9690 O   0  0  0  0  0  0  0  0  0  0  0  0
  186.8350  178.7100  143.2550 C   0  0  1  0  0  3  0  0  0  0  0  0
  188.5720  177.4850  144.3700 N   0  0  0  0  0  0  0  0  0  0  0  0
  182.5330  178.5470  143.6110 C   0  0  0  0  0  0  0  0  0  0  0  0
  184.7100  178.8550  144.6260 C   0  0  0  0  0  0  0  0  0  0  0  0
  189.4480  176.0140  142.5140 C   0  0  0  0  0  2  0  0  0  0  0  0
  185.3310  178.5960  143.3900 C   0  0  0  0  0  0  0  0  0  0  0  0
  188.4100  177.8690  139.9190 C   0  0  1  0  0  3  0  0  0  0  0  0
  185.5360  179.1940  145.8200 C   0  0  0  0  0  2  0  0  0  0  0  0
  190.3920  176.7850  140.4680 C   0  0  0  0  0  2  0  0  0  0  0  0
  190.4120  176.9350  141.9260 N   0  0  0  0  0  2  0  0  0  0  0  0
  188.2500  178.5450  141.2830 C   0  0  0  0  0  2  0  0  0  0  0  0
  191.3500  176.2550  147.3440 C   0  0  0  0  0  3  0  0  0  0  0  0
  189.5070  177.0580  145.3820 C   0  0  0  0  0  0  0  0  0  0  0  0
  190.8580  176.8660  145.0540 C   0  0  0  0  0  3  0  0  0  0  0  0
  191.7750  176.4650  146.0290 C   0  0  0  0  0  3  0  0  0  0  0  0
  190.0090  176.4480  147.6820 C   0  0  0  0  0  3  0  0  0  0  0  0
  189.0920  176.8500  146.7060 C   0  0  0  0  0  3  0  0  0  0  0  0
  1 15  1  6  0  0  0
  1 12  1  0  0  0  0
  2  6  1  1  0  0  0
  3 21  1  6  0  0  0
  3  1  1  0  0  0  0
  3 11  1  0  0  0  0
  6 18  1  0  0  0  0
  7  9  2  0  0  0  0
  7 16  1  0  0  0  0
  9 13  1  0  0  0  0
 10 19  1  0  0  0  0
 11 16  1  1  0  0  0
 11  2  1  0  0  0  0
 12  2  1  0  0  0  0
 12 23  1  0  0  0  0
 13  5  1  0  0  0  0
 13  4  2  0  0  0  0
 14  4  1  0  0  0  0
 14 18  1  0  0  0  0
 16 14  2  0  0  0  0
 17  8  1  6  0  0  0
 17 10  1  0  0  0  0
 17 21  1  0  0  0  0
 19 20  1  0  0  0  0
 20 15  1  0  0  0  0
 22 26  1  0  0  0  0
 23 27  1  0  0  0  0
 24 23  2  0  0  0  0
 24 25  1  0  0  0  0
 25 22  2  0  0  0  0
 27 26  2  0  0  0  0
M  END
>  <MODEL>
1

>  <REMARK>
 VINA RESULT:     -10.0      0.000      0.000
  Name = 
  1 active torsions:
  status: ('A' for Active; 'I' for Inactive)
    1  A    between atoms: C_9  and  N_15
                            x       y       z     vdW  Elec       q    Type
                         _______ _______ _______ _____ _____    ______ ____

>  <TORSDO>
F 1

$$$$
=
 OpenBabel11052413403D

 27 31  0  0  1  0  0  0  0  0999 V2000
  187.2070  177.1390  143.1710 C   0  0  2  0  0  3  0  0  0  0  0  0
  186.0450  179.0360  144.0780 C   0  0  2  0  0  3  0  0  0  0  0  0
  186.6210  177.8900  141.9600 C   0  0  1  0  0  3  0  0  0  0  0  0
  181.8720  178.7840  142.9090 C   0  0  0  0  0  3  0  0  0  0  0  0
  180.1900  178.1200  141.3570 F   0  0  0  0  0  0  0  0  0  0  0  0
  184.8640  178.8100  145.0350 C   0  0  0  0  0  2  0  0  0  0  0  0
  183.8300  178.1800  141.0070 C   0  0  0  0  0  3  0  0  0  0  0  0
  189.0910  178.8070  139.1000 C   0  0  0  0  0  1  0  0  0  0  0  0
  182.4790  177.9970  140.7020 C   0  0  0  0  0  3  0  0  0  0  0  0
  188.9800  176.7640  140.4310 O   0  0  0  0  0  0  0  0  0  0  0  0
  185.6740  178.9150  142.5780 C   0  0  1  0  0  3  0  0  0  0  0  0
  187.0690  178.0270  144.3180 N   0  0  0  0  0  0  0  0  0  0  0  0
  181.5010  178.2930  141.6540 C   0  0  0  0  0  0  0  0  0  0  0  0
  183.2240  178.9580  143.2210 C   0  0  0  0  0  0  0  0  0  0  0  0
  188.5900  176.4780  143.0290 C   0  0  0  0  0  2  0  0  0  0  0  0
  184.2160  178.6430  142.2740 C   0  0  0  0  0  0  0  0  0  0  0  0
  188.2670  177.9120  140.0130 C   0  0  1  0  0  3  0  0  0  0  0  0
  183.6090  179.5170  144.5480 C   0  0  0  0  0  2  0  0  0  0  0  0
  190.0590  177.1300  141.2720 C   0  0  0  0  0  2  0  0  0  0  0  0
  189.6130  177.4360  142.6350 N   0  0  0  0  0  2  0  0  0  0  0  0
  187.6400  178.7070  141.1610 C   0  0  0  0  0  2  0  0  0  0  0  0
  188.8760  177.4510  148.1230 C   0  0  0  0  0  3  0  0  0  0  0  0
  187.6740  177.8220  145.6120 C   0  0  0  0  0  0  0  0  0  0  0  0
  189.0620  177.6480  145.7180 C   0  0  0  0  0  3  0  0  0  0  0  0
  189.6600  177.4610  146.9670 C   0  0  0  0  0  3  0  0  0  0  0  0
  187.4930  177.6280  148.0290 C   0  0  0  0  0  3  0  0  0  0  0  0
  186.8950  177.8150  146.7790 C   0  0  0  0  0  3  0  0  0  0  0  0
  1 15  1  6  0  0  0
  1 12  1  0  0  0  0
  2 12  1  0  0  0  0
  2  6  1  1  0  0  0
  3 21  1  1  0  0  0
  3 11  1  0  0  0  0
  3  1  1  0  0  0  0
  4 14  1  0  0  0  0
  5 13  1  0  0  0  0
  7 16  1  0  0  0  0
  9  7  2  0  0  0  0
  9 13  1  0  0  0  0
 10 19  1  0  0  0  0
 11 16  1  1  0  0  0
 11  2  1  0  0  0  0
 12 23  1  0  0  0  0
 13  4  2  0  0  0  0
 14 18  1  0  0  0  0
 16 14  2  0  0  0  0
 17  8  1  1  0  0  0
 17 10  1  0  0  0  0
 17 21  1  0  0  0  0
 18  6  1  0  0  0  0
 19 20  1  0  0  0  0
 20 15  1  0  0  0  0
 23 24  2  0  0  0  0
 23 27  1  0  0  0  0
 24 25  1  0  0  0  0
 25 22  2  0  0  0  0
 26 22  1  0  0  0  0
 27 26  2  0  0  0  0
M  END
>  <MODEL>
2

>  <REMARK>
 VINA RESULT:      -9.9      1.245      1.818
  Name = 
  1 active torsions:
  status: ('A' for Active; 'I' for Inactive)
    1  A    between atoms: C_9  and  N_15
                            x       y       z     vdW  Elec       q    Type
                         _______ _______ _______ _____ _____    ______ ____

>  <TORSDO>
F 1

$$$$
=
 OpenBabel11052413403D

 27 31  0  0  1  0  0  0  0  0999 V2000
  187.5560  177.1550  142.9340 C   0  0  2  0  0  3  0  0  0  0  0  0
  187.0070  178.7810  141.2540 C   0  0  2  0  0  3  0  0  0  0  0  0
  188.8710  177.4410  142.1830 C   0  0  1  0  0  3  0  0  0  0  0  0
  187.9370  177.1070  137.3590 C   0  0  0  0  0  3  0  0  0  0  0  0
  189.2560  175.6850  135.9740 F   0  0  0  0  0  0  0  0  0  0  0  0
  185.9790  178.4260  140.1690 C   0  0  0  0  0  2  0  0  0  0  0  0
  189.7530  176.7150  139.4480 C   0  0  0  0  0  3  0  0  0  0  0  0
  191.9510  178.4230  144.3430 C   0  0  0  0  0  1  0  0  0  0  0  0
  189.9610  176.0930  138.2140 C   0  0  0  0  0  3  0  0  0  0  0  0
  190.2310  176.7520  144.7990 O   0  0  0  0  0  0  0  0  0  0  0  0
  188.4360  178.2550  140.9660 C   0  0  1  0  0  3  0  0  0  0  0  0
  186.6080  178.1810  142.5210 N   0  0  0  0  0  0  0  0  0  0  0  0
  189.0510  176.2850  137.1720 C   0  0  0  0  0  0  0  0  0  0  0  0
  187.7200  177.7230  138.5960 C   0  0  0  0  0  0  0  0  0  0  0  0
  187.6150  176.9040  144.4520 C   0  0  0  0  0  2  0  0  0  0  0  0
  188.6220  177.5180  139.6570 C   0  0  0  0  0  0  0  0  0  0  0  0
  190.8440  177.5350  143.7940 C   0  0  1  0  0  3  0  0  0  0  0  0
  186.5490  178.6280  138.7740 C   0  0  0  0  0  2  0  0  0  0  0  0
  189.5240  177.5770  145.7070 C   0  0  0  0  0  2  0  0  0  0  0  0
  188.2350  178.0140  145.1630 N   0  0  0  0  0  2  0  0  0  0  0  0
  189.8570  178.3340  142.9390 C   0  0  0  0  0  2  0  0  0  0  0  0
  182.8380  178.9420  144.3330 C   0  0  0  0  0  3  0  0  0  0  0  0
  185.3240  178.4280  143.1310 C   0  0  0  0  0  0  0  0  0  0  0  0
  185.2450  178.7490  144.4950 C   0  0  0  0  0  3  0  0  0  0  0  0
  184.0080  179.0030  145.0940 C   0  0  0  0  0  3  0  0  0  0  0  0
  182.9060  178.6280  142.9730 C   0  0  0  0  0  3  0  0  0  0  0  0
  184.1430  178.3740  142.3740 C   0  0  0  0  0  3  0  0  0  0  0  0
  1 15  1  1  0  0  0
  2  6  1  6  0  0  0
  2 12  1  0  0  0  0
  3  1  1  0  0  0  0
  3 21  1  1  0  0  0
  4 14  1  0  0  0  0
  5 13  1  0  0  0  0
  7 16  1  0  0  0  0
  9  7  2  0  0  0  0
 10 19  1  0  0  0  0
 11 16  1  6  0  0  0
 11  2  1  0  0  0  0
 11  3  1  0  0  0  0
 12  1  1  0  0  0  0
 12 23  1  0  0  0  0
 13  4  2  0  0  0  0
 13  9  1  0  0  0  0
 14 18  1  0  0  0  0
 14 16  2  0  0  0  0
 15 20  1  0  0  0  0
 17  8  1  1  0  0  0
 17 10  1  0  0  0  0
 18  6  1  0  0  0  0
 20 19  1  0  0  0  0
 21 17  1  0  0  0  0
 22 25  1  0  0  0  0
 23 24  1  0  0  0  0
 24 25  2  0  0  0  0
 26 22  2  0  0  0  0
 27 26  1  0  0  0  0
 27 23  2  0  0  0  0
M  END
>  <MODEL>
3

>  <REMARK>
 VINA RESULT:      -9.2      2.880      6.311
  Name = 
  1 active torsions:
  status: ('A' for Active; 'I' for Inactive)
    1  A    between atoms: C_9  and  N_15
                            x       y       z     vdW  Elec       q    Type
                         _______ _______ _______ _____ _____    ______ ____

>  <TORSDO>
F 1

$$$$
=
 OpenBabel11052413403D

 27 31  0  0  1  0  0  0  0  0999 V2000
  187.7380  178.6290  142.4080 C   0  0  2  0  0  3  0  0  0  0  0  0
  187.0310  176.9390  143.9610 C   0  0  2  0  0  3  0  0  0  0  0  0
  188.9260  177.6550  142.5360 C   0  0  1  0  0  3  0  0  0  0  0  0
  189.7600  176.9400  147.3370 C   0  0  0  0  0  3  0  0  0  0  0  0
  191.9370  177.2820  148.2430 F   0  0  0  0  0  0  0  0  0  0  0  0
  186.6690  177.3400  145.4000 C   0  0  0  0  0  2  0  0  0  0  0  0
  190.8230  177.1730  144.7620 C   0  0  0  0  0  3  0  0  0  0  0  0
  190.3790  176.2130  139.2300 C   0  0  0  0  0  1  0  0  0  0  0  0
  191.6580  177.2870  145.8760 C   0  0  0  0  0  3  0  0  0  0  0  0
  189.5890  178.4750  139.6970 O   0  0  0  0  0  0  0  0  0  0  0  0
  188.5520  176.7640  143.7190 C   0  0  1  0  0  3  0  0  0  0  0  0
  186.5970  177.9800  143.0380 N   0  0  0  0  0  0  0  0  0  0  0  0
  191.1260  177.1760  147.1620 C   0  0  0  0  0  0  0  0  0  0  0  0
  188.9200  176.8350  146.2240 C   0  0  0  0  0  0  0  0  0  0  0  0
  187.4470  179.2570  141.0330 C   0  0  0  0  0  2  0  0  0  0  0  0
  189.4450  176.9660  144.9250 C   0  0  0  0  0  0  0  0  0  0  0  0
  190.0370  177.2640  140.2760 C   0  0  1  0  0  3  0  0  0  0  0  0
  187.4700  176.5460  146.4180 C   0  0  0  0  0  2  0  0  0  0  0  0
  188.3430  178.2830  139.0530 C   0  0  0  0  0  2  0  0  0  0  0  0
  187.2310  178.2450  140.0080 N   0  0  0  0  0  2  0  0  0  0  0  0
  189.1020  176.7040  141.3500 C   0  0  0  0  0  2  0  0  0  0  0  0
  182.5560  179.2830  142.8120 C   0  0  0  0  0  3  0  0  0  0  0  0
  185.2300  178.4340  142.9630 C   0  0  0  0  0  0  0  0  0  0  0  0
  184.4190  178.0470  141.8840 C   0  0  0  0  0  3  0  0  0  0  0  0
  183.0900  178.4700  141.8080 C   0  0  0  0  0  3  0  0  0  0  0  0
  183.3530  179.6710  143.8920 C   0  0  0  0  0  3  0  0  0  0  0  0
  184.6830  179.2460  143.9690 C   0  0  0  0  0  3  0  0  0  0  0  0
  1 15  1  6  0  0  0
  1  3  1  0  0  0  0
  1 12  1  0  0  0  0
  2  6  1  1  0  0  0
  3 21  1  6  0  0  0
  3 11  1  0  0  0  0
  6 18  1  0  0  0  0
  7 16  2  0  0  0  0
  7  9  1  0  0  0  0
  9 13  2  0  0  0  0
 10 17  1  0  0  0  0
 11  2  1  0  0  0  0
 11 16  1  1  0  0  0
 12  2  1  0  0  0  0
 13  4  1  0  0  0  0
 13  5  1  0  0  0  0
 14 18  1  0  0  0  0
 14  4  2  0  0  0  0
 16 14  1  0  0  0  0
 17  8  1  6  0  0  0
 17 21  1  0  0  0  0
 19 10  1  0  0  0  0
 19 20  1  0  0  0  0
 20 15  1  0  0  0  0
 22 26  1  0  0  0  0
 23 12  1  0  0  0  0
 23 27  1  0  0  0  0
 24 23  2  0  0  0  0
 25 24  1  0  0  0  0
 25 22  2  0  0  0  0
 26 27  2  0  0  0  0
M  END
>  <MODEL>
4

>  <REMARK>
 VINA RESULT:      -8.9      2.627      5.894
  Name = 
  1 active torsions:
  status: ('A' for Active; 'I' for Inactive)
    1  A    between atoms: C_9  and  N_15
                            x       y       z     vdW  Elec       q    Type
                         _______ _______ _______ _____ _____    ______ ____

>  <TORSDO>
F 1

$$$$
=
 OpenBabel11052413403D

 27 31  0  0  1  0  0  0  0  0999 V2000
  187.5380  177.0210  142.6070 C   0  0  2  0  0  3  0  0  0  0  0  0
  186.5860  178.9110  141.4700 C   0  0  2  0  0  3  0  0  0  0  0  0
  188.5240  177.3690  141.4750 C   0  0  1  0  0  3  0  0  0  0  0  0
  185.9220  177.8290  137.3190 C   0  0  0  0  0  3  0  0  0  0  0  0
  186.5290  176.5900  135.3760 F   0  0  0  0  0  0  0  0  0  0  0  0
  185.2130  178.7710  140.7940 C   0  0  0  0  0  2  0  0  0  0  0  0
  188.3130  177.0440  138.5360 C   0  0  0  0  0  3  0  0  0  0  0  0
  192.2460  177.8780  142.4800 C   0  0  0  0  0  1  0  0  0  0  0  0
  188.0140  176.6150  137.2410 C   0  0  0  0  0  3  0  0  0  0  0  0
  190.6490  176.2260  143.3050 O   0  0  0  0  0  0  0  0  0  0  0  0
  187.7660  178.3790  140.6170 C   0  0  1  0  0  3  0  0  0  0  0  0
  186.6050  178.1370  142.7040 N   0  0  0  0  0  0  0  0  0  0  0  0
  186.8170  177.0030  136.6350 C   0  0  0  0  0  0  0  0  0  0  0  0
  186.2140  178.2530  138.6190 C   0  0  0  0  0  0  0  0  0  0  0  0
  188.1050  176.5350  143.9530 C   0  0  0  0  0  2  0  0  0  0  0  0
  187.4080  177.8500  139.2450 C   0  0  0  0  0  0  0  0  0  0  0  0
  190.9380  177.1320  142.2580 C   0  0  1  0  0  3  0  0  0  0  0  0
  185.2710  179.1650  139.3280 C   0  0  0  0  0  2  0  0  0  0  0  0
  190.3880  176.9260  144.5070 C   0  0  0  0  0  2  0  0  0  0  0  0
  189.0370  177.4950  144.5300 N   0  0  0  0  0  2  0  0  0  0  0  0
  189.7930  178.0930  141.9320 C   0  0  0  0  0  2  0  0  0  0  0  0
  183.8060  178.7550  145.8430 C   0  0  0  0  0  3  0  0  0  0  0  0
  185.6480  178.3360  143.7650 C   0  0  0  0  0  0  0  0  0  0  0  0
  186.0830  178.4210  145.0970 C   0  0  0  0  0  3  0  0  0  0  0  0
  185.1670  178.6280  146.1310 C   0  0  0  0  0  3  0  0  0  0  0  0
  183.3620  178.6770  144.5210 C   0  0  0  0  0  3  0  0  0  0  0  0
  184.2800  178.4710  143.4860 C   0  0  0  0  0  3  0  0  0  0  0  0
  1 12  1  0  0  0  0
  1 15  1  1  0  0  0
  2  6  1  6  0  0  0
  2 12  1  0  0  0  0
  3 21  1  1  0  0  0
  3  1  1  0  0  0  0
  4 14  1  0  0  0  0
  5 13  1  0  0  0  0
  7 16  1  0  0  0  0
  9  7  2  0  0  0  0
 10 19  1  0  0  0  0
 11 16  1  6  0  0  0
 11  2  1  0  0  0  0
 11  3  1  0  0  0  0
 12 23  1  0  0  0  0
 13  9  1  0  0  0  0
 13  4  2  0  0  0  0
 14 16  2  0  0  0  0
 14 18  1  0  0  0  0
 15 20  1  0  0  0  0
 17  8  1  1  0  0  0
 17 10  1  0  0  0  0
 18  6  1  0  0  0  0
 19 20  1  0  0  0  0
 21 17  1  0  0  0  0
 22 25  1  0  0  0  0
 23 24  1  0  0  0  0
 24 25  2  0  0  0  0
 26 22  2  0  0  0  0
 27 23  2  0  0  0  0
 27 26  1  0  0  0  0
M  END
>  <MODEL>
5

>  <REMARK>
 VINA RESULT:      -8.5      2.774      5.486
  Name = 
  1 active torsions:
  status: ('A' for Active; 'I' for Inactive)
    1  A    between atoms: C_9  and  N_15
                            x       y       z     vdW  Elec       q    Type
                         _______ _______ _______ _____ _____    ______ ____

>  <TORSDO>
F 1

$$$$
=
 OpenBabel11052413403D

 27 31  0  0  1  0  0  0  0  0999 V2000
  184.1850  177.4570  138.6340 C   0  0  2  0  0  3  0  0  0  0  0  0
  186.2130  178.6290  139.1660 C   0  0  2  0  0  3  0  0  0  0  0  0
  183.8060  178.4760  139.7260 C   0  0  1  0  0  3  0  0  0  0  0  0
  187.0800  178.0400  143.3790 C   0  0  0  0  0  3  0  0  0  0  0  0
  186.3440  177.6900  145.6180 F   0  0  0  0  0  0  0  0  0  0  0  0
  187.4110  177.8470  139.7290 C   0  0  0  0  0  2  0  0  0  0  0  0
  184.4410  178.5630  142.6200 C   0  0  0  0  0  3  0  0  0  0  0  0
  180.8080  180.8330  138.9640 C   0  0  0  0  0  1  0  0  0  0  0  0
  184.7380  178.2530  143.9490 C   0  0  0  0  0  3  0  0  0  0  0  0
  181.0630  178.4620  138.4430 O   0  0  0  0  0  0  0  0  0  0  0  0
  185.1490  179.0020  140.2290 C   0  0  1  0  0  3  0  0  0  0  0  0
  185.5210  177.8170  138.1750 N   0  0  0  0  0  0  0  0  0  0  0  0
  186.0560  177.9860  144.3270 C   0  0  0  0  0  0  0  0  0  0  0  0
  186.7850  178.3400  142.0450 C   0  0  0  0  0  0  0  0  0  0  0  0
  183.1720  177.1700  137.5110 C   0  0  0  0  0  2  0  0  0  0  0  0
  185.4570  178.5900  141.6520 C   0  0  0  0  0  0  0  0  0  0  0  0
  181.5320  179.5260  139.2490 C   0  0  1  0  0  3  0  0  0  0  0  0
  187.8890  178.4320  141.0480 C   0  0  0  0  0  2  0  0  0  0  0  0
  181.3890  178.6900  137.0840 C   0  0  0  0  0  2  0  0  0  0  0  0
  182.7930  178.3820  136.7970 N   0  0  0  0  0  2  0  0  0  0  0  0
  183.0520  179.7070  139.2170 C   0  0  0  0  0  2  0  0  0  0  0  0
  187.5000  176.2200  134.7680 C   0  0  0  0  0  3  0  0  0  0  0  0
  186.1820  177.2680  137.0160 C   0  0  0  0  0  0  0  0  0  0  0  0
  186.7360  178.1240  136.0520 C   0  0  0  0  0  3  0  0  0  0  0  0
  187.3900  177.6030  134.9330 C   0  0  0  0  0  3  0  0  0  0  0  0
  186.9560  175.3580  135.7240 C   0  0  0  0  0  3  0  0  0  0  0  0
  186.3020  175.8800  136.8440 C   0  0  0  0  0  3  0  0  0  0  0  0
  1 15  1  6  0  0  0
  1  3  1  0  0  0  0
  2  6  1  1  0  0  0
  2 11  1  0  0  0  0
  3 21  1  6  0  0  0
  3 11  1  0  0  0  0
  4 13  1  0  0  0  0
  6 18  1  0  0  0  0
  7  9  1  0  0  0  0
  9 13  2  0  0  0  0
 10 17  1  0  0  0  0
 11 16  1  1  0  0  0
 12  1  1  0  0  0  0
 12  2  1  0  0  0  0
 13  5  1  0  0  0  0
 14  4  2  0  0  0  0
 16 14  1  0  0  0  0
 16  7  2  0  0  0  0
 17  8  1  6  0  0  0
 18 14  1  0  0  0  0
 19 10  1  0  0  0  0
 20 19  1  0  0  0  0
 20 15  1  0  0  0  0
 21 17  1  0  0  0  0
 22 25  2  0  0  0  0
 22 26  1  0  0  0  0
 23 12  1  0  0  0  0
 24 23  2  0  0  0  0
 25 24  1  0  0  0  0
 26 27  2  0  0  0  0
 27 23  1  0  0  0  0
M  END
>  <MODEL>
6

>  <REMARK>
 VINA RESULT:      -7.7      4.249      7.516
  Name = 
  1 active torsions:
  status: ('A' for Active; 'I' for Inactive)
    1  A    between atoms: C_9  and  N_15
                            x       y       z     vdW  Elec       q    Type
                         _______ _______ _______ _____ _____    ______ ____

>  <TORSDO>
F 1

$$$$
=
 OpenBabel11052413403D

 27 31  0  0  1  0  0  0  0  0999 V2000
  189.9780  175.8140  138.3410 C   0  0  2  0  0  3  0  0  0  0  0  0
  191.3970  177.3660  139.5030 C   0  0  2  0  0  3  0  0  0  0  0  0
  189.0290  176.8100  139.0360 C   0  0  1  0  0  3  0  0  0  0  0  0
  190.4510  177.1950  143.7360 C   0  0  0  0  0  3  0  0  0  0  0  0
  188.8850  176.8490  145.4980 F   0  0  0  0  0  0  0  0  0  0  0  0
  192.3350  176.8500  140.6050 C   0  0  0  0  0  2  0  0  0  0  0  0
  188.3450  177.1820  141.8960 C   0  0  0  0  0  3  0  0  0  0  0  0
  186.3480  178.5300  136.8070 C   0  0  0  0  0  1  0  0  0  0  0  0
  188.0850  177.0100  143.2580 C   0  0  0  0  0  3  0  0  0  0  0  0
  187.1310  176.2190  136.7520 O   0  0  0  0  0  0  0  0  0  0  0  0
  189.9390  177.6000  139.9740 C   0  0  1  0  0  3  0  0  0  0  0  0
  191.3160  176.3840  138.4300 N   0  0  0  0  0  0  0  0  0  0  0  0
  189.1380  177.0110  144.1770 C   0  0  0  0  0  0  0  0  0  0  0  0
  190.7160  177.3570  142.3720 C   0  0  0  0  0  0  0  0  0  0  0  0
  189.5940  175.2810  136.9490 C   0  0  0  0  0  2  0  0  0  0  0  0
  189.6630  177.3360  141.4380 C   0  0  0  0  0  0  0  0  0  0  0  0
  187.0560  177.3960  137.5330 C   0  0  1  0  0  3  0  0  0  0  0  0
  192.1150  177.5900  141.9150 C   0  0  0  0  0  2  0  0  0  0  0  0
  187.9710  176.4220  135.6310 C   0  0  0  0  0  2  0  0  0  0  0  0
  189.3920  176.3590  135.9900 N   0  0  0  0  0  2  0  0  0  0  0  0
  188.4010  177.8500  138.1050 C   0  0  0  0  0  2  0  0  0  0  0  0
  194.7250  174.9210  136.3500 C   0  0  0  0  0  3  0  0  0  0  0  0
  192.4800  175.8970  137.7290 C   0  0  0  0  0  0  0  0  0  0  0  0
  192.9020  174.5700  137.9030 C   0  0  0  0  0  3  0  0  0  0  0  0
  194.0190  174.0850  137.2190 C   0  0  0  0  0  3  0  0  0  0  0  0
  194.3110  176.2430  136.1650 C   0  0  0  0  0  3  0  0  0  0  0  0
  193.1920  176.7280  136.8500 C   0  0  0  0  0  3  0  0  0  0  0  0
  1 15  1  6  0  0  0
  1 12  1  0  0  0  0
  1  3  1  0  0  0  0
  2 11  1  0  0  0  0
  2  6  1  1  0  0  0
  3 21  1  6  0  0  0
  3 11  1  0  0  0  0
  4 13  1  0  0  0  0
  6 18  1  0  0  0  0
  7  9  1  0  0  0  0
  9 13  2  0  0  0  0
 10 17  1  0  0  0  0
 11 16  1  1  0  0  0
 12  2  1  0  0  0  0
 13  5  1  0  0  0  0
 14  4  2  0  0  0  0
 16  7  2  0  0  0  0
 16 14  1  0  0  0  0
 17  8  1  6  0  0  0
 17 21  1  0  0  0  0
 18 14  1  0  0  0  0
 19 20  1  0  0  0  0
 19 10  1  0  0  0  0
 20 15  1  0  0  0  0
 22 25  1  0  0  0  0
 23 24  1  0  0  0  0
 23 12  1  0  0  0  0
 25 24  2  0  0  0  0
 26 22  2  0  0  0  0
 26 27  1  0  0  0  0
 27 23  2  0  0  0  0
M  END
>  <MODEL>
7

>  <REMARK>
 VINA RESULT:      -7.7      3.704      6.950
  Name = 
  1 active torsions:
  status: ('A' for Active; 'I' for Inactive)
    1  A    between atoms: C_9  and  N_15
                            x       y       z     vdW  Elec       q    Type
                         _______ _______ _______ _____ _____    ______ ____

>  <TORSDO>
F 1

$$$$
=
 OpenBabel11052413403D

 27 31  0  0  1  0  0  0  0  0999 V2000
  186.8450  178.8530  144.0940 C   0  0  2  0  0  3  0  0  0  0  0  0
  188.0090  176.7630  143.8800 C   0  0  2  0  0  3  0  0  0  0  0  0
  186.4440  178.2900  142.7170 C   0  0  1  0  0  3  0  0  0  0  0  0
  190.5740  176.9660  140.3840 C   0  0  0  0  0  3  0  0  0  0  0  0
  191.0350  177.7870  138.1950 F   0  0  0  0  0  0  0  0  0  0  0  0
  189.5460  176.7490  143.9010 C   0  0  0  0  0  2  0  0  0  0  0  0
  187.9850  178.0040  140.2010 C   0  0  0  0  0  3  0  0  0  0  0  0
  182.6370  178.0290  141.9670 C   0  0  0  0  0  1  0  0  0  0  0  0
  188.8760  178.1570  139.1370 C   0  0  0  0  0  3  0  0  0  0  0  0
  183.8520  179.8010  143.1260 O   0  0  0  0  0  0  0  0  0  0  0  0
  187.3990  177.1180  142.5000 C   0  0  1  0  0  3  0  0  0  0  0  0
  187.5160  177.7740  144.8060 N   0  0  0  0  0  0  0  0  0  0  0  0
  190.1720  177.6430  139.2300 C   0  0  0  0  0  0  0  0  0  0  0  0
  189.6870  176.8200  141.4560 C   0  0  0  0  0  0  0  0  0  0  0  0
  185.7860  179.6100  144.9170 C   0  0  0  0  0  2  0  0  0  0  0  0
  188.3870  177.3530  141.3780 C   0  0  0  0  0  0  0  0  0  0  0  0
  183.9730  178.7030  142.2440 C   0  0  1  0  0  3  0  0  0  0  0  0
  190.1130  176.0640  142.6680 C   0  0  0  0  0  2  0  0  0  0  0  0
  183.4720  179.3590  144.4160 C   0  0  0  0  0  2  0  0  0  0  0  0
  184.6030  178.7960  145.1600 N   0  0  0  0  0  2  0  0  0  0  0  0
  185.0390  177.6850  142.6590 C   0  0  0  0  0  2  0  0  0  0  0  0
  188.5760  177.8440  148.9240 C   0  0  0  0  0  3  0  0  0  0  0  0
  187.8680  177.7870  146.2060 C   0  0  0  0  0  0  0  0  0  0  0  0
  189.2180  177.7940  146.5910 C   0  0  0  0  0  3  0  0  0  0  0  0
  189.5700  177.8200  147.9420 C   0  0  0  0  0  3  0  0  0  0  0  0
  187.2290  177.8430  148.5520 C   0  0  0  0  0  3  0  0  0  0  0  0
  186.8770  177.8170  147.1990 C   0  0  0  0  0  3  0  0  0  0  0  0
  1 12  1  0  0  0  0
  1 15  1  1  0  0  0
  2  6  1  6  0  0  0
  2 12  1  0  0  0  0
  3 21  1  1  0  0  0
  3  1  1  0  0  0  0
  4 14  1  0  0  0  0
  5 13  1  0  0  0  0
  7 16  1  0  0  0  0
  9 13  1  0  0  0  0
  9  7  2  0  0  0  0
 10 19  1  0  0  0  0
 11 16  1  6  0  0  0
 11  3  1  0  0  0  0
 11  2  1  0  0  0  0
 12 23  1  0  0  0  0
 13  4  2  0  0  0  0
 14 18  1  0  0  0  0
 15 20  1  0  0  0  0
 16 14  2  0  0  0  0
 17  8  1  1  0  0  0
 17 21  1  0  0  0  0
 17 10  1  0  0  0  0
 18  6  1  0  0  0  0
 19 20  1  0  0  0  0
 23 24  2  0  0  0  0
 23 27  1  0  0  0  0
 24 25  1  0  0  0  0
 25 22  2  0  0  0  0
 26 22  1  0  0  0  0
 27 26  2  0  0  0  0
M  END
>  <MODEL>
8

>  <REMARK>
 VINA RESULT:      -7.6      2.930      5.455
  Name = 
  1 active torsions:
  status: ('A' for Active; 'I' for Inactive)
    1  A    between atoms: C_9  and  N_15
                            x       y       z     vdW  Elec       q    Type
                         _______ _______ _______ _____ _____    ______ ____

>  <TORSDO>
F 1

$$$$
=
 OpenBabel11052413403D

 27 31  0  0  1  0  0  0  0  0999 V2000
  188.2030  177.1230  141.3680 C   0  0  2  0  0  3  0  0  0  0  0  0
  187.1850  178.9730  142.5130 C   0  0  2  0  0  3  0  0  0  0  0  0
  187.3800  177.8720  140.3030 C   0  0  1  0  0  3  0  0  0  0  0  0
  182.8740  178.6140  142.1490 C   0  0  0  0  0  3  0  0  0  0  0  0
  180.9470  177.9230  140.9310 F   0  0  0  0  0  0  0  0  0  0  0  0
  186.2130  178.7000  143.6720 C   0  0  0  0  0  2  0  0  0  0  0  0
  184.4510  178.0940  139.9000 C   0  0  0  0  0  3  0  0  0  0  0  0
  189.2390  178.8990  137.0460 C   0  0  0  0  0  1  0  0  0  0  0  0
  183.0720  177.8760  139.8530 C   0  0  0  0  0  3  0  0  0  0  0  0
  189.4350  176.8360  138.3350 O   0  0  0  0  0  0  0  0  0  0  0  0
  186.5400  178.8620  141.1090 C   0  0  1  0  0  3  0  0  0  0  0  0
  188.2620  177.9910  142.5370 N   0  0  0  0  0  0  0  0  0  0  0  0
  182.2850  178.1310  140.9780 C   0  0  0  0  0  0  0  0  0  0  0  0
  184.2560  178.8250  142.2030 C   0  0  0  0  0  0  0  0  0  0  0  0
  189.5510  176.5040  140.9550 C   0  0  0  0  0  2  0  0  0  0  0  0
  185.0590  178.5510  141.0800 C   0  0  0  0  0  0  0  0  0  0  0  0
  188.6260  177.9680  138.0810 C   0  0  1  0  0  3  0  0  0  0  0  0
  184.8710  179.3760  143.4430 C   0  0  0  0  0  2  0  0  0  0  0  0
  190.6430  177.2230  138.9640 C   0  0  0  0  0  2  0  0  0  0  0  0
  190.4560  177.4970  140.3920 N   0  0  0  0  0  2  0  0  0  0  0  0
  188.2070  178.7290  139.3410 C   0  0  0  0  0  2  0  0  0  0  0  0
  190.7520  177.4260  145.9360 C   0  0  0  0  0  3  0  0  0  0  0  0
  189.1060  177.7860  143.6890 C   0  0  0  0  0  0  0  0  0  0  0  0
  190.3610  178.4110  143.7600 C   0  0  0  0  0  3  0  0  0  0  0  0
  191.1810  178.2300  144.8770 C   0  0  0  0  0  3  0  0  0  0  0  0
  189.5030  176.8030  145.8780 C   0  0  0  0  0  3  0  0  0  0  0  0
  188.6830  176.9850  144.7600 C   0  0  0  0  0  3  0  0  0  0  0  0
  1 15  1  6  0  0  0
  1 12  1  0  0  0  0
  2 12  1  0  0  0  0
  2  6  1  1  0  0  0
  3 21  1  6  0  0  0
  3 11  1  0  0  0  0
  3  1  1  0  0  0  0
  4 14  1  0  0  0  0
  5 13  1  0  0  0  0
  7 16  1  0  0  0  0
  9  7  2  0  0  0  0
  9 13  1  0  0  0  0
 10 19  1  0  0  0  0
 11 16  1  1  0  0  0
 11  2  1  0  0  0  0
 12 23  1  0  0  0  0
 13  4  2  0  0  0  0
 14 18  1  0  0  0  0
 16 14  2  0  0  0  0
 17  8  1  6  0  0  0
 17 10  1  0  0  0  0
 17 21  1  0  0  0  0
 18  6  1  0  0  0  0
 19 20  1  0  0  0  0
 20 15  1  0  0  0  0
 23 24  2  0  0  0  0
 23 27  1  0  0  0  0
 24 25  1  0  0  0  0
 25 22  2  0  0  0  0
 26 22  1  0  0  0  0
 27 26  2  0  0  0  0
M  END
>  <MODEL>
9

>  <REMARK>
 VINA RESULT:      -7.5      1.540      2.133
  Name = 
  1 active torsions:
  status: ('A' for Active; 'I' for Inactive)
    1  A    between atoms: C_9  and  N_15
                            x       y       z     vdW  Elec       q    Type
                         _______ _______ _______ _____ _____    ______ ____

>  <TORSDO>
F 1

$$$$
