=
 OpenBabel11052414383D

 32 36  0  0  1  0  0  0  0  0999 V2000
  188.2590  177.9260  142.8000 C   0  0  0  0  0  0  0  0  0  0  0  0
  185.4880  178.4160  142.8930 C   0  0  0  0  0  0  0  0  0  0  0  0
  189.7720  177.9290  142.7810 C   0  0  0  0  0  2  0  0  0  0  0  0
  187.5540  178.1630  141.5930 C   0  0  0  0  0  0  0  0  0  0  0  0
  185.4370  178.7910  140.5030 C   0  0  0  0  0  3  0  0  0  0  0  0
  181.8230  178.5210  144.0400 C   0  0  0  0  0  2  0  0  0  0  0  0
  186.1690  178.4580  141.6490 C   0  0  0  0  0  0  0  0  0  0  0  0
  181.8690  178.9100  141.7950 C   0  0  0  0  0  2  0  0  0  0  0  0
  183.3850  178.9170  141.7680 C   0  0  0  0  0  0  0  0  0  0  0  0
  188.3760  178.2830  140.2910 C   0  0  1  0  0  3  0  0  0  0  0  0
  184.0570  178.9870  140.5550 C   0  0  0  0  0  3  0  0  0  0  0  0
  189.7000  177.5570  140.3430 C   0  0  0  0  0  3  0  0  0  0  0  0
  186.2080  178.1330  144.0530 C   0  0  0  0  0  3  0  0  0  0  0  0
  187.5740  177.8680  144.0340 C   0  0  0  0  0  0  0  0  0  0  0  0
  184.0990  178.6530  142.9540 C   0  0  0  0  0  0  0  0  0  0  0  0
  190.3370  177.3790  141.5010 C   0  0  0  0  0  3  0  0  0  0  0  0
  181.4080  179.4190  143.0250 O   0  0  0  0  0  0  0  0  0  0  0  0
  183.3460  178.6560  144.2730 C   0  0  0  0  0  2  0  0  0  0  0  0
  188.4120  177.5920  147.7700 C   0  0  0  0  0  0  0  0  0  0  0  0
  187.8520  177.8500  149.0200 O   0  0  0  0  0  1  0  0  0  0  0  0
  188.2810  177.6010  145.3270 C   0  0  0  0  0  0  0  0  0  0  0  0
  189.7190  177.1100  147.7090 C   0  0  0  0  0  3  0  0  0  0  0  0
  189.6080  177.1510  145.2930 C   0  0  0  0  0  3  0  0  0  0  0  0
  187.6940  177.8560  146.5890 C   0  0  0  0  0  0  0  0  0  0  0  0
  186.3140  178.4300  146.7030 C   0  0  0  0  0  1  0  0  0  0  0  0
  190.3350  176.9080  146.4660 C   0  0  0  0  0  0  0  0  0  0  0  0
  192.3270  175.6920  147.3260 C   0  0  0  0  0  1  0  0  0  0  0  0
  191.6800  176.5190  146.3530 O   0  0  0  0  0  0  0  0  0  0  0  0
  188.1650  177.1420  138.1830 C   0  0  0  0  0  3  0  0  0  0  0  0
  187.6510  177.9080  139.0890 N   0  0  0  0  0  0  0  0  0  0  0  0
  187.3470  176.7260  136.9950 C   0  0  0  0  0  2  0  0  0  0  0  0
  185.9200  177.2290  137.1210 C   0  0  0  0  0  1  0  0  0  0  0  0
  1 14  1  0  0  0  0
  2 15  1  0  0  0  0
  2 13  1  0  0  0  0
  3  1  1  0  0  0  0
  4  7  1  0  0  0  0
  4  1  2  0  0  0  0
  5 11  2  0  0  0  0
  5  7  1  0  0  0  0
  6 18  1  0  0  0  0
  7  2  2  0  0  0  0
  8 17  1  0  0  0  0
  9  8  1  0  0  0  0
  9 15  2  0  0  0  0
 10 30  1  6  0  0  0
 10 12  1  0  0  0  0
 10  4  1  0  0  0  0
 11  9  1  0  0  0  0
 12 16  2  0  0  0  0
 14 13  2  0  0  0  0
 14 21  1  0  0  0  0
 15 18  1  0  0  0  0
 16  3  1  0  0  0  0
 17  6  1  0  0  0  0
 19 20  1  0  0  0  0
 21 24  1  0  0  0  0
 22 19  1  0  0  0  0
 23 21  2  0  0  0  0
 23 26  1  0  0  0  0
 24 25  1  0  0  0  0
 24 19  2  0  0  0  0
 26 22  2  0  0  0  0
 28 26  1  0  0  0  0
 28 27  1  0  0  0  0
 29 30  2  0  0  0  0
 31 32  1  0  0  0  0
 31 29  1  0  0  0  0
M  END
>  <MODEL>
1

>  <REMARK>
 VINA RESULT:     -11.3      0.000      0.000
  Name = 
  4 active torsions:
  status: ('A' for Active; 'I' for Inactive)
    1  A    between atoms: C_13  and  C_18
    2  A    between atoms: C_14  and  N_29
    3  A    between atoms: O_15  and  C_26
    4  A    between atoms: C_16  and  C_27
                            x       y       z     vdW  Elec       q    Type
                         _______ _______ _______ _____ _____    ______ ____

>  <TORSDO>
F 4

$$$$
=
 OpenBabel11052414383D

 32 36  0  0  1  0  0  0  0  0999 V2000
  186.8290  178.2120  141.7960 C   0  0  0  0  0  0  0  0  0  0  0  0
  187.6910  177.8750  144.4550 C   0  0  0  0  0  0  0  0  0  0  0  0
  186.4550  178.6470  140.3960 C   0  0  0  0  0  2  0  0  0  0  0  0
  185.9210  178.4530  142.8580 C   0  0  0  0  0  0  0  0  0  0  0  0
  185.5520  178.6420  145.2850 C   0  0  0  0  0  3  0  0  0  0  0  0
  189.6590  176.7320  147.5500 C   0  0  0  0  0  2  0  0  0  0  0  0
  186.3740  178.3290  144.1950 C   0  0  0  0  0  0  0  0  0  0  0  0
  187.6360  177.5130  148.2510 C   0  0  0  0  0  2  0  0  0  0  0  0
  187.2560  177.9540  146.8510 C   0  0  0  0  0  0  0  0  0  0  0  0
  184.5330  179.0310  142.5010 C   0  0  1  0  0  3  0  0  0  0  0  0
  185.9750  178.4260  146.5970 C   0  0  0  0  0  3  0  0  0  0  0  0
  184.0890  178.7130  141.0930 C   0  0  0  0  0  3  0  0  0  0  0  0
  188.5410  177.6040  143.3830 C   0  0  0  0  0  3  0  0  0  0  0  0
  188.1360  177.7430  142.0590 C   0  0  0  0  0  0  0  0  0  0  0  0
  188.1360  177.6940  145.7810 C   0  0  0  0  0  0  0  0  0  0  0  0
  184.9830  178.5170  140.1220 C   0  0  0  0  0  3  0  0  0  0  0  0
  189.0280  177.6430  148.4340 O   0  0  0  0  0  0  0  0  0  0  0  0
  189.5520  177.2480  146.0960 C   0  0  0  0  0  2  0  0  0  0  0  0
  191.3890  177.2680  140.0790 C   0  0  0  0  0  0  0  0  0  0  0  0
  192.7700  177.3530  140.2430 O   0  0  0  0  0  1  0  0  0  0  0  0
  189.1160  177.4600  140.9640 C   0  0  0  0  0  0  0  0  0  0  0  0
  190.8840  176.9550  138.8180 C   0  0  0  0  0  3  0  0  0  0  0  0
  188.6340  177.1800  139.6780 C   0  0  0  0  0  3  0  0  0  0  0  0
  190.5170  177.5380  141.1500 C   0  0  0  0  0  0  0  0  0  0  0  0
  191.1060  177.9280  142.4720 C   0  0  0  0  0  1  0  0  0  0  0  0
  189.4980  176.9320  138.6030 C   0  0  0  0  0  0  0  0  0  0  0  0
  187.5330  176.5910  137.1190 C   0  0  0  0  0  1  0  0  0  0  0  0
  188.9420  176.7200  137.3300 O   0  0  0  0  0  0  0  0  0  0  0  0
  182.2500  179.0330  143.2590 C   0  0  0  0  0  3  0  0  0  0  0  0
  183.4820  178.6880  143.4440 N   0  0  0  0  0  0  0  0  0  0  0  0
  181.1900  178.5910  144.2260 C   0  0  0  0  0  2  0  0  0  0  0  0
  179.8170  178.6410  143.5790 C   0  0  0  0  0  1  0  0  0  0  0  0
  1 14  2  0  0  0  0
  1  4  1  0  0  0  0
  2 15  1  0  0  0  0
  3  1  1  0  0  0  0
  4  7  2  0  0  0  0
  5 11  2  0  0  0  0
  6 17  1  0  0  0  0
  7  2  1  0  0  0  0
  7  5  1  0  0  0  0
  8 17  1  0  0  0  0
  9  8  1  0  0  0  0
 10  4  1  0  0  0  0
 10 30  1  1  0  0  0
 11  9  1  0  0  0  0
 12 10  1  0  0  0  0
 13  2  2  0  0  0  0
 14 13  1  0  0  0  0
 15 18  1  0  0  0  0
 15  9  2  0  0  0  0
 16  3  1  0  0  0  0
 16 12  2  0  0  0  0
 18  6  1  0  0  0  0
 19 20  1  0  0  0  0
 19 24  1  0  0  0  0
 21 24  2  0  0  0  0
 21 14  1  0  0  0  0
 22 19  2  0  0  0  0
 23 21  1  0  0  0  0
 24 25  1  0  0  0  0
 26 22  1  0  0  0  0
 26 23  2  0  0  0  0
 27 28  1  0  0  0  0
 28 26  1  0  0  0  0
 29 30  2  0  0  0  0
 29 31  1  0  0  0  0
 32 31  1  0  0  0  0
M  END
>  <MODEL>
2

>  <REMARK>
 VINA RESULT:     -10.5      2.470      6.823
  Name = 
  4 active torsions:
  status: ('A' for Active; 'I' for Inactive)
    1  A    between atoms: C_13  and  C_18
    2  A    between atoms: C_14  and  N_29
    3  A    between atoms: O_15  and  C_26
    4  A    between atoms: C_16  and  C_27
                            x       y       z     vdW  Elec       q    Type
                         _______ _______ _______ _____ _____    ______ ____

>  <TORSDO>
F 4

$$$$
=
 OpenBabel11052414383D

 32 36  0  0  1  0  0  0  0  0999 V2000
  188.3620  177.7280  141.0120 C   0  0  0  0  0  0  0  0  0  0  0  0
  189.6660  177.1840  143.4480 C   0  0  0  0  0  0  0  0  0  0  0  0
  187.7870  178.2590  139.7180 C   0  0  0  0  0  2  0  0  0  0  0  0
  187.7110  178.0360  142.2340 C   0  0  0  0  0  0  0  0  0  0  0  0
  187.8390  178.1730  144.6890 C   0  0  0  0  0  3  0  0  0  0  0  0
  192.0260  175.6890  146.0850 C   0  0  0  0  0  2  0  0  0  0  0  0
  188.3910  177.8050  143.4560 C   0  0  0  0  0  0  0  0  0  0  0  0
  190.2900  176.6840  147.1770 C   0  0  0  0  0  2  0  0  0  0  0  0
  189.7090  177.2210  145.8840 C   0  0  0  0  0  0  0  0  0  0  0  0
  186.3660  178.7930  142.1610 C   0  0  1  0  0  3  0  0  0  0  0  0
  188.4740  177.8560  145.8910 C   0  0  0  0  0  3  0  0  0  0  0  0
  185.6250  178.5860  140.8620 C   0  0  0  0  0  3  0  0  0  0  0  0
  190.2540  176.8530  142.2270 C   0  0  0  0  0  3  0  0  0  0  0  0
  189.6240  177.0930  141.0090 C   0  0  0  0  0  0  0  0  0  0  0  0
  190.3280  176.8990  144.6600 C   0  0  0  0  0  0  0  0  0  0  0  0
  186.2850  178.3210  139.7340 C   0  0  0  0  0  3  0  0  0  0  0  0
  191.6960  176.6350  147.0880 O   0  0  0  0  0  0  0  0  0  0  0  0
  191.7100  176.2710  144.6880 C   0  0  0  0  0  2  0  0  0  0  0  0
  192.3220  176.6330  138.3190 C   0  0  0  0  0  0  0  0  0  0  0  0
  193.6750  176.8830  138.0980 O   0  0  0  0  0  1  0  0  0  0  0  0
  190.3340  176.7360  139.7410 C   0  0  0  0  0  0  0  0  0  0  0  0
  191.5700  176.0690  137.2890 C   0  0  0  0  0  3  0  0  0  0  0  0
  189.5930  176.2010  138.6780 C   0  0  0  0  0  3  0  0  0  0  0  0
  191.7120  176.9840  139.5370 C   0  0  0  0  0  0  0  0  0  0  0  0
  192.5480  177.6430  140.5920 C   0  0  0  0  0  1  0  0  0  0  0  0
  190.1910  175.8700  137.4540 C   0  0  0  0  0  0  0  0  0  0  0  0
  187.9830  175.7230  136.3210 C   0  0  0  0  0  1  0  0  0  0  0  0
  189.3740  175.3980  136.4140 O   0  0  0  0  0  0  0  0  0  0  0  0
  184.5640  179.3840  143.6420 C   0  0  0  0  0  3  0  0  0  0  0  0
  185.4790  178.5440  143.2850 N   0  0  0  0  0  0  0  0  0  0  0  0
  183.6260  179.0470  144.7640 C   0  0  0  0  0  2  0  0  0  0  0  0
  184.3980  178.6350  146.0050 C   0  0  0  0  0  1  0  0  0  0  0  0
  1  4  1  0  0  0  0
  2  7  1  0  0  0  0
  2 15  1  0  0  0  0
  3 16  1  0  0  0  0
  3  1  1  0  0  0  0
  4  7  2  0  0  0  0
  5 11  2  0  0  0  0
  6 17  1  0  0  0  0
  7  5  1  0  0  0  0
  9 11  1  0  0  0  0
  9  8  1  0  0  0  0
 10  4  1  0  0  0  0
 10 30  1  1  0  0  0
 12 10  1  0  0  0  0
 13  2  2  0  0  0  0
 14  1  2  0  0  0  0
 14 13  1  0  0  0  0
 15 18  1  0  0  0  0
 15  9  2  0  0  0  0
 16 12  2  0  0  0  0
 17  8  1  0  0  0  0
 18  6  1  0  0  0  0
 19 24  1  0  0  0  0
 20 19  1  0  0  0  0
 21 14  1  0  0  0  0
 22 26  1  0  0  0  0
 22 19  2  0  0  0  0
 23 21  1  0  0  0  0
 24 21  2  0  0  0  0
 24 25  1  0  0  0  0
 26 23  2  0  0  0  0
 27 28  1  0  0  0  0
 28 26  1  0  0  0  0
 29 31  1  0  0  0  0
 30 29  2  0  0  0  0
 31 32  1  0  0  0  0
M  END
>  <MODEL>
3

>  <REMARK>
 VINA RESULT:     -10.4      2.919      7.683
  Name = 
  4 active torsions:
  status: ('A' for Active; 'I' for Inactive)
    1  A    between atoms: C_13  and  C_18
    2  A    between atoms: C_14  and  N_29
    3  A    between atoms: O_15  and  C_26
    4  A    between atoms: C_16  and  C_27
                            x       y       z     vdW  Elec       q    Type
                         _______ _______ _______ _____ _____    ______ ____

>  <TORSDO>
F 4

$$$$
=
 OpenBabel11052414383D

 32 36  0  0  1  0  0  0  0  0999 V2000
  185.8970  178.2680  144.1840 C   0  0  0  0  0  0  0  0  0  0  0  0
  187.7320  177.9140  142.0770 C   0  0  0  0  0  0  0  0  0  0  0  0
  184.9730  178.7200  145.2930 C   0  0  0  0  0  2  0  0  0  0  0  0
  187.2590  178.0090  144.4830 C   0  0  0  0  0  0  0  0  0  0  0  0
  189.5580  177.7150  143.6520 C   0  0  0  0  0  3  0  0  0  0  0  0
  189.2490  177.1700  138.6270 C   0  0  0  0  0  2  0  0  0  0  0  0
  188.1870  177.8800  143.4200 C   0  0  0  0  0  0  0  0  0  0  0  0
  190.9200  177.0450  140.1720 C   0  0  0  0  0  2  0  0  0  0  0  0
  190.0000  177.4990  141.2890 C   0  0  0  0  0  0  0  0  0  0  0  0
  187.6950  178.0760  145.9640 C   0  0  1  0  0  3  0  0  0  0  0  0
  190.4500  177.4950  142.6030 C   0  0  0  0  0  3  0  0  0  0  0  0
  186.5720  177.8110  146.9380 C   0  0  0  0  0  3  0  0  0  0  0  0
  186.3770  178.1250  141.8230 C   0  0  0  0  0  3  0  0  0  0  0  0
  185.4450  178.2840  142.8450 C   0  0  0  0  0  0  0  0  0  0  0  0
  188.6380  177.7320  141.0120 C   0  0  0  0  0  0  0  0  0  0  0  0
  185.3090  178.0940  146.6180 C   0  0  0  0  0  3  0  0  0  0  0  0
  190.5390  177.6530  138.9590 O   0  0  0  0  0  0  0  0  0  0  0  0
  188.1920  177.8020  139.5620 C   0  0  0  0  0  2  0  0  0  0  0  0
  182.2220  179.0110  140.8930 C   0  0  0  0  0  0  0  0  0  0  0  0
  181.7840  179.2590  139.5940 O   0  0  0  0  0  1  0  0  0  0  0  0
  184.0130  178.5350  142.4900 C   0  0  0  0  0  0  0  0  0  0  0  0
  181.2910  179.0500  141.9310 C   0  0  0  0  0  3  0  0  0  0  0  0
  183.0640  178.6160  143.5190 C   0  0  0  0  0  3  0  0  0  0  0  0
  183.5820  178.7720  141.1640 C   0  0  0  0  0  0  0  0  0  0  0  0
  184.5540  178.8000  140.0230 C   0  0  0  0  0  1  0  0  0  0  0  0
  181.7120  178.8750  143.2570 C   0  0  0  0  0  0  0  0  0  0  0  0
  179.4080  178.9810  144.1880 C   0  0  0  0  0  1  0  0  0  0  0  0
  180.8310  179.0030  144.3440 O   0  0  0  0  0  0  0  0  0  0  0  0
  189.6400  177.5190  147.2660 C   0  0  0  0  0  3  0  0  0  0  0  0
  188.8410  177.2430  146.2880 N   0  0  0  0  0  0  0  0  0  0  0  0
  190.7670  176.5870  147.6040 C   0  0  0  0  0  2  0  0  0  0  0  0
  191.6770  176.3850  146.4050 C   0  0  0  0  0  1  0  0  0  0  0  0
  1  4  1  0  0  0  0
  1  3  1  0  0  0  0
  2  7  1  0  0  0  0
  3 16  1  0  0  0  0
  4 10  1  0  0  0  0
  6 17  1  0  0  0  0
  6 18  1  0  0  0  0
  7  5  1  0  0  0  0
  7  4  2  0  0  0  0
  8  9  1  0  0  0  0
  9 11  1  0  0  0  0
 10 30  1  6  0  0  0
 10 12  1  0  0  0  0
 11  5  2  0  0  0  0
 13  2  2  0  0  0  0
 13 14  1  0  0  0  0
 14  1  2  0  0  0  0
 15  9  2  0  0  0  0
 15  2  1  0  0  0  0
 16 12  2  0  0  0  0
 17  8  1  0  0  0  0
 18 15  1  0  0  0  0
 19 24  2  0  0  0  0
 19 22  1  0  0  0  0
 20 19  1  0  0  0  0
 21 14  1  0  0  0  0
 21 23  2  0  0  0  0
 22 26  2  0  0  0  0
 24 21  1  0  0  0  0
 25 24  1  0  0  0  0
 26 23  1  0  0  0  0
 26 28  1  0  0  0  0
 27 28  1  0  0  0  0
 29 31  1  0  0  0  0
 30 29  2  0  0  0  0
 32 31  1  0  0  0  0
M  END
>  <MODEL>
4

>  <REMARK>
 VINA RESULT:     -10.3      2.642      7.825
  Name = 
  4 active torsions:
  status: ('A' for Active; 'I' for Inactive)
    1  A    between atoms: C_13  and  C_18
    2  A    between atoms: C_14  and  N_29
    3  A    between atoms: O_15  and  C_26
    4  A    between atoms: C_16  and  C_27
                            x       y       z     vdW  Elec       q    Type
                         _______ _______ _______ _____ _____    ______ ____

>  <TORSDO>
F 4

$$$$
=
 OpenBabel11052414383D

 32 36  0  0  1  0  0  0  0  0999 V2000
  189.1890  177.5780  142.3350 C   0  0  0  0  0  0  0  0  0  0  0  0
  186.5180  178.1300  143.0330 C   0  0  0  0  0  0  0  0  0  0  0  0
  190.5440  177.0240  141.9540 C   0  0  0  0  0  2  0  0  0  0  0  0
  188.8220  177.6240  143.7040 C   0  0  0  0  0  0  0  0  0  0  0  0
  187.0270  177.8210  145.3780 C   0  0  0  0  0  3  0  0  0  0  0  0
  182.8790  179.3590  142.9130 C   0  0  0  0  0  2  0  0  0  0  0  0
  187.4670  177.8540  144.0490 C   0  0  0  0  0  0  0  0  0  0  0  0
  183.4290  178.9990  145.0950 C   0  0  0  0  0  2  0  0  0  0  0  0
  184.7880  178.4400  144.7210 C   0  0  0  0  0  0  0  0  0  0  0  0
  189.8890  177.2250  144.7480 C   0  0  1  0  0  3  0  0  0  0  0  0
  185.7120  178.1420  145.7140 C   0  0  0  0  0  3  0  0  0  0  0  0
  191.3080  177.4170  144.2670 C   0  0  0  0  0  3  0  0  0  0  0  0
  186.9260  178.1210  141.6990 C   0  0  0  0  0  3  0  0  0  0  0  0
  188.2430  177.8710  141.3270 C   0  0  0  0  0  0  0  0  0  0  0  0
  185.1770  178.4160  143.3670 C   0  0  0  0  0  0  0  0  0  0  0  0
  191.6060  177.3410  142.9700 C   0  0  0  0  0  3  0  0  0  0  0  0
  182.4880  178.6820  144.0950 O   0  0  0  0  0  0  0  0  0  0  0  0
  184.1260  178.6760  142.3030 C   0  0  0  0  0  2  0  0  0  0  0  0
  188.0680  178.1610  137.5040 C   0  0  0  0  0  0  0  0  0  0  0  0
  187.1730  178.4980  136.4900 O   0  0  0  0  0  1  0  0  0  0  0  0
  188.5970  177.8500  139.8720 C   0  0  0  0  0  0  0  0  0  0  0  0
  189.3460  177.7300  137.1500 C   0  0  0  0  0  3  0  0  0  0  0  0
  189.8620  177.3860  139.4890 C   0  0  0  0  0  3  0  0  0  0  0  0
  187.6800  178.2080  138.8560 C   0  0  0  0  0  0  0  0  0  0  0  0
  186.2770  178.6210  139.1830 C   0  0  0  0  0  1  0  0  0  0  0  0
  190.2470  177.3160  138.1430 C   0  0  0  0  0  0  0  0  0  0  0  0
  192.5850  176.7550  138.7740 C   0  0  0  0  0  1  0  0  0  0  0  0
  191.5080  176.7810  137.8320 O   0  0  0  0  0  0  0  0  0  0  0  0
  189.8280  177.1860  147.1530 C   0  0  0  0  0  3  0  0  0  0  0  0
  189.7160  177.8490  146.0490 N   0  0  0  0  0  0  0  0  0  0  0  0
  189.7120  177.8930  148.4720 C   0  0  0  0  0  2  0  0  0  0  0  0
  188.2630  178.2310  148.7750 C   0  0  0  0  0  1  0  0  0  0  0  0
  1  4  1  0  0  0  0
  2 15  1  0  0  0  0
  2  7  1  0  0  0  0
  3  1  1  0  0  0  0
  3 16  1  0  0  0  0
  4  7  2  0  0  0  0
  4 10  1  0  0  0  0
  5 11  2  0  0  0  0
  6 17  1  0  0  0  0
  7  5  1  0  0  0  0
  9  8  1  0  0  0  0
  9 11  1  0  0  0  0
 10 30  1  1  0  0  0
 12 10  1  0  0  0  0
 13  2  2  0  0  0  0
 14 13  1  0  0  0  0
 14  1  2  0  0  0  0
 15  9  2  0  0  0  0
 16 12  2  0  0  0  0
 17  8  1  0  0  0  0
 18  6  1  0  0  0  0
 18 15  1  0  0  0  0
 19 24  1  0  0  0  0
 20 19  1  0  0  0  0
 21 14  1  0  0  0  0
 22 19  2  0  0  0  0
 22 26  1  0  0  0  0
 23 21  1  0  0  0  0
 24 25  1  0  0  0  0
 24 21  2  0  0  0  0
 26 23  2  0  0  0  0
 28 26  1  0  0  0  0
 28 27  1  0  0  0  0
 29 31  1  0  0  0  0
 30 29  2  0  0  0  0
 31 32  1  0  0  0  0
M  END
>  <MODEL>
5

>  <REMARK>
 VINA RESULT:     -10.2      2.822      6.520
  Name = 
  4 active torsions:
  status: ('A' for Active; 'I' for Inactive)
    1  A    between atoms: C_13  and  C_18
    2  A    between atoms: C_14  and  N_29
    3  A    between atoms: O_15  and  C_26
    4  A    between atoms: C_16  and  C_27
                            x       y       z     vdW  Elec       q    Type
                         _______ _______ _______ _____ _____    ______ ____

>  <TORSDO>
F 4

$$$$
=
 OpenBabel11052414383D

 32 36  0  0  1  0  0  0  0  0999 V2000
  186.2560  177.9840  144.3290 C   0  0  0  0  0  0  0  0  0  0  0  0
  186.6240  178.1050  141.5400 C   0  0  0  0  0  0  0  0  0  0  0  0
  186.0090  177.6570  145.7850 C   0  0  0  0  0  2  0  0  0  0  0  0
  185.1520  178.2920  143.4940 C   0  0  0  0  0  0  0  0  0  0  0  0
  184.2620  178.5100  141.2080 C   0  0  0  0  0  3  0  0  0  0  0  0
  188.2360  178.4490  138.0690 C   0  0  0  0  0  2  0  0  0  0  0  0
  185.3320  178.3030  142.0880 C   0  0  0  0  0  0  0  0  0  0  0  0
  185.9920  178.7760  137.8390 C   0  0  0  0  0  2  0  0  0  0  0  0
  185.7350  178.4480  139.2970 C   0  0  0  0  0  0  0  0  0  0  0  0
  183.7610  178.4070  144.1550 C   0  0  1  0  0  3  0  0  0  0  0  0
  184.4650  178.6140  139.8320 C   0  0  0  0  0  3  0  0  0  0  0  0
  183.8140  178.7730  145.6190 C   0  0  0  0  0  3  0  0  0  0  0  0
  187.6950  177.8490  142.3970 C   0  0  0  0  0  3  0  0  0  0  0  0
  187.5450  177.8030  143.7800 C   0  0  0  0  0  0  0  0  0  0  0  0
  186.8260  178.1690  140.1450 C   0  0  0  0  0  0  0  0  0  0  0  0
  184.8660  178.4400  146.3690 C   0  0  0  0  0  3  0  0  0  0  0  0
  187.0840  178.0230  137.3620 O   0  0  0  0  0  0  0  0  0  0  0  0
  188.1880  177.9210  139.5220 C   0  0  0  0  0  2  0  0  0  0  0  0
  190.9530  176.5230  144.9950 C   0  0  0  0  0  0  0  0  0  0  0  0
  192.0640  175.8170  144.5360 O   0  0  0  0  0  1  0  0  0  0  0  0
  188.7380  177.4960  144.6300 C   0  0  0  0  0  0  0  0  0  0  0  0
  190.9200  176.9200  146.3310 C   0  0  0  0  0  3  0  0  0  0  0  0
  188.7140  177.8510  145.9860 C   0  0  0  0  0  3  0  0  0  0  0  0
  189.8640  176.7900  144.1450 C   0  0  0  0  0  0  0  0  0  0  0  0
  189.9200  176.2910  142.7330 C   0  0  0  0  0  1  0  0  0  0  0  0
  189.7860  177.5680  146.8430 C   0  0  0  0  0  0  0  0  0  0  0  0
  188.4000  178.1750  148.8160 C   0  0  0  0  0  1  0  0  0  0  0  0
  189.6640  177.8990  148.2020 O   0  0  0  0  0  0  0  0  0  0  0  0
  181.5730  179.0280  143.3680 C   0  0  0  0  0  3  0  0  0  0  0  0
  182.8370  179.2850  143.4560 N   0  0  0  0  0  0  0  0  0  0  0  0
  180.6510  180.0040  142.6980 C   0  0  0  0  0  2  0  0  0  0  0  0
  180.4770  179.6590  141.2300 C   0  0  0  0  0  1  0  0  0  0  0  0
  1  3  1  0  0  0  0
  2  7  1  0  0  0  0
  2 13  1  0  0  0  0
  3 16  1  0  0  0  0
  4 10  1  0  0  0  0
  4  1  2  0  0  0  0
  5  7  2  0  0  0  0
  6 18  1  0  0  0  0
  7  4  1  0  0  0  0
  8  9  1  0  0  0  0
  9 11  2  0  0  0  0
  9 15  1  0  0  0  0
 10 30  1  6  0  0  0
 10 12  1  0  0  0  0
 11  5  1  0  0  0  0
 12 16  2  0  0  0  0
 13 14  2  0  0  0  0
 14  1  1  0  0  0  0
 14 21  1  0  0  0  0
 15  2  2  0  0  0  0
 17  8  1  0  0  0  0
 17  6  1  0  0  0  0
 18 15  1  0  0  0  0
 19 22  1  0  0  0  0
 20 19  1  0  0  0  0
 21 23  2  0  0  0  0
 22 26  2  0  0  0  0
 23 26  1  0  0  0  0
 24 21  1  0  0  0  0
 24 19  2  0  0  0  0
 25 24  1  0  0  0  0
 26 28  1  0  0  0  0
 28 27  1  0  0  0  0
 29 30  2  0  0  0  0
 31 29  1  0  0  0  0
 32 31  1  0  0  0  0
M  END
>  <MODEL>
6

>  <REMARK>
 VINA RESULT:     -10.1      2.237      5.174
  Name = 
  4 active torsions:
  status: ('A' for Active; 'I' for Inactive)
    1  A    between atoms: C_13  and  C_18
    2  A    between atoms: C_14  and  N_29
    3  A    between atoms: O_15  and  C_26
    4  A    between atoms: C_16  and  C_27
                            x       y       z     vdW  Elec       q    Type
                         _______ _______ _______ _____ _____    ______ ____

>  <TORSDO>
F 4

$$$$
=
 OpenBabel11052414383D

 32 36  0  0  1  0  0  0  0  0999 V2000
  187.6230  177.9010  143.4870 C   0  0  0  0  0  0  0  0  0  0  0  0
  189.1660  177.4890  141.1670 C   0  0  0  0  0  0  0  0  0  0  0  0
  186.7310  177.8620  144.7080 C   0  0  0  0  0  2  0  0  0  0  0  0
  187.0410  178.1300  142.2140 C   0  0  0  0  0  0  0  0  0  0  0  0
  187.2590  177.9920  139.7650 C   0  0  0  0  0  3  0  0  0  0  0  0
  192.1410  177.0850  138.7710 C   0  0  0  0  0  2  0  0  0  0  0  0
  187.8060  177.8740  141.0490 C   0  0  0  0  0  0  0  0  0  0  0  0
  190.2850  177.5210  137.5220 C   0  0  0  0  0  2  0  0  0  0  0  0
  189.3840  177.4810  138.7400 C   0  0  0  0  0  0  0  0  0  0  0  0
  185.5330  178.4600  142.1620 C   0  0  1  0  0  3  0  0  0  0  0  0
  188.0450  177.8300  138.6240 C   0  0  0  0  0  3  0  0  0  0  0  0
  185.0050  179.0810  143.4330 C   0  0  0  0  0  3  0  0  0  0  0  0
  189.7160  177.3190  142.4370 C   0  0  0  0  0  3  0  0  0  0  0  0
  188.9830  177.5340  143.6010 C   0  0  0  0  0  0  0  0  0  0  0  0
  189.9530  177.2840  140.0150 C   0  0  0  0  0  0  0  0  0  0  0  0
  185.5730  178.8160  144.6100 C   0  0  0  0  0  3  0  0  0  0  0  0
  191.3560  176.6200  137.6860 O   0  0  0  0  0  0  0  0  0  0  0  0
  191.4000  176.8330  140.1040 C   0  0  0  0  0  2  0  0  0  0  0  0
  191.3740  176.3340  146.3520 C   0  0  0  0  0  0  0  0  0  0  0  0
  192.5190  175.5580  146.5190 O   0  0  0  0  0  1  0  0  0  0  0  0
  189.6380  177.3030  144.9270 C   0  0  0  0  0  0  0  0  0  0  0  0
  190.7690  176.8840  147.4820 C   0  0  0  0  0  3  0  0  0  0  0  0
  189.0290  177.8130  146.0810 C   0  0  0  0  0  3  0  0  0  0  0  0
  190.8090  176.5230  145.0780 C   0  0  0  0  0  0  0  0  0  0  0  0
  191.4610  175.8630  143.9010 C   0  0  0  0  0  1  0  0  0  0  0  0
  189.5760  177.6090  147.3560 C   0  0  0  0  0  0  0  0  0  0  0  0
  187.4730  178.3820  148.4360 C   0  0  0  0  0  1  0  0  0  0  0  0
  188.8760  178.0980  148.4710 O   0  0  0  0  0  0  0  0  0  0  0  0
  184.0950  178.9750  140.3030 C   0  0  0  0  0  3  0  0  0  0  0  0
  185.1350  179.2590  141.0150 N   0  0  0  0  0  0  0  0  0  0  0  0
  183.6850  179.8740  139.1730 C   0  0  0  0  0  2  0  0  0  0  0  0
  182.2460  179.6060  138.7670 C   0  0  0  0  0  1  0  0  0  0  0  0
  1 14  1  0  0  0  0
  1  3  1  0  0  0  0
  2 13  1  0  0  0  0
  4  1  2  0  0  0  0
  5  7  2  0  0  0  0
  6 18  1  0  0  0  0
  7  2  1  0  0  0  0
  7  4  1  0  0  0  0
  8 17  1  0  0  0  0
  8  9  1  0  0  0  0
  9 15  1  0  0  0  0
 10 30  1  6  0  0  0
 10  4  1  0  0  0  0
 10 12  1  0  0  0  0
 11  9  2  0  0  0  0
 11  5  1  0  0  0  0
 12 16  2  0  0  0  0
 13 14  2  0  0  0  0
 14 21  1  0  0  0  0
 15 18  1  0  0  0  0
 15  2  2  0  0  0  0
 16  3  1  0  0  0  0
 17  6  1  0  0  0  0
 19 20  1  0  0  0  0
 19 22  1  0  0  0  0
 21 24  1  0  0  0  0
 21 23  2  0  0  0  0
 23 26  1  0  0  0  0
 24 19  2  0  0  0  0
 25 24  1  0  0  0  0
 26 22  2  0  0  0  0
 26 28  1  0  0  0  0
 27 28  1  0  0  0  0
 29 30  2  0  0  0  0
 31 29  1  0  0  0  0
 32 31  1  0  0  0  0
M  END
>  <MODEL>
7

>  <REMARK>
 VINA RESULT:      -9.9      2.247      5.416
  Name = 
  4 active torsions:
  status: ('A' for Active; 'I' for Inactive)
    1  A    between atoms: C_13  and  C_18
    2  A    between atoms: C_14  and  N_29
    3  A    between atoms: O_15  and  C_26
    4  A    between atoms: C_16  and  C_27
                            x       y       z     vdW  Elec       q    Type
                         _______ _______ _______ _____ _____    ______ ____

>  <TORSDO>
F 4

$$$$
=
 OpenBabel11052414383D

 32 36  0  0  1  0  0  0  0  0999 V2000
  187.9460  178.0170  141.9880 C   0  0  0  0  0  0  0  0  0  0  0  0
  185.2040  178.5110  141.5810 C   0  0  0  0  0  0  0  0  0  0  0  0
  189.4390  178.0190  142.2310 C   0  0  0  0  0  2  0  0  0  0  0  0
  187.4610  178.2100  140.6690 C   0  0  0  0  0  0  0  0  0  0  0  0
  185.5700  178.7980  139.2060 C   0  0  0  0  0  3  0  0  0  0  0  0
  181.3960  178.6590  142.0700 C   0  0  0  0  0  2  0  0  0  0  0  0
  186.0900  178.5070  140.4730 C   0  0  0  0  0  0  0  0  0  0  0  0
  181.8330  178.9650  139.8550 C   0  0  0  0  0  2  0  0  0  0  0  0
  183.3300  178.9710  140.0910 C   0  0  0  0  0  0  0  0  0  0  0  0
  188.4980  178.2810  139.5260 C   0  0  1  0  0  3  0  0  0  0  0  0
  184.2030  178.9950  139.0110 C   0  0  0  0  0  3  0  0  0  0  0  0
  189.7880  177.5580  139.8330 C   0  0  0  0  0  3  0  0  0  0  0  0
  185.7100  178.2710  142.8580 C   0  0  0  0  0  3  0  0  0  0  0  0
  187.0570  178.0050  143.0860 C   0  0  0  0  0  0  0  0  0  0  0  0
  183.8270  178.7500  141.3920 C   0  0  0  0  0  0  0  0  0  0  0  0
  190.2130  177.4230  141.0890 C   0  0  0  0  0  3  0  0  0  0  0  0
  181.1690  179.5190  140.9670 O   0  0  0  0  0  0  0  0  0  0  0  0
  182.8560  178.8020  142.5580 C   0  0  0  0  0  2  0  0  0  0  0  0
  187.2740  177.9560  146.9170 C   0  0  0  0  0  0  0  0  0  0  0  0
  186.5510  178.3510  148.0410 O   0  0  0  0  0  1  0  0  0  0  0  0
  187.5270  177.7850  144.4900 C   0  0  0  0  0  0  0  0  0  0  0  0
  188.5270  177.3720  147.1000 C   0  0  0  0  0  3  0  0  0  0  0  0
  188.7990  177.2350  144.7000 C   0  0  0  0  0  3  0  0  0  0  0  0
  186.7750  178.1810  145.6210 C   0  0  0  0  0  0  0  0  0  0  0  0
  185.4500  178.8660  145.4740 C   0  0  0  0  0  1  0  0  0  0  0  0
  189.3100  177.0280  145.9890 C   0  0  0  0  0  0  0  0  0  0  0  0
  191.6040  176.6790  145.0940 C   0  0  0  0  0  1  0  0  0  0  0  0
  190.6170  176.5300  146.1200 O   0  0  0  0  0  0  0  0  0  0  0  0
  188.6090  178.1260  137.1270 C   0  0  0  0  0  3  0  0  0  0  0  0
  187.9900  177.8620  138.2300 N   0  0  0  0  0  0  0  0  0  0  0  0
  188.0790  177.6080  135.8220 C   0  0  0  0  0  2  0  0  0  0  0  0
  186.5610  177.5730  135.8340 C   0  0  0  0  0  1  0  0  0  0  0  0
  1  3  1  0  0  0  0
  1 14  1  0  0  0  0
  2 13  1  0  0  0  0
  4  1  2  0  0  0  0
  5  7  1  0  0  0  0
  6 18  1  0  0  0  0
  7  4  1  0  0  0  0
  7  2  2  0  0  0  0
  8  9  1  0  0  0  0
  8 17  1  0  0  0  0
  9 15  2  0  0  0  0
 10 30  1  6  0  0  0
 10 12  1  0  0  0  0
 10  4  1  0  0  0  0
 11  5  2  0  0  0  0
 11  9  1  0  0  0  0
 12 16  2  0  0  0  0
 13 14  2  0  0  0  0
 14 21  1  0  0  0  0
 15  2  1  0  0  0  0
 15 18  1  0  0  0  0
 16  3  1  0  0  0  0
 17  6  1  0  0  0  0
 19 22  1  0  0  0  0
 19 20  1  0  0  0  0
 21 23  2  0  0  0  0
 21 24  1  0  0  0  0
 23 26  1  0  0  0  0
 24 19  2  0  0  0  0
 25 24  1  0  0  0  0
 26 28  1  0  0  0  0
 26 22  2  0  0  0  0
 27 28  1  0  0  0  0
 29 30  2  0  0  0  0
 31 32  1  0  0  0  0
 31 29  1  0  0  0  0
M  END
>  <MODEL>
8

>  <REMARK>
 VINA RESULT:      -9.8      1.187      1.420
  Name = 
  4 active torsions:
  status: ('A' for Active; 'I' for Inactive)
    1  A    between atoms: C_13  and  C_18
    2  A    between atoms: C_14  and  N_29
    3  A    between atoms: O_15  and  C_26
    4  A    between atoms: C_16  and  C_27
                            x       y       z     vdW  Elec       q    Type
                         _______ _______ _______ _____ _____    ______ ____

>  <TORSDO>
F 4

$$$$
=
 OpenBabel11052414383D

 32 36  0  0  1  0  0  0  0  0999 V2000
  183.6460  178.6830  141.8980 C   0  0  0  0  0  0  0  0  0  0  0  0
  185.9050  178.4150  140.2390 C   0  0  0  0  0  0  0  0  0  0  0  0
  182.4660  179.0920  142.7520 C   0  0  0  0  0  2  0  0  0  0  0  0
  184.9370  178.6380  142.4820 C   0  0  0  0  0  0  0  0  0  0  0  0
  187.3770  178.5970  142.1510 C   0  0  0  0  0  3  0  0  0  0  0  0
  188.1790  177.6080  137.2490 C   0  0  0  0  0  2  0  0  0  0  0  0
  186.0740  178.5520  141.6400 C   0  0  0  0  0  0  0  0  0  0  0  0
  189.4970  177.8400  139.0940 C   0  0  0  0  0  2  0  0  0  0  0  0
  188.3200  178.2530  139.9550 C   0  0  0  0  0  0  0  0  0  0  0  0
  185.0470  178.8840  144.0040 C   0  0  1  0  0  3  0  0  0  0  0  0
  188.4860  178.4160  141.3240 C   0  0  0  0  0  3  0  0  0  0  0  0
  183.7860  178.5480  144.7640 C   0  0  0  0  0  3  0  0  0  0  0  0
  184.6160  178.4170  139.7050 C   0  0  0  0  0  3  0  0  0  0  0  0
  183.4810  178.5280  140.5030 C   0  0  0  0  0  0  0  0  0  0  0  0
  187.0260  178.2730  139.3960 C   0  0  0  0  0  0  0  0  0  0  0  0
  182.5920  178.6280  144.1760 C   0  0  0  0  0  3  0  0  0  0  0  0
  189.3070  178.2900  137.7720 O   0  0  0  0  0  0  0  0  0  0  0  0
  186.8850  178.1640  137.8880 C   0  0  0  0  0  2  0  0  0  0  0  0
  180.1520  177.4590  138.9230 C   0  0  0  0  0  0  0  0  0  0  0  0
  179.4340  176.3080  138.6010 O   0  0  0  0  0  1  0  0  0  0  0  0
  182.1340  178.5510  139.8520 C   0  0  0  0  0  0  0  0  0  0  0  0
  179.6170  178.6990  138.5760 C   0  0  0  0  0  3  0  0  0  0  0  0
  181.5910  179.7820  139.4600 C   0  0  0  0  0  3  0  0  0  0  0  0
  181.4120  177.3740  139.5440 C   0  0  0  0  0  0  0  0  0  0  0  0
  181.9720  176.0160  139.8430 C   0  0  0  0  0  1  0  0  0  0  0  0
  180.3470  179.8710  138.8220 C   0  0  0  0  0  0  0  0  0  0  0  0
  180.7810  182.1330  137.8850 C   0  0  0  0  0  1  0  0  0  0  0  0
  179.8970  181.1340  138.4020 O   0  0  0  0  0  0  0  0  0  0  0  0
  186.3690  178.2520  145.9120 C   0  0  0  0  0  3  0  0  0  0  0  0
  186.1920  178.2460  144.6320 N   0  0  0  0  0  0  0  0  0  0  0  0
  187.5290  177.5160  146.5160 C   0  0  0  0  0  2  0  0  0  0  0  0
  188.7120  177.5030  145.5640 C   0  0  0  0  0  1  0  0  0  0  0  0
  1  4  1  0  0  0  0
  1  3  1  0  0  0  0
  2  7  1  0  0  0  0
  3 16  1  0  0  0  0
  4 10  1  0  0  0  0
  6 17  1  0  0  0  0
  6 18  1  0  0  0  0
  7  5  1  0  0  0  0
  7  4  2  0  0  0  0
  8  9  1  0  0  0  0
  9 11  1  0  0  0  0
 10 30  1  1  0  0  0
 10 12  1  0  0  0  0
 11  5  2  0  0  0  0
 13  2  2  0  0  0  0
 13 14  1  0  0  0  0
 14  1  2  0  0  0  0
 15  9  2  0  0  0  0
 15  2  1  0  0  0  0
 16 12  2  0  0  0  0
 17  8  1  0  0  0  0
 18 15  1  0  0  0  0
 19 24  1  0  0  0  0
 20 19  1  0  0  0  0
 21 14  1  0  0  0  0
 22 26  1  0  0  0  0
 22 19  2  0  0  0  0
 23 21  1  0  0  0  0
 24 25  1  0  0  0  0
 24 21  2  0  0  0  0
 26 23  2  0  0  0  0
 27 28  1  0  0  0  0
 28 26  1  0  0  0  0
 29 31  1  0  0  0  0
 30 29  2  0  0  0  0
 32 31  1  0  0  0  0
M  END
>  <MODEL>
9

>  <REMARK>
 VINA RESULT:      -9.7      3.223      8.735
  Name = 
  4 active torsions:
  status: ('A' for Active; 'I' for Inactive)
    1  A    between atoms: C_13  and  C_18
    2  A    between atoms: C_14  and  N_29
    3  A    between atoms: O_15  and  C_26
    4  A    between atoms: C_16  and  C_27
                            x       y       z     vdW  Elec       q    Type
                         _______ _______ _______ _____ _____    ______ ____

>  <TORSDO>
F 4

$$$$
