=
 OpenBabel11052413563D

 34 40  0  0  1  0  0  0  0  0999 V2000
  190.3240  176.9120  146.6670 N   0  0  1  0  0  0  0  0  0  0  0  0
  191.2690  175.3940  145.0690 C   0  0  1  0  0  3  0  0  0  0  0  0
  189.6990  177.2720  144.2680 C   0  0  0  0  0  0  0  0  0  0  0  0
  188.9910  177.8130  142.0080 C   0  0  0  0  0  0  0  0  0  0  0  0
  192.3280  175.7060  147.3090 C   0  0  0  0  0  3  0  0  0  0  0  0
  192.2420  175.0100  146.1610 C   0  0  0  0  0  3  0  0  0  0  0  0
  191.6340  177.4280  142.1900 S   0  0  0  0  0  0  0  0  0  0  0  0
  190.7800  176.8450  145.2650 C   0  0  1  0  0  3  0  0  0  0  0  0
  189.4380  177.9210  140.2870 S   0  0  0  0  0  0  0  0  0  0  0  0
  191.5090  176.9570  147.5160 C   0  0  0  0  0  2  0  0  0  0  0  0
  188.4030  177.6370  144.7310 C   0  0  0  0  0  0  0  0  0  0  0  0
  189.5020  178.0820  146.9110 C   0  0  0  0  0  2  0  0  0  0  0  0
  191.8550  175.1680  143.8420 F   0  0  0  0  0  0  0  0  0  0  0  0
  187.6820  177.9960  142.4390 C   0  0  0  0  0  3  0  0  0  0  0  0
  187.3670  177.9260  143.8030 C   0  0  0  0  0  0  0  0  0  0  0  0
  190.9020  176.8860  140.6160 C   0  0  1  0  0  3  0  0  0  0  0  0
  189.9960  177.4870  142.9030 C   0  0  0  0  0  0  0  0  0  0  0  0
  188.1770  177.8430  146.2070 C   0  0  0  0  0  2  0  0  0  0  0  0
  183.6330  178.6070  143.6470 C   0  0  0  0  0  0  0  0  0  0  0  0
  183.3220  178.7390  145.0020 C   0  0  0  0  0  3  0  0  0  0  0  0
  185.9620  178.1820  144.2110 C   0  0  0  0  0  0  0  0  0  0  0  0
  184.3250  178.6010  145.9630 C   0  0  0  0  0  3  0  0  0  0  0  0
  184.9460  178.3360  143.2540 C   0  0  0  0  0  3  0  0  0  0  0  0
  185.6380  178.3280  145.5700 C   0  0  0  0  0  3  0  0  0  0  0  0
  182.6610  178.7450  142.7120 F   0  0  0  0  0  0  0  0  0  0  0  0
  191.8720  177.0470  139.5480 N   0  0  0  0  0  2  0  0  0  0  0  0
  191.2290  176.6100  138.3190 C   0  0  0  0  0  2  0  0  0  0  0  0
  193.5060  176.0600  137.2090 C   0  0  0  0  0  2  0  0  0  0  0  0
  192.1130  175.6510  137.5930 C   0  0  0  0  0  0  0  0  0  0  0  0
  194.5110  174.9360  137.5090 C   0  0  1  0  0  3  0  0  0  0  0  0
  194.0320  173.5490  137.1710 C   0  0  1  0  0  3  0  0  0  0  0  0
  192.6150  173.4790  136.5800 C   0  0  0  0  0  2  0  0  0  0  0  0
  191.6880  174.4190  137.2940 C   0  0  0  0  0  3  0  0  0  0  0  0
  194.8600  174.2920  136.3070 O   0  0  0  0  0  0  0  0  0  0  0  0
  1 12  1  6  0  0  0
  1 10  1  0  0  0  0
  2 13  1  6  0  0  0
  2  8  1  0  0  0  0
  2  6  1  0  0  0  0
  3 11  1  0  0  0  0
  4 14  2  0  0  0  0
  4 17  1  0  0  0  0
  5 10  1  0  0  0  0
  6  5  2  0  0  0  0
  7 17  1  0  0  0  0
  8  3  1  6  0  0  0
  8  1  1  0  0  0  0
  9 16  1  0  0  0  0
  9  4  1  0  0  0  0
 11 18  1  0  0  0  0
 14 15  1  0  0  0  0
 15 21  1  0  0  0  0
 15 11  2  0  0  0  0
 16 26  1  6  0  0  0
 16  7  1  0  0  0  0
 17  3  2  0  0  0  0
 18 12  1  0  0  0  0
 19 20  1  0  0  0  0
 20 22  2  0  0  0  0
 21 24  2  0  0  0  0
 23 19  2  0  0  0  0
 23 21  1  0  0  0  0
 24 22  1  0  0  0  0
 25 19  1  0  0  0  0
 27 26  1  0  0  0  0
 28 29  1  0  0  0  0
 29 27  1  0  0  0  0
 30 28  1  6  0  0  0
 31 32  1  6  0  0  0
 31 30  1  0  0  0  0
 32 33  1  0  0  0  0
 33 29  2  0  0  0  0
 34 31  1  0  0  0  0
 34 30  1  0  0  0  0
M  END
>  <MODEL>
1

>  <REMARK>
 VINA RESULT:     -10.3      0.000      0.000
  Name = 
  4 active torsions:
  status: ('A' for Active; 'I' for Inactive)
    1  A    between atoms: C_3  and  C_13
    2  A    between atoms: C_3  and  N_17
    3  A    between atoms: C_12  and  C_28
    4  A    between atoms: N_17  and  C_29
                            x       y       z     vdW  Elec       q    Type
                         _______ _______ _______ _____ _____    ______ ____

>  <TORSDO>
F 4

$$$$
=
 OpenBabel11052413563D

 34 40  0  0  1  0  0  0  0  0999 V2000
  190.2090  176.9150  146.4310 N   0  0  1  0  0  0  0  0  0  0  0  0
  191.1540  175.3760  144.8540 C   0  0  1  0  0  3  0  0  0  0  0  0
  189.6020  177.2580  144.0240 C   0  0  0  0  0  0  0  0  0  0  0  0
  188.9140  177.7820  141.7550 C   0  0  0  0  0  0  0  0  0  0  0  0
  192.2000  175.7020  147.0980 C   0  0  0  0  0  3  0  0  0  0  0  0
  192.1160  174.9950  145.9560 C   0  0  0  0  0  3  0  0  0  0  0  0
  191.5530  177.3810  141.9590 S   0  0  0  0  0  0  0  0  0  0  0  0
  190.6740  176.8320  145.0340 C   0  0  1  0  0  3  0  0  0  0  0  0
  189.3740  177.8710  140.0360 S   0  0  0  0  0  0  0  0  0  0  0  0
  191.3880  176.9600  147.2880 C   0  0  0  0  0  2  0  0  0  0  0  0
  188.3060  177.6350  144.4750 C   0  0  0  0  0  0  0  0  0  0  0  0
  189.3920  178.0930  146.6580 C   0  0  0  0  0  2  0  0  0  0  0  0
  191.7470  175.1350  143.6340 F   0  0  0  0  0  0  0  0  0  0  0  0
  187.6040  177.9780  142.1750 C   0  0  0  0  0  3  0  0  0  0  0  0
  187.2790  177.9220  143.5370 C   0  0  0  0  0  0  0  0  0  0  0  0
  190.8280  176.8290  140.3850 C   0  0  1  0  0  3  0  0  0  0  0  0
  189.9110  177.4580  142.6600 C   0  0  0  0  0  0  0  0  0  0  0  0
  188.0710  177.8560  145.9480 C   0  0  0  0  0  2  0  0  0  0  0  0
  183.5350  178.5430  143.3520 C   0  0  0  0  0  0  0  0  0  0  0  0
  183.2300  178.7750  144.6950 C   0  0  0  0  0  3  0  0  0  0  0  0
  185.8730  178.1920  143.9330 C   0  0  0  0  0  0  0  0  0  0  0  0
  184.2390  178.7250  145.6580 C   0  0  0  0  0  3  0  0  0  0  0  0
  184.8500  178.2590  142.9730 C   0  0  0  0  0  3  0  0  0  0  0  0
  185.5540  178.4390  145.2790 C   0  0  0  0  0  3  0  0  0  0  0  0
  182.5570  178.5960  142.4150 F   0  0  0  0  0  0  0  0  0  0  0  0
  191.8070  176.9740  139.3220 N   0  0  0  0  0  2  0  0  0  0  0  0
  191.0740  176.9850  138.0660 C   0  0  0  0  0  2  0  0  0  0  0  0
  189.6660  175.0000  137.1710 C   0  0  0  0  0  2  0  0  0  0  0  0
  191.0000  175.6030  137.5060 C   0  0  0  0  0  0  0  0  0  0  0  0
  189.7140  174.2830  135.8120 C   0  0  1  0  0  3  0  0  0  0  0  0
  190.9650  173.4860  135.5580 C   0  0  1  0  0  3  0  0  0  0  0  0
  191.9960  173.5170  136.6970 C   0  0  0  0  0  2  0  0  0  0  0  0
  192.1120  174.8960  137.2790 C   0  0  0  0  0  3  0  0  0  0  0  0
  189.7760  172.8920  136.0230 O   0  0  0  0  0  0  0  0  0  0  0  0
  1 12  1  6  0  0  0
  1 10  1  0  0  0  0
  2 13  1  6  0  0  0
  2  8  1  0  0  0  0
  2  6  1  0  0  0  0
  3 11  1  0  0  0  0
  4 14  2  0  0  0  0
  4 17  1  0  0  0  0
  5 10  1  0  0  0  0
  6  5  2  0  0  0  0
  7 17  1  0  0  0  0
  8  3  1  6  0  0  0
  8  1  1  0  0  0  0
  9 16  1  0  0  0  0
  9  4  1  0  0  0  0
 11 18  1  0  0  0  0
 14 15  1  0  0  0  0
 15 21  1  0  0  0  0
 15 11  2  0  0  0  0
 16 26  1  6  0  0  0
 16  7  1  0  0  0  0
 17  3  2  0  0  0  0
 18 12  1  0  0  0  0
 19 20  1  0  0  0  0
 20 22  2  0  0  0  0
 21 24  2  0  0  0  0
 23 19  2  0  0  0  0
 23 21  1  0  0  0  0
 24 22  1  0  0  0  0
 25 19  1  0  0  0  0
 27 26  1  0  0  0  0
 28 29  1  0  0  0  0
 29 27  1  0  0  0  0
 30 34  1  0  0  0  0
 30 28  1  1  0  0  0
 31 30  1  0  0  0  0
 31 34  1  0  0  0  0
 31 32  1  1  0  0  0
 32 33  1  0  0  0  0
 33 29  2  0  0  0  0
M  END
>  <MODEL>
2

>  <REMARK>
 VINA RESULT:     -10.0      1.169      1.594
  Name = 
  4 active torsions:
  status: ('A' for Active; 'I' for Inactive)
    1  A    between atoms: C_3  and  C_13
    2  A    between atoms: C_3  and  N_17
    3  A    between atoms: C_12  and  C_28
    4  A    between atoms: N_17  and  C_29
                            x       y       z     vdW  Elec       q    Type
                         _______ _______ _______ _____ _____    ______ ____

>  <TORSDO>
F 4

$$$$
=
 OpenBabel11052413563D

 34 40  0  0  1  0  0  0  0  0999 V2000
  186.8370  178.3250  146.9310 N   0  0  1  0  0  0  0  0  0  0  0  0
  188.3880  176.7030  146.0890 C   0  0  1  0  0  3  0  0  0  0  0  0
  187.0630  178.1740  144.4410 C   0  0  0  0  0  0  0  0  0  0  0  0
  187.1520  178.2100  142.0140 C   0  0  0  0  0  0  0  0  0  0  0  0
  188.5730  177.5440  148.4330 C   0  0  0  0  0  3  0  0  0  0  0  0
  188.9440  176.6540  147.4950 C   0  0  0  0  0  3  0  0  0  0  0  0
  189.5850  178.2400  143.1290 S   0  0  0  0  0  0  0  0  0  0  0  0
  187.7560  178.0820  145.8040 C   0  0  1  0  0  3  0  0  0  0  0  0
  188.1620  178.0820  140.5520 S   0  0  0  0  0  0  0  0  0  0  0  0
  187.6430  178.6840  148.0920 C   0  0  0  0  0  2  0  0  0  0  0  0
  185.6640  178.4260  144.3660 C   0  0  0  0  0  0  0  0  0  0  0  0
  185.8970  179.3920  146.6400 C   0  0  0  0  0  2  0  0  0  0  0  0
  189.3810  176.3530  145.1990 F   0  0  0  0  0  0  0  0  0  0  0  0
  185.7650  178.2780  141.9430 C   0  0  0  0  0  3  0  0  0  0  0  0
  185.0000  178.4010  143.1110 C   0  0  0  0  0  0  0  0  0  0  0  0
  189.4910  177.3360  141.5530 C   0  0  1  0  0  3  0  0  0  0  0  0
  187.8020  178.1900  143.2360 C   0  0  0  0  0  0  0  0  0  0  0  0
  184.9220  178.8500  145.6080 C   0  0  0  0  0  2  0  0  0  0  0  0
  181.5310  178.6860  141.5860 C   0  0  0  0  0  0  0  0  0  0  0  0
  180.7410  178.8280  142.7290 C   0  0  0  0  0  3  0  0  0  0  0  0
  183.5260  178.5230  142.9720 C   0  0  0  0  0  0  0  0  0  0  0  0
  181.3360  178.8270  143.9920 C   0  0  0  0  0  3  0  0  0  0  0  0
  182.9160  178.5410  141.7070 C   0  0  0  0  0  3  0  0  0  0  0  0
  182.7210  178.6790  144.1130 C   0  0  0  0  0  3  0  0  0  0  0  0
  180.9560  178.6920  140.3590 F   0  0  0  0  0  0  0  0  0  0  0  0
  190.7580  177.4450  140.8540 N   0  0  0  0  0  2  0  0  0  0  0  0
  190.4550  177.5270  139.4330 C   0  0  0  0  0  2  0  0  0  0  0  0
  190.6660  175.4490  137.8980 C   0  0  0  0  0  2  0  0  0  0  0  0
  191.3060  176.5640  138.6740 C   0  0  0  0  0  0  0  0  0  0  0  0
  191.3150  175.3000  136.5130 C   0  0  1  0  0  3  0  0  0  0  0  0
  192.8140  175.4410  136.4960 C   0  0  1  0  0  3  0  0  0  0  0  0
  193.4550  175.7120  137.8670 C   0  0  0  0  0  2  0  0  0  0  0  0
  192.6360  176.6900  138.6580 C   0  0  0  0  0  3  0  0  0  0  0  0
  192.1760  174.1860  136.5210 O   0  0  0  0  0  0  0  0  0  0  0  0
  1 12  1  6  0  0  0
  1 10  1  0  0  0  0
  2 13  1  6  0  0  0
  2  6  1  0  0  0  0
  4 17  1  0  0  0  0
  6  5  2  0  0  0  0
  7 17  1  0  0  0  0
  8  3  1  6  0  0  0
  8  2  1  0  0  0  0
  8  1  1  0  0  0  0
  9 16  1  0  0  0  0
  9  4  1  0  0  0  0
 10  5  1  0  0  0  0
 11  3  1  0  0  0  0
 11 18  1  0  0  0  0
 14  4  2  0  0  0  0
 14 15  1  0  0  0  0
 15 11  2  0  0  0  0
 16 26  1  6  0  0  0
 16  7  1  0  0  0  0
 17  3  2  0  0  0  0
 18 12  1  0  0  0  0
 19 23  2  0  0  0  0
 19 20  1  0  0  0  0
 20 22  2  0  0  0  0
 21 15  1  0  0  0  0
 21 24  2  0  0  0  0
 22 24  1  0  0  0  0
 23 21  1  0  0  0  0
 25 19  1  0  0  0  0
 27 26  1  0  0  0  0
 28 29  1  0  0  0  0
 29 27  1  0  0  0  0
 30 34  1  0  0  0  0
 30 28  1  1  0  0  0
 31 30  1  0  0  0  0
 31 34  1  0  0  0  0
 31 32  1  1  0  0  0
 32 33  1  0  0  0  0
 33 29  2  0  0  0  0
M  END
>  <MODEL>
3

>  <REMARK>
 VINA RESULT:      -9.7      2.001      2.941
  Name = 
  4 active torsions:
  status: ('A' for Active; 'I' for Inactive)
    1  A    between atoms: C_3  and  C_13
    2  A    between atoms: C_3  and  N_17
    3  A    between atoms: C_12  and  C_28
    4  A    between atoms: N_17  and  C_29
                            x       y       z     vdW  Elec       q    Type
                         _______ _______ _______ _____ _____    ______ ____

>  <TORSDO>
F 4

$$$$
=
 OpenBabel11052413563D

 34 40  0  0  1  0  0  0  0  0999 V2000
  184.5940  178.7600  144.8070 N   0  0  1  0  0  0  0  0  0  0  0  0
  186.4330  177.2660  144.4440 C   0  0  1  0  0  3  0  0  0  0  0  0
  185.3590  178.4750  142.4390 C   0  0  0  0  0  0  0  0  0  0  0  0
  185.9590  178.3640  140.0880 C   0  0  0  0  0  0  0  0  0  0  0  0
  186.0350  178.2710  146.6960 C   0  0  0  0  0  3  0  0  0  0  0  0
  186.6780  177.3690  145.9330 C   0  0  0  0  0  3  0  0  0  0  0  0
  188.0860  178.7310  141.6730 S   0  0  0  0  0  0  0  0  0  0  0  0
  185.7510  178.5470  143.9180 C   0  0  1  0  0  3  0  0  0  0  0  0
  187.2660  178.2530  138.8820 S   0  0  0  0  0  0  0  0  0  0  0  0
  185.0970  179.2780  146.0740 C   0  0  0  0  0  2  0  0  0  0  0  0
  183.9910  178.5680  142.0570 C   0  0  0  0  0  0  0  0  0  0  0  0
  183.6430  179.6970  144.2380 C   0  0  0  0  0  2  0  0  0  0  0  0
  187.6200  176.9700  143.8110 F   0  0  0  0  0  0  0  0  0  0  0  0
  184.6190  178.2760  139.7290 C   0  0  0  0  0  3  0  0  0  0  0  0
  183.6150  178.3900  140.6990 C   0  0  0  0  0  0  0  0  0  0  0  0
  188.4140  177.7220  140.1950 C   0  0  1  0  0  3  0  0  0  0  0  0
  186.3330  178.4930  141.4150 C   0  0  0  0  0  0  0  0  0  0  0  0
  182.9650  178.9880  143.0790 C   0  0  0  0  0  2  0  0  0  0  0  0
  180.1690  177.0890  139.7660 C   0  0  0  0  0  0  0  0  0  0  0  0
  179.5440  178.2600  139.3300 C   0  0  0  0  0  3  0  0  0  0  0  0
  182.2000  178.3420  140.2510 C   0  0  0  0  0  0  0  0  0  0  0  0
  180.2410  179.4690  139.3440 C   0  0  0  0  0  3  0  0  0  0  0  0
  181.4910  177.1300  140.2180 C   0  0  0  0  0  3  0  0  0  0  0  0
  181.5630  179.5090  139.7980 C   0  0  0  0  0  3  0  0  0  0  0  0
  179.4950  175.9140  139.7490 F   0  0  0  0  0  0  0  0  0  0  0  0
  189.7850  177.9240  139.7640 N   0  0  0  0  0  2  0  0  0  0  0  0
  190.5400  176.7530  140.1820 C   0  0  0  0  0  2  0  0  0  0  0  0
  191.8000  178.0010  142.0730 C   0  0  0  0  0  2  0  0  0  0  0  0
  190.9160  176.8740  141.6210 C   0  0  0  0  0  0  0  0  0  0  0  0
  191.2700  178.6280  143.3720 C   0  0  1  0  0  3  0  0  0  0  0  0
  190.7580  177.6420  144.3890 C   0  0  1  0  0  3  0  0  0  0  0  0
  190.8450  176.1680  143.9650 C   0  0  0  0  0  2  0  0  0  0  0  0
  190.4590  176.0010  142.5240 C   0  0  0  0  0  3  0  0  0  0  0  0
  192.0550  178.1850  144.4540 O   0  0  0  0  0  0  0  0  0  0  0  0
  1 12  1  6  0  0  0
  1 10  1  0  0  0  0
  2 13  1  6  0  0  0
  2  6  1  0  0  0  0
  4 17  1  0  0  0  0
  6  5  2  0  0  0  0
  8  3  1  6  0  0  0
  8  2  1  0  0  0  0
  8  1  1  0  0  0  0
  9  4  1  0  0  0  0
  9 16  1  0  0  0  0
 10  5  1  0  0  0  0
 11  3  1  0  0  0  0
 11 18  1  0  0  0  0
 14  4  2  0  0  0  0
 14 15  1  0  0  0  0
 15 11  2  0  0  0  0
 16 26  1  6  0  0  0
 16  7  1  0  0  0  0
 17  7  1  0  0  0  0
 17  3  2  0  0  0  0
 18 12  1  0  0  0  0
 19 23  1  0  0  0  0
 20 22  1  0  0  0  0
 20 19  2  0  0  0  0
 21 15  1  0  0  0  0
 22 24  2  0  0  0  0
 23 21  2  0  0  0  0
 24 21  1  0  0  0  0
 25 19  1  0  0  0  0
 26 27  1  0  0  0  0
 27 29  1  0  0  0  0
 29 28  1  0  0  0  0
 29 33  2  0  0  0  0
 30 28  1  6  0  0  0
 30 31  1  0  0  0  0
 30 34  1  0  0  0  0
 31 32  1  6  0  0  0
 31 34  1  0  0  0  0
 33 32  1  0  0  0  0
M  END
>  <MODEL>
4

>  <REMARK>
 VINA RESULT:      -9.4      3.447      5.772
  Name = 
  4 active torsions:
  status: ('A' for Active; 'I' for Inactive)
    1  A    between atoms: C_3  and  C_13
    2  A    between atoms: C_3  and  N_17
    3  A    between atoms: C_12  and  C_28
    4  A    between atoms: N_17  and  C_29
                            x       y       z     vdW  Elec       q    Type
                         _______ _______ _______ _____ _____    ______ ____

>  <TORSDO>
F 4

$$$$
=
 OpenBabel11052413563D

 34 40  0  0  1  0  0  0  0  0999 V2000
  188.0270  178.1130  137.6590 N   0  0  1  0  0  0  0  0  0  0  0  0
  185.8310  177.1530  137.6800 C   0  0  1  0  0  3  0  0  0  0  0  0
  186.7670  178.2370  139.8200 C   0  0  0  0  0  0  0  0  0  0  0  0
  185.7120  178.4880  141.9940 C   0  0  0  0  0  0  0  0  0  0  0  0
  186.9060  177.8240  135.5280 C   0  0  0  0  0  3  0  0  0  0  0  0
  185.9160  177.1790  136.1700 C   0  0  0  0  0  3  0  0  0  0  0  0
  184.1030  179.2200  139.9820 S   0  0  0  0  0  0  0  0  0  0  0  0
  186.7030  178.2700  138.2900 C   0  0  1  0  0  3  0  0  0  0  0  0
  184.2110  178.8080  142.8990 S   0  0  0  0  0  0  0  0  0  0  0  0
  187.9310  178.6230  136.2960 C   0  0  0  0  0  2  0  0  0  0  0  0
  188.0110  178.0260  140.4790 C   0  0  0  0  0  0  0  0  0  0  0  0
  189.0580  178.8360  138.3810 C   0  0  0  0  0  2  0  0  0  0  0  0
  184.5070  177.2140  138.0580 F   0  0  0  0  0  0  0  0  0  0  0  0
  186.8860  178.1070  142.6310 C   0  0  0  0  0  3  0  0  0  0  0  0
  188.0560  177.8840  141.8920 C   0  0  0  0  0  0  0  0  0  0  0  0
  183.2440  178.4590  141.3940 C   0  0  1  0  0  3  0  0  0  0  0  0
  185.6510  178.5850  140.6130 C   0  0  0  0  0  0  0  0  0  0  0  0
  189.2890  178.0890  139.6830 C   0  0  0  0  0  2  0  0  0  0  0  0
  191.3160  178.1870  143.8190 C   0  0  0  0  0  0  0  0  0  0  0  0
  191.6740  176.8440  143.9640 C   0  0  0  0  0  3  0  0  0  0  0  0
  189.2950  177.5310  142.6310 C   0  0  0  0  0  0  0  0  0  0  0  0
  190.8530  175.8440  143.4400 C   0  0  0  0  0  3  0  0  0  0  0  0
  190.1370  178.5280  143.1520 C   0  0  0  0  0  3  0  0  0  0  0  0
  189.6730  176.1850  142.7740 C   0  0  0  0  0  3  0  0  0  0  0  0
  192.1140  179.1590  144.3240 F   0  0  0  0  0  0  0  0  0  0  0  0
  181.9140  179.0280  141.5170 N   0  0  0  0  0  2  0  0  0  0  0  0
  181.3200  179.0150  140.1890 C   0  0  0  0  0  2  0  0  0  0  0  0
  181.0630  176.8620  138.7680 C   0  0  0  0  0  2  0  0  0  0  0  0
  180.6520  177.7030  139.9420 C   0  0  0  0  0  0  0  0  0  0  0  0
  181.1970  175.3850  139.1710 C   0  0  1  0  0  3  0  0  0  0  0  0
  180.1230  174.8790  140.0970 C   0  0  1  0  0  3  0  0  0  0  0  0
  179.0650  175.9210  140.4930 C   0  0  0  0  0  2  0  0  0  0  0  0
  179.7000  177.2540  140.7660 C   0  0  0  0  0  3  0  0  0  0  0  0
  180.0750  174.6730  138.7050 O   0  0  0  0  0  0  0  0  0  0  0  0
  1 10  1  6  0  0  0
  1  8  1  0  0  0  0
  1 12  1  0  0  0  0
  2 13  1  6  0  0  0
  2  8  1  0  0  0  0
  3 11  2  0  0  0  0
  3 17  1  0  0  0  0
  4 14  1  0  0  0  0
  4  9  1  0  0  0  0
  5  6  2  0  0  0  0
  5 10  1  0  0  0  0
  6  2  1  0  0  0  0
  7 17  1  0  0  0  0
  7 16  1  0  0  0  0
  8  3  1  1  0  0  0
 11 15  1  0  0  0  0
 12 18  1  0  0  0  0
 15 21  1  0  0  0  0
 15 14  2  0  0  0  0
 16 26  1  1  0  0  0
 16  9  1  0  0  0  0
 17  4  2  0  0  0  0
 18 11  1  0  0  0  0
 19 20  1  0  0  0  0
 19 25  1  0  0  0  0
 21 24  2  0  0  0  0
 21 23  1  0  0  0  0
 22 20  2  0  0  0  0
 23 19  2  0  0  0  0
 24 22  1  0  0  0  0
 27 26  1  0  0  0  0
 28 29  1  0  0  0  0
 29 27  1  0  0  0  0
 29 33  2  0  0  0  0
 30 28  1  6  0  0  0
 30 31  1  0  0  0  0
 31 32  1  6  0  0  0
 32 33  1  0  0  0  0
 34 30  1  0  0  0  0
 34 31  1  0  0  0  0
M  END
>  <MODEL>
5

>  <REMARK>
 VINA RESULT:      -9.3      4.990      9.398
  Name = 
  4 active torsions:
  status: ('A' for Active; 'I' for Inactive)
    1  A    between atoms: C_3  and  C_13
    2  A    between atoms: C_3  and  N_17
    3  A    between atoms: C_12  and  C_28
    4  A    between atoms: N_17  and  C_29
                            x       y       z     vdW  Elec       q    Type
                         _______ _______ _______ _____ _____    ______ ____

>  <TORSDO>
F 4

$$$$
=
 OpenBabel11052413563D

 34 40  0  0  1  0  0  0  0  0999 V2000
  188.0540  178.0880  137.6060 N   0  0  1  0  0  0  0  0  0  0  0  0
  185.8540  177.1350  137.6170 C   0  0  1  0  0  3  0  0  0  0  0  0
  186.7800  178.2250  139.7590 C   0  0  0  0  0  0  0  0  0  0  0  0
  185.7110  178.4890  141.9250 C   0  0  0  0  0  0  0  0  0  0  0  0
  186.9460  177.7930  135.4690 C   0  0  0  0  0  3  0  0  0  0  0  0
  185.9490  177.1540  136.1080 C   0  0  0  0  0  3  0  0  0  0  0  0
  184.1180  179.2180  139.9000 S   0  0  0  0  0  0  0  0  0  0  0  0
  186.7260  178.2520  138.2280 C   0  0  1  0  0  3  0  0  0  0  0  0
  184.2060  178.8180  142.8190 S   0  0  0  0  0  0  0  0  0  0  0  0
  187.9680  178.5920  136.2400 C   0  0  0  0  0  2  0  0  0  0  0  0
  188.0190  178.0140  140.4270 C   0  0  0  0  0  0  0  0  0  0  0  0
  189.0820  178.8100  138.3320 C   0  0  0  0  0  2  0  0  0  0  0  0
  184.5280  177.2020  137.9860 F   0  0  0  0  0  0  0  0  0  0  0  0
  186.8810  178.1080  142.5710 C   0  0  0  0  0  3  0  0  0  0  0  0
  188.0540  177.8780  141.8410 C   0  0  0  0  0  0  0  0  0  0  0  0
  183.2480  178.4650  141.3090 C   0  0  1  0  0  3  0  0  0  0  0  0
  185.6600  178.5800  140.5440 C   0  0  0  0  0  0  0  0  0  0  0  0
  189.3020  178.0690  139.6390 C   0  0  0  0  0  2  0  0  0  0  0  0
  191.2990  178.1780  143.7950 C   0  0  0  0  0  0  0  0  0  0  0  0
  191.6550  176.8360  143.9410 C   0  0  0  0  0  3  0  0  0  0  0  0
  189.2870  177.5240  142.5890 C   0  0  0  0  0  0  0  0  0  0  0  0
  190.8390  175.8360  143.4090 C   0  0  0  0  0  3  0  0  0  0  0  0
  190.1240  178.5200  143.1180 C   0  0  0  0  0  3  0  0  0  0  0  0
  189.6640  176.1780  142.7340 C   0  0  0  0  0  3  0  0  0  0  0  0
  192.0920  179.1500  144.3070 F   0  0  0  0  0  0  0  0  0  0  0  0
  181.9190  179.0390  141.4210 N   0  0  0  0  0  2  0  0  0  0  0  0
  181.0700  178.3360  140.4720 C   0  0  0  0  0  2  0  0  0  0  0  0
  180.3210  180.6810  139.6590 C   0  0  0  0  0  2  0  0  0  0  0  0
  180.6770  179.2520  139.3620 C   0  0  0  0  0  0  0  0  0  0  0  0
  180.9690  181.6320  138.6400 C   0  0  1  0  0  3  0  0  0  0  0  0
  180.9420  181.1490  137.2140 C   0  0  1  0  0  3  0  0  0  0  0  0
  180.2710  179.7820  137.0050 C   0  0  0  0  0  2  0  0  0  0  0  0
  180.6540  178.8240  138.0960 C   0  0  0  0  0  3  0  0  0  0  0  0
  179.9940  182.0600  137.7190 O   0  0  0  0  0  0  0  0  0  0  0  0
  1 10  1  6  0  0  0
  1  8  1  0  0  0  0
  1 12  1  0  0  0  0
  2 13  1  6  0  0  0
  2  8  1  0  0  0  0
  3 11  2  0  0  0  0
  3 17  1  0  0  0  0
  4 14  1  0  0  0  0
  4  9  1  0  0  0  0
  5  6  2  0  0  0  0
  5 10  1  0  0  0  0
  6  2  1  0  0  0  0
  7 17  1  0  0  0  0
  7 16  1  0  0  0  0
  8  3  1  1  0  0  0
 11 15  1  0  0  0  0
 12 18  1  0  0  0  0
 15 14  2  0  0  0  0
 15 21  1  0  0  0  0
 16 26  1  1  0  0  0
 16  9  1  0  0  0  0
 17  4  2  0  0  0  0
 18 11  1  0  0  0  0
 19 20  1  0  0  0  0
 19 25  1  0  0  0  0
 21 24  2  0  0  0  0
 21 23  1  0  0  0  0
 22 20  2  0  0  0  0
 23 19  2  0  0  0  0
 24 22  1  0  0  0  0
 27 26  1  0  0  0  0
 29 28  1  0  0  0  0
 29 27  1  0  0  0  0
 30 28  1  1  0  0  0
 31 32  1  1  0  0  0
 31 34  1  0  0  0  0
 31 30  1  0  0  0  0
 32 33  1  0  0  0  0
 33 29  2  0  0  0  0
 34 30  1  0  0  0  0
M  END
>  <MODEL>
6

>  <REMARK>
 VINA RESULT:      -9.0      5.324      9.641
  Name = 
  4 active torsions:
  status: ('A' for Active; 'I' for Inactive)
    1  A    between atoms: C_3  and  C_13
    2  A    between atoms: C_3  and  N_17
    3  A    between atoms: C_12  and  C_28
    4  A    between atoms: N_17  and  C_29
                            x       y       z     vdW  Elec       q    Type
                         _______ _______ _______ _____ _____    ______ ____

>  <TORSDO>
F 4

$$$$
=
 OpenBabel11052413563D

 34 40  0  0  1  0  0  0  0  0999 V2000
  185.0070  178.5390  144.9450 N   0  0  1  0  0  0  0  0  0  0  0  0
  186.8220  177.1460  144.2300 C   0  0  1  0  0  3  0  0  0  0  0  0
  185.4090  178.3950  142.4760 C   0  0  0  0  0  0  0  0  0  0  0  0
  185.6440  178.4180  140.0590 C   0  0  0  0  0  0  0  0  0  0  0  0
  186.7390  178.0290  146.5650 C   0  0  0  0  0  3  0  0  0  0  0  0
  187.2900  177.1920  145.6680 C   0  0  0  0  0  3  0  0  0  0  0  0
  187.9740  178.8060  141.3190 S   0  0  0  0  0  0  0  0  0  0  0  0
  186.0210  178.4180  143.8810 C   0  0  1  0  0  3  0  0  0  0  0  0
  186.7520  178.4190  138.6640 S   0  0  0  0  0  0  0  0  0  0  0  0
  185.6810  179.0210  146.1450 C   0  0  0  0  0  2  0  0  0  0  0  0
  183.9960  178.4460  142.3120 C   0  0  0  0  0  0  0  0  0  0  0  0
  183.9470  179.4580  144.5760 C   0  0  0  0  0  2  0  0  0  0  0  0
  187.9080  176.9310  143.4090 F   0  0  0  0  0  0  0  0  0  0  0  0
  184.2690  178.2870  139.9030 C   0  0  0  0  0  3  0  0  0  0  0  0
  183.4220  178.3130  141.0200 C   0  0  0  0  0  0  0  0  0  0  0  0
  188.1080  177.8810  139.7580 C   0  0  1  0  0  3  0  0  0  0  0  0
  186.2120  178.5030  141.3190 C   0  0  0  0  0  0  0  0  0  0  0  0
  183.1250  178.7730  143.4980 C   0  0  0  0  0  2  0  0  0  0  0  0
  180.0030  176.9940  140.0170 C   0  0  0  0  0  0  0  0  0  0  0  0
  179.1920  178.0970  140.2940 C   0  0  0  0  0  3  0  0  0  0  0  0
  181.9580  178.2220  140.7890 C   0  0  0  0  0  0  0  0  0  0  0  0
  179.7570  179.2650  140.8090 C   0  0  0  0  0  3  0  0  0  0  0  0
  181.3780  177.0590  140.2580 C   0  0  0  0  0  3  0  0  0  0  0  0
  181.1320  179.3290  141.0520 C   0  0  0  0  0  3  0  0  0  0  0  0
  179.4570  175.8610  139.5120 F   0  0  0  0  0  0  0  0  0  0  0  0
  189.3880  178.1620  139.1350 N   0  0  0  0  0  2  0  0  0  0  0  0
  190.3800  177.3390  139.8080 C   0  0  0  0  0  2  0  0  0  0  0  0
  190.4720  175.6210  137.8690 C   0  0  0  0  0  2  0  0  0  0  0  0
  191.1690  176.5670  138.8040 C   0  0  0  0  0  0  0  0  0  0  0  0
  191.0090  175.7690  136.4370 C   0  0  1  0  0  3  0  0  0  0  0  0
  192.5020  175.9380  136.3330 C   0  0  1  0  0  3  0  0  0  0  0  0
  193.2500  175.9370  137.6750 C   0  0  0  0  0  2  0  0  0  0  0  0
  192.4940  176.7190  138.7110 C   0  0  0  0  0  3  0  0  0  0  0  0
  191.8710  174.6920  136.1510 O   0  0  0  0  0  0  0  0  0  0  0  0
  1 12  1  6  0  0  0
  1 10  1  0  0  0  0
  2 13  1  6  0  0  0
  2  6  1  0  0  0  0
  4 17  1  0  0  0  0
  6  5  2  0  0  0  0
  8  3  1  6  0  0  0
  8  2  1  0  0  0  0
  8  1  1  0  0  0  0
  9 16  1  0  0  0  0
  9  4  1  0  0  0  0
 10  5  1  0  0  0  0
 11  3  1  0  0  0  0
 11 18  1  0  0  0  0
 14  4  2  0  0  0  0
 14 15  1  0  0  0  0
 15 11  2  0  0  0  0
 16 26  1  6  0  0  0
 16  7  1  0  0  0  0
 17  7  1  0  0  0  0
 17  3  2  0  0  0  0
 18 12  1  0  0  0  0
 19 23  2  0  0  0  0
 19 20  1  0  0  0  0
 20 22  2  0  0  0  0
 21 15  1  0  0  0  0
 21 24  2  0  0  0  0
 22 24  1  0  0  0  0
 23 21  1  0  0  0  0
 25 19  1  0  0  0  0
 26 27  1  0  0  0  0
 28 29  1  0  0  0  0
 29 27  1  0  0  0  0
 30 28  1  1  0  0  0
 31 30  1  0  0  0  0
 31 32  1  1  0  0  0
 32 33  1  0  0  0  0
 33 29  2  0  0  0  0
 34 31  1  0  0  0  0
 34 30  1  0  0  0  0
M  END
>  <MODEL>
7

>  <REMARK>
 VINA RESULT:      -9.0      2.957      4.700
  Name = 
  4 active torsions:
  status: ('A' for Active; 'I' for Inactive)
    1  A    between atoms: C_3  and  C_13
    2  A    between atoms: C_3  and  N_17
    3  A    between atoms: C_12  and  C_28
    4  A    between atoms: N_17  and  C_29
                            x       y       z     vdW  Elec       q    Type
                         _______ _______ _______ _____ _____    ______ ____

>  <TORSDO>
F 4

$$$$
=
 OpenBabel11052413563D

 34 40  0  0  1  0  0  0  0  0999 V2000
  192.0020  176.8080  140.0980 N   0  0  1  0  0  0  0  0  0  0  0  0
  190.1790  176.0030  138.7640 C   0  0  1  0  0  3  0  0  0  0  0  0
  189.6990  177.4840  140.8160 C   0  0  0  0  0  0  0  0  0  0  0  0
  187.5650  178.2750  141.6650 C   0  0  0  0  0  0  0  0  0  0  0  0
  192.4910  176.1130  137.8260 C   0  0  0  0  0  3  0  0  0  0  0  0
  191.2200  175.6850  137.7150 C   0  0  0  0  0  3  0  0  0  0  0  0
  187.8120  178.6280  139.0230 S   0  0  0  0  0  0  0  0  0  0  0  0
  190.6450  177.1770  139.6510 C   0  0  1  0  0  3  0  0  0  0  0  0
  185.9320  178.8740  141.2800 S   0  0  0  0  0  0  0  0  0  0  0  0
  192.9080  177.0040  138.9720 C   0  0  0  0  0  2  0  0  0  0  0  0
  190.1550  177.3560  142.1590 C   0  0  0  0  0  0  0  0  0  0  0  0
  192.4370  177.6140  141.2230 C   0  0  0  0  0  2  0  0  0  0  0  0
  188.9680  176.2230  138.1450 F   0  0  0  0  0  0  0  0  0  0  0  0
  187.9500  177.9810  142.9680 C   0  0  0  0  0  3  0  0  0  0  0  0
  189.2490  177.5320  143.2400 C   0  0  0  0  0  0  0  0  0  0  0  0
  186.1210  178.2530  139.5760 C   0  0  1  0  0  3  0  0  0  0  0  0
  188.4290  178.0640  140.6030 C   0  0  0  0  0  0  0  0  0  0  0  0
  191.6250  177.1660  142.4260 C   0  0  0  0  0  2  0  0  0  0  0  0
  191.2100  176.4990  146.3260 C   0  0  0  0  0  0  0  0  0  0  0  0
  190.2810  176.7530  147.3380 C   0  0  0  0  0  3  0  0  0  0  0  0
  189.6220  177.2840  144.6560 C   0  0  0  0  0  0  0  0  0  0  0  0
  189.0220  177.2630  147.0160 C   0  0  0  0  0  3  0  0  0  0  0  0
  190.8800  176.7580  144.9930 C   0  0  0  0  0  3  0  0  0  0  0  0
  188.6930  177.5230  145.6830 C   0  0  0  0  0  3  0  0  0  0  0  0
  192.4310  176.0000  146.6370 F   0  0  0  0  0  0  0  0  0  0  0  0
  185.1660  178.9090  138.7020 N   0  0  0  0  0  2  0  0  0  0  0  0
  184.2000  177.9030  138.2930 C   0  0  0  0  0  2  0  0  0  0  0  0
  182.4970  177.5070  140.2090 C   0  0  0  0  0  2  0  0  0  0  0  0
  182.8750  178.1820  138.9210 C   0  0  0  0  0  0  0  0  0  0  0  0
  181.8510  178.5040  141.1830 C   0  0  1  0  0  3  0  0  0  0  0  0
  180.8880  179.4750  140.5530 C   0  0  1  0  0  3  0  0  0  0  0  0
  180.7060  179.3140  139.0350 C   0  0  0  0  0  2  0  0  0  0  0  0
  182.0210  179.0460  138.3620 C   0  0  0  0  0  3  0  0  0  0  0  0
  180.4580  178.3000  141.2000 O   0  0  0  0  0  0  0  0  0  0  0  0
  1 10  1  6  0  0  0
  1 12  1  0  0  0  0
  2 13  1  6  0  0  0
  2  8  1  0  0  0  0
  3 11  1  0  0  0  0
  4 14  2  0  0  0  0
  5 10  1  0  0  0  0
  6  5  2  0  0  0  0
  6  2  1  0  0  0  0
  7 16  1  0  0  0  0
  7 17  1  0  0  0  0
  8  1  1  0  0  0  0
  8  3  1  1  0  0  0
  9  4  1  0  0  0  0
 11 18  1  0  0  0  0
 11 15  2  0  0  0  0
 12 18  1  0  0  0  0
 14 15  1  0  0  0  0
 15 21  1  0  0  0  0
 16 26  1  6  0  0  0
 16  9  1  0  0  0  0
 17  3  2  0  0  0  0
 17  4  1  0  0  0  0
 19 25  1  0  0  0  0
 19 20  1  0  0  0  0
 21 23  1  0  0  0  0
 21 24  2  0  0  0  0
 22 20  2  0  0  0  0
 23 19  2  0  0  0  0
 24 22  1  0  0  0  0
 27 26  1  0  0  0  0
 27 29  1  0  0  0  0
 29 28  1  0  0  0  0
 30 28  1  6  0  0  0
 30 34  1  0  0  0  0
 31 32  1  6  0  0  0
 31 30  1  0  0  0  0
 31 34  1  0  0  0  0
 33 29  2  0  0  0  0
 33 32  1  0  0  0  0
M  END
>  <MODEL>
8

>  <REMARK>
 VINA RESULT:      -9.0      4.034      8.010
  Name = 
  4 active torsions:
  status: ('A' for Active; 'I' for Inactive)
    1  A    between atoms: C_3  and  C_13
    2  A    between atoms: C_3  and  N_17
    3  A    between atoms: C_12  and  C_28
    4  A    between atoms: N_17  and  C_29
                            x       y       z     vdW  Elec       q    Type
                         _______ _______ _______ _____ _____    ______ ____

>  <TORSDO>
F 4

$$$$
=
 OpenBabel11052413563D

 34 40  0  0  1  0  0  0  0  0999 V2000
  191.9390  176.7340  139.8890 N   0  0  1  0  0  0  0  0  0  0  0  0
  190.0850  175.9520  138.5850 C   0  0  1  0  0  3  0  0  0  0  0  0
  189.6590  177.4650  140.6250 C   0  0  0  0  0  0  0  0  0  0  0  0
  187.5510  178.3090  141.4890 C   0  0  0  0  0  0  0  0  0  0  0  0
  192.3880  176.0040  137.6200 C   0  0  0  0  0  3  0  0  0  0  0  0
  191.1070  175.6010  137.5280 C   0  0  0  0  0  3  0  0  0  0  0  0
  187.7750  178.6280  138.8400 S   0  0  0  0  0  0  0  0  0  0  0  0
  190.5850  177.1260  139.4540 C   0  0  1  0  0  3  0  0  0  0  0  0
  185.9260  178.9380  141.1150 S   0  0  0  0  0  0  0  0  0  0  0  0
  192.8350  176.8980  138.7500 C   0  0  0  0  0  2  0  0  0  0  0  0
  190.1270  177.3430  141.9640 C   0  0  0  0  0  0  0  0  0  0  0  0
  192.4030  177.5430  141.0000 C   0  0  0  0  0  2  0  0  0  0  0  0
  188.8710  176.1900  137.9770 F   0  0  0  0  0  0  0  0  0  0  0  0
  187.9450  178.0220  142.7900 C   0  0  0  0  0  3  0  0  0  0  0  0
  189.2380  177.5490  143.0530 C   0  0  0  0  0  0  0  0  0  0  0  0
  186.0830  178.2930  139.4170 C   0  0  1  0  0  3  0  0  0  0  0  0
  188.3980  178.0680  140.4200 C   0  0  0  0  0  0  0  0  0  0  0  0
  191.5960  177.1250  142.2170 C   0  0  0  0  0  2  0  0  0  0  0  0
  191.2150  176.5170  146.1290 C   0  0  0  0  0  0  0  0  0  0  0  0
  190.3000  176.7950  147.1480 C   0  0  0  0  0  3  0  0  0  0  0  0
  189.6210  177.3090  144.4680 C   0  0  0  0  0  0  0  0  0  0  0  0
  189.0460  177.3210  146.8340 C   0  0  0  0  0  3  0  0  0  0  0  0
  190.8740  176.7680  144.7970 C   0  0  0  0  0  3  0  0  0  0  0  0
  188.7060  177.5730  145.5010 C   0  0  0  0  0  3  0  0  0  0  0  0
  192.4310  176.0020  146.4320 F   0  0  0  0  0  0  0  0  0  0  0  0
  185.1320  178.9600  138.5450 N   0  0  0  0  0  2  0  0  0  0  0  0
  183.8790  179.0580  139.2770 C   0  0  0  0  0  2  0  0  0  0  0  0
  182.4540  177.7650  137.5390 C   0  0  0  0  0  2  0  0  0  0  0  0
  182.9960  177.9050  138.9330 C   0  0  0  0  0  0  0  0  0  0  0  0
  182.5620  176.3120  137.0510 C   0  0  1  0  0  3  0  0  0  0  0  0
  182.2180  175.2690  138.0810 C   0  0  1  0  0  3  0  0  0  0  0  0
  181.8150  175.8240  139.4570 C   0  0  0  0  0  2  0  0  0  0  0  0
  182.6920  176.9780  139.8470 C   0  0  0  0  0  3  0  0  0  0  0  0
  181.2930  175.7060  137.1140 O   0  0  0  0  0  0  0  0  0  0  0  0
  1 10  1  6  0  0  0
  1 12  1  0  0  0  0
  2 13  1  6  0  0  0
  2  8  1  0  0  0  0
  3 11  1  0  0  0  0
  4 14  2  0  0  0  0
  5 10  1  0  0  0  0
  6  5  2  0  0  0  0
  6  2  1  0  0  0  0
  7 16  1  0  0  0  0
  7 17  1  0  0  0  0
  8  1  1  0  0  0  0
  8  3  1  1  0  0  0
  9  4  1  0  0  0  0
 11 18  1  0  0  0  0
 11 15  2  0  0  0  0
 12 18  1  0  0  0  0
 14 15  1  0  0  0  0
 15 21  1  0  0  0  0
 16 26  1  6  0  0  0
 16  9  1  0  0  0  0
 17  3  2  0  0  0  0
 17  4  1  0  0  0  0
 19 25  1  0  0  0  0
 19 20  1  0  0  0  0
 21 23  1  0  0  0  0
 21 24  2  0  0  0  0
 22 20  2  0  0  0  0
 23 19  2  0  0  0  0
 24 22  1  0  0  0  0
 26 27  1  0  0  0  0
 28 29  1  0  0  0  0
 29 27  1  0  0  0  0
 29 33  2  0  0  0  0
 30 34  1  0  0  0  0
 30 28  1  1  0  0  0
 30 31  1  0  0  0  0
 31 32  1  1  0  0  0
 32 33  1  0  0  0  0
 34 31  1  0  0  0  0
M  END
>  <MODEL>
9

>  <REMARK>
 VINA RESULT:      -8.9      4.071      7.584
  Name = 
  4 active torsions:
  status: ('A' for Active; 'I' for Inactive)
    1  A    between atoms: C_3  and  C_13
    2  A    between atoms: C_3  and  N_17
    3  A    between atoms: C_12  and  C_28
    4  A    between atoms: N_17  and  C_29
                            x       y       z     vdW  Elec       q    Type
                         _______ _______ _______ _____ _____    ______ ____

>  <TORSDO>
F 4

$$$$
