=
 OpenBabel11052413493D

 27 30  0  0  1  0  0  0  0  0999 V2000
  187.3550  177.7870  144.4360 C   0  0  1  0  0  3  0  0  0  0  0  0
  185.8400  177.9940  144.2920 C   0  0  1  0  0  3  0  0  0  0  0  0
  181.8500  179.2230  143.6360 C   0  0  0  0  0  3  0  0  0  0  0  0
  179.8710  179.2310  142.2570 O   0  0  0  0  0  1  0  0  0  0  0  0
  185.2950  179.0960  145.2060 C   0  0  0  0  0  2  0  0  0  0  0  0
  183.3480  178.2790  141.4660 C   0  0  0  0  0  3  0  0  0  0  0  0
  181.9790  178.5240  141.3200 C   0  0  0  0  0  3  0  0  0  0  0  0
  183.9700  178.4970  142.6990 C   0  0  0  0  0  0  0  0  0  0  0  0
  181.2300  178.9930  142.4040 C   0  0  0  0  0  0  0  0  0  0  0  0
  183.2200  178.9880  143.7850 C   0  0  0  0  0  0  0  0  0  0  0  0
  185.4460  178.2590  142.8350 C   0  0  0  0  0  2  0  0  0  0  0  0
  183.8480  179.2000  145.0530 N   0  0  0  0  0  2  0  0  0  0  0  0
  188.7800  177.8140  148.4980 C   0  0  0  0  0  3  0  0  0  0  0  0
  187.8330  177.7880  145.8610 C   0  0  0  0  0  0  0  0  0  0  0  0
  189.2060  177.7000  146.1180 C   0  0  0  0  0  3  0  0  0  0  0  0
  189.6790  177.7120  147.4330 C   0  0  0  0  0  3  0  0  0  0  0  0
  187.4080  177.9050  148.2480 C   0  0  0  0  0  3  0  0  0  0  0  0
  186.9350  177.8930  146.9340 C   0  0  0  0  0  3  0  0  0  0  0  0
  187.7870  176.5770  143.7440 N   0  0  0  0  0  2  0  0  0  0  0  0
  191.3390  176.5280  143.2160 C   0  0  0  0  0  3  0  0  0  0  0  0
  191.1650  177.2840  140.8400 C   0  0  0  0  0  0  0  0  0  0  0  0
  191.9830  177.4440  139.7320 O   0  0  0  0  0  1  0  0  0  0  0  0
  188.8960  176.5410  142.8420 C   0  0  0  0  0  0  0  0  0  0  0  0
  191.8160  177.1930  142.1640 C   0  0  0  0  0  3  0  0  0  0  0  0
  189.8390  177.2980  140.6480 C   0  0  0  0  0  3  0  0  0  0  0  0
  188.7860  177.1850  141.6790 C   0  0  0  0  0  3  0  0  0  0  0  0
  190.0970  175.7050  143.1580 C   0  0  0  0  0  2  0  0  0  0  0  0
  1 19  1  1  0  0  0
  1 14  1  0  0  0  0
  2  1  1  6  0  0  0
  2  5  1  0  0  0  0
  3 10  1  0  0  0  0
  4  9  1  0  0  0  0
  6  8  1  0  0  0  0
  7  6  2  0  0  0  0
  7  9  1  0  0  0  0
  8 11  1  0  0  0  0
  8 10  2  0  0  0  0
  9  3  2  0  0  0  0
 10 12  1  0  0  0  0
 11  2  1  0  0  0  0
 12  5  1  0  0  0  0
 14 15  2  0  0  0  0
 14 18  1  0  0  0  0
 15 16  1  0  0  0  0
 16 13  2  0  0  0  0
 17 13  1  0  0  0  0
 18 17  2  0  0  0  0
 21 24  1  0  0  0  0
 22 21  1  0  0  0  0
 23 27  1  0  0  0  0
 23 19  1  0  0  0  0
 24 20  2  0  0  0  0
 25 21  2  0  0  0  0
 25 26  1  0  0  0  0
 26 23  2  0  0  0  0
 27 20  1  0  0  0  0
M  END
>  <MODEL>
1

>  <REMARK>
 VINA RESULT:     -10.2      0.000      0.000
  Name = 
  4 active torsions:
  status: ('A' for Active; 'I' for Inactive)
    1  A    between atoms: N_1  and  C_15
    2  A    between atoms: N_1  and  C_18
    3  A    between atoms: C_2  and  C_15
    4  A    between atoms: C_9  and  C_15
                            x       y       z     vdW  Elec       q    Type
                         _______ _______ _______ _____ _____    ______ ____

>  <TORSDO>
F 4

$$$$
=
 OpenBabel11052413493D

 27 30  0  0  1  0  0  0  0  0999 V2000
  187.5170  177.9970  143.6070 C   0  0  1  0  0  3  0  0  0  0  0  0
  187.6480  177.7570  142.0960 C   0  0  1  0  0  3  0  0  0  0  0  0
  188.4290  177.6940  137.9440 C   0  0  0  0  0  3  0  0  0  0  0  0
  189.6880  176.8410  136.0710 O   0  0  0  0  0  1  0  0  0  0  0  0
  187.0120  178.8680  141.2550 C   0  0  0  0  0  2  0  0  0  0  0  0
  190.3570  176.6700  139.6970 C   0  0  0  0  0  3  0  0  0  0  0  0
  190.5050  176.5040  138.3160 C   0  0  0  0  0  3  0  0  0  0  0  0
  189.2410  177.3420  140.2050 C   0  0  0  0  0  0  0  0  0  0  0  0
  189.5410  177.0130  137.4400 C   0  0  0  0  0  0  0  0  0  0  0  0
  188.2810  177.8720  139.3220 C   0  0  0  0  0  0  0  0  0  0  0  0
  189.1090  177.5410  141.6870 C   0  0  0  0  0  2  0  0  0  0  0  0
  187.1290  178.5470  139.8360 N   0  0  0  0  0  2  0  0  0  0  0  0
  183.5060  178.8020  144.9460 C   0  0  0  0  0  3  0  0  0  0  0  0
  186.1090  178.2670  144.0580 C   0  0  0  0  0  0  0  0  0  0  0  0
  185.8620  178.5050  145.4150 C   0  0  0  0  0  3  0  0  0  0  0  0
  184.5640  178.7710  145.8590 C   0  0  0  0  0  3  0  0  0  0  0  0
  183.7460  178.5680  143.5900 C   0  0  0  0  0  3  0  0  0  0  0  0
  185.0440  178.3010  143.1460 C   0  0  0  0  0  3  0  0  0  0  0  0
  188.1040  176.8960  144.3660 N   0  0  0  0  0  2  0  0  0  0  0  0
  191.5980  176.2950  144.9390 C   0  0  0  0  0  3  0  0  0  0  0  0
  191.4360  176.7010  147.3990 C   0  0  0  0  0  0  0  0  0  0  0  0
  192.2770  176.8380  148.4930 O   0  0  0  0  0  1  0  0  0  0  0  0
  189.2570  177.0430  145.1990 C   0  0  0  0  0  0  0  0  0  0  0  0
  191.9860  176.0530  146.1900 C   0  0  0  0  0  3  0  0  0  0  0  0
  190.1630  177.0960  147.5340 C   0  0  0  0  0  3  0  0  0  0  0  0
  189.0890  177.0100  146.5220 C   0  0  0  0  0  3  0  0  0  0  0  0
  190.5920  177.3410  144.5910 C   0  0  0  0  0  2  0  0  0  0  0  0
  1 14  1  0  0  0  0
  1 19  1  1  0  0  0
  2  1  1  1  0  0  0
  3 10  1  0  0  0  0
  4  9  1  0  0  0  0
  5  2  1  0  0  0  0
  6  8  1  0  0  0  0
  7  6  2  0  0  0  0
  8 11  1  0  0  0  0
  9  3  2  0  0  0  0
  9  7  1  0  0  0  0
 10 12  1  0  0  0  0
 10  8  2  0  0  0  0
 11  2  1  0  0  0  0
 12  5  1  0  0  0  0
 13 16  1  0  0  0  0
 14 15  1  0  0  0  0
 15 16  2  0  0  0  0
 17 13  2  0  0  0  0
 18 17  1  0  0  0  0
 18 14  2  0  0  0  0
 19 23  1  0  0  0  0
 20 24  2  0  0  0  0
 21 25  2  0  0  0  0
 21 22  1  0  0  0  0
 23 26  2  0  0  0  0
 24 21  1  0  0  0  0
 26 25  1  0  0  0  0
 27 20  1  0  0  0  0
 27 23  1  0  0  0  0
M  END
>  <MODEL>
2

>  <REMARK>
 VINA RESULT:     -10.1      3.048      6.048
  Name = 
  4 active torsions:
  status: ('A' for Active; 'I' for Inactive)
    1  A    between atoms: N_1  and  C_15
    2  A    between atoms: N_1  and  C_18
    3  A    between atoms: C_2  and  C_15
    4  A    between atoms: C_9  and  C_15
                            x       y       z     vdW  Elec       q    Type
                         _______ _______ _______ _____ _____    ______ ____

>  <TORSDO>
F 4

$$$$
=
 OpenBabel11052413493D

 27 30  0  0  1  0  0  0  0  0999 V2000
  187.1710  178.0250  144.1690 C   0  0  1  0  0  3  0  0  0  0  0  0
  185.6380  178.1230  144.1760 C   0  0  1  0  0  3  0  0  0  0  0  0
  181.5280  179.0820  143.9760 C   0  0  0  0  0  3  0  0  0  0  0  0
  179.4330  179.0410  142.7810 O   0  0  0  0  0  1  0  0  0  0  0  0
  185.1050  179.1060  145.2230 C   0  0  0  0  0  2  0  0  0  0  0  0
  182.8790  178.4280  141.6130 C   0  0  0  0  0  3  0  0  0  0  0  0
  181.4890  178.5760  141.6080 C   0  0  0  0  0  3  0  0  0  0  0  0
  183.5980  178.5990  142.8010 C   0  0  0  0  0  0  0  0  0  0  0  0
  180.8130  178.9000  142.7890 C   0  0  0  0  0  0  0  0  0  0  0  0
  182.9190  178.9450  143.9850 C   0  0  0  0  0  0  0  0  0  0  0  0
  185.0930  178.4680  142.7860 C   0  0  0  0  0  2  0  0  0  0  0  0
  183.6460  179.1070  145.2060 N   0  0  0  0  0  2  0  0  0  0  0  0
  188.9380  177.3710  148.0400 C   0  0  0  0  0  3  0  0  0  0  0  0
  187.7690  177.7890  145.5280 C   0  0  0  0  0  0  0  0  0  0  0  0
  189.1420  177.5390  145.6340 C   0  0  0  0  0  3  0  0  0  0  0  0
  189.7260  177.3300  146.8860 C   0  0  0  0  0  3  0  0  0  0  0  0
  187.5670  177.6230  147.9420 C   0  0  0  0  0  3  0  0  0  0  0  0
  186.9830  177.8320  146.6900 C   0  0  0  0  0  3  0  0  0  0  0  0
  187.6280  177.0160  143.2180 N   0  0  0  0  0  2  0  0  0  0  0  0
  188.2900  178.0490  139.8430 C   0  0  0  0  0  3  0  0  0  0  0  0
  190.5800  177.0480  139.8090 C   0  0  0  0  0  0  0  0  0  0  0  0
  191.6990  177.0280  138.9900 O   0  0  0  0  0  1  0  0  0  0  0  0
  188.5700  177.2860  142.1770 C   0  0  0  0  0  0  0  0  0  0  0  0
  189.2950  177.4540  139.2010 C   0  0  0  0  0  3  0  0  0  0  0  0
  190.7200  176.6290  141.0730 C   0  0  0  0  0  3  0  0  0  0  0  0
  189.6650  176.5290  142.1040 C   0  0  0  0  0  3  0  0  0  0  0  0
  188.3750  178.4640  141.2730 C   0  0  0  0  0  2  0  0  0  0  0  0
  1 19  1  6  0  0  0
  1 14  1  0  0  0  0
  2  1  1  6  0  0  0
  2  5  1  0  0  0  0
  3 10  1  0  0  0  0
  4  9  1  0  0  0  0
  6  8  1  0  0  0  0
  7  6  2  0  0  0  0
  7  9  1  0  0  0  0
  8 10  2  0  0  0  0
  9  3  2  0  0  0  0
 10 12  1  0  0  0  0
 11  8  1  0  0  0  0
 11  2  1  0  0  0  0
 12  5  1  0  0  0  0
 14 15  2  0  0  0  0
 14 18  1  0  0  0  0
 15 16  1  0  0  0  0
 16 13  2  0  0  0  0
 17 13  1  0  0  0  0
 18 17  2  0  0  0  0
 20 27  1  0  0  0  0
 21 25  2  0  0  0  0
 22 21  1  0  0  0  0
 23 19  1  0  0  0  0
 24 21  1  0  0  0  0
 24 20  2  0  0  0  0
 25 26  1  0  0  0  0
 26 23  2  0  0  0  0
 27 23  1  0  0  0  0
M  END
>  <MODEL>
3

>  <REMARK>
 VINA RESULT:      -9.9      0.803      1.527
  Name = 
  4 active torsions:
  status: ('A' for Active; 'I' for Inactive)
    1  A    between atoms: N_1  and  C_15
    2  A    between atoms: N_1  and  C_18
    3  A    between atoms: C_2  and  C_15
    4  A    between atoms: C_9  and  C_15
                            x       y       z     vdW  Elec       q    Type
                         _______ _______ _______ _____ _____    ______ ____

>  <TORSDO>
F 4

$$$$
=
 OpenBabel11052413493D

 27 30  0  0  1  0  0  0  0  0999 V2000
  186.3830  177.9740  142.6390 C   0  0  1  0  0  3  0  0  0  0  0  0
  187.3260  177.9050  143.8500 C   0  0  1  0  0  3  0  0  0  0  0  0
  189.8510  176.9910  147.1120 C   0  0  0  0  0  3  0  0  0  0  0  0
  192.0690  176.6860  148.0100 O   0  0  0  0  0  1  0  0  0  0  0  0
  186.6610  177.3070  145.0940 C   0  0  0  0  0  2  0  0  0  0  0  0
  190.8930  176.8530  144.5160 C   0  0  0  0  0  3  0  0  0  0  0  0
  191.7420  176.7310  145.6200 C   0  0  0  0  0  3  0  0  0  0  0  0
  189.5220  177.0530  144.7060 C   0  0  0  0  0  0  0  0  0  0  0  0
  191.2230  176.8020  146.9170 C   0  0  0  0  0  0  0  0  0  0  0  0
  188.9960  177.1040  146.0120 C   0  0  0  0  0  0  0  0  0  0  0  0
  188.6160  177.1510  143.5130 C   0  0  0  0  0  2  0  0  0  0  0  0
  187.5970  177.3220  146.2130 N   0  0  0  0  0  2  0  0  0  0  0  0
  182.3400  179.1010  143.5940 C   0  0  0  0  0  3  0  0  0  0  0  0
  184.9790  178.3820  142.9870 C   0  0  0  0  0  0  0  0  0  0  0  0
  183.9690  178.2320  142.0290 C   0  0  0  0  0  3  0  0  0  0  0  0
  182.6530  178.5910  142.3310 C   0  0  0  0  0  3  0  0  0  0  0  0
  183.3430  179.2520  144.5560 C   0  0  0  0  0  3  0  0  0  0  0  0
  184.6590  178.8930  144.2540 C   0  0  0  0  0  3  0  0  0  0  0  0
  186.9320  178.8360  141.5960 N   0  0  0  0  0  2  0  0  0  0  0  0
  189.2220  178.5390  138.8460 C   0  0  0  0  0  3  0  0  0  0  0  0
  187.4170  178.1130  137.1710 C   0  0  0  0  0  0  0  0  0  0  0  0
  187.2930  177.7400  135.8410 O   0  0  0  0  0  1  0  0  0  0  0  0
  187.2060  178.3850  140.2680 C   0  0  0  0  0  0  0  0  0  0  0  0
  188.7250  178.6410  137.6140 C   0  0  0  0  0  3  0  0  0  0  0  0
  186.3270  178.0410  137.9470 C   0  0  0  0  0  3  0  0  0  0  0  0
  186.2190  178.4190  139.3720 C   0  0  0  0  0  3  0  0  0  0  0  0
  188.5370  177.7850  139.9360 C   0  0  0  0  0  2  0  0  0  0  0  0
  1 19  1  6  0  0  0
  1 14  1  0  0  0  0
  2  1  1  6  0  0  0
  2  5  1  0  0  0  0
  5 12  1  0  0  0  0
  6  8  2  0  0  0  0
  6  7  1  0  0  0  0
  7  9  2  0  0  0  0
  8 10  1  0  0  0  0
  9  3  1  0  0  0  0
  9  4  1  0  0  0  0
 10 12  1  0  0  0  0
 10  3  2  0  0  0  0
 11  2  1  0  0  0  0
 11  8  1  0  0  0  0
 13 17  1  0  0  0  0
 14 18  1  0  0  0  0
 15 16  1  0  0  0  0
 15 14  2  0  0  0  0
 16 13  2  0  0  0  0
 18 17  2  0  0  0  0
 20 27  1  0  0  0  0
 21 24  1  0  0  0  0
 21 25  2  0  0  0  0
 22 21  1  0  0  0  0
 23 19  1  0  0  0  0
 24 20  2  0  0  0  0
 25 26  1  0  0  0  0
 26 23  2  0  0  0  0
 27 23  1  0  0  0  0
M  END
>  <MODEL>
4

>  <REMARK>
 VINA RESULT:      -9.7      2.877      6.527
  Name = 
  4 active torsions:
  status: ('A' for Active; 'I' for Inactive)
    1  A    between atoms: N_1  and  C_15
    2  A    between atoms: N_1  and  C_18
    3  A    between atoms: C_2  and  C_15
    4  A    between atoms: C_9  and  C_15
                            x       y       z     vdW  Elec       q    Type
                         _______ _______ _______ _____ _____    ______ ____

>  <TORSDO>
F 4

$$$$
=
 OpenBabel11052413493D

 27 30  0  0  1  0  0  0  0  0999 V2000
  187.1600  177.6190  144.3480 C   0  0  1  0  0  3  0  0  0  0  0  0
  188.2370  177.4640  143.2630 C   0  0  1  0  0  3  0  0  0  0  0  0
  190.7340  176.5660  139.9750 C   0  0  0  0  0  3  0  0  0  0  0  0
  191.5850  177.1280  137.7880 O   0  0  0  0  0  1  0  0  0  0  0  0
  188.8450  176.0580  143.2190 C   0  0  0  0  0  2  0  0  0  0  0  0
  188.6540  178.4100  139.6290 C   0  0  0  0  0  3  0  0  0  0  0  0
  189.6020  178.2240  138.6180 C   0  0  0  0  0  3  0  0  0  0  0  0
  188.7470  177.6800  140.8190 C   0  0  0  0  0  0  0  0  0  0  0  0
  190.6430  177.3060  138.7910 C   0  0  0  0  0  0  0  0  0  0  0  0
  189.7830  176.7400  140.9840 C   0  0  0  0  0  0  0  0  0  0  0  0
  187.7060  177.8650  141.8840 C   0  0  0  0  0  2  0  0  0  0  0  0
  189.8920  176.0010  142.2040 N   0  0  0  0  0  2  0  0  0  0  0  0
  188.6910  177.9500  148.3570 C   0  0  0  0  0  3  0  0  0  0  0  0
  187.7150  177.7380  145.7390 C   0  0  0  0  0  0  0  0  0  0  0  0
  186.8680  178.1460  146.7770 C   0  0  0  0  0  3  0  0  0  0  0  0
  187.3550  178.2530  148.0820 C   0  0  0  0  0  3  0  0  0  0  0  0
  189.5420  177.5400  147.3270 C   0  0  0  0  0  3  0  0  0  0  0  0
  189.0550  177.4330  146.0210 C   0  0  0  0  0  3  0  0  0  0  0  0
  186.2690  178.7350  144.0450 N   0  0  0  0  0  2  0  0  0  0  0  0
  183.6390  178.7430  141.5990 C   0  0  0  0  0  3  0  0  0  0  0  0
  181.8290  179.0030  143.3020 C   0  0  0  0  0  0  0  0  0  0  0  0
  180.4430  178.9760  143.3670 O   0  0  0  0  0  1  0  0  0  0  0  0
  184.8850  178.5710  143.7270 C   0  0  0  0  0  0  0  0  0  0  0  0
  182.4480  179.2060  141.9750 C   0  0  0  0  0  3  0  0  0  0  0  0
  182.5120  178.9190  144.4510 C   0  0  0  0  0  3  0  0  0  0  0  0
  183.9790  178.9650  144.6240 C   0  0  0  0  0  3  0  0  0  0  0  0
  184.4800  177.8680  142.4680 C   0  0  0  0  0  2  0  0  0  0  0  0
  1 19  1  6  0  0  0
  1 14  1  0  0  0  0
  2  1  1  1  0  0  0
  3 10  1  0  0  0  0
  4  9  1  0  0  0  0
  5  2  1  0  0  0  0
  6  8  1  0  0  0  0
  7  9  1  0  0  0  0
  7  6  2  0  0  0  0
  8 10  2  0  0  0  0
  8 11  1  0  0  0  0
  9  3  2  0  0  0  0
 10 12  1  0  0  0  0
 11  2  1  0  0  0  0
 12  5  1  0  0  0  0
 14 18  2  0  0  0  0
 14 15  1  0  0  0  0
 15 16  2  0  0  0  0
 16 13  1  0  0  0  0
 17 13  2  0  0  0  0
 18 17  1  0  0  0  0
 20 24  2  0  0  0  0
 20 27  1  0  0  0  0
 21 22  1  0  0  0  0
 21 25  2  0  0  0  0
 23 19  1  0  0  0  0
 23 26  2  0  0  0  0
 24 21  1  0  0  0  0
 25 26  1  0  0  0  0
 27 23  1  0  0  0  0
M  END
>  <MODEL>
5

>  <REMARK>
 VINA RESULT:      -9.4      1.316      6.768
  Name = 
  4 active torsions:
  status: ('A' for Active; 'I' for Inactive)
    1  A    between atoms: N_1  and  C_15
    2  A    between atoms: N_1  and  C_18
    3  A    between atoms: C_2  and  C_15
    4  A    between atoms: C_9  and  C_15
                            x       y       z     vdW  Elec       q    Type
                         _______ _______ _______ _____ _____    ______ ____

>  <TORSDO>
F 4

$$$$
=
 OpenBabel11052413493D

 27 30  0  0  1  0  0  0  0  0999 V2000
  187.1940  177.4310  142.5270 C   0  0  1  0  0  3  0  0  0  0  0  0
  188.3260  176.9130  143.4280 C   0  0  1  0  0  3  0  0  0  0  0  0
  191.7380  176.1460  145.8000 C   0  0  0  0  0  3  0  0  0  0  0  0
  192.7860  176.0310  147.9690 O   0  0  0  0  0  1  0  0  0  0  0  0
  189.6640  176.7810  142.6940 C   0  0  0  0  0  2  0  0  0  0  0  0
  189.6210  177.6050  146.9090 C   0  0  0  0  0  3  0  0  0  0  0  0
  190.6820  177.1840  147.7170 C   0  0  0  0  0  3  0  0  0  0  0  0
  189.6110  177.2920  145.5460 C   0  0  0  0  0  0  0  0  0  0  0  0
  191.7380  176.4520  147.1640 C   0  0  0  0  0  0  0  0  0  0  0  0
  190.6850  176.5730  144.9860 C   0  0  0  0  0  0  0  0  0  0  0  0
  188.4820  177.7770  144.6840 C   0  0  0  0  0  2  0  0  0  0  0  0
  190.6740  176.2370  143.5960 N   0  0  0  0  0  2  0  0  0  0  0  0
  183.8620  179.0110  144.7490 C   0  0  0  0  0  3  0  0  0  0  0  0
  186.0180  177.9770  143.2860 C   0  0  0  0  0  0  0  0  0  0  0  0
  186.0490  177.9750  144.6860 C   0  0  0  0  0  3  0  0  0  0  0  0
  184.9750  178.4890  145.4160 C   0  0  0  0  0  3  0  0  0  0  0  0
  183.8250  179.0190  143.3520 C   0  0  0  0  0  3  0  0  0  0  0  0
  184.9000  178.5040  142.6220 C   0  0  0  0  0  3  0  0  0  0  0  0
  187.6940  178.4110  141.5680 N   0  0  0  0  0  2  0  0  0  0  0  0
  189.4200  178.6460  138.4270 C   0  0  0  0  0  3  0  0  0  0  0  0
  187.3310  178.4250  137.0730 C   0  0  0  0  0  0  0  0  0  0  0  0
  186.9570  178.2660  135.7470 O   0  0  0  0  0  1  0  0  0  0  0  0
  187.7130  178.1890  140.1560 C   0  0  0  0  0  0  0  0  0  0  0  0
  188.6950  178.9250  137.3440 C   0  0  0  0  0  3  0  0  0  0  0  0
  186.4100  178.1880  138.0170 C   0  0  0  0  0  3  0  0  0  0  0  0
  186.5730  178.3290  139.4790 C   0  0  0  0  0  3  0  0  0  0  0  0
  188.9610  177.7020  139.4870 C   0  0  0  0  0  2  0  0  0  0  0  0
  1 19  1  6  0  0  0
  1 14  1  0  0  0  0
  2  1  1  6  0  0  0
  2 11  1  0  0  0  0
  3  9  1  0  0  0  0
  5  2  1  0  0  0  0
  5 12  1  0  0  0  0
  6  7  1  0  0  0  0
  8  6  2  0  0  0  0
  9  7  2  0  0  0  0
  9  4  1  0  0  0  0
 10  8  1  0  0  0  0
 10  3  2  0  0  0  0
 11  8  1  0  0  0  0
 12 10  1  0  0  0  0
 13 16  1  0  0  0  0
 14 15  1  0  0  0  0
 15 16  2  0  0  0  0
 17 13  2  0  0  0  0
 18 14  2  0  0  0  0
 18 17  1  0  0  0  0
 20 27  1  0  0  0  0
 21 24  1  0  0  0  0
 21 25  2  0  0  0  0
 22 21  1  0  0  0  0
 23 19  1  0  0  0  0
 24 20  2  0  0  0  0
 25 26  1  0  0  0  0
 26 23  2  0  0  0  0
 27 23  1  0  0  0  0
M  END
>  <MODEL>
6

>  <REMARK>
 VINA RESULT:      -9.4      2.964      6.733
  Name = 
  4 active torsions:
  status: ('A' for Active; 'I' for Inactive)
    1  A    between atoms: N_1  and  C_15
    2  A    between atoms: N_1  and  C_18
    3  A    between atoms: C_2  and  C_15
    4  A    between atoms: C_9  and  C_15
                            x       y       z     vdW  Elec       q    Type
                         _______ _______ _______ _____ _____    ______ ____

>  <TORSDO>
F 4

$$$$
=
 OpenBabel11052413493D

 27 30  0  0  1  0  0  0  0  0999 V2000
  187.7560  177.3240  143.9130 C   0  0  1  0  0  3  0  0  0  0  0  0
  186.2440  177.5880  143.9770 C   0  0  1  0  0  3  0  0  0  0  0  0
  182.2620  179.0030  143.9910 C   0  0  0  0  0  3  0  0  0  0  0  0
  180.1490  179.2950  142.8650 O   0  0  0  0  0  1  0  0  0  0  0  0
  185.8470  178.5270  145.1200 C   0  0  0  0  0  2  0  0  0  0  0  0
  183.4790  178.4140  141.5390 C   0  0  0  0  0  3  0  0  0  0  0  0
  182.1140  178.7120  141.5910 C   0  0  0  0  0  3  0  0  0  0  0  0
  184.2380  178.4010  142.7130 C   0  0  0  0  0  0  0  0  0  0  0  0
  181.5050  179.0040  142.8160 C   0  0  0  0  0  0  0  0  0  0  0  0
  183.6290  178.7150  143.9430 C   0  0  0  0  0  0  0  0  0  0  0  0
  185.7090  178.1090  142.6400 C   0  0  0  0  0  2  0  0  0  0  0  0
  184.3970  178.6890  145.1500 N   0  0  0  0  0  2  0  0  0  0  0  0
  189.4260  177.6490  139.9590 C   0  0  0  0  0  3  0  0  0  0  0  0
  188.3360  177.4590  142.5340 C   0  0  0  0  0  0  0  0  0  0  0  0
  189.2450  176.4960  142.0800 C   0  0  0  0  0  3  0  0  0  0  0  0
  189.7890  176.5900  140.7960 C   0  0  0  0  0  3  0  0  0  0  0  0
  188.5180  178.6130  140.4050 C   0  0  0  0  0  3  0  0  0  0  0  0
  187.9730  178.5190  141.6880 C   0  0  0  0  0  3  0  0  0  0  0  0
  188.4750  178.1640  144.8650 N   0  0  0  0  0  2  0  0  0  0  0  0
  191.6650  176.5160  144.7720 C   0  0  0  0  0  3  0  0  0  0  0  0
  191.7620  176.2010  147.2490 C   0  0  0  0  0  0  0  0  0  0  0  0
  192.6640  175.7780  148.2150 O   0  0  0  0  0  1  0  0  0  0  0  0
  189.6640  177.7460  145.5410 C   0  0  0  0  0  0  0  0  0  0  0  0
  192.0310  175.8190  145.8470 C   0  0  0  0  0  3  0  0  0  0  0  0
  190.6690  176.8600  147.6580 C   0  0  0  0  0  3  0  0  0  0  0  0
  189.5650  177.3670  146.8160 C   0  0  0  0  0  3  0  0  0  0  0  0
  190.9930  177.8450  144.8590 C   0  0  0  0  0  2  0  0  0  0  0  0
  1 19  1  1  0  0  0
  2  1  1  6  0  0  0
  2  5  1  0  0  0  0
  5 12  1  0  0  0  0
  6  7  2  0  0  0  0
  6  8  1  0  0  0  0
  7  9  1  0  0  0  0
  8 10  2  0  0  0  0
  9  4  1  0  0  0  0
  9  3  2  0  0  0  0
 10  3  1  0  0  0  0
 10 12  1  0  0  0  0
 11  8  1  0  0  0  0
 11  2  1  0  0  0  0
 13 17  2  0  0  0  0
 13 16  1  0  0  0  0
 14  1  1  0  0  0  0
 15 14  1  0  0  0  0
 16 15  2  0  0  0  0
 17 18  1  0  0  0  0
 18 14  2  0  0  0  0
 19 23  1  0  0  0  0
 20 27  1  0  0  0  0
 20 24  2  0  0  0  0
 21 25  2  0  0  0  0
 21 22  1  0  0  0  0
 23 26  2  0  0  0  0
 24 21  1  0  0  0  0
 26 25  1  0  0  0  0
 27 23  1  0  0  0  0
M  END
>  <MODEL>
7

>  <REMARK>
 VINA RESULT:      -9.4      2.102      4.211
  Name = 
  4 active torsions:
  status: ('A' for Active; 'I' for Inactive)
    1  A    between atoms: N_1  and  C_15
    2  A    between atoms: N_1  and  C_18
    3  A    between atoms: C_2  and  C_15
    4  A    between atoms: C_9  and  C_15
                            x       y       z     vdW  Elec       q    Type
                         _______ _______ _______ _____ _____    ______ ____

>  <TORSDO>
F 4

$$$$
=
 OpenBabel11052413493D

 27 30  0  0  1  0  0  0  0  0999 V2000
  188.4020  177.1710  142.0450 C   0  0  1  0  0  3  0  0  0  0  0  0
  189.3040  176.6380  143.1690 C   0  0  1  0  0  3  0  0  0  0  0  0
  192.1580  175.7950  146.1680 C   0  0  0  0  0  3  0  0  0  0  0  0
  192.7920  175.7700  148.4960 O   0  0  0  0  0  1  0  0  0  0  0  0
  190.7330  176.3440  142.7020 C   0  0  0  0  0  2  0  0  0  0  0  0
  190.0220  177.4990  146.7770 C   0  0  0  0  0  3  0  0  0  0  0  0
  190.8800  177.0610  147.7900 C   0  0  0  0  0  3  0  0  0  0  0  0
  190.2240  177.0810  145.4580 C   0  0  0  0  0  0  0  0  0  0  0  0
  191.9460  176.2070  147.4870 C   0  0  0  0  0  0  0  0  0  0  0  0
  191.3100  176.2380  145.1500 C   0  0  0  0  0  0  0  0  0  0  0  0
  189.3150  177.5840  144.3750 C   0  0  0  0  0  2  0  0  0  0  0  0
  191.5140  175.7950  143.8060 N   0  0  0  0  0  2  0  0  0  0  0  0
  184.7790  179.0600  143.4010 C   0  0  0  0  0  3  0  0  0  0  0  0
  187.1440  177.8280  142.5390 C   0  0  0  0  0  0  0  0  0  0  0  0
  186.4850  178.7460  141.7130 C   0  0  0  0  0  3  0  0  0  0  0  0
  185.3070  179.3620  142.1420 C   0  0  0  0  0  3  0  0  0  0  0  0
  185.4300  178.1430  144.2300 C   0  0  0  0  0  3  0  0  0  0  0  0
  186.6090  177.5270  143.8010 C   0  0  0  0  0  3  0  0  0  0  0  0
  189.1410  178.0640  141.1580 N   0  0  0  0  0  2  0  0  0  0  0  0
  187.8500  177.0710  137.9570 C   0  0  0  0  0  3  0  0  0  0  0  0
  190.0950  176.4410  137.0600 C   0  0  0  0  0  0  0  0  0  0  0  0
  190.6720  176.0660  135.8550 O   0  0  0  0  0  1  0  0  0  0  0  0
  189.3660  177.7860  139.7740 C   0  0  0  0  0  0  0  0  0  0  0  0
  188.6280  176.3140  137.1850 C   0  0  0  0  0  3  0  0  0  0  0  0
  190.9100  176.8220  138.0530 C   0  0  0  0  0  3  0  0  0  0  0  0
  190.5230  177.2230  139.4210 C   0  0  0  0  0  3  0  0  0  0  0  0
  188.3690  178.2260  138.7460 C   0  0  0  0  0  2  0  0  0  0  0  0
  1 19  1  1  0  0  0
  1 14  1  0  0  0  0
  2  1  1  6  0  0  0
  2 11  1  0  0  0  0
  3  9  1  0  0  0  0
  5  2  1  0  0  0  0
  5 12  1  0  0  0  0
  6  7  1  0  0  0  0
  8  6  2  0  0  0  0
  9  7  2  0  0  0  0
  9  4  1  0  0  0  0
 10  8  1  0  0  0  0
 10  3  2  0  0  0  0
 11  8  1  0  0  0  0
 12 10  1  0  0  0  0
 13 17  1  0  0  0  0
 14 18  1  0  0  0  0
 15 16  1  0  0  0  0
 15 14  2  0  0  0  0
 16 13  2  0  0  0  0
 18 17  2  0  0  0  0
 20 27  1  0  0  0  0
 21 24  1  0  0  0  0
 21 25  2  0  0  0  0
 22 21  1  0  0  0  0
 23 19  1  0  0  0  0
 24 20  2  0  0  0  0
 25 26  1  0  0  0  0
 26 23  2  0  0  0  0
 27 23  1  0  0  0  0
M  END
>  <MODEL>
8

>  <REMARK>
 VINA RESULT:      -9.2      3.485      6.957
  Name = 
  4 active torsions:
  status: ('A' for Active; 'I' for Inactive)
    1  A    between atoms: N_1  and  C_15
    2  A    between atoms: N_1  and  C_18
    3  A    between atoms: C_2  and  C_15
    4  A    between atoms: C_9  and  C_15
                            x       y       z     vdW  Elec       q    Type
                         _______ _______ _______ _____ _____    ______ ____

>  <TORSDO>
F 4

$$$$
=
 OpenBabel11052413493D

 27 30  0  0  1  0  0  0  0  0999 V2000
  187.5230  178.1780  142.0960 C   0  0  1  0  0  3  0  0  0  0  0  0
  188.6340  177.7140  143.0500 C   0  0  1  0  0  3  0  0  0  0  0  0
  191.6810  177.1270  145.9190 C   0  0  0  0  0  3  0  0  0  0  0  0
  192.3690  176.3740  148.1050 O   0  0  0  0  0  1  0  0  0  0  0  0
  189.9790  178.3980  142.7820 C   0  0  0  0  0  2  0  0  0  0  0  0
  189.0090  177.0940  146.7580 C   0  0  0  0  0  3  0  0  0  0  0  0
  190.0280  176.7280  147.6450 C   0  0  0  0  0  3  0  0  0  0  0  0
  189.3230  177.4690  145.4480 C   0  0  0  0  0  0  0  0  0  0  0  0
  191.3620  176.7420  147.2250 C   0  0  0  0  0  0  0  0  0  0  0  0
  190.6680  177.5020  145.0320 C   0  0  0  0  0  0  0  0  0  0  0  0
  188.2230  177.8890  144.5160 C   0  0  0  0  0  2  0  0  0  0  0  0
  190.9940  177.8710  143.6890 N   0  0  0  0  0  2  0  0  0  0  0  0
  188.4520  177.7220  137.9180 C   0  0  0  0  0  3  0  0  0  0  0  0
  187.8610  178.0020  140.6420 C   0  0  0  0  0  0  0  0  0  0  0  0
  186.9260  178.3870  139.6750 C   0  0  0  0  0  3  0  0  0  0  0  0
  187.2200  178.2470  138.3160 C   0  0  0  0  0  3  0  0  0  0  0  0
  189.3920  177.3370  138.8790 C   0  0  0  0  0  3  0  0  0  0  0  0
  189.0980  177.4780  140.2380 C   0  0  0  0  0  3  0  0  0  0  0  0
  186.2540  177.5320  142.4170 N   0  0  0  0  0  2  0  0  0  0  0  0
  183.8790  179.0030  144.6750 C   0  0  0  0  0  3  0  0  0  0  0  0
  182.0490  179.0650  142.9740 C   0  0  0  0  0  0  0  0  0  0  0  0
  180.7680  179.5800  142.8350 O   0  0  0  0  0  1  0  0  0  0  0  0
  185.0360  178.2530  142.6230 C   0  0  0  0  0  0  0  0  0  0  0  0
  182.5900  178.9370  144.3440 C   0  0  0  0  0  3  0  0  0  0  0  0
  182.6800  178.6480  141.8690 C   0  0  0  0  0  3  0  0  0  0  0  0
  184.0230  178.0350  141.7840 C   0  0  0  0  0  3  0  0  0  0  0  0
  184.9550  179.3050  143.6860 C   0  0  0  0  0  2  0  0  0  0  0  0
  1 19  1  1  0  0  0
  2  1  1  6  0  0  0
  2 11  1  0  0  0  0
  3  9  1  0  0  0  0
  5  2  1  0  0  0  0
  5 12  1  0  0  0  0
  6  7  1  0  0  0  0
  8  6  2  0  0  0  0
  9  7  2  0  0  0  0
  9  4  1  0  0  0  0
 10  8  1  0  0  0  0
 10  3  2  0  0  0  0
 11  8  1  0  0  0  0
 12 10  1  0  0  0  0
 13 16  2  0  0  0  0
 13 17  1  0  0  0  0
 14  1  1  0  0  0  0
 15 14  2  0  0  0  0
 16 15  1  0  0  0  0
 17 18  2  0  0  0  0
 18 14  1  0  0  0  0
 19 23  1  0  0  0  0
 21 24  1  0  0  0  0
 22 21  1  0  0  0  0
 23 27  1  0  0  0  0
 24 20  2  0  0  0  0
 25 21  2  0  0  0  0
 26 25  1  0  0  0  0
 26 23  2  0  0  0  0
 27 20  1  0  0  0  0
M  END
>  <MODEL>
9

>  <REMARK>
 VINA RESULT:      -8.9      2.429      8.065
  Name = 
  4 active torsions:
  status: ('A' for Active; 'I' for Inactive)
    1  A    between atoms: N_1  and  C_15
    2  A    between atoms: N_1  and  C_18
    3  A    between atoms: C_2  and  C_15
    4  A    between atoms: C_9  and  C_15
                            x       y       z     vdW  Elec       q    Type
                         _______ _______ _______ _____ _____    ______ ____

>  <TORSDO>
F 4

$$$$
