=
 OpenBabel11052417033D

 32 34  0  0  1  0  0  0  0  0999 V2000
  190.7740  176.7360  147.3940 C   0  0  0  0  0  2  0  0  0  0  0  0
  191.6980  175.9910  146.4380 C   0  0  0  0  0  2  0  0  0  0  0  0
  189.3800  176.8440  146.7870 C   0  0  0  0  0  2  0  0  0  0  0  0
  189.4330  177.5920  145.4550 C   0  0  1  0  0  3  0  0  0  0  0  0
  191.7900  176.7350  145.1110 C   0  0  0  0  0  2  0  0  0  0  0  0
  190.4030  176.8970  144.4860 C   0  0  2  0  0  3  0  0  0  0  0  0
  188.0990  177.6490  144.8730 N   0  0  0  0  0  2  0  0  0  0  0  0
  187.0340  178.1750  146.8860 O   0  0  0  0  0  0  0  0  0  0  0  0
  186.9340  177.9430  145.6520 C   0  0  0  0  0  0  0  0  0  0  0  0
  184.7320  179.0710  145.6490 C   0  0  0  0  0  2  0  0  0  0  0  0
  183.2280  178.8650  143.6660 C   0  0  0  0  0  0  0  0  0  0  0  0
  184.3560  178.2820  142.8280 C   0  0  2  0  0  3  0  0  0  0  0  0
  183.3980  179.1700  144.9650 C   0  0  0  0  0  3  0  0  0  0  0  0
  185.7280  178.2890  143.5180 C   0  0  0  0  0  2  0  0  0  0  0  0
  185.5920  177.9890  145.0060 C   0  0  1  0  0  3  0  0  0  0  0  0
  183.8520  178.0170  140.3630 C   0  0  0  0  0  1  0  0  0  0  0  0
  184.4470  178.9130  141.4390 C   0  0  0  0  0  2  0  0  0  0  0  0
  181.8570  178.9750  143.0710 C   0  0  0  0  0  2  0  0  0  0  0  0
  180.8040  178.5180  144.0630 C   0  0  0  0  0  2  0  0  0  0  0  0
  179.4320  178.6480  143.4360 C   0  0  0  0  0  2  0  0  0  0  0  0
  179.5140  178.3060  141.9640 C   0  0  0  0  0  1  0  0  0  0  0  0
  190.4930  177.6090  143.1300 C   0  0  0  0  0  2  0  0  0  0  0  0
  190.9420  176.6950  141.9930 C   0  0  0  0  0  2  0  0  0  0  0  0
  191.5690  177.4970  140.8670 C   0  0  0  0  0  2  0  0  0  0  0  0
  189.4660  177.0510  139.4740 C   0  0  1  0  0  3  0  0  0  0  0  0
  191.5510  176.6720  138.4570 C   0  0  0  0  0  0  0  0  0  0  0  0
  190.5960  176.1560  137.4590 C   0  0  0  0  0  3  0  0  0  0  0  0
  189.2300  176.4460  138.0830 C   0  0  0  0  0  3  0  0  0  0  0  0
  193.1690  176.4450  138.3420 S   0  0  0  0  0  0  0  0  0  0  0  0
  190.9060  177.1860  139.6080 N   0  0  0  0  0  0  0  0  0  0  0  0
  187.8840  178.4910  140.7570 C   0  0  0  0  0  1  0  0  0  0  0  0
  188.7900  178.4110  139.5440 C   0  0  0  0  0  2  0  0  0  0  0  0
  2  1  1  0  0  0  0
  3  1  1  0  0  0  0
  4  7  1  6  0  0  0
  4  3  1  0  0  0  0
  5  2  1  0  0  0  0
  6 22  1  6  0  0  0
  6  5  1  0  0  0  0
  6  4  1  0  0  0  0
  7  9  1  0  0  0  0
  9  8  2  0  0  0  0
 11 13  2  0  0  0  0
 12 17  1  6  0  0  0
 12 14  1  0  0  0  0
 12 11  1  0  0  0  0
 13 10  1  0  0  0  0
 14 15  1  0  0  0  0
 15 10  1  0  0  0  0
 15  9  1  1  0  0  0
 16 17  1  0  0  0  0
 18 11  1  0  0  0  0
 18 19  1  0  0  0  0
 20 19  1  0  0  0  0
 21 20  1  0  0  0  0
 23 22  1  0  0  0  0
 24 23  1  0  0  0  0
 25 32  1  6  0  0  0
 25 30  1  0  0  0  0
 26 30  1  0  0  0  0
 27 28  2  0  0  0  0
 27 26  1  0  0  0  0
 28 25  1  0  0  0  0
 29 26  2  0  0  0  0
 30 24  1  0  0  0  0
 32 31  1  0  0  0  0
M  END
>  <MODEL>
1

>  <REMARK>
 VINA RESULT:      -8.5      0.000      0.000
  Name = 
  11 active torsions:
  status: ('A' for Active; 'I' for Inactive)
    1  A    between atoms: C_1  and  C_20
    2  A    between atoms: C_2  and  C_12
    3  A    between atoms: C_2  and  C_20
    4  A    between atoms: N_3  and  C_15
    5  A    between atoms: C_6  and  C_16
    6  A    between atoms: C_6  and  C_26
    7  A    between atoms: C_7  and  C_31
    8  A    between atoms: C_14  and  C_28
    9  A    between atoms: C_16  and  C_27
   10  A    between atoms: C_19  and  C_24
   11  A    between atoms: C_27  and  N_32
                            x       y       z     vdW  Elec       q    Type
                         _______ _______ _______ _____ _____    ______ ____

>  <TORSDO>
F 11

$$$$
=
 OpenBabel11052417033D

 32 34  0  0  1  0  0  0  0  0999 V2000
  188.4120  177.5440  147.7910 C   0  0  0  0  0  2  0  0  0  0  0  0
  189.6460  176.8230  147.2610 C   0  0  0  0  0  2  0  0  0  0  0  0
  187.2570  177.3820  146.8100 C   0  0  0  0  0  2  0  0  0  0  0  0
  187.6300  177.9620  145.4460 C   0  0  1  0  0  3  0  0  0  0  0  0
  190.0540  177.4050  145.9130 C   0  0  0  0  0  2  0  0  0  0  0  0
  188.9060  177.2950  144.9070 C   0  0  2  0  0  3  0  0  0  0  0  0
  186.5290  177.7620  144.5130 N   0  0  0  0  0  2  0  0  0  0  0  0
  185.2950  179.5960  145.2750 O   0  0  0  0  0  0  0  0  0  0  0  0
  185.3820  178.6180  144.4850 C   0  0  0  0  0  0  0  0  0  0  0  0
  183.0370  179.1550  143.9010 C   0  0  0  0  0  2  0  0  0  0  0  0
  182.1930  178.7080  141.5930 C   0  0  0  0  0  0  0  0  0  0  0  0
  183.6090  178.4840  141.0830 C   0  0  2  0  0  3  0  0  0  0  0  0
  181.9430  178.9600  142.8910 C   0  0  0  0  0  3  0  0  0  0  0  0
  184.7100  178.7900  142.1090 C   0  0  0  0  0  2  0  0  0  0  0  0
  184.2830  178.3680  143.5080 C   0  0  1  0  0  3  0  0  0  0  0  0
  185.0260  178.5710  138.9870 C   0  0  0  0  0  1  0  0  0  0  0  0
  183.8830  179.2080  139.7650 C   0  0  0  0  0  2  0  0  0  0  0  0
  181.0390  178.5100  140.6600 C   0  0  0  0  0  2  0  0  0  0  0  0
  180.7910  177.0330  140.4180 C   0  0  0  0  0  2  0  0  0  0  0  0
  181.2190  176.6740  139.0110 C   0  0  0  0  0  2  0  0  0  0  0  0
  182.3800  175.7040  139.0680 C   0  0  0  0  0  1  0  0  0  0  0  0
  189.3240  177.8410  143.5360 C   0  0  0  0  0  2  0  0  0  0  0  0
  190.2320  176.8940  142.7570 C   0  0  0  0  0  2  0  0  0  0  0  0
  191.1980  177.6690  141.8790 C   0  0  0  0  0  2  0  0  0  0  0  0
  189.6750  176.9700  139.9400 C   0  0  1  0  0  3  0  0  0  0  0  0
  191.9930  177.0050  139.5510 C   0  0  0  0  0  0  0  0  0  0  0  0
  191.4580  176.4020  138.3170 C   0  0  0  0  0  3  0  0  0  0  0  0
  189.9430  176.4230  138.5320 C   0  0  0  0  0  3  0  0  0  0  0  0
  193.5930  177.0550  139.8970 S   0  0  0  0  0  0  0  0  0  0  0  0
  190.9740  177.3320  140.4800 N   0  0  0  0  0  0  0  0  0  0  0  0
  188.8130  178.7560  138.4270 C   0  0  0  0  0  1  0  0  0  0  0  0
  188.7780  178.1940  139.8350 C   0  0  0  0  0  2  0  0  0  0  0  0
  2  1  1  0  0  0  0
  3  1  1  0  0  0  0
  4  7  1  6  0  0  0
  4  3  1  0  0  0  0
  5  2  1  0  0  0  0
  6 22  1  6  0  0  0
  6  4  1  0  0  0  0
  6  5  1  0  0  0  0
  9  7  1  0  0  0  0
  9  8  2  0  0  0  0
 11 13  2  0  0  0  0
 12 17  1  6  0  0  0
 12 11  1  0  0  0  0
 12 14  1  0  0  0  0
 13 10  1  0  0  0  0
 14 15  1  0  0  0  0
 15 10  1  0  0  0  0
 15  9  1  1  0  0  0
 16 17  1  0  0  0  0
 18 11  1  0  0  0  0
 19 18  1  0  0  0  0
 20 21  1  0  0  0  0
 20 19  1  0  0  0  0
 23 22  1  0  0  0  0
 24 23  1  0  0  0  0
 25 32  1  6  0  0  0
 25 30  1  0  0  0  0
 26 29  2  0  0  0  0
 26 30  1  0  0  0  0
 27 28  2  0  0  0  0
 27 26  1  0  0  0  0
 28 25  1  0  0  0  0
 30 24  1  0  0  0  0
 31 32  1  0  0  0  0
M  END
>  <MODEL>
2

>  <REMARK>
 VINA RESULT:      -8.2      1.454      2.287
  Name = 
  11 active torsions:
  status: ('A' for Active; 'I' for Inactive)
    1  A    between atoms: C_1  and  C_20
    2  A    between atoms: C_2  and  C_12
    3  A    between atoms: C_2  and  C_20
    4  A    between atoms: N_3  and  C_15
    5  A    between atoms: C_6  and  C_16
    6  A    between atoms: C_6  and  C_26
    7  A    between atoms: C_7  and  C_31
    8  A    between atoms: C_14  and  C_28
    9  A    between atoms: C_16  and  C_27
   10  A    between atoms: C_19  and  C_24
   11  A    between atoms: C_27  and  N_32
                            x       y       z     vdW  Elec       q    Type
                         _______ _______ _______ _____ _____    ______ ____

>  <TORSDO>
F 11

$$$$
=
 OpenBabel11052417033D

 32 34  0  0  1  0  0  0  0  0999 V2000
  183.1470  179.4580  144.7320 C   0  0  0  0  0  2  0  0  0  0  0  0
  184.1140  178.7140  145.6470 C   0  0  0  0  0  2  0  0  0  0  0  0
  183.0550  178.7440  143.3880 C   0  0  0  0  0  2  0  0  0  0  0  0
  184.4290  178.6810  142.7210 C   0  0  1  0  0  3  0  0  0  0  0  0
  185.5000  178.6640  145.0140 C   0  0  0  0  0  2  0  0  0  0  0  0
  185.4440  177.9870  143.6440 C   0  0  2  0  0  3  0  0  0  0  0  0
  184.3260  177.9620  141.4590 N   0  0  0  0  0  2  0  0  0  0  0  0
  184.8020  179.8280  140.1340 O   0  0  0  0  0  0  0  0  0  0  0  0
  184.5200  178.6010  140.1930 C   0  0  0  0  0  0  0  0  0  0  0  0
  183.1710  178.2540  138.1480 C   0  0  0  0  0  2  0  0  0  0  0  0
  184.1630  177.0670  136.1860 C   0  0  0  0  0  0  0  0  0  0  0  0
  185.5580  177.1770  136.7830 C   0  0  2  0  0  3  0  0  0  0  0  0
  183.0770  177.5140  136.8440 C   0  0  0  0  0  3  0  0  0  0  0  0
  185.6380  178.0250  138.0610 C   0  0  0  0  0  2  0  0  0  0  0  0
  184.4040  177.8170  138.9300 C   0  0  1  0  0  3  0  0  0  0  0  0
  187.5960  178.6190  136.3650 C   0  0  0  0  0  1  0  0  0  0  0  0
  186.6010  177.6360  135.7640 C   0  0  0  0  0  2  0  0  0  0  0  0
  183.9730  176.3230  134.9000 C   0  0  0  0  0  2  0  0  0  0  0  0
  184.4240  174.8820  135.0420 C   0  0  0  0  0  2  0  0  0  0  0  0
  183.4820  174.1490  135.9740 C   0  0  0  0  0  2  0  0  0  0  0  0
  184.2710  173.5350  137.1100 C   0  0  0  0  0  1  0  0  0  0  0  0
  186.8420  177.8960  143.0200 C   0  0  0  0  0  2  0  0  0  0  0  0
  187.8420  177.1310  143.8810 C   0  0  0  0  0  2  0  0  0  0  0  0
  188.9450  178.0490  144.3790 C   0  0  0  0  0  2  0  0  0  0  0  0
  189.7320  177.5470  146.7650 C   0  0  1  0  0  3  0  0  0  0  0  0
  190.9600  176.6150  144.9900 C   0  0  0  0  0  0  0  0  0  0  0  0
  191.7760  176.2790  146.1710 C   0  0  0  0  0  3  0  0  0  0  0  0
  190.9610  176.8320  147.3420 C   0  0  0  0  0  3  0  0  0  0  0  0
  191.4810  176.3900  143.4540 S   0  0  0  0  0  0  0  0  0  0  0  0
  189.7900  177.3380  145.3290 N   0  0  0  0  0  0  0  0  0  0  0  0
  187.5700  177.9910  147.9270 C   0  0  0  0  0  1  0  0  0  0  0  0
  188.4750  176.9210  147.3490 C   0  0  0  0  0  2  0  0  0  0  0  0
  1  2  1  0  0  0  0
  3  1  1  0  0  0  0
  4  7  1  6  0  0  0
  4  3  1  0  0  0  0
  4  6  1  0  0  0  0
  5  2  1  0  0  0  0
  6 22  1  6  0  0  0
  6  5  1  0  0  0  0
  8  9  2  0  0  0  0
  9  7  1  0  0  0  0
 10 15  1  0  0  0  0
 11 12  1  0  0  0  0
 11 13  2  0  0  0  0
 12 17  1  6  0  0  0
 12 14  1  0  0  0  0
 13 10  1  0  0  0  0
 14 15  1  0  0  0  0
 15  9  1  1  0  0  0
 17 16  1  0  0  0  0
 18 19  1  0  0  0  0
 18 11  1  0  0  0  0
 19 20  1  0  0  0  0
 20 21  1  0  0  0  0
 22 23  1  0  0  0  0
 23 24  1  0  0  0  0
 24 30  1  0  0  0  0
 25 28  1  0  0  0  0
 25 32  1  1  0  0  0
 26 30  1  0  0  0  0
 26 27  1  0  0  0  0
 27 28  2  0  0  0  0
 29 26  2  0  0  0  0
 30 25  1  0  0  0  0
 32 31  1  0  0  0  0
M  END
>  <MODEL>
3

>  <REMARK>
 VINA RESULT:      -8.0      3.309      7.095
  Name = 
  11 active torsions:
  status: ('A' for Active; 'I' for Inactive)
    1  A    between atoms: C_1  and  C_20
    2  A    between atoms: C_2  and  C_12
    3  A    between atoms: C_2  and  C_20
    4  A    between atoms: N_3  and  C_15
    5  A    between atoms: C_6  and  C_16
    6  A    between atoms: C_6  and  C_26
    7  A    between atoms: C_7  and  C_31
    8  A    between atoms: C_14  and  C_28
    9  A    between atoms: C_16  and  C_27
   10  A    between atoms: C_19  and  C_24
   11  A    between atoms: C_27  and  N_32
                            x       y       z     vdW  Elec       q    Type
                         _______ _______ _______ _____ _____    ______ ____

>  <TORSDO>
F 11

$$$$
=
 OpenBabel11052417033D

 32 34  0  0  1  0  0  0  0  0999 V2000
  191.7410  175.6640  137.4740 C   0  0  0  0  0  2  0  0  0  0  0  0
  190.7740  175.6760  136.2960 C   0  0  0  0  0  2  0  0  0  0  0  0
  190.9820  175.9300  138.7690 C   0  0  0  0  0  2  0  0  0  0  0  0
  190.2820  177.2870  138.7090 C   0  0  1  0  0  3  0  0  0  0  0  0
  190.0840  177.0320  136.1990 C   0  0  0  0  0  2  0  0  0  0  0  0
  189.3400  177.3540  137.4960 C   0  0  2  0  0  3  0  0  0  0  0  0
  189.5320  177.5040  139.9380 N   0  0  0  0  0  2  0  0  0  0  0  0
  191.4250  177.5950  141.3070 O   0  0  0  0  0  0  0  0  0  0  0  0
  190.1690  177.6450  141.2120 C   0  0  0  0  0  0  0  0  0  0  0  0
  188.1520  176.9260  142.4530 C   0  0  0  0  0  2  0  0  0  0  0  0
  187.9150  177.4840  144.8760 C   0  0  0  0  0  0  0  0  0  0  0  0
  189.3780  177.8930  144.9600 C   0  0  2  0  0  3  0  0  0  0  0  0
  187.3550  177.0970  143.7160 C   0  0  0  0  0  3  0  0  0  0  0  0
  190.1900  177.6130  143.6870 C   0  0  0  0  0  2  0  0  0  0  0  0
  189.3530  177.8660  142.4400 C   0  0  1  0  0  3  0  0  0  0  0  0
  191.4500  176.7430  145.8490 C   0  0  0  0  0  1  0  0  0  0  0  0
  190.0820  177.3180  146.1880 C   0  0  0  0  0  2  0  0  0  0  0  0
  187.0400  177.6440  146.0820 C   0  0  0  0  0  2  0  0  0  0  0  0
  186.0650  178.7910  145.8880 C   0  0  0  0  0  2  0  0  0  0  0  0
  184.6490  178.2780  146.0310 C   0  0  0  0  0  2  0  0  0  0  0  0
  183.7470  179.0030  145.0540 C   0  0  0  0  0  1  0  0  0  0  0  0
  188.6090  178.6990  137.3900 C   0  0  0  0  0  2  0  0  0  0  0  0
  187.1720  178.5710  136.8950 C   0  0  0  0  0  2  0  0  0  0  0  0
  186.4760  177.3890  137.5470 C   0  0  0  0  0  2  0  0  0  0  0  0
  184.2580  177.7710  138.7710 C   0  0  1  0  0  3  0  0  0  0  0  0
  184.1740  177.3710  136.4560 C   0  0  0  0  0  0  0  0  0  0  0  0
  182.7520  177.3650  136.8460 C   0  0  0  0  0  3  0  0  0  0  0  0
  182.7870  177.6790  138.3430 C   0  0  0  0  0  3  0  0  0  0  0  0
  184.6930  176.9140  134.9720 S   0  0  0  0  0  0  0  0  0  0  0  0
  185.0360  177.6050  137.5560 N   0  0  0  0  0  0  0  0  0  0  0  0
  185.2100  178.9930  140.7270 C   0  0  0  0  0  1  0  0  0  0  0  0
  184.5110  179.1370  139.3890 C   0  0  0  0  0  2  0  0  0  0  0  0
  1  3  1  0  0  0  0
  2  1  1  0  0  0  0
  4  3  1  0  0  0  0
  4  7  1  1  0  0  0
  5  2  1  0  0  0  0
  5  6  1  0  0  0  0
  6 22  1  6  0  0  0
  6  4  1  0  0  0  0
  7  9  1  0  0  0  0
  9  8  2  0  0  0  0
 10 13  1  0  0  0  0
 11 12  1  0  0  0  0
 11 18  1  0  0  0  0
 12 17  1  1  0  0  0
 13 11  2  0  0  0  0
 14 12  1  0  0  0  0
 15  9  1  6  0  0  0
 15 10  1  0  0  0  0
 15 14  1  0  0  0  0
 16 17  1  0  0  0  0
 19 20  1  0  0  0  0
 19 18  1  0  0  0  0
 21 20  1  0  0  0  0
 23 22  1  0  0  0  0
 23 24  1  0  0  0  0
 24 30  1  0  0  0  0
 25 32  1  6  0  0  0
 26 27  1  0  0  0  0
 26 30  1  0  0  0  0
 27 28  2  0  0  0  0
 28 25  1  0  0  0  0
 29 26  2  0  0  0  0
 30 25  1  0  0  0  0
 32 31  1  0  0  0  0
M  END
>  <MODEL>
4

>  <REMARK>
 VINA RESULT:      -7.9      2.904      6.709
  Name = 
  11 active torsions:
  status: ('A' for Active; 'I' for Inactive)
    1  A    between atoms: C_1  and  C_20
    2  A    between atoms: C_2  and  C_12
    3  A    between atoms: C_2  and  C_20
    4  A    between atoms: N_3  and  C_15
    5  A    between atoms: C_6  and  C_16
    6  A    between atoms: C_6  and  C_26
    7  A    between atoms: C_7  and  C_31
    8  A    between atoms: C_14  and  C_28
    9  A    between atoms: C_16  and  C_27
   10  A    between atoms: C_19  and  C_24
   11  A    between atoms: C_27  and  N_32
                            x       y       z     vdW  Elec       q    Type
                         _______ _______ _______ _____ _____    ______ ____

>  <TORSDO>
F 11

$$$$
=
 OpenBabel11052417033D

 32 34  0  0  1  0  0  0  0  0999 V2000
  191.7890  175.2750  137.1730 C   0  0  0  0  0  2  0  0  0  0  0  0
  190.8040  175.4300  136.0210 C   0  0  0  0  0  2  0  0  0  0  0  0
  191.0920  175.5760  138.4950 C   0  0  0  0  0  2  0  0  0  0  0  0
  190.5410  177.0020  138.4950 C   0  0  1  0  0  3  0  0  0  0  0  0
  190.2620  176.8550  135.9830 C   0  0  0  0  0  2  0  0  0  0  0  0
  189.5850  177.2100  137.3090 C   0  0  2  0  0  3  0  0  0  0  0  0
  189.8440  177.2550  139.7490 N   0  0  0  0  0  2  0  0  0  0  0  0
  191.7980  177.5450  140.9990 O   0  0  0  0  0  0  0  0  0  0  0  0
  190.5390  177.5170  140.9730 C   0  0  0  0  0  0  0  0  0  0  0  0
  188.5900  176.8180  142.3300 C   0  0  0  0  0  2  0  0  0  0  0  0
  188.4570  177.4570  144.7410 C   0  0  0  0  0  0  0  0  0  0  0  0
  189.9170  177.8860  144.7430 C   0  0  2  0  0  3  0  0  0  0  0  0
  187.8500  177.0230  143.6210 C   0  0  0  0  0  3  0  0  0  0  0  0
  190.6730  177.5710  143.4440 C   0  0  0  0  0  2  0  0  0  0  0  0
  189.7770  177.7710  142.2290 C   0  0  1  0  0  3  0  0  0  0  0  0
  191.7140  176.3090  145.5730 C   0  0  0  0  0  1  0  0  0  0  0  0
  190.6840  177.3620  145.9560 C   0  0  0  0  0  2  0  0  0  0  0  0
  187.6360  177.6490  145.9790 C   0  0  0  0  0  2  0  0  0  0  0  0
  186.1550  177.5540  145.6610 C   0  0  0  0  0  2  0  0  0  0  0  0
  185.5070  178.9060  145.8720 C   0  0  0  0  0  2  0  0  0  0  0  0
  184.1240  178.9050  145.2560 C   0  0  0  0  0  1  0  0  0  0  0  0
  189.0010  178.6280  137.2630 C   0  0  0  0  0  2  0  0  0  0  0  0
  187.5140  178.6610  136.9210 C   0  0  0  0  0  2  0  0  0  0  0  0
  186.6900  178.0120  138.0190 C   0  0  0  0  0  2  0  0  0  0  0  0
  186.1320  176.0850  136.4240 C   0  0  1  0  0  3  0  0  0  0  0  0
  184.3460  177.1400  137.5300 C   0  0  0  0  0  0  0  0  0  0  0  0
  183.6650  176.2320  136.5890 C   0  0  0  0  0  3  0  0  0  0  0  0
  184.8160  175.4960  135.9000 C   0  0  0  0  0  3  0  0  0  0  0  0
  183.5560  178.2830  138.3950 S   0  0  0  0  0  0  0  0  0  0  0  0
  185.7580  177.0550  137.4380 N   0  0  0  0  0  0  0  0  0  0  0  0
  187.4230  174.0010  135.9570 C   0  0  0  0  0  1  0  0  0  0  0  0
  186.9680  174.9680  137.0320 C   0  0  0  0  0  2  0  0  0  0  0  0
  1  3  1  0  0  0  0
  2  1  1  0  0  0  0
  3  4  1  0  0  0  0
  4  7  1  1  0  0  0
  5  2  1  0  0  0  0
  5  6  1  0  0  0  0
  6 22  1  6  0  0  0
  6  4  1  0  0  0  0
  7  9  1  0  0  0  0
  9  8  2  0  0  0  0
 10 13  1  0  0  0  0
 11 12  1  0  0  0  0
 11 18  1  0  0  0  0
 12 17  1  1  0  0  0
 13 11  2  0  0  0  0
 14 12  1  0  0  0  0
 15  9  1  6  0  0  0
 15 10  1  0  0  0  0
 15 14  1  0  0  0  0
 16 17  1  0  0  0  0
 19 20  1  0  0  0  0
 19 18  1  0  0  0  0
 21 20  1  0  0  0  0
 23 22  1  0  0  0  0
 23 24  1  0  0  0  0
 25 32  1  1  0  0  0
 25 30  1  0  0  0  0
 26 29  2  0  0  0  0
 27 26  1  0  0  0  0
 28 25  1  0  0  0  0
 28 27  2  0  0  0  0
 30 26  1  0  0  0  0
 30 24  1  0  0  0  0
 31 32  1  0  0  0  0
M  END
>  <MODEL>
5

>  <REMARK>
 VINA RESULT:      -7.8      3.235      6.914
  Name = 
  11 active torsions:
  status: ('A' for Active; 'I' for Inactive)
    1  A    between atoms: C_1  and  C_20
    2  A    between atoms: C_2  and  C_12
    3  A    between atoms: C_2  and  C_20
    4  A    between atoms: N_3  and  C_15
    5  A    between atoms: C_6  and  C_16
    6  A    between atoms: C_6  and  C_26
    7  A    between atoms: C_7  and  C_31
    8  A    between atoms: C_14  and  C_28
    9  A    between atoms: C_16  and  C_27
   10  A    between atoms: C_19  and  C_24
   11  A    between atoms: C_27  and  N_32
                            x       y       z     vdW  Elec       q    Type
                         _______ _______ _______ _____ _____    ______ ____

>  <TORSDO>
F 11

$$$$
=
 OpenBabel11052417033D

 32 34  0  0  1  0  0  0  0  0999 V2000
  186.9660  179.0540  147.7630 C   0  0  0  0  0  2  0  0  0  0  0  0
  187.8830  177.8360  147.7990 C   0  0  0  0  0  2  0  0  0  0  0  0
  185.7240  178.7420  146.9350 C   0  0  0  0  0  2  0  0  0  0  0  0
  186.1150  178.3660  145.5070 C   0  0  1  0  0  3  0  0  0  0  0  0
  188.3100  177.4600  146.3840 C   0  0  0  0  0  2  0  0  0  0  0  0
  187.0870  177.1750  145.5100 C   0  0  2  0  0  3  0  0  0  0  0  0
  184.9190  178.0340  144.7450 N   0  0  0  0  0  2  0  0  0  0  0  0
  185.2320  179.7140  143.1500 O   0  0  0  0  0  0  0  0  0  0  0  0
  184.5300  178.7570  143.5720 C   0  0  0  0  0  0  0  0  0  0  0  0
  182.0730  179.0290  143.4610 C   0  0  0  0  0  2  0  0  0  0  0  0
  180.8480  178.4540  141.3610 C   0  0  0  0  0  0  0  0  0  0  0  0
  182.1530  178.3750  140.5830 C   0  0  2  0  0  3  0  0  0  0  0  0
  180.8300  178.7000  142.6840 C   0  0  0  0  0  3  0  0  0  0  0  0
  183.3930  178.8140  141.3740 C   0  0  0  0  0  2  0  0  0  0  0  0
  183.2960  178.3740  142.8290 C   0  0  1  0  0  3  0  0  0  0  0  0
  182.6790  178.2740  138.1090 C   0  0  0  0  0  1  0  0  0  0  0  0
  182.0840  179.1010  139.2390 C   0  0  0  0  0  2  0  0  0  0  0  0
  179.5620  178.1180  140.6710 C   0  0  0  0  0  2  0  0  0  0  0  0
  179.3070  176.6230  140.7120 C   0  0  0  0  0  2  0  0  0  0  0  0
  179.5000  176.0400  139.3290 C   0  0  0  0  0  2  0  0  0  0  0  0
  180.7820  175.2350  139.2940 C   0  0  0  0  0  1  0  0  0  0  0  0
  187.5110  176.7560  144.0960 C   0  0  0  0  0  2  0  0  0  0  0  0
  188.2310  177.8600  143.3270 C   0  0  0  0  0  2  0  0  0  0  0  0
  188.3620  177.5010  141.8570 C   0  0  0  0  0  2  0  0  0  0  0  0
  190.8420  177.3670  142.4900 C   0  0  1  0  0  3  0  0  0  0  0  0
  190.2970  177.4020  140.2030 C   0  0  0  0  0  0  0  0  0  0  0  0
  191.7680  177.5020  140.1960 C   0  0  0  0  0  3  0  0  0  0  0  0
  192.1430  177.4250  141.6780 C   0  0  0  0  0  3  0  0  0  0  0  0
  189.3840  177.6090  138.8600 S   0  0  0  0  0  0  0  0  0  0  0  0
  189.7660  177.3230  141.5140 N   0  0  0  0  0  0  0  0  0  0  0  0
  191.4910  176.3810  144.6870 C   0  0  0  0  0  1  0  0  0  0  0  0
  190.8450  176.1080  143.3430 C   0  0  0  0  0  2  0  0  0  0  0  0
  1  2  1  0  0  0  0
  3  1  1  0  0  0  0
  4  7  1  6  0  0  0
  4  6  1  0  0  0  0
  4  3  1  0  0  0  0
  5  2  1  0  0  0  0
  6 22  1  6  0  0  0
  6  5  1  0  0  0  0
  8  9  2  0  0  0  0
  9  7  1  0  0  0  0
 11 13  2  0  0  0  0
 12 17  1  6  0  0  0
 12 11  1  0  0  0  0
 12 14  1  0  0  0  0
 13 10  1  0  0  0  0
 14 15  1  0  0  0  0
 15 10  1  0  0  0  0
 15  9  1  1  0  0  0
 16 17  1  0  0  0  0
 18 19  1  0  0  0  0
 18 11  1  0  0  0  0
 20 19  1  0  0  0  0
 21 20  1  0  0  0  0
 23 22  1  0  0  0  0
 24 23  1  0  0  0  0
 25 32  1  6  0  0  0
 26 30  1  0  0  0  0
 27 26  1  0  0  0  0
 27 28  2  0  0  0  0
 28 25  1  0  0  0  0
 29 26  2  0  0  0  0
 30 24  1  0  0  0  0
 30 25  1  0  0  0  0
 32 31  1  0  0  0  0
M  END
>  <MODEL>
6

>  <REMARK>
 VINA RESULT:      -7.7      2.108      3.741
  Name = 
  11 active torsions:
  status: ('A' for Active; 'I' for Inactive)
    1  A    between atoms: C_1  and  C_20
    2  A    between atoms: C_2  and  C_12
    3  A    between atoms: C_2  and  C_20
    4  A    between atoms: N_3  and  C_15
    5  A    between atoms: C_6  and  C_16
    6  A    between atoms: C_6  and  C_26
    7  A    between atoms: C_7  and  C_31
    8  A    between atoms: C_14  and  C_28
    9  A    between atoms: C_16  and  C_27
   10  A    between atoms: C_19  and  C_24
   11  A    between atoms: C_27  and  N_32
                            x       y       z     vdW  Elec       q    Type
                         _______ _______ _______ _____ _____    ______ ____

>  <TORSDO>
F 11

$$$$
=
 OpenBabel11052417033D

 32 34  0  0  1  0  0  0  0  0999 V2000
  191.7560  176.1680  138.0010 C   0  0  0  0  0  2  0  0  0  0  0  0
  190.7470  175.7620  136.9340 C   0  0  0  0  0  2  0  0  0  0  0  0
  191.0470  176.3580  139.3380 C   0  0  0  0  0  2  0  0  0  0  0  0
  189.9730  177.4400  139.2240 C   0  0  1  0  0  3  0  0  0  0  0  0
  189.6810  176.8410  136.7820 C   0  0  0  0  0  2  0  0  0  0  0  0
  188.9690  177.0880  138.1140 C   0  0  2  0  0  3  0  0  0  0  0  0
  189.2820  177.5770  140.4990 N   0  0  0  0  0  2  0  0  0  0  0  0
  191.2410  177.6690  141.7710 O   0  0  0  0  0  0  0  0  0  0  0  0
  189.9810  177.6820  141.7440 C   0  0  0  0  0  0  0  0  0  0  0  0
  188.1510  176.7430  143.1200 C   0  0  0  0  0  2  0  0  0  0  0  0
  188.0030  177.3070  145.5480 C   0  0  0  0  0  0  0  0  0  0  0  0
  189.4070  177.8930  145.5330 C   0  0  2  0  0  3  0  0  0  0  0  0
  187.4220  176.8350  144.4300 C   0  0  0  0  0  3  0  0  0  0  0  0
  190.1640  177.6930  144.2120 C   0  0  0  0  0  2  0  0  0  0  0  0
  189.2240  177.8220  143.0200 C   0  0  1  0  0  3  0  0  0  0  0  0
  191.5280  176.7250  146.2700 C   0  0  0  0  0  1  0  0  0  0  0  0
  190.2540  177.4280  146.7170 C   0  0  0  0  0  2  0  0  0  0  0  0
  187.1940  177.3790  146.8070 C   0  0  0  0  0  2  0  0  0  0  0  0
  186.3180  178.6180  146.8120 C   0  0  0  0  0  2  0  0  0  0  0  0
  184.9230  178.2510  146.3540 C   0  0  0  0  0  2  0  0  0  0  0  0
  184.5720  179.0480  145.1160 C   0  0  0  0  0  1  0  0  0  0  0  0
  187.8670  178.1430  137.9590 C   0  0  0  0  0  2  0  0  0  0  0  0
  186.4640  177.5950  138.2020 C   0  0  0  0  0  2  0  0  0  0  0  0
  185.4530  178.7230  138.3200 C   0  0  0  0  0  2  0  0  0  0  0  0
  183.0290  178.1030  138.8700 C   0  0  1  0  0  3  0  0  0  0  0  0
  184.4920  178.4920  140.6680 C   0  0  0  0  0  0  0  0  0  0  0  0
  183.1840  178.3450  141.3310 C   0  0  0  0  0  3  0  0  0  0  0  0
  182.2270  178.0350  140.1770 C   0  0  0  0  0  3  0  0  0  0  0  0
  185.8360  179.0030  141.4520 S   0  0  0  0  0  0  0  0  0  0  0  0
  184.4050  178.3520  139.2610 N   0  0  0  0  0  0  0  0  0  0  0  0
  182.6290  175.6550  139.1310 C   0  0  0  0  0  1  0  0  0  0  0  0
  182.9090  176.7710  138.1450 C   0  0  0  0  0  2  0  0  0  0  0  0
  1  3  1  0  0  0  0
  2  1  1  0  0  0  0
  4  3  1  0  0  0  0
  4  7  1  1  0  0  0
  5  2  1  0  0  0  0
  5  6  1  0  0  0  0
  6 22  1  6  0  0  0
  6  4  1  0  0  0  0
  7  9  1  0  0  0  0
  9  8  2  0  0  0  0
 10 13  1  0  0  0  0
 11 18  1  0  0  0  0
 12 11  1  0  0  0  0
 12 17  1  1  0  0  0
 13 11  2  0  0  0  0
 14 12  1  0  0  0  0
 15  9  1  6  0  0  0
 15 10  1  0  0  0  0
 15 14  1  0  0  0  0
 16 17  1  0  0  0  0
 18 19  1  0  0  0  0
 20 19  1  0  0  0  0
 21 20  1  0  0  0  0
 22 23  1  0  0  0  0
 23 24  1  0  0  0  0
 24 30  1  0  0  0  0
 25 32  1  1  0  0  0
 25 30  1  0  0  0  0
 25 28  1  0  0  0  0
 26 27  1  0  0  0  0
 26 29  2  0  0  0  0
 28 27  2  0  0  0  0
 30 26  1  0  0  0  0
 32 31  1  0  0  0  0
M  END
>  <MODEL>
7

>  <REMARK>
 VINA RESULT:      -7.7      2.686      6.809
  Name = 
  11 active torsions:
  status: ('A' for Active; 'I' for Inactive)
    1  A    between atoms: C_1  and  C_20
    2  A    between atoms: C_2  and  C_12
    3  A    between atoms: C_2  and  C_20
    4  A    between atoms: N_3  and  C_15
    5  A    between atoms: C_6  and  C_16
    6  A    between atoms: C_6  and  C_26
    7  A    between atoms: C_7  and  C_31
    8  A    between atoms: C_14  and  C_28
    9  A    between atoms: C_16  and  C_27
   10  A    between atoms: C_19  and  C_24
   11  A    between atoms: C_27  and  N_32
                            x       y       z     vdW  Elec       q    Type
                         _______ _______ _______ _____ _____    ______ ____

>  <TORSDO>
F 11

$$$$
=
 OpenBabel11052417033D

 32 34  0  0  1  0  0  0  0  0999 V2000
  192.0850  175.6830  136.6750 C   0  0  0  0  0  2  0  0  0  0  0  0
  190.8950  175.8370  135.7340 C   0  0  0  0  0  2  0  0  0  0  0  0
  191.5930  175.5430  138.1110 C   0  0  0  0  0  2  0  0  0  0  0  0
  190.7860  176.7740  138.5220 C   0  0  1  0  0  3  0  0  0  0  0  0
  190.0900  177.0770  136.1070 C   0  0  0  0  0  2  0  0  0  0  0  0
  189.6090  176.9920  137.5570 C   0  0  2  0  0  3  0  0  0  0  0  0
  190.2930  176.6020  139.8820 N   0  0  0  0  0  2  0  0  0  0  0  0
  192.0460  177.7890  140.8730 O   0  0  0  0  0  0  0  0  0  0  0  0
  190.9790  177.1350  141.0200 C   0  0  0  0  0  0  0  0  0  0  0  0
  190.9480  178.0110  143.3350 C   0  0  0  0  0  2  0  0  0  0  0  0
  189.1350  177.3150  144.9060 C   0  0  0  0  0  0  0  0  0  0  0  0
  188.3260  176.7200  143.7630 C   0  0  2  0  0  3  0  0  0  0  0  0
  190.3520  177.8520  144.7050 C   0  0  0  0  0  3  0  0  0  0  0  0
  188.9080  176.9860  142.3670 C   0  0  0  0  0  2  0  0  0  0  0  0
  190.4300  176.9310  142.3910 C   0  0  1  0  0  3  0  0  0  0  0  0
  186.5240  178.2530  142.8650 C   0  0  0  0  0  1  0  0  0  0  0  0
  186.8500  177.1120  143.8170 C   0  0  0  0  0  2  0  0  0  0  0  0
  188.6280  177.1800  146.3090 C   0  0  0  0  0  2  0  0  0  0  0  0
  189.7640  177.3170  147.3060 C   0  0  0  0  0  2  0  0  0  0  0  0
  189.3120  178.1710  148.4700 C   0  0  0  0  0  2  0  0  0  0  0  0
  187.8010  178.2630  148.4730 C   0  0  0  0  0  1  0  0  0  0  0  0
  188.7630  178.2170  137.9270 C   0  0  0  0  0  2  0  0  0  0  0  0
  187.4560  178.3100  137.1430 C   0  0  0  0  0  2  0  0  0  0  0  0
  186.2590  178.1740  138.0670 C   0  0  0  0  0  2  0  0  0  0  0  0
  185.5200  176.4250  136.3460 C   0  0  1  0  0  3  0  0  0  0  0  0
  183.8450  177.5250  137.5750 C   0  0  0  0  0  0  0  0  0  0  0  0
  183.0750  176.7480  136.5870 C   0  0  0  0  0  3  0  0  0  0  0  0
  184.1500  175.9820  135.8130 C   0  0  0  0  0  3  0  0  0  0  0  0
  183.1640  178.6550  138.5450 S   0  0  0  0  0  0  0  0  0  0  0  0
  185.2430  177.3400  137.4400 N   0  0  0  0  0  0  0  0  0  0  0  0
  187.2480  174.7140  135.7900 C   0  0  0  0  0  1  0  0  0  0  0  0
  186.2770  175.2040  136.8460 C   0  0  0  0  0  2  0  0  0  0  0  0
  1  3  1  0  0  0  0
  2  5  1  0  0  0  0
  2  1  1  0  0  0  0
  3  4  1  0  0  0  0
  4  7  1  1  0  0  0
  5  6  1  0  0  0  0
  6 22  1  1  0  0  0
  6  4  1  0  0  0  0
  7  9  1  0  0  0  0
  8  9  2  0  0  0  0
 10 13  1  0  0  0  0
 11 18  1  0  0  0  0
 12 17  1  6  0  0  0
 12 11  1  0  0  0  0
 13 11  2  0  0  0  0
 14 15  1  0  0  0  0
 14 12  1  0  0  0  0
 15  9  1  6  0  0  0
 15 10  1  0  0  0  0
 16 17  1  0  0  0  0
 18 19  1  0  0  0  0
 19 20  1  0  0  0  0
 20 21  1  0  0  0  0
 23 22  1  0  0  0  0
 23 24  1  0  0  0  0
 25 32  1  1  0  0  0
 25 30  1  0  0  0  0
 26 29  2  0  0  0  0
 27 26  1  0  0  0  0
 28 25  1  0  0  0  0
 28 27  2  0  0  0  0
 30 26  1  0  0  0  0
 30 24  1  0  0  0  0
 31 32  1  0  0  0  0
M  END
>  <MODEL>
8

>  <REMARK>
 VINA RESULT:      -7.6      3.706      7.345
  Name = 
  11 active torsions:
  status: ('A' for Active; 'I' for Inactive)
    1  A    between atoms: C_1  and  C_20
    2  A    between atoms: C_2  and  C_12
    3  A    between atoms: C_2  and  C_20
    4  A    between atoms: N_3  and  C_15
    5  A    between atoms: C_6  and  C_16
    6  A    between atoms: C_6  and  C_26
    7  A    between atoms: C_7  and  C_31
    8  A    between atoms: C_14  and  C_28
    9  A    between atoms: C_16  and  C_27
   10  A    between atoms: C_19  and  C_24
   11  A    between atoms: C_27  and  N_32
                            x       y       z     vdW  Elec       q    Type
                         _______ _______ _______ _____ _____    ______ ____

>  <TORSDO>
F 11

$$$$
=
 OpenBabel11052417033D

 32 34  0  0  1  0  0  0  0  0999 V2000
  188.2500  177.3600  147.7360 C   0  0  0  0  0  2  0  0  0  0  0  0
  189.3020  176.4450  147.1220 C   0  0  0  0  0  2  0  0  0  0  0  0
  187.0870  177.5350  146.7650 C   0  0  0  0  0  2  0  0  0  0  0  0
  187.5750  178.1430  145.4510 C   0  0  1  0  0  3  0  0  0  0  0  0
  189.8250  177.0460  145.8220 C   0  0  0  0  0  2  0  0  0  0  0  0
  188.6800  177.2720  144.8330 C   0  0  2  0  0  3  0  0  0  0  0  0
  186.4570  178.2650  144.5250 N   0  0  0  0  0  2  0  0  0  0  0  0
  185.2600  179.7630  145.8630 O   0  0  0  0  0  0  0  0  0  0  0  0
  185.3220  179.0930  144.7970 C   0  0  0  0  0  0  0  0  0  0  0  0
  184.4590  178.2460  142.6370 C   0  0  0  0  0  2  0  0  0  0  0  0
  182.0490  178.5430  142.0550 C   0  0  0  0  0  0  0  0  0  0  0  0
  181.7170  178.9420  143.4860 C   0  0  2  0  0  3  0  0  0  0  0  0
  183.3110  178.2800  141.6700 C   0  0  0  0  0  3  0  0  0  0  0  0
  182.8860  178.7980  144.4720 C   0  0  0  0  0  2  0  0  0  0  0  0
  184.2050  179.1820  143.8140 C   0  0  1  0  0  3  0  0  0  0  0  0
  179.2730  179.1770  144.0990 C   0  0  0  0  0  1  0  0  0  0  0  0
  180.4700  178.2400  144.0210 C   0  0  0  0  0  2  0  0  0  0  0  0
  180.9680  178.5730  141.0180 C   0  0  0  0  0  2  0  0  0  0  0  0
  180.9880  179.8880  140.2610 C   0  0  0  0  0  2  0  0  0  0  0  0
  181.5100  179.6550  138.8600 C   0  0  0  0  0  2  0  0  0  0  0  0
  182.8940  180.2550  138.7300 C   0  0  0  0  0  1  0  0  0  0  0  0
  189.2060  177.8390  143.5070 C   0  0  0  0  0  2  0  0  0  0  0  0
  190.3490  177.0230  142.9100 C   0  0  0  0  0  2  0  0  0  0  0  0
  191.1730  177.8650  141.9510 C   0  0  0  0  0  2  0  0  0  0  0  0
  189.6300  177.0240  140.0870 C   0  0  1  0  0  3  0  0  0  0  0  0
  191.9420  177.0530  139.6620 C   0  0  0  0  0  0  0  0  0  0  0  0
  191.3960  176.3640  138.4790 C   0  0  0  0  0  3  0  0  0  0  0  0
  189.8840  176.3860  138.7140 C   0  0  0  0  0  3  0  0  0  0  0  0
  193.5460  177.1410  139.9800 S   0  0  0  0  0  0  0  0  0  0  0  0
  190.9330  177.4330  140.5810 N   0  0  0  0  0  0  0  0  0  0  0  0
  188.6890  178.6660  138.4610 C   0  0  0  0  0  1  0  0  0  0  0  0
  188.7190  178.2290  139.9130 C   0  0  0  0  0  2  0  0  0  0  0  0
  2  1  1  0  0  0  0
  3  1  1  0  0  0  0
  4  7  1  6  0  0  0
  4  3  1  0  0  0  0
  5  2  1  0  0  0  0
  6 22  1  6  0  0  0
  6  4  1  0  0  0  0
  6  5  1  0  0  0  0
  7  9  1  0  0  0  0
  9  8  2  0  0  0  0
 10 15  1  0  0  0  0
 11 12  1  0  0  0  0
 12 17  1  1  0  0  0
 12 14  1  0  0  0  0
 13 11  2  0  0  0  0
 13 10  1  0  0  0  0
 15 14  1  0  0  0  0
 15  9  1  1  0  0  0
 17 16  1  0  0  0  0
 18 11  1  0  0  0  0
 19 18  1  0  0  0  0
 20 19  1  0  0  0  0
 21 20  1  0  0  0  0
 23 22  1  0  0  0  0
 24 23  1  0  0  0  0
 25 32  1  6  0  0  0
 25 30  1  0  0  0  0
 26 29  2  0  0  0  0
 26 30  1  0  0  0  0
 27 28  2  0  0  0  0
 27 26  1  0  0  0  0
 28 25  1  0  0  0  0
 30 24  1  0  0  0  0
 31 32  1  0  0  0  0
M  END
>  <MODEL>
9

>  <REMARK>
 VINA RESULT:      -7.5      1.429      2.767
  Name = 
  11 active torsions:
  status: ('A' for Active; 'I' for Inactive)
    1  A    between atoms: C_1  and  C_20
    2  A    between atoms: C_2  and  C_12
    3  A    between atoms: C_2  and  C_20
    4  A    between atoms: N_3  and  C_15
    5  A    between atoms: C_6  and  C_16
    6  A    between atoms: C_6  and  C_26
    7  A    between atoms: C_7  and  C_31
    8  A    between atoms: C_14  and  C_28
    9  A    between atoms: C_16  and  C_27
   10  A    between atoms: C_19  and  C_24
   11  A    between atoms: C_27  and  N_32
                            x       y       z     vdW  Elec       q    Type
                         _______ _______ _______ _____ _____    ______ ____

>  <TORSDO>
F 11

$$$$
