=
 OpenBabel11052415023D

 55 60  0  0  1  0  0  0  0  0999 V2000
  191.5360  176.7090  138.6220 C   0  0  1  0  0  3  0  0  0  0  0  0
  192.6540  176.9710  139.5910 C   0  0  0  0  0  0  0  0  0  0  0  0
  192.4430  177.1440  141.0000 N   0  0  0  0  0  2  0  0  0  0  0  0
  193.8350  176.9530  139.1530 O   0  0  0  0  0  0  0  0  0  0  0  0
  188.7200  177.0130  143.1820 C   0  0  2  0  0  0  0  0  0  0  0  0
  191.1590  177.4490  141.6160 C   0  0  2  0  0  3  0  0  0  0  0  0
  189.5780  174.7650  143.0960 F   0  0  0  0  0  0  0  0  0  0  0  0
  190.4400  178.7840  143.5290 O   0  0  0  0  0  0  0  0  0  0  0  0
  191.3680  177.7930  143.0910 C   0  0  1  0  0  3  0  0  0  0  0  0
  191.0680  176.5010  143.7790 C   0  0  1  0  0  3  0  0  0  0  0  0
  189.9190  176.0910  142.8980 C   0  0  2  0  0  0  0  0  0  0  0  0
  187.5220  176.7850  142.4970 O   0  0  0  0  0  1  0  0  0  0  0  0
  192.1420  175.6150  143.6380 O   0  0  0  0  0  1  0  0  0  0  0  0
  190.3330  176.3040  141.5680 O   0  0  0  0  0  0  0  0  0  0  0  0
  189.0570  178.4440  143.3470 C   0  0  2  0  0  3  0  0  0  0  0  0
  188.6020  177.6490  144.5160 N   0  0  0  0  0  0  0  0  0  0  0  0
  187.2390  178.0790  144.7890 C   0  0  0  0  0  2  0  0  0  0  0  0
  186.7290  177.3800  146.0320 C   0  0  0  0  0  2  0  0  0  0  0  0
  186.3960  178.4110  147.0880 C   0  0  0  0  0  2  0  0  0  0  0  0
  188.2660  177.1800  148.1400 C   0  0  0  0  0  1  0  0  0  0  0  0
  187.5420  178.5080  148.0740 C   0  0  0  0  0  2  0  0  0  0  0  0
  190.6150  177.9200  138.5520 C   0  0  0  0  0  2  0  0  0  0  0  0
  188.2840  177.2840  137.8180 C   0  0  0  0  0  0  0  0  0  0  0  0
  189.6120  177.7110  137.5210 N   0  0  0  0  0  2  0  0  0  0  0  0
  187.9960  176.8510  138.9690 O   0  0  0  0  0  0  0  0  0  0  0  0
  187.2020  178.4670  136.0960 O   0  0  0  0  0  0  0  0  0  0  0  0
  187.2430  177.4100  136.7830 C   0  0  0  0  0  0  0  0  0  0  0  0
  186.2520  176.3870  136.5780 N   0  0  0  0  0  0  0  0  0  0  0  0
  187.1580  174.4560  135.3090 C   0  0  0  0  0  2  0  0  0  0  0  0
  187.2570  172.9570  135.3010 C   0  0  0  0  0  3  0  0  0  0  0  0
  185.5570  174.1000  137.3300 C   0  0  0  0  0  2  0  0  0  0  0  0
  185.0890  172.9390  136.4460 C   0  0  0  0  0  2  0  0  0  0  0  0
  186.2710  172.2340  135.8410 C   0  0  0  0  0  3  0  0  0  0  0  0
  186.6510  174.9720  136.6680 C   0  0  2  0  0  3  0  0  0  0  0  0
  184.7690  177.1770  134.8700 C   0  0  0  0  0  2  0  0  0  0  0  0
  184.9330  176.7470  136.1160 C   0  0  0  0  0  0  0  0  0  0  0  0
  182.5190  175.5480  139.3060 O   0  0  0  0  0  0  0  0  0  0  0  0
  184.8700  178.2740  138.7080 C   0  0  0  0  0  2  0  0  0  0  0  0
  184.3450  179.2260  139.7730 C   0  0  0  0  0  2  0  0  0  0  0  0
  183.7840  176.7340  137.0500 C   0  0  0  0  0  0  0  0  0  0  0  0
  183.0800  176.6700  139.4540 C   0  0  0  0  0  0  0  0  0  0  0  0
  182.6730  176.3070  136.6320 O   0  0  0  0  0  0  0  0  0  0  0  0
  182.8250  177.4430  140.7140 C   0  0  0  0  0  2  0  0  0  0  0  0
  183.9620  178.4200  141.0100 C   0  0  2  0  0  3  0  0  0  0  0  0
  183.8950  177.2250  138.4000 N   0  0  0  0  0  0  0  0  0  0  0  0
  183.6600  179.2800  142.1600 N   0  0  0  0  0  2  0  0  0  0  0  0
  183.2310  179.2800  144.4450 F   0  0  0  0  0  0  0  0  0  0  0  0
  183.7740  178.5400  143.4140 C   0  0  0  0  0  2  0  0  0  0  0  0
  192.0270  176.3720  137.3280 O   0  0  0  0  0  0  0  0  0  0  0  0
  192.0860  172.4710  135.7760 C   0  0  0  0  0  3  0  0  0  0  0  0
  192.0200  175.0700  136.8170 C   0  0  0  0  0  0  0  0  0  0  0  0
  193.1570  174.2730  136.9810 C   0  0  0  0  0  3  0  0  0  0  0  0
  190.9410  173.2550  135.6180 C   0  0  0  0  0  3  0  0  0  0  0  0
  193.1920  172.9790  136.4600 C   0  0  0  0  0  3  0  0  0  0  0  0
  190.9060  174.5510  136.1390 C   0  0  0  0  0  3  0  0  0  0  0  0
  1 22  1  6  0  0  0
  1  2  1  0  0  0  0
  2  3  1  0  0  0  0
  4  2  2  0  0  0  0
  5 12  1  6  0  0  0
  5 15  1  0  0  0  0
  5 16  1  0  0  0  0
  6  3  1  1  0  0  0
  6  9  1  0  0  0  0
  9  8  1  1  0  0  0
  9 10  1  0  0  0  0
 10 13  1  6  0  0  0
 11  7  1  1  0  0  0
 11  5  1  0  0  0  0
 11 10  1  0  0  0  0
 14  6  1  0  0  0  0
 14 11  1  0  0  0  0
 15  8  1  1  0  0  0
 15 16  1  0  0  0  0
 16 17  1  0  0  0  0
 17 18  1  0  0  0  0
 18 19  1  0  0  0  0
 19 21  1  0  0  0  0
 21 20  1  0  0  0  0
 23 25  2  0  0  0  0
 24 23  1  0  0  0  0
 24 22  1  0  0  0  0
 26 27  2  0  0  0  0
 27 23  1  0  0  0  0
 28 27  1  0  0  0  0
 29 34  1  0  0  0  0
 30 29  1  0  0  0  0
 30 33  2  0  0  0  0
 32 31  1  0  0  0  0
 33 32  1  0  0  0  0
 34 28  1  6  0  0  0
 34 31  1  0  0  0  0
 35 36  2  0  0  0  0
 36 28  1  0  0  0  0
 36 40  1  0  0  0  0
 37 41  2  0  0  0  0
 38 39  1  0  0  0  0
 39 44  1  0  0  0  0
 40 45  1  0  0  0  0
 41 43  1  0  0  0  0
 42 40  2  0  0  0  0
 43 44  1  0  0  0  0
 44 46  1  1  0  0  0
 45 38  1  0  0  0  0
 45 41  1  0  0  0  0
 46 48  1  0  0  0  0
 48 47  1  0  0  0  0
 49  1  1  0  0  0  0
 50 54  1  0  0  0  0
 51 52  1  0  0  0  0
 51 49  1  0  0  0  0
 53 50  2  0  0  0  0
 53 55  1  0  0  0  0
 54 52  2  0  0  0  0
 55 51  2  0  0  0  0
M  END
>  <MODEL>
1

>  <REMARK>
 VINA RESULT:      -7.4      0.000      0.000
  Name = 
  16 active torsions:
  status: ('A' for Active; 'I' for Inactive)
    1  A    between atoms: C_3  and  C_25
    2  A    between atoms: C_3  and  C_38
    3  A    between atoms: C_4  and  N_37
    4  A    between atoms: C_4  and  C_54
    5  A    between atoms: C_6  and  N_22
    6  A    between atoms: C_8  and  C_54
    7  A    between atoms: N_10  and  C_47
    8  A    between atoms: N_10  and  C_48
    9  A    between atoms: C_19  and  C_35
   10  A    between atoms: C_26  and  N_45
   11  A    between atoms: C_27  and  O_51
   12  A    between atoms: C_29  and  C_38
   13  A    between atoms: C_29  and  N_53
   14  A    between atoms: C_33  and  C_49
   15  A    between atoms: N_45  and  C_49
   16  A    between atoms: O_51  and  C_54
                            x       y       z     vdW  Elec       q    Type
                         _______ _______ _______ _____ _____    ______ ____

>  <TORSDO>
F 16

$$$$
=
 OpenBabel11052415023D

 55 60  0  0  1  0  0  0  0  0999 V2000
  186.5680  177.8860  142.7670 C   0  0  1  0  0  3  0  0  0  0  0  0
  185.3170  178.6320  143.1350 C   0  0  0  0  0  0  0  0  0  0  0  0
  184.1220  178.5950  142.3400 N   0  0  0  0  0  2  0  0  0  0  0  0
  185.2940  179.2470  144.2350 O   0  0  0  0  0  0  0  0  0  0  0  0
  182.8920  177.1240  138.4720 C   0  0  2  0  0  0  0  0  0  0  0  0
  184.0620  178.1640  140.9510 C   0  0  2  0  0  3  0  0  0  0  0  0
  181.0810  176.7090  140.0040 F   0  0  0  0  0  0  0  0  0  0  0  0
  184.0620  179.3020  138.7920 O   0  0  0  0  0  0  0  0  0  0  0  0
  183.4760  179.2840  140.0920 C   0  0  1  0  0  3  0  0  0  0  0  0
  182.0370  178.8960  139.9760 C   0  0  1  0  0  3  0  0  0  0  0  0
  182.2610  177.4140  139.8460 C   0  0  2  0  0  0  0  0  0  0  0  0
  183.1520  175.7960  138.1210 O   0  0  0  0  0  1  0  0  0  0  0  0
  181.3570  179.1930  141.1620 O   0  0  0  0  0  1  0  0  0  0  0  0
  183.1910  177.0560  140.8420 O   0  0  0  0  0  0  0  0  0  0  0  0
  183.9460  178.0760  138.0560 C   0  0  2  0  0  3  0  0  0  0  0  0
  182.6380  178.0620  137.3530 N   0  0  0  0  0  0  0  0  0  0  0  0
  182.8820  177.4370  136.0610 C   0  0  0  0  0  2  0  0  0  0  0  0
  181.6080  177.4590  135.2410 C   0  0  0  0  0  2  0  0  0  0  0  0
  180.7110  178.5720  135.7360 C   0  0  0  0  0  2  0  0  0  0  0  0
  180.7150  181.0290  135.4510 C   0  0  0  0  0  1  0  0  0  0  0  0
  180.7070  179.7010  134.7250 C   0  0  0  0  0  2  0  0  0  0  0  0
  187.2540  178.5720  141.5930 C   0  0  0  0  0  2  0  0  0  0  0  0
  188.6510  177.8930  139.6010 C   0  0  0  0  0  0  0  0  0  0  0  0
  187.7760  177.5690  140.6790 N   0  0  0  0  0  2  0  0  0  0  0  0
  188.8240  179.0980  139.2610 O   0  0  0  0  0  0  0  0  0  0  0  0
  190.3950  176.3180  139.5140 O   0  0  0  0  0  0  0  0  0  0  0  0
  189.3930  176.8120  138.9300 C   0  0  0  0  0  0  0  0  0  0  0  0
  189.0330  176.3490  137.6150 N   0  0  0  0  0  0  0  0  0  0  0  0
  187.2720  174.7880  136.8280 C   0  0  0  0  0  2  0  0  0  0  0  0
  185.9260  174.7240  136.1640 C   0  0  0  0  0  3  0  0  0  0  0  0
  187.1570  177.3290  136.2740 C   0  0  0  0  0  2  0  0  0  0  0  0
  186.5600  176.7730  134.9770 C   0  0  0  0  0  2  0  0  0  0  0  0
  185.5870  175.6680  135.2800 C   0  0  0  0  0  3  0  0  0  0  0  0
  187.6080  176.2270  137.2620 C   0  0  2  0  0  3  0  0  0  0  0  0
  190.2250  176.4150  135.5370 C   0  0  0  0  0  2  0  0  0  0  0  0
  190.0530  175.8470  136.7260 C   0  0  0  0  0  0  0  0  0  0  0  0
  192.5090  172.5040  136.2470 O   0  0  0  0  0  0  0  0  0  0  0  0
  192.9720  175.9160  137.4570 C   0  0  0  0  0  2  0  0  0  0  0  0
  194.2270  175.6660  138.2800 C   0  0  0  0  0  2  0  0  0  0  0  0
  190.8370  174.6450  137.0910 C   0  0  0  0  0  0  0  0  0  0  0  0
  193.0390  173.4710  136.8640 C   0  0  0  0  0  0  0  0  0  0  0  0
  190.2160  173.5890  137.3920 O   0  0  0  0  0  0  0  0  0  0  0  0
  194.4480  173.3260  137.3580 C   0  0  0  0  0  2  0  0  0  0  0  0
  195.1230  174.6860  137.5290 C   0  0  2  0  0  3  0  0  0  0  0  0
  192.2770  174.6630  137.1450 N   0  0  0  0  0  0  0  0  0  0  0  0
  196.4500  174.5660  138.1440 N   0  0  0  0  0  2  0  0  0  0  0  0
  197.1840  175.6150  136.2040 F   0  0  0  0  0  0  0  0  0  0  0  0
  197.5050  174.6510  137.1380 C   0  0  0  0  0  2  0  0  0  0  0  0
  187.4570  177.7680  143.8740 O   0  0  0  0  0  0  0  0  0  0  0  0
  191.4440  176.5050  143.5050 C   0  0  0  0  0  3  0  0  0  0  0  0
  188.7770  177.3210  143.7560 C   0  0  0  0  0  0  0  0  0  0  0  0
  189.8120  178.1450  144.2090 C   0  0  0  0  0  3  0  0  0  0  0  0
  190.4160  175.6700  143.0620 C   0  0  0  0  0  3  0  0  0  0  0  0
  191.1410  177.7400  144.0810 C   0  0  0  0  0  3  0  0  0  0  0  0
  189.0860  176.0750  143.1890 C   0  0  0  0  0  3  0  0  0  0  0  0
  1 22  1  6  0  0  0
  1  2  1  0  0  0  0
  1 49  1  0  0  0  0
  2  4  2  0  0  0  0
  3  2  1  0  0  0  0
  5 12  1  6  0  0  0
  5 11  1  0  0  0  0
  6  3  1  1  0  0  0
  9  8  1  6  0  0  0
  9  6  1  0  0  0  0
 10  9  1  0  0  0  0
 10 13  1  1  0  0  0
 11 10  1  0  0  0  0
 11  7  1  1  0  0  0
 11 14  1  0  0  0  0
 14  6  1  0  0  0  0
 15  5  1  0  0  0  0
 15  8  1  1  0  0  0
 16 15  1  0  0  0  0
 16  5  1  0  0  0  0
 17 16  1  0  0  0  0
 18 19  1  0  0  0  0
 18 17  1  0  0  0  0
 21 20  1  0  0  0  0
 21 19  1  0  0  0  0
 23 24  1  0  0  0  0
 24 22  1  0  0  0  0
 25 23  2  0  0  0  0
 27 26  2  0  0  0  0
 27 23  1  0  0  0  0
 28 27  1  0  0  0  0
 29 34  1  0  0  0  0
 30 29  1  0  0  0  0
 31 34  1  0  0  0  0
 32 33  1  0  0  0  0
 32 31  1  0  0  0  0
 33 30  2  0  0  0  0
 34 28  1  6  0  0  0
 35 36  2  0  0  0  0
 36 40  1  0  0  0  0
 36 28  1  0  0  0  0
 37 41  2  0  0  0  0
 38 39  1  0  0  0  0
 40 45  1  0  0  0  0
 40 42  2  0  0  0  0
 41 45  1  0  0  0  0
 41 43  1  0  0  0  0
 43 44  1  0  0  0  0
 44 46  1  1  0  0  0
 44 39  1  0  0  0  0
 45 38  1  0  0  0  0
 47 48  1  0  0  0  0
 48 46  1  0  0  0  0
 50 54  1  0  0  0  0
 51 49  1  0  0  0  0
 51 52  1  0  0  0  0
 53 55  1  0  0  0  0
 53 50  2  0  0  0  0
 54 52  2  0  0  0  0
 55 51  2  0  0  0  0
M  END
>  <MODEL>
2

>  <REMARK>
 VINA RESULT:      -7.4      2.891      8.903
  Name = 
  16 active torsions:
  status: ('A' for Active; 'I' for Inactive)
    1  A    between atoms: C_3  and  C_25
    2  A    between atoms: C_3  and  C_38
    3  A    between atoms: C_4  and  N_37
    4  A    between atoms: C_4  and  C_54
    5  A    between atoms: C_6  and  N_22
    6  A    between atoms: C_8  and  C_54
    7  A    between atoms: N_10  and  C_47
    8  A    between atoms: N_10  and  C_48
    9  A    between atoms: C_19  and  C_35
   10  A    between atoms: C_26  and  N_45
   11  A    between atoms: C_27  and  O_51
   12  A    between atoms: C_29  and  C_38
   13  A    between atoms: C_29  and  N_53
   14  A    between atoms: C_33  and  C_49
   15  A    between atoms: N_45  and  C_49
   16  A    between atoms: O_51  and  C_54
                            x       y       z     vdW  Elec       q    Type
                         _______ _______ _______ _____ _____    ______ ____

>  <TORSDO>
F 16

$$$$
=
 OpenBabel11052415023D

 55 60  0  0  1  0  0  0  0  0999 V2000
  182.1130  175.9920  135.3960 C   0  0  1  0  0  3  0  0  0  0  0  0
  180.9360  176.8950  135.6340 C   0  0  0  0  0  0  0  0  0  0  0  0
  180.9280  177.9210  136.6380 N   0  0  0  0  0  2  0  0  0  0  0  0
  179.9480  176.7990  134.8570 O   0  0  0  0  0  0  0  0  0  0  0  0
  183.2550  179.1410  140.0630 C   0  0  2  0  0  0  0  0  0  0  0  0
  181.8530  177.9910  137.7600 C   0  0  2  0  0  3  0  0  0  0  0  0
  182.1220  181.0980  139.2340 F   0  0  0  0  0  0  0  0  0  0  0  0
  181.9090  177.0440  140.0090 O   0  0  0  0  0  0  0  0  0  0  0  0
  181.0960  177.7370  139.0640 C   0  0  1  0  0  3  0  0  0  0  0  0
  180.8290  179.1190  139.5670 C   0  0  1  0  0  3  0  0  0  0  0  0
  182.1480  179.7160  139.1600 C   0  0  2  0  0  0  0  0  0  0  0  0
  184.5670  179.5920  139.8850 O   0  0  0  0  0  1  0  0  0  0  0  0
  179.7780  179.7020  138.8500 O   0  0  0  0  0  1  0  0  0  0  0  0
  182.3940  179.2930  137.8390 O   0  0  0  0  0  0  0  0  0  0  0  0
  183.1470  177.6910  140.3370 C   0  0  2  0  0  3  0  0  0  0  0  0
  182.9010  178.6720  141.4230 N   0  0  0  0  0  0  0  0  0  0  0  0
  184.0670  178.6110  142.2920 C   0  0  0  0  0  2  0  0  0  0  0  0
  183.8160  179.4430  143.5330 C   0  0  0  0  0  2  0  0  0  0  0  0
  184.1050  178.6110  144.7630 C   0  0  0  0  0  2  0  0  0  0  0  0
  185.7610  178.1800  146.5510 C   0  0  0  0  0  1  0  0  0  0  0  0
  185.3790  179.1070  145.4170 C   0  0  0  0  0  2  0  0  0  0  0  0
  183.3100  176.8120  134.9330 C   0  0  0  0  0  2  0  0  0  0  0  0
  185.6750  177.2720  135.6890 C   0  0  0  0  0  0  0  0  0  0  0  0
  184.4130  176.6310  135.8620 N   0  0  0  0  0  2  0  0  0  0  0  0
  185.9560  177.8410  134.5970 O   0  0  0  0  0  0  0  0  0  0  0  0
  186.1570  177.4330  137.9860 O   0  0  0  0  0  0  0  0  0  0  0  0
  186.6190  177.3110  136.8190 C   0  0  0  0  0  0  0  0  0  0  0  0
  188.0440  177.2670  136.6170 N   0  0  0  0  0  0  0  0  0  0  0  0
  188.6910  174.9290  136.0910 C   0  0  0  0  0  2  0  0  0  0  0  0
  189.5390  174.0880  135.1790 C   0  0  0  0  0  3  0  0  0  0  0  0
  189.8990  176.9410  134.9640 C   0  0  0  0  0  2  0  0  0  0  0  0
  191.0900  175.9850  135.0880 C   0  0  0  0  0  2  0  0  0  0  0  0
  190.6830  174.5900  134.7030 C   0  0  0  0  0  3  0  0  0  0  0  0
  188.5950  176.3780  135.5790 C   0  0  2  0  0  3  0  0  0  0  0  0
  189.1960  179.2340  137.3530 C   0  0  0  0  0  2  0  0  0  0  0  0
  188.9220  177.9480  137.5380 C   0  0  0  0  0  0  0  0  0  0  0  0
  191.6590  177.1100  140.5790 O   0  0  0  0  0  0  0  0  0  0  0  0
  188.1770  178.1950  140.4430 C   0  0  0  0  0  2  0  0  0  0  0  0
  187.7750  177.7450  141.8400 C   0  0  0  0  0  2  0  0  0  0  0  0
  189.5930  177.1990  138.6250 C   0  0  0  0  0  0  0  0  0  0  0  0
  190.4740  177.3090  140.9680 C   0  0  0  0  0  0  0  0  0  0  0  0
  190.3080  176.2060  138.3190 O   0  0  0  0  0  0  0  0  0  0  0  0
  190.1720  177.2170  142.4340 C   0  0  0  0  0  2  0  0  0  0  0  0
  188.9270  178.0250  142.8000 C   0  0  2  0  0  3  0  0  0  0  0  0
  189.4210  177.5520  140.0110 N   0  0  0  0  0  0  0  0  0  0  0  0
  188.5400  177.8310  144.2020 N   0  0  0  0  0  2  0  0  0  0  0  0
  189.2790  178.2330  146.3690 F   0  0  0  0  0  0  0  0  0  0  0  0
  189.6970  177.9390  145.0870 C   0  0  0  0  0  2  0  0  0  0  0  0
  182.4380  175.2320  136.5560 O   0  0  0  0  0  0  0  0  0  0  0  0
  180.3280  171.7730  137.6590 C   0  0  0  0  0  3  0  0  0  0  0  0
  181.7330  174.0890  136.9500 C   0  0  0  0  0  0  0  0  0  0  0  0
  182.0590  172.8610  136.3670 C   0  0  0  0  0  3  0  0  0  0  0  0
  180.0050  172.9940  138.2560 C   0  0  0  0  0  3  0  0  0  0  0  0
  181.3570  171.7070  136.7180 C   0  0  0  0  0  3  0  0  0  0  0  0
  180.7060  174.1490  137.9040 C   0  0  0  0  0  3  0  0  0  0  0  0
  1 22  1  1  0  0  0
  1  2  1  0  0  0  0
  1 49  1  0  0  0  0
  2  3  1  0  0  0  0
  4  2  2  0  0  0  0
  5 12  1  6  0  0  0
  5 15  1  0  0  0  0
  5 16  1  0  0  0  0
  6  3  1  6  0  0  0
  6 14  1  0  0  0  0
  6  9  1  0  0  0  0
  9 10  1  0  0  0  0
  9  8  1  1  0  0  0
 10 13  1  6  0  0  0
 11  7  1  1  0  0  0
 11 10  1  0  0  0  0
 11  5  1  0  0  0  0
 14 11  1  0  0  0  0
 15  8  1  6  0  0  0
 15 16  1  0  0  0  0
 16 17  1  0  0  0  0
 17 18  1  0  0  0  0
 18 19  1  0  0  0  0
 19 21  1  0  0  0  0
 21 20  1  0  0  0  0
 22 24  1  0  0  0  0
 23 24  1  0  0  0  0
 23 27  1  0  0  0  0
 25 23  2  0  0  0  0
 27 26  2  0  0  0  0
 28 27  1  0  0  0  0
 28 36  1  0  0  0  0
 30 29  1  0  0  0  0
 31 32  1  0  0  0  0
 31 34  1  0  0  0  0
 33 32  1  0  0  0  0
 33 30  2  0  0  0  0
 34 29  1  0  0  0  0
 34 28  1  1  0  0  0
 35 36  2  0  0  0  0
 36 40  1  0  0  0  0
 37 41  2  0  0  0  0
 38 39  1  0  0  0  0
 39 44  1  0  0  0  0
 40 45  1  0  0  0  0
 41 43  1  0  0  0  0
 42 40  2  0  0  0  0
 43 44  1  0  0  0  0
 44 46  1  1  0  0  0
 45 38  1  0  0  0  0
 45 41  1  0  0  0  0
 46 48  1  0  0  0  0
 48 47  1  0  0  0  0
 49 51  1  0  0  0  0
 50 53  1  0  0  0  0
 51 55  1  0  0  0  0
 52 54  1  0  0  0  0
 52 51  2  0  0  0  0
 54 50  2  0  0  0  0
 55 53  2  0  0  0  0
M  END
>  <MODEL>
3

>  <REMARK>
 VINA RESULT:      -7.3      2.605      7.886
  Name = 
  16 active torsions:
  status: ('A' for Active; 'I' for Inactive)
    1  A    between atoms: C_3  and  C_25
    2  A    between atoms: C_3  and  C_38
    3  A    between atoms: C_4  and  N_37
    4  A    between atoms: C_4  and  C_54
    5  A    between atoms: C_6  and  N_22
    6  A    between atoms: C_8  and  C_54
    7  A    between atoms: N_10  and  C_47
    8  A    between atoms: N_10  and  C_48
    9  A    between atoms: C_19  and  C_35
   10  A    between atoms: C_26  and  N_45
   11  A    between atoms: C_27  and  O_51
   12  A    between atoms: C_29  and  C_38
   13  A    between atoms: C_29  and  N_53
   14  A    between atoms: C_33  and  C_49
   15  A    between atoms: N_45  and  C_49
   16  A    between atoms: O_51  and  C_54
                            x       y       z     vdW  Elec       q    Type
                         _______ _______ _______ _____ _____    ______ ____

>  <TORSDO>
F 16

$$$$
=
 OpenBabel11052415023D

 55 60  0  0  1  0  0  0  0  0999 V2000
  191.3100  176.7390  138.6200 C   0  0  1  0  0  3  0  0  0  0  0  0
  192.2350  177.1580  139.7260 C   0  0  0  0  0  0  0  0  0  0  0  0
  191.8590  177.1350  141.1110 N   0  0  0  0  0  2  0  0  0  0  0  0
  193.4210  177.4620  139.4250 O   0  0  0  0  0  0  0  0  0  0  0  0
  188.2950  176.8170  143.5270 C   0  0  2  0  0  0  0  0  0  0  0  0
  190.4890  177.0670  141.5980 C   0  0  2  0  0  3  0  0  0  0  0  0
  190.1670  176.2670  144.9380 F   0  0  0  0  0  0  0  0  0  0  0  0
  188.6960  178.6890  141.9300 O   0  0  0  0  0  0  0  0  0  0  0  0
  190.0780  178.4270  142.1620 C   0  0  1  0  0  3  0  0  0  0  0  0
  190.3060  178.2600  143.6300 C   0  0  1  0  0  3  0  0  0  0  0  0
  189.8210  176.8390  143.7260 C   0  0  2  0  0  0  0  0  0  0  0  0
  187.6250  175.5930  143.6150 O   0  0  0  0  0  1  0  0  0  0  0  0
  191.6710  178.3400  143.9220 O   0  0  0  0  0  1  0  0  0  0  0  0
  190.4150  176.1360  142.6590 O   0  0  0  0  0  0  0  0  0  0  0  0
  187.7930  177.7040  142.4530 C   0  0  2  0  0  3  0  0  0  0  0  0
  187.5080  178.0240  143.8750 N   0  0  0  0  0  0  0  0  0  0  0  0
  186.1030  177.7080  144.0850 C   0  0  0  0  0  2  0  0  0  0  0  0
  185.7260  178.0140  145.5200 C   0  0  0  0  0  2  0  0  0  0  0  0
  186.9430  178.5190  146.2630 C   0  0  0  0  0  2  0  0  0  0  0  0
  188.8410  177.7870  147.6710 C   0  0  0  0  0  1  0  0  0  0  0  0
  187.4510  177.4330  147.1900 C   0  0  0  0  0  2  0  0  0  0  0  0
  190.1640  177.7350  138.4960 C   0  0  0  0  0  2  0  0  0  0  0  0
  187.7180  177.4790  137.9210 C   0  0  0  0  0  0  0  0  0  0  0  0
  189.0900  177.1470  137.7130 N   0  0  0  0  0  2  0  0  0  0  0  0
  187.3680  178.1280  138.9470 O   0  0  0  0  0  0  0  0  0  0  0  0
  186.3020  178.0070  136.1180 O   0  0  0  0  0  0  0  0  0  0  0  0
  186.7290  177.1090  136.8940 C   0  0  0  0  0  0  0  0  0  0  0  0
  186.2060  175.7710  136.7950 N   0  0  0  0  0  0  0  0  0  0  0  0
  188.0340  174.4300  135.7860 C   0  0  0  0  0  2  0  0  0  0  0  0
  188.7230  173.0960  135.8420 C   0  0  0  0  0  3  0  0  0  0  0  0
  186.3530  173.3610  137.4610 C   0  0  0  0  0  2  0  0  0  0  0  0
  186.5680  172.1580  136.5380 C   0  0  0  0  0  2  0  0  0  0  0  0
  188.0250  172.0130  136.1980 C   0  0  0  0  0  3  0  0  0  0  0  0
  187.1120  174.6290  137.0030 C   0  0  2  0  0  3  0  0  0  0  0  0
  184.6320  175.4400  135.0180 C   0  0  0  0  0  2  0  0  0  0  0  0
  184.8590  175.5600  136.3220 C   0  0  0  0  0  0  0  0  0  0  0  0
  182.7680  176.1630  139.8860 O   0  0  0  0  0  0  0  0  0  0  0  0
  183.0330  177.9220  136.7000 C   0  0  0  0  0  2  0  0  0  0  0  0
  181.7250  178.6940  136.7910 C   0  0  0  0  0  2  0  0  0  0  0  0
  183.7220  175.5760  137.2710 C   0  0  0  0  0  0  0  0  0  0  0  0
  182.4510  176.9420  138.9440 C   0  0  0  0  0  0  0  0  0  0  0  0
  183.3120  174.4790  137.7380 O   0  0  0  0  0  0  0  0  0  0  0  0
  181.3820  177.9660  139.1850 C   0  0  0  0  0  2  0  0  0  0  0  0
  181.5210  179.1530  138.2320 C   0  0  2  0  0  3  0  0  0  0  0  0
  183.0590  176.8010  137.6430 N   0  0  0  0  0  0  0  0  0  0  0  0
  180.4020  180.0930  138.3610 N   0  0  0  0  0  2  0  0  0  0  0  0
  182.2570  181.4710  138.6150 F   0  0  0  0  0  0  0  0  0  0  0  0
  180.8820  181.4670  138.4890 C   0  0  0  0  0  2  0  0  0  0  0  0
  191.9980  176.6020  137.3790 O   0  0  0  0  0  0  0  0  0  0  0  0
  193.7890  172.9960  136.1900 C   0  0  0  0  0  3  0  0  0  0  0  0
  192.6120  175.4150  136.9660 C   0  0  0  0  0  0  0  0  0  0  0  0
  191.8320  174.2610  136.8380 C   0  0  0  0  0  3  0  0  0  0  0  0
  194.5720  174.1460  136.3030 C   0  0  0  0  0  3  0  0  0  0  0  0
  192.4190  173.0550  136.4540 C   0  0  0  0  0  3  0  0  0  0  0  0
  193.9860  175.3540  136.6880 C   0  0  0  0  0  3  0  0  0  0  0  0
  1 22  1  6  0  0  0
  1  2  1  0  0  0  0
  2  3  1  0  0  0  0
  4  2  2  0  0  0  0
  5 12  1  1  0  0  0
  5 11  1  0  0  0  0
  5 16  1  0  0  0  0
  6  3  1  1  0  0  0
  6  9  1  0  0  0  0
  6 14  1  0  0  0  0
  9  8  1  1  0  0  0
  9 10  1  0  0  0  0
 10 11  1  0  0  0  0
 10 13  1  6  0  0  0
 11  7  1  1  0  0  0
 14 11  1  0  0  0  0
 15  8  1  1  0  0  0
 15  5  1  0  0  0  0
 15 16  1  0  0  0  0
 16 17  1  0  0  0  0
 17 18  1  0  0  0  0
 18 19  1  0  0  0  0
 19 21  1  0  0  0  0
 21 20  1  0  0  0  0
 23 25  2  0  0  0  0
 24 23  1  0  0  0  0
 24 22  1  0  0  0  0
 26 27  2  0  0  0  0
 27 23  1  0  0  0  0
 28 27  1  0  0  0  0
 29 30  1  0  0  0  0
 29 34  1  0  0  0  0
 30 33  2  0  0  0  0
 32 31  1  0  0  0  0
 33 32  1  0  0  0  0
 34 28  1  6  0  0  0
 34 31  1  0  0  0  0
 35 36  2  0  0  0  0
 36 28  1  0  0  0  0
 36 40  1  0  0  0  0
 38 39  1  0  0  0  0
 38 45  1  0  0  0  0
 39 44  1  0  0  0  0
 40 45  1  0  0  0  0
 40 42  2  0  0  0  0
 41 43  1  0  0  0  0
 41 37  2  0  0  0  0
 44 46  1  6  0  0  0
 44 43  1  0  0  0  0
 45 41  1  0  0  0  0
 46 48  1  0  0  0  0
 48 47  1  0  0  0  0
 49  1  1  0  0  0  0
 50 53  2  0  0  0  0
 50 54  1  0  0  0  0
 51 49  1  0  0  0  0
 52 51  1  0  0  0  0
 53 55  1  0  0  0  0
 54 52  2  0  0  0  0
 55 51  2  0  0  0  0
M  END
>  <MODEL>
4

>  <REMARK>
 VINA RESULT:      -7.3      1.767      2.156
  Name = 
  16 active torsions:
  status: ('A' for Active; 'I' for Inactive)
    1  A    between atoms: C_3  and  C_25
    2  A    between atoms: C_3  and  C_38
    3  A    between atoms: C_4  and  N_37
    4  A    between atoms: C_4  and  C_54
    5  A    between atoms: C_6  and  N_22
    6  A    between atoms: C_8  and  C_54
    7  A    between atoms: N_10  and  C_47
    8  A    between atoms: N_10  and  C_48
    9  A    between atoms: C_19  and  C_35
   10  A    between atoms: C_26  and  N_45
   11  A    between atoms: C_27  and  O_51
   12  A    between atoms: C_29  and  C_38
   13  A    between atoms: C_29  and  N_53
   14  A    between atoms: C_33  and  C_49
   15  A    between atoms: N_45  and  C_49
   16  A    between atoms: O_51  and  C_54
                            x       y       z     vdW  Elec       q    Type
                         _______ _______ _______ _____ _____    ______ ____

>  <TORSDO>
F 16

$$$$
=
 OpenBabel11052415023D

 55 60  0  0  1  0  0  0  0  0999 V2000
  186.0900  177.9530  142.2960 C   0  0  1  0  0  3  0  0  0  0  0  0
  185.1930  179.1330  142.0550 C   0  0  0  0  0  0  0  0  0  0  0  0
  183.8880  179.0160  141.4700 N   0  0  0  0  0  2  0  0  0  0  0  0
  185.5750  180.2620  142.4660 O   0  0  0  0  0  0  0  0  0  0  0  0
  181.6230  176.2450  139.0550 C   0  0  2  0  0  0  0  0  0  0  0  0
  183.4140  177.8620  140.7200 C   0  0  2  0  0  3  0  0  0  0  0  0
  180.1850  178.1160  139.5370 F   0  0  0  0  0  0  0  0  0  0  0  0
  183.9980  176.8380  138.5830 O   0  0  0  0  0  0  0  0  0  0  0  0
  183.6890  178.0700  139.2310 C   0  0  1  0  0  3  0  0  0  0  0  0
  182.3800  178.5790  138.7200 C   0  0  1  0  0  3  0  0  0  0  0  0
  181.5020  177.6940  139.5620 C   0  0  2  0  0  0  0  0  0  0  0  0
  180.8570  175.2530  139.6740 O   0  0  0  0  0  1  0  0  0  0  0  0
  182.2110  179.9230  139.0710 O   0  0  0  0  0  1  0  0  0  0  0  0
  182.0150  177.7450  140.8740 O   0  0  0  0  0  0  0  0  0  0  0  0
  182.9960  175.8180  138.7070 C   0  0  2  0  0  3  0  0  0  0  0  0
  181.9840  176.0080  137.6380 N   0  0  0  0  0  0  0  0  0  0  0  0
  181.6030  174.6730  137.2020 C   0  0  0  0  0  2  0  0  0  0  0  0
  182.0980  174.4430  135.7890 C   0  0  0  0  0  2  0  0  0  0  0  0
  182.3920  172.9720  135.5920 C   0  0  0  0  0  2  0  0  0  0  0  0
  183.5890  171.0300  136.5480 C   0  0  0  0  0  1  0  0  0  0  0  0
  183.0820  172.4280  136.8270 C   0  0  0  0  0  2  0  0  0  0  0  0
  187.5200  178.2980  141.9010 C   0  0  0  0  0  2  0  0  0  0  0  0
  188.7720  177.7080  139.7890 C   0  0  0  0  0  0  0  0  0  0  0  0
  188.0050  177.3310  140.9300 N   0  0  0  0  0  2  0  0  0  0  0  0
  188.8670  178.9230  139.4570 O   0  0  0  0  0  0  0  0  0  0  0  0
  190.5470  176.1830  139.5480 O   0  0  0  0  0  0  0  0  0  0  0  0
  189.5000  176.6680  139.0410 C   0  0  0  0  0  0  0  0  0  0  0  0
  189.0740  176.2380  137.7340 N   0  0  0  0  0  0  0  0  0  0  0  0
  187.3380  174.7250  136.8110 C   0  0  0  0  0  2  0  0  0  0  0  0
  185.9500  174.6890  136.2360 C   0  0  0  0  0  3  0  0  0  0  0  0
  187.0560  177.3100  136.7080 C   0  0  0  0  0  2  0  0  0  0  0  0
  186.3900  176.9430  135.3780 C   0  0  0  0  0  2  0  0  0  0  0  0
  185.4990  175.7450  135.5510 C   0  0  0  0  0  3  0  0  0  0  0  0
  187.6350  176.0880  137.4610 C   0  0  2  0  0  3  0  0  0  0  0  0
  190.2050  176.4600  135.6330 C   0  0  0  0  0  2  0  0  0  0  0  0
  190.0520  175.7910  136.7710 C   0  0  0  0  0  0  0  0  0  0  0  0
  192.3410  172.4080  135.9040 O   0  0  0  0  0  0  0  0  0  0  0  0
  193.0130  175.7100  137.3040 C   0  0  0  0  0  2  0  0  0  0  0  0
  194.3090  175.3610  138.0220 C   0  0  0  0  0  2  0  0  0  0  0  0
  190.8120  174.5410  137.0010 C   0  0  0  0  0  0  0  0  0  0  0  0
  192.9470  173.3100  136.5470 C   0  0  0  0  0  0  0  0  0  0  0  0
  190.1710  173.4890  137.2720 O   0  0  0  0  0  0  0  0  0  0  0  0
  194.3780  173.0840  136.9330 C   0  0  0  0  0  2  0  0  0  0  0  0
  195.1150  174.4050  137.1480 C   0  0  2  0  0  3  0  0  0  0  0  0
  192.2520  174.5060  136.9580 N   0  0  0  0  0  0  0  0  0  0  0  0
  196.4740  174.1970  137.6620 N   0  0  0  0  0  2  0  0  0  0  0  0
  198.6950  174.5370  137.0670 F   0  0  0  0  0  0  0  0  0  0  0  0
  197.4510  174.1930  136.5770 C   0  0  0  0  0  2  0  0  0  0  0  0
  186.0320  177.5130  143.6510 O   0  0  0  0  0  0  0  0  0  0  0  0
  189.3910  177.3240  146.1630 C   0  0  0  0  0  3  0  0  0  0  0  0
  187.1460  177.4760  144.4960 C   0  0  0  0  0  0  0  0  0  0  0  0
  188.2860  176.7820  144.0810 C   0  0  0  0  0  3  0  0  0  0  0  0
  188.2620  178.0310  146.5800 C   0  0  0  0  0  3  0  0  0  0  0  0
  189.4040  176.7030  144.9120 C   0  0  0  0  0  3  0  0  0  0  0  0
  187.1420  178.1090  145.7490 C   0  0  0  0  0  3  0  0  0  0  0  0
  1 22  1  1  0  0  0
  1 49  1  0  0  0  0
  2  1  1  0  0  0  0
  2  4  2  0  0  0  0
  3  2  1  0  0  0  0
  5 11  1  0  0  0  0
  5 12  1  1  0  0  0
  6 14  1  0  0  0  0
  6  3  1  1  0  0  0
  9  8  1  6  0  0  0
  9  6  1  0  0  0  0
 10 13  1  1  0  0  0
 10  9  1  0  0  0  0
 10 11  1  0  0  0  0
 11  7  1  6  0  0  0
 11 14  1  0  0  0  0
 15  8  1  6  0  0  0
 15  5  1  0  0  0  0
 16 15  1  0  0  0  0
 16  5  1  0  0  0  0
 17 16  1  0  0  0  0
 18 17  1  0  0  0  0
 19 18  1  0  0  0  0
 19 21  1  0  0  0  0
 20 21  1  0  0  0  0
 23 24  1  0  0  0  0
 24 22  1  0  0  0  0
 25 23  2  0  0  0  0
 27 26  2  0  0  0  0
 27 23  1  0  0  0  0
 28 27  1  0  0  0  0
 29 34  1  0  0  0  0
 30 29  1  0  0  0  0
 31 34  1  0  0  0  0
 32 33  1  0  0  0  0
 32 31  1  0  0  0  0
 33 30  2  0  0  0  0
 34 28  1  6  0  0  0
 35 36  2  0  0  0  0
 36 40  1  0  0  0  0
 36 28  1  0  0  0  0
 37 41  2  0  0  0  0
 38 39  1  0  0  0  0
 40 42  2  0  0  0  0
 41 43  1  0  0  0  0
 41 45  1  0  0  0  0
 43 44  1  0  0  0  0
 44 46  1  1  0  0  0
 44 39  1  0  0  0  0
 45 40  1  0  0  0  0
 45 38  1  0  0  0  0
 48 47  1  0  0  0  0
 48 46  1  0  0  0  0
 49 51  1  0  0  0  0
 50 53  1  0  0  0  0
 51 55  1  0  0  0  0
 52 51  2  0  0  0  0
 52 54  1  0  0  0  0
 54 50  2  0  0  0  0
 55 53  2  0  0  0  0
M  END
>  <MODEL>
5

>  <REMARK>
 VINA RESULT:      -6.7      2.874      9.298
  Name = 
  16 active torsions:
  status: ('A' for Active; 'I' for Inactive)
    1  A    between atoms: C_3  and  C_25
    2  A    between atoms: C_3  and  C_38
    3  A    between atoms: C_4  and  N_37
    4  A    between atoms: C_4  and  C_54
    5  A    between atoms: C_6  and  N_22
    6  A    between atoms: C_8  and  C_54
    7  A    between atoms: N_10  and  C_47
    8  A    between atoms: N_10  and  C_48
    9  A    between atoms: C_19  and  C_35
   10  A    between atoms: C_26  and  N_45
   11  A    between atoms: C_27  and  O_51
   12  A    between atoms: C_29  and  C_38
   13  A    between atoms: C_29  and  N_53
   14  A    between atoms: C_33  and  C_49
   15  A    between atoms: N_45  and  C_49
   16  A    between atoms: O_51  and  C_54
                            x       y       z     vdW  Elec       q    Type
                         _______ _______ _______ _____ _____    ______ ____

>  <TORSDO>
F 16

$$$$
=
 OpenBabel11052415023D

 55 60  0  0  1  0  0  0  0  0999 V2000
  184.4950  178.9840  141.5580 C   0  0  1  0  0  3  0  0  0  0  0  0
  184.1940  178.7810  143.0150 C   0  0  0  0  0  0  0  0  0  0  0  0
  185.2150  178.5710  144.0020 N   0  0  0  0  0  2  0  0  0  0  0  0
  182.9970  178.8860  143.3950 O   0  0  0  0  0  0  0  0  0  0  0  0
  189.4080  177.5620  144.2070 C   0  0  2  0  0  0  0  0  0  0  0  0
  186.5840  178.1700  143.7090 C   0  0  2  0  0  3  0  0  0  0  0  0
  188.8030  178.5380  146.3230 F   0  0  0  0  0  0  0  0  0  0  0  0
  187.6900  176.0510  143.2150 O   0  0  0  0  0  0  0  0  0  0  0  0
  186.7830  176.7060  144.1000 C   0  0  1  0  0  3  0  0  0  0  0  0
  187.4070  176.8070  145.4550 C   0  0  1  0  0  3  0  0  0  0  0  0
  188.2820  177.9950  145.1620 C   0  0  2  0  0  0  0  0  0  0  0  0
  190.3670  178.5070  143.8290 O   0  0  0  0  0  1  0  0  0  0  0  0
  186.4380  177.1280  146.4120 O   0  0  0  0  0  1  0  0  0  0  0  0
  187.4750  178.9370  144.4930 O   0  0  0  0  0  0  0  0  0  0  0  0
  188.9860  176.6600  143.1120 C   0  0  2  0  0  3  0  0  0  0  0  0
  189.8450  176.1460  144.2070 N   0  0  0  0  0  0  0  0  0  0  0  0
  191.1760  175.9930  143.6370 C   0  0  0  0  0  2  0  0  0  0  0  0
  192.0960  175.3660  144.6640 C   0  0  0  0  0  2  0  0  0  0  0  0
  192.0560  176.1800  145.9390 C   0  0  0  0  0  2  0  0  0  0  0  0
  192.8110  175.7810  148.2610 C   0  0  0  0  0  1  0  0  0  0  0  0
  191.9620  175.2460  147.1280 C   0  0  0  0  0  2  0  0  0  0  0  0
  185.9440  178.6130  141.2700 C   0  0  0  0  0  2  0  0  0  0  0  0
  187.4540  178.3660  139.2610 C   0  0  0  0  0  0  0  0  0  0  0  0
  186.1950  178.7000  139.8410 N   0  0  0  0  0  2  0  0  0  0  0  0
  188.4690  178.1990  139.9950 O   0  0  0  0  0  0  0  0  0  0  0  0
  187.0780  179.0500  137.0420 O   0  0  0  0  0  0  0  0  0  0  0  0
  187.5400  178.1590  137.8050 C   0  0  0  0  0  0  0  0  0  0  0  0
  188.0860  176.9510  137.2430 N   0  0  0  0  0  0  0  0  0  0  0  0
  190.5440  177.1270  137.5350 C   0  0  0  0  0  2  0  0  0  0  0  0
  191.7760  176.3440  137.8900 C   0  0  0  0  0  3  0  0  0  0  0  0
  189.3490  174.8160  137.5950 C   0  0  0  0  0  2  0  0  0  0  0  0
  190.6560  174.3930  136.9170 C   0  0  0  0  0  2  0  0  0  0  0  0
  191.8310  175.0420  137.5930 C   0  0  0  0  0  3  0  0  0  0  0  0
  189.2670  176.3360  137.8730 C   0  0  2  0  0  3  0  0  0  0  0  0
  187.8850  177.1060  134.8610 C   0  0  0  0  0  2  0  0  0  0  0  0
  187.5890  176.4570  135.9820 C   0  0  0  0  0  0  0  0  0  0  0  0
  185.4880  173.1060  137.3220 O   0  0  0  0  0  0  0  0  0  0  0  0
  184.6680  176.6060  136.6910 C   0  0  0  0  0  2  0  0  0  0  0  0
  183.1660  176.4300  136.5270 C   0  0  0  0  0  2  0  0  0  0  0  0
  186.6740  175.2940  135.9420 C   0  0  0  0  0  0  0  0  0  0  0  0
  184.7760  174.1220  137.0850 C   0  0  0  0  0  0  0  0  0  0  0  0
  187.0410  174.2600  135.3200 O   0  0  0  0  0  0  0  0  0  0  0  0
  183.2930  174.0270  137.2900 C   0  0  0  0  0  2  0  0  0  0  0  0
  182.6740  175.4010  137.5400 C   0  0  2  0  0  3  0  0  0  0  0  0
  185.3730  175.3270  136.5620 N   0  0  0  0  0  0  0  0  0  0  0  0
  181.2100  175.3400  137.6020 N   0  0  0  0  0  2  0  0  0  0  0  0
  181.8150  175.3680  139.8470 F   0  0  0  0  0  0  0  0  0  0  0  0
  180.7470  175.2310  138.9830 C   0  0  0  0  0  2  0  0  0  0  0  0
  183.6080  178.2400  140.7270 O   0  0  0  0  0  0  0  0  0  0  0  0
  180.5810  179.9440  138.3670 C   0  0  0  0  0  3  0  0  0  0  0  0
  182.6150  178.8310  139.9380 C   0  0  0  0  0  0  0  0  0  0  0  0
  181.2740  178.5470  140.2170 C   0  0  0  0  0  3  0  0  0  0  0  0
  181.9170  180.2430  138.0910 C   0  0  0  0  0  3  0  0  0  0  0  0
  180.2610  179.0990  139.4320 C   0  0  0  0  0  3  0  0  0  0  0  0
  182.9320  179.6900  138.8750 C   0  0  0  0  0  3  0  0  0  0  0  0
  1 22  1  1  0  0  0
  1  2  1  0  0  0  0
  2  4  2  0  0  0  0
  2  3  1  0  0  0  0
  5 12  1  6  0  0  0
  5 16  1  0  0  0  0
  5 11  1  0  0  0  0
  6  3  1  1  0  0  0
  6  9  1  0  0  0  0
  6 14  1  0  0  0  0
  9  8  1  6  0  0  0
  9 10  1  0  0  0  0
 10 13  1  1  0  0  0
 11 10  1  0  0  0  0
 11  7  1  1  0  0  0
 14 11  1  0  0  0  0
 15  8  1  1  0  0  0
 15  5  1  0  0  0  0
 15 16  1  0  0  0  0
 17 16  1  0  0  0  0
 17 18  1  0  0  0  0
 18 19  1  0  0  0  0
 19 21  1  0  0  0  0
 21 20  1  0  0  0  0
 23 24  1  0  0  0  0
 23 25  2  0  0  0  0
 24 22  1  0  0  0  0
 26 27  2  0  0  0  0
 27 23  1  0  0  0  0
 28 27  1  0  0  0  0
 29 34  1  0  0  0  0
 29 30  1  0  0  0  0
 31 34  1  0  0  0  0
 32 33  1  0  0  0  0
 32 31  1  0  0  0  0
 33 30  2  0  0  0  0
 34 28  1  6  0  0  0
 35 36  2  0  0  0  0
 36 28  1  0  0  0  0
 39 38  1  0  0  0  0
 39 44  1  0  0  0  0
 40 36  1  0  0  0  0
 40 45  1  0  0  0  0
 41 43  1  0  0  0  0
 41 37  2  0  0  0  0
 42 40  2  0  0  0  0
 43 44  1  0  0  0  0
 44 46  1  6  0  0  0
 45 38  1  0  0  0  0
 45 41  1  0  0  0  0
 46 48  1  0  0  0  0
 48 47  1  0  0  0  0
 49  1  1  0  0  0  0
 50 54  1  0  0  0  0
 51 52  1  0  0  0  0
 51 49  1  0  0  0  0
 53 50  2  0  0  0  0
 53 55  1  0  0  0  0
 54 52  2  0  0  0  0
 55 51  2  0  0  0  0
M  END
>  <MODEL>
6

>  <REMARK>
 VINA RESULT:      -6.4      2.521      6.368
  Name = 
  16 active torsions:
  status: ('A' for Active; 'I' for Inactive)
    1  A    between atoms: C_3  and  C_25
    2  A    between atoms: C_3  and  C_38
    3  A    between atoms: C_4  and  N_37
    4  A    between atoms: C_4  and  C_54
    5  A    between atoms: C_6  and  N_22
    6  A    between atoms: C_8  and  C_54
    7  A    between atoms: N_10  and  C_47
    8  A    between atoms: N_10  and  C_48
    9  A    between atoms: C_19  and  C_35
   10  A    between atoms: C_26  and  N_45
   11  A    between atoms: C_27  and  O_51
   12  A    between atoms: C_29  and  C_38
   13  A    between atoms: C_29  and  N_53
   14  A    between atoms: C_33  and  C_49
   15  A    between atoms: N_45  and  C_49
   16  A    between atoms: O_51  and  C_54
                            x       y       z     vdW  Elec       q    Type
                         _______ _______ _______ _____ _____    ______ ____

>  <TORSDO>
F 16

$$$$
=
 OpenBabel11052415023D

 55 60  0  0  1  0  0  0  0  0999 V2000
  184.9490  176.4530  135.5530 C   0  0  1  0  0  3  0  0  0  0  0  0
  183.4480  176.4990  135.5880 C   0  0  0  0  0  0  0  0  0  0  0  0
  182.7090  177.1270  136.6470 N   0  0  0  0  0  2  0  0  0  0  0  0
  182.8170  176.0400  134.5980 O   0  0  0  0  0  0  0  0  0  0  0  0
  183.7470  179.0370  140.3760 C   0  0  2  0  0  0  0  0  0  0  0  0
  183.2550  177.4600  137.9540 C   0  0  2  0  0  3  0  0  0  0  0  0
  182.6040  180.6730  139.0280 F   0  0  0  0  0  0  0  0  0  0  0  0
  182.8180  176.7280  140.2420 O   0  0  0  0  0  0  0  0  0  0  0  0
  182.2090  177.1770  139.0330 C   0  0  1  0  0  3  0  0  0  0  0  0
  181.5960  178.5210  139.2620 C   0  0  1  0  0  3  0  0  0  0  0  0
  182.8660  179.3190  139.1460 C   0  0  2  0  0  0  0  0  0  0  0  0
  184.9680  179.7090  140.4950 O   0  0  0  0  0  1  0  0  0  0  0  0
  180.7150  178.8360  138.2230 O   0  0  0  0  0  1  0  0  0  0  0  0
  183.5400  178.8430  138.0040 O   0  0  0  0  0  0  0  0  0  0  0  0
  183.7950  177.6200  140.7980 C   0  0  2  0  0  3  0  0  0  0  0  0
  183.0990  178.6230  141.6430 N   0  0  0  0  0  0  0  0  0  0  0  0
  183.9650  178.8530  142.7900 C   0  0  0  0  0  2  0  0  0  0  0  0
  183.1180  179.1130  144.0190 C   0  0  0  0  0  2  0  0  0  0  0  0
  183.9370  178.8430  145.2620 C   0  0  0  0  0  2  0  0  0  0  0  0
  186.1420  178.0790  146.0830 C   0  0  0  0  0  1  0  0  0  0  0  0
  185.3630  178.5210  144.8630 C   0  0  0  0  0  2  0  0  0  0  0  0
  185.4930  176.2090  136.9540 C   0  0  0  0  0  2  0  0  0  0  0  0
  187.4410  177.7090  137.5360 C   0  0  0  0  0  0  0  0  0  0  0  0
  186.9170  176.5030  136.9830 N   0  0  0  0  0  2  0  0  0  0  0  0
  186.6690  178.6690  137.8160 O   0  0  0  0  0  0  0  0  0  0  0  0
  189.6240  178.4200  137.0250 O   0  0  0  0  0  0  0  0  0  0  0  0
  188.8820  177.7950  137.8300 C   0  0  0  0  0  0  0  0  0  0  0  0
  189.4600  177.1430  138.9760 N   0  0  0  0  0  0  0  0  0  0  0  0
  188.3200  178.5740  140.6530 C   0  0  0  0  0  2  0  0  0  0  0  0
  187.8650  178.6270  142.0830 C   0  0  0  0  0  3  0  0  0  0  0  0
  189.4580  176.3390  141.3490 C   0  0  0  0  0  2  0  0  0  0  0  0
  189.7610  177.1630  142.6040 C   0  0  0  0  0  2  0  0  0  0  0  0
  188.5520  177.9570  143.0140 C   0  0  0  0  0  3  0  0  0  0  0  0
  188.7220  177.1430  140.2510 C   0  0  2  0  0  3  0  0  0  0  0  0
  191.7830  177.3290  139.5320 C   0  0  0  0  0  2  0  0  0  0  0  0
  190.8170  176.6560  138.9160 C   0  0  0  0  0  0  0  0  0  0  0  0
  191.7040  174.3980  135.5180 O   0  0  0  0  0  0  0  0  0  0  0  0
  193.6330  175.8070  138.2770 C   0  0  0  0  0  2  0  0  0  0  0  0
  194.8380  174.8850  138.1670 C   0  0  0  0  0  2  0  0  0  0  0  0
  191.1510  175.4710  138.0940 C   0  0  0  0  0  0  0  0  0  0  0  0
  192.6650  174.5490  136.3220 C   0  0  0  0  0  0  0  0  0  0  0  0
  190.2530  174.6120  137.8830 O   0  0  0  0  0  0  0  0  0  0  0  0
  193.9860  173.9160  135.9970 C   0  0  0  0  0  2  0  0  0  0  0  0
  195.1390  174.6380  136.6920 C   0  0  2  0  0  3  0  0  0  0  0  0
  192.4750  175.2610  137.5630 N   0  0  0  0  0  0  0  0  0  0  0  0
  196.4170  173.9460  136.4960 N   0  0  0  0  0  2  0  0  0  0  0  0
  196.9380  176.1480  135.9660 F   0  0  0  0  0  0  0  0  0  0  0  0
  197.4720  174.8850  136.1240 C   0  0  0  0  0  2  0  0  0  0  0  0
  185.4260  175.4630  134.6460 O   0  0  0  0  0  0  0  0  0  0  0  0
  186.2850  171.4940  135.7110 C   0  0  0  0  0  3  0  0  0  0  0  0
  185.6910  174.1410  135.0180 C   0  0  0  0  0  0  0  0  0  0  0  0
  187.0200  173.7100  135.0780 C   0  0  0  0  0  3  0  0  0  0  0  0
  184.9560  171.9200  135.6670 C   0  0  0  0  0  3  0  0  0  0  0  0
  187.3160  172.3900  135.4210 C   0  0  0  0  0  3  0  0  0  0  0  0
  184.6580  173.2410  135.3240 C   0  0  0  0  0  3  0  0  0  0  0  0
  1  2  1  0  0  0  0
  1 22  1  1  0  0  0
  2  3  1  0  0  0  0
  4  2  2  0  0  0  0
  5 12  1  1  0  0  0
  5 15  1  0  0  0  0
  5 16  1  0  0  0  0
  6  3  1  6  0  0  0
  6 14  1  0  0  0  0
  6  9  1  0  0  0  0
  9 10  1  0  0  0  0
  9  8  1  1  0  0  0
 10 13  1  6  0  0  0
 11  7  1  6  0  0  0
 11 10  1  0  0  0  0
 11  5  1  0  0  0  0
 14 11  1  0  0  0  0
 15  8  1  6  0  0  0
 15 16  1  0  0  0  0
 16 17  1  0  0  0  0
 17 18  1  0  0  0  0
 18 19  1  0  0  0  0
 21 19  1  0  0  0  0
 21 20  1  0  0  0  0
 22 24  1  0  0  0  0
 23 25  2  0  0  0  0
 23 27  1  0  0  0  0
 24 23  1  0  0  0  0
 26 27  2  0  0  0  0
 27 28  1  0  0  0  0
 29 30  1  0  0  0  0
 30 33  2  0  0  0  0
 31 32  1  0  0  0  0
 32 33  1  0  0  0  0
 34 28  1  6  0  0  0
 34 29  1  0  0  0  0
 34 31  1  0  0  0  0
 36 28  1  0  0  0  0
 36 35  2  0  0  0  0
 37 41  2  0  0  0  0
 39 38  1  0  0  0  0
 40 36  1  0  0  0  0
 41 45  1  0  0  0  0
 42 40  2  0  0  0  0
 43 41  1  0  0  0  0
 43 44  1  0  0  0  0
 44 46  1  1  0  0  0
 44 39  1  0  0  0  0
 45 40  1  0  0  0  0
 45 38  1  0  0  0  0
 47 48  1  0  0  0  0
 48 46  1  0  0  0  0
 49 51  1  0  0  0  0
 49  1  1  0  0  0  0
 51 52  2  0  0  0  0
 51 55  1  0  0  0  0
 52 54  1  0  0  0  0
 53 50  1  0  0  0  0
 54 50  2  0  0  0  0
 55 53  2  0  0  0  0
M  END
>  <MODEL>
7

>  <REMARK>
 VINA RESULT:      -6.3      2.754      8.413
  Name = 
  16 active torsions:
  status: ('A' for Active; 'I' for Inactive)
    1  A    between atoms: C_3  and  C_25
    2  A    between atoms: C_3  and  C_38
    3  A    between atoms: C_4  and  N_37
    4  A    between atoms: C_4  and  C_54
    5  A    between atoms: C_6  and  N_22
    6  A    between atoms: C_8  and  C_54
    7  A    between atoms: N_10  and  C_47
    8  A    between atoms: N_10  and  C_48
    9  A    between atoms: C_19  and  C_35
   10  A    between atoms: C_26  and  N_45
   11  A    between atoms: C_27  and  O_51
   12  A    between atoms: C_29  and  C_38
   13  A    between atoms: C_29  and  N_53
   14  A    between atoms: C_33  and  C_49
   15  A    between atoms: N_45  and  C_49
   16  A    between atoms: O_51  and  C_54
                            x       y       z     vdW  Elec       q    Type
                         _______ _______ _______ _____ _____    ______ ____

>  <TORSDO>
F 16

$$$$
=
 OpenBabel11052415023D

 55 60  0  0  1  0  0  0  0  0999 V2000
  183.5460  178.5610  142.0700 C   0  0  1  0  0  3  0  0  0  0  0  0
  182.1830  178.6030  141.4420 C   0  0  0  0  0  0  0  0  0  0  0  0
  181.7880  177.7310  140.3710 N   0  0  0  0  0  2  0  0  0  0  0  0
  181.3240  179.3810  141.9380 O   0  0  0  0  0  0  0  0  0  0  0  0
  183.5970  175.0010  137.5580 C   0  0  2  0  0  0  0  0  0  0  0  0
  182.7090  176.9810  139.5300 C   0  0  2  0  0  3  0  0  0  0  0  0
  181.3010  174.3280  137.8340 F   0  0  0  0  0  0  0  0  0  0  0  0
  183.9700  177.4660  137.4970 O   0  0  0  0  0  0  0  0  0  0  0  0
  182.6850  177.5500  138.1110 C   0  0  1  0  0  3  0  0  0  0  0  0
  181.7410  176.6340  137.4010 C   0  0  1  0  0  3  0  0  0  0  0  0
  182.1900  175.3620  138.0680 C   0  0  2  0  0  0  0  0  0  0  0  0
  184.1970  173.8260  138.0210 O   0  0  0  0  0  1  0  0  0  0  0  0
  180.4200  176.9360  137.7480 O   0  0  0  0  0  1  0  0  0  0  0  0
  182.2790  175.6380  139.4470 O   0  0  0  0  0  0  0  0  0  0  0  0
  184.5280  176.1450  137.4320 C   0  0  2  0  0  3  0  0  0  0  0  0
  184.0150  175.4680  136.2150 N   0  0  0  0  0  0  0  0  0  0  0  0
  185.1240  174.6820  135.6940 C   0  0  0  0  0  2  0  0  0  0  0  0
  185.9390  175.5310  134.7400 C   0  0  0  0  0  2  0  0  0  0  0  0
  187.3940  175.1220  134.8210 C   0  0  0  0  0  2  0  0  0  0  0  0
  188.6240  173.3440  136.0220 C   0  0  0  0  0  1  0  0  0  0  0  0
  187.6670  174.5060  136.1780 C   0  0  0  0  0  2  0  0  0  0  0  0
  184.6080  178.8880  141.0290 C   0  0  0  0  0  2  0  0  0  0  0  0
  187.0690  178.6000  141.5170 C   0  0  0  0  0  0  0  0  0  0  0  0
  185.7790  178.0550  141.2480 N   0  0  0  0  0  2  0  0  0  0  0  0
  187.2880  179.8340  141.3500 O   0  0  0  0  0  0  0  0  0  0  0  0
  188.0370  177.3310  143.2450 O   0  0  0  0  0  0  0  0  0  0  0  0
  188.1230  177.7180  142.0480 C   0  0  0  0  0  0  0  0  0  0  0  0
  189.2620  177.3370  141.2540 N   0  0  0  0  0  0  0  0  0  0  0  0
  190.3310  176.3700  139.2350 C   0  0  0  0  0  2  0  0  0  0  0  0
  190.2770  176.3500  137.7340 C   0  0  0  0  0  3  0  0  0  0  0  0
  188.5420  178.2500  139.0350 C   0  0  0  0  0  2  0  0  0  0  0  0
  189.4450  178.6530  137.8650 C   0  0  0  0  0  2  0  0  0  0  0  0
  189.8570  177.4380  137.0800 C   0  0  0  0  0  3  0  0  0  0  0  0
  189.0720  177.0300  139.8270 C   0  0  2  0  0  3  0  0  0  0  0  0
  191.6080  177.7590  141.4980 C   0  0  0  0  0  2  0  0  0  0  0  0
  190.5320  177.0890  141.8940 C   0  0  0  0  0  0  0  0  0  0  0  0
  192.3510  174.2390  144.3440 O   0  0  0  0  0  0  0  0  0  0  0  0
  191.0710  177.6250  144.8060 C   0  0  0  0  0  2  0  0  0  0  0  0
  190.8740  177.5580  146.3130 C   0  0  0  0  0  2  0  0  0  0  0  0
  190.6590  176.0240  142.9150 C   0  0  0  0  0  0  0  0  0  0  0  0
  191.9060  175.2540  144.9480 C   0  0  0  0  0  0  0  0  0  0  0  0
  190.2480  174.8660  142.6330 O   0  0  0  0  0  0  0  0  0  0  0  0
  192.0580  175.3320  146.4390 C   0  0  0  0  0  2  0  0  0  0  0  0
  192.0320  176.7790  146.9290 C   0  0  2  0  0  3  0  0  0  0  0  0
  191.2040  176.2860  144.2240 N   0  0  0  0  0  0  0  0  0  0  0  0
  192.0380  176.8620  148.3940 N   0  0  0  0  0  2  0  0  0  0  0  0
  193.6360  176.9310  150.0800 F   0  0  0  0  0  0  0  0  0  0  0  0
  193.2400  176.2450  148.9500 C   0  0  0  0  0  2  0  0  0  0  0  0
  183.6410  179.4450  143.1840 O   0  0  0  0  0  0  0  0  0  0  0  0
  185.5610  178.3780  146.7620 C   0  0  0  0  0  3  0  0  0  0  0  0
  184.2590  179.0990  144.3910 C   0  0  0  0  0  0  0  0  0  0  0  0
  185.6470  179.2270  144.4990 C   0  0  0  0  0  3  0  0  0  0  0  0
  184.1730  178.2590  146.6670 C   0  0  0  0  0  3  0  0  0  0  0  0
  186.2970  178.8650  145.6800 C   0  0  0  0  0  3  0  0  0  0  0  0
  183.5220  178.6210  145.4850 C   0  0  0  0  0  3  0  0  0  0  0  0
  1 22  1  6  0  0  0
  1 49  1  0  0  0  0
  2  4  2  0  0  0  0
  2  1  1  0  0  0  0
  3  2  1  0  0  0  0
  5 12  1  1  0  0  0
  5 11  1  0  0  0  0
  6  3  1  1  0  0  0
  9  8  1  6  0  0  0
  9  6  1  0  0  0  0
 10 13  1  1  0  0  0
 10 11  1  0  0  0  0
 10  9  1  0  0  0  0
 11  7  1  6  0  0  0
 11 14  1  0  0  0  0
 14  6  1  0  0  0  0
 15  8  1  6  0  0  0
 15  5  1  0  0  0  0
 16 15  1  0  0  0  0
 16  5  1  0  0  0  0
 17 16  1  0  0  0  0
 18 19  1  0  0  0  0
 18 17  1  0  0  0  0
 19 21  1  0  0  0  0
 20 21  1  0  0  0  0
 22 24  1  0  0  0  0
 23 27  1  0  0  0  0
 24 23  1  0  0  0  0
 25 23  2  0  0  0  0
 27 26  2  0  0  0  0
 28 36  1  0  0  0  0
 28 27  1  0  0  0  0
 29 34  1  0  0  0  0
 30 29  1  0  0  0  0
 31 34  1  0  0  0  0
 32 31  1  0  0  0  0
 33 30  2  0  0  0  0
 33 32  1  0  0  0  0
 34 28  1  1  0  0  0
 35 36  2  0  0  0  0
 36 40  1  0  0  0  0
 37 41  2  0  0  0  0
 38 39  1  0  0  0  0
 39 44  1  0  0  0  0
 40 45  1  0  0  0  0
 41 43  1  0  0  0  0
 42 40  2  0  0  0  0
 43 44  1  0  0  0  0
 44 46  1  1  0  0  0
 45 38  1  0  0  0  0
 45 41  1  0  0  0  0
 46 48  1  0  0  0  0
 48 47  1  0  0  0  0
 49 51  1  0  0  0  0
 51 52  2  0  0  0  0
 51 55  1  0  0  0  0
 52 54  1  0  0  0  0
 53 50  1  0  0  0  0
 54 50  2  0  0  0  0
 55 53  2  0  0  0  0
M  END
>  <MODEL>
8

>  <REMARK>
 VINA RESULT:      -5.9      2.885      9.729
  Name = 
  16 active torsions:
  status: ('A' for Active; 'I' for Inactive)
    1  A    between atoms: C_3  and  C_25
    2  A    between atoms: C_3  and  C_38
    3  A    between atoms: C_4  and  N_37
    4  A    between atoms: C_4  and  C_54
    5  A    between atoms: C_6  and  N_22
    6  A    between atoms: C_8  and  C_54
    7  A    between atoms: N_10  and  C_47
    8  A    between atoms: N_10  and  C_48
    9  A    between atoms: C_19  and  C_35
   10  A    between atoms: C_26  and  N_45
   11  A    between atoms: C_27  and  O_51
   12  A    between atoms: C_29  and  C_38
   13  A    between atoms: C_29  and  N_53
   14  A    between atoms: C_33  and  C_49
   15  A    between atoms: N_45  and  C_49
   16  A    between atoms: O_51  and  C_54
                            x       y       z     vdW  Elec       q    Type
                         _______ _______ _______ _____ _____    ______ ____

>  <TORSDO>
F 16

$$$$
=
 OpenBabel11052415023D

 55 60  0  0  1  0  0  0  0  0999 V2000
  192.2180  175.6880  138.3900 C   0  0  1  0  0  3  0  0  0  0  0  0
  191.1880  176.7750  138.2740 C   0  0  0  0  0  0  0  0  0  0  0  0
  190.7740  177.5820  139.3870 N   0  0  0  0  0  2  0  0  0  0  0  0
  190.7320  177.0410  137.1300 O   0  0  0  0  0  0  0  0  0  0  0  0
  190.9440  177.5500  143.7010 C   0  0  2  0  0  0  0  0  0  0  0  0
  190.9960  177.2450  140.7850 C   0  0  2  0  0  3  0  0  0  0  0  0
  190.2310  179.7500  143.0290 F   0  0  0  0  0  0  0  0  0  0  0  0
  189.9860  175.6790  142.3610 O   0  0  0  0  0  0  0  0  0  0  0  0
  189.7080  176.6830  141.3870 C   0  0  1  0  0  3  0  0  0  0  0  0
  189.1120  177.8740  142.0660 C   0  0  1  0  0  3  0  0  0  0  0  0
  190.4030  178.4530  142.5780 C   0  0  2  0  0  0  0  0  0  0  0  0
  192.1250  177.9230  144.3500 O   0  0  0  0  0  1  0  0  0  0  0  0
  188.5250  178.7250  141.1250 O   0  0  0  0  0  1  0  0  0  0  0  0
  191.3160  178.4170  141.5050 O   0  0  0  0  0  0  0  0  0  0  0  0
  190.8310  176.0970  143.4430 C   0  0  2  0  0  3  0  0  0  0  0  0
  189.9910  176.7340  144.4880 N   0  0  0  0  0  0  0  0  0  0  0  0
  190.5590  176.3250  145.7650 C   0  0  0  0  0  2  0  0  0  0  0  0
  190.0660  177.2530  146.8560 C   0  0  0  0  0  2  0  0  0  0  0  0
  188.7360  176.7550  147.3770 C   0  0  0  0  0  2  0  0  0  0  0  0
  187.0160  177.8690  145.9910 C   0  0  0  0  0  1  0  0  0  0  0  0
  187.7250  177.8820  147.3290 C   0  0  0  0  0  2  0  0  0  0  0  0
  191.7760  174.4670  137.5950 C   0  0  0  0  0  2  0  0  0  0  0  0
  189.5590  173.8760  136.5390 C   0  0  0  0  0  0  0  0  0  0  0  0
  190.3280  174.3520  137.6420 N   0  0  0  0  0  2  0  0  0  0  0  0
  190.0900  173.7500  135.3990 O   0  0  0  0  0  0  0  0  0  0  0  0
  187.9300  172.4030  137.3820 O   0  0  0  0  0  0  0  0  0  0  0  0
  188.1590  173.4760  136.7620 C   0  0  0  0  0  0  0  0  0  0  0  0
  187.0600  174.2510  136.2460 N   0  0  0  0  0  0  0  0  0  0  0  0
  187.4150  176.2210  137.7120 C   0  0  0  0  0  2  0  0  0  0  0  0
  187.1750  177.7000  137.8240 C   0  0  0  0  0  3  0  0  0  0  0  0
  185.9290  176.3850  135.5810 C   0  0  0  0  0  2  0  0  0  0  0  0
  185.1500  177.3410  136.4910 C   0  0  0  0  0  2  0  0  0  0  0  0
  186.0950  178.2340  137.2440 C   0  0  0  0  0  3  0  0  0  0  0  0
  187.1380  175.7210  136.2820 C   0  0  2  0  0  3  0  0  0  0  0  0
  185.7120  173.0830  134.6450 C   0  0  0  0  0  2  0  0  0  0  0  0
  185.8330  173.5930  135.8660 C   0  0  0  0  0  0  0  0  0  0  0  0
  183.0510  174.9720  138.6580 O   0  0  0  0  0  0  0  0  0  0  0  0
  183.0320  174.3450  135.0630 C   0  0  0  0  0  2  0  0  0  0  0  0
  181.5260  174.2040  134.8950 C   0  0  0  0  0  2  0  0  0  0  0  0
  184.6790  173.5700  136.7930 C   0  0  0  0  0  0  0  0  0  0  0  0
  182.5830  174.7440  137.5080 C   0  0  0  0  0  0  0  0  0  0  0  0
  184.7930  172.9450  137.8830 O   0  0  0  0  0  0  0  0  0  0  0  0
  181.1200  174.9720  137.2660 C   0  0  0  0  0  2  0  0  0  0  0  0
  180.8310  175.2280  135.7880 C   0  0  2  0  0  3  0  0  0  0  0  0
  183.4280  174.2090  136.4680 N   0  0  0  0  0  0  0  0  0  0  0  0
  179.3920  175.3120  135.5170 N   0  0  0  0  0  2  0  0  0  0  0  0
  179.5280  177.6000  135.1290 F   0  0  0  0  0  0  0  0  0  0  0  0
  179.0940  176.4030  134.5940 C   0  0  0  0  0  2  0  0  0  0  0  0
  193.5030  176.1320  137.9630 O   0  0  0  0  0  0  0  0  0  0  0  0
  196.5470  173.5430  136.6740 C   0  0  0  0  0  3  0  0  0  0  0  0
  194.5040  175.2660  137.5090 C   0  0  0  0  0  0  0  0  0  0  0  0
  195.1030  174.3900  138.4190 C   0  0  0  0  0  3  0  0  0  0  0  0
  195.9450  174.4060  135.7550 C   0  0  0  0  0  3  0  0  0  0  0  0
  196.1230  173.5330  138.0040 C   0  0  0  0  0  3  0  0  0  0  0  0
  194.9250  175.2640  136.1700 C   0  0  0  0  0  3  0  0  0  0  0  0
  1 22  1  6  0  0  0
  2  1  1  0  0  0  0
  2  3  1  0  0  0  0
  4  2  2  0  0  0  0
  5 12  1  1  0  0  0
  5 16  1  0  0  0  0
  6  3  1  6  0  0  0
  6  9  1  0  0  0  0
  6 14  1  0  0  0  0
  9 10  1  0  0  0  0
  9  8  1  1  0  0  0
 10 13  1  6  0  0  0
 10 11  1  0  0  0  0
 11  7  1  1  0  0  0
 11  5  1  0  0  0  0
 14 11  1  0  0  0  0
 15  8  1  6  0  0  0
 15  5  1  0  0  0  0
 15 16  1  0  0  0  0
 16 17  1  0  0  0  0
 17 18  1  0  0  0  0
 18 19  1  0  0  0  0
 20 21  1  0  0  0  0
 21 19  1  0  0  0  0
 22 24  1  0  0  0  0
 23 27  1  0  0  0  0
 23 24  1  0  0  0  0
 25 23  2  0  0  0  0
 27 26  2  0  0  0  0
 28 27  1  0  0  0  0
 29 30  1  0  0  0  0
 31 34  1  0  0  0  0
 31 32  1  0  0  0  0
 32 33  1  0  0  0  0
 33 30  2  0  0  0  0
 34 28  1  1  0  0  0
 34 29  1  0  0  0  0
 35 36  2  0  0  0  0
 36 28  1  0  0  0  0
 36 40  1  0  0  0  0
 38 45  1  0  0  0  0
 39 38  1  0  0  0  0
 39 44  1  0  0  0  0
 40 42  2  0  0  0  0
 41 37  2  0  0  0  0
 43 41  1  0  0  0  0
 44 46  1  1  0  0  0
 44 43  1  0  0  0  0
 45 40  1  0  0  0  0
 45 41  1  0  0  0  0
 48 47  1  0  0  0  0
 48 46  1  0  0  0  0
 49  1  1  0  0  0  0
 50 54  1  0  0  0  0
 51 49  1  0  0  0  0
 51 52  1  0  0  0  0
 53 55  1  0  0  0  0
 53 50  2  0  0  0  0
 54 52  2  0  0  0  0
 55 51  2  0  0  0  0
M  END
>  <MODEL>
9

>  <REMARK>
 VINA RESULT:      -5.9      2.821      4.368
  Name = 
  16 active torsions:
  status: ('A' for Active; 'I' for Inactive)
    1  A    between atoms: C_3  and  C_25
    2  A    between atoms: C_3  and  C_38
    3  A    between atoms: C_4  and  N_37
    4  A    between atoms: C_4  and  C_54
    5  A    between atoms: C_6  and  N_22
    6  A    between atoms: C_8  and  C_54
    7  A    between atoms: N_10  and  C_47
    8  A    between atoms: N_10  and  C_48
    9  A    between atoms: C_19  and  C_35
   10  A    between atoms: C_26  and  N_45
   11  A    between atoms: C_27  and  O_51
   12  A    between atoms: C_29  and  C_38
   13  A    between atoms: C_29  and  N_53
   14  A    between atoms: C_33  and  C_49
   15  A    between atoms: N_45  and  C_49
   16  A    between atoms: O_51  and  C_54
                            x       y       z     vdW  Elec       q    Type
                         _______ _______ _______ _____ _____    ______ ____

>  <TORSDO>
F 16

$$$$
