=
 OpenBabel11052414063D

 34 39  0  0  1  0  0  0  0  0999 V2000
  187.3910  177.5620  145.9080 C   0  0  0  0  0  0  0  0  0  0  0  0
  189.5980  177.4140  144.9090 C   0  0  0  0  0  3  0  0  0  0  0  0
  187.6830  178.1350  143.5430 C   0  0  0  0  0  0  0  0  0  0  0  0
  187.9860  179.0960  141.2080 N   0  0  1  0  0  0  0  0  0  0  0  0
  189.2790  176.8330  147.2370 C   0  0  0  0  0  3  0  0  0  0  0  0
  190.1180  176.9810  146.1310 C   0  0  0  0  0  3  0  0  0  0  0  0
  189.0670  177.0740  141.6900 C   0  0  0  0  0  0  0  0  0  0  0  0
  188.2290  177.6990  144.7740 C   0  0  0  0  0  0  0  0  0  0  0  0
  188.6580  178.5900  139.9970 C   0  0  0  0  0  2  0  0  0  0  0  0
  187.9180  177.1260  147.1260 C   0  0  0  0  0  3  0  0  0  0  0  0
  186.3110  178.4660  143.4750 C   0  0  0  0  0  0  0  0  0  0  0  0
  186.0390  177.8880  145.8220 C   0  0  0  0  0  3  0  0  0  0  0  0
  189.4360  176.0270  142.2840 O   0  0  0  0  0  0  0  0  0  0  0  0
  186.5790  178.7410  141.0080 C   0  0  0  0  0  2  0  0  0  0  0  0
  185.7390  179.0890  142.2260 C   0  0  1  0  0  3  0  0  0  0  0  0
  189.1500  177.2580  140.3000 N   0  0  0  0  0  0  0  0  0  0  0  0
  188.5750  178.3140  142.3220 C   0  0  2  0  0  3  0  0  0  0  0  0
  185.5100  178.3510  144.6200 C   0  0  0  0  0  3  0  0  0  0  0  0
  181.9640  178.7240  142.6180 C   0  0  0  0  0  0  0  0  0  0  0  0
  181.6490  177.9840  141.4740 C   0  0  0  0  0  3  0  0  0  0  0  0
  184.3070  178.7080  141.9790 C   0  0  0  0  0  0  0  0  0  0  0  0
  182.6580  177.6060  140.5850 C   0  0  0  0  0  3  0  0  0  0  0  0
  183.2900  179.0870  142.8710 C   0  0  0  0  0  3  0  0  0  0  0  0
  183.9850  177.9680  140.8370 C   0  0  0  0  0  3  0  0  0  0  0  0
  180.9860  179.0910  143.4780 F   0  0  0  0  0  0  0  0  0  0  0  0
  189.7780  176.3610  139.3400 C   0  0  0  0  0  2  0  0  0  0  0  0
  190.4570  177.1270  138.3040 N   0  0  0  0  0  2  0  0  0  0  0  0
  189.4270  179.1000  136.8680 F   0  0  0  0  0  0  0  0  0  0  0  0
  189.9030  176.7220  137.0200 C   0  0  2  0  0  3  0  0  0  0  0  0
  189.0500  177.8500  136.4060 C   0  0  1  0  0  3  0  0  0  0  0  0
  187.2970  176.5840  135.7920 C   0  0  0  0  0  2  0  0  0  0  0  0
  188.0330  175.2680  136.1040 C   0  0  0  0  0  2  0  0  0  0  0  0
  189.0740  175.4460  137.2120 C   0  0  0  0  0  2  0  0  0  0  0  0
  187.6840  177.6310  136.6520 O   0  0  0  0  0  0  0  0  0  0  0  0
  1 10  2  0  0  0  0
  2  6  1  0  0  0  0
  3  8  1  0  0  0  0
  4  9  1  6  0  0  0
  4 17  1  0  0  0  0
  6  5  2  0  0  0  0
  7 13  2  0  0  0  0
  8  2  2  0  0  0  0
  8  1  1  0  0  0  0
  9 16  1  0  0  0  0
 10  5  1  0  0  0  0
 11  3  2  0  0  0  0
 11 18  1  0  0  0  0
 12  1  1  0  0  0  0
 14  4  1  0  0  0  0
 14 15  1  0  0  0  0
 15 21  1  6  0  0  0
 15 11  1  0  0  0  0
 16  7  1  0  0  0  0
 17  7  1  6  0  0  0
 17  3  1  0  0  0  0
 18 12  2  0  0  0  0
 19 23  1  0  0  0  0
 19 25  1  0  0  0  0
 20 19  2  0  0  0  0
 21 23  2  0  0  0  0
 22 24  2  0  0  0  0
 22 20  1  0  0  0  0
 24 21  1  0  0  0  0
 26 16  1  0  0  0  0
 27 26  1  0  0  0  0
 29 33  1  0  0  0  0
 29 27  1  1  0  0  0
 30 34  1  0  0  0  0
 30 28  1  1  0  0  0
 30 29  1  0  0  0  0
 31 32  1  0  0  0  0
 31 34  1  0  0  0  0
 32 33  1  0  0  0  0
M  END
>  <MODEL>
1

>  <REMARK>
 VINA RESULT:      -9.9      0.000      0.000
  Name = 
  4 active torsions:
  status: ('A' for Active; 'I' for Inactive)
    1  A    between atoms: N_3  and  C_13
    2  A    between atoms: N_3  and  C_17
    3  A    between atoms: C_12  and  C_28
    4  A    between atoms: C_17  and  N_29
                            x       y       z     vdW  Elec       q    Type
                         _______ _______ _______ _____ _____    ______ ____

>  <TORSDO>
F 4

$$$$
=
 OpenBabel11052414063D

 34 39  0  0  1  0  0  0  0  0999 V2000
  187.5020  177.5560  145.9470 C   0  0  0  0  0  0  0  0  0  0  0  0
  189.7110  177.3700  144.9580 C   0  0  0  0  0  3  0  0  0  0  0  0
  187.8090  178.0970  143.5770 C   0  0  0  0  0  0  0  0  0  0  0  0
  188.1310  179.0260  141.2310 N   0  0  1  0  0  0  0  0  0  0  0  0
  189.3770  176.8210  147.2920 C   0  0  0  0  0  3  0  0  0  0  0  0
  190.2220  176.9450  146.1870 C   0  0  0  0  0  3  0  0  0  0  0  0
  189.1870  176.9970  141.7410 C   0  0  0  0  0  0  0  0  0  0  0  0
  188.3460  177.6690  144.8150 C   0  0  0  0  0  0  0  0  0  0  0  0
  188.8010  178.4980  140.0290 C   0  0  0  0  0  2  0  0  0  0  0  0
  188.0200  177.1290  147.1730 C   0  0  0  0  0  3  0  0  0  0  0  0
  186.4410  178.4430  143.5000 C   0  0  0  0  0  0  0  0  0  0  0  0
  186.1550  177.8960  145.8530 C   0  0  0  0  0  3  0  0  0  0  0  0
  189.5410  175.9530  142.3500 O   0  0  0  0  0  0  0  0  0  0  0  0
  186.7200  178.6850  141.0300 C   0  0  0  0  0  2  0  0  0  0  0  0
  185.8810  179.0570  142.2420 C   0  0  1  0  0  3  0  0  0  0  0  0
  189.2760  177.1630  140.3490 N   0  0  0  0  0  0  0  0  0  0  0  0
  188.7070  178.2500  142.3570 C   0  0  2  0  0  3  0  0  0  0  0  0
  185.6350  178.3510  144.6440 C   0  0  0  0  0  3  0  0  0  0  0  0
  182.1100  178.6790  142.6620 C   0  0  0  0  0  0  0  0  0  0  0  0
  181.7790  177.9950  141.4880 C   0  0  0  0  0  3  0  0  0  0  0  0
  184.4450  178.6910  141.9950 C   0  0  0  0  0  0  0  0  0  0  0  0
  182.7780  177.6590  140.5700 C   0  0  0  0  0  3  0  0  0  0  0  0
  183.4400  179.0270  142.9160 C   0  0  0  0  0  3  0  0  0  0  0  0
  184.1080  178.0060  140.8230 C   0  0  0  0  0  3  0  0  0  0  0  0
  181.1430  179.0050  143.5510 F   0  0  0  0  0  0  0  0  0  0  0  0
  189.8970  176.2480  139.4030 C   0  0  0  0  0  2  0  0  0  0  0  0
  190.7570  176.9800  138.4840 N   0  0  0  0  0  2  0  0  0  0  0  0
  193.2060  176.9240  139.4940 F   0  0  0  0  0  0  0  0  0  0  0  0
  191.6540  176.0190  137.8580 C   0  0  2  0  0  3  0  0  0  0  0  0
  193.1170  176.2740  138.2740 C   0  0  1  0  0  3  0  0  0  0  0  0
  194.0340  176.1000  136.2300 C   0  0  0  0  0  2  0  0  0  0  0  0
  192.7290  175.5800  135.5980 C   0  0  0  0  0  2  0  0  0  0  0  0
  191.4920  176.1010  136.3350 C   0  0  0  0  0  2  0  0  0  0  0  0
  193.7960  177.0040  137.2840 O   0  0  0  0  0  0  0  0  0  0  0  0
  1 10  2  0  0  0  0
  2  6  1  0  0  0  0
  3  8  1  0  0  0  0
  4  9  1  6  0  0  0
  4 17  1  0  0  0  0
  6  5  2  0  0  0  0
  7 13  2  0  0  0  0
  8  2  2  0  0  0  0
  8  1  1  0  0  0  0
  9 16  1  0  0  0  0
 10  5  1  0  0  0  0
 11  3  2  0  0  0  0
 11 18  1  0  0  0  0
 12  1  1  0  0  0  0
 14  4  1  0  0  0  0
 14 15  1  0  0  0  0
 15 21  1  6  0  0  0
 15 11  1  0  0  0  0
 16  7  1  0  0  0  0
 17  7  1  6  0  0  0
 17  3  1  0  0  0  0
 18 12  2  0  0  0  0
 19 23  1  0  0  0  0
 19 25  1  0  0  0  0
 20 19  2  0  0  0  0
 21 23  2  0  0  0  0
 22 24  2  0  0  0  0
 22 20  1  0  0  0  0
 24 21  1  0  0  0  0
 26 16  1  0  0  0  0
 27 26  1  0  0  0  0
 29 30  1  0  0  0  0
 29 27  1  1  0  0  0
 30 28  1  1  0  0  0
 31 34  1  0  0  0  0
 32 31  1  0  0  0  0
 32 33  1  0  0  0  0
 33 29  1  0  0  0  0
 34 30  1  0  0  0  0
M  END
>  <MODEL>
2

>  <REMARK>
 VINA RESULT:      -9.8      1.832      2.215
  Name = 
  4 active torsions:
  status: ('A' for Active; 'I' for Inactive)
    1  A    between atoms: N_3  and  C_13
    2  A    between atoms: N_3  and  C_17
    3  A    between atoms: C_12  and  C_28
    4  A    between atoms: C_17  and  N_29
                            x       y       z     vdW  Elec       q    Type
                         _______ _______ _______ _____ _____    ______ ____

>  <TORSDO>
F 4

$$$$
=
 OpenBabel11052414063D

 34 39  0  0  1  0  0  0  0  0999 V2000
  187.0750  177.7020  145.6940 C   0  0  0  0  0  0  0  0  0  0  0  0
  189.3320  177.5780  144.8110 C   0  0  0  0  0  3  0  0  0  0  0  0
  187.4690  178.1900  143.3250 C   0  0  0  0  0  0  0  0  0  0  0  0
  187.8620  179.0680  140.9710 N   0  0  1  0  0  0  0  0  0  0  0  0
  188.9130  177.0790  147.1420 C   0  0  0  0  0  3  0  0  0  0  0  0
  189.8020  177.2080  146.0730 C   0  0  0  0  0  3  0  0  0  0  0  0
  188.9720  177.0980  141.5860 C   0  0  0  0  0  0  0  0  0  0  0  0
  187.9640  177.8180  144.5980 C   0  0  0  0  0  0  0  0  0  0  0  0
  188.6080  178.5340  139.8160 C   0  0  0  0  0  2  0  0  0  0  0  0
  187.5520  177.3290  146.9530 C   0  0  0  0  0  3  0  0  0  0  0  0
  186.0940  178.4790  143.1770 C   0  0  0  0  0  0  0  0  0  0  0  0
  185.7210  177.9850  145.5290 C   0  0  0  0  0  3  0  0  0  0  0  0
  189.3380  176.0860  142.2400 O   0  0  0  0  0  0  0  0  0  0  0  0
  186.4770  178.6650  140.7160 C   0  0  0  0  0  2  0  0  0  0  0  0
  185.5690  179.0360  141.8780 C   0  0  1  0  0  3  0  0  0  0  0  0
  189.1190  177.2300  140.1950 N   0  0  0  0  0  0  0  0  0  0  0  0
  188.4160  178.3470  142.1430 C   0  0  2  0  0  3  0  0  0  0  0  0
  185.2400  178.3850  144.2860 C   0  0  0  0  0  3  0  0  0  0  0  0
  182.5630  177.3380  140.2580 C   0  0  0  0  0  0  0  0  0  0  0  0
  181.5230  177.8210  141.0580 C   0  0  0  0  0  3  0  0  0  0  0  0
  184.1620  178.6050  141.5770 C   0  0  0  0  0  0  0  0  0  0  0  0
  181.7990  178.6940  142.1130 C   0  0  0  0  0  3  0  0  0  0  0  0
  183.8810  177.7280  140.5160 C   0  0  0  0  0  3  0  0  0  0  0  0
  183.1160  179.0860  142.3720 C   0  0  0  0  0  3  0  0  0  0  0  0
  182.2950  176.4920  139.2370 F   0  0  0  0  0  0  0  0  0  0  0  0
  189.8180  176.3140  139.3040 C   0  0  0  0  0  2  0  0  0  0  0  0
  190.8990  177.0070  138.6180 N   0  0  0  0  0  2  0  0  0  0  0  0
  193.4120  176.9890  139.4560 F   0  0  0  0  0  0  0  0  0  0  0  0
  191.7440  175.9990  137.9920 C   0  0  2  0  0  3  0  0  0  0  0  0
  193.2330  176.2650  138.2890 C   0  0  1  0  0  3  0  0  0  0  0  0
  194.0040  175.9520  136.2010 C   0  0  0  0  0  2  0  0  0  0  0  0
  192.6540  175.4080  135.6960 C   0  0  0  0  0  2  0  0  0  0  0  0
  191.4760  175.9880  136.4820 C   0  0  0  0  0  2  0  0  0  0  0  0
  193.8460  176.9230  137.2100 O   0  0  0  0  0  0  0  0  0  0  0  0
  1 10  2  0  0  0  0
  2  6  1  0  0  0  0
  3  8  1  0  0  0  0
  4  9  1  6  0  0  0
  4 17  1  0  0  0  0
  6  5  2  0  0  0  0
  7 13  2  0  0  0  0
  8  2  2  0  0  0  0
  8  1  1  0  0  0  0
  9 16  1  0  0  0  0
 10  5  1  0  0  0  0
 11  3  2  0  0  0  0
 11 18  1  0  0  0  0
 12  1  1  0  0  0  0
 14  4  1  0  0  0  0
 14 15  1  0  0  0  0
 15 21  1  6  0  0  0
 15 11  1  0  0  0  0
 16  7  1  0  0  0  0
 17  7  1  6  0  0  0
 17  3  1  0  0  0  0
 18 12  2  0  0  0  0
 19 23  2  0  0  0  0
 19 20  1  0  0  0  0
 20 22  2  0  0  0  0
 21 24  2  0  0  0  0
 22 24  1  0  0  0  0
 23 21  1  0  0  0  0
 25 19  1  0  0  0  0
 26 16  1  0  0  0  0
 27 26  1  0  0  0  0
 29 30  1  0  0  0  0
 29 27  1  1  0  0  0
 30 28  1  1  0  0  0
 31 34  1  0  0  0  0
 32 31  1  0  0  0  0
 32 33  1  0  0  0  0
 33 29  1  0  0  0  0
 34 30  1  0  0  0  0
M  END
>  <MODEL>
3

>  <REMARK>
 VINA RESULT:      -9.7      2.073      2.552
  Name = 
  4 active torsions:
  status: ('A' for Active; 'I' for Inactive)
    1  A    between atoms: N_3  and  C_13
    2  A    between atoms: N_3  and  C_17
    3  A    between atoms: C_12  and  C_28
    4  A    between atoms: C_17  and  N_29
                            x       y       z     vdW  Elec       q    Type
                         _______ _______ _______ _____ _____    ______ ____

>  <TORSDO>
F 4

$$$$
=
 OpenBabel11052414063D

 34 39  0  0  1  0  0  0  0  0999 V2000
  187.2620  177.6640  145.9670 C   0  0  0  0  0  0  0  0  0  0  0  0
  189.4790  177.4850  144.9950 C   0  0  0  0  0  3  0  0  0  0  0  0
  187.5800  178.1800  143.5920 C   0  0  0  0  0  0  0  0  0  0  0  0
  187.9090  179.0840  141.2390 N   0  0  1  0  0  0  0  0  0  0  0  0
  189.1350  176.9600  147.3320 C   0  0  0  0  0  3  0  0  0  0  0  0
  189.9850  177.0790  146.2310 C   0  0  0  0  0  3  0  0  0  0  0  0
  188.9790  177.0710  141.7790 C   0  0  0  0  0  0  0  0  0  0  0  0
  188.1120  177.7710  144.8390 C   0  0  0  0  0  0  0  0  0  0  0  0
  188.5920  178.5480  140.0470 C   0  0  0  0  0  2  0  0  0  0  0  0
  187.7760  177.2550  147.2010 C   0  0  0  0  0  3  0  0  0  0  0  0
  186.2100  178.5140  143.5030 C   0  0  0  0  0  0  0  0  0  0  0  0
  185.9130  177.9920  145.8600 C   0  0  0  0  0  3  0  0  0  0  0  0
  189.3380  176.0370  142.4020 O   0  0  0  0  0  0  0  0  0  0  0  0
  186.5030  178.7290  141.0330 C   0  0  0  0  0  2  0  0  0  0  0  0
  185.6520  179.1080  142.2340 C   0  0  1  0  0  3  0  0  0  0  0  0
  189.0760  177.2210  140.3860 N   0  0  0  0  0  0  0  0  0  0  0  0
  188.4850  178.3270  142.3770 C   0  0  2  0  0  3  0  0  0  0  0  0
  185.3970  178.4280  144.6430 C   0  0  0  0  0  3  0  0  0  0  0  0
  181.8840  178.6950  142.6380 C   0  0  0  0  0  0  0  0  0  0  0  0
  181.5650  178.0020  141.4660 C   0  0  0  0  0  3  0  0  0  0  0  0
  184.2220  178.7270  141.9820 C   0  0  0  0  0  0  0  0  0  0  0  0
  182.5710  177.6720  140.5540 C   0  0  0  0  0  3  0  0  0  0  0  0
  183.2090  179.0580  142.8970 C   0  0  0  0  0  3  0  0  0  0  0  0
  183.8960  178.0330  140.8120 C   0  0  0  0  0  3  0  0  0  0  0  0
  180.9090  179.0160  143.5210 F   0  0  0  0  0  0  0  0  0  0  0  0
  189.7100  176.3000  139.4540 C   0  0  0  0  0  2  0  0  0  0  0  0
  189.2890  176.5920  138.0910 N   0  0  0  0  0  2  0  0  0  0  0  0
  188.9540  174.3020  136.8010 F   0  0  0  0  0  0  0  0  0  0  0  0
  190.3820  176.2270  137.2020 C   0  0  2  0  0  3  0  0  0  0  0  0
  190.2610  174.7570  136.7500 C   0  0  1  0  0  3  0  0  0  0  0  0
  192.4070  174.1770  137.0750 C   0  0  0  0  0  2  0  0  0  0  0  0
  192.8480  175.6300  137.3300 C   0  0  0  0  0  2  0  0  0  0  0  0
  191.7150  176.4750  137.9200 C   0  0  0  0  0  2  0  0  0  0  0  0
  191.0940  173.9290  137.5210 O   0  0  0  0  0  0  0  0  0  0  0  0
  1 10  2  0  0  0  0
  2  6  1  0  0  0  0
  3  8  1  0  0  0  0
  4  9  1  6  0  0  0
  4 17  1  0  0  0  0
  6  5  2  0  0  0  0
  7 13  2  0  0  0  0
  8  2  2  0  0  0  0
  8  1  1  0  0  0  0
  9 16  1  0  0  0  0
 10  5  1  0  0  0  0
 11  3  2  0  0  0  0
 11 18  1  0  0  0  0
 12  1  1  0  0  0  0
 14  4  1  0  0  0  0
 14 15  1  0  0  0  0
 15 21  1  6  0  0  0
 15 11  1  0  0  0  0
 16  7  1  0  0  0  0
 17  7  1  6  0  0  0
 17  3  1  0  0  0  0
 18 12  2  0  0  0  0
 19 23  1  0  0  0  0
 19 25  1  0  0  0  0
 20 19  2  0  0  0  0
 21 23  2  0  0  0  0
 22 24  2  0  0  0  0
 22 20  1  0  0  0  0
 24 21  1  0  0  0  0
 26 16  1  0  0  0  0
 27 26  1  0  0  0  0
 29 33  1  0  0  0  0
 29 27  1  1  0  0  0
 30 28  1  1  0  0  0
 30 29  1  0  0  0  0
 30 34  1  0  0  0  0
 31 32  1  0  0  0  0
 31 34  1  0  0  0  0
 32 33  1  0  0  0  0
M  END
>  <MODEL>
4

>  <REMARK>
 VINA RESULT:      -9.7      1.543      1.956
  Name = 
  4 active torsions:
  status: ('A' for Active; 'I' for Inactive)
    1  A    between atoms: N_3  and  C_13
    2  A    between atoms: N_3  and  C_17
    3  A    between atoms: C_12  and  C_28
    4  A    between atoms: C_17  and  N_29
                            x       y       z     vdW  Elec       q    Type
                         _______ _______ _______ _____ _____    ______ ____

>  <TORSDO>
F 4

$$$$
=
 OpenBabel11052414063D

 34 39  0  0  1  0  0  0  0  0999 V2000
  184.2020  178.6340  144.8640 C   0  0  0  0  0  0  0  0  0  0  0  0
  184.2920  178.4200  142.4480 C   0  0  0  0  0  3  0  0  0  0  0  0
  186.2080  177.6970  143.8120 C   0  0  0  0  0  0  0  0  0  0  0  0
  188.1430  176.3820  142.8180 N   0  0  1  0  0  0  0  0  0  0  0  0
  182.3310  179.3620  143.5090 C   0  0  0  0  0  3  0  0  0  0  0  0
  183.0130  178.9730  142.3540 C   0  0  0  0  0  3  0  0  0  0  0  0
  187.4860  178.3370  141.7070 C   0  0  0  0  0  0  0  0  0  0  0  0
  184.9100  178.2530  143.6980 C   0  0  0  0  0  0  0  0  0  0  0  0
  189.0490  176.6380  141.6830 C   0  0  0  0  0  2  0  0  0  0  0  0
  182.9230  179.1890  144.7630 C   0  0  0  0  0  3  0  0  0  0  0  0
  186.7610  177.4950  145.0970 C   0  0  0  0  0  0  0  0  0  0  0  0
  184.7640  178.4330  146.1220 C   0  0  0  0  0  3  0  0  0  0  0  0
  186.9020  179.4190  141.4340 O   0  0  0  0  0  0  0  0  0  0  0  0
  188.8990  176.8390  143.9860 C   0  0  0  0  0  2  0  0  0  0  0  0
  188.0660  176.7560  145.2550 C   0  0  1  0  0  3  0  0  0  0  0  0
  188.7140  177.9460  141.1490 N   0  0  0  0  0  0  0  0  0  0  0  0
  186.9710  177.2560  142.5710 C   0  0  2  0  0  3  0  0  0  0  0  0
  186.0250  177.8530  146.2360 C   0  0  0  0  0  3  0  0  0  0  0  0
  190.9200  177.2310  147.7380 C   0  0  0  0  0  0  0  0  0  0  0  0
  190.3550  178.1600  148.6170 C   0  0  0  0  0  3  0  0  0  0  0  0
  188.8770  177.2340  146.4260 C   0  0  0  0  0  0  0  0  0  0  0  0
  189.0550  178.6250  148.4030 C   0  0  0  0  0  3  0  0  0  0  0  0
  190.1840  176.7680  146.6440 C   0  0  0  0  0  3  0  0  0  0  0  0
  188.3170  178.1630  147.3100 C   0  0  0  0  0  3  0  0  0  0  0  0
  192.1800  176.7820  147.9450 F   0  0  0  0  0  0  0  0  0  0  0  0
  189.4450  178.6280  140.0900 C   0  0  0  0  0  2  0  0  0  0  0  0
  188.6110  178.7510  138.9020 N   0  0  0  0  0  2  0  0  0  0  0  0
  187.3970  179.0030  136.5610 F   0  0  0  0  0  0  0  0  0  0  0  0
  189.4300  178.4040  137.7500 C   0  0  2  0  0  3  0  0  0  0  0  0
  188.5670  178.2660  136.4790 C   0  0  1  0  0  3  0  0  0  0  0  0
  189.4660  176.3490  135.7260 C   0  0  0  0  0  2  0  0  0  0  0  0
  190.6030  176.3770  136.7640 C   0  0  0  0  0  2  0  0  0  0  0  0
  190.1860  177.1020  138.0460 C   0  0  0  0  0  2  0  0  0  0  0  0
  188.2750  176.9160  136.2200 O   0  0  0  0  0  0  0  0  0  0  0  0
  1 12  1  0  0  0  0
  2  8  1  0  0  0  0
  3 11  2  0  0  0  0
  4  9  1  6  0  0  0
  4 14  1  0  0  0  0
  5 10  2  0  0  0  0
  6  2  2  0  0  0  0
  6  5  1  0  0  0  0
  8  3  1  0  0  0  0
  8  1  2  0  0  0  0
 10  1  1  0  0  0  0
 11 15  1  0  0  0  0
 11 18  1  0  0  0  0
 12 18  2  0  0  0  0
 13  7  2  0  0  0  0
 14 15  1  0  0  0  0
 15 21  1  1  0  0  0
 16  9  1  0  0  0  0
 16  7  1  0  0  0  0
 17  7  1  1  0  0  0
 17  4  1  0  0  0  0
 17  3  1  0  0  0  0
 19 25  1  0  0  0  0
 19 20  1  0  0  0  0
 21 23  1  0  0  0  0
 21 24  2  0  0  0  0
 22 20  2  0  0  0  0
 23 19  2  0  0  0  0
 24 22  1  0  0  0  0
 26 16  1  0  0  0  0
 27 26  1  0  0  0  0
 29 33  1  0  0  0  0
 29 27  1  1  0  0  0
 30 28  1  1  0  0  0
 30 29  1  0  0  0  0
 31 34  1  0  0  0  0
 31 32  1  0  0  0  0
 32 33  1  0  0  0  0
 34 30  1  0  0  0  0
M  END
>  <MODEL>
5

>  <REMARK>
 VINA RESULT:      -9.5      2.517      5.491
  Name = 
  4 active torsions:
  status: ('A' for Active; 'I' for Inactive)
    1  A    between atoms: N_3  and  C_13
    2  A    between atoms: N_3  and  C_17
    3  A    between atoms: C_12  and  C_28
    4  A    between atoms: C_17  and  N_29
                            x       y       z     vdW  Elec       q    Type
                         _______ _______ _______ _____ _____    ______ ____

>  <TORSDO>
F 4

$$$$
=
 OpenBabel11052414063D

 34 39  0  0  1  0  0  0  0  0999 V2000
  183.5190  178.7130  143.0380 C   0  0  0  0  0  0  0  0  0  0  0  0
  185.6690  178.8790  144.1500 C   0  0  0  0  0  3  0  0  0  0  0  0
  185.5730  178.6410  141.7030 C   0  0  0  0  0  0  0  0  0  0  0  0
  187.6330  178.9380  140.2430 N   0  0  1  0  0  0  0  0  0  0  0  0
  183.6270  178.9250  145.4480 C   0  0  0  0  0  3  0  0  0  0  0  0
  185.0210  178.9680  145.3840 C   0  0  0  0  0  3  0  0  0  0  0  0
  187.8160  177.5040  142.0860 C   0  0  0  0  0  0  0  0  0  0  0  0
  184.9330  178.7380  142.9620 C   0  0  0  0  0  0  0  0  0  0  0  0
  188.9650  178.3060  140.2510 C   0  0  0  0  0  2  0  0  0  0  0  0
  182.8760  178.8010  144.2760 C   0  0  0  0  0  3  0  0  0  0  0  0
  184.7850  178.5610  140.5330 C   0  0  0  0  0  0  0  0  0  0  0  0
  182.7570  178.6270  141.8750 C   0  0  0  0  0  3  0  0  0  0  0  0
  187.5230  176.8080  143.0950 O   0  0  0  0  0  0  0  0  0  0  0  0
  186.8860  178.1790  139.2380 C   0  0  0  0  0  2  0  0  0  0  0  0
  185.4330  178.6240  139.1730 C   0  0  1  0  0  3  0  0  0  0  0  0
  188.9590  177.2970  141.2960 N   0  0  0  0  0  0  0  0  0  0  0  0
  187.0910  178.6940  141.6020 C   0  0  2  0  0  3  0  0  0  0  0  0
  183.3860  178.5690  140.6340 C   0  0  0  0  0  3  0  0  0  0  0  0
  184.6210  176.0030  136.5260 C   0  0  0  0  0  0  0  0  0  0  0  0
  183.3030  176.3470  136.2070 C   0  0  0  0  0  3  0  0  0  0  0  0
  184.7040  177.8220  138.1330 C   0  0  0  0  0  0  0  0  0  0  0  0
  182.6870  177.4250  136.8480 C   0  0  0  0  0  3  0  0  0  0  0  0
  185.3210  176.7380  137.4870 C   0  0  0  0  0  3  0  0  0  0  0  0
  183.3860  178.1610  137.8090 C   0  0  0  0  0  3  0  0  0  0  0  0
  185.2170  174.9580  135.9050 F   0  0  0  0  0  0  0  0  0  0  0  0
  190.0440  176.3640  141.5630 C   0  0  0  0  0  2  0  0  0  0  0  0
  190.9780  176.9400  142.5210 N   0  0  0  0  0  2  0  0  0  0  0  0
  190.0530  178.5660  144.3970 F   0  0  0  0  0  0  0  0  0  0  0  0
  190.7350  176.3080  143.8100 C   0  0  2  0  0  3  0  0  0  0  0  0
  190.5150  177.3660  144.9110 C   0  0  1  0  0  3  0  0  0  0  0  0
  191.8430  176.4410  146.4700 C   0  0  0  0  0  2  0  0  0  0  0  0
  192.0330  175.1460  145.6580 C   0  0  0  0  0  2  0  0  0  0  0  0
  191.9190  175.3950  144.1520 C   0  0  0  0  0  2  0  0  0  0  0  0
  191.6940  177.5730  145.6450 O   0  0  0  0  0  0  0  0  0  0  0  0
  1 10  2  0  0  0  0
  2  6  1  0  0  0  0
  3  8  1  0  0  0  0
  4 14  1  6  0  0  0
  4  9  1  0  0  0  0
  4 17  1  0  0  0  0
  6  5  2  0  0  0  0
  7 13  2  0  0  0  0
  8  1  1  0  0  0  0
  8  2  2  0  0  0  0
  9 16  1  0  0  0  0
 10  5  1  0  0  0  0
 11 18  1  0  0  0  0
 11  3  2  0  0  0  0
 12  1  1  0  0  0  0
 15 21  1  6  0  0  0
 15 14  1  0  0  0  0
 15 11  1  0  0  0  0
 16 26  1  0  0  0  0
 16  7  1  0  0  0  0
 17  3  1  6  0  0  0
 17  7  1  0  0  0  0
 18 12  2  0  0  0  0
 19 23  1  0  0  0  0
 20 19  2  0  0  0  0
 20 22  1  0  0  0  0
 22 24  2  0  0  0  0
 23 21  2  0  0  0  0
 24 21  1  0  0  0  0
 25 19  1  0  0  0  0
 26 27  1  0  0  0  0
 29 27  1  6  0  0  0
 29 33  1  0  0  0  0
 29 30  1  0  0  0  0
 30 28  1  6  0  0  0
 30 34  1  0  0  0  0
 32 31  1  0  0  0  0
 33 32  1  0  0  0  0
 34 31  1  0  0  0  0
M  END
>  <MODEL>
6

>  <REMARK>
 VINA RESULT:      -9.4      2.958      5.709
  Name = 
  4 active torsions:
  status: ('A' for Active; 'I' for Inactive)
    1  A    between atoms: N_3  and  C_13
    2  A    between atoms: N_3  and  C_17
    3  A    between atoms: C_12  and  C_28
    4  A    between atoms: C_17  and  N_29
                            x       y       z     vdW  Elec       q    Type
                         _______ _______ _______ _____ _____    ______ ____

>  <TORSDO>
F 4

$$$$
=
 OpenBabel11052414063D

 34 39  0  0  1  0  0  0  0  0999 V2000
  184.8400  178.6410  145.0060 C   0  0  0  0  0  0  0  0  0  0  0  0
  184.9310  178.2450  142.6130 C   0  0  0  0  0  3  0  0  0  0  0  0
  186.7910  177.5110  144.0460 C   0  0  0  0  0  0  0  0  0  0  0  0
  188.6500  176.0130  143.1710 N   0  0  1  0  0  0  0  0  0  0  0  0
  183.0250  179.3780  143.5820 C   0  0  0  0  0  3  0  0  0  0  0  0
  183.6880  178.8660  142.4660 C   0  0  0  0  0  3  0  0  0  0  0  0
  188.1190  177.9180  141.9140 C   0  0  0  0  0  0  0  0  0  0  0  0
  185.5310  178.1330  143.8790 C   0  0  0  0  0  0  0  0  0  0  0  0
  189.5770  176.1310  142.0310 C   0  0  0  0  0  2  0  0  0  0  0  0
  183.5970  179.2630  144.8510 C   0  0  0  0  0  3  0  0  0  0  0  0
  187.3230  177.3710  145.3480 C   0  0  0  0  0  0  0  0  0  0  0  0
  185.3810  178.4990  146.2810 C   0  0  0  0  0  3  0  0  0  0  0  0
  187.6030  179.0100  141.5570 O   0  0  0  0  0  0  0  0  0  0  0  0
  189.4250  176.5090  144.3110 C   0  0  0  0  0  2  0  0  0  0  0  0
  188.5810  176.5690  145.5740 C   0  0  1  0  0  3  0  0  0  0  0  0
  189.3250  177.4140  141.3990 N   0  0  0  0  0  0  0  0  0  0  0  0
  187.5340  176.9360  142.8490 C   0  0  2  0  0  3  0  0  0  0  0  0
  186.6040  177.8550  146.4500 C   0  0  0  0  0  3  0  0  0  0  0  0
  191.4470  177.0590  148.0400 C   0  0  0  0  0  0  0  0  0  0  0  0
  190.9300  178.0760  148.8490 C   0  0  0  0  0  3  0  0  0  0  0  0
  189.4110  177.0820  146.7150 C   0  0  0  0  0  0  0  0  0  0  0  0
  189.6580  178.5950  148.5930 C   0  0  0  0  0  3  0  0  0  0  0  0
  190.6910  176.5620  146.9740 C   0  0  0  0  0  3  0  0  0  0  0  0
  188.9000  178.0990  147.5290 C   0  0  0  0  0  3  0  0  0  0  0  0
  192.6790  176.5580  148.2870 F   0  0  0  0  0  0  0  0  0  0  0  0
  190.1020  177.9710  140.3010 C   0  0  0  0  0  2  0  0  0  0  0  0
  191.4870  177.5300  140.3880 N   0  0  0  0  0  2  0  0  0  0  0  0
  194.0050  176.7770  140.0590 F   0  0  0  0  0  0  0  0  0  0  0  0
  191.6900  176.5090  139.3700 C   0  0  2  0  0  3  0  0  0  0  0  0
  193.1850  176.3680  139.0200 C   0  0  1  0  0  3  0  0  0  0  0  0
  192.9560  176.3260  136.7850 C   0  0  0  0  0  2  0  0  0  0  0  0
  191.4220  176.2140  136.8610 C   0  0  0  0  0  2  0  0  0  0  0  0
  190.8650  176.8690  138.1280 C   0  0  0  0  0  2  0  0  0  0  0  0
  193.4920  177.0790  137.8490 O   0  0  0  0  0  0  0  0  0  0  0  0
  1 12  1  0  0  0  0
  2  8  1  0  0  0  0
  3 11  2  0  0  0  0
  4  9  1  6  0  0  0
  4 14  1  0  0  0  0
  5 10  2  0  0  0  0
  6  2  2  0  0  0  0
  6  5  1  0  0  0  0
  8  3  1  0  0  0  0
  8  1  2  0  0  0  0
 10  1  1  0  0  0  0
 11 15  1  0  0  0  0
 11 18  1  0  0  0  0
 12 18  2  0  0  0  0
 13  7  2  0  0  0  0
 14 15  1  0  0  0  0
 15 21  1  1  0  0  0
 16  7  1  0  0  0  0
 16  9  1  0  0  0  0
 17  7  1  1  0  0  0
 17  4  1  0  0  0  0
 17  3  1  0  0  0  0
 19 25  1  0  0  0  0
 19 20  1  0  0  0  0
 21 23  1  0  0  0  0
 21 24  2  0  0  0  0
 22 20  2  0  0  0  0
 23 19  2  0  0  0  0
 24 22  1  0  0  0  0
 26 27  1  0  0  0  0
 26 16  1  0  0  0  0
 29 27  1  1  0  0  0
 30 29  1  0  0  0  0
 30 28  1  1  0  0  0
 31 32  1  0  0  0  0
 31 34  1  0  0  0  0
 32 33  1  0  0  0  0
 33 29  1  0  0  0  0
 34 30  1  0  0  0  0
M  END
>  <MODEL>
7

>  <REMARK>
 VINA RESULT:      -9.0      3.168      5.955
  Name = 
  4 active torsions:
  status: ('A' for Active; 'I' for Inactive)
    1  A    between atoms: N_3  and  C_13
    2  A    between atoms: N_3  and  C_17
    3  A    between atoms: C_12  and  C_28
    4  A    between atoms: C_17  and  N_29
                            x       y       z     vdW  Elec       q    Type
                         _______ _______ _______ _____ _____    ______ ____

>  <TORSDO>
F 4

$$$$
=
 OpenBabel11052414063D

 34 39  0  0  1  0  0  0  0  0999 V2000
  187.0400  177.7260  144.9650 C   0  0  0  0  0  0  0  0  0  0  0  0
  189.3620  177.7830  144.2590 C   0  0  0  0  0  3  0  0  0  0  0  0
  187.5740  178.1960  142.6200 C   0  0  0  0  0  0  0  0  0  0  0  0
  188.0720  179.0550  140.2790 N   0  0  1  0  0  0  0  0  0  0  0  0
  188.8070  177.2990  146.5650 C   0  0  0  0  0  3  0  0  0  0  0  0
  189.7630  177.4830  145.5630 C   0  0  0  0  0  3  0  0  0  0  0  0
  189.2970  177.2050  141.0310 C   0  0  0  0  0  0  0  0  0  0  0  0
  187.9990  177.8970  143.9370 C   0  0  0  0  0  0  0  0  0  0  0  0
  188.9480  178.5660  139.1990 C   0  0  0  0  0  2  0  0  0  0  0  0
  187.4480  177.4230  146.2670 C   0  0  0  0  0  3  0  0  0  0  0  0
  186.1950  178.3590  142.3610 C   0  0  0  0  0  0  0  0  0  0  0  0
  185.6840  177.8840  144.6910 C   0  0  0  0  0  3  0  0  0  0  0  0
  189.6970  176.2430  141.7380 O   0  0  0  0  0  0  0  0  0  0  0  0
  186.7510  178.5260  139.9320 C   0  0  0  0  0  2  0  0  0  0  0  0
  185.7250  178.8390  141.0100 C   0  0  1  0  0  3  0  0  0  0  0  0
  189.5390  177.3200  139.6520 N   0  0  0  0  0  0  0  0  0  0  0  0
  188.5930  178.4110  141.5090 C   0  0  2  0  0  3  0  0  0  0  0  0
  185.2680  178.2140  143.4030 C   0  0  0  0  0  3  0  0  0  0  0  0
  183.0340  176.6550  139.4230 C   0  0  0  0  0  0  0  0  0  0  0  0
  181.8740  177.2630  139.9140 C   0  0  0  0  0  3  0  0  0  0  0  0
  184.3890  178.2800  140.6160 C   0  0  0  0  0  0  0  0  0  0  0  0
  181.9700  178.3770  140.7530 C   0  0  0  0  0  3  0  0  0  0  0  0
  184.2890  177.1600  139.7730 C   0  0  0  0  0  3  0  0  0  0  0  0
  183.2250  178.8840  141.1030 C   0  0  0  0  0  3  0  0  0  0  0  0
  182.9410  175.5760  138.6110 F   0  0  0  0  0  0  0  0  0  0  0  0
  190.3820  176.4510  138.8430 C   0  0  0  0  0  2  0  0  0  0  0  0
  189.6280  175.2860  138.4010 N   0  0  0  0  0  2  0  0  0  0  0  0
  187.4380  176.3770  137.3850 F   0  0  0  0  0  0  0  0  0  0  0  0
  189.5800  175.3160  136.9460 C   0  0  2  0  0  3  0  0  0  0  0  0
  188.1620  175.6590  136.4470 C   0  0  1  0  0  3  0  0  0  0  0  0
  188.0230  174.0760  134.8590 C   0  0  0  0  0  2  0  0  0  0  0  0
  189.5100  173.6960  134.9910 C   0  0  0  0  0  2  0  0  0  0  0  0
  190.0420  173.9580  136.4020 C   0  0  0  0  0  2  0  0  0  0  0  0
  187.4660  174.4940  136.0840 O   0  0  0  0  0  0  0  0  0  0  0  0
  1 10  2  0  0  0  0
  2  6  1  0  0  0  0
  3  8  1  0  0  0  0
  4  9  1  6  0  0  0
  4 17  1  0  0  0  0
  6  5  2  0  0  0  0
  7 13  2  0  0  0  0
  8  2  2  0  0  0  0
  8  1  1  0  0  0  0
  9 16  1  0  0  0  0
 10  5  1  0  0  0  0
 11  3  2  0  0  0  0
 11 18  1  0  0  0  0
 12  1  1  0  0  0  0
 14  4  1  0  0  0  0
 14 15  1  0  0  0  0
 15 21  1  6  0  0  0
 15 11  1  0  0  0  0
 16  7  1  0  0  0  0
 17  7  1  6  0  0  0
 17  3  1  0  0  0  0
 18 12  2  0  0  0  0
 19 23  2  0  0  0  0
 19 20  1  0  0  0  0
 20 22  2  0  0  0  0
 21 24  2  0  0  0  0
 22 24  1  0  0  0  0
 23 21  1  0  0  0  0
 25 19  1  0  0  0  0
 26 16  1  0  0  0  0
 27 26  1  0  0  0  0
 29 27  1  1  0  0  0
 30 29  1  0  0  0  0
 30 28  1  1  0  0  0
 31 32  1  0  0  0  0
 31 34  1  0  0  0  0
 32 33  1  0  0  0  0
 33 29  1  0  0  0  0
 34 30  1  0  0  0  0
M  END
>  <MODEL>
8

>  <REMARK>
 VINA RESULT:      -8.3      1.715      2.071
  Name = 
  4 active torsions:
  status: ('A' for Active; 'I' for Inactive)
    1  A    between atoms: N_3  and  C_13
    2  A    between atoms: N_3  and  C_17
    3  A    between atoms: C_12  and  C_28
    4  A    between atoms: C_17  and  N_29
                            x       y       z     vdW  Elec       q    Type
                         _______ _______ _______ _____ _____    ______ ____

>  <TORSDO>
F 4

$$$$
=
 OpenBabel11052414063D

 34 39  0  0  1  0  0  0  0  0999 V2000
  190.7930  176.9000  139.2020 C   0  0  0  0  0  0  0  0  0  0  0  0
  189.7550  176.7910  137.0110 C   0  0  0  0  0  3  0  0  0  0  0  0
  188.4520  177.5770  138.9440 C   0  0  0  0  0  0  0  0  0  0  0  0
  186.1580  178.6400  138.6740 N   0  0  1  0  0  0  0  0  0  0  0  0
  192.0590  176.1070  137.2960 C   0  0  0  0  0  3  0  0  0  0  0  0
  190.9480  176.3030  136.4730 C   0  0  0  0  0  3  0  0  0  0  0  0
  186.5320  176.5960  137.5910 C   0  0  0  0  0  0  0  0  0  0  0  0
  189.6540  177.0850  138.3810 C   0  0  0  0  0  0  0  0  0  0  0  0
  184.9150  178.1870  138.0220 C   0  0  0  0  0  2  0  0  0  0  0  0
  191.9830  176.4090  138.6570 C   0  0  0  0  0  3  0  0  0  0  0  0
  188.4200  177.9140  140.3160 C   0  0  0  0  0  0  0  0  0  0  0  0
  190.7430  177.2320  140.5530 C   0  0  0  0  0  3  0  0  0  0  0  0
  187.0740  175.5230  137.2170 O   0  0  0  0  0  0  0  0  0  0  0  0
  185.9630  178.2980  140.0850 C   0  0  0  0  0  2  0  0  0  0  0  0
  187.2090  178.5930  140.9050 C   0  0  1  0  0  3  0  0  0  0  0  0
  185.1510  176.8420  137.5300 N   0  0  0  0  0  0  0  0  0  0  0  0
  187.2270  177.8080  138.0700 C   0  0  2  0  0  3  0  0  0  0  0  0
  189.5710  177.7490  141.1000 C   0  0  0  0  0  3  0  0  0  0  0  0
  187.7250  177.2980  144.4540 C   0  0  0  0  0  0  0  0  0  0  0  0
  186.4760  177.5700  145.0200 C   0  0  0  0  0  3  0  0  0  0  0  0
  186.9680  178.2270  142.3420 C   0  0  0  0  0  0  0  0  0  0  0  0
  185.4750  178.1690  144.2510 C   0  0  0  0  0  3  0  0  0  0  0  0
  187.9720  177.6250  143.1180 C   0  0  0  0  0  3  0  0  0  0  0  0
  185.7200  178.4970  142.9140 C   0  0  0  0  0  3  0  0  0  0  0  0
  188.6950  176.7190  145.1990 F   0  0  0  0  0  0  0  0  0  0  0  0
  184.1420  175.9870  136.9190 C   0  0  0  0  0  2  0  0  0  0  0  0
  183.7750  174.9110  137.8290 N   0  0  0  0  0  2  0  0  0  0  0  0
  185.3040  172.8080  138.3390 F   0  0  0  0  0  0  0  0  0  0  0  0
  183.4800  173.7330  137.0260 C   0  0  2  0  0  3  0  0  0  0  0  0
  184.6020  172.6830  137.1510 C   0  0  1  0  0  3  0  0  0  0  0  0
  184.7900  172.2000  134.9640 C   0  0  0  0  0  2  0  0  0  0  0  0
  183.5300  173.0030  134.5940 C   0  0  0  0  0  2  0  0  0  0  0  0
  183.2840  174.1600  135.5660 C   0  0  0  0  0  2  0  0  0  0  0  0
  185.4810  172.7610  136.0570 O   0  0  0  0  0  0  0  0  0  0  0  0
  1 12  1  0  0  0  0
  2  8  1  0  0  0  0
  3 11  2  0  0  0  0
  4  9  1  6  0  0  0
  4 14  1  0  0  0  0
  5 10  2  0  0  0  0
  6  2  2  0  0  0  0
  6  5  1  0  0  0  0
  8  3  1  0  0  0  0
  8  1  2  0  0  0  0
 10  1  1  0  0  0  0
 11 15  1  0  0  0  0
 11 18  1  0  0  0  0
 12 18  2  0  0  0  0
 13  7  2  0  0  0  0
 14 15  1  0  0  0  0
 15 21  1  1  0  0  0
 16  7  1  0  0  0  0
 16  9  1  0  0  0  0
 17  7  1  1  0  0  0
 17  4  1  0  0  0  0
 17  3  1  0  0  0  0
 19 20  1  0  0  0  0
 19 25  1  0  0  0  0
 21 24  2  0  0  0  0
 21 23  1  0  0  0  0
 22 20  2  0  0  0  0
 23 19  2  0  0  0  0
 24 22  1  0  0  0  0
 26 16  1  0  0  0  0
 26 27  1  0  0  0  0
 29 30  1  0  0  0  0
 29 27  1  1  0  0  0
 30 28  1  1  0  0  0
 31 34  1  0  0  0  0
 32 31  1  0  0  0  0
 32 33  1  0  0  0  0
 33 29  1  0  0  0  0
 34 30  1  0  0  0  0
M  END
>  <MODEL>
9

>  <REMARK>
 VINA RESULT:      -8.2      3.465      6.112
  Name = 
  4 active torsions:
  status: ('A' for Active; 'I' for Inactive)
    1  A    between atoms: N_3  and  C_13
    2  A    between atoms: N_3  and  C_17
    3  A    between atoms: C_12  and  C_28
    4  A    between atoms: C_17  and  N_29
                            x       y       z     vdW  Elec       q    Type
                         _______ _______ _______ _____ _____    ______ ____

>  <TORSDO>
F 4

$$$$
