=
 OpenBabel11052412193D

 30 34  0  0  1  0  0  0  0  0999 V2000
  182.2710  178.1040  139.9020 C   0  0  0  0  0  0  0  0  0  0  0  0
  181.9670  177.1110  138.9100 C   0  0  0  0  0  0  0  0  0  0  0  0
  183.5370  178.7150  139.9030 C   0  0  0  0  0  3  0  0  0  0  0  0
  185.3660  177.2660  137.0880 C   0  0  0  0  0  2  0  0  0  0  0  0
  184.1780  177.4450  137.9690 C   0  0  0  0  0  0  0  0  0  0  0  0
  185.7400  178.8530  138.8050 O   0  0  0  0  0  0  0  0  0  0  0  0
  184.4610  178.3620  138.9320 C   0  0  0  0  0  0  0  0  0  0  0  0
  182.9400  176.7950  137.9210 C   0  0  0  0  0  0  0  0  0  0  0  0
  187.6160  177.4960  138.1540 C   0  0  0  0  0  1  0  0  0  0  0  0
  186.3890  178.2530  137.6870 C   0  0  1  0  0  3  0  0  0  0  0  0
  180.2900  179.6070  140.4970 C   0  0  1  0  0  3  0  0  0  0  0  0
  179.3450  179.9310  141.6510 C   0  0  0  0  0  2  0  0  0  0  0  0
  180.8950  180.7780  140.0360 O   0  0  0  0  0  1  0  0  0  0  0  0
  181.9430  178.9290  142.3340 C   0  0  0  0  0  2  0  0  0  0  0  0
  180.0550  178.2530  143.8990 C   0  0  0  0  0  1  0  0  0  0  0  0
  181.3290  178.5900  140.9760 C   0  0  2  0  0  3  0  0  0  0  0  0
  180.0550  180.4310  142.7660 O   0  0  0  0  0  0  0  0  0  0  0  0
  180.8660  179.4060  143.3140 C   0  0  2  0  0  3  0  0  0  0  0  0
  182.4010  176.2390  135.5420 C   0  0  0  0  0  1  0  0  0  0  0  0
  182.6820  175.8150  136.9050 N   0  0  0  0  0  0  0  0  0  0  0  0
  182.9830  174.4160  137.1590 C   0  0  0  0  0  2  0  0  0  0  0  0
  183.8050  174.3020  138.2650 F   0  0  0  0  0  0  0  0  0  0  0  0
  180.6660  176.4850  138.8420 N   0  0  0  0  0  0  0  0  0  0  0  0
  179.0330  174.8810  139.3190 C   0  0  0  0  0  2  0  0  0  0  0  0
  179.5030  175.4360  140.5790 C   0  0  1  0  0  3  0  0  0  0  0  0
  179.6800  174.3210  141.5870 C   0  0  0  0  0  1  0  0  0  0  0  0
  180.4560  175.2370  139.4700 N   0  0  0  0  0  0  0  0  0  0  0  0
  179.5150  177.2380  138.3340 C   0  0  1  0  0  3  0  0  0  0  0  0
  179.9440  178.1520  137.3510 O   0  0  0  0  0  0  0  0  0  0  0  0
  179.3050  176.9890  136.8870 C   0  0  0  0  0  2  0  0  0  0  0  0
  1  3  1  0  0  0  0
  2  1  2  0  0  0  0
  4 10  1  0  0  0  0
  4  5  1  0  0  0  0
  5  7  1  0  0  0  0
  6  7  1  0  0  0  0
  7  3  2  0  0  0  0
  8  5  2  0  0  0  0
  8  2  1  0  0  0  0
 10  9  1  1  0  0  0
 10  6  1  0  0  0  0
 11 13  1  1  0  0  0
 11 16  1  0  0  0  0
 11 12  1  0  0  0  0
 12 17  1  0  0  0  0
 14 18  1  0  0  0  0
 16  1  1  6  0  0  0
 16 14  1  0  0  0  0
 17 18  1  0  0  0  0
 18 15  1  6  0  0  0
 19 20  1  0  0  0  0
 20 21  1  0  0  0  0
 20  8  1  0  0  0  0
 21 22  1  0  0  0  0
 23  2  1  0  0  0  0
 23 27  1  0  0  0  0
 24 27  1  0  0  0  0
 24 25  1  0  0  0  0
 25 26  1  1  0  0  0
 27 25  1  0  0  0  0
 28 23  1  6  0  0  0
 29 28  1  0  0  0  0
 30 29  1  0  0  0  0
 30 28  1  0  0  0  0
M  END
>  <MODEL>
1

>  <REMARK>
 VINA RESULT:      -4.9      0.000      0.000
  Name = 
  6 active torsions:
  status: ('A' for Active; 'I' for Inactive)
    1  A    between atoms: C_1  and  C_22
    2  A    between atoms: C_4  and  N_23
    3  A    between atoms: C_7  and  N_30
    4  A    between atoms: C_10  and  N_23
    5  A    between atoms: C_13  and  N_30
    6  A    between atoms: N_23  and  N_25
                            x       y       z     vdW  Elec       q    Type
                         _______ _______ _______ _____ _____    ______ ____

>  <TORSDO>
F 6

$$$$
=
 OpenBabel11052412193D

 30 34  0  0  1  0  0  0  0  0999 V2000
  184.5260  177.8990  138.5200 C   0  0  0  0  0  0  0  0  0  0  0  0
  184.8350  177.0930  137.3720 C   0  0  0  0  0  0  0  0  0  0  0  0
  185.5710  178.4620  139.2720 C   0  0  0  0  0  3  0  0  0  0  0  0
  188.6700  177.4400  137.6230 C   0  0  0  0  0  2  0  0  0  0  0  0
  187.1910  177.5090  137.7770 C   0  0  0  0  0  0  0  0  0  0  0  0
  188.0130  178.7110  139.5100 O   0  0  0  0  0  0  0  0  0  0  0  0
  186.8820  178.2450  138.8780 C   0  0  0  0  0  0  0  0  0  0  0  0
  186.1950  176.9140  136.9940 C   0  0  0  0  0  0  0  0  0  0  0  0
  190.0320  177.4220  139.7200 C   0  0  0  0  0  1  0  0  0  0  0  0
  189.1790  178.2830  138.8100 C   0  0  1  0  0  3  0  0  0  0  0  0
  182.5790  179.5580  138.4930 C   0  0  1  0  0  3  0  0  0  0  0  0
  181.1420  179.7150  138.9810 C   0  0  0  0  0  2  0  0  0  0  0  0
  183.3480  180.6400  138.9230 O   0  0  0  0  0  1  0  0  0  0  0  0
  182.8500  177.9790  140.4920 C   0  0  0  0  0  2  0  0  0  0  0  0
  180.3990  177.3040  140.3980 C   0  0  0  0  0  1  0  0  0  0  0  0
  183.1370  178.2310  139.0130 C   0  0  2  0  0  3  0  0  0  0  0  0
  181.0740  179.6640  140.3920 O   0  0  0  0  0  0  0  0  0  0  0  0
  181.4080  178.3610  140.8390 C   0  0  2  0  0  3  0  0  0  0  0  0
  186.8840  176.7750  134.5940 C   0  0  0  0  0  1  0  0  0  0  0  0
  186.5550  176.1240  135.8520 N   0  0  0  0  0  0  0  0  0  0  0  0
  186.8720  174.7150  136.0210 C   0  0  0  0  0  2  0  0  0  0  0  0
  186.9450  174.4040  137.3660 F   0  0  0  0  0  0  0  0  0  0  0  0
  183.7940  176.5270  136.5440 N   0  0  0  0  0  0  0  0  0  0  0  0
  183.7540  174.6510  137.9380 C   0  0  0  0  0  2  0  0  0  0  0  0
  183.4260  174.2180  136.5890 C   0  0  1  0  0  3  0  0  0  0  0  0
  182.2850  173.2250  136.6410 C   0  0  0  0  0  1  0  0  0  0  0  0
  182.9460  175.5280  137.0710 N   0  0  0  0  0  0  0  0  0  0  0  0
  183.4660  177.1450  135.2540 C   0  0  1  0  0  3  0  0  0  0  0  0
  182.2570  176.6080  134.7670 O   0  0  0  0  0  0  0  0  0  0  0  0
  182.1890  177.8960  135.3280 C   0  0  0  0  0  2  0  0  0  0  0  0
  1  3  1  0  0  0  0
  2  1  2  0  0  0  0
  4  5  1  0  0  0  0
  4 10  1  0  0  0  0
  5  7  1  0  0  0  0
  7  3  2  0  0  0  0
  7  6  1  0  0  0  0
  8  2  1  0  0  0  0
  8  5  2  0  0  0  0
 10  6  1  0  0  0  0
 10  9  1  1  0  0  0
 11 13  1  1  0  0  0
 11 12  1  0  0  0  0
 11 16  1  0  0  0  0
 12 17  1  0  0  0  0
 14 18  1  0  0  0  0
 16  1  1  1  0  0  0
 16 14  1  0  0  0  0
 17 18  1  0  0  0  0
 18 15  1  6  0  0  0
 19 20  1  0  0  0  0
 20 21  1  0  0  0  0
 20  8  1  0  0  0  0
 21 22  1  0  0  0  0
 23 27  1  0  0  0  0
 23  2  1  0  0  0  0
 25 26  1  1  0  0  0
 25 27  1  0  0  0  0
 25 24  1  0  0  0  0
 27 24  1  0  0  0  0
 28 30  1  0  0  0  0
 28 23  1  1  0  0  0
 29 28  1  0  0  0  0
 29 30  1  0  0  0  0
M  END
>  <MODEL>
2

>  <REMARK>
 VINA RESULT:      -4.8      2.200      3.571
  Name = 
  6 active torsions:
  status: ('A' for Active; 'I' for Inactive)
    1  A    between atoms: C_1  and  C_22
    2  A    between atoms: C_4  and  N_23
    3  A    between atoms: C_7  and  N_30
    4  A    between atoms: C_10  and  N_23
    5  A    between atoms: C_13  and  N_30
    6  A    between atoms: N_23  and  N_25
                            x       y       z     vdW  Elec       q    Type
                         _______ _______ _______ _____ _____    ______ ____

>  <TORSDO>
F 6

$$$$
=
 OpenBabel11052412193D

 30 34  0  0  1  0  0  0  0  0999 V2000
  183.1320  178.2550  138.5900 C   0  0  0  0  0  0  0  0  0  0  0  0
  183.1150  177.1690  137.6500 C   0  0  0  0  0  0  0  0  0  0  0  0
  184.3620  178.8010  138.9940 C   0  0  0  0  0  3  0  0  0  0  0  0
  186.9390  176.9510  137.1750 C   0  0  0  0  0  2  0  0  0  0  0  0
  185.5360  177.2880  137.5460 C   0  0  0  0  0  0  0  0  0  0  0  0
  186.8150  178.7070  138.7600 O   0  0  0  0  0  0  0  0  0  0  0  0
  185.5370  178.2950  138.4590 C   0  0  0  0  0  0  0  0  0  0  0  0
  184.3450  176.6950  137.1130 C   0  0  0  0  0  0  0  0  0  0  0  0
  188.6760  177.1960  138.9580 C   0  0  0  0  0  1  0  0  0  0  0  0
  187.7640  177.9520  138.0110 C   0  0  1  0  0  3  0  0  0  0  0  0
  181.4730  180.1990  138.5130 C   0  0  1  0  0  3  0  0  0  0  0  0
  180.1820  180.6890  139.1620 C   0  0  0  0  0  2  0  0  0  0  0  0
  182.4550  181.1880  138.6020 O   0  0  0  0  0  1  0  0  0  0  0  0
  181.8580  178.9690  140.7280 C   0  0  0  0  0  2  0  0  0  0  0  0
  179.3570  178.7310  141.1260 C   0  0  0  0  0  1  0  0  0  0  0  0
  181.9150  178.9050  139.2020 C   0  0  2  0  0  3  0  0  0  0  0  0
  180.3560  180.8970  140.5500 O   0  0  0  0  0  0  0  0  0  0  0  0
  180.5700  179.6540  141.1950 C   0  0  2  0  0  3  0  0  0  0  0  0
  184.5720  175.9010  134.7520 C   0  0  0  0  0  1  0  0  0  0  0  0
  184.3810  175.6180  136.1660 N   0  0  0  0  0  0  0  0  0  0  0  0
  184.5180  174.2490  136.6350 C   0  0  0  0  0  2  0  0  0  0  0  0
  184.3450  174.2000  138.0060 F   0  0  0  0  0  0  0  0  0  0  0  0
  181.8740  176.6010  137.1730 N   0  0  0  0  0  0  0  0  0  0  0  0
  179.9120  175.3710  137.4840 C   0  0  0  0  0  2  0  0  0  0  0  0
  180.3440  175.8650  138.7810 C   0  0  1  0  0  3  0  0  0  0  0  0
  180.1850  174.7740  139.8170 C   0  0  0  0  0  1  0  0  0  0  0  0
  181.3520  175.4430  137.7890 N   0  0  0  0  0  0  0  0  0  0  0  0
  181.0440  177.3480  136.2210 C   0  0  1  0  0  3  0  0  0  0  0  0
  181.8680  178.1320  135.3880 O   0  0  0  0  0  0  0  0  0  0  0  0
  181.3450  176.9560  134.8230 C   0  0  0  0  0  2  0  0  0  0  0  0
  1  3  1  0  0  0  0
  2  1  2  0  0  0  0
  4  5  1  0  0  0  0
  4 10  1  0  0  0  0
  5  7  1  0  0  0  0
  7  6  1  0  0  0  0
  7  3  2  0  0  0  0
  8  5  2  0  0  0  0
  8  2  1  0  0  0  0
 10  6  1  0  0  0  0
 10  9  1  1  0  0  0
 11 13  1  1  0  0  0
 11 12  1  0  0  0  0
 11 16  1  0  0  0  0
 12 17  1  0  0  0  0
 14 18  1  0  0  0  0
 16  1  1  1  0  0  0
 16 14  1  0  0  0  0
 17 18  1  0  0  0  0
 18 15  1  6  0  0  0
 19 20  1  0  0  0  0
 20 21  1  0  0  0  0
 20  8  1  0  0  0  0
 21 22  1  0  0  0  0
 23  2  1  0  0  0  0
 23 27  1  0  0  0  0
 24 27  1  0  0  0  0
 24 25  1  0  0  0  0
 25 26  1  1  0  0  0
 27 25  1  0  0  0  0
 28 23  1  1  0  0  0
 29 28  1  0  0  0  0
 30 29  1  0  0  0  0
 30 28  1  0  0  0  0
M  END
>  <MODEL>
3

>  <REMARK>
 VINA RESULT:      -4.7      1.502      1.981
  Name = 
  6 active torsions:
  status: ('A' for Active; 'I' for Inactive)
    1  A    between atoms: C_1  and  C_22
    2  A    between atoms: C_4  and  N_23
    3  A    between atoms: C_7  and  N_30
    4  A    between atoms: C_10  and  N_23
    5  A    between atoms: C_13  and  N_30
    6  A    between atoms: N_23  and  N_25
                            x       y       z     vdW  Elec       q    Type
                         _______ _______ _______ _____ _____    ______ ____

>  <TORSDO>
F 6

$$$$
=
 OpenBabel11052412193D

 30 34  0  0  1  0  0  0  0  0999 V2000
  185.6030  177.8380  137.8770 C   0  0  0  0  0  0  0  0  0  0  0  0
  184.6670  176.9630  137.2270 C   0  0  0  0  0  0  0  0  0  0  0  0
  185.1290  178.9520  138.5890 C   0  0  0  0  0  3  0  0  0  0  0  0
  181.4830  178.8460  138.3270 C   0  0  0  0  0  2  0  0  0  0  0  0
  182.8620  178.3390  138.0840 C   0  0  0  0  0  0  0  0  0  0  0  0
  183.1410  180.2210  139.3110 O   0  0  0  0  0  0  0  0  0  0  0  0
  183.7620  179.1740  138.6690 C   0  0  0  0  0  0  0  0  0  0  0  0
  183.2730  177.2200  137.3530 C   0  0  0  0  0  0  0  0  0  0  0  0
  181.1880  181.3260  138.4470 C   0  0  0  0  0  1  0  0  0  0  0  0
  181.7260  180.1110  139.1760 C   0  0  1  0  0  3  0  0  0  0  0  0
  187.7140  177.4960  139.2800 C   0  0  1  0  0  3  0  0  0  0  0  0
  189.2100  177.2310  139.1360 C   0  0  0  0  0  2  0  0  0  0  0  0
  187.5050  178.6260  140.0730 O   0  0  0  0  0  1  0  0  0  0  0  0
  187.9100  178.5870  136.9700 C   0  0  0  0  0  2  0  0  0  0  0  0
  189.8280  177.0490  136.3150 C   0  0  0  0  0  1  0  0  0  0  0  0
  187.1030  177.6680  137.8870 C   0  0  2  0  0  3  0  0  0  0  0  0
  189.8480  178.2820  138.4380 O   0  0  0  0  0  0  0  0  0  0  0  0
  189.4090  178.2960  137.0900 C   0  0  2  0  0  3  0  0  0  0  0  0
  181.6630  175.3110  137.4940 C   0  0  0  0  0  1  0  0  0  0  0  0
  182.2990  176.3720  136.7290 N   0  0  0  0  0  0  0  0  0  0  0  0
  181.7370  176.7450  135.4410 C   0  0  0  0  0  2  0  0  0  0  0  0
  182.3900  177.8580  134.9440 F   0  0  0  0  0  0  0  0  0  0  0  0
  185.1040  175.7820  136.5180 N   0  0  0  0  0  0  0  0  0  0  0  0
  186.0560  173.6510  136.3900 C   0  0  0  0  0  2  0  0  0  0  0  0
  184.6100  173.5000  136.3900 C   0  0  1  0  0  3  0  0  0  0  0  0
  184.2220  172.3440  137.2870 C   0  0  0  0  0  1  0  0  0  0  0  0
  185.2320  174.5580  137.2100 N   0  0  0  0  0  0  0  0  0  0  0  0
  185.1870  175.7940  135.0530 C   0  0  1  0  0  3  0  0  0  0  0  0
  185.3760  177.1150  134.6010 O   0  0  0  0  0  0  0  0  0  0  0  0
  186.5090  176.2840  134.5940 C   0  0  0  0  0  2  0  0  0  0  0  0
  1  3  1  0  0  0  0
  2  8  1  0  0  0  0
  2  1  2  0  0  0  0
  3  7  2  0  0  0  0
  4 10  1  0  0  0  0
  5  4  1  0  0  0  0
  5  7  1  0  0  0  0
  7  6  1  0  0  0  0
  8  5  2  0  0  0  0
 10  9  1  6  0  0  0
 10  6  1  0  0  0  0
 11 13  1  1  0  0  0
 12 11  1  0  0  0  0
 14 18  1  0  0  0  0
 14 16  1  0  0  0  0
 16  1  1  1  0  0  0
 16 11  1  0  0  0  0
 17 12  1  0  0  0  0
 18 15  1  1  0  0  0
 18 17  1  0  0  0  0
 20  8  1  0  0  0  0
 20 19  1  0  0  0  0
 21 20  1  0  0  0  0
 22 21  1  0  0  0  0
 23 27  1  0  0  0  0
 23  2  1  0  0  0  0
 24 27  1  0  0  0  0
 25 24  1  0  0  0  0
 25 27  1  0  0  0  0
 25 26  1  1  0  0  0
 28 23  1  1  0  0  0
 29 28  1  0  0  0  0
 30 29  1  0  0  0  0
 30 28  1  0  0  0  0
M  END
>  <MODEL>
4

>  <REMARK>
 VINA RESULT:      -4.3      2.903      6.446
  Name = 
  6 active torsions:
  status: ('A' for Active; 'I' for Inactive)
    1  A    between atoms: C_1  and  C_22
    2  A    between atoms: C_4  and  N_23
    3  A    between atoms: C_7  and  N_30
    4  A    between atoms: C_10  and  N_23
    5  A    between atoms: C_13  and  N_30
    6  A    between atoms: N_23  and  N_25
                            x       y       z     vdW  Elec       q    Type
                         _______ _______ _______ _____ _____    ______ ____

>  <TORSDO>
F 6

$$$$
=
 OpenBabel11052412193D

 30 34  0  0  1  0  0  0  0  0999 V2000
  186.3500  177.8420  138.6340 C   0  0  0  0  0  0  0  0  0  0  0  0
  187.1010  177.0590  137.6910 C   0  0  0  0  0  0  0  0  0  0  0  0
  186.9600  178.2540  139.8300 C   0  0  0  0  0  3  0  0  0  0  0  0
  190.3850  176.9780  139.7170 C   0  0  0  0  0  2  0  0  0  0  0  0
  189.0150  177.2000  139.1750 C   0  0  0  0  0  0  0  0  0  0  0  0
  189.0160  178.2270  141.1920 O   0  0  0  0  0  0  0  0  0  0  0  0
  188.2830  177.9140  140.0700 C   0  0  0  0  0  0  0  0  0  0  0  0
  188.4620  176.7510  137.9710 C   0  0  0  0  0  0  0  0  0  0  0  0
  190.5980  176.7190  142.1950 C   0  0  0  0  0  1  0  0  0  0  0  0
  190.3380  177.7070  141.0760 C   0  0  1  0  0  3  0  0  0  0  0  0
  184.6140  179.6700  139.0630 C   0  0  1  0  0  3  0  0  0  0  0  0
  183.1760  180.0500  138.7210 C   0  0  0  0  0  2  0  0  0  0  0  0
  184.7890  179.6670  140.4480 O   0  0  0  0  0  1  0  0  0  0  0  0
  183.8290  177.2590  138.6950 C   0  0  0  0  0  2  0  0  0  0  0  0
  182.0830  177.9980  136.9990 C   0  0  0  0  0  1  0  0  0  0  0  0
  184.9230  178.2990  138.4560 C   0  0  2  0  0  3  0  0  0  0  0  0
  182.2660  179.0780  139.1950 O   0  0  0  0  0  0  0  0  0  0  0  0
  182.4410  177.8690  138.4770 C   0  0  2  0  0  3  0  0  0  0  0  0
  190.2190  176.6410  136.1940 C   0  0  0  0  0  1  0  0  0  0  0  0
  189.2550  175.9790  137.0590 N   0  0  0  0  0  0  0  0  0  0  0  0
  189.3110  174.5320  137.1980 C   0  0  0  0  0  2  0  0  0  0  0  0
  190.5630  174.1480  137.6390 F   0  0  0  0  0  0  0  0  0  0  0  0
  186.5310  176.6470  136.4280 N   0  0  0  0  0  0  0  0  0  0  0  0
  185.6820  175.1220  134.8740 C   0  0  0  0  0  2  0  0  0  0  0  0
  184.6040  175.4940  135.7760 C   0  0  1  0  0  3  0  0  0  0  0  0
  183.8070  174.2620  136.1460 C   0  0  0  0  0  1  0  0  0  0  0  0
  185.9770  175.3550  136.3000 N   0  0  0  0  0  0  0  0  0  0  0  0
  186.3160  177.6330  135.3640 C   0  0  1  0  0  3  0  0  0  0  0  0
  187.1280  178.7620  135.5930 O   0  0  0  0  0  0  0  0  0  0  0  0
  187.5600  177.8730  134.5940 C   0  0  0  0  0  2  0  0  0  0  0  0
  1  3  1  0  0  0  0
  2  8  1  0  0  0  0
  2  1  2  0  0  0  0
  3  7  2  0  0  0  0
  4 10  1  0  0  0  0
  5  4  1  0  0  0  0
  5  7  1  0  0  0  0
  7  6  1  0  0  0  0
  8  5  2  0  0  0  0
 10  6  1  0  0  0  0
 10  9  1  1  0  0  0
 11 13  1  1  0  0  0
 12 11  1  0  0  0  0
 12 17  1  0  0  0  0
 16  1  1  1  0  0  0
 16 14  1  0  0  0  0
 16 11  1  0  0  0  0
 18 15  1  6  0  0  0
 18 14  1  0  0  0  0
 18 17  1  0  0  0  0
 19 20  1  0  0  0  0
 20 21  1  0  0  0  0
 20  8  1  0  0  0  0
 21 22  1  0  0  0  0
 23  2  1  0  0  0  0
 24 25  1  0  0  0  0
 24 27  1  0  0  0  0
 25 26  1  1  0  0  0
 25 27  1  0  0  0  0
 27 23  1  0  0  0  0
 28 29  1  0  0  0  0
 28 23  1  1  0  0  0
 30 28  1  0  0  0  0
 30 29  1  0  0  0  0
M  END
>  <MODEL>
5

>  <REMARK>
 VINA RESULT:      -4.2      3.661      5.908
  Name = 
  6 active torsions:
  status: ('A' for Active; 'I' for Inactive)
    1  A    between atoms: C_1  and  C_22
    2  A    between atoms: C_4  and  N_23
    3  A    between atoms: C_7  and  N_30
    4  A    between atoms: C_10  and  N_23
    5  A    between atoms: C_13  and  N_30
    6  A    between atoms: N_23  and  N_25
                            x       y       z     vdW  Elec       q    Type
                         _______ _______ _______ _____ _____    ______ ____

>  <TORSDO>
F 6

$$$$
=
 OpenBabel11052412193D

 30 34  0  0  1  0  0  0  0  0999 V2000
  183.6910  177.9300  138.5060 C   0  0  0  0  0  0  0  0  0  0  0  0
  183.7200  176.8260  137.5860 C   0  0  0  0  0  0  0  0  0  0  0  0
  184.8930  178.5650  138.8620 C   0  0  0  0  0  3  0  0  0  0  0  0
  187.5340  176.8560  136.9990 C   0  0  0  0  0  2  0  0  0  0  0  0
  186.1240  177.1050  137.4060 C   0  0  0  0  0  0  0  0  0  0  0  0
  187.3390  178.6310  138.5540 O   0  0  0  0  0  0  0  0  0  0  0  0
  186.0830  178.1280  138.3010 C   0  0  0  0  0  0  0  0  0  0  0  0
  184.9630  176.4260  137.0210 C   0  0  0  0  0  0  0  0  0  0  0  0
  189.3020  177.2530  138.7230 C   0  0  0  0  0  1  0  0  0  0  0  0
  188.3140  177.9260  137.7910 C   0  0  1  0  0  3  0  0  0  0  0  0
  181.9950  179.8430  138.5450 C   0  0  1  0  0  3  0  0  0  0  0  0
  180.6840  180.2590  139.2060 C   0  0  0  0  0  2  0  0  0  0  0  0
  182.9550  180.8400  138.7260 O   0  0  0  0  0  1  0  0  0  0  0  0
  182.3680  178.4570  140.6680 C   0  0  0  0  0  2  0  0  0  0  0  0
  179.8660  178.1420  141.0020 C   0  0  0  0  0  1  0  0  0  0  0  0
  182.4510  178.5100  139.1430 C   0  0  2  0  0  3  0  0  0  0  0  0
  180.8310  180.3650  140.6080 O   0  0  0  0  0  0  0  0  0  0  0  0
  181.0590  179.0810  141.1630 C   0  0  2  0  0  3  0  0  0  0  0  0
  185.1190  175.6010  134.6650 C   0  0  0  0  0  1  0  0  0  0  0  0
  185.0440  175.3350  136.0920 N   0  0  0  0  0  0  0  0  0  0  0  0
  185.3400  173.9960  136.5760 C   0  0  0  0  0  2  0  0  0  0  0  0
  185.0610  173.9090  137.9280 F   0  0  0  0  0  0  0  0  0  0  0  0
  182.5070  176.1680  137.1580 N   0  0  0  0  0  0  0  0  0  0  0  0
  182.2050  177.8880  135.6040 C   0  0  0  0  0  2  0  0  0  0  0  0
  180.8940  177.4650  136.0690 C   0  0  1  0  0  3  0  0  0  0  0  0
  179.9420  177.3880  134.8950 C   0  0  0  0  0  1  0  0  0  0  0  0
  181.9620  176.4620  135.8890 N   0  0  0  0  0  0  0  0  0  0  0  0
  181.9760  175.0360  137.9260 C   0  0  1  0  0  3  0  0  0  0  0  0
  182.1650  175.2690  139.3030 O   0  0  0  0  0  0  0  0  0  0  0  0
  180.8630  175.4600  138.8090 C   0  0  0  0  0  2  0  0  0  0  0  0
  1  3  1  0  0  0  0
  2  1  2  0  0  0  0
  4  5  1  0  0  0  0
  4 10  1  0  0  0  0
  5  7  1  0  0  0  0
  7  6  1  0  0  0  0
  7  3  2  0  0  0  0
  8  5  2  0  0  0  0
  8  2  1  0  0  0  0
 10  6  1  0  0  0  0
 10  9  1  1  0  0  0
 11 13  1  1  0  0  0
 11 16  1  0  0  0  0
 11 12  1  0  0  0  0
 12 17  1  0  0  0  0
 14 18  1  0  0  0  0
 16  1  1  1  0  0  0
 16 14  1  0  0  0  0
 17 18  1  0  0  0  0
 18 15  1  6  0  0  0
 19 20  1  0  0  0  0
 20 21  1  0  0  0  0
 20  8  1  0  0  0  0
 21 22  1  0  0  0  0
 23  2  1  0  0  0  0
 24 27  1  0  0  0  0
 24 25  1  0  0  0  0
 25 26  1  6  0  0  0
 27 25  1  0  0  0  0
 27 23  1  0  0  0  0
 28 23  1  6  0  0  0
 28 30  1  0  0  0  0
 28 29  1  0  0  0  0
 30 29  1  0  0  0  0
M  END
>  <MODEL>
6

>  <REMARK>
 VINA RESULT:      -4.2      1.876      3.064
  Name = 
  6 active torsions:
  status: ('A' for Active; 'I' for Inactive)
    1  A    between atoms: C_1  and  C_22
    2  A    between atoms: C_4  and  N_23
    3  A    between atoms: C_7  and  N_30
    4  A    between atoms: C_10  and  N_23
    5  A    between atoms: C_13  and  N_30
    6  A    between atoms: N_23  and  N_25
                            x       y       z     vdW  Elec       q    Type
                         _______ _______ _______ _____ _____    ______ ____

>  <TORSDO>
F 6

$$$$
=
 OpenBabel11052412193D

 30 34  0  0  1  0  0  0  0  0999 V2000
  186.7320  178.0060  143.4880 C   0  0  0  0  0  0  0  0  0  0  0  0
  187.8220  177.9040  142.5570 C   0  0  0  0  0  0  0  0  0  0  0  0
  185.4350  178.2540  143.0090 C   0  0  0  0  0  3  0  0  0  0  0  0
  185.7160  178.4490  139.3690 C   0  0  0  0  0  2  0  0  0  0  0  0
  186.2430  178.2520  140.7480 C   0  0  0  0  0  0  0  0  0  0  0  0
  184.0280  178.6320  141.0190 O   0  0  0  0  0  0  0  0  0  0  0  0
  185.2270  178.3760  141.6440 C   0  0  0  0  0  0  0  0  0  0  0  0
  187.5580  178.0160  141.1630 C   0  0  0  0  0  0  0  0  0  0  0  0
  183.8220  180.0580  139.0930 C   0  0  0  0  0  1  0  0  0  0  0  0
  184.2100  178.6850  139.6070 C   0  0  1  0  0  3  0  0  0  0  0  0
  185.5750  178.2390  145.7570 C   0  0  1  0  0  3  0  0  0  0  0  0
  185.7860  177.9370  147.2370 C   0  0  0  0  0  2  0  0  0  0  0  0
  185.2650  179.5890  145.5860 O   0  0  0  0  0  1  0  0  0  0  0  0
  188.1330  178.3370  145.6400 C   0  0  0  0  0  2  0  0  0  0  0  0
  188.3670  176.6630  147.5410 C   0  0  0  0  0  1  0  0  0  0  0  0
  186.8400  177.8520  144.9860 C   0  0  2  0  0  3  0  0  0  0  0  0
  186.9110  178.6290  147.7430 O   0  0  0  0  0  0  0  0  0  0  0  0
  188.0920  178.1140  147.1550 C   0  0  2  0  0  3  0  0  0  0  0  0
  189.0280  176.6080  139.7090 C   0  0  0  0  0  1  0  0  0  0  0  0
  188.6100  177.9140  140.1930 N   0  0  0  0  0  0  0  0  0  0  0  0
  189.0550  179.1040  139.4850 C   0  0  0  0  0  2  0  0  0  0  0  0
  189.0350  178.8770  138.1210 F   0  0  0  0  0  0  0  0  0  0  0  0
  189.1660  177.6090  142.9970 N   0  0  0  0  0  0  0  0  0  0  0  0
  191.4680  177.9390  142.7640 C   0  0  0  0  0  2  0  0  0  0  0  0
  191.0710  178.4390  144.0710 C   0  0  1  0  0  3  0  0  0  0  0  0
  191.7700  179.7530  144.3440 C   0  0  0  0  0  1  0  0  0  0  0  0
  190.1630  178.6060  142.9200 N   0  0  0  0  0  0  0  0  0  0  0  0
  189.4420  176.3710  143.7340 C   0  0  1  0  0  3  0  0  0  0  0  0
  188.6540  175.3250  143.2130 O   0  0  0  0  0  0  0  0  0  0  0  0
  190.0100  175.3300  142.8440 C   0  0  0  0  0  2  0  0  0  0  0  0
  2 23  1  0  0  0  0
  2  1  2  0  0  0  0
  3  1  1  0  0  0  0
  4 10  1  0  0  0  0
  4  5  1  0  0  0  0
  5  8  2  0  0  0  0
  5  7  1  0  0  0  0
  6  7  1  0  0  0  0
  7  3  2  0  0  0  0
  8  2  1  0  0  0  0
 10  9  1  1  0  0  0
 10  6  1  0  0  0  0
 11 13  1  1  0  0  0
 11 12  1  0  0  0  0
 12 17  1  0  0  0  0
 14 18  1  0  0  0  0
 16  1  1  6  0  0  0
 16 14  1  0  0  0  0
 16 11  1  0  0  0  0
 18 15  1  6  0  0  0
 18 17  1  0  0  0  0
 19 20  1  0  0  0  0
 20  8  1  0  0  0  0
 21 20  1  0  0  0  0
 22 21  1  0  0  0  0
 24 27  1  0  0  0  0
 24 25  1  0  0  0  0
 25 26  1  6  0  0  0
 27 23  1  0  0  0  0
 27 25  1  0  0  0  0
 28 23  1  6  0  0  0
 29 28  1  0  0  0  0
 30 29  1  0  0  0  0
 30 28  1  0  0  0  0
M  END
>  <MODEL>
7

>  <REMARK>
 VINA RESULT:      -4.2      5.859      8.267
  Name = 
  6 active torsions:
  status: ('A' for Active; 'I' for Inactive)
    1  A    between atoms: C_1  and  C_22
    2  A    between atoms: C_4  and  N_23
    3  A    between atoms: C_7  and  N_30
    4  A    between atoms: C_10  and  N_23
    5  A    between atoms: C_13  and  N_30
    6  A    between atoms: N_23  and  N_25
                            x       y       z     vdW  Elec       q    Type
                         _______ _______ _______ _____ _____    ______ ____

>  <TORSDO>
F 6

$$$$
=
 OpenBabel11052412193D

 30 34  0  0  1  0  0  0  0  0999 V2000
  190.3430  174.5440  136.2630 C   0  0  0  0  0  0  0  0  0  0  0  0
  189.0230  175.1010  136.3660 C   0  0  0  0  0  0  0  0  0  0  0  0
  190.5060  173.2380  135.7720 C   0  0  0  0  0  3  0  0  0  0  0  0
  187.1500  172.0300  134.9690 C   0  0  0  0  0  2  0  0  0  0  0  0
  188.1360  173.0410  135.4420 C   0  0  0  0  0  0  0  0  0  0  0  0
  189.3770  171.2290  134.8930 O   0  0  0  0  0  0  0  0  0  0  0  0
  189.3890  172.5170  135.3780 C   0  0  0  0  0  0  0  0  0  0  0  0
  187.9080  174.3320  135.9300 C   0  0  0  0  0  0  0  0  0  0  0  0
  187.6680  169.6290  135.4410 C   0  0  0  0  0  1  0  0  0  0  0  0
  188.0420  170.8290  134.5940 C   0  0  1  0  0  3  0  0  0  0  0  0
  192.4510  175.7280  135.4270 C   0  0  1  0  0  3  0  0  0  0  0  0
  193.6570  176.5120  135.9350 C   0  0  0  0  0  2  0  0  0  0  0  0
  192.8770  174.6550  134.6420 O   0  0  0  0  0  1  0  0  0  0  0  0
  192.4650  174.6350  137.7440 C   0  0  0  0  0  2  0  0  0  0  0  0
  193.4520  176.7210  138.8140 C   0  0  0  0  0  1  0  0  0  0  0  0
  191.6260  175.2530  136.6260 C   0  0  2  0  0  3  0  0  0  0  0  0
  194.4470  175.7250  136.8040 O   0  0  0  0  0  0  0  0  0  0  0  0
  193.7290  175.4620  137.9960 C   0  0  2  0  0  3  0  0  0  0  0  0
  185.8620  175.2080  134.7900 C   0  0  0  0  0  1  0  0  0  0  0  0
  186.5710  174.8460  136.0070 N   0  0  0  0  0  0  0  0  0  0  0  0
  185.8250  174.7340  137.2500 C   0  0  0  0  0  2  0  0  0  0  0  0
  185.8550  173.4290  137.7040 F   0  0  0  0  0  0  0  0  0  0  0  0
  188.8080  176.4550  136.8250 N   0  0  0  0  0  0  0  0  0  0  0  0
  188.5900  178.1530  138.4170 C   0  0  0  0  0  2  0  0  0  0  0  0
  189.7320  177.3320  138.7860 C   0  0  1  0  0  3  0  0  0  0  0  0
  189.7230  177.0950  140.2810 C   0  0  0  0  0  1  0  0  0  0  0  0
  188.5410  176.6970  138.1910 N   0  0  0  0  0  0  0  0  0  0  0  0
  189.0960  177.5850  135.9360 C   0  0  1  0  0  3  0  0  0  0  0  0
  189.0560  177.1550  134.5950 O   0  0  0  0  0  0  0  0  0  0  0  0
  187.9430  177.8810  135.0510 C   0  0  0  0  0  2  0  0  0  0  0  0
  1  2  1  0  0  0  0
  2 23  1  0  0  0  0
  3  1  2  0  0  0  0
  4  5  1  0  0  0  0
  5  8  1  0  0  0  0
  6  7  1  0  0  0  0
  7  5  2  0  0  0  0
  7  3  1  0  0  0  0
  8 20  1  0  0  0  0
  8  2  2  0  0  0  0
 10  6  1  0  0  0  0
 10  4  1  0  0  0  0
 10  9  1  1  0  0  0
 11 13  1  1  0  0  0
 11 12  1  0  0  0  0
 11 16  1  0  0  0  0
 12 17  1  0  0  0  0
 14 18  1  0  0  0  0
 16  1  1  6  0  0  0
 16 14  1  0  0  0  0
 17 18  1  0  0  0  0
 18 15  1  6  0  0  0
 19 20  1  0  0  0  0
 20 21  1  0  0  0  0
 21 22  1  0  0  0  0
 23 27  1  0  0  0  0
 24 25  1  0  0  0  0
 25 26  1  1  0  0  0
 27 24  1  0  0  0  0
 27 25  1  0  0  0  0
 28 23  1  1  0  0  0
 29 30  1  0  0  0  0
 29 28  1  0  0  0  0
 30 28  1  0  0  0  0
M  END
>  <MODEL>
8

>  <REMARK>
 VINA RESULT:      -4.1      6.719     10.074
  Name = 
  6 active torsions:
  status: ('A' for Active; 'I' for Inactive)
    1  A    between atoms: C_1  and  C_22
    2  A    between atoms: C_4  and  N_23
    3  A    between atoms: C_7  and  N_30
    4  A    between atoms: C_10  and  N_23
    5  A    between atoms: C_13  and  N_30
    6  A    between atoms: N_23  and  N_25
                            x       y       z     vdW  Elec       q    Type
                         _______ _______ _______ _____ _____    ______ ____

>  <TORSDO>
F 6

$$$$
=
 OpenBabel11052412193D

 30 34  0  0  1  0  0  0  0  0999 V2000
  185.0390  176.0080  137.2980 C   0  0  0  0  0  0  0  0  0  0  0  0
  183.7340  176.2560  137.8450 C   0  0  0  0  0  0  0  0  0  0  0  0
  185.2900  174.7960  136.6330 C   0  0  0  0  0  3  0  0  0  0  0  0
  182.1480  172.9270  136.7060 C   0  0  0  0  0  2  0  0  0  0  0  0
  183.0190  174.1030  136.9850 C   0  0  0  0  0  0  0  0  0  0  0  0
  184.3540  172.6380  135.8920 O   0  0  0  0  0  0  0  0  0  0  0  0
  184.2670  173.8700  136.4990 C   0  0  0  0  0  0  0  0  0  0  0  0
  182.7090  175.2860  137.6660 C   0  0  0  0  0  0  0  0  0  0  0  0
  183.2390  170.6770  136.7240 C   0  0  0  0  0  1  0  0  0  0  0  0
  183.0950  171.9720  135.9500 C   0  0  1  0  0  3  0  0  0  0  0  0
  186.2300  178.0060  136.2350 C   0  0  1  0  0  3  0  0  0  0  0  0
  187.3980  178.9580  136.4700 C   0  0  0  0  0  2  0  0  0  0  0  0
  186.3470  177.4110  134.9780 O   0  0  0  0  0  1  0  0  0  0  0  0
  187.5800  176.3530  137.6540 C   0  0  0  0  0  2  0  0  0  0  0  0
  188.6600  178.2410  138.9740 C   0  0  0  0  0  1  0  0  0  0  0  0
  186.2100  176.9590  137.3520 C   0  0  2  0  0  3  0  0  0  0  0  0
  188.6250  178.2570  136.5190 O   0  0  0  0  0  0  0  0  0  0  0  0
  188.6610  177.4380  137.6750 C   0  0  2  0  0  3  0  0  0  0  0  0
  180.2650  175.6480  137.2760 C   0  0  0  0  0  1  0  0  0  0  0  0
  181.3880  175.4900  138.1870 N   0  0  0  0  0  0  0  0  0  0  0  0
  181.1240  175.2530  139.5970 C   0  0  0  0  0  2  0  0  0  0  0  0
  180.7170  176.4250  140.2060 F   0  0  0  0  0  0  0  0  0  0  0  0
  183.4150  177.5040  138.5010 N   0  0  0  0  0  0  0  0  0  0  0  0
  183.1880  178.9850  140.2950 C   0  0  0  0  0  2  0  0  0  0  0  0
  184.6070  178.7830  140.0540 C   0  0  1  0  0  3  0  0  0  0  0  0
  185.3280  178.6280  141.3750 C   0  0  0  0  0  1  0  0  0  0  0  0
  183.6720  177.6550  139.8810 N   0  0  0  0  0  0  0  0  0  0  0  0
  183.0510  178.6800  137.7030 C   0  0  1  0  0  3  0  0  0  0  0  0
  182.3850  178.2690  136.5300 O   0  0  0  0  0  0  0  0  0  0  0  0
  181.5790  178.7950  137.5550 C   0  0  0  0  0  2  0  0  0  0  0  0
  1  2  1  0  0  0  0
  2 23  1  0  0  0  0
  3  1  2  0  0  0  0
  4  5  1  0  0  0  0
  5  8  1  0  0  0  0
  6 10  1  0  0  0  0
  6  7  1  0  0  0  0
  7  3  1  0  0  0  0
  7  5  2  0  0  0  0
  8  2  2  0  0  0  0
  8 20  1  0  0  0  0
 10  4  1  0  0  0  0
 10  9  1  1  0  0  0
 11 13  1  6  0  0  0
 11 12  1  0  0  0  0
 11 16  1  0  0  0  0
 12 17  1  0  0  0  0
 14 18  1  0  0  0  0
 16  1  1  6  0  0  0
 16 14  1  0  0  0  0
 17 18  1  0  0  0  0
 18 15  1  1  0  0  0
 19 20  1  0  0  0  0
 20 21  1  0  0  0  0
 21 22  1  0  0  0  0
 23 27  1  0  0  0  0
 25 24  1  0  0  0  0
 25 26  1  1  0  0  0
 27 25  1  0  0  0  0
 27 24  1  0  0  0  0
 28 23  1  1  0  0  0
 29 30  1  0  0  0  0
 29 28  1  0  0  0  0
 30 28  1  0  0  0  0
M  END
>  <MODEL>
9

>  <REMARK>
 VINA RESULT:      -3.8      2.786      6.163
  Name = 
  6 active torsions:
  status: ('A' for Active; 'I' for Inactive)
    1  A    between atoms: C_1  and  C_22
    2  A    between atoms: C_4  and  N_23
    3  A    between atoms: C_7  and  N_30
    4  A    between atoms: C_10  and  N_23
    5  A    between atoms: C_13  and  N_30
    6  A    between atoms: N_23  and  N_25
                            x       y       z     vdW  Elec       q    Type
                         _______ _______ _______ _____ _____    ______ ____

>  <TORSDO>
F 6

$$$$
