=
 OpenBabel11052412413D

 25 27  0  0  1  0  0  0  0  0999 V2000
  188.7630  176.8610  142.0670 C   0  0  1  0  0  3  0  0  0  0  0  0
  187.4690  177.6260  142.2180 C   0  0  0  0  0  0  0  0  0  0  0  0
  189.0200  177.9700  139.8210 C   0  0  0  0  0  2  0  0  0  0  0  0
  187.5390  178.3260  139.7750 C   0  0  0  0  0  2  0  0  0  0  0  0
  185.7380  179.1030  141.3470 C   0  0  0  0  0  0  0  0  0  0  0  0
  185.1750  179.8360  140.3080 O   0  0  0  0  0  1  0  0  0  0  0  0
  186.8240  177.6270  143.4610 C   0  0  0  0  0  3  0  0  0  0  0  0
  189.2120  176.6850  140.6130 C   0  0  0  0  0  2  0  0  0  0  0  0
  185.1110  179.0960  142.5950 C   0  0  0  0  0  3  0  0  0  0  0  0
  185.6480  178.3540  143.6500 C   0  0  0  0  0  0  0  0  0  0  0  0
  186.9240  178.3760  141.1490 C   0  0  0  0  0  0  0  0  0  0  0  0
  189.8700  177.3900  142.9380 C   0  0  0  0  0  0  0  0  0  0  0  0
  191.7880  178.4040  144.8230 C   0  0  0  0  0  3  0  0  0  0  0  0
  190.8430  176.5100  143.6280 C   0  0  0  0  0  0  0  0  0  0  0  0
  191.7400  177.0840  144.6370 C   0  0  0  0  0  3  0  0  0  0  0  0
  190.9990  179.3680  143.9740 C   0  0  0  0  0  2  0  0  0  0  0  0
  190.8900  175.2760  143.3890 O   0  0  0  0  0  0  0  0  0  0  0  0
  189.9200  178.7090  143.1500 C   0  0  0  0  0  3  0  0  0  0  0  0
  184.9860  178.3680  144.9830 C   0  0  0  0  0  2  0  0  0  0  0  0
  185.7810  177.5280  145.9680 C   0  0  0  0  0  2  0  0  0  0  0  0
  186.4040  178.4070  146.9990 C   0  0  0  0  0  0  0  0  0  0  0  0
  185.7870  179.4340  147.3870 O   0  0  0  0  0  0  0  0  0  0  0  0
  187.7360  178.1020  147.5400 C   0  0  0  0  0  0  0  0  0  0  0  0
  188.7260  177.5060  146.7090 N   0  0  0  0  0  1  0  0  0  0  0  0
  188.0110  178.3660  148.7410 O   0  0  0  0  0  0  0  0  0  0  0  0
  1  2  1  0  0  0  0
  1 12  1  1  0  0  0
  2  7  1  0  0  0  0
  3  8  1  0  0  0  0
  4  3  1  0  0  0  0
  4 11  1  0  0  0  0
  5  9  2  0  0  0  0
  6  5  1  0  0  0  0
  7 10  2  0  0  0  0
  8  1  1  0  0  0  0
  9 10  1  0  0  0  0
 10 19  1  0  0  0  0
 11  5  1  0  0  0  0
 11  2  2  0  0  0  0
 12 18  2  0  0  0  0
 12 14  1  0  0  0  0
 14 15  1  0  0  0  0
 15 13  2  0  0  0  0
 16 13  1  0  0  0  0
 17 14  2  0  0  0  0
 18 16  1  0  0  0  0
 19 20  1  0  0  0  0
 20 21  1  0  0  0  0
 21 22  2  0  0  0  0
 21 23  1  0  0  0  0
 23 25  2  0  0  0  0
 24 23  1  0  0  0  0
M  END
>  <MODEL>
1

>  <REMARK>
 VINA RESULT:      -8.1      0.000      0.000
  Name = 
  5 active torsions:
  status: ('A' for Active; 'I' for Inactive)
    1  A    between atoms: C_1  and  C_5
    2  A    between atoms: C_2  and  C_21
    3  A    between atoms: C_6  and  C_15
    4  A    between atoms: C_6  and  C_23
    5  A    between atoms: C_15  and  C_21
                            x       y       z     vdW  Elec       q    Type
                         _______ _______ _______ _____ _____    ______ ____

>  <TORSDO>
F 5

$$$$
=
 OpenBabel11052412413D

 25 27  0  0  1  0  0  0  0  0999 V2000
  186.2570  177.2610  143.6020 C   0  0  1  0  0  3  0  0  0  0  0  0
  186.6380  177.6380  145.0150 C   0  0  0  0  0  0  0  0  0  0  0  0
  184.8390  179.3420  143.5540 C   0  0  0  0  0  2  0  0  0  0  0  0
  184.8370  179.4320  145.0750 C   0  0  0  0  0  2  0  0  0  0  0  0
  186.4240  179.0520  146.9870 C   0  0  0  0  0  0  0  0  0  0  0  0
  185.8120  180.0930  147.6760 O   0  0  0  0  0  1  0  0  0  0  0  0
  187.6700  176.9350  145.6480 C   0  0  0  0  0  3  0  0  0  0  0  0
  184.9400  177.8840  143.1290 C   0  0  0  0  0  2  0  0  0  0  0  0
  187.4570  178.3420  147.6020 C   0  0  0  0  0  3  0  0  0  0  0  0
  188.0770  177.2810  146.9380 C   0  0  0  0  0  0  0  0  0  0  0  0
  186.0100  178.7130  145.6890 C   0  0  0  0  0  0  0  0  0  0  0  0
  187.3690  177.4740  142.6110 C   0  0  0  0  0  0  0  0  0  0  0  0
  189.6170  178.0600  140.9180 C   0  0  0  0  0  3  0  0  0  0  0  0
  188.5370  176.5660  142.5040 C   0  0  0  0  0  0  0  0  0  0  0  0
  189.6840  176.9670  141.6810 C   0  0  0  0  0  3  0  0  0  0  0  0
  188.3610  178.8840  140.7990 C   0  0  0  0  0  2  0  0  0  0  0  0
  188.5760  175.4760  143.1300 O   0  0  0  0  0  0  0  0  0  0  0  0
  187.3270  178.5740  141.8530 C   0  0  0  0  0  3  0  0  0  0  0  0
  189.1910  176.5420  147.5910 C   0  0  0  0  0  2  0  0  0  0  0  0
  190.4600  177.3780  147.5590 C   0  0  0  0  0  2  0  0  0  0  0  0
  191.4800  176.7230  146.6910 C   0  0  0  0  0  0  0  0  0  0  0  0
  192.3920  176.0370  147.2240 O   0  0  0  0  0  0  0  0  0  0  0  0
  191.4450  176.8930  145.2320 C   0  0  0  0  0  0  0  0  0  0  0  0
  191.0970  178.1530  144.6680 N   0  0  0  0  0  1  0  0  0  0  0  0
  191.7240  175.9290  144.4710 O   0  0  0  0  0  0  0  0  0  0  0  0
  1 12  1  6  0  0  0
  1  2  1  0  0  0  0
  2  7  2  0  0  0  0
  2 11  1  0  0  0  0
  3  4  1  0  0  0  0
  4 11  1  0  0  0  0
  5  9  1  0  0  0  0
  5  6  1  0  0  0  0
  7 10  1  0  0  0  0
  8  3  1  0  0  0  0
  8  1  1  0  0  0  0
 10 19  1  0  0  0  0
 10  9  2  0  0  0  0
 11  5  2  0  0  0  0
 13 15  2  0  0  0  0
 14 12  1  0  0  0  0
 14 17  2  0  0  0  0
 15 14  1  0  0  0  0
 16 13  1  0  0  0  0
 16 18  1  0  0  0  0
 18 12  2  0  0  0  0
 20 19  1  0  0  0  0
 21 22  2  0  0  0  0
 21 20  1  0  0  0  0
 23 21  1  0  0  0  0
 24 23  1  0  0  0  0
 25 23  2  0  0  0  0
M  END
>  <MODEL>
2

>  <REMARK>
 VINA RESULT:      -7.9      1.967      4.728
  Name = 
  5 active torsions:
  status: ('A' for Active; 'I' for Inactive)
    1  A    between atoms: C_1  and  C_5
    2  A    between atoms: C_2  and  C_21
    3  A    between atoms: C_6  and  C_15
    4  A    between atoms: C_6  and  C_23
    5  A    between atoms: C_15  and  C_21
                            x       y       z     vdW  Elec       q    Type
                         _______ _______ _______ _____ _____    ______ ____

>  <TORSDO>
F 5

$$$$
=
 OpenBabel11052412413D

 25 27  0  0  1  0  0  0  0  0999 V2000
  186.9750  177.0690  145.3480 C   0  0  1  0  0  3  0  0  0  0  0  0
  188.2810  177.1550  144.5930 C   0  0  0  0  0  0  0  0  0  0  0  0
  188.1240  178.2750  147.2370 C   0  0  0  0  0  2  0  0  0  0  0  0
  189.5000  177.9210  146.6890 C   0  0  0  0  0  2  0  0  0  0  0  0
  190.6470  177.7220  144.4610 C   0  0  0  0  0  0  0  0  0  0  0  0
  191.8260  178.1650  145.0500 O   0  0  0  0  0  1  0  0  0  0  0  0
  188.3030  176.8070  143.2380 C   0  0  0  0  0  3  0  0  0  0  0  0
  187.1310  177.1830  146.8680 C   0  0  0  0  0  2  0  0  0  0  0  0
  190.6490  177.3740  143.1080 C   0  0  0  0  0  3  0  0  0  0  0  0
  189.4820  176.9100  142.4970 C   0  0  0  0  0  0  0  0  0  0  0  0
  189.4650  177.6240  145.2130 C   0  0  0  0  0  0  0  0  0  0  0  0
  185.9210  178.0040  144.8180 C   0  0  0  0  0  0  0  0  0  0  0  0
  183.7690  179.5490  143.7060 C   0  0  0  0  0  3  0  0  0  0  0  0
  184.7890  178.4900  145.6420 C   0  0  0  0  0  0  0  0  0  0  0  0
  183.6850  179.2060  144.9920 C   0  0  0  0  0  3  0  0  0  0  0  0
  185.0060  179.2980  142.8820 C   0  0  0  0  0  2  0  0  0  0  0  0
  184.7410  178.2720  146.8800 O   0  0  0  0  0  0  0  0  0  0  0  0
  185.9810  178.3420  143.5260 C   0  0  0  0  0  3  0  0  0  0  0  0
  189.4860  176.5610  141.0510 C   0  0  0  0  0  2  0  0  0  0  0  0
  189.9850  177.7390  140.2310 C   0  0  0  0  0  2  0  0  0  0  0  0
  188.8710  178.2950  139.4090 C   0  0  0  0  0  0  0  0  0  0  0  0
  187.7630  178.5360  139.9570 O   0  0  0  0  0  0  0  0  0  0  0  0
  189.0470  178.5350  137.9700 C   0  0  0  0  0  0  0  0  0  0  0  0
  189.3180  177.4480  137.0920 N   0  0  0  0  0  1  0  0  0  0  0  0
  188.9580  179.7020  137.5040 O   0  0  0  0  0  0  0  0  0  0  0  0
  1 12  1  6  0  0  0
  1  8  1  0  0  0  0
  2 11  1  0  0  0  0
  2  1  1  0  0  0  0
  4  3  1  0  0  0  0
  5  6  1  0  0  0  0
  5 11  2  0  0  0  0
  7  2  2  0  0  0  0
  8  3  1  0  0  0  0
  9  5  1  0  0  0  0
 10  9  2  0  0  0  0
 10  7  1  0  0  0  0
 11  4  1  0  0  0  0
 12 14  1  0  0  0  0
 13 15  2  0  0  0  0
 14 17  2  0  0  0  0
 15 14  1  0  0  0  0
 16 18  1  0  0  0  0
 16 13  1  0  0  0  0
 18 12  2  0  0  0  0
 19 10  1  0  0  0  0
 20 19  1  0  0  0  0
 21 22  2  0  0  0  0
 21 20  1  0  0  0  0
 23 21  1  0  0  0  0
 24 23  1  0  0  0  0
 25 23  2  0  0  0  0
M  END
>  <MODEL>
3

>  <REMARK>
 VINA RESULT:      -7.7      2.626      6.918
  Name = 
  5 active torsions:
  status: ('A' for Active; 'I' for Inactive)
    1  A    between atoms: C_1  and  C_5
    2  A    between atoms: C_2  and  C_21
    3  A    between atoms: C_6  and  C_15
    4  A    between atoms: C_6  and  C_23
    5  A    between atoms: C_15  and  C_21
                            x       y       z     vdW  Elec       q    Type
                         _______ _______ _______ _____ _____    ______ ____

>  <TORSDO>
F 5

$$$$
=
 OpenBabel11052412413D

 25 27  0  0  1  0  0  0  0  0999 V2000
  189.5660  176.2240  143.7800 C   0  0  1  0  0  3  0  0  0  0  0  0
  188.6430  177.0360  142.9020 C   0  0  0  0  0  0  0  0  0  0  0  0
  191.4660  177.0580  142.3540 C   0  0  0  0  0  2  0  0  0  0  0  0
  190.5130  177.4460  141.2300 C   0  0  0  0  0  2  0  0  0  0  0  0
  188.2240  178.4480  140.9610 C   0  0  0  0  0  0  0  0  0  0  0  0
  188.6550  179.0700  139.7950 O   0  0  0  0  0  1  0  0  0  0  0  0
  187.3080  177.1990  143.2910 C   0  0  0  0  0  3  0  0  0  0  0  0
  190.8990  175.8690  143.1150 C   0  0  0  0  0  2  0  0  0  0  0  0
  186.8960  178.6030  141.3660 C   0  0  0  0  0  3  0  0  0  0  0  0
  186.4350  177.9740  142.5260 C   0  0  0  0  0  0  0  0  0  0  0  0
  189.1100  177.6720  141.7260 C   0  0  0  0  0  0  0  0  0  0  0  0
  189.7590  176.8210  145.1480 C   0  0  0  0  0  0  0  0  0  0  0  0
  189.9630  177.7400  147.8640 C   0  0  0  0  0  3  0  0  0  0  0  0
  190.9330  176.5150  146.0010 C   0  0  0  0  0  0  0  0  0  0  0  0
  190.9330  176.9500  147.4030 C   0  0  0  0  0  3  0  0  0  0  0  0
  188.8760  178.2860  146.9730 C   0  0  0  0  0  2  0  0  0  0  0  0
  191.9110  175.8620  145.5560 O   0  0  0  0  0  0  0  0  0  0  0  0
  188.7870  177.6000  145.6320 C   0  0  0  0  0  3  0  0  0  0  0  0
  185.0250  178.1600  142.9630 C   0  0  0  0  0  2  0  0  0  0  0  0
  184.9080  179.3970  143.8370 C   0  0  0  0  0  2  0  0  0  0  0  0
  184.3290  179.0320  145.1610 C   0  0  0  0  0  0  0  0  0  0  0  0
  183.0830  179.1040  145.3290 O   0  0  0  0  0  0  0  0  0  0  0  0
  185.1980  178.6210  146.2730 C   0  0  0  0  0  0  0  0  0  0  0  0
  185.6410  179.5800  147.2260 N   0  0  0  0  0  1  0  0  0  0  0  0
  185.5540  177.4180  146.3910 O   0  0  0  0  0  0  0  0  0  0  0  0
  1 12  1  1  0  0  0
  2  7  1  0  0  0  0
  2  1  1  0  0  0  0
  3  8  1  0  0  0  0
  4 11  1  0  0  0  0
  4  3  1  0  0  0  0
  5  9  2  0  0  0  0
  5 11  1  0  0  0  0
  6  5  1  0  0  0  0
  8  1  1  0  0  0  0
  9 10  1  0  0  0  0
 10 19  1  0  0  0  0
 10  7  2  0  0  0  0
 11  2  2  0  0  0  0
 12 18  2  0  0  0  0
 12 14  1  0  0  0  0
 14 15  1  0  0  0  0
 15 13  2  0  0  0  0
 16 13  1  0  0  0  0
 17 14  2  0  0  0  0
 18 16  1  0  0  0  0
 19 20  1  0  0  0  0
 20 21  1  0  0  0  0
 21 22  2  0  0  0  0
 21 23  1  0  0  0  0
 23 25  2  0  0  0  0
 23 24  1  0  0  0  0
M  END
>  <MODEL>
4

>  <REMARK>
 VINA RESULT:      -7.6      1.939      2.848
  Name = 
  5 active torsions:
  status: ('A' for Active; 'I' for Inactive)
    1  A    between atoms: C_1  and  C_5
    2  A    between atoms: C_2  and  C_21
    3  A    between atoms: C_6  and  C_15
    4  A    between atoms: C_6  and  C_23
    5  A    between atoms: C_15  and  C_21
                            x       y       z     vdW  Elec       q    Type
                         _______ _______ _______ _____ _____    ______ ____

>  <TORSDO>
F 5

$$$$
=
 OpenBabel11052412413D

 25 27  0  0  1  0  0  0  0  0999 V2000
  186.1990  177.5290  143.4060 C   0  0  1  0  0  3  0  0  0  0  0  0
  186.5850  177.7660  144.8480 C   0  0  0  0  0  0  0  0  0  0  0  0
  184.7680  179.5950  143.5740 C   0  0  0  0  0  2  0  0  0  0  0  0
  184.7730  179.5320  145.0950 C   0  0  0  0  0  2  0  0  0  0  0  0
  186.3720  178.9730  146.9530 C   0  0  0  0  0  0  0  0  0  0  0  0
  185.7570  179.9360  147.7450 O   0  0  0  0  0  1  0  0  0  0  0  0
  187.6240  177.0100  145.4020 C   0  0  0  0  0  3  0  0  0  0  0  0
  184.8750  178.1880  143.0040 C   0  0  0  0  0  2  0  0  0  0  0  0
  187.4130  178.2120  147.4890 C   0  0  0  0  0  3  0  0  0  0  0  0
  188.0360  177.2270  146.7190 C   0  0  0  0  0  0  0  0  0  0  0  0
  185.9530  178.7630  145.6290 C   0  0  0  0  0  0  0  0  0  0  0  0
  187.3050  177.8480  142.4360 C   0  0  0  0  0  0  0  0  0  0  0  0
  189.4070  178.1740  140.5050 C   0  0  0  0  0  3  0  0  0  0  0  0
  187.0530  178.3780  141.0750 C   0  0  0  0  0  0  0  0  0  0  0  0
  188.1610  178.4430  140.1140 C   0  0  0  0  0  3  0  0  0  0  0  0
  189.7560  177.8710  141.9390 C   0  0  0  0  0  2  0  0  0  0  0  0
  185.9030  178.7410  140.7170 O   0  0  0  0  0  0  0  0  0  0  0  0
  188.5580  177.5670  142.8050 C   0  0  0  0  0  3  0  0  0  0  0  0
  189.1590  176.4340  147.2890 C   0  0  0  0  0  2  0  0  0  0  0  0
  190.3960  177.3050  147.4240 C   0  0  0  0  0  2  0  0  0  0  0  0
  191.5160  176.7260  146.6270 C   0  0  0  0  0  0  0  0  0  0  0  0
  192.4050  176.0550  147.2130 O   0  0  0  0  0  0  0  0  0  0  0  0
  191.6030  176.9550  145.1780 C   0  0  0  0  0  0  0  0  0  0  0  0
  191.6480  175.8500  144.2810 N   0  0  0  0  0  1  0  0  0  0  0  0
  191.6380  178.1280  144.7200 O   0  0  0  0  0  0  0  0  0  0  0  0
  1 12  1  6  0  0  0
  1  2  1  0  0  0  0
  2  7  2  0  0  0  0
  2 11  1  0  0  0  0
  3  4  1  0  0  0  0
  4 11  1  0  0  0  0
  5  9  1  0  0  0  0
  5  6  1  0  0  0  0
  7 10  1  0  0  0  0
  8  1  1  0  0  0  0
  8  3  1  0  0  0  0
 10 19  1  0  0  0  0
 10  9  2  0  0  0  0
 11  5  2  0  0  0  0
 12 18  2  0  0  0  0
 13 16  1  0  0  0  0
 14 12  1  0  0  0  0
 15 13  2  0  0  0  0
 15 14  1  0  0  0  0
 16 18  1  0  0  0  0
 17 14  2  0  0  0  0
 19 20  1  0  0  0  0
 21 22  2  0  0  0  0
 21 20  1  0  0  0  0
 23 21  1  0  0  0  0
 24 23  1  0  0  0  0
 25 23  2  0  0  0  0
M  END
>  <MODEL>
5

>  <REMARK>
 VINA RESULT:      -7.5      1.808      4.997
  Name = 
  5 active torsions:
  status: ('A' for Active; 'I' for Inactive)
    1  A    between atoms: C_1  and  C_5
    2  A    between atoms: C_2  and  C_21
    3  A    between atoms: C_6  and  C_15
    4  A    between atoms: C_6  and  C_23
    5  A    between atoms: C_15  and  C_21
                            x       y       z     vdW  Elec       q    Type
                         _______ _______ _______ _____ _____    ______ ____

>  <TORSDO>
F 5

$$$$
=
 OpenBabel11052412413D

 25 27  0  0  1  0  0  0  0  0999 V2000
  187.3290  176.9830  144.8440 C   0  0  1  0  0  3  0  0  0  0  0  0
  188.5360  177.1930  143.9590 C   0  0  0  0  0  0  0  0  0  0  0  0
  188.6230  178.1230  146.6790 C   0  0  0  0  0  2  0  0  0  0  0  0
  189.9440  177.8850  145.9590 C   0  0  0  0  0  2  0  0  0  0  0  0
  190.8410  177.9020  143.6110 C   0  0  0  0  0  0  0  0  0  0  0  0
  192.0550  178.3700  144.0990 O   0  0  0  0  0  1  0  0  0  0  0  0
  188.4210  176.9390  142.5870 C   0  0  0  0  0  3  0  0  0  0  0  0
  187.6490  177.0040  146.3420 C   0  0  0  0  0  2  0  0  0  0  0  0
  190.7080  177.6460  142.2440 C   0  0  0  0  0  3  0  0  0  0  0  0
  189.5020  177.1590  141.7320 C   0  0  0  0  0  0  0  0  0  0  0  0
  189.7570  177.6860  144.4780 C   0  0  0  0  0  0  0  0  0  0  0  0
  186.1780  177.8900  144.5010 C   0  0  0  0  0  0  0  0  0  0  0  0
  183.8330  179.3800  143.7630 C   0  0  0  0  0  3  0  0  0  0  0  0
  185.1650  178.3160  145.4970 C   0  0  0  0  0  0  0  0  0  0  0  0
  183.9530  179.0050  145.0370 C   0  0  0  0  0  3  0  0  0  0  0  0
  184.9420  179.1920  142.7590 C   0  0  0  0  0  2  0  0  0  0  0  0
  185.3090  178.0690  146.7220 O   0  0  0  0  0  0  0  0  0  0  0  0
  186.0320  178.2590  143.2250 C   0  0  0  0  0  3  0  0  0  0  0  0
  189.3610  176.9080  140.2720 C   0  0  0  0  0  2  0  0  0  0  0  0
  190.5120  177.5520  139.5180 C   0  0  0  0  0  2  0  0  0  0  0  0
  191.4210  176.4980  138.9810 C   0  0  0  0  0  0  0  0  0  0  0  0
  190.9490  175.3670  138.6930 O   0  0  0  0  0  0  0  0  0  0  0  0
  192.8570  176.7600  138.8140 C   0  0  0  0  0  0  0  0  0  0  0  0
  193.4710  176.5930  137.5400 N   0  0  0  0  0  1  0  0  0  0  0  0
  193.5540  177.1350  139.7940 O   0  0  0  0  0  0  0  0  0  0  0  0
  1 12  1  1  0  0  0
  1  8  1  0  0  0  0
  2 11  1  0  0  0  0
  2  1  1  0  0  0  0
  4  3  1  0  0  0  0
  5  6  1  0  0  0  0
  5 11  2  0  0  0  0
  7  2  2  0  0  0  0
  8  3  1  0  0  0  0
  9  5  1  0  0  0  0
 10  9  2  0  0  0  0
 10  7  1  0  0  0  0
 11  4  1  0  0  0  0
 12 14  1  0  0  0  0
 13 15  2  0  0  0  0
 14 17  2  0  0  0  0
 15 14  1  0  0  0  0
 16 18  1  0  0  0  0
 16 13  1  0  0  0  0
 18 12  2  0  0  0  0
 19 10  1  0  0  0  0
 20 19  1  0  0  0  0
 21 20  1  0  0  0  0
 22 21  2  0  0  0  0
 23 21  1  0  0  0  0
 23 25  2  0  0  0  0
 24 23  1  0  0  0  0
M  END
>  <MODEL>
6

>  <REMARK>
 VINA RESULT:      -7.3      2.975      7.060
  Name = 
  5 active torsions:
  status: ('A' for Active; 'I' for Inactive)
    1  A    between atoms: C_1  and  C_5
    2  A    between atoms: C_2  and  C_21
    3  A    between atoms: C_6  and  C_15
    4  A    between atoms: C_6  and  C_23
    5  A    between atoms: C_15  and  C_21
                            x       y       z     vdW  Elec       q    Type
                         _______ _______ _______ _____ _____    ______ ____

>  <TORSDO>
F 5

$$$$
=
 OpenBabel11052412413D

 25 27  0  0  1  0  0  0  0  0999 V2000
  187.3180  176.8850  144.4340 C   0  0  1  0  0  3  0  0  0  0  0  0
  186.2580  177.6720  143.6980 C   0  0  0  0  0  0  0  0  0  0  0  0
  188.9710  177.7560  142.7450 C   0  0  0  0  0  2  0  0  0  0  0  0
  187.8570  178.1160  141.7710 C   0  0  0  0  0  2  0  0  0  0  0  0
  185.5290  179.0650  141.8370 C   0  0  0  0  0  0  0  0  0  0  0  0
  185.7710  179.6910  140.6190 O   0  0  0  0  0  1  0  0  0  0  0  0
  184.9910  177.8060  144.2760 C   0  0  0  0  0  3  0  0  0  0  0  0
  188.5490  176.5580  143.5830 C   0  0  0  0  0  2  0  0  0  0  0  0
  184.2710  179.1900  142.4300 C   0  0  0  0  0  3  0  0  0  0  0  0
  183.9980  178.5570  143.6450 C   0  0  0  0  0  0  0  0  0  0  0  0
  186.5350  178.3130  142.4660 C   0  0  0  0  0  0  0  0  0  0  0  0
  187.6940  177.4940  145.7590 C   0  0  0  0  0  0  0  0  0  0  0  0
  188.2910  178.4170  148.4140 C   0  0  0  0  0  3  0  0  0  0  0  0
  189.0280  177.3090  146.3800 C   0  0  0  0  0  0  0  0  0  0  0  0
  189.2380  177.7350  147.7680 C   0  0  0  0  0  3  0  0  0  0  0  0
  187.0110  178.8500  147.7470 C   0  0  0  0  0  2  0  0  0  0  0  0
  189.9710  176.7640  145.7500 O   0  0  0  0  0  0  0  0  0  0  0  0
  186.7510  178.1640  146.4270 C   0  0  0  0  0  3  0  0  0  0  0  0
  182.6620  178.7120  144.2820 C   0  0  0  0  0  2  0  0  0  0  0  0
  181.6890  179.3480  143.3040 C   0  0  0  0  0  2  0  0  0  0  0  0
  180.4090  178.5830  143.2910 C   0  0  0  0  0  0  0  0  0  0  0  0
  179.8090  178.3690  144.3780 O   0  0  0  0  0  0  0  0  0  0  0  0
  179.8610  178.0570  142.0330 C   0  0  0  0  0  0  0  0  0  0  0  0
  179.9170  178.8410  140.8460 N   0  0  0  0  0  1  0  0  0  0  0  0
  179.3390  176.9110  141.9950 O   0  0  0  0  0  0  0  0  0  0  0  0
  1 12  1  1  0  0  0
  2  7  1  0  0  0  0
  2  1  1  0  0  0  0
  3  8  1  0  0  0  0
  4 11  1  0  0  0  0
  4  3  1  0  0  0  0
  5  9  2  0  0  0  0
  5 11  1  0  0  0  0
  6  5  1  0  0  0  0
  8  1  1  0  0  0  0
  9 10  1  0  0  0  0
 10  7  2  0  0  0  0
 10 19  1  0  0  0  0
 11  2  2  0  0  0  0
 12 14  1  0  0  0  0
 12 18  2  0  0  0  0
 14 15  1  0  0  0  0
 15 13  2  0  0  0  0
 16 13  1  0  0  0  0
 17 14  2  0  0  0  0
 18 16  1  0  0  0  0
 20 19  1  0  0  0  0
 21 20  1  0  0  0  0
 21 22  2  0  0  0  0
 23 21  1  0  0  0  0
 24 23  1  0  0  0  0
 25 23  2  0  0  0  0
M  END
>  <MODEL>
7

>  <REMARK>
 VINA RESULT:      -7.3      3.514      5.009
  Name = 
  5 active torsions:
  status: ('A' for Active; 'I' for Inactive)
    1  A    between atoms: C_1  and  C_5
    2  A    between atoms: C_2  and  C_21
    3  A    between atoms: C_6  and  C_15
    4  A    between atoms: C_6  and  C_23
    5  A    between atoms: C_15  and  C_21
                            x       y       z     vdW  Elec       q    Type
                         _______ _______ _______ _____ _____    ______ ____

>  <TORSDO>
F 5

$$$$
=
 OpenBabel11052412413D

 25 27  0  0  1  0  0  0  0  0999 V2000
  188.1340  178.4470  138.8950 C   0  0  1  0  0  3  0  0  0  0  0  0
  188.3320  178.0220  140.3320 C   0  0  0  0  0  0  0  0  0  0  0  0
  190.2130  177.1370  138.3440 C   0  0  0  0  0  2  0  0  0  0  0  0
  190.6560  177.1380  139.8010 C   0  0  0  0  0  2  0  0  0  0  0  0
  189.6250  176.9320  142.0850 C   0  0  0  0  0  0  0  0  0  0  0  0
  190.7700  176.2740  142.5210 O   0  0  0  0  0  1  0  0  0  0  0  0
  187.3120  178.2690  141.2570 C   0  0  0  0  0  3  0  0  0  0  0  0
  189.4130  178.3990  138.0530 C   0  0  0  0  0  2  0  0  0  0  0  0
  188.5950  177.1830  142.9940 C   0  0  0  0  0  3  0  0  0  0  0  0
  187.4420  177.8570  142.5840 C   0  0  0  0  0  0  0  0  0  0  0  0
  189.5010  177.3410  140.7470 C   0  0  0  0  0  0  0  0  0  0  0  0
  186.9880  177.7400  138.2210 C   0  0  0  0  0  0  0  0  0  0  0  0
  184.7810  176.2250  137.1770 C   0  0  0  0  0  3  0  0  0  0  0  0
  185.5920  178.2360  138.2770 C   0  0  0  0  0  0  0  0  0  0  0  0
  184.5060  177.3740  137.7960 C   0  0  0  0  0  3  0  0  0  0  0  0
  186.1910  175.7910  136.8710 C   0  0  0  0  0  2  0  0  0  0  0  0
  185.3190  179.3650  138.7590 O   0  0  0  0  0  0  0  0  0  0  0  0
  187.2440  176.5780  137.6120 C   0  0  0  0  0  3  0  0  0  0  0  0
  186.3390  178.1030  143.5530 C   0  0  0  0  0  2  0  0  0  0  0  0
  186.4970  177.1990  144.7640 C   0  0  0  0  0  2  0  0  0  0  0  0
  186.7100  178.0220  145.9890 C   0  0  0  0  0  0  0  0  0  0  0  0
  187.8270  177.9850  146.5690 O   0  0  0  0  0  0  0  0  0  0  0  0
  185.6240  178.8460  146.5370 C   0  0  0  0  0  0  0  0  0  0  0  0
  184.2770  178.6090  146.1410 N   0  0  0  0  0  1  0  0  0  0  0  0
  185.8760  179.7660  147.3610 O   0  0  0  0  0  0  0  0  0  0  0  0
  1 12  1  6  0  0  0
  1  2  1  0  0  0  0
  2 11  2  0  0  0  0
  2  7  1  0  0  0  0
  3  4  1  0  0  0  0
  4 11  1  0  0  0  0
  5  6  1  0  0  0  0
  5  9  2  0  0  0  0
  7 10  2  0  0  0  0
  8  3  1  0  0  0  0
  8  1  1  0  0  0  0
 10  9  1  0  0  0  0
 10 19  1  0  0  0  0
 11  5  1  0  0  0  0
 12 14  1  0  0  0  0
 13 15  2  0  0  0  0
 14 17  2  0  0  0  0
 15 14  1  0  0  0  0
 16 13  1  0  0  0  0
 16 18  1  0  0  0  0
 18 12  2  0  0  0  0
 19 20  1  0  0  0  0
 20 21  1  0  0  0  0
 21 23  1  0  0  0  0
 21 22  2  0  0  0  0
 23 25  2  0  0  0  0
 24 23  1  0  0  0  0
M  END
>  <MODEL>
8

>  <REMARK>
 VINA RESULT:      -7.0      2.163      5.272
  Name = 
  5 active torsions:
  status: ('A' for Active; 'I' for Inactive)
    1  A    between atoms: C_1  and  C_5
    2  A    between atoms: C_2  and  C_21
    3  A    between atoms: C_6  and  C_15
    4  A    between atoms: C_6  and  C_23
    5  A    between atoms: C_15  and  C_21
                            x       y       z     vdW  Elec       q    Type
                         _______ _______ _______ _____ _____    ______ ____

>  <TORSDO>
F 5

$$$$
=
 OpenBabel11052412413D

 25 27  0  0  1  0  0  0  0  0999 V2000
  188.3800  176.7030  144.4640 C   0  0  1  0  0  3  0  0  0  0  0  0
  187.6920  177.4070  143.3160 C   0  0  0  0  0  0  0  0  0  0  0  0
  190.5600  177.5110  143.4980 C   0  0  0  0  0  2  0  0  0  0  0  0
  189.9170  177.7720  142.1420 C   0  0  0  0  0  2  0  0  0  0  0  0
  187.7490  178.6500  141.2220 C   0  0  0  0  0  0  0  0  0  0  0  0
  188.4480  179.2020  140.1550 O   0  0  0  0  0  1  0  0  0  0  0  0
  186.2990  177.5390  143.3410 C   0  0  0  0  0  3  0  0  0  0  0  0
  189.8470  176.3590  144.1890 C   0  0  0  0  0  2  0  0  0  0  0  0
  186.3580  178.7760  141.2650 C   0  0  0  0  0  3  0  0  0  0  0  0
  185.6320  178.2160  142.3190 C   0  0  0  0  0  0  0  0  0  0  0  0
  188.4280  177.9730  142.2480 C   0  0  0  0  0  0  0  0  0  0  0  0
  188.2040  177.4090  145.7820 C   0  0  0  0  0  0  0  0  0  0  0  0
  187.7140  178.5210  148.3860 C   0  0  0  0  0  3  0  0  0  0  0  0
  189.1990  177.3260  146.8780 C   0  0  0  0  0  0  0  0  0  0  0  0
  188.8490  177.8460  148.2050 C   0  0  0  0  0  3  0  0  0  0  0  0
  186.7810  178.8510  147.2490 C   0  0  0  0  0  2  0  0  0  0  0  0
  190.3230  176.7890  146.7010 O   0  0  0  0  0  0  0  0  0  0  0  0
  187.0630  178.0740  145.9860 C   0  0  0  0  0  3  0  0  0  0  0  0
  184.1530  178.3720  142.3700 C   0  0  0  0  0  2  0  0  0  0  0  0
  183.5200  177.7450  141.1390 C   0  0  0  0  0  2  0  0  0  0  0  0
  183.0280  178.8120  140.2200 C   0  0  0  0  0  0  0  0  0  0  0  0
  181.8790  179.2950  140.3980 O   0  0  0  0  0  0  0  0  0  0  0  0
  183.8560  179.2790  139.1000 C   0  0  0  0  0  0  0  0  0  0  0  0
  184.3600  178.3490  138.1470 N   0  0  0  0  0  1  0  0  0  0  0  0
  184.1250  180.5030  138.9740 O   0  0  0  0  0  0  0  0  0  0  0  0
  1 12  1  1  0  0  0
  2  7  1  0  0  0  0
  2  1  1  0  0  0  0
  3  8  1  0  0  0  0
  4 11  1  0  0  0  0
  4  3  1  0  0  0  0
  5  9  2  0  0  0  0
  5 11  1  0  0  0  0
  6  5  1  0  0  0  0
  8  1  1  0  0  0  0
  9 10  1  0  0  0  0
 10 19  1  0  0  0  0
 10  7  2  0  0  0  0
 11  2  2  0  0  0  0
 12 18  2  0  0  0  0
 12 14  1  0  0  0  0
 14 15  1  0  0  0  0
 15 13  2  0  0  0  0
 16 13  1  0  0  0  0
 17 14  2  0  0  0  0
 18 16  1  0  0  0  0
 20 19  1  0  0  0  0
 21 22  2  0  0  0  0
 21 20  1  0  0  0  0
 23 21  1  0  0  0  0
 24 23  1  0  0  0  0
 25 23  2  0  0  0  0
M  END
>  <MODEL>
9

>  <REMARK>
 VINA RESULT:      -7.0      2.751      5.142
  Name = 
  5 active torsions:
  status: ('A' for Active; 'I' for Inactive)
    1  A    between atoms: C_1  and  C_5
    2  A    between atoms: C_2  and  C_21
    3  A    between atoms: C_6  and  C_15
    4  A    between atoms: C_6  and  C_23
    5  A    between atoms: C_15  and  C_21
                            x       y       z     vdW  Elec       q    Type
                         _______ _______ _______ _____ _____    ______ ____

>  <TORSDO>
F 5

$$$$
