=
 OpenBabel11052416003D

 34 39  0  0  1  0  0  0  0  0999 V2000
  188.0170  177.1910  145.5340 C   0  0  2  0  0  3  0  0  0  0  0  0
  191.4850  177.1150  144.2550 C   0  0  0  0  0  3  0  0  0  0  0  0
  190.7690  176.8480  146.5260 C   0  0  0  0  0  2  0  0  0  0  0  0
  185.8570  178.3320  146.1940 C   0  0  0  0  0  0  0  0  0  0  0  0
  186.5480  177.3320  145.2500 C   0  0  0  0  0  2  0  0  0  0  0  0
  187.6120  178.0120  147.7900 C   0  0  0  0  0  0  0  0  0  0  0  0
  188.4260  178.4750  148.8110 C   0  0  0  0  0  3  0  0  0  0  0  0
  186.3810  178.6080  147.3630 N   0  0  0  0  0  0  0  0  0  0  0  0
  189.6530  177.2740  147.3630 N   0  0  0  0  0  0  0  0  0  0  0  0
  188.3900  177.3110  146.9310 C   0  0  0  0  0  0  0  0  0  0  0  0
  189.7040  177.9900  148.5080 C   0  0  0  0  0  3  0  0  0  0  0  0
  191.5840  177.2660  142.8030 C   0  0  0  0  0  3  0  0  0  0  0  0
  190.6500  177.1680  141.8510 C   0  0  0  0  0  0  0  0  0  0  0  0
  189.2290  176.8370  142.0750 C   0  0  0  0  0  3  0  0  0  0  0  0
  190.4210  177.0200  145.0480 C   0  0  2  0  0  3  0  0  0  0  0  0
  188.5400  176.8160  143.2090 C   0  0  0  0  0  3  0  0  0  0  0  0
  188.9770  177.0700  144.5920 C   0  0  0  0  0  0  0  0  0  0  0  0
  191.0860  177.4010  140.4610 C   0  0  0  0  0  0  0  0  0  0  0  0
  190.1540  177.6260  139.4510 O   0  0  0  0  0  0  0  0  0  0  0  0
  192.3160  177.3760  140.1690 O   0  0  0  0  0  1  0  0  0  0  0  0
  184.6720  178.9870  145.8320 O   0  0  0  0  0  0  0  0  0  0  0  0
  182.0450  178.7260  143.2510 C   0  0  0  0  0  3  0  0  0  0  0  0
  184.8010  179.1510  143.3800 C   0  0  0  0  0  3  0  0  0  0  0  0
  182.6940  178.3230  139.6980 N   0  0  0  0  0  0  0  0  0  0  0  0
  184.2280  179.1430  139.4090 P   0  0  2  0  0  0  0  0  0  0  0  0
  182.0190  179.0250  140.7830 C   0  0  0  0  0  2  0  0  0  0  0  0
  185.1090  178.2970  138.5140 O   0  0  0  0  0  0  0  0  0  0  0  0
  182.7790  178.8900  142.0730 C   0  0  0  0  0  0  0  0  0  0  0  0
  181.8980  178.4450  138.4960 C   0  0  0  0  0  1  0  0  0  0  0  0
  184.9560  179.2160  140.9660 O   0  0  0  0  0  0  0  0  0  0  0  0
  184.1790  179.0810  142.1300 C   0  0  0  0  0  0  0  0  0  0  0  0
  184.0360  180.7040  138.7850 O   0  0  0  0  0  1  0  0  0  0  0  0
  184.0710  178.9700  144.5640 C   0  0  0  0  0  0  0  0  0  0  0  0
  182.6980  178.7400  144.4900 C   0  0  0  0  0  3  0  0  0  0  0  0
  1  5  1  6  0  0  0
  1 10  1  0  0  0  0
  3  9  1  0  0  0  0
  4  8  2  0  0  0  0
  5  4  1  0  0  0  0
  6  7  1  0  0  0  0
  8  6  1  0  0  0  0
  9 11  1  0  0  0  0
 10  9  1  0  0  0  0
 10  6  2  0  0  0  0
 11  7  2  0  0  0  0
 12  2  2  0  0  0  0
 13 14  2  0  0  0  0
 13 12  1  0  0  0  0
 14 16  1  0  0  0  0
 15  2  1  6  0  0  0
 15  3  1  0  0  0  0
 16 17  2  0  0  0  0
 17 15  1  0  0  0  0
 17  1  1  0  0  0  0
 18 13  1  0  0  0  0
 19 18  2  0  0  0  0
 20 18  1  0  0  0  0
 21  4  1  0  0  0  0
 22 34  1  0  0  0  0
 23 33  1  0  0  0  0
 24 26  1  0  0  0  0
 25 27  2  6  0  0  0
 25 24  1  0  0  0  0
 25 30  1  0  0  0  0
 26 28  1  0  0  0  0
 28 31  1  0  0  0  0
 28 22  2  0  0  0  0
 29 24  1  0  0  0  0
 30 31  1  0  0  0  0
 31 23  2  0  0  0  0
 32 25  1  0  0  0  0
 33 21  1  0  0  0  0
 34 33  2  0  0  0  0
M  END
>  <MODEL>
1

>  <REMARK>
 VINA RESULT:     -12.4      0.000      0.000
  Name = 
  3 active torsions:
  status: ('A' for Active; 'I' for Inactive)
    1  A    between atoms: C_3  and  C_25
    2  A    between atoms: C_8  and  O_18
    3  A    between atoms: O_18  and  C_30
                            x       y       z     vdW  Elec       q    Type
                         _______ _______ _______ _____ _____    ______ ____

>  <TORSDO>
F 3

$$$$
=
 OpenBabel11052416003D

 34 39  0  0  1  0  0  0  0  0999 V2000
  188.0500  177.1580  145.4720 C   0  0  2  0  0  3  0  0  0  0  0  0
  191.5390  177.0380  144.2540 C   0  0  0  0  0  3  0  0  0  0  0  0
  190.7790  176.7690  146.5100 C   0  0  0  0  0  2  0  0  0  0  0  0
  185.8960  178.3260  146.1000 C   0  0  0  0  0  0  0  0  0  0  0  0
  186.5880  177.3210  145.1630 C   0  0  0  0  0  2  0  0  0  0  0  0
  187.6170  177.9730  147.7260 C   0  0  0  0  0  0  0  0  0  0  0  0
  188.4200  178.4190  148.7630 C   0  0  0  0  0  3  0  0  0  0  0  0
  186.4030  178.5890  147.2800 N   0  0  0  0  0  0  0  0  0  0  0  0
  189.6560  177.2080  147.3310 N   0  0  0  0  0  0  0  0  0  0  0  0
  188.4010  177.2640  146.8770 C   0  0  0  0  0  0  0  0  0  0  0  0
  189.6960  177.9160  148.4790 C   0  0  0  0  0  3  0  0  0  0  0  0
  191.6660  177.1950  142.8050 C   0  0  0  0  0  3  0  0  0  0  0  0
  190.7470  177.1150  141.8360 C   0  0  0  0  0  0  0  0  0  0  0  0
  189.3180  176.8040  142.0340 C   0  0  0  0  0  3  0  0  0  0  0  0
  190.4600  176.9540  145.0280 C   0  0  1  0  0  3  0  0  0  0  0  0
  188.6090  176.7870  143.1550 C   0  0  0  0  0  3  0  0  0  0  0  0
  189.0250  177.0280  144.5460 C   0  0  0  0  0  0  0  0  0  0  0  0
  191.2110  177.3500  140.4550 C   0  0  0  0  0  0  0  0  0  0  0  0
  190.3010  177.4550  139.4060 O   0  0  0  0  0  0  0  0  0  0  0  0
  192.4490  177.4340  140.2070 O   0  0  0  0  0  1  0  0  0  0  0  0
  184.7270  179.0000  145.7210 O   0  0  0  0  0  0  0  0  0  0  0  0
  184.1820  178.3710  142.1240 C   0  0  0  0  0  3  0  0  0  0  0  0
  182.6760  179.0810  144.3640 C   0  0  0  0  0  3  0  0  0  0  0  0
  181.1540  179.2590  140.3240 N   0  0  0  0  0  0  0  0  0  0  0  0
  179.8550  179.1480  141.5110 P   0  0  2  0  0  0  0  0  0  0  0  0
  182.1620  178.2680  140.6800 C   0  0  0  0  0  2  0  0  0  0  0  0
  178.9310  180.3390  141.3830 O   0  0  0  0  0  0  0  0  0  0  0  0
  182.8100  178.6020  141.9940 C   0  0  0  0  0  0  0  0  0  0  0  0
  180.5970  178.9150  139.0320 C   0  0  0  0  0  1  0  0  0  0  0  0
  180.6700  179.2600  143.0230 O   0  0  0  0  0  0  0  0  0  0  0  0
  182.0450  178.9860  143.1200 C   0  0  0  0  0  0  0  0  0  0  0  0
  179.0000  177.6910  141.4210 O   0  0  0  0  0  1  0  0  0  0  0  0
  184.0550  178.8670  144.4970 C   0  0  0  0  0  0  0  0  0  0  0  0
  184.8040  178.5300  143.3690 C   0  0  0  0  0  3  0  0  0  0  0  0
  1  5  1  6  0  0  0
  1 10  1  0  0  0  0
  3  9  1  0  0  0  0
  4  8  2  0  0  0  0
  5  4  1  0  0  0  0
  6  7  1  0  0  0  0
  8  6  1  0  0  0  0
  9 11  1  0  0  0  0
 10  9  1  0  0  0  0
 10  6  2  0  0  0  0
 11  7  2  0  0  0  0
 12  2  2  0  0  0  0
 13 14  2  0  0  0  0
 13 12  1  0  0  0  0
 14 16  1  0  0  0  0
 15  2  1  1  0  0  0
 15  3  1  0  0  0  0
 16 17  2  0  0  0  0
 17 15  1  0  0  0  0
 17  1  1  0  0  0  0
 18 13  1  0  0  0  0
 19 18  2  0  0  0  0
 20 18  1  0  0  0  0
 21  4  1  0  0  0  0
 22 34  1  0  0  0  0
 23 33  1  0  0  0  0
 24 26  1  0  0  0  0
 24 25  1  0  0  0  0
 25 27  2  6  0  0  0
 25 30  1  0  0  0  0
 26 28  1  0  0  0  0
 28 22  2  0  0  0  0
 28 31  1  0  0  0  0
 29 24  1  0  0  0  0
 30 31  1  0  0  0  0
 31 23  2  0  0  0  0
 32 25  1  0  0  0  0
 33 21  1  0  0  0  0
 34 33  2  0  0  0  0
M  END
>  <MODEL>
2

>  <REMARK>
 VINA RESULT:     -11.7      1.917      2.220
  Name = 
  3 active torsions:
  status: ('A' for Active; 'I' for Inactive)
    1  A    between atoms: C_3  and  C_25
    2  A    between atoms: C_8  and  O_18
    3  A    between atoms: O_18  and  C_30
                            x       y       z     vdW  Elec       q    Type
                         _______ _______ _______ _____ _____    ______ ____

>  <TORSDO>
F 3

$$$$
=
 OpenBabel11052416003D

 34 39  0  0  1  0  0  0  0  0999 V2000
  187.6670  177.3610  143.5330 C   0  0  2  0  0  3  0  0  0  0  0  0
  188.0870  177.5720  147.2000 C   0  0  0  0  0  3  0  0  0  0  0  0
  186.0440  177.7490  145.9600 C   0  0  0  0  0  2  0  0  0  0  0  0
  187.8370  178.2400  141.1670 C   0  0  0  0  0  0  0  0  0  0  0  0
  188.2910  177.1730  142.1790 C   0  0  0  0  0  2  0  0  0  0  0  0
  185.8730  178.6270  142.4790 C   0  0  0  0  0  0  0  0  0  0  0  0
  184.8700  179.4590  142.9510 C   0  0  0  0  0  3  0  0  0  0  0  0
  186.7070  178.8790  141.3420 N   0  0  0  0  0  0  0  0  0  0  0  0
  185.6230  178.1690  144.6290 N   0  0  0  0  0  0  0  0  0  0  0  0
  186.3120  177.8810  143.5220 C   0  0  0  0  0  0  0  0  0  0  0  0
  184.7410  179.1410  144.3080 C   0  0  0  0  0  3  0  0  0  0  0  0
  189.4660  177.3770  147.6500 C   0  0  0  0  0  2  0  0  0  0  0  0
  190.5320  176.8900  147.0060 C   0  0  0  0  0  0  0  0  0  0  0  0
  190.5390  176.3850  145.6190 C   0  0  0  0  0  3  0  0  0  0  0  0
  187.5500  177.4920  145.9850 C   0  0  0  0  0  0  0  0  0  0  0  0
  189.6220  176.5230  144.6700 C   0  0  0  0  0  3  0  0  0  0  0  0
  188.3050  177.1800  144.7090 C   0  0  0  0  0  0  0  0  0  0  0  0
  191.8030  176.8470  147.7550 C   0  0  0  0  0  0  0  0  0  0  0  0
  192.7690  175.8870  147.4640 O   0  0  0  0  0  0  0  0  0  0  0  0
  192.0160  177.6720  148.6900 O   0  0  0  0  0  1  0  0  0  0  0  0
  188.6160  178.5730  140.0500 O   0  0  0  0  0  0  0  0  0  0  0  0
  189.3790  175.8820  137.6390 C   0  0  0  0  0  3  0  0  0  0  0  0
  190.7680  177.6410  139.3030 C   0  0  0  0  0  3  0  0  0  0  0  0
  192.6310  174.2960  137.2990 N   0  0  0  0  0  0  0  0  0  0  0  0
  193.8040  175.5380  137.7340 P   0  0  2  0  0  0  0  0  0  0  0  0
  191.4860  174.9650  136.6920 C   0  0  0  0  0  2  0  0  0  0  0  0
  194.8700  174.9540  138.6350 O   0  0  0  0  0  1  0  0  0  0  0  0
  190.7750  175.8360  137.6890 C   0  0  0  0  0  0  0  0  0  0  0  0
  193.2480  173.4360  136.3120 C   0  0  0  0  0  1  0  0  0  0  0  0
  192.8860  176.6680  138.6510 O   0  0  0  0  0  0  0  0  0  0  0  0
  191.4840  176.7070  138.5480 C   0  0  0  0  0  0  0  0  0  0  0  0
  194.4850  176.3030  136.3870 O   0  0  0  0  0  0  0  0  0  0  0  0
  189.3670  177.6800  139.2690 C   0  0  0  0  0  0  0  0  0  0  0  0
  188.6800  176.7860  138.4500 C   0  0  0  0  0  3  0  0  0  0  0  0
  1  5  1  6  0  0  0
  1 17  1  0  0  0  0
  2 12  1  0  0  0  0
  3 15  1  0  0  0  0
  4  8  2  0  0  0  0
  4  5  1  0  0  0  0
  6  7  1  0  0  0  0
  6 10  2  0  0  0  0
  7 11  2  0  0  0  0
  8  6  1  0  0  0  0
  9  3  1  0  0  0  0
 10  1  1  0  0  0  0
 10  9  1  0  0  0  0
 11  9  1  0  0  0  0
 13 12  1  0  0  0  0
 13 18  1  0  0  0  0
 14 13  2  0  0  0  0
 15  2  2  0  0  0  0
 16 17  2  0  0  0  0
 16 14  1  0  0  0  0
 17 15  1  0  0  0  0
 18 20  1  0  0  0  0
 19 18  2  0  0  0  0
 21  4  1  0  0  0  0
 22 28  2  0  0  0  0
 22 34  1  0  0  0  0
 24 25  1  0  0  0  0
 25 32  2  6  0  0  0
 25 27  1  0  0  0  0
 25 30  1  0  0  0  0
 26 24  1  0  0  0  0
 26 28  1  0  0  0  0
 28 31  1  0  0  0  0
 29 24  1  0  0  0  0
 31 30  1  0  0  0  0
 31 23  2  0  0  0  0
 33 23  1  0  0  0  0
 33 21  1  0  0  0  0
 34 33  2  0  0  0  0
M  END
>  <MODEL>
3

>  <REMARK>
 VINA RESULT:     -11.0      3.975      7.463
  Name = 
  3 active torsions:
  status: ('A' for Active; 'I' for Inactive)
    1  A    between atoms: C_3  and  C_25
    2  A    between atoms: C_8  and  O_18
    3  A    between atoms: O_18  and  C_30
                            x       y       z     vdW  Elec       q    Type
                         _______ _______ _______ _____ _____    ______ ____

>  <TORSDO>
F 3

$$$$
=
 OpenBabel11052416003D

 34 39  0  0  1  0  0  0  0  0999 V2000
  187.1610  177.6310  143.7460 C   0  0  2  0  0  3  0  0  0  0  0  0
  187.8050  177.6790  147.3860 C   0  0  0  0  0  3  0  0  0  0  0  0
  185.6900  177.9030  146.2830 C   0  0  0  0  0  2  0  0  0  0  0  0
  187.1840  178.6170  141.4150 C   0  0  0  0  0  0  0  0  0  0  0  0
  187.7010  177.5070  142.3490 C   0  0  0  0  0  2  0  0  0  0  0  0
  185.3040  178.9360  142.8620 C   0  0  0  0  0  0  0  0  0  0  0  0
  184.3310  179.7410  143.4320 C   0  0  0  0  0  3  0  0  0  0  0  0
  186.0650  179.2430  141.6880 N   0  0  0  0  0  0  0  0  0  0  0  0
  185.1870  178.3810  145.0010 N   0  0  0  0  0  0  0  0  0  0  0  0
  185.8070  178.1460  143.8420 C   0  0  0  0  0  0  0  0  0  0  0  0
  184.2860  179.3620  144.7790 C   0  0  0  0  0  3  0  0  0  0  0  0
  189.2100  177.4710  147.7410 C   0  0  0  0  0  2  0  0  0  0  0  0
  190.2350  177.0170  147.0120 C   0  0  0  0  0  0  0  0  0  0  0  0
  190.1570  176.5750  145.6060 C   0  0  0  0  0  3  0  0  0  0  0  0
  187.1950  177.6510  146.2040 C   0  0  0  0  0  0  0  0  0  0  0  0
  189.1840  176.7520  144.7220 C   0  0  0  0  0  3  0  0  0  0  0  0
  187.8710  177.4010  144.8710 C   0  0  0  0  0  0  0  0  0  0  0  0
  191.5490  176.9470  147.6790 C   0  0  0  0  0  0  0  0  0  0  0  0
  191.8490  177.7840  148.7510 O   0  0  0  0  0  1  0  0  0  0  0  0
  192.4280  176.1370  147.2650 O   0  0  0  0  0  0  0  0  0  0  0  0
  187.8930  179.0020  140.2690 O   0  0  0  0  0  0  0  0  0  0  0  0
  188.0880  176.7180  137.3750 C   0  0  0  0  0  3  0  0  0  0  0  0
  189.8080  177.8150  139.2800 C   0  0  0  0  0  3  0  0  0  0  0  0
  190.9450  174.6030  136.6220 N   0  0  0  0  0  0  0  0  0  0  0  0
  192.3480  175.4790  137.2330 P   0  0  2  0  0  0  0  0  0  0  0  0
  189.9620  175.5910  136.1940 C   0  0  0  0  0  2  0  0  0  0  0  0
  193.2720  174.5320  137.9690 O   0  0  0  0  0  1  0  0  0  0  0  0
  189.4450  176.3830  137.3610 C   0  0  0  0  0  0  0  0  0  0  0  0
  191.3730  173.8390  135.4700 C   0  0  0  0  0  1  0  0  0  0  0  0
  191.6810  176.5760  138.3790 O   0  0  0  0  0  0  0  0  0  0  0  0
  190.3170  176.9160  138.3380 C   0  0  0  0  0  0  0  0  0  0  0  0
  193.1720  176.3310  136.0260 O   0  0  0  0  0  0  0  0  0  0  0  0
  188.4450  178.1410  139.3090 C   0  0  0  0  0  0  0  0  0  0  0  0
  187.5890  177.5740  138.3650 C   0  0  0  0  0  3  0  0  0  0  0  0
  1  5  1  6  0  0  0
  1 10  1  0  0  0  0
  1 17  1  0  0  0  0
  2 12  1  0  0  0  0
  4  8  2  0  0  0  0
  4  5  1  0  0  0  0
  6  7  1  0  0  0  0
  6 10  2  0  0  0  0
  7 11  2  0  0  0  0
  8  6  1  0  0  0  0
  9  3  1  0  0  0  0
 10  9  1  0  0  0  0
 11  9  1  0  0  0  0
 13 18  1  0  0  0  0
 13 12  1  0  0  0  0
 14 13  2  0  0  0  0
 15  3  1  0  0  0  0
 15  2  2  0  0  0  0
 16 17  2  0  0  0  0
 16 14  1  0  0  0  0
 17 15  1  0  0  0  0
 18 19  1  0  0  0  0
 20 18  2  0  0  0  0
 21  4  1  0  0  0  0
 22 34  1  0  0  0  0
 23 33  1  0  0  0  0
 24 25  1  0  0  0  0
 25 32  2  6  0  0  0
 25 27  1  0  0  0  0
 25 30  1  0  0  0  0
 26 24  1  0  0  0  0
 26 28  1  0  0  0  0
 28 22  2  0  0  0  0
 28 31  1  0  0  0  0
 29 24  1  0  0  0  0
 31 30  1  0  0  0  0
 31 23  2  0  0  0  0
 33 21  1  0  0  0  0
 34 33  2  0  0  0  0
M  END
>  <MODEL>
4

>  <REMARK>
 VINA RESULT:     -10.7      3.859      6.883
  Name = 
  3 active torsions:
  status: ('A' for Active; 'I' for Inactive)
    1  A    between atoms: C_3  and  C_25
    2  A    between atoms: C_8  and  O_18
    3  A    between atoms: O_18  and  C_30
                            x       y       z     vdW  Elec       q    Type
                         _______ _______ _______ _____ _____    ______ ____

>  <TORSDO>
F 3

$$$$
=
 OpenBabel11052416003D

 34 39  0  0  1  0  0  0  0  0999 V2000
  188.6630  176.9530  143.5130 C   0  0  2  0  0  3  0  0  0  0  0  0
  191.3970  177.1830  141.0350 C   0  0  0  0  0  3  0  0  0  0  0  0
  191.5510  176.4130  143.2990 C   0  0  0  0  0  2  0  0  0  0  0  0
  186.9970  177.9070  145.1600 C   0  0  0  0  0  0  0  0  0  0  0  0
  187.2090  177.1450  143.8400 C   0  0  0  0  0  2  0  0  0  0  0  0
  189.1860  177.2500  145.8730 C   0  0  0  0  0  0  0  0  0  0  0  0
  190.3530  177.4790  146.5830 C   0  0  0  0  0  3  0  0  0  0  0  0
  187.9360  177.9190  146.0750 N   0  0  0  0  0  0  0  0  0  0  0  0
  190.8610  176.6370  144.5640 N   0  0  0  0  0  0  0  0  0  0  0  0
  189.5350  176.7610  144.6580 C   0  0  0  0  0  0  0  0  0  0  0  0
  191.3860  177.0810  145.7260 C   0  0  0  0  0  3  0  0  0  0  0  0
  190.9650  177.6530  139.7180 C   0  0  0  0  0  3  0  0  0  0  0  0
  189.7410  177.7630  139.1910 C   0  0  0  0  0  0  0  0  0  0  0  0
  188.4820  177.3840  139.8610 C   0  0  0  0  0  3  0  0  0  0  0  0
  190.6970  176.9070  142.1320 C   0  0  1  0  0  3  0  0  0  0  0  0
  188.2610  177.1070  141.1400 C   0  0  0  0  0  3  0  0  0  0  0  0
  189.1960  177.0500  142.2750 C   0  0  0  0  0  0  0  0  0  0  0  0
  189.6500  178.3020  137.8200 C   0  0  0  0  0  0  0  0  0  0  0  0
  189.0310  179.5250  137.5760 O   0  0  0  0  0  1  0  0  0  0  0  0
  190.1170  177.6420  136.8470 O   0  0  0  0  0  0  0  0  0  0  0  0
  185.8180  178.6200  145.4170 O   0  0  0  0  0  0  0  0  0  0  0  0
  182.2970  178.9620  144.3580 C   0  0  0  0  0  3  0  0  0  0  0  0
  184.8020  178.6140  143.1750 C   0  0  0  0  0  3  0  0  0  0  0  0
  181.0800  178.2110  141.0170 N   0  0  0  0  0  0  0  0  0  0  0  0
  182.4310  178.5580  139.9390 P   0  0  2  0  0  0  0  0  0  0  0  0
  181.1720  179.1270  142.1480 C   0  0  0  0  0  2  0  0  0  0  0  0
  182.5720  177.4560  138.9110 O   0  0  0  0  0  0  0  0  0  0  0  0
  182.4010  178.8550  142.9680 C   0  0  0  0  0  0  0  0  0  0  0  0
  179.8580  178.4850  140.2920 C   0  0  0  0  0  1  0  0  0  0  0  0
  183.8060  178.5080  140.9730 O   0  0  0  0  0  0  0  0  0  0  0  0
  183.6640  178.6540  142.3640 C   0  0  0  0  0  0  0  0  0  0  0  0
  182.3150  180.0770  139.2020 O   0  0  0  0  0  1  0  0  0  0  0  0
  184.7010  178.7040  144.5710 C   0  0  0  0  0  0  0  0  0  0  0  0
  183.4440  178.8590  145.1550 C   0  0  0  0  0  3  0  0  0  0  0  0
  1  5  1  1  0  0  0
  1 10  1  0  0  0  0
  3  9  1  0  0  0  0
  4 21  1  0  0  0  0
  4  8  2  0  0  0  0
  5  4  1  0  0  0  0
  6  8  1  0  0  0  0
  6  7  1  0  0  0  0
  9 10  1  0  0  0  0
  9 11  1  0  0  0  0
 10  6  2  0  0  0  0
 11  7  2  0  0  0  0
 12  2  2  0  0  0  0
 13 12  1  0  0  0  0
 13 14  2  0  0  0  0
 14 16  1  0  0  0  0
 15  2  1  1  0  0  0
 15 17  1  0  0  0  0
 15  3  1  0  0  0  0
 16 17  2  0  0  0  0
 17  1  1  0  0  0  0
 18 13  1  0  0  0  0
 19 18  1  0  0  0  0
 20 18  2  0  0  0  0
 22 34  1  0  0  0  0
 23 33  1  0  0  0  0
 24 26  1  0  0  0  0
 25 27  2  6  0  0  0
 25 30  1  0  0  0  0
 25 24  1  0  0  0  0
 26 28  1  0  0  0  0
 28 22  2  0  0  0  0
 29 24  1  0  0  0  0
 30 31  1  0  0  0  0
 31 28  1  0  0  0  0
 31 23  2  0  0  0  0
 32 25  1  0  0  0  0
 33 34  2  0  0  0  0
 33 21  1  0  0  0  0
M  END
>  <MODEL>
5

>  <REMARK>
 VINA RESULT:     -10.1      1.713      2.387
  Name = 
  3 active torsions:
  status: ('A' for Active; 'I' for Inactive)
    1  A    between atoms: C_3  and  C_25
    2  A    between atoms: C_8  and  O_18
    3  A    between atoms: O_18  and  C_30
                            x       y       z     vdW  Elec       q    Type
                         _______ _______ _______ _____ _____    ______ ____

>  <TORSDO>
F 3

$$$$
=
 OpenBabel11052416003D

 34 39  0  0  1  0  0  0  0  0999 V2000
  182.9790  179.0940  141.7640 C   0  0  2  0  0  3  0  0  0  0  0  0
  182.8610  177.8000  138.3030 C   0  0  0  0  0  3  0  0  0  0  0  0
  181.0170  178.5500  139.6350 C   0  0  0  0  0  2  0  0  0  0  0  0
  183.2140  178.8690  144.2730 C   0  0  0  0  0  0  0  0  0  0  0  0
  183.7970  179.4520  142.9730 C   0  0  0  0  0  2  0  0  0  0  0  0
  181.0670  178.7210  143.2260 C   0  0  0  0  0  0  0  0  0  0  0  0
  179.8310  178.1150  143.0650 C   0  0  0  0  0  3  0  0  0  0  0  0
  181.9440  178.5550  144.3460 N   0  0  0  0  0  0  0  0  0  0  0  0
  180.6730  178.6390  141.0500 N   0  0  0  0  0  0  0  0  0  0  0  0
  181.5480  179.0040  141.9900 C   0  0  0  0  0  0  0  0  0  0  0  0
  179.6180  178.0810  141.6820 C   0  0  0  0  0  3  0  0  0  0  0  0
  184.1750  177.4660  137.7510 C   0  0  0  0  0  3  0  0  0  0  0  0
  185.4040  177.7830  138.1730 C   0  0  0  0  0  0  0  0  0  0  0  0
  185.7170  178.6170  139.3500 C   0  0  0  0  0  3  0  0  0  0  0  0
  182.5220  178.3510  139.4650 C   0  0  1  0  0  3  0  0  0  0  0  0
  184.9240  179.0040  140.3410 C   0  0  0  0  0  3  0  0  0  0  0  0
  183.4880  178.7640  140.5570 C   0  0  0  0  0  0  0  0  0  0  0  0
  186.5360  177.2600  137.3840 C   0  0  0  0  0  0  0  0  0  0  0  0
  186.6850  175.8920  137.1750 O   0  0  0  0  0  1  0  0  0  0  0  0
  187.3990  178.0540  136.9100 O   0  0  0  0  0  0  0  0  0  0  0  0
  184.0160  178.6390  145.4000 O   0  0  0  0  0  0  0  0  0  0  0  0
  187.4020  177.8760  146.6560 C   0  0  0  0  0  3  0  0  0  0  0  0
  186.0530  177.9320  144.2140 C   0  0  0  0  0  3  0  0  0  0  0  0
  190.3430  177.5390  144.5480 N   0  0  0  0  0  0  0  0  0  0  0  0
  189.7450  176.9270  143.0080 P   0  0  2  0  0  0  0  0  0  0  0  0
  189.4780  177.0120  145.5970 C   0  0  0  0  0  2  0  0  0  0  0  0
  190.4000  177.6690  141.8630 O   0  0  0  0  0  0  0  0  0  0  0  0
  188.0840  177.5600  145.4780 C   0  0  0  0  0  0  0  0  0  0  0  0
  191.6790  177.0180  144.7390 C   0  0  0  0  0  1  0  0  0  0  0  0
  188.0730  177.3330  143.0240 O   0  0  0  0  0  0  0  0  0  0  0  0
  187.4130  177.6100  144.2350 C   0  0  0  0  0  0  0  0  0  0  0  0
  189.9330  175.2530  142.8440 O   0  0  0  0  0  1  0  0  0  0  0  0
  185.3680  178.2660  145.3910 C   0  0  0  0  0  0  0  0  0  0  0  0
  186.0540  178.2540  146.6050 C   0  0  0  0  0  3  0  0  0  0  0  0
  1 10  1  0  0  0  0
  1  5  1  1  0  0  0
  3  9  1  0  0  0  0
  4  8  2  0  0  0  0
  4 21  1  0  0  0  0
  5  4  1  0  0  0  0
  6  8  1  0  0  0  0
  7  6  1  0  0  0  0
  9 11  1  0  0  0  0
  9 10  1  0  0  0  0
 10  6  2  0  0  0  0
 11  7  2  0  0  0  0
 12 13  1  0  0  0  0
 12  2  2  0  0  0  0
 13 14  2  0  0  0  0
 14 16  1  0  0  0  0
 15  2  1  1  0  0  0
 15  3  1  0  0  0  0
 15 17  1  0  0  0  0
 16 17  2  0  0  0  0
 17  1  1  0  0  0  0
 18 13  1  0  0  0  0
 19 18  1  0  0  0  0
 20 18  2  0  0  0  0
 23 31  2  0  0  0  0
 23 33  1  0  0  0  0
 24 29  1  0  0  0  0
 24 26  1  0  0  0  0
 25 27  2  6  0  0  0
 25 30  1  0  0  0  0
 25 24  1  0  0  0  0
 28 26  1  0  0  0  0
 28 22  2  0  0  0  0
 30 31  1  0  0  0  0
 31 28  1  0  0  0  0
 32 25  1  0  0  0  0
 33 21  1  0  0  0  0
 33 34  2  0  0  0  0
 34 22  1  0  0  0  0
M  END
>  <MODEL>
6

>  <REMARK>
 VINA RESULT:      -9.4      2.619      7.445
  Name = 
  3 active torsions:
  status: ('A' for Active; 'I' for Inactive)
    1  A    between atoms: C_3  and  C_25
    2  A    between atoms: C_8  and  O_18
    3  A    between atoms: O_18  and  C_30
                            x       y       z     vdW  Elec       q    Type
                         _______ _______ _______ _____ _____    ______ ____

>  <TORSDO>
F 3

$$$$
=
 OpenBabel11052416003D

 34 39  0  0  1  0  0  0  0  0999 V2000
  188.4770  178.0190  141.9470 C   0  0  2  0  0  3  0  0  0  0  0  0
  186.0560  178.0620  144.7410 C   0  0  0  0  0  3  0  0  0  0  0  0
  188.4400  177.8780  144.8890 C   0  0  0  0  0  2  0  0  0  0  0  0
  189.6660  176.9620  139.9810 C   0  0  0  0  0  0  0  0  0  0  0  0
  188.7290  178.0810  140.4670 C   0  0  0  0  0  2  0  0  0  0  0  0
  190.5420  176.7530  142.1990 C   0  0  0  0  0  0  0  0  0  0  0  0
  191.0950  176.0000  143.2220 C   0  0  0  0  0  3  0  0  0  0  0  0
  190.4950  176.3840  140.8160 N   0  0  0  0  0  0  0  0  0  0  0  0
  189.5370  177.3780  144.0680 N   0  0  0  0  0  0  0  0  0  0  0  0
  189.5960  177.5550  142.7460 C   0  0  0  0  0  0  0  0  0  0  0  0
  190.4370  176.4220  144.3830 C   0  0  0  0  0  3  0  0  0  0  0  0
  184.6650  178.2330  144.3180 C   0  0  0  0  0  2  0  0  0  0  0  0
  184.1540  178.6280  143.1460 C   0  0  0  0  0  0  0  0  0  0  0  0
  184.9360  179.0280  141.9600 C   0  0  0  0  0  3  0  0  0  0  0  0
  187.1860  178.0750  144.0390 C   0  0  0  0  0  0  0  0  0  0  0  0
  186.2280  178.8580  141.7090 C   0  0  0  0  0  3  0  0  0  0  0  0
  187.2870  178.2600  142.5390 C   0  0  0  0  0  0  0  0  0  0  0  0
  182.6820  178.6740  143.0420 C   0  0  0  0  0  0  0  0  0  0  0  0
  181.8860  178.6280  144.1840 O   0  0  0  0  0  1  0  0  0  0  0  0
  182.1280  178.7310  141.9060 O   0  0  0  0  0  0  0  0  0  0  0  0
  189.6520  176.5160  138.6520 O   0  0  0  0  0  0  0  0  0  0  0  0
  191.2570  173.7530  136.8030 C   0  0  0  0  0  3  0  0  0  0  0  0
  191.9900  176.1850  137.9590 C   0  0  0  0  0  3  0  0  0  0  0  0
  194.8490  173.2610  136.5630 N   0  0  0  0  0  0  0  0  0  0  0  0
  195.5480  174.8770  136.6440 P   0  0  2  0  0  0  0  0  0  0  0  0
  193.5480  173.3760  135.9160 C   0  0  0  0  0  2  0  0  0  0  0  0
  196.7480  174.8800  137.5660 O   0  0  0  0  0  1  0  0  0  0  0  0
  192.5900  174.1690  136.7590 C   0  0  0  0  0  0  0  0  0  0  0  0
  195.7140  172.4500  135.7330 C   0  0  0  0  0  1  0  0  0  0  0  0
  194.3100  175.8250  137.3710 O   0  0  0  0  0  0  0  0  0  0  0  0
  192.9730  175.3890  137.3640 C   0  0  0  0  0  0  0  0  0  0  0  0
  195.9390  175.5050  135.1220 O   0  0  0  0  0  0  0  0  0  0  0  0
  190.6540  175.7640  138.0210 C   0  0  0  0  0  0  0  0  0  0  0  0
  190.3000  174.5390  137.4570 C   0  0  0  0  0  3  0  0  0  0  0  0
  1  5  1  6  0  0  0
  1 17  1  0  0  0  0
  1 10  1  0  0  0  0
  4  5  1  0  0  0  0
  4  8  2  0  0  0  0
  6 10  2  0  0  0  0
  6  7  1  0  0  0  0
  7 11  2  0  0  0  0
  8  6  1  0  0  0  0
  9 11  1  0  0  0  0
  9  3  1  0  0  0  0
 10  9  1  0  0  0  0
 12  2  1  0  0  0  0
 13 12  1  0  0  0  0
 14 13  2  0  0  0  0
 15  2  2  0  0  0  0
 15  3  1  0  0  0  0
 16 14  1  0  0  0  0
 16 17  2  0  0  0  0
 17 15  1  0  0  0  0
 18 13  1  0  0  0  0
 18 19  1  0  0  0  0
 20 18  2  0  0  0  0
 21  4  1  0  0  0  0
 22 34  1  0  0  0  0
 23 33  1  0  0  0  0
 24 25  1  0  0  0  0
 25 32  2  6  0  0  0
 25 30  1  0  0  0  0
 25 27  1  0  0  0  0
 26 24  1  0  0  0  0
 26 28  1  0  0  0  0
 28 22  2  0  0  0  0
 28 31  1  0  0  0  0
 29 24  1  0  0  0  0
 31 30  1  0  0  0  0
 31 23  2  0  0  0  0
 33 21  1  0  0  0  0
 34 33  2  0  0  0  0
M  END
>  <MODEL>
7

>  <REMARK>
 VINA RESULT:      -9.4      4.619      9.038
  Name = 
  3 active torsions:
  status: ('A' for Active; 'I' for Inactive)
    1  A    between atoms: C_3  and  C_25
    2  A    between atoms: C_8  and  O_18
    3  A    between atoms: O_18  and  C_30
                            x       y       z     vdW  Elec       q    Type
                         _______ _______ _______ _____ _____    ______ ____

>  <TORSDO>
F 3

$$$$
