=
 OpenBabel11052413243D

 28 29  0  0  1  0  0  0  0  0999 V2000
  190.2290  176.5470  143.9870 C   0  0  1  0  0  3  0  0  0  0  0  0
  191.7190  176.2690  143.8390 C   0  0  0  0  0  2  0  0  0  0  0  0
  192.0460  175.0620  144.4590 O   0  0  0  0  0  1  0  0  0  0  0  0
  190.2750  178.8950  144.2810 O   0  0  0  0  0  0  0  0  0  0  0  0
  189.9840  177.8100  144.7640 C   0  0  0  0  0  0  0  0  0  0  0  0
  189.3520  177.7640  146.1270 C   0  0  1  0  0  3  0  0  0  0  0  0
  187.8650  177.9670  146.0540 C   0  0  0  0  0  0  0  0  0  0  0  0
  185.0970  178.4130  145.9150 C   0  0  0  0  0  3  0  0  0  0  0  0
  187.1730  177.7770  144.8460 C   0  0  0  0  0  3  0  0  0  0  0  0
  187.8160  178.5980  148.3990 O   0  0  0  0  0  1  0  0  0  0  0  0
  187.1570  178.3910  147.1930 C   0  0  0  0  0  0  0  0  0  0  0  0
  185.7780  178.6090  147.1190 C   0  0  0  0  0  3  0  0  0  0  0  0
  185.7950  177.9970  144.7780 C   0  0  0  0  0  3  0  0  0  0  0  0
  189.7210  176.4990  146.8940 C   0  0  0  0  0  2  0  0  0  0  0  0
  190.9770  176.6460  147.4800 O   0  0  0  0  0  1  0  0  0  0  0  0
  189.5700  176.6420  142.6220 C   0  0  0  0  0  2  0  0  0  0  0  0
  190.4650  176.1110  141.5980 N   0  0  0  0  0  2  0  0  0  0  0  0
  191.9020  177.7140  140.6390 O   0  0  0  0  0  1  0  0  0  0  0  0
  190.6530  177.0950  140.5310 C   0  0  1  0  0  3  0  0  0  0  0  0
  190.4760  176.4650  139.1530 C   0  0  0  0  0  2  0  0  0  0  0  0
  189.6450  177.4860  137.2210 C   0  0  0  0  0  2  0  0  0  0  0  0
  188.8340  178.1100  139.3120 C   0  0  0  0  0  2  0  0  0  0  0  0
  187.3170  178.4140  136.7260 C   0  0  1  0  0  3  0  0  0  0  0  0
  189.2620  176.9630  138.5270 N   0  0  0  0  0  0  0  0  0  0  0  0
  186.6230  177.8930  137.9880 C   0  0  0  0  0  2  0  0  0  0  0  0
  187.3110  178.2540  139.3120 C   0  0  0  0  0  2  0  0  0  0  0  0
  187.7530  179.7330  136.8760 O   0  0  0  0  0  1  0  0  0  0  0  0
  188.4510  177.4940  136.2700 C   0  0  0  0  0  2  0  0  0  0  0  0
  1 16  1  6  0  0  0
  1  5  1  0  0  0  0
  2  1  1  0  0  0  0
  2  3  1  0  0  0  0
  4  5  2  0  0  0  0
  5  6  1  0  0  0  0
  6 14  1  6  0  0  0
  7  6  1  0  0  0  0
  7 11  1  0  0  0  0
  8 12  1  0  0  0  0
  9  7  2  0  0  0  0
 11 10  1  0  0  0  0
 12 11  2  0  0  0  0
 13  9  1  0  0  0  0
 13  8  2  0  0  0  0
 14 15  1  0  0  0  0
 17 16  1  0  0  0  0
 19 18  1  6  0  0  0
 19 17  1  0  0  0  0
 20 19  1  0  0  0  0
 21 24  1  0  0  0  0
 23 27  1  1  0  0  0
 23 25  1  0  0  0  0
 24 20  1  0  0  0  0
 24 22  1  0  0  0  0
 25 26  1  0  0  0  0
 26 22  1  0  0  0  0
 28 23  1  0  0  0  0
 28 21  1  0  0  0  0
M  END
>  <MODEL>
1

>  <REMARK>
 VINA RESULT:      -7.6      0.000      0.000
  Name = 
  10 active torsions:
  status: ('A' for Active; 'I' for Inactive)
    1  A    between atoms: C_1  and  C_2
    2  A    between atoms: C_1  and  C_3
    3  A    between atoms: C_1  and  C_27
    4  A    between atoms: C_5  and  N_20
    5  A    between atoms: C_5  and  C_21
    6  A    between atoms: C_10  and  N_13
    7  A    between atoms: C_10  and  C_25
    8  A    between atoms: C_16  and  C_21
    9  A    between atoms: N_20  and  C_25
   10  A    between atoms: C_21  and  C_27
                            x       y       z     vdW  Elec       q    Type
                         _______ _______ _______ _____ _____    ______ ____

>  <TORSDO>
F 10

$$$$
=
 OpenBabel11052413243D

 28 29  0  0  1  0  0  0  0  0999 V2000
  190.2780  176.6950  145.0160 C   0  0  1  0  0  3  0  0  0  0  0  0
  191.7160  176.7750  145.5100 C   0  0  0  0  0  2  0  0  0  0  0  0
  191.7390  176.9070  146.8990 O   0  0  0  0  0  1  0  0  0  0  0  0
  189.9110  179.0160  144.7420 O   0  0  0  0  0  0  0  0  0  0  0  0
  189.5400  177.9800  145.2710 C   0  0  0  0  0  0  0  0  0  0  0  0
  188.3220  178.0050  146.1520 C   0  0  1  0  0  3  0  0  0  0  0  0
  187.0590  178.1250  145.3460 C   0  0  0  0  0  0  0  0  0  0  0  0
  184.7170  178.4130  143.8270 C   0  0  0  0  0  3  0  0  0  0  0  0
  186.9920  177.6180  144.0370 C   0  0  0  0  0  3  0  0  0  0  0  0
  185.9830  179.3080  147.1730 O   0  0  0  0  0  1  0  0  0  0  0  0
  185.9420  178.7860  145.8860 C   0  0  0  0  0  0  0  0  0  0  0  0
  184.7770  178.9250  145.1260 C   0  0  0  0  0  3  0  0  0  0  0  0
  185.8250  177.7600  143.2830 C   0  0  0  0  0  3  0  0  0  0  0  0
  188.2780  176.8230  147.1140 C   0  0  0  0  0  2  0  0  0  0  0  0
  188.2950  177.2790  148.4310 O   0  0  0  0  0  1  0  0  0  0  0  0
  190.2450  176.3640  143.5340 C   0  0  0  0  0  2  0  0  0  0  0  0
  191.5110  176.7390  142.9110 N   0  0  0  0  0  2  0  0  0  0  0  0
  192.2500  177.4480  140.7890 O   0  0  0  0  0  1  0  0  0  0  0  0
  191.2720  177.6260  141.7730 C   0  0  1  0  0  3  0  0  0  0  0  0
  189.8750  177.4280  141.1940 C   0  0  0  0  0  2  0  0  0  0  0  0
  188.8500  178.4040  139.3340 C   0  0  0  0  0  2  0  0  0  0  0  0
  189.5430  176.1840  139.2530 C   0  0  0  0  0  2  0  0  0  0  0  0
  189.2030  177.9610  136.8430 C   0  0  1  0  0  3  0  0  0  0  0  0
  189.9180  177.5010  139.7430 N   0  0  0  0  0  0  0  0  0  0  0  0
  190.4210  177.0410  136.9760 C   0  0  0  0  0  2  0  0  0  0  0  0
  190.2450  175.8550  137.9340 C   0  0  0  0  0  2  0  0  0  0  0  0
  188.0110  177.2390  136.7490 O   0  0  0  0  0  1  0  0  0  0  0  0
  189.1440  179.0030  137.9610 C   0  0  0  0  0  2  0  0  0  0  0  0
  1 16  1  6  0  0  0
  1  5  1  0  0  0  0
  1  2  1  0  0  0  0
  2  3  1  0  0  0  0
  4  5  2  0  0  0  0
  5  6  1  0  0  0  0
  6 14  1  6  0  0  0
  7 11  1  0  0  0  0
  7  6  1  0  0  0  0
  8 12  1  0  0  0  0
  9  7  2  0  0  0  0
 11 10  1  0  0  0  0
 12 11  2  0  0  0  0
 13  8  2  0  0  0  0
 13  9  1  0  0  0  0
 14 15  1  0  0  0  0
 17 16  1  0  0  0  0
 19 18  1  6  0  0  0
 19 17  1  0  0  0  0
 20 19  1  0  0  0  0
 21 24  1  0  0  0  0
 22 24  1  0  0  0  0
 23 27  1  1  0  0  0
 23 25  1  0  0  0  0
 23 28  1  0  0  0  0
 24 20  1  0  0  0  0
 25 26  1  0  0  0  0
 26 22  1  0  0  0  0
 28 21  1  0  0  0  0
M  END
>  <MODEL>
2

>  <REMARK>
 VINA RESULT:      -7.5      1.423      2.085
  Name = 
  10 active torsions:
  status: ('A' for Active; 'I' for Inactive)
    1  A    between atoms: C_1  and  C_2
    2  A    between atoms: C_1  and  C_3
    3  A    between atoms: C_1  and  C_27
    4  A    between atoms: C_5  and  N_20
    5  A    between atoms: C_5  and  C_21
    6  A    between atoms: C_10  and  N_13
    7  A    between atoms: C_10  and  C_25
    8  A    between atoms: C_16  and  C_21
    9  A    between atoms: N_20  and  C_25
   10  A    between atoms: C_21  and  C_27
                            x       y       z     vdW  Elec       q    Type
                         _______ _______ _______ _____ _____    ______ ____

>  <TORSDO>
F 10

$$$$
=
 OpenBabel11052413243D

 28 29  0  0  1  0  0  0  0  0999 V2000
  188.0580  177.3970  141.5380 C   0  0  1  0  0  3  0  0  0  0  0  0
  189.1200  177.7550  140.5080 C   0  0  0  0  0  2  0  0  0  0  0  0
  188.6560  178.7740  139.6750 O   0  0  0  0  0  1  0  0  0  0  0  0
  188.7860  175.8530  143.1790 O   0  0  0  0  0  0  0  0  0  0  0  0
  188.6790  177.0270  142.8570 C   0  0  0  0  0  0  0  0  0  0  0  0
  189.2040  178.0890  143.7830 C   0  0  1  0  0  3  0  0  0  0  0  0
  188.9950  177.7170  145.2250 C   0  0  0  0  0  0  0  0  0  0  0  0
  188.5740  176.9680  147.8960 C   0  0  0  0  0  3  0  0  0  0  0  0
  190.0380  177.1550  145.9790 C   0  0  0  0  0  3  0  0  0  0  0  0
  186.6790  178.4380  145.0950 O   0  0  0  0  0  1  0  0  0  0  0  0
  187.7330  177.8940  145.8200 C   0  0  0  0  0  0  0  0  0  0  0  0
  187.5290  177.5220  147.1520 C   0  0  0  0  0  3  0  0  0  0  0  0
  189.8280  176.7840  147.3100 C   0  0  0  0  0  3  0  0  0  0  0  0
  190.6550  178.4490  143.4890 C   0  0  0  0  0  2  0  0  0  0  0  0
  190.9290  179.7370  143.9450 O   0  0  0  0  0  1  0  0  0  0  0  0
  187.0930  178.5540  141.7270 C   0  0  0  0  0  2  0  0  0  0  0  0
  185.7730  178.0470  142.0930 N   0  0  0  0  0  2  0  0  0  0  0  0
  185.2600  179.6230  140.4180 O   0  0  0  0  0  1  0  0  0  0  0  0
  184.7280  178.8460  141.4520 C   0  0  1  0  0  3  0  0  0  0  0  0
  183.5880  177.9700  140.9430 C   0  0  0  0  0  2  0  0  0  0  0  0
  181.5070  179.0300  140.8670 C   0  0  0  0  0  2  0  0  0  0  0  0
  182.7690  179.0780  142.8220 C   0  0  0  0  0  2  0  0  0  0  0  0
  179.7730  179.3800  142.7100 C   0  0  1  0  0  3  0  0  0  0  0  0
  182.3800  178.2240  141.7100 N   0  0  0  0  0  0  0  0  0  0  0  0
  180.4360  178.5000  143.7750 C   0  0  0  0  0  2  0  0  0  0  0  0
  181.9110  178.8140  144.0600 C   0  0  0  0  0  2  0  0  0  0  0  0
  180.1200  180.7260  142.8550 O   0  0  0  0  0  1  0  0  0  0  0  0
  180.0490  178.8750  141.2930 C   0  0  0  0  0  2  0  0  0  0  0  0
  1  2  1  6  0  0  0
  1 16  1  0  0  0  0
  1  5  1  0  0  0  0
  3  2  1  0  0  0  0
  5  4  2  0  0  0  0
  5  6  1  0  0  0  0
  6 14  1  1  0  0  0
  6  7  1  0  0  0  0
  7 11  2  0  0  0  0
  7  9  1  0  0  0  0
  9 13  2  0  0  0  0
 10 11  1  0  0  0  0
 11 12  1  0  0  0  0
 12  8  2  0  0  0  0
 13  8  1  0  0  0  0
 14 15  1  0  0  0  0
 16 17  1  0  0  0  0
 19 18  1  6  0  0  0
 19 17  1  0  0  0  0
 20 19  1  0  0  0  0
 20 24  1  0  0  0  0
 21 28  1  0  0  0  0
 21 24  1  0  0  0  0
 22 26  1  0  0  0  0
 23 27  1  6  0  0  0
 23 25  1  0  0  0  0
 24 22  1  0  0  0  0
 25 26  1  0  0  0  0
 28 23  1  0  0  0  0
M  END
>  <MODEL>
3

>  <REMARK>
 VINA RESULT:      -7.4      4.049      5.956
  Name = 
  10 active torsions:
  status: ('A' for Active; 'I' for Inactive)
    1  A    between atoms: C_1  and  C_2
    2  A    between atoms: C_1  and  C_3
    3  A    between atoms: C_1  and  C_27
    4  A    between atoms: C_5  and  N_20
    5  A    between atoms: C_5  and  C_21
    6  A    between atoms: C_10  and  N_13
    7  A    between atoms: C_10  and  C_25
    8  A    between atoms: C_16  and  C_21
    9  A    between atoms: N_20  and  C_25
   10  A    between atoms: C_21  and  C_27
                            x       y       z     vdW  Elec       q    Type
                         _______ _______ _______ _____ _____    ______ ____

>  <TORSDO>
F 10

$$$$
=
 OpenBabel11052413243D

 28 29  0  0  1  0  0  0  0  0999 V2000
  190.0960  176.4370  143.9760 C   0  0  1  0  0  3  0  0  0  0  0  0
  191.5490  176.2640  143.5540 C   0  0  0  0  0  2  0  0  0  0  0  0
  192.1060  175.1580  144.1950 O   0  0  0  0  0  1  0  0  0  0  0  0
  190.1650  178.7950  144.1620 O   0  0  0  0  0  0  0  0  0  0  0  0
  189.8890  177.7350  144.7050 C   0  0  0  0  0  0  0  0  0  0  0  0
  189.3150  177.7530  146.0940 C   0  0  1  0  0  3  0  0  0  0  0  0
  187.8290  177.9810  146.0740 C   0  0  0  0  0  0  0  0  0  0  0  0
  185.0660  178.4720  146.0370 C   0  0  0  0  0  3  0  0  0  0  0  0
  187.0960  177.8360  144.8850 C   0  0  0  0  0  3  0  0  0  0  0  0
  187.8650  178.5450  148.4360 O   0  0  0  0  0  1  0  0  0  0  0  0
  187.1650  178.3830  147.2470 C   0  0  0  0  0  0  0  0  0  0  0  0
  185.7880  178.6230  147.2240 C   0  0  0  0  0  3  0  0  0  0  0  0
  185.7200  178.0790  144.8680 C   0  0  0  0  0  3  0  0  0  0  0  0
  189.6950  176.5130  146.8940 C   0  0  0  0  0  2  0  0  0  0  0  0
  190.9820  176.6540  147.4100 O   0  0  0  0  0  1  0  0  0  0  0  0
  189.1820  176.3720  142.7640 C   0  0  0  0  0  2  0  0  0  0  0  0
  189.9470  176.6290  141.5480 N   0  0  0  0  0  2  0  0  0  0  0  0
  188.5280  178.4800  141.2170 O   0  0  0  0  0  1  0  0  0  0  0  0
  189.1410  177.3890  140.5930 C   0  0  1  0  0  3  0  0  0  0  0  0
  189.9710  177.8420  139.3960 C   0  0  0  0  0  2  0  0  0  0  0  0
  190.2420  176.8090  137.3170 C   0  0  0  0  0  2  0  0  0  0  0  0
  189.0190  178.7830  137.4890 C   0  0  0  0  0  2  0  0  0  0  0  0
  188.6740  176.7390  135.3020 C   0  0  1  0  0  3  0  0  0  0  0  0
  189.2840  177.5180  138.1570 N   0  0  0  0  0  0  0  0  0  0  0  0
  187.4580  177.3850  135.9740 C   0  0  0  0  0  2  0  0  0  0  0  0
  187.7290  178.7250  136.6700 C   0  0  0  0  0  2  0  0  0  0  0  0
  189.4430  177.6740  134.6040 O   0  0  0  0  0  1  0  0  0  0  0  0
  189.5220  175.9380  136.2920 C   0  0  0  0  0  2  0  0  0  0  0  0
  1 16  1  6  0  0  0
  1  5  1  0  0  0  0
  2  1  1  0  0  0  0
  2  3  1  0  0  0  0
  4  5  2  0  0  0  0
  5  6  1  0  0  0  0
  6 14  1  6  0  0  0
  7  6  1  0  0  0  0
  7 11  1  0  0  0  0
  8 12  1  0  0  0  0
  9  7  2  0  0  0  0
 11 10  1  0  0  0  0
 12 11  2  0  0  0  0
 13  9  1  0  0  0  0
 13  8  2  0  0  0  0
 14 15  1  0  0  0  0
 17 16  1  0  0  0  0
 19 18  1  1  0  0  0
 19 17  1  0  0  0  0
 20 19  1  0  0  0  0
 21 24  1  0  0  0  0
 22 24  1  0  0  0  0
 23 27  1  1  0  0  0
 23 25  1  0  0  0  0
 23 28  1  0  0  0  0
 24 20  1  0  0  0  0
 25 26  1  0  0  0  0
 26 22  1  0  0  0  0
 28 21  1  0  0  0  0
M  END
>  <MODEL>
4

>  <REMARK>
 VINA RESULT:      -7.4      1.248      1.439
  Name = 
  10 active torsions:
  status: ('A' for Active; 'I' for Inactive)
    1  A    between atoms: C_1  and  C_2
    2  A    between atoms: C_1  and  C_3
    3  A    between atoms: C_1  and  C_27
    4  A    between atoms: C_5  and  N_20
    5  A    between atoms: C_5  and  C_21
    6  A    between atoms: C_10  and  N_13
    7  A    between atoms: C_10  and  C_25
    8  A    between atoms: C_16  and  C_21
    9  A    between atoms: N_20  and  C_25
   10  A    between atoms: C_21  and  C_27
                            x       y       z     vdW  Elec       q    Type
                         _______ _______ _______ _____ _____    ______ ____

>  <TORSDO>
F 10

$$$$
=
 OpenBabel11052413243D

 28 29  0  0  1  0  0  0  0  0999 V2000
  188.0490  177.7960  141.6350 C   0  0  1  0  0  3  0  0  0  0  0  0
  188.7360  177.7040  140.2790 C   0  0  0  0  0  2  0  0  0  0  0  0
  188.2680  178.7120  139.4360 O   0  0  0  0  0  1  0  0  0  0  0  0
  189.5370  179.2050  142.8190 O   0  0  0  0  0  0  0  0  0  0  0  0
  189.0370  178.0940  142.7290 C   0  0  0  0  0  0  0  0  0  0  0  0
  189.4000  177.0450  143.7430 C   0  0  1  0  0  3  0  0  0  0  0  0
  188.7100  177.2840  145.0570 C   0  0  0  0  0  0  0  0  0  0  0  0
  187.4460  177.7940  147.5100 C   0  0  0  0  0  3  0  0  0  0  0  0
  187.3300  177.5410  145.1070 C   0  0  0  0  0  3  0  0  0  0  0  0
  190.8240  177.0530  146.2300 O   0  0  0  0  0  1  0  0  0  0  0  0
  189.4550  177.2920  146.2500 C   0  0  0  0  0  0  0  0  0  0  0  0
  188.8200  177.5440  147.4690 C   0  0  0  0  0  3  0  0  0  0  0  0
  186.7010  177.7930  146.3290 C   0  0  0  0  0  3  0  0  0  0  0  0
  189.1670  175.6310  143.2230 C   0  0  0  0  0  2  0  0  0  0  0  0
  190.3740  175.0730  142.8020 O   0  0  0  0  0  1  0  0  0  0  0  0
  186.9680  178.8620  141.6100 C   0  0  0  0  0  2  0  0  0  0  0  0
  185.7050  178.3030  142.0820 N   0  0  0  0  0  2  0  0  0  0  0  0
  185.0290  179.6270  140.2540 O   0  0  0  0  0  1  0  0  0  0  0  0
  184.5820  178.9190  141.3740 C   0  0  1  0  0  3  0  0  0  0  0  0
  183.5340  177.8830  140.9810 C   0  0  0  0  0  2  0  0  0  0  0  0
  181.5290  179.0560  140.7230 C   0  0  0  0  0  2  0  0  0  0  0  0
  182.5800  178.9860  142.7980 C   0  0  0  0  0  2  0  0  0  0  0  0
  179.6320  179.4520  142.3870 C   0  0  1  0  0  3  0  0  0  0  0  0
  182.2670  178.1830  141.6260 N   0  0  0  0  0  0  0  0  0  0  0  0
  180.1330  178.5110  143.4870 C   0  0  0  0  0  2  0  0  0  0  0  0
  181.5850  178.7370  143.9320 C   0  0  0  0  0  2  0  0  0  0  0  0
  180.0310  180.7730  142.6080 O   0  0  0  0  0  1  0  0  0  0  0  0
  180.0290  178.9700  140.9910 C   0  0  0  0  0  2  0  0  0  0  0  0
  1  2  1  6  0  0  0
  1  5  1  0  0  0  0
  3  2  1  0  0  0  0
  5  4  2  0  0  0  0
  5  6  1  0  0  0  0
  6 14  1  6  0  0  0
  6  7  1  0  0  0  0
  7  9  2  0  0  0  0
  7 11  1  0  0  0  0
  9 13  1  0  0  0  0
 10 11  1  0  0  0  0
 11 12  2  0  0  0  0
 12  8  1  0  0  0  0
 13  8  2  0  0  0  0
 15 14  1  0  0  0  0
 16  1  1  0  0  0  0
 16 17  1  0  0  0  0
 19 18  1  6  0  0  0
 19 17  1  0  0  0  0
 20 19  1  0  0  0  0
 20 24  1  0  0  0  0
 21 28  1  0  0  0  0
 21 24  1  0  0  0  0
 22 26  1  0  0  0  0
 23 27  1  1  0  0  0
 23 25  1  0  0  0  0
 24 22  1  0  0  0  0
 25 26  1  0  0  0  0
 28 23  1  0  0  0  0
M  END
>  <MODEL>
5

>  <REMARK>
 VINA RESULT:      -7.4      4.046      5.906
  Name = 
  10 active torsions:
  status: ('A' for Active; 'I' for Inactive)
    1  A    between atoms: C_1  and  C_2
    2  A    between atoms: C_1  and  C_3
    3  A    between atoms: C_1  and  C_27
    4  A    between atoms: C_5  and  N_20
    5  A    between atoms: C_5  and  C_21
    6  A    between atoms: C_10  and  N_13
    7  A    between atoms: C_10  and  C_25
    8  A    between atoms: C_16  and  C_21
    9  A    between atoms: N_20  and  C_25
   10  A    between atoms: C_21  and  C_27
                            x       y       z     vdW  Elec       q    Type
                         _______ _______ _______ _____ _____    ______ ____

>  <TORSDO>
F 10

$$$$
=
 OpenBabel11052413243D

 28 29  0  0  1  0  0  0  0  0999 V2000
  189.2410  177.0510  141.1900 C   0  0  1  0  0  3  0  0  0  0  0  0
  190.5680  177.1000  140.4450 C   0  0  0  0  0  2  0  0  0  0  0  0
  190.6760  176.0060  139.5870 O   0  0  0  0  0  1  0  0  0  0  0  0
  189.5200  175.7310  143.1350 O   0  0  0  0  0  0  0  0  0  0  0  0
  189.4500  176.8580  142.6670 C   0  0  0  0  0  0  0  0  0  0  0  0
  189.6060  178.0400  143.5820 C   0  0  1  0  0  3  0  0  0  0  0  0
  188.9840  177.7840  144.9260 C   0  0  0  0  0  0  0  0  0  0  0  0
  187.8070  177.2450  147.4160 C   0  0  0  0  0  3  0  0  0  0  0  0
  189.7830  177.4660  146.0370 C   0  0  0  0  0  3  0  0  0  0  0  0
  186.7700  178.1230  143.9880 O   0  0  0  0  0  1  0  0  0  0  0  0
  187.5860  177.8220  145.0720 C   0  0  0  0  0  0  0  0  0  0  0  0
  187.0050  177.5560  146.3160 C   0  0  0  0  0  3  0  0  0  0  0  0
  189.1960  177.2000  147.2770 C   0  0  0  0  0  3  0  0  0  0  0  0
  191.0560  178.4960  143.6980 C   0  0  0  0  0  2  0  0  0  0  0  0
  191.1060  179.8670  143.9470 O   0  0  0  0  0  1  0  0  0  0  0  0
  188.4470  178.3220  140.9420 C   0  0  0  0  0  2  0  0  0  0  0  0
  188.5920  178.7370  139.5500 N   0  0  0  0  0  2  0  0  0  0  0  0
  186.2820  178.6010  139.1020 O   0  0  0  0  0  1  0  0  0  0  0  0
  187.5440  178.1280  138.7290 C   0  0  1  0  0  3  0  0  0  0  0  0
  187.7950  178.3580  137.2420 C   0  0  0  0  0  2  0  0  0  0  0  0
  187.8120  176.0380  137.5210 C   0  0  0  0  0  2  0  0  0  0  0  0
  189.6120  177.1040  136.4990 C   0  0  0  0  0  2  0  0  0  0  0  0
  188.8610  174.2170  136.0680 C   0  0  1  0  0  3  0  0  0  0  0  0
  188.1600  177.1090  136.5960 N   0  0  0  0  0  0  0  0  0  0  0  0
  189.2620  175.1100  134.8900 C   0  0  0  0  0  2  0  0  0  0  0  0
  190.0890  176.3500  135.2570 C   0  0  0  0  0  2  0  0  0  0  0  0
  189.9160  174.0340  136.9670 O   0  0  0  0  0  1  0  0  0  0  0  0
  187.6020  174.7240  136.7730 C   0  0  0  0  0  2  0  0  0  0  0  0
  1  2  1  6  0  0  0
  1  5  1  0  0  0  0
  3  2  1  0  0  0  0
  5  4  2  0  0  0  0
  5  6  1  0  0  0  0
  6 14  1  1  0  0  0
  6  7  1  0  0  0  0
  7 11  2  0  0  0  0
  7  9  1  0  0  0  0
  9 13  2  0  0  0  0
 10 11  1  0  0  0  0
 11 12  1  0  0  0  0
 12  8  2  0  0  0  0
 13  8  1  0  0  0  0
 14 15  1  0  0  0  0
 16  1  1  0  0  0  0
 17 16  1  0  0  0  0
 19 18  1  1  0  0  0
 19 17  1  0  0  0  0
 20 19  1  0  0  0  0
 22 24  1  0  0  0  0
 23 28  1  0  0  0  0
 23 27  1  1  0  0  0
 24 20  1  0  0  0  0
 24 21  1  0  0  0  0
 25 26  1  0  0  0  0
 25 23  1  0  0  0  0
 26 22  1  0  0  0  0
 28 21  1  0  0  0  0
M  END
>  <MODEL>
6

>  <REMARK>
 VINA RESULT:      -7.1      2.164      3.800
  Name = 
  10 active torsions:
  status: ('A' for Active; 'I' for Inactive)
    1  A    between atoms: C_1  and  C_2
    2  A    between atoms: C_1  and  C_3
    3  A    between atoms: C_1  and  C_27
    4  A    between atoms: C_5  and  N_20
    5  A    between atoms: C_5  and  C_21
    6  A    between atoms: C_10  and  N_13
    7  A    between atoms: C_10  and  C_25
    8  A    between atoms: C_16  and  C_21
    9  A    between atoms: N_20  and  C_25
   10  A    between atoms: C_21  and  C_27
                            x       y       z     vdW  Elec       q    Type
                         _______ _______ _______ _____ _____    ______ ____

>  <TORSDO>
F 10

$$$$
=
 OpenBabel11052413243D

 28 29  0  0  1  0  0  0  0  0999 V2000
  188.9980  177.2710  141.3820 C   0  0  1  0  0  3  0  0  0  0  0  0
  190.2110  177.3320  140.4640 C   0  0  0  0  0  2  0  0  0  0  0  0
  190.3970  176.1020  139.8320 O   0  0  0  0  0  1  0  0  0  0  0  0
  189.5070  175.8040  143.1680 O   0  0  0  0  0  0  0  0  0  0  0  0
  189.3990  176.9630  142.7980 C   0  0  0  0  0  0  0  0  0  0  0  0
  189.7010  178.0710  143.7690 C   0  0  1  0  0  3  0  0  0  0  0  0
  189.2150  177.7410  145.1520 C   0  0  0  0  0  0  0  0  0  0  0  0
  188.2840  177.0670  147.7130 C   0  0  0  0  0  3  0  0  0  0  0  0
  190.1090  177.2970  146.1410 C   0  0  0  0  0  3  0  0  0  0  0  0
  186.9360  178.2640  144.4960 O   0  0  0  0  0  1  0  0  0  0  0  0
  187.8450  177.8380  145.4560 C   0  0  0  0  0  0  0  0  0  0  0  0
  187.3870  177.5040  146.7340 C   0  0  0  0  0  3  0  0  0  0  0  0
  189.6450  176.9640  147.4160 C   0  0  0  0  0  3  0  0  0  0  0  0
  191.1740  178.4650  143.7570 C   0  0  0  0  0  2  0  0  0  0  0  0
  191.3030  179.8340  143.9840 O   0  0  0  0  0  1  0  0  0  0  0  0
  188.2320  178.5820  141.3340 C   0  0  0  0  0  2  0  0  0  0  0  0
  187.3750  178.6150  140.1530 N   0  0  0  0  0  2  0  0  0  0  0  0
  185.7000  179.7290  141.3810 O   0  0  0  0  0  1  0  0  0  0  0  0
  185.9660  178.6360  140.5510 C   0  0  1  0  0  3  0  0  0  0  0  0
  185.0430  178.6370  139.3360 C   0  0  0  0  0  2  0  0  0  0  0  0
  183.4110  177.0520  138.8010 C   0  0  0  0  0  2  0  0  0  0  0  0
  182.7870  179.2150  139.3930 C   0  0  0  0  0  2  0  0  0  0  0  0
  181.0290  176.7850  139.6840 C   0  0  1  0  0  3  0  0  0  0  0  0
  183.7250  178.1490  139.7070 N   0  0  0  0  0  0  0  0  0  0  0  0
  181.1110  177.8340  140.7970 C   0  0  0  0  0  2  0  0  0  0  0  0
  181.6000  179.2210  140.3560 C   0  0  0  0  0  2  0  0  0  0  0  0
  180.4790  177.3100  138.5110 O   0  0  0  0  0  1  0  0  0  0  0  0
  182.3790  176.1150  139.4230 C   0  0  0  0  0  2  0  0  0  0  0  0
  1  2  1  6  0  0  0
  1  5  1  0  0  0  0
  3  2  1  0  0  0  0
  5  4  2  0  0  0  0
  5  6  1  0  0  0  0
  6 14  1  1  0  0  0
  6  7  1  0  0  0  0
  7 11  2  0  0  0  0
  7  9  1  0  0  0  0
  9 13  2  0  0  0  0
 10 11  1  0  0  0  0
 11 12  1  0  0  0  0
 12  8  2  0  0  0  0
 13  8  1  0  0  0  0
 14 15  1  0  0  0  0
 16  1  1  0  0  0  0
 17 19  1  0  0  0  0
 17 16  1  0  0  0  0
 19 18  1  6  0  0  0
 20 24  1  0  0  0  0
 20 19  1  0  0  0  0
 21 28  1  0  0  0  0
 21 24  1  0  0  0  0
 22 24  1  0  0  0  0
 22 26  1  0  0  0  0
 23 27  1  6  0  0  0
 23 25  1  0  0  0  0
 26 25  1  0  0  0  0
 28 23  1  0  0  0  0
M  END
>  <MODEL>
7

>  <REMARK>
 VINA RESULT:      -7.1      3.492      4.848
  Name = 
  10 active torsions:
  status: ('A' for Active; 'I' for Inactive)
    1  A    between atoms: C_1  and  C_2
    2  A    between atoms: C_1  and  C_3
    3  A    between atoms: C_1  and  C_27
    4  A    between atoms: C_5  and  N_20
    5  A    between atoms: C_5  and  C_21
    6  A    between atoms: C_10  and  N_13
    7  A    between atoms: C_10  and  C_25
    8  A    between atoms: C_16  and  C_21
    9  A    between atoms: N_20  and  C_25
   10  A    between atoms: C_21  and  C_27
                            x       y       z     vdW  Elec       q    Type
                         _______ _______ _______ _____ _____    ______ ____

>  <TORSDO>
F 10

$$$$
=
 OpenBabel11052413243D

 28 29  0  0  1  0  0  0  0  0999 V2000
  188.5190  177.0870  141.8560 C   0  0  1  0  0  3  0  0  0  0  0  0
  189.0570  177.5030  140.4940 C   0  0  0  0  0  2  0  0  0  0  0  0
  188.3050  178.5630  139.9860 O   0  0  0  0  0  1  0  0  0  0  0  0
  190.1660  175.6730  142.8020 O   0  0  0  0  0  0  0  0  0  0  0  0
  189.6370  176.7750  142.8130 C   0  0  0  0  0  0  0  0  0  0  0  0
  190.1410  177.8170  143.7710 C   0  0  1  0  0  3  0  0  0  0  0  0
  190.4560  177.2250  145.1170 C   0  0  0  0  0  0  0  0  0  0  0  0
  191.0060  176.0660  147.6130 C   0  0  0  0  0  3  0  0  0  0  0  0
  191.6810  176.5780  145.3470 C   0  0  0  0  0  3  0  0  0  0  0  0
  188.2770  177.9040  145.9470 O   0  0  0  0  0  1  0  0  0  0  0  0
  189.5030  177.2800  146.1490 C   0  0  0  0  0  0  0  0  0  0  0  0
  189.7830  176.7040  147.3910 C   0  0  0  0  0  3  0  0  0  0  0  0
  191.9550  176.0030  146.5900 C   0  0  0  0  0  3  0  0  0  0  0  0
  191.3140  178.6080  143.2040 C   0  0  0  0  0  2  0  0  0  0  0  0
  191.5330  179.7530  143.9690 O   0  0  0  0  0  1  0  0  0  0  0  0
  187.6350  178.1790  142.4330 C   0  0  0  0  0  2  0  0  0  0  0  0
  186.5930  177.5880  143.2660 N   0  0  0  0  0  2  0  0  0  0  0  0
  184.8540  178.8390  144.2490 O   0  0  0  0  0  1  0  0  0  0  0  0
  185.3220  178.2820  143.0550 C   0  0  1  0  0  3  0  0  0  0  0  0
  185.4400  179.3460  141.9680 C   0  0  0  0  0  2  0  0  0  0  0  0
  183.4310  178.2200  141.5690 C   0  0  0  0  0  2  0  0  0  0  0  0
  184.7040  179.0030  139.7840 C   0  0  0  0  0  2  0  0  0  0  0  0
  181.7340  178.5090  139.6830 C   0  0  1  0  0  3  0  0  0  0  0  0
  184.2550  179.3380  141.1270 N   0  0  0  0  0  0  0  0  0  0  0  0
  182.3430  179.7680  139.0580 C   0  0  0  0  0  2  0  0  0  0  0  0
  183.8370  179.6740  138.7190 C   0  0  0  0  0  2  0  0  0  0  0  0
  182.1680  177.3450  139.0420 O   0  0  0  0  0  1  0  0  0  0  0  0
  181.9690  178.4430  141.1930 C   0  0  0  0  0  2  0  0  0  0  0  0
  1  2  1  6  0  0  0
  1 16  1  0  0  0  0
  1  5  1  0  0  0  0
  3  2  1  0  0  0  0
  4  5  2  0  0  0  0
  5  6  1  0  0  0  0
  6 14  1  6  0  0  0
  6  7  1  0  0  0  0
  7  9  2  0  0  0  0
  7 11  1  0  0  0  0
  9 13  1  0  0  0  0
 10 11  1  0  0  0  0
 11 12  2  0  0  0  0
 12  8  1  0  0  0  0
 13  8  2  0  0  0  0
 14 15  1  0  0  0  0
 16 17  1  0  0  0  0
 19 17  1  0  0  0  0
 19 18  1  1  0  0  0
 20 19  1  0  0  0  0
 22 24  1  0  0  0  0
 23 27  1  6  0  0  0
 23 28  1  0  0  0  0
 24 21  1  0  0  0  0
 24 20  1  0  0  0  0
 25 23  1  0  0  0  0
 26 25  1  0  0  0  0
 26 22  1  0  0  0  0
 28 21  1  0  0  0  0
M  END
>  <MODEL>
8

>  <REMARK>
 VINA RESULT:      -6.8      3.301      5.213
  Name = 
  10 active torsions:
  status: ('A' for Active; 'I' for Inactive)
    1  A    between atoms: C_1  and  C_2
    2  A    between atoms: C_1  and  C_3
    3  A    between atoms: C_1  and  C_27
    4  A    between atoms: C_5  and  N_20
    5  A    between atoms: C_5  and  C_21
    6  A    between atoms: C_10  and  N_13
    7  A    between atoms: C_10  and  C_25
    8  A    between atoms: C_16  and  C_21
    9  A    between atoms: N_20  and  C_25
   10  A    between atoms: C_21  and  C_27
                            x       y       z     vdW  Elec       q    Type
                         _______ _______ _______ _____ _____    ______ ____

>  <TORSDO>
F 10

$$$$
=
 OpenBabel11052413243D

 28 29  0  0  1  0  0  0  0  0999 V2000
  187.0170  178.2680  142.7860 C   0  0  1  0  0  3  0  0  0  0  0  0
  185.5560  178.2220  142.3590 C   0  0  0  0  0  2  0  0  0  0  0  0
  184.9190  179.4170  142.6990 O   0  0  0  0  0  1  0  0  0  0  0  0
  187.5350  176.0010  143.2240 O   0  0  0  0  0  0  0  0  0  0  0  0
  187.3590  177.1170  143.6900 C   0  0  0  0  0  0  0  0  0  0  0  0
  187.5190  177.3240  145.1710 C   0  0  1  0  0  3  0  0  0  0  0  0
  188.9580  177.2110  145.5920 C   0  0  0  0  0  0  0  0  0  0  0  0
  191.6380  176.9360  146.3770 C   0  0  0  0  0  3  0  0  0  0  0  0
  189.9940  177.3750  144.6570 C   0  0  0  0  0  3  0  0  0  0  0  0
  188.2730  176.7220  147.8690 O   0  0  0  0  0  1  0  0  0  0  0  0
  189.2770  176.9000  146.9250 C   0  0  0  0  0  0  0  0  0  0  0  0
  190.6140  176.7670  147.3120 C   0  0  0  0  0  3  0  0  0  0  0  0
  191.3280  177.2390  145.0490 C   0  0  0  0  0  3  0  0  0  0  0  0
  186.8820  178.6240  145.6460 C   0  0  0  0  0  2  0  0  0  0  0  0
  185.5530  178.4010  146.0020 O   0  0  0  0  0  1  0  0  0  0  0  0
  187.9240  178.2570  141.5680 C   0  0  0  0  0  2  0  0  0  0  0  0
  187.1230  178.3090  140.3490 N   0  0  0  0  0  2  0  0  0  0  0  0
  187.7530  178.9970  138.1850 O   0  0  0  0  0  1  0  0  0  0  0  0
  187.9620  178.0380  139.1800 C   0  0  1  0  0  3  0  0  0  0  0  0
  189.4370  177.9580  139.5590 C   0  0  0  0  0  2  0  0  0  0  0  0
  189.3070  176.0900  138.1590 C   0  0  0  0  0  2  0  0  0  0  0  0
  191.3000  176.5920  139.2530 C   0  0  0  0  0  2  0  0  0  0  0  0
  191.1000  175.0030  136.7000 C   0  0  1  0  0  3  0  0  0  0  0  0
  190.1690  177.1940  138.5620 N   0  0  0  0  0  0  0  0  0  0  0  0
  192.1770  176.0780  136.8760 C   0  0  0  0  0  2  0  0  0  0  0  0
  192.5090  176.4440  138.3290 C   0  0  0  0  0  2  0  0  0  0  0  0
  191.2660  173.9460  137.6000 O   0  0  0  0  0  1  0  0  0  0  0  0
  189.6870  175.5860  136.7700 C   0  0  0  0  0  2  0  0  0  0  0  0
  1 16  1  6  0  0  0
  1  5  1  0  0  0  0
  2  3  1  0  0  0  0
  2  1  1  0  0  0  0
  4  5  2  0  0  0  0
  5  6  1  0  0  0  0
  6  7  1  0  0  0  0
  6 14  1  6  0  0  0
  7 11  1  0  0  0  0
  8 12  1  0  0  0  0
  9 13  1  0  0  0  0
  9  7  2  0  0  0  0
 11 12  2  0  0  0  0
 11 10  1  0  0  0  0
 13  8  2  0  0  0  0
 14 15  1  0  0  0  0
 17 16  1  0  0  0  0
 19 18  1  6  0  0  0
 19 20  1  0  0  0  0
 19 17  1  0  0  0  0
 21 24  1  0  0  0  0
 23 28  1  0  0  0  0
 23 25  1  0  0  0  0
 23 27  1  1  0  0  0
 24 22  1  0  0  0  0
 24 20  1  0  0  0  0
 25 26  1  0  0  0  0
 26 22  1  0  0  0  0
 28 21  1  0  0  0  0
M  END
>  <MODEL>
9

>  <REMARK>
 VINA RESULT:      -6.8      2.375      4.446
  Name = 
  10 active torsions:
  status: ('A' for Active; 'I' for Inactive)
    1  A    between atoms: C_1  and  C_2
    2  A    between atoms: C_1  and  C_3
    3  A    between atoms: C_1  and  C_27
    4  A    between atoms: C_5  and  N_20
    5  A    between atoms: C_5  and  C_21
    6  A    between atoms: C_10  and  N_13
    7  A    between atoms: C_10  and  C_25
    8  A    between atoms: C_16  and  C_21
    9  A    between atoms: N_20  and  C_25
   10  A    between atoms: C_21  and  C_27
                            x       y       z     vdW  Elec       q    Type
                         _______ _______ _______ _____ _____    ______ ____

>  <TORSDO>
F 10

$$$$
