=
 OpenBabel11052413243D

 28 31  0  0  1  0  0  0  0  0999 V2000
  188.7900  176.8780  145.0790 C   0  0  1  0  0  3  0  0  0  0  0  0
  187.7420  178.4590  148.9680 C   0  0  0  0  0  1  0  0  0  0  0  0
  185.1880  178.2380  144.4530 C   0  0  1  0  0  3  0  0  0  0  0  0
  186.9470  177.7800  146.6000 C   0  0  2  0  0  3  0  0  0  0  0  0
  186.5440  177.5870  144.1190 C   0  0  0  0  0  2  0  0  0  0  0  0
  189.3060  177.8760  147.2400 O   0  0  0  0  0  0  0  0  0  0  0  0
  185.9530  178.9450  146.7750 C   0  0  0  0  0  2  0  0  0  0  0  0
  188.0080  177.6290  147.7210 C   0  0  1  0  0  3  0  0  0  0  0  0
  185.3010  179.3930  145.4570 C   0  0  0  0  0  2  0  0  0  0  0  0
  189.6120  176.8040  146.3800 C   0  0  0  0  0  2  0  0  0  0  0  0
  187.5930  177.8300  145.2070 C   0  0  2  0  0  3  0  0  0  0  0  0
  185.3370  179.1850  142.1660 C   0  0  0  0  0  2  0  0  0  0  0  0
  182.3300  178.5340  141.8320 C   0  0  0  0  0  2  0  0  0  0  0  0
  184.0020  179.0710  140.0240 C   0  0  1  0  0  3  0  0  0  0  0  0
  184.4940  178.6610  143.2370 N   0  0  0  0  0  0  0  0  0  0  0  0
  182.3540  178.6070  144.1970 O   0  0  0  0  0  0  0  0  0  0  0  0
  182.8130  179.5790  140.8400 C   0  0  0  0  0  2  0  0  0  0  0  0
  183.0490  178.6330  143.1470 C   0  0  0  0  0  0  0  0  0  0  0  0
  184.5360  180.1230  139.2810 O   0  0  0  0  0  1  0  0  0  0  0  0
  185.1020  178.4240  140.8690 C   0  0  0  0  0  2  0  0  0  0  0  0
  189.6550  177.2300  143.9010 C   0  0  0  0  0  0  0  0  0  0  0  0
  190.4920  178.4800  144.0020 C   0  0  0  0  0  2  0  0  0  0  0  0
  190.6100  176.8340  141.6940 C   0  0  0  0  0  0  0  0  0  0  0  0
  191.8350  178.3030  143.2930 C   0  0  0  0  0  2  0  0  0  0  0  0
  188.8690  175.4020  142.6380 F   0  0  0  0  0  0  0  0  0  0  0  0
  189.6710  176.4900  142.7740 C   0  0  0  0  0  0  0  0  0  0  0  0
  190.5300  176.2720  140.5700 O   0  0  0  0  0  0  0  0  0  0  0  0
  191.6170  177.8200  141.9330 N   0  0  0  0  0  2  0  0  0  0  0  0
  1 21  1  6  0  0  0
  1 11  1  0  0  0  0
  1 10  1  0  0  0  0
  3 15  1  6  0  0  0
  3  9  1  0  0  0  0
  4  7  1  1  0  0  0
  4  8  1  0  0  0  0
  5  3  1  0  0  0  0
  6  8  1  0  0  0  0
  8  2  1  1  0  0  0
  9  7  1  0  0  0  0
 10  6  1  0  0  0  0
 11  5  1  6  0  0  0
 11  4  1  0  0  0  0
 12 15  1  0  0  0  0
 13 18  1  0  0  0  0
 14 19  1  1  0  0  0
 14 17  1  0  0  0  0
 14 20  1  0  0  0  0
 17 13  1  0  0  0  0
 18 15  1  0  0  0  0
 18 16  2  0  0  0  0
 20 12  1  0  0  0  0
 21 22  1  0  0  0  0
 23 28  1  0  0  0  0
 23 26  1  0  0  0  0
 24 22  1  0  0  0  0
 25 26  1  0  0  0  0
 26 21  2  0  0  0  0
 27 23  2  0  0  0  0
 28 24  1  0  0  0  0
M  END
>  <MODEL>
1

>  <REMARK>
 VINA RESULT:     -10.1      0.000      0.000
  Name = 
  2 active torsions:
  status: ('A' for Active; 'I' for Inactive)
    1  A    between atoms: C_1  and  C_2
    2  A    between atoms: C_10  and  N_13
                            x       y       z     vdW  Elec       q    Type
                         _______ _______ _______ _____ _____    ______ ____

>  <TORSDO>
F 2

$$$$
=
 OpenBabel11052413243D

 28 31  0  0  1  0  0  0  0  0999 V2000
  186.1480  177.4870  145.6680 C   0  0  1  0  0  3  0  0  0  0  0  0
  182.6610  179.6870  144.3550 C   0  0  0  0  0  1  0  0  0  0  0  0
  186.8370  177.8860  141.8480 C   0  0  1  0  0  3  0  0  0  0  0  0
  184.7580  178.3200  143.6940 C   0  0  2  0  0  3  0  0  0  0  0  0
  187.0990  177.4690  143.3090 C   0  0  0  0  0  2  0  0  0  0  0  0
  184.3070  179.0500  145.9850 O   0  0  0  0  0  0  0  0  0  0  0  0
  184.7890  179.2620  142.4740 C   0  0  0  0  0  2  0  0  0  0  0  0
  183.7010  178.6600  144.7770 C   0  0  1  0  0  3  0  0  0  0  0  0
  186.1300  179.2420  141.7230 C   0  0  0  0  0  2  0  0  0  0  0  0
  184.9190  177.8930  146.5030 C   0  0  0  0  0  2  0  0  0  0  0  0
  186.1640  178.1730  144.2950 C   0  0  2  0  0  3  0  0  0  0  0  0
  189.3160  177.8500  141.8250 C   0  0  0  0  0  2  0  0  0  0  0  0
  189.1590  177.3750  138.7720 C   0  0  0  0  0  2  0  0  0  0  0  0
  191.1420  177.0210  140.2870 C   0  0  1  0  0  3  0  0  0  0  0  0
  188.0700  177.8580  141.0630 N   0  0  0  0  0  0  0  0  0  0  0  0
  187.0240  178.3620  139.0260 O   0  0  0  0  0  0  0  0  0  0  0  0
  190.5150  177.9060  139.2090 C   0  0  0  0  0  2  0  0  0  0  0  0
  188.0440  177.9180  139.6170 C   0  0  0  0  0  0  0  0  0  0  0  0
  192.2750  177.6510  140.8010 O   0  0  0  0  0  1  0  0  0  0  0  0
  190.1870  176.6650  141.4300 C   0  0  0  0  0  2  0  0  0  0  0  0
  187.4280  177.7220  146.4210 C   0  0  0  0  0  0  0  0  0  0  0  0
  187.3700  178.6350  147.6200 C   0  0  0  0  0  2  0  0  0  0  0  0
  189.7970  177.3700  146.8700 C   0  0  0  0  0  0  0  0  0  0  0  0
  188.3230  178.1620  148.7180 C   0  0  0  0  0  2  0  0  0  0  0  0
  188.6830  176.4120  144.9170 F   0  0  0  0  0  0  0  0  0  0  0  0
  188.5990  177.1770  146.0360 C   0  0  0  0  0  0  0  0  0  0  0  0
  190.9330  177.0210  146.4530 O   0  0  0  0  0  0  0  0  0  0  0  0
  189.6580  177.9630  148.1630 N   0  0  0  0  0  2  0  0  0  0  0  0
  1 21  1  1  0  0  0
  1 10  1  0  0  0  0
  3 15  1  6  0  0  0
  3  5  1  0  0  0  0
  4  7  1  6  0  0  0
  4 11  1  0  0  0  0
  4  8  1  0  0  0  0
  6 10  1  0  0  0  0
  8  2  1  6  0  0  0
  8  6  1  0  0  0  0
  9  3  1  0  0  0  0
  9  7  1  0  0  0  0
 11  5  1  6  0  0  0
 11  1  1  0  0  0  0
 13 17  1  0  0  0  0
 13 18  1  0  0  0  0
 14 19  1  1  0  0  0
 14 20  1  0  0  0  0
 15 12  1  0  0  0  0
 16 18  2  0  0  0  0
 17 14  1  0  0  0  0
 18 15  1  0  0  0  0
 20 12  1  0  0  0  0
 21 22  1  0  0  0  0
 22 24  1  0  0  0  0
 23 28  1  0  0  0  0
 25 26  1  0  0  0  0
 26 21  2  0  0  0  0
 26 23  1  0  0  0  0
 27 23  2  0  0  0  0
 28 24  1  0  0  0  0
M  END
>  <MODEL>
2

>  <REMARK>
 VINA RESULT:      -9.0      2.254      5.329
  Name = 
  2 active torsions:
  status: ('A' for Active; 'I' for Inactive)
    1  A    between atoms: C_1  and  C_2
    2  A    between atoms: C_10  and  N_13
                            x       y       z     vdW  Elec       q    Type
                         _______ _______ _______ _____ _____    ______ ____

>  <TORSDO>
F 2

$$$$
=
 OpenBabel11052413243D

 28 31  0  0  1  0  0  0  0  0999 V2000
  190.4170  176.3050  144.1120 C   0  0  1  0  0  3  0  0  0  0  0  0
  191.4430  177.1940  148.2200 C   0  0  0  0  0  1  0  0  0  0  0  0
  187.0280  177.6270  145.5210 C   0  0  1  0  0  3  0  0  0  0  0  0
  189.5770  176.8850  146.4530 C   0  0  2  0  0  3  0  0  0  0  0  0
  188.0240  177.0850  144.4780 C   0  0  0  0  0  2  0  0  0  0  0  0
  191.9550  176.9540  145.8850 O   0  0  0  0  0  0  0  0  0  0  0  0
  188.8470  177.9700  147.2680 C   0  0  0  0  0  2  0  0  0  0  0  0
  191.0370  176.5880  146.8860 C   0  0  1  0  0  3  0  0  0  0  0  0
  187.6660  178.6050  146.5160 C   0  0  0  0  0  2  0  0  0  0  0  0
  191.7570  176.0480  144.8270 C   0  0  0  0  0  2  0  0  0  0  0  0
  189.4770  177.1830  144.9500 C   0  0  2  0  0  3  0  0  0  0  0  0
  185.9750  178.4700  143.4410 C   0  0  0  0  0  2  0  0  0  0  0  0
  183.3250  178.7020  145.0210 C   0  0  0  0  0  2  0  0  0  0  0  0
  183.6360  178.7210  142.5200 C   0  0  1  0  0  3  0  0  0  0  0  0
  185.8580  178.2190  144.8750 N   0  0  0  0  0  0  0  0  0  0  0  0
  184.7850  178.7880  146.8810 O   0  0  0  0  0  0  0  0  0  0  0  0
  183.3290  179.5560  143.7630 C   0  0  0  0  0  2  0  0  0  0  0  0
  184.6900  178.6040  145.6380 C   0  0  0  0  0  0  0  0  0  0  0  0
  183.8320  179.5690  141.4300 O   0  0  0  0  0  1  0  0  0  0  0  0
  184.8440  177.7940  142.6770 C   0  0  0  0  0  2  0  0  0  0  0  0
  190.6270  176.8730  142.7360 C   0  0  0  0  0  0  0  0  0  0  0  0
  191.8850  177.6700  142.4980 C   0  0  0  0  0  2  0  0  0  0  0  0
  190.0320  177.2180  140.3980 C   0  0  0  0  0  0  0  0  0  0  0  0
  192.4180  177.4500  141.0820 C   0  0  0  0  0  2  0  0  0  0  0  0
  188.5520  176.0660  141.9660 F   0  0  0  0  0  0  0  0  0  0  0  0
  189.7230  176.7180  141.7480 C   0  0  0  0  0  0  0  0  0  0  0  0
  189.1450  177.2410  139.5040 O   0  0  0  0  0  0  0  0  0  0  0  0
  191.3530  177.6810  140.1110 N   0  0  0  0  0  2  0  0  0  0  0  0
  1 21  1  6  0  0  0
  1 10  1  0  0  0  0
  1 11  1  0  0  0  0
  3  5  1  6  0  0  0
  3  9  1  0  0  0  0
  4  8  1  0  0  0  0
  4  7  1  1  0  0  0
  6  8  1  0  0  0  0
  8  2  1  1  0  0  0
  9  7  1  0  0  0  0
 10  6  1  0  0  0  0
 11  5  1  6  0  0  0
 11  4  1  0  0  0  0
 12 15  1  0  0  0  0
 13 18  1  0  0  0  0
 14 19  1  6  0  0  0
 14 20  1  0  0  0  0
 14 17  1  0  0  0  0
 15  3  1  0  0  0  0
 15 18  1  0  0  0  0
 17 13  1  0  0  0  0
 18 16  2  0  0  0  0
 20 12  1  0  0  0  0
 22 21  1  0  0  0  0
 23 26  1  0  0  0  0
 24 22  1  0  0  0  0
 26 25  1  0  0  0  0
 26 21  2  0  0  0  0
 27 23  2  0  0  0  0
 28 23  1  0  0  0  0
 28 24  1  0  0  0  0
M  END
>  <MODEL>
3

>  <REMARK>
 VINA RESULT:      -8.2      1.720      2.493
  Name = 
  2 active torsions:
  status: ('A' for Active; 'I' for Inactive)
    1  A    between atoms: C_1  and  C_2
    2  A    between atoms: C_10  and  N_13
                            x       y       z     vdW  Elec       q    Type
                         _______ _______ _______ _____ _____    ______ ____

>  <TORSDO>
F 2

$$$$
=
 OpenBabel11052413243D

 28 31  0  0  1  0  0  0  0  0999 V2000
  188.1760  177.1110  144.7640 C   0  0  1  0  0  3  0  0  0  0  0  0
  186.1180  179.1910  147.9510 C   0  0  0  0  0  1  0  0  0  0  0  0
  184.7910  178.0460  143.0630 C   0  0  1  0  0  3  0  0  0  0  0  0
  185.9730  178.0820  145.6160 C   0  0  2  0  0  3  0  0  0  0  0  0
  186.2140  177.4670  143.1840 C   0  0  0  0  0  2  0  0  0  0  0  0
  188.0890  178.4760  146.7780 O   0  0  0  0  0  0  0  0  0  0  0  0
  184.9180  179.1720  145.3420 C   0  0  0  0  0  2  0  0  0  0  0  0
  186.7240  178.2000  146.9690 C   0  0  1  0  0  3  0  0  0  0  0  0
  184.5990  179.3500  143.8490 C   0  0  0  0  0  2  0  0  0  0  0  0
  188.6460  177.3120  146.2160 C   0  0  0  0  0  2  0  0  0  0  0  0
  186.9450  177.9660  144.4330 C   0  0  2  0  0  3  0  0  0  0  0  0
  183.1890  177.5240  141.2450 C   0  0  0  0  0  2  0  0  0  0  0  0
  184.6860  179.5920  139.4970 C   0  0  0  0  0  2  0  0  0  0  0  0
  182.3980  178.6100  139.1050 C   0  0  1  0  0  3  0  0  0  0  0  0
  184.4070  178.2120  141.6620 N   0  0  0  0  0  0  0  0  0  0  0  0
  186.4570  179.1410  141.0010 O   0  0  0  0  0  0  0  0  0  0  0  0
  183.8640  178.6180  138.6700 C   0  0  0  0  0  2  0  0  0  0  0  0
  185.2400  178.9490  140.7360 C   0  0  0  0  0  0  0  0  0  0  0  0
  181.7320  177.5650  138.4670 O   0  0  0  0  0  1  0  0  0  0  0  0
  182.2010  178.5000  140.6190 C   0  0  0  0  0  2  0  0  0  0  0  0
  189.2930  177.3440  143.7850 C   0  0  0  0  0  0  0  0  0  0  0  0
  190.1890  178.5330  144.0250 C   0  0  0  0  0  2  0  0  0  0  0  0
  190.6520  176.7800  141.8430 C   0  0  0  0  0  0  0  0  0  0  0  0
  191.6320  178.2260  143.6210 C   0  0  0  0  0  2  0  0  0  0  0  0
  188.6420  175.5230  142.4390 F   0  0  0  0  0  0  0  0  0  0  0  0
  189.4840  176.5540  142.7090 C   0  0  0  0  0  0  0  0  0  0  0  0
  190.7630  176.1740  140.7440 O   0  0  0  0  0  0  0  0  0  0  0  0
  191.6630  177.6990  142.2610 N   0  0  0  0  0  2  0  0  0  0  0  0
  1 21  1  6  0  0  0
  1 10  1  0  0  0  0
  3 15  1  6  0  0  0
  3  5  1  0  0  0  0
  3  9  1  0  0  0  0
  4  7  1  6  0  0  0
  4  8  1  0  0  0  0
  6  8  1  0  0  0  0
  8  2  1  1  0  0  0
  9  7  1  0  0  0  0
 10  6  1  0  0  0  0
 11  5  1  6  0  0  0
 11  1  1  0  0  0  0
 11  4  1  0  0  0  0
 12 15  1  0  0  0  0
 13 18  1  0  0  0  0
 14 19  1  6  0  0  0
 14 20  1  0  0  0  0
 17 14  1  0  0  0  0
 17 13  1  0  0  0  0
 18 16  2  0  0  0  0
 18 15  1  0  0  0  0
 20 12  1  0  0  0  0
 21 22  1  0  0  0  0
 23 28  1  0  0  0  0
 23 26  1  0  0  0  0
 24 22  1  0  0  0  0
 25 26  1  0  0  0  0
 26 21  2  0  0  0  0
 27 23  2  0  0  0  0
 28 24  1  0  0  0  0
M  END
>  <MODEL>
4

>  <REMARK>
 VINA RESULT:      -8.1      1.510      2.060
  Name = 
  2 active torsions:
  status: ('A' for Active; 'I' for Inactive)
    1  A    between atoms: C_1  and  C_2
    2  A    between atoms: C_10  and  N_13
                            x       y       z     vdW  Elec       q    Type
                         _______ _______ _______ _____ _____    ______ ____

>  <TORSDO>
F 2

$$$$
=
 OpenBabel11052413243D

 28 31  0  0  1  0  0  0  0  0999 V2000
  188.0590  176.9140  144.8920 C   0  0  1  0  0  3  0  0  0  0  0  0
  185.8740  179.2660  147.7930 C   0  0  0  0  0  1  0  0  0  0  0  0
  185.0400  178.1990  142.7800 C   0  0  1  0  0  3  0  0  0  0  0  0
  185.8930  178.1430  145.4610 C   0  0  2  0  0  3  0  0  0  0  0  0
  186.3610  177.4640  143.0790 C   0  0  0  0  0  2  0  0  0  0  0  0
  187.8800  178.3130  146.8770 O   0  0  0  0  0  0  0  0  0  0  0  0
  185.0120  179.3400  145.0550 C   0  0  0  0  0  2  0  0  0  0  0  0
  186.4790  178.1960  146.8960 C   0  0  1  0  0  3  0  0  0  0  0  0
  184.9030  179.5290  143.5340 C   0  0  0  0  0  2  0  0  0  0  0  0
  188.3660  177.0840  146.3920 C   0  0  0  0  0  2  0  0  0  0  0  0
  186.9850  177.8980  144.4080 C   0  0  2  0  0  3  0  0  0  0  0  0
  186.0380  178.7880  140.5890 C   0  0  0  0  0  2  0  0  0  0  0  0
  183.3780  177.9060  139.2780 C   0  0  0  0  0  2  0  0  0  0  0  0
  185.6070  178.2600  138.1560 C   0  0  1  0  0  3  0  0  0  0  0  0
  184.8540  178.3840  141.3420 N   0  0  0  0  0  0  0  0  0  0  0  0
  182.5110  178.3450  141.4350 O   0  0  0  0  0  0  0  0  0  0  0  0
  184.1990  178.8130  138.3750 C   0  0  0  0  0  2  0  0  0  0  0  0
  183.5500  178.2520  140.7280 C   0  0  0  0  0  0  0  0  0  0  0  0
  186.3820  179.2160  137.5000 O   0  0  0  0  0  1  0  0  0  0  0  0
  186.3090  177.8220  139.4440 C   0  0  0  0  0  2  0  0  0  0  0  0
  189.3080  177.0030  144.0600 C   0  0  0  0  0  0  0  0  0  0  0  0
  189.5760  175.8830  143.0870 C   0  0  0  0  0  2  0  0  0  0  0  0
  191.3410  178.0950  143.2790 C   0  0  0  0  0  0  0  0  0  0  0  0
  190.2400  176.4060  141.8130 C   0  0  0  0  0  2  0  0  0  0  0  0
  189.9970  178.9960  145.1110 F   0  0  0  0  0  0  0  0  0  0  0  0
  190.1860  178.0170  144.1890 C   0  0  0  0  0  0  0  0  0  0  0  0
  192.2640  178.9280  143.4830 O   0  0  0  0  0  0  0  0  0  0  0  0
  191.4070  177.2110  142.1590 N   0  0  0  0  0  2  0  0  0  0  0  0
  1 21  1  6  0  0  0
  1 10  1  0  0  0  0
  3 15  1  6  0  0  0
  3  5  1  0  0  0  0
  3  9  1  0  0  0  0
  4  7  1  6  0  0  0
  4  8  1  0  0  0  0
  6  8  1  0  0  0  0
  8  2  1  6  0  0  0
  9  7  1  0  0  0  0
 10  6  1  0  0  0  0
 11  5  1  6  0  0  0
 11  1  1  0  0  0  0
 11  4  1  0  0  0  0
 12 15  1  0  0  0  0
 13 18  1  0  0  0  0
 14 19  1  1  0  0  0
 14 17  1  0  0  0  0
 14 20  1  0  0  0  0
 17 13  1  0  0  0  0
 18 15  1  0  0  0  0
 18 16  2  0  0  0  0
 20 12  1  0  0  0  0
 21 26  2  0  0  0  0
 22 21  1  0  0  0  0
 23 27  2  0  0  0  0
 23 26  1  0  0  0  0
 24 28  1  0  0  0  0
 24 22  1  0  0  0  0
 26 25  1  0  0  0  0
 28 23  1  0  0  0  0
M  END
>  <MODEL>
5

>  <REMARK>
 VINA RESULT:      -7.8      1.804      2.313
  Name = 
  2 active torsions:
  status: ('A' for Active; 'I' for Inactive)
    1  A    between atoms: C_1  and  C_2
    2  A    between atoms: C_10  and  N_13
                            x       y       z     vdW  Elec       q    Type
                         _______ _______ _______ _____ _____    ______ ____

>  <TORSDO>
F 2

$$$$
=
 OpenBabel11052413243D

 28 31  0  0  1  0  0  0  0  0999 V2000
  186.0550  179.1270  144.8830 C   0  0  1  0  0  3  0  0  0  0  0  0
  187.9020  177.2220  148.3010 C   0  0  0  0  0  1  0  0  0  0  0  0
  189.3780  177.7720  143.3530 C   0  0  1  0  0  3  0  0  0  0  0  0
  188.1640  178.0790  145.8730 C   0  0  2  0  0  3  0  0  0  0  0  0
  188.0030  178.4670  143.3870 C   0  0  0  0  0  2  0  0  0  0  0  0
  186.0080  177.9650  147.0240 O   0  0  0  0  0  0  0  0  0  0  0  0
  189.1340  176.8910  145.7290 C   0  0  0  0  0  2  0  0  0  0  0  0
  187.3890  178.1540  147.2140 C   0  0  1  0  0  3  0  0  0  0  0  0
  189.4570  176.5420  144.2670 C   0  0  0  0  0  2  0  0  0  0  0  0
  185.5510  179.1070  146.3390 C   0  0  0  0  0  2  0  0  0  0  0  0
  187.2190  178.1510  144.6630 C   0  0  2  0  0  3  0  0  0  0  0  0
  188.6720  177.2280  141.0400 C   0  0  0  0  0  2  0  0  0  0  0  0
  191.6460  177.4400  140.2130 C   0  0  0  0  0  2  0  0  0  0  0  0
  189.6220  177.4620  138.7100 C   0  0  1  0  0  3  0  0  0  0  0  0
  189.7660  177.4390  141.9840 N   0  0  0  0  0  0  0  0  0  0  0  0
  192.0100  177.0050  142.5100 O   0  0  0  0  0  0  0  0  0  0  0  0
  190.8190  176.6510  139.2110 C   0  0  0  0  0  2  0  0  0  0  0  0
  191.1550  177.2520  141.6190 C   0  0  0  0  0  0  0  0  0  0  0  0
  188.7850  176.6360  137.9610 O   0  0  0  0  0  1  0  0  0  0  0  0
  188.8190  178.1350  139.8260 C   0  0  0  0  0  2  0  0  0  0  0  0
  184.9360  178.8840  143.9100 C   0  0  0  0  0  0  0  0  0  0  0  0
  183.6470  178.3240  144.4580 C   0  0  0  0  0  2  0  0  0  0  0  0
  183.9050  178.9480  141.7020 C   0  0  0  0  0  0  0  0  0  0  0  0
  182.4380  178.8970  143.7170 C   0  0  0  0  0  2  0  0  0  0  0  0
  186.2450  179.5520  142.0680 F   0  0  0  0  0  0  0  0  0  0  0  0
  185.0690  179.1170  142.5880 C   0  0  0  0  0  0  0  0  0  0  0  0
  184.0400  178.9910  140.4510 O   0  0  0  0  0  0  0  0  0  0  0  0
  182.6150  178.7300  142.2790 N   0  0  0  0  0  2  0  0  0  0  0  0
  1 21  1  6  0  0  0
  1 10  1  0  0  0  0
  3 15  1  6  0  0  0
  3  5  1  0  0  0  0
  3  9  1  0  0  0  0
  4  7  1  1  0  0  0
  4  8  1  0  0  0  0
  6  8  1  0  0  0  0
  8  2  1  1  0  0  0
  9  7  1  0  0  0  0
 10  6  1  0  0  0  0
 11  5  1  6  0  0  0
 11  1  1  0  0  0  0
 11  4  1  0  0  0  0
 12 15  1  0  0  0  0
 13 18  1  0  0  0  0
 14 19  1  1  0  0  0
 14 17  1  0  0  0  0
 14 20  1  0  0  0  0
 17 13  1  0  0  0  0
 18 15  1  0  0  0  0
 18 16  2  0  0  0  0
 20 12  1  0  0  0  0
 21 22  1  0  0  0  0
 23 28  1  0  0  0  0
 23 26  1  0  0  0  0
 24 22  1  0  0  0  0
 25 26  1  0  0  0  0
 26 21  2  0  0  0  0
 27 23  2  0  0  0  0
 28 24  1  0  0  0  0
M  END
>  <MODEL>
6

>  <REMARK>
 VINA RESULT:      -7.6      1.997      5.899
  Name = 
  2 active torsions:
  status: ('A' for Active; 'I' for Inactive)
    1  A    between atoms: C_1  and  C_2
    2  A    between atoms: C_10  and  N_13
                            x       y       z     vdW  Elec       q    Type
                         _______ _______ _______ _____ _____    ______ ____

>  <TORSDO>
F 2

$$$$
=
 OpenBabel11052413243D

 28 31  0  0  1  0  0  0  0  0999 V2000
  182.9220  178.7770  140.6300 C   0  0  1  0  0  3  0  0  0  0  0  0
  180.2290  179.2210  143.9870 C   0  0  0  0  0  1  0  0  0  0  0  0
  185.3800  178.6560  143.6570 C   0  0  1  0  0  3  0  0  0  0  0  0
  182.6730  179.2160  143.1340 C   0  0  2  0  0  3  0  0  0  0  0  0
  184.9280  178.6130  142.1840 C   0  0  0  0  0  2  0  0  0  0  0  0
  180.7740  178.5320  141.7510 O   0  0  0  0  0  0  0  0  0  0  0  0
  182.9880  178.6320  144.5250 C   0  0  0  0  0  2  0  0  0  0  0  0
  181.1670  179.3820  142.8010 C   0  0  1  0  0  3  0  0  0  0  0  0
  184.3830  177.9940  144.6160 C   0  0  0  0  0  2  0  0  0  0  0  0
  181.4020  179.0280  140.5940 C   0  0  0  0  0  2  0  0  0  0  0  0
  183.4150  178.4310  142.0420 C   0  0  2  0  0  3  0  0  0  0  0  0
  187.3060  177.4900  142.6200 C   0  0  0  0  0  2  0  0  0  0  0  0
  188.8740  178.0090  145.2360 C   0  0  0  0  0  2  0  0  0  0  0  0
  189.8020  177.3470  142.9890 C   0  0  1  0  0  3  0  0  0  0  0  0
  186.7200  178.0920  143.8140 N   0  0  0  0  0  0  0  0  0  0  0  0
  186.7010  178.1760  146.1580 O   0  0  0  0  0  0  0  0  0  0  0  0
  189.4770  176.8860  144.4100 C   0  0  0  0  0  2  0  0  0  0  0  0
  187.3800  178.0660  145.1020 C   0  0  0  0  0  0  0  0  0  0  0  0
  190.1560  176.2420  142.2150 O   0  0  0  0  0  1  0  0  0  0  0  0
  188.6620  178.1090  142.3090 C   0  0  0  0  0  2  0  0  0  0  0  0
  183.3320  177.7350  139.6270 C   0  0  0  0  0  0  0  0  0  0  0  0
  182.7210  176.3620  139.7640 C   0  0  0  0  0  2  0  0  0  0  0  0
  184.5220  176.9500  137.6510 C   0  0  0  0  0  0  0  0  0  0  0  0
  182.4790  175.7280  138.3930 C   0  0  0  0  0  2  0  0  0  0  0  0
  184.8470  179.1930  138.5650 F   0  0  0  0  0  0  0  0  0  0  0  0
  184.2340  177.9850  138.6580 C   0  0  0  0  0  0  0  0  0  0  0  0
  185.4760  177.0890  136.8420 O   0  0  0  0  0  0  0  0  0  0  0  0
  183.7040  175.7790  137.6020 N   0  0  0  0  0  2  0  0  0  0  0  0
  1 21  1  6  0  0  0
  1 11  1  0  0  0  0
  3  5  1  6  0  0  0
  3 15  1  0  0  0  0
  3  9  1  0  0  0  0
  4  7  1  1  0  0  0
  6  8  1  0  0  0  0
  7  9  1  0  0  0  0
  8  4  1  0  0  0  0
  8  2  1  1  0  0  0
 10  1  1  0  0  0  0
 10  6  1  0  0  0  0
 11  5  1  6  0  0  0
 11  4  1  0  0  0  0
 12 15  1  0  0  0  0
 14 19  1  6  0  0  0
 14 17  1  0  0  0  0
 15 18  1  0  0  0  0
 17 13  1  0  0  0  0
 18 13  1  0  0  0  0
 18 16  2  0  0  0  0
 20 12  1  0  0  0  0
 20 14  1  0  0  0  0
 21 22  1  0  0  0  0
 23 26  1  0  0  0  0
 24 22  1  0  0  0  0
 25 26  1  0  0  0  0
 26 21  2  0  0  0  0
 27 23  2  0  0  0  0
 28 23  1  0  0  0  0
 28 24  1  0  0  0  0
M  END
>  <MODEL>
7

>  <REMARK>
 VINA RESULT:      -7.6      2.673      6.908
  Name = 
  2 active torsions:
  status: ('A' for Active; 'I' for Inactive)
    1  A    between atoms: C_1  and  C_2
    2  A    between atoms: C_10  and  N_13
                            x       y       z     vdW  Elec       q    Type
                         _______ _______ _______ _____ _____    ______ ____

>  <TORSDO>
F 2

$$$$
=
 OpenBabel11052413243D

 28 31  0  0  1  0  0  0  0  0999 V2000
  183.2600  178.4450  140.2630 C   0  0  1  0  0  3  0  0  0  0  0  0
  181.5800  179.0000  144.2120 C   0  0  0  0  0  1  0  0  0  0  0  0
  186.4590  178.5520  142.4920 C   0  0  1  0  0  3  0  0  0  0  0  0
  183.6930  179.0120  142.7150 C   0  0  2  0  0  3  0  0  0  0  0  0
  185.6220  178.4170  141.2060 C   0  0  0  0  0  2  0  0  0  0  0  0
  181.5150  178.2050  141.9450 O   0  0  0  0  0  0  0  0  0  0  0  0
  184.4010  178.5130  143.9890 C   0  0  0  0  0  2  0  0  0  0  0  0
  182.1480  179.1210  142.8050 C   0  0  1  0  0  3  0  0  0  0  0  0
  185.7920  177.9170  143.7190 C   0  0  0  0  0  2  0  0  0  0  0  0
  181.7800  178.6540  140.6380 C   0  0  0  0  0  2  0  0  0  0  0  0
  184.1360  178.1890  141.4960 C   0  0  2  0  0  3  0  0  0  0  0  0
  188.4600  177.4710  143.4790 C   0  0  0  0  0  2  0  0  0  0  0  0
  189.5860  177.2140  140.6080 C   0  0  0  0  0  2  0  0  0  0  0  0
  190.3540  176.0010  142.6800 C   0  0  1  0  0  3  0  0  0  0  0  0
  187.8120  178.0320  142.2970 N   0  0  0  0  0  0  0  0  0  0  0  0
  188.0970  179.0030  140.1810 O   0  0  0  0  0  0  0  0  0  0  0  0
  190.6690  177.1060  141.6690 C   0  0  0  0  0  2  0  0  0  0  0  0
  188.4860  178.1480  141.0210 C   0  0  0  0  0  0  0  0  0  0  0  0
  191.2580  176.0740  143.7390 O   0  0  0  0  0  1  0  0  0  0  0  0
  188.9220  176.0440  143.2180 C   0  0  0  0  0  2  0  0  0  0  0  0
  183.4190  177.3610  139.2340 C   0  0  0  0  0  0  0  0  0  0  0  0
  182.6800  176.0670  139.4680 C   0  0  0  0  0  2  0  0  0  0  0  0
  184.2530  176.4420  137.1360 C   0  0  0  0  0  0  0  0  0  0  0  0
  182.1960  175.4620  138.1490 C   0  0  0  0  0  2  0  0  0  0  0  0
  184.9420  178.6350  137.9660 F   0  0  0  0  0  0  0  0  0  0  0  0
  184.2140  177.5050  138.1540 C   0  0  0  0  0  0  0  0  0  0  0  0
  185.1070  176.4700  136.2110 O   0  0  0  0  0  0  0  0  0  0  0  0
  183.3080  175.3710  137.2090 N   0  0  0  0  0  2  0  0  0  0  0  0
  1 21  1  6  0  0  0
  1 10  1  0  0  0  0
  1 11  1  0  0  0  0
  3  5  1  6  0  0  0
  3  9  1  0  0  0  0
  4  8  1  0  0  0  0
  4  7  1  1  0  0  0
  6  8  1  0  0  0  0
  8  2  1  1  0  0  0
  9  7  1  0  0  0  0
 10  6  1  0  0  0  0
 11  5  1  6  0  0  0
 11  4  1  0  0  0  0
 13 18  1  0  0  0  0
 13 17  1  0  0  0  0
 14 20  1  0  0  0  0
 14 19  1  1  0  0  0
 15  3  1  0  0  0  0
 15 12  1  0  0  0  0
 16 18  2  0  0  0  0
 17 14  1  0  0  0  0
 18 15  1  0  0  0  0
 20 12  1  0  0  0  0
 21 22  1  0  0  0  0
 23 28  1  0  0  0  0
 23 26  1  0  0  0  0
 24 22  1  0  0  0  0
 25 26  1  0  0  0  0
 26 21  2  0  0  0  0
 27 23  2  0  0  0  0
 28 24  1  0  0  0  0
M  END
>  <MODEL>
8

>  <REMARK>
 VINA RESULT:      -7.5      2.950      7.147
  Name = 
  2 active torsions:
  status: ('A' for Active; 'I' for Inactive)
    1  A    between atoms: C_1  and  C_2
    2  A    between atoms: C_10  and  N_13
                            x       y       z     vdW  Elec       q    Type
                         _______ _______ _______ _____ _____    ______ ____

>  <TORSDO>
F 2

$$$$
=
 OpenBabel11052413243D

 28 31  0  0  1  0  0  0  0  0999 V2000
  188.7660  178.1090  145.8370 C   0  0  1  0  0  3  0  0  0  0  0  0
  192.0650  175.6460  147.1660 C   0  0  0  0  0  1  0  0  0  0  0  0
  190.5790  177.3080  142.4760 C   0  0  1  0  0  3  0  0  0  0  0  0
  190.9920  177.0070  145.2430 C   0  0  2  0  0  3  0  0  0  0  0  0
  189.5050  177.8970  143.4130 C   0  0  0  0  0  2  0  0  0  0  0  0
  189.8360  176.5240  147.3450 O   0  0  0  0  0  0  0  0  0  0  0  0
  191.6360  175.9360  144.3410 C   0  0  0  0  0  2  0  0  0  0  0  0
  191.0990  176.7520  146.7700 C   0  0  1  0  0  3  0  0  0  0  0  0
  191.0680  175.9210  142.9130 C   0  0  0  0  0  2  0  0  0  0  0  0
  189.1550  177.7540  147.2840 C   0  0  0  0  0  2  0  0  0  0  0  0
  189.5420  177.2730  144.8100 C   0  0  2  0  0  3  0  0  0  0  0  0
  188.6810  177.1220  140.8920 C   0  0  0  0  0  2  0  0  0  0  0  0
  190.6520  177.8780  138.6310 C   0  0  0  0  0  2  0  0  0  0  0  0
  188.1330  177.9150  138.5570 C   0  0  1  0  0  3  0  0  0  0  0  0
  190.1170  177.2940  141.0890 N   0  0  0  0  0  0  0  0  0  0  0  0
  192.2620  177.0700  140.1660 O   0  0  0  0  0  0  0  0  0  0  0  0
  189.4020  177.1900  138.1070 C   0  0  0  0  0  2  0  0  0  0  0  0
  191.0500  177.3650  139.9850 C   0  0  0  0  0  0  0  0  0  0  0  0
  187.0190  177.1410  138.2310 O   0  0  0  0  0  1  0  0  0  0  0  0
  188.1080  178.2530  140.0500 C   0  0  0  0  0  2  0  0  0  0  0  0
  187.2800  178.0080  145.6250 C   0  0  0  0  0  0  0  0  0  0  0  0
  186.4430  177.5460  146.7910 C   0  0  0  0  0  2  0  0  0  0  0  0
  185.2360  178.2540  144.3230 C   0  0  0  0  0  0  0  0  0  0  0  0
  185.0880  178.2550  146.8110 C   0  0  0  0  0  2  0  0  0  0  0  0
  187.4500  178.6280  143.3580 F   0  0  0  0  0  0  0  0  0  0  0  0
  186.7030  178.2810  144.4380 C   0  0  0  0  0  0  0  0  0  0  0  0
  184.6790  178.3350  143.1960 O   0  0  0  0  0  0  0  0  0  0  0  0
  184.4450  178.1310  145.5070 N   0  0  0  0  0  2  0  0  0  0  0  0
  1 21  1  1  0  0  0
  1 10  1  0  0  0  0
  3 15  1  6  0  0  0
  3  9  1  0  0  0  0
  3  5  1  0  0  0  0
  4  7  1  6  0  0  0
  4  8  1  0  0  0  0
  8  2  1  6  0  0  0
  8  6  1  0  0  0  0
  9  7  1  0  0  0  0
 10  6  1  0  0  0  0
 11  5  1  6  0  0  0
 11  4  1  0  0  0  0
 11  1  1  0  0  0  0
 12 15  1  0  0  0  0
 13 18  1  0  0  0  0
 14 19  1  1  0  0  0
 14 20  1  0  0  0  0
 17 14  1  0  0  0  0
 17 13  1  0  0  0  0
 18 16  2  0  0  0  0
 18 15  1  0  0  0  0
 20 12  1  0  0  0  0
 21 22  1  0  0  0  0
 22 24  1  0  0  0  0
 23 26  1  0  0  0  0
 23 28  1  0  0  0  0
 25 26  1  0  0  0  0
 26 21  2  0  0  0  0
 27 23  2  0  0  0  0
 28 24  1  0  0  0  0
M  END
>  <MODEL>
9

>  <REMARK>
 VINA RESULT:      -7.4      2.287      5.702
  Name = 
  2 active torsions:
  status: ('A' for Active; 'I' for Inactive)
    1  A    between atoms: C_1  and  C_2
    2  A    between atoms: C_10  and  N_13
                            x       y       z     vdW  Elec       q    Type
                         _______ _______ _______ _____ _____    ______ ____

>  <TORSDO>
F 2

$$$$
