=
 OpenBabel11052415253D

 37 41  0  0  1  0  0  0  0  0999 V2000
  190.7380  176.7060  145.9680 C   0  0  2  0  0  3  0  0  0  0  0  0
  190.5170  176.1500  142.4260 C   0  0  0  0  0  2  0  0  0  0  0  0
  188.2830  176.8820  143.4650 C   0  0  2  0  0  3  0  0  0  0  0  0
  192.5030  179.1440  144.2340 O   0  0  0  0  0  1  0  0  0  0  0  0
  189.1300  175.7290  142.9210 C   0  0  0  0  0  2  0  0  0  0  0  0
  191.5030  177.8740  145.8460 O   0  0  0  0  0  0  0  0  0  0  0  0
  191.5500  178.1550  144.4720 C   0  0  1  0  0  3  0  0  0  0  0  0
  190.5780  177.4760  141.6450 C   0  0  2  0  0  3  0  0  0  0  0  0
  188.9910  177.7700  144.5020 C   0  0  2  0  0  3  0  0  0  0  0  0
  190.1540  178.7440  142.4180 C   0  0  0  0  0  2  0  0  0  0  0  0
  190.1740  178.6170  143.9530 C   0  0  2  0  0  3  0  0  0  0  0  0
  189.2650  177.0700  145.8410 C   0  0  0  0  0  2  0  0  0  0  0  0
  189.9190  177.3950  140.3020 C   0  0  0  0  0  0  0  0  0  0  0  0
  189.0650  178.7240  137.5400 C   0  0  0  0  0  2  0  0  0  0  0  0
  189.1740  177.8290  136.3180 C   0  0  0  0  0  2  0  0  0  0  0  0
  190.4360  176.9780  136.3720 C   0  0  0  0  0  2  0  0  0  0  0  0
  190.8580  175.7510  138.5030 C   0  0  0  0  0  3  0  0  0  0  0  0
  190.2100  175.6920  137.1580 C   0  0  0  0  0  2  0  0  0  0  0  0
  188.1620  178.0830  138.5790 C   0  0  0  0  0  2  0  0  0  0  0  0
  190.4070  176.5600  139.4200 C   0  0  0  0  0  0  0  0  0  0  0  0
  188.7400  178.2830  139.9790 C   0  0  0  0  0  2  0  0  0  0  0  0
  190.9930  176.0630  147.3190 C   0  0  0  0  0  3  0  0  0  0  0  0
  192.1690  176.7470  147.9860 C   0  0  0  0  0  2  0  0  0  0  0  0
  192.3590  175.4060  147.3100 C   0  0  0  0  0  2  0  0  0  0  0  0
  186.9260  176.3990  143.9610 C   0  0  0  0  0  2  0  0  0  0  0  0
  184.9720  179.5470  144.7600 N   0  0  0  0  0  0  0  0  0  0  0  0
  185.5320  178.5500  144.0170 C   0  0  0  0  0  0  0  0  0  0  0  0
  185.0290  179.5650  146.1170 C   0  0  0  0  0  3  0  0  0  0  0  0
  186.2700  177.5100  146.0800 C   0  0  0  0  0  3  0  0  0  0  0  0
  185.6780  178.5430  146.8040 C   0  0  0  0  0  3  0  0  0  0  0  0
  186.2080  177.4970  144.6830 C   0  0  0  0  0  0  0  0  0  0  0  0
  183.9830  178.0220  140.5140 C   0  0  0  0  0  0  0  0  0  0  0  0
  185.3940  178.6250  142.5440 C   0  0  0  0  0  0  0  0  0  0  0  0
  184.2520  178.0240  141.9190 N   0  0  0  0  0  2  0  0  0  0  0  0
  186.2740  179.1910  141.8390 O   0  0  0  0  0  0  0  0  0  0  0  0
  182.5080  177.2180  139.9070 S   0  0  0  0  0  1  0  0  0  0  0  0
  184.7660  178.5760  139.6980 O   0  0  0  0  0  0  0  0  0  0  0  0
  1 22  1  1  0  0  0
  2  5  1  0  0  0  0
  3 25  1  1  0  0  0
  3  9  1  0  0  0  0
  5  3  1  0  0  0  0
  6  1  1  0  0  0  0
  7  4  1  1  0  0  0
  7  6  1  0  0  0  0
  8 13  1  6  0  0  0
  8 10  1  0  0  0  0
  8  2  1  0  0  0  0
  9 12  1  1  0  0  0
 11 10  1  6  0  0  0
 11  7  1  0  0  0  0
 11  9  1  0  0  0  0
 12  1  1  0  0  0  0
 14 19  1  0  0  0  0
 15 16  1  0  0  0  0
 15 14  1  0  0  0  0
 16 18  1  0  0  0  0
 17 20  2  0  0  0  0
 18 17  1  0  0  0  0
 19 21  1  0  0  0  0
 20 13  2  0  0  0  0
 21 13  1  0  0  0  0
 22 23  1  0  0  0  0
 24 22  1  0  0  0  0
 24 23  1  0  0  0  0
 25 31  1  0  0  0  0
 26 28  1  0  0  0  0
 27 31  1  0  0  0  0
 27 26  2  0  0  0  0
 28 30  2  0  0  0  0
 29 30  1  0  0  0  0
 31 29  2  0  0  0  0
 32 34  1  0  0  0  0
 33 27  1  0  0  0  0
 34 33  1  0  0  0  0
 35 33  2  0  0  0  0
 36 32  1  0  0  0  0
 37 32  2  0  0  0  0
M  END
>  <MODEL>
1

>  <REMARK>
 VINA RESULT:      -9.9      0.000      0.000
  Name = 
  5 active torsions:
  status: ('A' for Active; 'I' for Inactive)
    1  A    between atoms: C_1  and  C_5
    2  A    between atoms: C_2  and  C_27
    3  A    between atoms: C_4  and  C_10
    4  A    between atoms: C_4  and  C_28
    5  A    between atoms: C_13  and  C_20
                            x       y       z     vdW  Elec       q    Type
                         _______ _______ _______ _____ _____    ______ ____

>  <TORSDO>
F 5

$$$$
=
 OpenBabel11052415253D

 37 41  0  0  1  0  0  0  0  0999 V2000
  190.8310  176.6500  145.9890 C   0  0  2  0  0  3  0  0  0  0  0  0
  190.3550  176.1130  142.4680 C   0  0  0  0  0  2  0  0  0  0  0  0
  188.2560  177.0310  143.6330 C   0  0  2  0  0  3  0  0  0  0  0  0
  192.6900  178.9300  144.1410 O   0  0  0  0  0  1  0  0  0  0  0  0
  188.9700  175.8110  143.0460 C   0  0  0  0  0  2  0  0  0  0  0  0
  191.6830  177.7490  145.8150 O   0  0  0  0  0  0  0  0  0  0  0  0
  191.6720  178.0250  144.4400 C   0  0  1  0  0  3  0  0  0  0  0  0
  190.4810  177.4290  141.6780 C   0  0  2  0  0  3  0  0  0  0  0  0
  189.0970  177.8560  144.6220 C   0  0  2  0  0  3  0  0  0  0  0  0
  190.2120  178.7290  142.4680 C   0  0  0  0  0  2  0  0  0  0  0  0
  190.3120  178.6010  144.0000 C   0  0  2  0  0  3  0  0  0  0  0  0
  189.3890  177.1360  145.9460 C   0  0  0  0  0  2  0  0  0  0  0  0
  189.7400  177.4030  140.3770 C   0  0  0  0  0  0  0  0  0  0  0  0
  188.7470  178.8360  137.7150 C   0  0  0  0  0  2  0  0  0  0  0  0
  188.7610  177.9780  136.4610 C   0  0  0  0  0  2  0  0  0  0  0  0
  190.0060  177.1020  136.4120 C   0  0  0  0  0  2  0  0  0  0  0  0
  190.5330  175.8000  138.4740 C   0  0  0  0  0  3  0  0  0  0  0  0
  189.8020  175.7960  137.1700 C   0  0  0  0  0  2  0  0  0  0  0  0
  187.8950  178.1800  138.7880 C   0  0  0  0  0  2  0  0  0  0  0  0
  190.1550  176.5880  139.4410 C   0  0  0  0  0  0  0  0  0  0  0  0
  188.5620  178.3240  140.1540 C   0  0  0  0  0  2  0  0  0  0  0  0
  191.1100  175.9880  147.3250 C   0  0  0  0  0  3  0  0  0  0  0  0
  192.3620  176.5900  147.9310 C   0  0  0  0  0  2  0  0  0  0  0  0
  192.4270  175.2410  147.2480 C   0  0  0  0  0  2  0  0  0  0  0  0
  186.8950  176.6650  144.2100 C   0  0  0  0  0  2  0  0  0  0  0  0
  184.4780  179.4680  145.0250 N   0  0  0  0  0  0  0  0  0  0  0  0
  185.3900  178.4740  145.2260 C   0  0  0  0  0  0  0  0  0  0  0  0
  184.0890  179.8620  143.7840 C   0  0  0  0  0  3  0  0  0  0  0  0
  185.5530  178.2210  142.8190 C   0  0  0  0  0  3  0  0  0  0  0  0
  184.6240  179.2460  142.6560 C   0  0  0  0  0  3  0  0  0  0  0  0
  185.9480  177.8200  144.1000 C   0  0  0  0  0  0  0  0  0  0  0  0
  187.5560  178.1840  148.4160 C   0  0  0  0  0  0  0  0  0  0  0  0
  185.7500  178.1390  146.6230 C   0  0  0  0  0  0  0  0  0  0  0  0
  187.0690  178.4440  147.0950 N   0  0  0  0  0  2  0  0  0  0  0  0
  184.9200  177.5760  147.3880 O   0  0  0  0  0  0  0  0  0  0  0  0
  189.2360  178.6260  148.8310 S   0  0  0  0  0  1  0  0  0  0  0  0
  186.8230  177.6500  149.2890 O   0  0  0  0  0  0  0  0  0  0  0  0
  1 22  1  1  0  0  0
  2  5  1  0  0  0  0
  3 25  1  1  0  0  0
  3  9  1  0  0  0  0
  5  3  1  0  0  0  0
  6  1  1  0  0  0  0
  7  4  1  1  0  0  0
  7  6  1  0  0  0  0
  8 13  1  6  0  0  0
  8  2  1  0  0  0  0
  8 10  1  0  0  0  0
  9 12  1  1  0  0  0
 11 10  1  6  0  0  0
 11  7  1  0  0  0  0
 11  9  1  0  0  0  0
 12  1  1  0  0  0  0
 14 19  1  0  0  0  0
 15 14  1  0  0  0  0
 16 15  1  0  0  0  0
 16 18  1  0  0  0  0
 17 20  2  0  0  0  0
 18 17  1  0  0  0  0
 19 21  1  0  0  0  0
 20 13  2  0  0  0  0
 21 13  1  0  0  0  0
 22 23  1  0  0  0  0
 24 22  1  0  0  0  0
 24 23  1  0  0  0  0
 26 27  1  0  0  0  0
 27 33  1  0  0  0  0
 28 26  2  0  0  0  0
 29 31  1  0  0  0  0
 30 29  2  0  0  0  0
 30 28  1  0  0  0  0
 31 25  1  0  0  0  0
 31 27  2  0  0  0  0
 32 36  1  0  0  0  0
 32 37  2  0  0  0  0
 33 34  1  0  0  0  0
 33 35  2  0  0  0  0
 34 32  1  0  0  0  0
M  END
>  <MODEL>
2

>  <REMARK>
 VINA RESULT:      -8.4      2.586      3.399
  Name = 
  5 active torsions:
  status: ('A' for Active; 'I' for Inactive)
    1  A    between atoms: C_1  and  C_5
    2  A    between atoms: C_2  and  C_27
    3  A    between atoms: C_4  and  C_10
    4  A    between atoms: C_4  and  C_28
    5  A    between atoms: C_13  and  C_20
                            x       y       z     vdW  Elec       q    Type
                         _______ _______ _______ _____ _____    ______ ____

>  <TORSDO>
F 5

$$$$
=
 OpenBabel11052415253D

 37 41  0  0  1  0  0  0  0  0999 V2000
  181.2870  178.9790  140.8160 C   0  0  2  0  0  3  0  0  0  0  0  0
  183.5370  178.7260  138.0260 C   0  0  0  0  0  2  0  0  0  0  0  0
  184.7070  178.3850  140.2890 C   0  0  2  0  0  3  0  0  0  0  0  0
  180.6320  176.1090  138.9720 O   0  0  0  0  0  1  0  0  0  0  0  0
  184.4220  179.3310  139.1200 C   0  0  0  0  0  2  0  0  0  0  0  0
  180.6350  177.7700  140.5370 O   0  0  0  0  0  0  0  0  0  0  0  0
  181.3580  177.1810  139.4890 C   0  0  1  0  0  3  0  0  0  0  0  0
  183.8220  177.2560  137.6670 C   0  0  2  0  0  3  0  0  0  0  0  0
  183.4620  177.7160  140.8960 C   0  0  2  0  0  3  0  0  0  0  0  0
  183.6210  176.2250  138.7990 C   0  0  0  0  0  2  0  0  0  0  0  0
  182.7390  176.6970  139.9710 C   0  0  2  0  0  3  0  0  0  0  0  0
  182.5330  178.6850  141.6410 C   0  0  0  0  0  2  0  0  0  0  0  0
  185.1330  177.0680  136.9680 C   0  0  0  0  0  0  0  0  0  0  0  0
  188.1790  177.8690  136.5090 C   0  0  0  0  0  2  0  0  0  0  0  0
  189.1320  176.7130  136.2570 C   0  0  0  0  0  2  0  0  0  0  0  0
  188.8040  175.5270  137.1550 C   0  0  0  0  0  2  0  0  0  0  0  0
  186.4160  174.8070  137.2190 C   0  0  0  0  0  3  0  0  0  0  0  0
  187.7340  174.6350  136.5360 C   0  0  0  0  0  2  0  0  0  0  0  0
  187.0590  177.8550  135.4830 C   0  0  0  0  0  2  0  0  0  0  0  0
  185.7540  175.9250  137.1070 C   0  0  0  0  0  0  0  0  0  0  0  0
  185.7270  178.1920  136.1490 C   0  0  0  0  0  2  0  0  0  0  0  0
  180.3620  179.8970  141.5930 C   0  0  0  0  0  3  0  0  0  0  0  0
  178.9330  179.6610  141.1480 C   0  0  0  0  0  2  0  0  0  0  0  0
  179.6950  180.8630  140.6350 C   0  0  0  0  0  2  0  0  0  0  0  0
  185.5730  179.0480  141.3520 C   0  0  0  0  0  2  0  0  0  0  0  0
  188.7090  177.3500  142.6350 N   0  0  0  0  0  0  0  0  0  0  0  0
  187.4510  177.8770  142.6450 C   0  0  0  0  0  0  0  0  0  0  0  0
  189.4620  177.2790  141.5060 C   0  0  0  0  0  3  0  0  0  0  0  0
  187.6790  178.3070  140.2690 C   0  0  0  0  0  3  0  0  0  0  0  0
  188.9570  177.7540  140.2990 C   0  0  0  0  0  3  0  0  0  0  0  0
  186.9100  178.3770  141.4350 C   0  0  0  0  0  0  0  0  0  0  0  0
  186.8900  177.8760  146.4710 C   0  0  0  0  0  0  0  0  0  0  0  0
  186.7170  177.8890  143.9320 C   0  0  0  0  0  0  0  0  0  0  0  0
  187.4590  177.8640  145.1580 N   0  0  0  0  0  2  0  0  0  0  0  0
  185.4560  177.9010  143.9580 O   0  0  0  0  0  0  0  0  0  0  0  0
  187.9690  177.8350  147.8930 S   0  0  0  0  0  1  0  0  0  0  0  0
  185.6430  177.9160  146.6410 O   0  0  0  0  0  0  0  0  0  0  0  0
  1 22  1  1  0  0  0
  1 12  1  0  0  0  0
  2  5  1  0  0  0  0
  3  9  1  0  0  0  0
  3 25  1  1  0  0  0
  5  3  1  0  0  0  0
  6  1  1  0  0  0  0
  7  4  1  1  0  0  0
  7 11  1  0  0  0  0
  7  6  1  0  0  0  0
  8 13  1  1  0  0  0
  8  2  1  0  0  0  0
  8 10  1  0  0  0  0
  9 12  1  6  0  0  0
 11 10  1  6  0  0  0
 11  9  1  0  0  0  0
 13 20  2  0  0  0  0
 15 14  1  0  0  0  0
 15 16  1  0  0  0  0
 18 16  1  0  0  0  0
 18 17  1  0  0  0  0
 19 21  1  0  0  0  0
 19 14  1  0  0  0  0
 20 17  2  0  0  0  0
 21 13  1  0  0  0  0
 23 22  1  0  0  0  0
 24 23  1  0  0  0  0
 24 22  1  0  0  0  0
 25 31  1  0  0  0  0
 26 27  1  0  0  0  0
 27 33  1  0  0  0  0
 28 26  2  0  0  0  0
 29 30  2  0  0  0  0
 29 31  1  0  0  0  0
 30 28  1  0  0  0  0
 31 27  2  0  0  0  0
 32 37  2  0  0  0  0
 32 36  1  0  0  0  0
 33 35  2  0  0  0  0
 33 34  1  0  0  0  0
 34 32  1  0  0  0  0
M  END
>  <MODEL>
3

>  <REMARK>
 VINA RESULT:      -8.3      3.405      7.720
  Name = 
  5 active torsions:
  status: ('A' for Active; 'I' for Inactive)
    1  A    between atoms: C_1  and  C_5
    2  A    between atoms: C_2  and  C_27
    3  A    between atoms: C_4  and  C_10
    4  A    between atoms: C_4  and  C_28
    5  A    between atoms: C_13  and  C_20
                            x       y       z     vdW  Elec       q    Type
                         _______ _______ _______ _____ _____    ______ ____

>  <TORSDO>
F 5

$$$$
=
 OpenBabel11052415253D

 37 41  0  0  1  0  0  0  0  0999 V2000
  183.9830  177.9250  141.0730 C   0  0  2  0  0  3  0  0  0  0  0  0
  186.4300  176.8780  143.4860 C   0  0  0  0  0  2  0  0  0  0  0  0
  187.1900  178.9090  142.1070 C   0  0  2  0  0  3  0  0  0  0  0  0
  182.8770  178.5800  144.3000 O   0  0  0  0  0  1  0  0  0  0  0  0
  187.2940  177.3990  142.3340 C   0  0  0  0  0  2  0  0  0  0  0  0
  183.0930  178.4260  142.0330 O   0  0  0  0  0  0  0  0  0  0  0  0
  183.7740  178.3500  143.2570 C   0  0  1  0  0  3  0  0  0  0  0  0
  186.3880  177.7610  144.7470 C   0  0  2  0  0  3  0  0  0  0  0  0
  185.7540  179.4500  142.0060 C   0  0  2  0  0  3  0  0  0  0  0  0
  185.8000  179.1780  144.5690 C   0  0  0  0  0  2  0  0  0  0  0  0
  184.9230  179.3750  143.3180 C   0  0  2  0  0  3  0  0  0  0  0  0
  185.0060  179.0030  140.7420 C   0  0  0  0  0  2  0  0  0  0  0  0
  187.6890  177.7850  145.4880 C   0  0  0  0  0  0  0  0  0  0  0  0
  189.8570  176.3780  147.3430 C   0  0  0  0  0  2  0  0  0  0  0  0
  191.3080  176.6780  147.0050 C   0  0  0  0  0  2  0  0  0  0  0  0
  191.5240  176.7020  145.4970 C   0  0  0  0  0  2  0  0  0  0  0  0
  189.9220  178.0730  144.1650 C   0  0  0  0  0  3  0  0  0  0  0  0
  191.2170  178.0740  144.9090 C   0  0  0  0  0  2  0  0  0  0  0  0
  189.1050  177.6700  147.6130 C   0  0  0  0  0  2  0  0  0  0  0  0
  188.7930  177.9350  144.8020 C   0  0  0  0  0  0  0  0  0  0  0  0
  187.7120  177.6100  146.9900 C   0  0  0  0  0  2  0  0  0  0  0  0
  183.2220  177.5370  139.8190 C   0  0  0  0  0  3  0  0  0  0  0  0
  181.7630  177.3200  140.1650 C   0  0  0  0  0  2  0  0  0  0  0  0
  182.6800  176.1300  139.9770 C   0  0  0  0  0  2  0  0  0  0  0  0
  188.0540  179.3640  140.9380 C   0  0  0  0  0  2  0  0  0  0  0  0
  189.5020  176.4550  138.9880 N   0  0  0  0  0  0  0  0  0  0  0  0
  188.6840  177.5030  139.2920 C   0  0  0  0  0  0  0  0  0  0  0  0
  190.5560  176.1010  139.7700 C   0  0  0  0  0  3  0  0  0  0  0  0
  190.0200  177.8890  141.2790 C   0  0  0  0  0  3  0  0  0  0  0  0
  190.8360  176.8160  140.9300 C   0  0  0  0  0  3  0  0  0  0  0  0
  188.9360  178.2470  140.4700 C   0  0  0  0  0  0  0  0  0  0  0  0
  185.5700  176.8980  137.0810 C   0  0  0  0  0  0  0  0  0  0  0  0
  187.5750  177.8070  138.3580 C   0  0  0  0  0  0  0  0  0  0  0  0
  186.6840  176.7540  137.9680 N   0  0  0  0  0  2  0  0  0  0  0  0
  187.4200  178.9690  137.8930 O   0  0  0  0  0  0  0  0  0  0  0  0
  184.5650  175.4720  136.6990 S   0  0  0  0  0  1  0  0  0  0  0  0
  185.2850  178.0110  136.5670 O   0  0  0  0  0  0  0  0  0  0  0  0
  1 22  1  6  0  0  0
  1  6  1  0  0  0  0
  2  8  1  0  0  0  0
  3 25  1  6  0  0  0
  3  5  1  0  0  0  0
  5  2  1  0  0  0  0
  6  7  1  0  0  0  0
  7 11  1  0  0  0  0
  7  4  1  1  0  0  0
  8 13  1  6  0  0  0
  9 12  1  6  0  0  0
  9  3  1  0  0  0  0
  9 11  1  0  0  0  0
 10  8  1  0  0  0  0
 11 10  1  1  0  0  0
 12  1  1  0  0  0  0
 13 21  1  0  0  0  0
 14 19  1  0  0  0  0
 15 14  1  0  0  0  0
 16 15  1  0  0  0  0
 17 20  2  0  0  0  0
 17 18  1  0  0  0  0
 18 16  1  0  0  0  0
 20 13  2  0  0  0  0
 21 19  1  0  0  0  0
 22 24  1  0  0  0  0
 22 23  1  0  0  0  0
 24 23  1  0  0  0  0
 26 27  2  0  0  0  0
 26 28  1  0  0  0  0
 27 31  1  0  0  0  0
 28 30  2  0  0  0  0
 30 29  1  0  0  0  0
 31 25  1  0  0  0  0
 31 29  2  0  0  0  0
 32 34  1  0  0  0  0
 33 27  1  0  0  0  0
 34 33  1  0  0  0  0
 35 33  2  0  0  0  0
 36 32  1  0  0  0  0
 37 32  2  0  0  0  0
M  END
>  <MODEL>
4

>  <REMARK>
 VINA RESULT:      -8.1      2.986      7.297
  Name = 
  5 active torsions:
  status: ('A' for Active; 'I' for Inactive)
    1  A    between atoms: C_1  and  C_5
    2  A    between atoms: C_2  and  C_27
    3  A    between atoms: C_4  and  C_10
    4  A    between atoms: C_4  and  C_28
    5  A    between atoms: C_13  and  C_20
                            x       y       z     vdW  Elec       q    Type
                         _______ _______ _______ _____ _____    ______ ____

>  <TORSDO>
F 5

$$$$
=
 OpenBabel11052415253D

 37 41  0  0  1  0  0  0  0  0999 V2000
  190.5030  176.9940  145.9180 C   0  0  2  0  0  3  0  0  0  0  0  0
  190.8180  176.0780  142.4590 C   0  0  0  0  0  2  0  0  0  0  0  0
  188.5590  177.1790  143.0010 C   0  0  2  0  0  3  0  0  0  0  0  0
  192.8530  179.0010  144.3300 O   0  0  0  0  0  1  0  0  0  0  0  0
  189.3230  175.8810  142.7250 C   0  0  0  0  0  2  0  0  0  0  0  0
  191.4290  178.0430  145.8360 O   0  0  0  0  0  0  0  0  0  0  0  0
  191.7470  178.1630  144.4750 C   0  0  1  0  0  3  0  0  0  0  0  0
  191.1900  177.2930  141.5890 C   0  0  2  0  0  3  0  0  0  0  0  0
  189.1930  178.0860  144.0680 C   0  0  2  0  0  3  0  0  0  0  0  0
  190.8170  178.6800  142.1560 C   0  0  0  0  0  2  0  0  0  0  0  0
  190.5560  178.7230  143.6730 C   0  0  2  0  0  3  0  0  0  0  0  0
  189.1360  177.5120  145.4910 C   0  0  0  0  0  2  0  0  0  0  0  0
  190.7670  177.1420  140.1600 C   0  0  0  0  0  0  0  0  0  0  0  0
  189.3660  175.4780  137.8380 C   0  0  0  0  0  2  0  0  0  0  0  0
  188.5580  176.2920  136.8410 C   0  0  0  0  0  2  0  0  0  0  0  0
  187.7730  177.3930  137.5410 C   0  0  0  0  0  2  0  0  0  0  0  0
  189.0480  178.8220  139.1400 C   0  0  0  0  0  3  0  0  0  0  0  0
  188.6130  178.6520  137.7210 C   0  0  0  0  0  2  0  0  0  0  0  0
  190.7980  175.9810  137.8830 C   0  0  0  0  0  2  0  0  0  0  0  0
  189.9080  177.9990  139.6720 C   0  0  0  0  0  0  0  0  0  0  0  0
  191.3050  176.0040  139.3240 C   0  0  0  0  0  2  0  0  0  0  0  0
  190.4330  176.4790  147.3440 C   0  0  0  0  0  3  0  0  0  0  0  0
  191.7510  176.7530  148.0410 C   0  0  0  0  0  2  0  0  0  0  0  0
  191.4440  175.3640  147.5230 C   0  0  0  0  0  2  0  0  0  0  0  0
  187.0840  176.9160  143.2790 C   0  0  0  0  0  2  0  0  0  0  0  0
  184.3700  179.3120  142.1570 N   0  0  0  0  0  0  0  0  0  0  0  0
  185.1440  178.5680  142.9980 C   0  0  0  0  0  0  0  0  0  0  0  0
  184.6010  179.3780  140.8190 C   0  0  0  0  0  3  0  0  0  0  0  0
  186.4670  177.8910  141.0810 C   0  0  0  0  0  3  0  0  0  0  0  0
  185.6590  178.6690  140.2570 C   0  0  0  0  0  3  0  0  0  0  0  0
  186.2240  177.8270  142.4570 C   0  0  0  0  0  0  0  0  0  0  0  0
  185.7020  178.6080  146.8240 C   0  0  0  0  0  0  0  0  0  0  0  0
  184.8090  178.5840  144.4410 C   0  0  0  0  0  0  0  0  0  0  0  0
  185.8720  178.5890  145.4030 N   0  0  0  0  0  2  0  0  0  0  0  0
  183.6080  178.5740  144.8270 O   0  0  0  0  0  0  0  0  0  0  0  0
  187.1440  178.6060  147.8780 S   0  0  0  0  0  1  0  0  0  0  0  0
  184.5560  178.6280  147.3440 O   0  0  0  0  0  0  0  0  0  0  0  0
  1 22  1  1  0  0  0
  2  5  1  0  0  0  0
  3 25  1  1  0  0  0
  3  9  1  0  0  0  0
  5  3  1  0  0  0  0
  6  1  1  0  0  0  0
  7  4  1  1  0  0  0
  7  6  1  0  0  0  0
  8 13  1  6  0  0  0
  8 10  1  0  0  0  0
  8  2  1  0  0  0  0
  9 12  1  1  0  0  0
 11 10  1  6  0  0  0
 11  9  1  0  0  0  0
 11  7  1  0  0  0  0
 12  1  1  0  0  0  0
 14 19  1  0  0  0  0
 15 16  1  0  0  0  0
 15 14  1  0  0  0  0
 16 18  1  0  0  0  0
 17 20  2  0  0  0  0
 18 17  1  0  0  0  0
 19 21  1  0  0  0  0
 20 13  2  0  0  0  0
 21 13  1  0  0  0  0
 22 24  1  0  0  0  0
 22 23  1  0  0  0  0
 24 23  1  0  0  0  0
 26 27  1  0  0  0  0
 27 33  1  0  0  0  0
 28 26  2  0  0  0  0
 29 31  1  0  0  0  0
 30 28  1  0  0  0  0
 30 29  2  0  0  0  0
 31 27  2  0  0  0  0
 31 25  1  0  0  0  0
 32 37  2  0  0  0  0
 32 36  1  0  0  0  0
 33 35  2  0  0  0  0
 33 34  1  0  0  0  0
 34 32  1  0  0  0  0
M  END
>  <MODEL>
5

>  <REMARK>
 VINA RESULT:      -8.1      2.129      3.342
  Name = 
  5 active torsions:
  status: ('A' for Active; 'I' for Inactive)
    1  A    between atoms: C_1  and  C_5
    2  A    between atoms: C_2  and  C_27
    3  A    between atoms: C_4  and  C_10
    4  A    between atoms: C_4  and  C_28
    5  A    between atoms: C_13  and  C_20
                            x       y       z     vdW  Elec       q    Type
                         _______ _______ _______ _____ _____    ______ ____

>  <TORSDO>
F 5

$$$$
=
 OpenBabel11052415253D

 37 41  0  0  1  0  0  0  0  0999 V2000
  185.6910  176.7810  137.5080 C   0  0  2  0  0  3  0  0  0  0  0  0
  182.6770  176.5620  139.4510 C   0  0  0  0  0  2  0  0  0  0  0  0
  184.1660  178.5430  140.1340 C   0  0  2  0  0  3  0  0  0  0  0  0
  182.9180  177.5380  135.5560 O   0  0  0  0  0  1  0  0  0  0  0  0
  183.6870  177.1250  140.4560 C   0  0  0  0  0  2  0  0  0  0  0  0
  185.0340  177.1830  136.3370 O   0  0  0  0  0  0  0  0  0  0  0  0
  183.6960  177.3920  136.7040 C   0  0  1  0  0  3  0  0  0  0  0  0
  181.6100  177.5510  138.9450 C   0  0  2  0  0  3  0  0  0  0  0  0
  184.6550  178.7460  138.6900 C   0  0  2  0  0  3  0  0  0  0  0  0
  182.1310  178.7790  138.1670 C   0  0  0  0  0  2  0  0  0  0  0  0
  183.5550  178.6420  137.5960 C   0  0  2  0  0  3  0  0  0  0  0  0
  185.9630  178.0110  138.3640 C   0  0  0  0  0  2  0  0  0  0  0  0
  180.6220  177.9380  140.0020 C   0  0  0  0  0  0  0  0  0  0  0  0
  179.6860  178.0000  143.0420 C   0  0  0  0  0  2  0  0  0  0  0  0
  179.0110  179.2830  143.4970 C   0  0  0  0  0  2  0  0  0  0  0  0
  179.7060  180.5050  142.9100 C   0  0  0  0  0  2  0  0  0  0  0  0
  180.1390  180.4640  140.4530 C   0  0  0  0  0  3  0  0  0  0  0  0
  179.1680  180.8430  141.5240 C   0  0  0  0  0  2  0  0  0  0  0  0
  178.9430  177.4120  141.8560 C   0  0  0  0  0  2  0  0  0  0  0  0
  180.3950  179.2100  140.2060 C   0  0  0  0  0  0  0  0  0  0  0  0
  179.9340  176.8730  140.8260 C   0  0  0  0  0  2  0  0  0  0  0  0
  187.0000  176.1000  137.1560 C   0  0  0  0  0  3  0  0  0  0  0  0
  186.8390  175.3450  135.8520 C   0  0  0  0  0  2  0  0  0  0  0  0
  186.8030  174.5980  137.1680 C   0  0  0  0  0  2  0  0  0  0  0  0
  185.1820  179.0390  141.1550 C   0  0  0  0  0  2  0  0  0  0  0  0
  184.7380  178.2230  144.8290 N   0  0  0  0  0  0  0  0  0  0  0  0
  185.3520  178.3510  143.6180 C   0  0  0  0  0  0  0  0  0  0  0  0
  183.4610  178.6330  145.0470 C   0  0  0  0  0  3  0  0  0  0  0  0
  183.3150  179.3510  142.7600 C   0  0  0  0  0  3  0  0  0  0  0  0
  182.7260  179.2090  144.0140 C   0  0  0  0  0  3  0  0  0  0  0  0
  184.6310  178.9260  142.5430 C   0  0  0  0  0  0  0  0  0  0  0  0
  188.8970  177.2820  144.7330 C   0  0  0  0  0  0  0  0  0  0  0  0
  186.7530  177.8830  143.5010 C   0  0  0  0  0  0  0  0  0  0  0  0
  187.5380  177.7280  144.6910 N   0  0  0  0  0  2  0  0  0  0  0  0
  187.2620  177.6400  142.3730 O   0  0  0  0  0  0  0  0  0  0  0  0
  189.7260  177.1530  146.3100 S   0  0  0  0  0  1  0  0  0  0  0  0
  189.5170  176.9790  143.6810 O   0  0  0  0  0  0  0  0  0  0  0  0
  1 22  1  6  0  0  0
  1 12  1  0  0  0  0
  2  5  1  0  0  0  0
  3  5  1  0  0  0  0
  3 25  1  1  0  0  0
  6  7  1  0  0  0  0
  6  1  1  0  0  0  0
  7  4  1  6  0  0  0
  7 11  1  0  0  0  0
  8  2  1  0  0  0  0
  8 13  1  1  0  0  0
  9 12  1  6  0  0  0
  9  3  1  0  0  0  0
 10  8  1  0  0  0  0
 11 10  1  1  0  0  0
 11  9  1  0  0  0  0
 13 20  2  0  0  0  0
 13 21  1  0  0  0  0
 14 15  1  0  0  0  0
 16 15  1  0  0  0  0
 17 18  1  0  0  0  0
 18 16  1  0  0  0  0
 19 14  1  0  0  0  0
 20 17  2  0  0  0  0
 21 19  1  0  0  0  0
 22 24  1  0  0  0  0
 23 22  1  0  0  0  0
 23 24  1  0  0  0  0
 25 31  1  0  0  0  0
 26 28  1  0  0  0  0
 27 26  2  0  0  0  0
 29 30  1  0  0  0  0
 30 28  2  0  0  0  0
 31 29  2  0  0  0  0
 31 27  1  0  0  0  0
 32 36  1  0  0  0  0
 33 27  1  0  0  0  0
 33 34  1  0  0  0  0
 34 32  1  0  0  0  0
 35 33  2  0  0  0  0
 37 32  2  0  0  0  0
M  END
>  <MODEL>
6

>  <REMARK>
 VINA RESULT:      -7.6      3.634      8.806
  Name = 
  5 active torsions:
  status: ('A' for Active; 'I' for Inactive)
    1  A    between atoms: C_1  and  C_5
    2  A    between atoms: C_2  and  C_27
    3  A    between atoms: C_4  and  C_10
    4  A    between atoms: C_4  and  C_28
    5  A    between atoms: C_13  and  C_20
                            x       y       z     vdW  Elec       q    Type
                         _______ _______ _______ _____ _____    ______ ____

>  <TORSDO>
F 5

$$$$
=
 OpenBabel11052415253D

 37 41  0  0  1  0  0  0  0  0999 V2000
  185.7370  179.1960  145.3250 C   0  0  2  0  0  3  0  0  0  0  0  0
  186.5530  179.6030  141.8500 C   0  0  0  0  0  2  0  0  0  0  0  0
  187.0630  177.2420  142.7280 C   0  0  2  0  0  3  0  0  0  0  0  0
  182.8510  179.5410  143.4220 O   0  0  0  0  0  1  0  0  0  0  0  0
  187.6170  178.6130  142.3330 C   0  0  0  0  0  2  0  0  0  0  0  0
  184.3520  179.2340  145.1150 O   0  0  0  0  0  0  0  0  0  0  0  0
  184.1790  179.2400  143.7230 C   0  0  1  0  0  3  0  0  0  0  0  0
  185.4540  179.0180  140.9440 C   0  0  2  0  0  3  0  0  0  0  0  0
  185.8700  177.2820  143.6970 C   0  0  2  0  0  3  0  0  0  0  0  0
  184.5620  177.9230  141.5700 C   0  0  0  0  0  2  0  0  0  0  0  0
  184.5590  177.8780  143.1100 C   0  0  2  0  0  3  0  0  0  0  0  0
  186.2270  177.7700  145.1070 C   0  0  0  0  0  2  0  0  0  0  0  0
  185.9610  178.6180  139.5920 C   0  0  0  0  0  0  0  0  0  0  0  0
  187.6860  176.7060  137.7240 C   0  0  0  0  0  2  0  0  0  0  0  0
  187.0710  176.3720  136.3760 C   0  0  0  0  0  2  0  0  0  0  0  0
  185.5720  176.1300  136.5030 C   0  0  0  0  0  2  0  0  0  0  0  0
  184.2700  177.8500  137.7560 C   0  0  0  0  0  3  0  0  0  0  0  0
  184.7850  177.4320  136.4170 C   0  0  0  0  0  2  0  0  0  0  0  0
  187.8160  178.2110  137.8810 C   0  0  0  0  0  2  0  0  0  0  0  0
  185.0930  178.2410  138.6890 C   0  0  0  0  0  0  0  0  0  0  0  0
  187.4450  178.6280  139.3030 C   0  0  0  0  0  2  0  0  0  0  0  0
  186.0550  179.6370  146.7410 C   0  0  0  0  0  3  0  0  0  0  0  0
  186.9830  178.6270  147.3850 C   0  0  0  0  0  2  0  0  0  0  0  0
  185.5070  178.6180  147.7190 C   0  0  0  0  0  2  0  0  0  0  0  0
  188.1650  176.3100  143.2180 C   0  0  0  0  0  2  0  0  0  0  0  0
  191.6810  177.6370  142.7280 N   0  0  0  0  0  0  0  0  0  0  0  0
  190.5440  177.2490  143.3750 C   0  0  0  0  0  0  0  0  0  0  0  0
  191.8380  177.5030  141.3850 C   0  0  0  0  0  3  0  0  0  0  0  0
  189.6380  176.5510  141.2360 C   0  0  0  0  0  3  0  0  0  0  0  0
  190.8180  176.9520  140.6140 C   0  0  0  0  0  3  0  0  0  0  0  0
  189.4830  176.6930  142.6190 C   0  0  0  0  0  0  0  0  0  0  0  0
  191.4080  176.7010  147.1040 C   0  0  0  0  0  0  0  0  0  0  0  0
  190.4910  177.4290  144.8440 C   0  0  0  0  0  0  0  0  0  0  0  0
  191.3470  176.6340  145.6760 N   0  0  0  0  0  2  0  0  0  0  0  0
  189.6930  178.2550  145.3670 O   0  0  0  0  0  0  0  0  0  0  0  0
  192.5330  175.6280  147.9830 S   0  0  0  0  0  1  0  0  0  0  0  0
  190.6840  177.5020  147.7510 O   0  0  0  0  0  0  0  0  0  0  0  0
  1 22  1  1  0  0  0
  2  5  1  0  0  0  0
  3 25  1  1  0  0  0
  3  9  1  0  0  0  0
  5  3  1  0  0  0  0
  6  1  1  0  0  0  0
  7  4  1  1  0  0  0
  7  6  1  0  0  0  0
  8 13  1  6  0  0  0
  8 10  1  0  0  0  0
  8  2  1  0  0  0  0
  9 12  1  1  0  0  0
 11 10  1  6  0  0  0
 11  9  1  0  0  0  0
 11  7  1  0  0  0  0
 12  1  1  0  0  0  0
 14 19  1  0  0  0  0
 15 16  1  0  0  0  0
 15 14  1  0  0  0  0
 17 20  2  0  0  0  0
 18 16  1  0  0  0  0
 18 17  1  0  0  0  0
 19 21  1  0  0  0  0
 20 13  2  0  0  0  0
 21 13  1  0  0  0  0
 22 23  1  0  0  0  0
 22 24  1  0  0  0  0
 23 24  1  0  0  0  0
 26 27  1  0  0  0  0
 27 33  1  0  0  0  0
 28 26  2  0  0  0  0
 29 31  1  0  0  0  0
 30 29  2  0  0  0  0
 30 28  1  0  0  0  0
 31 25  1  0  0  0  0
 31 27  2  0  0  0  0
 32 37  2  0  0  0  0
 32 36  1  0  0  0  0
 33 35  2  0  0  0  0
 33 34  1  0  0  0  0
 34 32  1  0  0  0  0
M  END
>  <MODEL>
7

>  <REMARK>
 VINA RESULT:      -7.4      3.301      6.272
  Name = 
  5 active torsions:
  status: ('A' for Active; 'I' for Inactive)
    1  A    between atoms: C_1  and  C_5
    2  A    between atoms: C_2  and  C_27
    3  A    between atoms: C_4  and  C_10
    4  A    between atoms: C_4  and  C_28
    5  A    between atoms: C_13  and  C_20
                            x       y       z     vdW  Elec       q    Type
                         _______ _______ _______ _____ _____    ______ ____

>  <TORSDO>
F 5

$$$$
=
 OpenBabel11052415253D

 37 41  0  0  1  0  0  0  0  0999 V2000
  190.7180  176.7100  137.3670 C   0  0  2  0  0  3  0  0  0  0  0  0
  187.2000  176.3110  137.9740 C   0  0  0  0  0  2  0  0  0  0  0  0
  188.2510  178.1890  139.3780 C   0  0  2  0  0  3  0  0  0  0  0  0
  188.8770  177.7050  134.5940 O   0  0  0  0  0  1  0  0  0  0  0  0
  187.7310  176.7500  139.3420 C   0  0  0  0  0  2  0  0  0  0  0  0
  190.5450  177.2440  136.0820 O   0  0  0  0  0  0  0  0  0  0  0  0
  189.1630  177.4260  135.9300 C   0  0  1  0  0  3  0  0  0  0  0  0
  186.3760  177.3600  137.2050 C   0  0  2  0  0  3  0  0  0  0  0  0
  189.2470  178.5440  138.2620 C   0  0  2  0  0  3  0  0  0  0  0  0
  187.1140  178.6610  136.8190 C   0  0  0  0  0  2  0  0  0  0  0  0
  188.6520  178.5720  136.8260 C   0  0  2  0  0  3  0  0  0  0  0  0
  190.6030  177.8350  138.3860 C   0  0  0  0  0  2  0  0  0  0  0  0
  185.0470  177.6390  137.8370 C   0  0  0  0  0  0  0  0  0  0  0  0
  182.3050  179.2500  137.9490 C   0  0  0  0  0  2  0  0  0  0  0  0
  181.0790  178.4370  138.3310 C   0  0  0  0  0  2  0  0  0  0  0  0
  181.1070  177.0630  137.6730 C   0  0  0  0  0  2  0  0  0  0  0  0
  183.2270  175.7670  137.8920 C   0  0  0  0  0  3  0  0  0  0  0  0
  181.8960  176.0600  138.5060 C   0  0  0  0  0  2  0  0  0  0  0  0
  183.3620  179.1430  139.0340 C   0  0  0  0  0  2  0  0  0  0  0  0
  184.1540  176.6830  137.8550 C   0  0  0  0  0  0  0  0  0  0  0  0
  184.7490  179.0060  138.4100 C   0  0  0  0  0  2  0  0  0  0  0  0
  192.0840  176.0580  137.4740 C   0  0  0  0  0  3  0  0  0  0  0  0
  192.4810  175.5010  136.1220 C   0  0  0  0  0  2  0  0  0  0  0  0
  191.9540  174.5740  137.1950 C   0  0  0  0  0  2  0  0  0  0  0  0
  188.7840  178.5610  140.7570 C   0  0  0  0  0  2  0  0  0  0  0  0
  186.8710  177.4070  143.8180 N   0  0  0  0  0  0  0  0  0  0  0  0
  187.9190  177.5860  142.9640 C   0  0  0  0  0  0  0  0  0  0  0  0
  185.6480  177.9570  143.5980 C   0  0  0  0  0  3  0  0  0  0  0  0
  186.4690  178.9380  141.5670 C   0  0  0  0  0  3  0  0  0  0  0  0
  185.4260  178.7380  142.4680 C   0  0  0  0  0  3  0  0  0  0  0  0
  187.7250  178.3680  141.7990 C   0  0  0  0  0  0  0  0  0  0  0  0
  190.9290  176.5040  145.1360 C   0  0  0  0  0  0  0  0  0  0  0  0
  189.2100  176.9510  143.3130 C   0  0  0  0  0  0  0  0  0  0  0  0
  189.7040  177.0660  144.6540 N   0  0  0  0  0  2  0  0  0  0  0  0
  189.8830  176.3300  142.4440 O   0  0  0  0  0  0  0  0  0  0  0  0
  191.3930  176.7530  146.8420 S   0  0  0  0  0  1  0  0  0  0  0  0
  191.6830  175.8360  144.3800 O   0  0  0  0  0  0  0  0  0  0  0  0
  1 22  1  6  0  0  0
  1 12  1  0  0  0  0
  2  5  1  0  0  0  0
  3 25  1  1  0  0  0
  5  3  1  0  0  0  0
  6  1  1  0  0  0  0
  7  4  1  6  0  0  0
  7  6  1  0  0  0  0
  7 11  1  0  0  0  0
  8 13  1  1  0  0  0
  8  2  1  0  0  0  0
  9 12  1  6  0  0  0
  9  3  1  0  0  0  0
 10  8  1  0  0  0  0
 11 10  1  1  0  0  0
 11  9  1  0  0  0  0
 13 20  2  0  0  0  0
 13 21  1  0  0  0  0
 14 15  1  0  0  0  0
 14 19  1  0  0  0  0
 16 15  1  0  0  0  0
 16 18  1  0  0  0  0
 17 18  1  0  0  0  0
 20 17  2  0  0  0  0
 21 19  1  0  0  0  0
 23 24  1  0  0  0  0
 23 22  1  0  0  0  0
 24 22  1  0  0  0  0
 25 31  1  0  0  0  0
 27 33  1  0  0  0  0
 27 26  2  0  0  0  0
 28 26  1  0  0  0  0
 29 31  2  0  0  0  0
 29 30  1  0  0  0  0
 30 28  2  0  0  0  0
 31 27  1  0  0  0  0
 32 36  1  0  0  0  0
 33 34  1  0  0  0  0
 34 32  1  0  0  0  0
 35 33  2  0  0  0  0
 37 32  2  0  0  0  0
M  END
>  <MODEL>
8

>  <REMARK>
 VINA RESULT:      -7.3      3.368      7.158
  Name = 
  5 active torsions:
  status: ('A' for Active; 'I' for Inactive)
    1  A    between atoms: C_1  and  C_5
    2  A    between atoms: C_2  and  C_27
    3  A    between atoms: C_4  and  C_10
    4  A    between atoms: C_4  and  C_28
    5  A    between atoms: C_13  and  C_20
                            x       y       z     vdW  Elec       q    Type
                         _______ _______ _______ _____ _____    ______ ____

>  <TORSDO>
F 5

$$$$
=
 OpenBabel11052415253D

 37 41  0  0  1  0  0  0  0  0999 V2000
  184.9520  175.7520  136.7970 C   0  0  2  0  0  3  0  0  0  0  0  0
  182.3630  176.0100  139.2750 C   0  0  0  0  0  2  0  0  0  0  0  0
  183.8340  178.1130  139.1410 C   0  0  2  0  0  3  0  0  0  0  0  0
  181.8290  175.9570  135.2880 O   0  0  0  0  0  1  0  0  0  0  0  0
  183.5050  176.8210  139.8930 C   0  0  0  0  0  2  0  0  0  0  0  0
  184.0690  175.8330  135.7110 O   0  0  0  0  0  0  0  0  0  0  0  0
  182.8120  176.1170  136.2640 C   0  0  1  0  0  3  0  0  0  0  0  0
  181.1660  176.8250  138.7520 C   0  0  2  0  0  3  0  0  0  0  0  0
  184.0380  177.9440  137.6260 C   0  0  2  0  0  3  0  0  0  0  0  0
  181.4630  177.8180  137.6060 C   0  0  0  0  0  2  0  0  0  0  0  0
  182.7640  177.5520  136.8260 C   0  0  2  0  0  3  0  0  0  0  0  0
  185.3040  177.1620  137.2490 C   0  0  0  0  0  2  0  0  0  0  0  0
  180.3680  177.4600  139.8480 C   0  0  0  0  0  0  0  0  0  0  0  0
  179.8780  178.0790  142.9310 C   0  0  0  0  0  2  0  0  0  0  0  0
  179.3670  179.4740  143.2490 C   0  0  0  0  0  2  0  0  0  0  0  0
  180.0570  180.5200  142.3830 C   0  0  0  0  0  2  0  0  0  0  0  0
  180.1330  180.0600  139.9320 C   0  0  0  0  0  3  0  0  0  0  0  0
  179.3530  180.6880  141.0410 C   0  0  0  0  0  2  0  0  0  0  0  0
  178.9350  177.3850  141.9640 C   0  0  0  0  0  2  0  0  0  0  0  0
  180.2620  178.7650  139.8650 C   0  0  0  0  0  0  0  0  0  0  0  0
  179.7290  176.6050  140.9190 C   0  0  0  0  0  2  0  0  0  0  0  0
  186.2120  175.0160  136.3820 C   0  0  0  0  0  3  0  0  0  0  0  0
  185.8330  173.7310  135.6750 C   0  0  0  0  0  2  0  0  0  0  0  0
  186.2870  173.6940  137.1180 C   0  0  0  0  0  2  0  0  0  0  0  0
  184.9890  178.8650  139.7910 C   0  0  0  0  0  2  0  0  0  0  0  0
  185.7820  178.3510  143.4610 N   0  0  0  0  0  0  0  0  0  0  0  0
  185.9880  178.4670  142.1180 C   0  0  0  0  0  0  0  0  0  0  0  0
  184.5650  178.5430  144.0330 C   0  0  0  0  0  3  0  0  0  0  0  0
  183.6330  178.9920  141.8660 C   0  0  0  0  0  3  0  0  0  0  0  0
  183.4660  178.8720  143.2430 C   0  0  0  0  0  3  0  0  0  0  0  0
  184.8900  178.7920  141.2840 C   0  0  0  0  0  0  0  0  0  0  0  0
  188.9020  178.2950  139.5830 C   0  0  0  0  0  0  0  0  0  0  0  0
  187.3620  178.2510  141.6080 C   0  0  0  0  0  0  0  0  0  0  0  0
  187.6290  178.4600  140.2150 N   0  0  0  0  0  2  0  0  0  0  0  0
  188.2860  177.8700  142.3780 O   0  0  0  0  0  0  0  0  0  0  0  0
  189.0530  178.5930  137.8280 S   0  0  0  0  0  1  0  0  0  0  0  0
  189.9170  177.9450  140.2410 O   0  0  0  0  0  0  0  0  0  0  0  0
  1 22  1  6  0  0  0
  1 12  1  0  0  0  0
  2  5  1  0  0  0  0
  3 25  1  1  0  0  0
  3  5  1  0  0  0  0
  6  7  1  0  0  0  0
  6  1  1  0  0  0  0
  7  4  1  6  0  0  0
  7 11  1  0  0  0  0
  8  2  1  0  0  0  0
  8 13  1  1  0  0  0
  9 12  1  1  0  0  0
  9  3  1  0  0  0  0
 10  8  1  0  0  0  0
 11 10  1  1  0  0  0
 11  9  1  0  0  0  0
 13 20  2  0  0  0  0
 13 21  1  0  0  0  0
 14 15  1  0  0  0  0
 16 15  1  0  0  0  0
 17 18  1  0  0  0  0
 18 16  1  0  0  0  0
 19 14  1  0  0  0  0
 20 17  2  0  0  0  0
 21 19  1  0  0  0  0
 22 24  1  0  0  0  0
 23 22  1  0  0  0  0
 23 24  1  0  0  0  0
 25 31  1  0  0  0  0
 26 28  1  0  0  0  0
 27 26  2  0  0  0  0
 29 30  1  0  0  0  0
 30 28  2  0  0  0  0
 31 29  2  0  0  0  0
 31 27  1  0  0  0  0
 32 34  1  0  0  0  0
 32 37  2  0  0  0  0
 33 27  1  0  0  0  0
 33 35  2  0  0  0  0
 34 33  1  0  0  0  0
 36 32  1  0  0  0  0
M  END
>  <MODEL>
9

>  <REMARK>
 VINA RESULT:      -7.2      3.926      9.099
  Name = 
  5 active torsions:
  status: ('A' for Active; 'I' for Inactive)
    1  A    between atoms: C_1  and  C_5
    2  A    between atoms: C_2  and  C_27
    3  A    between atoms: C_4  and  C_10
    4  A    between atoms: C_4  and  C_28
    5  A    between atoms: C_13  and  C_20
                            x       y       z     vdW  Elec       q    Type
                         _______ _______ _______ _____ _____    ______ ____

>  <TORSDO>
F 5

$$$$
