=
 OpenBabel11052413043D

 31 35  0  0  1  0  0  0  0  0999 V2000
  187.6080  177.8770  146.2550 C   0  0  0  0  0  0  0  0  0  0  0  0
  191.2000  175.9380  136.3030 C   0  0  0  0  0  3  0  0  0  0  0  0
  187.6470  177.8560  143.8010 C   0  0  0  0  0  2  0  0  0  0  0  0
  189.1270  176.1210  137.7700 C   0  0  1  0  0  3  0  0  0  0  0  0
  188.2970  176.3280  136.4940 C   0  0  1  0  0  3  0  0  0  0  0  0
  191.0490  178.0450  145.0800 O   0  0  0  0  0  0  0  0  0  0  0  0
  191.0010  177.0240  142.6250 O   0  0  0  0  0  0  0  0  0  0  0  0
  186.8890  178.1230  147.2850 N   0  0  0  0  0  2  0  0  0  0  0  0
  189.7720  177.3060  142.6160 C   0  0  0  0  0  0  0  0  0  0  0  0
  186.5160  175.2900  135.1140 C   0  0  0  0  0  2  0  0  0  0  0  0
  186.9660  177.2930  145.0390 C   0  0  0  0  0  2  0  0  0  0  0  0
  190.6140  176.2540  137.5380 C   0  0  0  0  0  0  0  0  0  0  0  0
  193.4010  176.3210  137.2350 C   0  0  0  0  0  3  0  0  0  0  0  0
  187.0100  175.5150  136.5370 C   0  0  0  0  0  2  0  0  0  0  0  0
  189.5770  177.0140  140.0830 C   0  0  0  0  0  0  0  0  0  0  0  0
  193.3080  175.6120  134.5990 Cl  0  0  0  0  0  0  0  0  0  0  0  0
  188.1120  178.6990  137.1010 N   0  0  0  0  0  0  0  0  0  0  0  0
  185.5390  176.3660  134.6210 C   0  0  0  0  0  2  0  0  0  0  0  0
  189.8050  177.8420  145.0830 C   0  0  0  0  0  0  0  0  0  0  0  0
  190.8590  176.8520  139.9140 N   0  0  0  0  0  0  0  0  0  0  0  0
  188.6480  177.0480  138.9000 C   0  0  1  0  0  3  0  0  0  0  0  0
  189.0920  177.6220  143.8450 N   0  0  0  0  0  0  0  0  0  0  0  0
  189.0380  177.2870  141.3820 N   0  0  0  0  0  2  0  0  0  0  0  0
  189.0960  177.7900  146.4070 C   0  0  0  0  0  2  0  0  0  0  0  0
  192.5880  175.9870  136.1490 C   0  0  0  0  0  0  0  0  0  0  0  0
  185.8980  177.8230  134.9490 C   0  0  0  0  0  2  0  0  0  0  0  0
  191.4390  176.5770  138.6320 C   0  0  0  0  0  0  0  0  0  0  0  0
  192.8280  176.6110  138.4770 C   0  0  0  0  0  3  0  0  0  0  0  0
  188.5380  178.4170  138.4100 N   0  0  0  0  0  2  0  0  0  0  0  0
  188.0070  177.7770  136.1910 C   0  0  0  0  0  0  0  0  0  0  0  0
  187.3900  178.1220  134.8780 C   0  0  0  0  0  2  0  0  0  0  0  0
  1 24  1  0  0  0  0
  1  8  2  0  0  0  0
  2 12  1  0  0  0  0
  3 22  1  0  0  0  0
  3 11  1  0  0  0  0
  4 12  1  6  0  0  0
  4 21  1  0  0  0  0
  5 14  1  1  0  0  0
  5  4  1  0  0  0  0
  6 19  2  0  0  0  0
  9  7  2  0  0  0  0
  9 22  1  0  0  0  0
 10 14  1  0  0  0  0
 11  1  1  0  0  0  0
 12 27  2  0  0  0  0
 13 28  2  0  0  0  0
 15 23  1  0  0  0  0
 16 25  1  0  0  0  0
 17 29  1  0  0  0  0
 18 26  1  0  0  0  0
 18 10  1  0  0  0  0
 19 24  1  0  0  0  0
 20 15  2  0  0  0  0
 21 29  1  6  0  0  0
 21 15  1  0  0  0  0
 22 19  1  0  0  0  0
 23  9  1  0  0  0  0
 25  2  2  0  0  0  0
 25 13  1  0  0  0  0
 27 20  1  0  0  0  0
 28 27  1  0  0  0  0
 30  5  1  0  0  0  0
 30 17  2  0  0  0  0
 31 26  1  0  0  0  0
 31 30  1  0  0  0  0
M  END
>  <MODEL>
1

>  <REMARK>
 VINA RESULT:      -9.4      0.000      0.000
  Name = 
  0 active torsions:
  status: ('A' for Active; 'I' for Inactive)
                            x       y       z     vdW  Elec       q    Type
                         _______ _______ _______ _____ _____    ______ ____

>  <TORSDO>
F 0

$$$$
=
 OpenBabel11052413043D

 31 35  0  0  1  0  0  0  0  0999 V2000
  181.2550  178.3490  137.4800 C   0  0  0  0  0  0  0  0  0  0  0  0
  187.5170  177.6650  146.2000 C   0  0  0  0  0  3  0  0  0  0  0  0
  183.3080  178.3130  138.8250 C   0  0  0  0  0  2  0  0  0  0  0  0
  187.3390  177.1310  143.7170 C   0  0  1  0  0  3  0  0  0  0  0  0
  188.8700  177.0190  143.6760 C   0  0  1  0  0  3  0  0  0  0  0  0
  180.5770  179.6950  140.7940 O   0  0  0  0  0  0  0  0  0  0  0  0
  182.4790  178.6910  142.3590 O   0  0  0  0  0  0  0  0  0  0  0  0
  180.7890  178.3410  136.2890 N   0  0  0  0  0  2  0  0  0  0  0  0
  183.1500  178.5260  141.3050 C   0  0  0  0  0  0  0  0  0  0  0  0
  190.7180  175.4070  143.2950 C   0  0  0  0  0  2  0  0  0  0  0  0
  182.4880  177.5630  137.7870 C   0  0  0  0  0  2  0  0  0  0  0  0
  186.8240  177.7720  144.9840 C   0  0  0  0  0  0  0  0  0  0  0  0
  185.7130  178.8040  147.3430 C   0  0  0  0  0  3  0  0  0  0  0  0
  189.3120  175.8080  142.8650 C   0  0  0  0  0  2  0  0  0  0  0  0
  185.3330  178.1530  142.5840 C   0  0  0  0  0  0  0  0  0  0  0  0
  187.8500  178.0740  148.8780 Cl  0  0  0  0  0  0  0  0  0  0  0  0
  188.9130  179.1830  142.5190 N   0  0  0  0  0  0  0  0  0  0  0  0
  191.8300  176.0680  142.4700 C   0  0  0  0  0  2  0  0  0  0  0  0
  181.1510  179.0700  139.8620 C   0  0  0  0  0  0  0  0  0  0  0  0
  184.8090  178.4460  143.7410 N   0  0  0  0  0  0  0  0  0  0  0  0
  186.8010  177.8460  142.4650 C   0  0  1  0  0  3  0  0  0  0  0  0
  182.5090  178.5990  140.0180 N   0  0  0  0  0  0  0  0  0  0  0  0
  184.5550  178.2360  141.3840 N   0  0  0  0  0  2  0  0  0  0  0  0
  180.3730  178.7900  138.6080 C   0  0  0  0  0  2  0  0  0  0  0  0
  186.9690  178.1940  147.3710 C   0  0  0  0  0  0  0  0  0  0  0  0
  191.6590  177.5620  142.1590 C   0  0  0  0  0  2  0  0  0  0  0  0
  185.5530  178.3760  144.9640 C   0  0  0  0  0  0  0  0  0  0  0  0
  185.0030  178.8910  146.1420 C   0  0  0  0  0  3  0  0  0  0  0  0
  187.5390  179.0840  142.2430 N   0  0  0  0  0  2  0  0  0  0  0  0
  189.5540  178.2710  143.1870 C   0  0  0  0  0  0  0  0  0  0  0  0
  191.0380  178.3630  143.2960 C   0  0  0  0  0  2  0  0  0  0  0  0
  1 11  1  0  0  0  0
  1 24  1  0  0  0  0
  2 25  1  0  0  0  0
  3 22  1  0  0  0  0
  4 12  1  1  0  0  0
  5 14  1  6  0  0  0
  5  4  1  0  0  0  0
  8  1  2  0  0  0  0
  9 23  1  0  0  0  0
  9  7  2  0  0  0  0
 11  3  1  0  0  0  0
 12  2  2  0  0  0  0
 13 25  2  0  0  0  0
 14 10  1  0  0  0  0
 15 20  2  0  0  0  0
 17 30  2  0  0  0  0
 18 10  1  0  0  0  0
 19 22  1  0  0  0  0
 19  6  2  0  0  0  0
 20 27  1  0  0  0  0
 21 29  1  1  0  0  0
 21 15  1  0  0  0  0
 21  4  1  0  0  0  0
 22  9  1  0  0  0  0
 23 15  1  0  0  0  0
 24 19  1  0  0  0  0
 25 16  1  0  0  0  0
 26 18  1  0  0  0  0
 26 31  1  0  0  0  0
 27 12  1  0  0  0  0
 27 28  2  0  0  0  0
 28 13  1  0  0  0  0
 29 17  1  0  0  0  0
 30 31  1  0  0  0  0
 30  5  1  0  0  0  0
M  END
>  <MODEL>
2

>  <REMARK>
 VINA RESULT:      -9.1      5.363      9.181
  Name = 
  0 active torsions:
  status: ('A' for Active; 'I' for Inactive)
                            x       y       z     vdW  Elec       q    Type
                         _______ _______ _______ _____ _____    ______ ____

>  <TORSDO>
F 0

$$$$
=
 OpenBabel11052413043D

 31 35  0  0  1  0  0  0  0  0999 V2000
  187.4990  177.5320  146.2320 C   0  0  0  0  0  0  0  0  0  0  0  0
  181.2020  179.3380  137.7010 C   0  0  0  0  0  3  0  0  0  0  0  0
  186.4270  177.1470  144.0590 C   0  0  0  0  0  2  0  0  0  0  0  0
  183.4040  178.3320  138.4880 C   0  0  1  0  0  3  0  0  0  0  0  0
  183.4330  177.4970  137.1980 C   0  0  1  0  0  3  0  0  0  0  0  0
  184.1800  179.0280  146.2180 O   0  0  0  0  0  0  0  0  0  0  0  0
  183.6030  179.4240  143.6510 O   0  0  0  0  0  0  0  0  0  0  0  0
  188.4080  177.1220  147.0340 N   0  0  0  0  0  2  0  0  0  0  0  0
  184.4590  178.5320  143.4020 C   0  0  0  0  0  0  0  0  0  0  0  0
  184.7040  177.1660  135.0940 C   0  0  0  0  0  2  0  0  0  0  0  0
  187.7390  177.4630  144.7600 C   0  0  0  0  0  2  0  0  0  0  0  0
  182.0630  178.9760  138.7480 C   0  0  0  0  0  0  0  0  0  0  0  0
  179.6820  180.3570  139.2850 C   0  0  0  0  0  3  0  0  0  0  0  0
  184.8230  177.4900  136.5780 C   0  0  0  0  0  2  0  0  0  0  0  0
  183.6550  178.2330  140.9930 C   0  0  0  0  0  0  0  0  0  0  0  0
  178.9310  180.4400  136.6610 Cl  0  0  0  0  0  0  0  0  0  0  0  0
  182.8310  175.5410  138.5530 N   0  0  0  0  0  0  0  0  0  0  0  0
  184.8140  175.6690  134.7770 C   0  0  0  0  0  2  0  0  0  0  0  0
  185.2600  178.5330  145.7970 C   0  0  0  0  0  0  0  0  0  0  0  0
  182.6300  179.0230  141.1430 N   0  0  0  0  0  0  0  0  0  0  0  0
  183.8760  177.5040  139.6960 C   0  0  1  0  0  3  0  0  0  0  0  0
  185.3930  178.1200  144.4180 N   0  0  0  0  0  0  0  0  0  0  0  0
  184.5250  177.9430  142.0940 N   0  0  0  0  0  2  0  0  0  0  0  0
  186.4140  178.4250  146.7530 C   0  0  0  0  0  2  0  0  0  0  0  0
  180.0080  180.0120  137.9720 C   0  0  0  0  0  0  0  0  0  0  0  0
  184.0490  174.7120  135.7020 C   0  0  0  0  0  2  0  0  0  0  0  0
  181.7360  179.3390  140.0680 C   0  0  0  0  0  0  0  0  0  0  0  0
  180.5470  180.0260  140.3330 C   0  0  0  0  0  3  0  0  0  0  0  0
  183.1710  176.2280  139.7310 N   0  0  0  0  0  2  0  0  0  0  0  0
  182.9180  176.0910  137.3790 C   0  0  0  0  0  0  0  0  0  0  0  0
  182.7010  175.2490  136.1680 C   0  0  0  0  0  2  0  0  0  0  0  0
  1 24  1  0  0  0  0
  1  8  2  0  0  0  0
  2 25  2  0  0  0  0
  2 12  1  0  0  0  0
  3 22  1  0  0  0  0
  3 11  1  0  0  0  0
  4 12  1  1  0  0  0
  4 21  1  0  0  0  0
  5 14  1  1  0  0  0
  5 30  1  0  0  0  0
  5  4  1  0  0  0  0
  9  7  2  0  0  0  0
  9 22  1  0  0  0  0
 10 14  1  0  0  0  0
 11  1  1  0  0  0  0
 12 27  2  0  0  0  0
 13 28  2  0  0  0  0
 15 20  2  0  0  0  0
 15 23  1  0  0  0  0
 16 25  1  0  0  0  0
 17 29  1  0  0  0  0
 18 10  1  0  0  0  0
 18 26  1  0  0  0  0
 19  6  2  0  0  0  0
 19 24  1  0  0  0  0
 21 29  1  1  0  0  0
 21 15  1  0  0  0  0
 22 19  1  0  0  0  0
 23  9  1  0  0  0  0
 25 13  1  0  0  0  0
 26 31  1  0  0  0  0
 27 28  1  0  0  0  0
 27 20  1  0  0  0  0
 30 17  2  0  0  0  0
 31 30  1  0  0  0  0
M  END
>  <MODEL>
3

>  <REMARK>
 VINA RESULT:      -8.0      5.557      7.328
  Name = 
  0 active torsions:
  status: ('A' for Active; 'I' for Inactive)
                            x       y       z     vdW  Elec       q    Type
                         _______ _______ _______ _____ _____    ______ ____

>  <TORSDO>
F 0

$$$$
=
 OpenBabel11052413043D

 31 35  0  0  1  0  0  0  0  0999 V2000
  188.1050  177.5590  147.7360 C   0  0  0  0  0  0  0  0  0  0  0  0
  186.5120  177.9740  137.1050 C   0  0  0  0  0  3  0  0  0  0  0  0
  186.9610  178.0010  145.6100 C   0  0  0  0  0  2  0  0  0  0  0  0
  185.3960  177.6200  139.3660 C   0  0  1  0  0  3  0  0  0  0  0  0
  184.0510  177.9540  138.7050 C   0  0  1  0  0  3  0  0  0  0  0  0
  190.5550  178.3750  145.1680 O   0  0  0  0  0  0  0  0  0  0  0  0
  189.3530  177.8310  142.8580 O   0  0  0  0  0  0  0  0  0  0  0  0
  187.9650  177.5170  149.0070 N   0  0  0  0  0  2  0  0  0  0  0  0
  188.2660  177.9530  143.4840 C   0  0  0  0  0  0  0  0  0  0  0  0
  181.8480  176.9760  138.1170 C   0  0  0  0  0  2  0  0  0  0  0  0
  186.9710  177.1360  146.8610 C   0  0  0  0  0  2  0  0  0  0  0  0
  186.5860  177.9790  138.5060 C   0  0  0  0  0  0  0  0  0  0  0  0
  188.8820  178.4510  136.9670 C   0  0  0  0  0  3  0  0  0  0  0  0
  182.9610  176.9920  139.1570 C   0  0  0  0  0  2  0  0  0  0  0  0
  186.8840  178.1150  141.3390 C   0  0  0  0  0  0  0  0  0  0  0  0
  187.5480  178.2390  134.5940 Cl  0  0  0  0  0  0  0  0  0  0  0  0
  184.1300  180.1280  139.8410 N   0  0  0  0  0  0  0  0  0  0  0  0
  180.7320  177.9940  138.3890 C   0  0  0  0  0  2  0  0  0  0  0  0
  189.4700  178.0190  145.7030 C   0  0  0  0  0  0  0  0  0  0  0  0
  187.9300  178.1490  140.5620 N   0  0  0  0  0  0  0  0  0  0  0  0
  185.5000  178.2520  140.7650 C   0  0  1  0  0  3  0  0  0  0  0  0
  188.2540  177.9460  144.9240 N   0  0  0  0  0  0  0  0  0  0  0  0
  187.0290  178.0710  142.7640 N   0  0  0  0  0  2  0  0  0  0  0  0
  189.4850  177.6340  147.1550 C   0  0  0  0  0  2  0  0  0  0  0  0
  187.6540  178.2250  136.3400 C   0  0  0  0  0  0  0  0  0  0  0  0
  181.1730  179.3960  138.8290 C   0  0  0  0  0  2  0  0  0  0  0  0
  187.8280  178.1930  139.1330 C   0  0  0  0  0  0  0  0  0  0  0  0
  188.9700  178.4300  138.3630 C   0  0  0  0  0  3  0  0  0  0  0  0
  185.1390  179.6630  140.7010 N   0  0  0  0  0  2  0  0  0  0  0  0
  183.6200  179.3860  138.9040 C   0  0  0  0  0  0  0  0  0  0  0  0
  182.4410  179.8890  138.1430 C   0  0  0  0  0  2  0  0  0  0  0  0
  1  8  2  0  0  0  0
  2 12  1  0  0  0  0
  3 11  1  0  0  0  0
  4 12  1  6  0  0  0
  4 21  1  0  0  0  0
  5 30  1  0  0  0  0
  5 14  1  1  0  0  0
  5  4  1  0  0  0  0
  6 19  2  0  0  0  0
  7  9  2  0  0  0  0
  9 22  1  0  0  0  0
 10 18  1  0  0  0  0
 10 14  1  0  0  0  0
 11  1  1  0  0  0  0
 12 27  2  0  0  0  0
 13 28  2  0  0  0  0
 15 23  1  0  0  0  0
 16 25  1  0  0  0  0
 17 29  1  0  0  0  0
 18 26  1  0  0  0  0
 19 24  1  0  0  0  0
 20 15  2  0  0  0  0
 21 29  1  6  0  0  0
 21 15  1  0  0  0  0
 22  3  1  0  0  0  0
 22 19  1  0  0  0  0
 23  9  1  0  0  0  0
 24  1  1  0  0  0  0
 25 13  1  0  0  0  0
 25  2  2  0  0  0  0
 27 20  1  0  0  0  0
 28 27  1  0  0  0  0
 30 17  2  0  0  0  0
 31 26  1  0  0  0  0
 31 30  1  0  0  0  0
M  END
>  <MODEL>
4

>  <REMARK>
 VINA RESULT:      -7.7      3.369      4.161
  Name = 
  0 active torsions:
  status: ('A' for Active; 'I' for Inactive)
                            x       y       z     vdW  Elec       q    Type
                         _______ _______ _______ _____ _____    ______ ____

>  <TORSDO>
F 0

$$$$
=
 OpenBabel11052413043D

 31 35  0  0  1  0  0  0  0  0999 V2000
  197.2600  174.0430  135.4250 C   0  0  0  0  0  0  0  0  0  0  0  0
  188.2170  177.8820  139.8070 C   0  0  0  0  0  3  0  0  0  0  0  0
  194.8560  174.3950  135.7700 C   0  0  0  0  0  2  0  0  0  0  0  0
  189.3310  177.1450  137.6400 C   0  0  1  0  0  3  0  0  0  0  0  0
  187.9310  176.9660  137.0330 C   0  0  1  0  0  3  0  0  0  0  0  0
  196.5990  174.6380  138.9560 O   0  0  0  0  0  0  0  0  0  0  0  0
  194.2870  175.9510  139.0230 O   0  0  0  0  0  0  0  0  0  0  0  0
  198.1390  173.5400  134.6420 N   0  0  0  0  0  2  0  0  0  0  0  0
  194.0650  175.4610  137.8820 C   0  0  0  0  0  0  0  0  0  0  0  0
  186.4200  177.8490  135.2750 C   0  0  0  0  0  2  0  0  0  0  0  0
  196.0310  174.6610  134.8420 C   0  0  0  0  0  2  0  0  0  0  0  0
  189.3110  177.3070  139.1420 C   0  0  0  0  0  0  0  0  0  0  0  0
  189.4200  177.7710  141.9060 C   0  0  0  0  0  3  0  0  0  0  0  0
  187.8690  177.5280  135.6190 C   0  0  0  0  0  2  0  0  0  0  0  0
  191.5770  176.0470  137.9570 C   0  0  0  0  0  0  0  0  0  0  0  0
  186.8910  178.7950  142.0120 Cl  0  0  0  0  0  0  0  0  0  0  0  0
  188.2480  174.5410  137.2320 N   0  0  0  0  0  0  0  0  0  0  0  0
  185.6750  176.6930  134.5940 C   0  0  0  0  0  2  0  0  0  0  0  0
  196.4390  174.6180  137.7050 C   0  0  0  0  0  0  0  0  0  0  0  0
  191.6190  176.4530  139.1950 N   0  0  0  0  0  0  0  0  0  0  0  0
  190.2720  176.0070  137.2090 C   0  0  1  0  0  3  0  0  0  0  0  0
  195.1390  174.8710  137.1250 N   0  0  0  0  0  0  0  0  0  0  0  0
  192.7450  175.5140  137.3200 N   0  0  0  0  0  2  0  0  0  0  0  0
  197.6400  174.3680  136.8380 C   0  0  0  0  0  2  0  0  0  0  0  0
  188.2680  178.0980  141.1870 C   0  0  0  0  0  0  0  0  0  0  0  0
  185.8960  175.2920  135.1810 C   0  0  0  0  0  2  0  0  0  0  0  0
  190.4750  176.9920  139.8680 C   0  0  0  0  0  0  0  0  0  0  0  0
  190.5250  177.2230  141.2460 C   0  0  0  0  0  3  0  0  0  0  0  0
  189.6280  174.7170  137.4270 N   0  0  0  0  0  2  0  0  0  0  0  0
  187.4360  175.5420  137.0670 C   0  0  0  0  0  0  0  0  0  0  0  0
  186.0170  175.2710  136.7000 C   0  0  0  0  0  2  0  0  0  0  0  0
  1 24  1  0  0  0  0
  2 25  1  0  0  0  0
  3 22  1  0  0  0  0
  4 12  1  1  0  0  0
  5 14  1  6  0  0  0
  5 30  1  0  0  0  0
  5  4  1  0  0  0  0
  8  1  2  0  0  0  0
  9  7  2  0  0  0  0
 10 14  1  0  0  0  0
 11  1  1  0  0  0  0
 11  3  1  0  0  0  0
 12  2  2  0  0  0  0
 12 27  1  0  0  0  0
 15 20  2  0  0  0  0
 17 29  1  0  0  0  0
 18 26  1  0  0  0  0
 18 10  1  0  0  0  0
 19  6  2  0  0  0  0
 20 27  1  0  0  0  0
 21 29  1  1  0  0  0
 21  4  1  0  0  0  0
 21 15  1  0  0  0  0
 22 19  1  0  0  0  0
 22  9  1  0  0  0  0
 23  9  1  0  0  0  0
 23 15  1  0  0  0  0
 24 19  1  0  0  0  0
 25 13  2  0  0  0  0
 25 16  1  0  0  0  0
 26 31  1  0  0  0  0
 27 28  2  0  0  0  0
 28 13  1  0  0  0  0
 30 17  2  0  0  0  0
 31 30  1  0  0  0  0
M  END
>  <MODEL>
5

>  <REMARK>
 VINA RESULT:      -7.3      3.785      7.497
  Name = 
  0 active torsions:
  status: ('A' for Active; 'I' for Inactive)
                            x       y       z     vdW  Elec       q    Type
                         _______ _______ _______ _____ _____    ______ ____

>  <TORSDO>
F 0

$$$$
=
 OpenBabel11052413043D

 31 35  0  0  1  0  0  0  0  0999 V2000
  180.2990  179.4610  142.9830 C   0  0  0  0  0  0  0  0  0  0  0  0
  190.3670  177.6090  139.6780 C   0  0  0  0  0  3  0  0  0  0  0  0
  182.6460  178.7510  143.0860 C   0  0  0  0  0  2  0  0  0  0  0  0
  188.9170  178.2930  141.6560 C   0  0  1  0  0  3  0  0  0  0  0  0
  190.0740  177.8950  142.5850 C   0  0  1  0  0  3  0  0  0  0  0  0
  181.3620  178.2540  139.7170 O   0  0  0  0  0  0  0  0  0  0  0  0
  184.0110  178.4950  139.7100 O   0  0  0  0  0  0  0  0  0  0  0  0
  179.2450  179.6820  143.6740 N   0  0  0  0  0  2  0  0  0  0  0  0
  183.9370  178.4810  140.9690 C   0  0  0  0  0  0  0  0  0  0  0  0
  191.7060  178.8230  144.2070 C   0  0  0  0  0  2  0  0  0  0  0  0
  181.6360  179.7810  143.5690 C   0  0  0  0  0  2  0  0  0  0  0  0
  189.0950  177.7970  140.2400 C   0  0  0  0  0  0  0  0  0  0  0  0
  189.3580  177.0740  137.5430 C   0  0  0  0  0  3  0  0  0  0  0  0
  190.2800  178.9310  143.6820 C   0  0  0  0  0  2  0  0  0  0  0  0
  186.4420  178.0480  141.2530 C   0  0  0  0  0  0  0  0  0  0  0  0
  192.0850  176.9810  137.6520 Cl  0  0  0  0  0  0  0  0  0  0  0  0
  188.7840  175.8990  143.1950 N   0  0  0  0  0  0  0  0  0  0  0  0
  191.8550  177.8730  145.4030 C   0  0  0  0  0  2  0  0  0  0  0  0
  181.4230  178.7000  140.8950 C   0  0  0  0  0  0  0  0  0  0  0  0
  186.6490  177.8880  139.9760 N   0  0  0  0  0  0  0  0  0  0  0  0
  187.5620  177.8590  142.2400 C   0  0  1  0  0  3  0  0  0  0  0  0
  182.6710  178.6870  141.6230 N   0  0  0  0  0  0  0  0  0  0  0  0
  185.1220  178.2860  141.7570 N   0  0  0  0  0  2  0  0  0  0  0  0
  180.1770  179.2820  141.5000 C   0  0  0  0  0  2  0  0  0  0  0  0
  190.4960  177.2340  138.3380 C   0  0  0  0  0  0  0  0  0  0  0  0
  191.1040  176.5370  145.3180 C   0  0  0  0  0  2  0  0  0  0  0  0
  187.9530  177.6490  139.4310 C   0  0  0  0  0  0  0  0  0  0  0  0
  188.0880  177.2860  138.0870 C   0  0  0  0  0  3  0  0  0  0  0  0
  187.6190  176.4590  142.6440 N   0  0  0  0  0  2  0  0  0  0  0  0
  189.9280  176.5130  143.1710 C   0  0  0  0  0  0  0  0  0  0  0  0
  191.0790  175.9310  143.9200 C   0  0  0  0  0  2  0  0  0  0  0  0
  1 11  1  0  0  0  0
  1  8  2  0  0  0  0
  2 12  1  0  0  0  0
  3 11  1  0  0  0  0
  4 12  1  6  0  0  0
  4 21  1  0  0  0  0
  4  5  1  0  0  0  0
  5 30  1  0  0  0  0
  5 14  1  1  0  0  0
  6 19  2  0  0  0  0
  7  9  2  0  0  0  0
  9 22  1  0  0  0  0
  9 23  1  0  0  0  0
 10 18  1  0  0  0  0
 13 28  2  0  0  0  0
 13 25  1  0  0  0  0
 14 10  1  0  0  0  0
 15 23  1  0  0  0  0
 16 25  1  0  0  0  0
 19 24  1  0  0  0  0
 19 22  1  0  0  0  0
 20 15  2  0  0  0  0
 21 15  1  6  0  0  0
 21 29  1  0  0  0  0
 22  3  1  0  0  0  0
 24  1  1  0  0  0  0
 25  2  2  0  0  0  0
 26 18  1  0  0  0  0
 27 20  1  0  0  0  0
 27 12  2  0  0  0  0
 28 27  1  0  0  0  0
 29 17  1  0  0  0  0
 30 17  2  0  0  0  0
 30 31  1  0  0  0  0
 31 26  1  0  0  0  0
M  END
>  <MODEL>
6

>  <REMARK>
 VINA RESULT:      -6.9      4.444      7.197
  Name = 
  0 active torsions:
  status: ('A' for Active; 'I' for Inactive)
                            x       y       z     vdW  Elec       q    Type
                         _______ _______ _______ _____ _____    ______ ____

>  <TORSDO>
F 0

$$$$
=
 OpenBabel11052413043D

 31 35  0  0  1  0  0  0  0  0999 V2000
  191.2260  176.5240  146.8700 C   0  0  0  0  0  0  0  0  0  0  0  0
  188.7530  177.8590  136.4870 C   0  0  0  0  0  3  0  0  0  0  0  0
  191.2300  176.1260  144.4480 C   0  0  0  0  0  2  0  0  0  0  0  0
  190.5870  177.1910  138.1210 C   0  0  1  0  0  3  0  0  0  0  0  0
  191.2970  176.4740  136.9630 C   0  0  1  0  0  3  0  0  0  0  0  0
  187.9870  177.4220  145.4720 O   0  0  0  0  0  0  0  0  0  0  0  0
  188.4460  177.9060  142.8960 O   0  0  0  0  0  0  0  0  0  0  0  0
  191.7870  176.2170  147.9780 N   0  0  0  0  0  2  0  0  0  0  0  0
  189.4810  177.1970  143.0290 C   0  0  0  0  0  0  0  0  0  0  0  0
  193.3560  176.5290  135.5800 C   0  0  0  0  0  2  0  0  0  0  0  0
  192.0550  176.6090  145.6310 C   0  0  0  0  0  2  0  0  0  0  0  0
  189.1620  177.5730  137.7980 C   0  0  0  0  0  0  0  0  0  0  0  0
  186.5560  178.4770  137.2930 C   0  0  0  0  0  3  0  0  0  0  0  0
  192.7940  176.7550  136.9770 C   0  0  0  0  0  2  0  0  0  0  0  0
  189.8050  176.9470  140.5040 C   0  0  0  0  0  0  0  0  0  0  0  0
  186.9430  178.6280  134.5940 Cl  0  0  0  0  0  0  0  0  0  0  0  0
  190.5750  174.3470  137.9500 N   0  0  0  0  0  0  0  0  0  0  0  0
  193.8660  175.1010  135.3410 C   0  0  0  0  0  2  0  0  0  0  0  0
  189.2170  177.1530  145.5400 C   0  0  0  0  0  0  0  0  0  0  0  0
  188.6790  177.5340  140.2120 N   0  0  0  0  0  0  0  0  0  0  0  0
  190.6700  176.3680  139.4180 C   0  0  1  0  0  3  0  0  0  0  0  0
  189.9770  176.8760  144.3420 N   0  0  0  0  0  0  0  0  0  0  0  0
  190.1860  176.7290  141.8680 N   0  0  0  0  0  2  0  0  0  0  0  0
  189.8760  177.1740  146.8890 C   0  0  0  0  0  2  0  0  0  0  0  0
  187.4500  178.2940  136.2350 C   0  0  0  0  0  0  0  0  0  0  0  0
  192.9850  173.9590  135.8660 C   0  0  0  0  0  2  0  0  0  0  0  0
  188.2610  177.7720  138.8620 C   0  0  0  0  0  0  0  0  0  0  0  0
  186.9620  178.2210  138.6060 C   0  0  0  0  0  3  0  0  0  0  0  0
  190.2670  174.9900  139.1610 N   0  0  0  0  0  2  0  0  0  0  0  0
  191.0290  174.9910  136.9170 C   0  0  0  0  0  0  0  0  0  0  0  0
  191.4900  174.2180  135.7280 C   0  0  0  0  0  2  0  0  0  0  0  0
  1 24  1  0  0  0  0
  1  8  2  0  0  0  0
  2 12  1  0  0  0  0
  3 11  1  0  0  0  0
  4 12  1  6  0  0  0
  4 21  1  0  0  0  0
  5 14  1  1  0  0  0
  5  4  1  0  0  0  0
  6 19  2  0  0  0  0
  7  9  2  0  0  0  0
  9 22  1  0  0  0  0
 10 14  1  0  0  0  0
 11  1  1  0  0  0  0
 12 27  2  0  0  0  0
 13 28  2  0  0  0  0
 15 23  1  0  0  0  0
 16 25  1  0  0  0  0
 17 29  1  0  0  0  0
 18 10  1  0  0  0  0
 18 26  1  0  0  0  0
 19 24  1  0  0  0  0
 20 15  2  0  0  0  0
 21 29  1  6  0  0  0
 21 15  1  0  0  0  0
 22  3  1  0  0  0  0
 22 19  1  0  0  0  0
 23  9  1  0  0  0  0
 25  2  2  0  0  0  0
 25 13  1  0  0  0  0
 27 20  1  0  0  0  0
 28 27  1  0  0  0  0
 30  5  1  0  0  0  0
 30 17  2  0  0  0  0
 31 26  1  0  0  0  0
 31 30  1  0  0  0  0
M  END
>  <MODEL>
7

>  <REMARK>
 VINA RESULT:      -6.7      2.367      4.544
  Name = 
  0 active torsions:
  status: ('A' for Active; 'I' for Inactive)
                            x       y       z     vdW  Elec       q    Type
                         _______ _______ _______ _____ _____    ______ ____

>  <TORSDO>
F 0

$$$$
