=
 OpenBabel11052416133D

 43 47  0  0  1  0  0  0  0  0999 V2000
  187.5400  177.7180  147.4910 C   0  0  0  0  0  0  0  0  0  0  0  0
  187.4200  177.8740  142.4370 C   0  0  0  0  0  0  0  0  0  0  0  0
  185.0170  179.0390  141.5340 C   0  0  1  0  0  3  0  0  0  0  0  0
  188.0460  177.4370  145.1390 C   0  0  0  0  0  0  0  0  0  0  0  0
  186.3720  178.4100  147.1610 C   0  0  0  0  0  3  0  0  0  0  0  0
  187.8700  177.5120  148.8230 O   0  0  0  0  0  1  0  0  0  0  0  0
  186.8620  178.1310  144.7950 C   0  0  0  0  0  0  0  0  0  0  0  0
  188.3750  177.2320  146.4830 C   0  0  0  0  0  3  0  0  0  0  0  0
  186.0340  178.6160  145.8210 C   0  0  0  0  0  3  0  0  0  0  0  0
  185.2450  179.0010  143.0490 C   0  0  0  0  0  2  0  0  0  0  0  0
  186.5320  178.3200  143.4360 C   0  0  0  0  0  0  0  0  0  0  0  0
  188.5750  177.1650  142.7980 C   0  0  0  0  0  3  0  0  0  0  0  0
  187.0460  178.0600  140.9830 C   0  0  1  0  0  3  0  0  0  0  0  0
  186.2100  179.1820  140.7850 O   0  0  0  0  0  0  0  0  0  0  0  0
  188.8890  176.9530  144.1400 C   0  0  0  0  0  3  0  0  0  0  0  0
  184.0210  178.0010  140.9930 C   0  0  1  0  0  3  0  0  0  0  0  0
  182.6470  178.2640  141.5940 C   0  0  0  0  0  1  0  0  0  0  0  0
  183.9600  178.0100  139.5330 N   0  0  0  0  0  2  0  0  0  0  0  0
  182.6220  178.4200  139.1190 C   0  0  1  0  0  3  0  0  0  0  0  0
  182.6750  179.8380  138.5810 C   0  0  0  0  0  1  0  0  0  0  0  0
  182.1000  177.5070  138.0110 C   0  0  0  0  0  2  0  0  0  0  0  0
  181.7860  176.0850  138.4810 C   0  0  1  0  0  3  0  0  0  0  0  0
  179.7630  174.1740  138.6910 C   0  0  0  0  0  2  0  0  0  0  0  0
  180.5710  176.1230  139.4200 C   0  0  0  0  0  2  0  0  0  0  0  0
  181.5760  175.1590  137.3380 N   0  0  0  0  0  0  0  0  0  0  0  0
  180.9420  173.9030  137.7660 C   0  0  0  0  0  2  0  0  0  0  0  0
  180.2310  174.8300  139.8370 O   0  0  0  0  0  0  0  0  0  0  0  0
  182.8390  174.7560  136.6970 C   0  0  0  0  0  3  0  0  0  0  0  0
  184.0240  174.5280  137.6490 C   0  0  0  0  0  2  0  0  0  0  0  0
  185.8240  173.0130  138.0410 O   0  0  0  0  0  1  0  0  0  0  0  0
  184.5160  173.0930  137.5630 C   0  0  0  0  0  2  0  0  0  0  0  0
  183.1510  175.5550  135.4280 C   0  0  0  0  0  2  0  0  0  0  0  0
  184.7910  177.2820  135.5000 O   0  0  0  0  0  1  0  0  0  0  0  0
  184.6240  175.9120  135.2950 C   0  0  0  0  0  2  0  0  0  0  0  0
  188.2590  178.1420  140.0500 C   0  0  0  0  0  2  0  0  0  0  0  0
  188.1760  176.0530  137.3970 C   0  0  0  0  0  2  0  0  0  0  0  0
  188.9290  176.9550  136.0130 P   0  0  1  0  0  0  0  0  0  0  0  0
  190.5350  176.4700  135.8050 O   0  0  0  0  0  1  0  0  0  0  0  0
  189.0940  178.7000  137.7650 C   0  0  0  0  0  2  0  0  0  0  0  0
  187.1920  176.9980  138.0760 C   0  0  0  0  0  2  0  0  0  0  0  0
  187.8600  178.2900  138.5860 C   0  0  1  0  0  3  0  0  0  0  0  0
  188.1440  176.6850  134.7470 O   0  0  0  0  0  0  0  0  0  0  0  0
  188.8550  178.6130  136.3850 O   0  0  0  0  0  0  0  0  0  0  0  0
  1  6  1  0  0  0  0
  2 12  2  0  0  0  0
  2 11  1  0  0  0  0
  3 16  1  6  0  0  0
  3 10  1  0  0  0  0
  4  8  1  0  0  0  0
  5  1  1  0  0  0  0
  7  4  1  0  0  0  0
  7  9  1  0  0  0  0
  8  1  2  0  0  0  0
  9  5  2  0  0  0  0
 10 11  1  0  0  0  0
 11  7  2  0  0  0  0
 12 15  1  0  0  0  0
 13 35  1  6  0  0  0
 13  2  1  0  0  0  0
 14 13  1  0  0  0  0
 14  3  1  0  0  0  0
 15  4  2  0  0  0  0
 16 17  1  1  0  0  0
 18 16  1  0  0  0  0
 19 20  1  6  0  0  0
 19 18  1  0  0  0  0
 21 19  1  0  0  0  0
 22 21  1  6  0  0  0
 22 24  1  0  0  0  0
 23 27  1  0  0  0  0
 24 27  1  0  0  0  0
 25 26  1  0  0  0  0
 25 22  1  0  0  0  0
 26 23  1  0  0  0  0
 28 25  1  0  0  0  0
 28 29  1  0  0  0  0
 31 29  1  0  0  0  0
 31 30  1  0  0  0  0
 32 28  1  0  0  0  0
 34 32  1  0  0  0  0
 34 33  1  0  0  0  0
 36 40  1  0  0  0  0
 37 42  2  6  0  0  0
 37 43  1  0  0  0  0
 37 36  1  0  0  0  0
 38 37  1  0  0  0  0
 39 41  1  0  0  0  0
 40 41  1  0  0  0  0
 41 35  1  1  0  0  0
 43 39  1  0  0  0  0
M  END
>  <MODEL>
1

>  <REMARK>
 VINA RESULT:      -7.7      0.000      0.000
  Name = 
  12 active torsions:
  status: ('A' for Active; 'I' for Inactive)
    1  A    between atoms: C_1  and  C_34
    2  A    between atoms: C_1  and  C_35
    3  A    between atoms: C_2  and  N_6
    4  A    between atoms: C_2  and  C_13
    5  A    between atoms: C_3  and  C_4
    6  A    between atoms: C_3  and  C_12
    7  A    between atoms: N_6  and  C_12
    8  A    between atoms: C_11  and  C_14
    9  A    between atoms: C_11  and  C_36
   10  A    between atoms: C_14  and  N_22
   11  A    between atoms: C_14  and  C_40
   12  A    between atoms: C_31  and  C_40
                            x       y       z     vdW  Elec       q    Type
                         _______ _______ _______ _____ _____    ______ ____

>  <TORSDO>
F 12

$$$$
=
 OpenBabel11052416133D

 43 47  0  0  1  0  0  0  0  0999 V2000
  192.1950  176.0780  147.8060 C   0  0  0  0  0  0  0  0  0  0  0  0
  188.8260  177.2880  144.2340 C   0  0  0  0  0  0  0  0  0  0  0  0
  189.6280  176.2800  141.7260 C   0  0  1  0  0  3  0  0  0  0  0  0
  190.3150  177.0110  146.5980 C   0  0  0  0  0  0  0  0  0  0  0  0
  192.6300  175.4380  146.6430 C   0  0  0  0  0  3  0  0  0  0  0  0
  192.9120  175.9340  148.9860 O   0  0  0  0  0  1  0  0  0  0  0  0
  190.7510  176.3720  145.4130 C   0  0  0  0  0  0  0  0  0  0  0  0
  191.0410  176.8630  147.7840 C   0  0  0  0  0  3  0  0  0  0  0  0
  191.9130  175.5830  145.4530 C   0  0  0  0  0  3  0  0  0  0  0  0
  190.5020  175.9200  142.9320 C   0  0  0  0  0  2  0  0  0  0  0  0
  190.0200  176.5400  144.2180 C   0  0  0  0  0  0  0  0  0  0  0  0
  188.4240  177.9350  145.4120 C   0  0  0  0  0  3  0  0  0  0  0  0
  188.0610  177.4820  142.9420 C   0  0  1  0  0  3  0  0  0  0  0  0
  188.2540  176.4110  142.0420 O   0  0  0  0  0  0  0  0  0  0  0  0
  189.1610  177.7930  146.5870 C   0  0  0  0  0  3  0  0  0  0  0  0
  190.1980  177.3690  140.8040 C   0  0  1  0  0  3  0  0  0  0  0  0
  191.4250  177.9890  141.4580 C   0  0  0  0  0  1  0  0  0  0  0  0
  190.5240  176.8470  139.4780 N   0  0  0  0  0  2  0  0  0  0  0  0
  189.4250  177.1550  138.5680 C   0  0  1  0  0  3  0  0  0  0  0  0
  189.1940  178.6560  138.5490 C   0  0  0  0  0  1  0  0  0  0  0  0
  189.7620  176.7060  137.1470 C   0  0  0  0  0  2  0  0  0  0  0  0
  190.1470  175.2280  137.0440 C   0  0  1  0  0  3  0  0  0  0  0  0
  189.8950  172.9360  135.4730 C   0  0  0  0  0  2  0  0  0  0  0  0
  188.8780  174.3930  136.8250 C   0  0  0  0  0  2  0  0  0  0  0  0
  191.1580  174.9940  135.9810 N   0  0  0  0  0  0  0  0  0  0  0  0
  191.2700  173.5670  135.6430 C   0  0  0  0  0  2  0  0  0  0  0  0
  189.2000  173.0360  136.6850 O   0  0  0  0  0  0  0  0  0  0  0  0
  192.5130  175.4030  136.3870 C   0  0  0  0  0  3  0  0  0  0  0  0
  193.6050  175.2400  135.3180 C   0  0  0  0  0  2  0  0  0  0  0  0
  195.4760  176.6950  135.5770 O   0  0  0  0  0  1  0  0  0  0  0  0
  194.2250  176.5830  134.9710 C   0  0  0  0  0  2  0  0  0  0  0  0
  192.8880  174.9290  137.7950 C   0  0  0  0  0  2  0  0  0  0  0  0
  195.1700  175.1470  138.4420 O   0  0  0  0  0  1  0  0  0  0  0  0
  194.2560  174.2700  137.8580 C   0  0  0  0  0  2  0  0  0  0  0  0
  186.5620  177.7210  143.1550 C   0  0  0  0  0  2  0  0  0  0  0  0
  183.6200  178.3090  141.6020 C   0  0  0  0  0  2  0  0  0  0  0  0
  184.0320  178.8520  139.9180 P   0  0  1  0  0  0  0  0  0  0  0  0
  183.8610  177.5670  138.8340 O   0  0  0  0  0  0  0  0  0  0  0  0
  186.3230  178.5330  140.8070 C   0  0  0  0  0  2  0  0  0  0  0  0
  184.5230  179.0760  142.5610 C   0  0  0  0  0  2  0  0  0  0  0  0
  186.0220  178.8480  142.2820 C   0  0  1  0  0  3  0  0  0  0  0  0
  183.1160  179.9870  139.5160 O   0  0  0  0  0  1  0  0  0  0  0  0
  185.6420  179.3980  139.9380 O   0  0  0  0  0  0  0  0  0  0  0  0
  1  6  1  0  0  0  0
  2 12  1  0  0  0  0
  3 16  1  1  0  0  0
  3 14  1  0  0  0  0
  3 10  1  0  0  0  0
  4  8  2  0  0  0  0
  5  1  2  0  0  0  0
  7  9  2  0  0  0  0
  7  4  1  0  0  0  0
  8  1  1  0  0  0  0
  9  5  1  0  0  0  0
 10 11  1  0  0  0  0
 11  2  2  0  0  0  0
 11  7  1  0  0  0  0
 12 15  2  0  0  0  0
 13 35  1  1  0  0  0
 13  2  1  0  0  0  0
 14 13  1  0  0  0  0
 15  4  1  0  0  0  0
 16 17  1  1  0  0  0
 18 16  1  0  0  0  0
 19 20  1  6  0  0  0
 19 18  1  0  0  0  0
 21 19  1  0  0  0  0
 22 21  1  6  0  0  0
 23 26  1  0  0  0  0
 23 27  1  0  0  0  0
 24 22  1  0  0  0  0
 25 28  1  0  0  0  0
 25 22  1  0  0  0  0
 26 25  1  0  0  0  0
 27 24  1  0  0  0  0
 28 32  1  0  0  0  0
 29 28  1  0  0  0  0
 31 29  1  0  0  0  0
 31 30  1  0  0  0  0
 32 34  1  0  0  0  0
 34 33  1  0  0  0  0
 36 40  1  0  0  0  0
 37 38  2  6  0  0  0
 37 43  1  0  0  0  0
 37 36  1  0  0  0  0
 39 41  1  0  0  0  0
 41 40  1  0  0  0  0
 41 35  1  1  0  0  0
 42 37  1  0  0  0  0
 43 39  1  0  0  0  0
M  END
>  <MODEL>
2

>  <REMARK>
 VINA RESULT:      -7.5      3.869      7.187
  Name = 
  12 active torsions:
  status: ('A' for Active; 'I' for Inactive)
    1  A    between atoms: C_1  and  C_34
    2  A    between atoms: C_1  and  C_35
    3  A    between atoms: C_2  and  N_6
    4  A    between atoms: C_2  and  C_13
    5  A    between atoms: C_3  and  C_4
    6  A    between atoms: C_3  and  C_12
    7  A    between atoms: N_6  and  C_12
    8  A    between atoms: C_11  and  C_14
    9  A    between atoms: C_11  and  C_36
   10  A    between atoms: C_14  and  N_22
   11  A    between atoms: C_14  and  C_40
   12  A    between atoms: C_31  and  C_40
                            x       y       z     vdW  Elec       q    Type
                         _______ _______ _______ _____ _____    ______ ____

>  <TORSDO>
F 12

$$$$
=
 OpenBabel11052416133D

 43 47  0  0  1  0  0  0  0  0999 V2000
  192.3490  176.3490  148.1300 C   0  0  0  0  0  0  0  0  0  0  0  0
  188.8610  177.1910  144.5670 C   0  0  0  0  0  0  0  0  0  0  0  0
  189.6070  175.9730  142.1360 C   0  0  1  0  0  3  0  0  0  0  0  0
  190.4210  177.1460  146.9000 C   0  0  0  0  0  0  0  0  0  0  0  0
  192.7600  175.6130  147.0160 C   0  0  0  0  0  3  0  0  0  0  0  0
  193.1020  176.3200  149.2960 O   0  0  0  0  0  1  0  0  0  0  0  0
  190.8330  176.4090  145.7650 C   0  0  0  0  0  0  0  0  0  0  0  0
  191.1830  177.1130  148.0730 C   0  0  0  0  0  3  0  0  0  0  0  0
  192.0070  175.6420  145.8400 C   0  0  0  0  0  3  0  0  0  0  0  0
  190.5200  175.7340  143.3430 C   0  0  0  0  0  2  0  0  0  0  0  0
  190.0650  176.4600  144.5820 C   0  0  0  0  0  0  0  0  0  0  0  0
  188.4830  177.9350  145.6940 C   0  0  0  0  0  3  0  0  0  0  0  0
  188.0570  177.2590  143.2860 C   0  0  1  0  0  3  0  0  0  0  0  0
  188.2400  176.1140  142.4790 O   0  0  0  0  0  0  0  0  0  0  0  0
  189.2550  177.9090  146.8550 C   0  0  0  0  0  3  0  0  0  0  0  0
  190.1330  176.9830  141.1040 C   0  0  1  0  0  3  0  0  0  0  0  0
  191.0750  177.9600  141.7930 C   0  0  0  0  0  1  0  0  0  0  0  0
  190.7990  176.3220  139.9820 N   0  0  0  0  0  2  0  0  0  0  0  0
  190.1980  176.7890  138.7370 C   0  0  1  0  0  3  0  0  0  0  0  0
  191.2110  176.6690  137.6130 C   0  0  0  0  0  1  0  0  0  0  0  0
  188.9810  175.9380  138.3760 C   0  0  0  0  0  2  0  0  0  0  0  0
  187.8660  176.7220  137.6800 C   0  0  1  0  0  3  0  0  0  0  0  0
  187.3420  178.8760  135.9850 C   0  0  0  0  0  2  0  0  0  0  0  0
  188.0220  178.2140  138.0060 C   0  0  0  0  0  2  0  0  0  0  0  0
  187.8460  176.4720  136.2150 N   0  0  0  0  0  0  0  0  0  0  0  0
  187.0280  177.4660  135.5060 C   0  0  0  0  0  2  0  0  0  0  0  0
  187.0390  178.9670  137.3490 O   0  0  0  0  0  0  0  0  0  0  0  0
  187.2560  175.1680  135.8710 C   0  0  0  0  0  3  0  0  0  0  0  0
  186.0970  174.7040  136.7690 C   0  0  0  0  0  2  0  0  0  0  0  0
  185.4040  172.9310  138.2040 O   0  0  0  0  0  1  0  0  0  0  0  0
  186.2620  173.2430  137.1500 C   0  0  0  0  0  2  0  0  0  0  0  0
  188.3050  174.1010  135.5390 C   0  0  0  0  0  2  0  0  0  0  0  0
  190.6220  173.7750  135.0900 O   0  0  0  0  0  1  0  0  0  0  0  0
  189.5720  174.6810  134.9300 C   0  0  0  0  0  2  0  0  0  0  0  0
  186.5610  177.4970  143.5210 C   0  0  0  0  0  2  0  0  0  0  0  0
  183.7930  178.0440  141.6630 C   0  0  0  0  0  2  0  0  0  0  0  0
  184.3570  178.8350  140.1290 P   0  0  1  0  0  0  0  0  0  0  0  0
  184.4490  177.6950  138.8850 O   0  0  0  0  0  0  0  0  0  0  0  0
  186.5390  178.5880  141.2770 C   0  0  0  0  0  2  0  0  0  0  0  0
  184.4900  178.7480  142.8220 C   0  0  0  0  0  2  0  0  0  0  0  0
  186.0270  178.6810  142.7240 C   0  0  1  0  0  3  0  0  0  0  0  0
  183.3920  179.9360  139.7450 O   0  0  0  0  0  1  0  0  0  0  0  0
  185.8900  179.5030  140.4340 O   0  0  0  0  0  0  0  0  0  0  0  0
  1  6  1  0  0  0  0
  2 11  2  0  0  0  0
  2 12  1  0  0  0  0
  3 16  1  1  0  0  0
  3 14  1  0  0  0  0
  3 10  1  0  0  0  0
  4  8  2  0  0  0  0
  5  1  2  0  0  0  0
  7  9  2  0  0  0  0
  7  4  1  0  0  0  0
  8  1  1  0  0  0  0
  9  5  1  0  0  0  0
 10 11  1  0  0  0  0
 11  7  1  0  0  0  0
 12 15  2  0  0  0  0
 13 35  1  1  0  0  0
 13  2  1  0  0  0  0
 14 13  1  0  0  0  0
 15  4  1  0  0  0  0
 16 17  1  1  0  0  0
 18 16  1  0  0  0  0
 19 20  1  6  0  0  0
 19 18  1  0  0  0  0
 21 19  1  0  0  0  0
 22 24  1  0  0  0  0
 22 21  1  1  0  0  0
 23 27  1  0  0  0  0
 25 22  1  0  0  0  0
 26 23  1  0  0  0  0
 26 25  1  0  0  0  0
 27 24  1  0  0  0  0
 28 25  1  0  0  0  0
 28 29  1  0  0  0  0
 29 31  1  0  0  0  0
 31 30  1  0  0  0  0
 32 28  1  0  0  0  0
 34 33  1  0  0  0  0
 34 32  1  0  0  0  0
 36 40  1  0  0  0  0
 37 38  2  6  0  0  0
 37 43  1  0  0  0  0
 37 36  1  0  0  0  0
 39 41  1  0  0  0  0
 41 40  1  0  0  0  0
 41 35  1  1  0  0  0
 42 37  1  0  0  0  0
 43 39  1  0  0  0  0
M  END
>  <MODEL>
3

>  <REMARK>
 VINA RESULT:      -7.2      3.130      5.829
  Name = 
  12 active torsions:
  status: ('A' for Active; 'I' for Inactive)
    1  A    between atoms: C_1  and  C_34
    2  A    between atoms: C_1  and  C_35
    3  A    between atoms: C_2  and  N_6
    4  A    between atoms: C_2  and  C_13
    5  A    between atoms: C_3  and  C_4
    6  A    between atoms: C_3  and  C_12
    7  A    between atoms: N_6  and  C_12
    8  A    between atoms: C_11  and  C_14
    9  A    between atoms: C_11  and  C_36
   10  A    between atoms: C_14  and  N_22
   11  A    between atoms: C_14  and  C_40
   12  A    between atoms: C_31  and  C_40
                            x       y       z     vdW  Elec       q    Type
                         _______ _______ _______ _____ _____    ______ ____

>  <TORSDO>
F 12

$$$$
=
 OpenBabel11052416133D

 43 47  0  0  1  0  0  0  0  0999 V2000
  190.2720  176.5090  137.2530 C   0  0  0  0  0  0  0  0  0  0  0  0
  185.7490  178.0410  138.9170 C   0  0  0  0  0  0  0  0  0  0  0  0
  186.0030  179.4250  141.3590 C   0  0  1  0  0  3  0  0  0  0  0  0
  187.8950  176.8780  137.5290 C   0  0  0  0  0  0  0  0  0  0  0  0
  190.5270  177.2730  138.3950 C   0  0  0  0  0  3  0  0  0  0  0  0
  191.3260  175.9440  136.5480 O   0  0  0  0  0  1  0  0  0  0  0  0
  188.1420  177.6480  138.6900 C   0  0  0  0  0  0  0  0  0  0  0  0
  188.9590  176.3120  136.8210 C   0  0  0  0  0  3  0  0  0  0  0  0
  189.4690  177.8390  139.1100 C   0  0  0  0  0  3  0  0  0  0  0  0
  187.2990  178.9730  140.6780 C   0  0  0  0  0  2  0  0  0  0  0  0
  187.0600  178.2030  139.4050 C   0  0  0  0  0  0  0  0  0  0  0  0
  185.5210  177.2530  137.7790 C   0  0  0  0  0  3  0  0  0  0  0  0
  184.5930  178.6200  139.7030 C   0  0  1  0  0  3  0  0  0  0  0  0
  184.9710  179.7590  140.4480 O   0  0  0  0  0  0  0  0  0  0  0  0
  186.5880  176.6800  137.0860 C   0  0  0  0  0  3  0  0  0  0  0  0
  185.5660  178.5820  142.5680 C   0  0  1  0  0  3  0  0  0  0  0  0
  184.0900  178.2360  142.4310 C   0  0  0  0  0  1  0  0  0  0  0  0
  186.3730  177.3710  142.7100 N   0  0  0  0  0  2  0  0  0  0  0  0
  187.2530  177.5250  143.8640 C   0  0  1  0  0  3  0  0  0  0  0  0
  186.4220  177.5260  145.1340 C   0  0  0  0  0  1  0  0  0  0  0  0
  188.2430  176.3640  143.9420 C   0  0  0  0  0  2  0  0  0  0  0  0
  189.7090  176.8020  143.9330 C   0  0  1  0  0  3  0  0  0  0  0  0
  191.4050  178.9960  143.6180 C   0  0  0  0  0  2  0  0  0  0  0  0
  189.9940  177.5720  142.6350 C   0  0  0  0  0  2  0  0  0  0  0  0
  190.0560  177.5970  145.1390 N   0  0  0  0  0  0  0  0  0  0  0  0
  191.3340  178.3050  144.9730 C   0  0  0  0  0  2  0  0  0  0  0  0
  191.3200  178.0250  142.6120 O   0  0  0  0  0  0  0  0  0  0  0  0
  190.2300  176.7610  146.3380 C   0  0  0  0  0  3  0  0  0  0  0  0
  189.0810  176.8150  147.3580 C   0  0  0  0  0  2  0  0  0  0  0  0
  187.8130  178.5080  148.4570 O   0  0  0  0  0  1  0  0  0  0  0  0
  189.1130  178.1190  148.1360 C   0  0  0  0  0  2  0  0  0  0  0  0
  191.6430  176.8370  146.9260 C   0  0  0  0  0  2  0  0  0  0  0  0
  192.8650  175.5750  148.5350 O   0  0  0  0  0  1  0  0  0  0  0  0
  192.2030  175.4770  147.3100 C   0  0  0  0  0  2  0  0  0  0  0  0
  183.3710  178.9460  138.8360 C   0  0  0  0  0  2  0  0  0  0  0  0
  182.0610  175.8540  138.4710 C   0  0  0  0  0  2  0  0  0  0  0  0
  180.3060  176.0880  138.0640 P   0  0  1  0  0  0  0  0  0  0  0  0
  180.0680  175.9230  136.3990 O   0  0  0  0  0  0  0  0  0  0  0  0
  180.9830  178.4610  138.2990 C   0  0  0  0  0  2  0  0  0  0  0  0
  182.3830  176.7740  139.6430 C   0  0  0  0  0  2  0  0  0  0  0  0
  182.1050  178.2580  139.3310 C   0  0  1  0  0  3  0  0  0  0  0  0
  179.4750  175.0640  138.8040 O   0  0  0  0  0  1  0  0  0  0  0  0
  179.8700  177.6510  138.5710 O   0  0  0  0  0  0  0  0  0  0  0  0
  1  5  1  0  0  0  0
  2 11  1  0  0  0  0
  2 13  1  0  0  0  0
  3 16  1  1  0  0  0
  4  7  1  0  0  0  0
  5  9  2  0  0  0  0
  6  1  1  0  0  0  0
  7  9  1  0  0  0  0
  7 11  2  0  0  0  0
  8  1  2  0  0  0  0
  8  4  1  0  0  0  0
 10  3  1  0  0  0  0
 11 10  1  0  0  0  0
 12  2  2  0  0  0  0
 13 35  1  6  0  0  0
 13 14  1  0  0  0  0
 14  3  1  0  0  0  0
 15  4  2  0  0  0  0
 15 12  1  0  0  0  0
 16 17  1  6  0  0  0
 16 18  1  0  0  0  0
 18 19  1  0  0  0  0
 19 21  1  0  0  0  0
 19 20  1  1  0  0  0
 22 21  1  1  0  0  0
 22 25  1  0  0  0  0
 23 26  1  0  0  0  0
 24 22  1  0  0  0  0
 25 28  1  0  0  0  0
 26 25  1  0  0  0  0
 27 24  1  0  0  0  0
 27 23  1  0  0  0  0
 28 32  1  0  0  0  0
 28 29  1  0  0  0  0
 29 31  1  0  0  0  0
 31 30  1  0  0  0  0
 32 34  1  0  0  0  0
 34 33  1  0  0  0  0
 36 40  1  0  0  0  0
 37 38  2  6  0  0  0
 37 36  1  0  0  0  0
 37 43  1  0  0  0  0
 37 42  1  0  0  0  0
 39 43  1  0  0  0  0
 39 41  1  0  0  0  0
 41 35  1  6  0  0  0
 41 40  1  0  0  0  0
M  END
>  <MODEL>
4

>  <REMARK>
 VINA RESULT:      -7.0      2.861      9.139
  Name = 
  12 active torsions:
  status: ('A' for Active; 'I' for Inactive)
    1  A    between atoms: C_1  and  C_34
    2  A    between atoms: C_1  and  C_35
    3  A    between atoms: C_2  and  N_6
    4  A    between atoms: C_2  and  C_13
    5  A    between atoms: C_3  and  C_4
    6  A    between atoms: C_3  and  C_12
    7  A    between atoms: N_6  and  C_12
    8  A    between atoms: C_11  and  C_14
    9  A    between atoms: C_11  and  C_36
   10  A    between atoms: C_14  and  N_22
   11  A    between atoms: C_14  and  C_40
   12  A    between atoms: C_31  and  C_40
                            x       y       z     vdW  Elec       q    Type
                         _______ _______ _______ _____ _____    ______ ____

>  <TORSDO>
F 12

$$$$
=
 OpenBabel11052416133D

 43 47  0  0  1  0  0  0  0  0999 V2000
  192.3550  176.3660  148.1230 C   0  0  0  0  0  0  0  0  0  0  0  0
  188.8230  177.1820  144.5960 C   0  0  0  0  0  0  0  0  0  0  0  0
  189.6090  176.0740  142.1260 C   0  0  1  0  0  3  0  0  0  0  0  0
  190.3920  177.1250  146.9240 C   0  0  0  0  0  0  0  0  0  0  0  0
  192.7910  175.6830  146.9850 C   0  0  0  0  0  3  0  0  0  0  0  0
  193.1120  176.3300  149.2860 O   0  0  0  0  0  1  0  0  0  0  0  0
  190.8290  176.4420  145.7640 C   0  0  0  0  0  0  0  0  0  0  0  0
  191.1580  177.0850  148.0930 C   0  0  0  0  0  3  0  0  0  0  0  0
  192.0340  175.7200  145.8120 C   0  0  0  0  0  3  0  0  0  0  0  0
  190.5350  175.8330  143.3220 C   0  0  0  0  0  2  0  0  0  0  0  0
  190.0560  176.5000  144.5850 C   0  0  0  0  0  0  0  0  0  0  0  0
  188.4200  177.8740  145.7480 C   0  0  0  0  0  3  0  0  0  0  0  0
  188.0120  177.2590  143.3210 C   0  0  1  0  0  3  0  0  0  0  0  0
  188.2390  176.1490  142.4760 O   0  0  0  0  0  0  0  0  0  0  0  0
  189.1970  177.8410  146.9060 C   0  0  0  0  0  3  0  0  0  0  0  0
  190.0910  177.1370  141.1250 C   0  0  1  0  0  3  0  0  0  0  0  0
  191.2660  177.8950  141.7270 C   0  0  0  0  0  1  0  0  0  0  0  0
  190.4540  176.5500  139.8370 N   0  0  0  0  0  2  0  0  0  0  0  0
  189.4910  176.9870  138.8320 C   0  0  1  0  0  3  0  0  0  0  0  0
  188.8060  178.2550  139.3100 C   0  0  0  0  0  1  0  0  0  0  0  0
  190.1950  177.2940  137.5110 C   0  0  0  0  0  2  0  0  0  0  0  0
  190.3260  176.0810  136.5870 C   0  0  1  0  0  3  0  0  0  0  0  0
  190.9790  173.3690  136.5040 C   0  0  0  0  0  2  0  0  0  0  0  0
  191.7180  175.4590  136.7690 C   0  0  0  0  0  2  0  0  0  0  0  0
  189.2410  175.0920  136.8160 N   0  0  0  0  0  0  0  0  0  0  0  0
  189.5500  173.7940  136.1980 C   0  0  0  0  0  2  0  0  0  0  0  0
  191.8570  174.3190  135.9660 O   0  0  0  0  0  0  0  0  0  0  0  0
  187.9600  175.5080  136.2220 C   0  0  0  0  0  3  0  0  0  0  0  0
  188.0220  176.7400  135.3040 C   0  0  0  0  0  2  0  0  0  0  0  0
  187.4870  178.9090  136.1350 O   0  0  0  0  0  1  0  0  0  0  0  0
  186.9230  177.7290  135.6540 C   0  0  0  0  0  2  0  0  0  0  0  0
  186.7970  175.4830  137.2190 C   0  0  0  0  0  2  0  0  0  0  0  0
  186.2380  173.1820  136.9540 O   0  0  0  0  0  1  0  0  0  0  0  0
  185.7200  174.4740  136.8530 C   0  0  0  0  0  2  0  0  0  0  0  0
  186.5090  177.4290  143.5670 C   0  0  0  0  0  2  0  0  0  0  0  0
  183.8390  177.9210  141.5560 C   0  0  0  0  0  2  0  0  0  0  0  0
  184.4370  178.8900  140.1420 P   0  0  1  0  0  0  0  0  0  0  0  0
  184.7130  177.8780  138.8160 O   0  0  0  0  0  0  0  0  0  0  0  0
  186.5490  178.7150  141.4280 C   0  0  0  0  0  2  0  0  0  0  0  0
  184.3910  178.5710  142.8200 C   0  0  0  0  0  2  0  0  0  0  0  0
  185.9320  178.6350  142.8340 C   0  0  1  0  0  3  0  0  0  0  0  0
  183.4100  179.9410  139.7790 O   0  0  0  0  0  1  0  0  0  0  0  0
  185.8830  179.6470  140.6180 O   0  0  0  0  0  0  0  0  0  0  0  0
  1  6  1  0  0  0  0
  2 12  1  0  0  0  0
  3 16  1  1  0  0  0
  3 14  1  0  0  0  0
  3 10  1  0  0  0  0
  4  8  2  0  0  0  0
  5  1  2  0  0  0  0
  7  9  2  0  0  0  0
  7  4  1  0  0  0  0
  8  1  1  0  0  0  0
  9  5  1  0  0  0  0
 10 11  1  0  0  0  0
 11  2  2  0  0  0  0
 11  7  1  0  0  0  0
 12 15  2  0  0  0  0
 13 35  1  1  0  0  0
 13  2  1  0  0  0  0
 14 13  1  0  0  0  0
 15  4  1  0  0  0  0
 16 17  1  1  0  0  0
 18 16  1  0  0  0  0
 19 20  1  1  0  0  0
 19 18  1  0  0  0  0
 21 19  1  0  0  0  0
 22 24  1  0  0  0  0
 22 25  1  0  0  0  0
 22 21  1  1  0  0  0
 26 23  1  0  0  0  0
 26 25  1  0  0  0  0
 27 23  1  0  0  0  0
 27 24  1  0  0  0  0
 28 25  1  0  0  0  0
 28 32  1  0  0  0  0
 29 31  1  0  0  0  0
 29 28  1  0  0  0  0
 31 30  1  0  0  0  0
 34 33  1  0  0  0  0
 34 32  1  0  0  0  0
 36 40  1  0  0  0  0
 37 38  2  6  0  0  0
 37 43  1  0  0  0  0
 37 36  1  0  0  0  0
 39 41  1  0  0  0  0
 40 41  1  0  0  0  0
 41 35  1  6  0  0  0
 42 37  1  0  0  0  0
 43 39  1  0  0  0  0
M  END
>  <MODEL>
5

>  <REMARK>
 VINA RESULT:      -7.0      3.186      6.340
  Name = 
  12 active torsions:
  status: ('A' for Active; 'I' for Inactive)
    1  A    between atoms: C_1  and  C_34
    2  A    between atoms: C_1  and  C_35
    3  A    between atoms: C_2  and  N_6
    4  A    between atoms: C_2  and  C_13
    5  A    between atoms: C_3  and  C_4
    6  A    between atoms: C_3  and  C_12
    7  A    between atoms: N_6  and  C_12
    8  A    between atoms: C_11  and  C_14
    9  A    between atoms: C_11  and  C_36
   10  A    between atoms: C_14  and  N_22
   11  A    between atoms: C_14  and  C_40
   12  A    between atoms: C_31  and  C_40
                            x       y       z     vdW  Elec       q    Type
                         _______ _______ _______ _____ _____    ______ ____

>  <TORSDO>
F 12

$$$$
=
 OpenBabel11052416133D

 43 47  0  0  1  0  0  0  0  0999 V2000
  180.0260  179.1800  143.8030 C   0  0  0  0  0  0  0  0  0  0  0  0
  184.6180  178.5210  141.7880 C   0  0  0  0  0  0  0  0  0  0  0  0
  184.4950  178.6350  138.9740 C   0  0  1  0  0  3  0  0  0  0  0  0
  182.3860  178.7410  143.4770 C   0  0  0  0  0  0  0  0  0  0  0  0
  179.8670  179.3680  142.4280 C   0  0  0  0  0  3  0  0  0  0  0  0
  178.9340  179.3040  144.6510 O   0  0  0  0  0  1  0  0  0  0  0  0
  182.2330  178.9220  142.0820 C   0  0  0  0  0  0  0  0  0  0  0  0
  181.2830  178.8670  144.3270 C   0  0  0  0  0  3  0  0  0  0  0  0
  180.9630  179.2400  141.5720 C   0  0  0  0  0  3  0  0  0  0  0  0
  183.1950  178.9060  139.7380 C   0  0  0  0  0  2  0  0  0  0  0  0
  183.3500  178.7780  141.2310 C   0  0  0  0  0  0  0  0  0  0  0  0
  184.7450  178.3190  143.1700 C   0  0  0  0  0  3  0  0  0  0  0  0
  185.8050  178.3450  140.8660 C   0  0  1  0  0  3  0  0  0  0  0  0
  185.6560  179.0660  139.6600 O   0  0  0  0  0  0  0  0  0  0  0  0
  183.6360  178.4330  144.0100 C   0  0  0  0  0  3  0  0  0  0  0  0
  184.5950  177.2480  138.3190 C   0  0  1  0  0  3  0  0  0  0  0  0
  183.4450  176.3790  138.8070 C   0  0  0  0  0  1  0  0  0  0  0  0
  184.6030  177.3310  136.8600 N   0  0  0  0  0  2  0  0  0  0  0  0
  185.6150  176.4150  136.3420 C   0  0  1  0  0  3  0  0  0  0  0  0
  184.9330  175.1870  135.7660 C   0  0  0  0  0  1  0  0  0  0  0  0
  186.4200  177.0800  135.2270 C   0  0  0  0  0  2  0  0  0  0  0  0
  187.7190  177.7320  135.7100 C   0  0  1  0  0  3  0  0  0  0  0  0
  189.1230  178.5530  137.9780 C   0  0  0  0  0  2  0  0  0  0  0  0
  187.3760  178.9100  136.6340 C   0  0  0  0  0  2  0  0  0  0  0  0
  188.6170  176.7500  136.3710 N   0  0  0  0  0  0  0  0  0  0  0  0
  189.6830  177.4160  137.1330 C   0  0  0  0  0  2  0  0  0  0  0  0
  188.5450  179.5040  137.1270 O   0  0  0  0  0  0  0  0  0  0  0  0
  189.3150  175.8830  135.4070 C   0  0  0  0  0  3  0  0  0  0  0  0
  189.2620  174.3770  135.7080 C   0  0  0  0  0  2  0  0  0  0  0  0
  190.6610  173.9850  137.5980 O   0  0  0  0  0  1  0  0  0  0  0  0
  189.3310  174.1230  137.2040 C   0  0  0  0  0  2  0  0  0  0  0  0
  190.6850  176.4280  134.9890 C   0  0  0  0  0  2  0  0  0  0  0  0
  192.7770  175.4780  135.6180 O   0  0  0  0  0  1  0  0  0  0  0  0
  191.7090  175.3330  134.7320 C   0  0  0  0  0  2  0  0  0  0  0  0
  187.1430  178.7010  141.5250 C   0  0  0  0  0  2  0  0  0  0  0  0
  188.9630  177.2550  143.9770 C   0  0  0  0  0  2  0  0  0  0  0  0
  190.6210  176.9820  143.2880 P   0  0  1  0  0  0  0  0  0  0  0  0
  191.6740  178.1980  143.8060 O   0  0  0  0  0  1  0  0  0  0  0  0
  189.5270  177.9960  141.3080 C   0  0  0  0  0  2  0  0  0  0  0  0
  187.9540  176.7790  142.9380 C   0  0  0  0  0  2  0  0  0  0  0  0
  188.0950  177.5120  141.5880 C   0  0  1  0  0  3  0  0  0  0  0  0
  191.1370  175.6320  143.7350 O   0  0  0  0  0  0  0  0  0  0  0  0
  190.4790  177.0050  141.5940 O   0  0  0  0  0  0  0  0  0  0  0  0
  1  8  1  0  0  0  0
  1  6  1  0  0  0  0
  2 12  1  0  0  0  0
  3 16  1  1  0  0  0
  3 14  1  0  0  0  0
  3 10  1  0  0  0  0
  4 15  1  0  0  0  0
  4  8  2  0  0  0  0
  5  1  2  0  0  0  0
  7  4  1  0  0  0  0
  9  7  2  0  0  0  0
  9  5  1  0  0  0  0
 10 11  1  0  0  0  0
 11  2  2  0  0  0  0
 11  7  1  0  0  0  0
 12 15  2  0  0  0  0
 13 35  1  1  0  0  0
 13  2  1  0  0  0  0
 14 13  1  0  0  0  0
 16 17  1  6  0  0  0
 18 16  1  0  0  0  0
 19 20  1  6  0  0  0
 19 18  1  0  0  0  0
 21 19  1  0  0  0  0
 22 21  1  1  0  0  0
 22 25  1  0  0  0  0
 22 24  1  0  0  0  0
 24 27  1  0  0  0  0
 25 26  1  0  0  0  0
 26 23  1  0  0  0  0
 27 23  1  0  0  0  0
 28 29  1  0  0  0  0
 28 25  1  0  0  0  0
 29 31  1  0  0  0  0
 31 30  1  0  0  0  0
 32 28  1  0  0  0  0
 34 32  1  0  0  0  0
 34 33  1  0  0  0  0
 37 42  2  1  0  0  0
 37 38  1  0  0  0  0
 37 36  1  0  0  0  0
 39 41  1  0  0  0  0
 39 43  1  0  0  0  0
 40 36  1  0  0  0  0
 41 35  1  1  0  0  0
 41 40  1  0  0  0  0
 43 37  1  0  0  0  0
M  END
>  <MODEL>
6

>  <REMARK>
 VINA RESULT:      -7.0      3.055      6.307
  Name = 
  12 active torsions:
  status: ('A' for Active; 'I' for Inactive)
    1  A    between atoms: C_1  and  C_34
    2  A    between atoms: C_1  and  C_35
    3  A    between atoms: C_2  and  N_6
    4  A    between atoms: C_2  and  C_13
    5  A    between atoms: C_3  and  C_4
    6  A    between atoms: C_3  and  C_12
    7  A    between atoms: N_6  and  C_12
    8  A    between atoms: C_11  and  C_14
    9  A    between atoms: C_11  and  C_36
   10  A    between atoms: C_14  and  N_22
   11  A    between atoms: C_14  and  C_40
   12  A    between atoms: C_31  and  C_40
                            x       y       z     vdW  Elec       q    Type
                         _______ _______ _______ _____ _____    ______ ____

>  <TORSDO>
F 12

$$$$
=
 OpenBabel11052416133D

 43 47  0  0  1  0  0  0  0  0999 V2000
  180.0420  179.0090  143.8520 C   0  0  0  0  0  0  0  0  0  0  0  0
  184.6620  178.5250  141.8530 C   0  0  0  0  0  0  0  0  0  0  0  0
  184.5770  178.8660  139.0560 C   0  0  1  0  0  3  0  0  0  0  0  0
  182.4060  178.6030  143.5230 C   0  0  0  0  0  0  0  0  0  0  0  0
  179.9010  179.3080  142.4940 C   0  0  0  0  0  3  0  0  0  0  0  0
  178.9380  179.0620  144.6920 O   0  0  0  0  0  1  0  0  0  0  0  0
  182.2720  178.8970  142.1460 C   0  0  0  0  0  0  0  0  0  0  0  0
  181.2920  178.6570  144.3650 C   0  0  0  0  0  3  0  0  0  0  0  0
  181.0080  179.2520  141.6450 C   0  0  0  0  0  3  0  0  0  0  0  0
  183.2660  179.0730  139.8210 C   0  0  0  0  0  2  0  0  0  0  0  0
  183.4010  178.8240  141.3010 C   0  0  0  0  0  0  0  0  0  0  0  0
  184.7710  178.2110  143.2160 C   0  0  0  0  0  3  0  0  0  0  0  0
  185.8620  178.4270  140.9360 C   0  0  1  0  0  3  0  0  0  0  0  0
  185.7270  179.2430  139.7910 O   0  0  0  0  0  0  0  0  0  0  0  0
  183.6510  178.2550  144.0460 C   0  0  0  0  0  3  0  0  0  0  0  0
  184.6900  177.5380  138.2920 C   0  0  1  0  0  3  0  0  0  0  0  0
  183.4060  176.7420  138.4780 C   0  0  0  0  0  1  0  0  0  0  0  0
  184.9740  177.7440  136.8730 N   0  0  0  0  0  2  0  0  0  0  0  0
  185.1460  176.4440  136.2340 C   0  0  1  0  0  3  0  0  0  0  0  0
  184.4350  176.4450  134.8920 C   0  0  0  0  0  1  0  0  0  0  0  0
  186.6270  176.1590  135.9880 C   0  0  0  0  0  2  0  0  0  0  0  0
  187.2000  175.0600  136.8870 C   0  0  1  0  0  3  0  0  0  0  0  0
  187.6620  172.3140  137.0770 C   0  0  0  0  0  2  0  0  0  0  0  0
  186.1480  173.9550  137.0610 C   0  0  0  0  0  2  0  0  0  0  0  0
  188.4830  174.5270  136.3600 N   0  0  0  0  0  0  0  0  0  0  0  0
  188.8530  173.2610  137.0080 C   0  0  0  0  0  2  0  0  0  0  0  0
  186.6560  172.9110  137.8470 O   0  0  0  0  0  0  0  0  0  0  0  0
  189.6170  175.4340  136.6070 C   0  0  0  0  0  3  0  0  0  0  0  0
  191.0130  174.8240  136.4030 C   0  0  0  0  0  2  0  0  0  0  0  0
  192.5210  176.2520  137.5750 O   0  0  0  0  0  1  0  0  0  0  0  0
  191.8720  175.0190  137.6400 C   0  0  0  0  0  2  0  0  0  0  0  0
  189.4430  176.2840  137.8700 C   0  0  0  0  0  2  0  0  0  0  0  0
  188.2360  178.3330  138.0160 O   0  0  0  0  0  1  0  0  0  0  0  0
  189.4430  177.7780  137.5890 C   0  0  0  0  0  2  0  0  0  0  0  0
  187.1900  178.7300  141.6390 C   0  0  0  0  0  2  0  0  0  0  0  0
  189.1510  177.3680  144.0290 C   0  0  0  0  0  2  0  0  0  0  0  0
  190.7400  176.9950  143.2340 P   0  0  1  0  0  0  0  0  0  0  0  0
  191.8690  178.2010  143.5940 O   0  0  0  0  0  0  0  0  0  0  0  0
  189.5270  177.9290  141.2850 C   0  0  0  0  0  2  0  0  0  0  0  0
  188.0490  176.8680  143.1020 C   0  0  0  0  0  2  0  0  0  0  0  0
  188.1060  177.5140  141.7030 C   0  0  1  0  0  3  0  0  0  0  0  0
  191.2480  175.6560  143.7220 O   0  0  0  0  0  1  0  0  0  0  0  0
  190.4670  176.9240  141.5570 O   0  0  0  0  0  0  0  0  0  0  0  0
  1  8  1  0  0  0  0
  1  6  1  0  0  0  0
  2 12  1  0  0  0  0
  3 16  1  1  0  0  0
  3 14  1  0  0  0  0
  3 10  1  0  0  0  0
  4 15  1  0  0  0  0
  4  8  2  0  0  0  0
  5  1  2  0  0  0  0
  7  4  1  0  0  0  0
  9  7  2  0  0  0  0
  9  5  1  0  0  0  0
 10 11  1  0  0  0  0
 11  2  2  0  0  0  0
 11  7  1  0  0  0  0
 12 15  2  0  0  0  0
 13 35  1  1  0  0  0
 13  2  1  0  0  0  0
 14 13  1  0  0  0  0
 16 17  1  6  0  0  0
 18 16  1  0  0  0  0
 19 20  1  6  0  0  0
 19 18  1  0  0  0  0
 21 19  1  0  0  0  0
 22 21  1  6  0  0  0
 22 24  1  0  0  0  0
 23 27  1  0  0  0  0
 24 27  1  0  0  0  0
 25 28  1  0  0  0  0
 25 22  1  0  0  0  0
 25 26  1  0  0  0  0
 26 23  1  0  0  0  0
 28 32  1  0  0  0  0
 29 28  1  0  0  0  0
 29 31  1  0  0  0  0
 30 31  1  0  0  0  0
 34 32  1  0  0  0  0
 34 33  1  0  0  0  0
 37 38  2  1  0  0  0
 37 42  1  0  0  0  0
 37 36  1  0  0  0  0
 39 43  1  0  0  0  0
 39 41  1  0  0  0  0
 40 36  1  0  0  0  0
 41 35  1  1  0  0  0
 41 40  1  0  0  0  0
 43 37  1  0  0  0  0
M  END
>  <MODEL>
7

>  <REMARK>
 VINA RESULT:      -6.9      3.039      6.002
  Name = 
  12 active torsions:
  status: ('A' for Active; 'I' for Inactive)
    1  A    between atoms: C_1  and  C_34
    2  A    between atoms: C_1  and  C_35
    3  A    between atoms: C_2  and  N_6
    4  A    between atoms: C_2  and  C_13
    5  A    between atoms: C_3  and  C_4
    6  A    between atoms: C_3  and  C_12
    7  A    between atoms: N_6  and  C_12
    8  A    between atoms: C_11  and  C_14
    9  A    between atoms: C_11  and  C_36
   10  A    between atoms: C_14  and  N_22
   11  A    between atoms: C_14  and  C_40
   12  A    between atoms: C_31  and  C_40
                            x       y       z     vdW  Elec       q    Type
                         _______ _______ _______ _____ _____    ______ ____

>  <TORSDO>
F 12

$$$$
=
 OpenBabel11052416133D

 43 47  0  0  1  0  0  0  0  0999 V2000
  187.6670  177.8140  147.7000 C   0  0  0  0  0  0  0  0  0  0  0  0
  187.4130  178.0450  142.6540 C   0  0  0  0  0  0  0  0  0  0  0  0
  184.9690  179.1850  141.8320 C   0  0  1  0  0  3  0  0  0  0  0  0
  188.1160  177.5780  145.3320 C   0  0  0  0  0  0  0  0  0  0  0  0
  186.4800  178.4920  147.4110 C   0  0  0  0  0  3  0  0  0  0  0  0
  188.0360  177.5940  149.0200 O   0  0  0  0  0  1  0  0  0  0  0  0
  186.9130  178.2570  145.0290 C   0  0  0  0  0  0  0  0  0  0  0  0
  188.4830  177.3580  146.6630 C   0  0  0  0  0  3  0  0  0  0  0  0
  186.1040  178.7130  146.0840 C   0  0  0  0  0  3  0  0  0  0  0  0
  185.2370  179.1270  143.3390 C   0  0  0  0  0  2  0  0  0  0  0  0
  186.5440  178.4610  143.6820 C   0  0  0  0  0  0  0  0  0  0  0  0
  188.5880  177.3500  142.9730 C   0  0  0  0  0  3  0  0  0  0  0  0
  186.9980  178.2470  141.2130 C   0  0  1  0  0  3  0  0  0  0  0  0
  186.1400  179.3580  141.0550 O   0  0  0  0  0  0  0  0  0  0  0  0
  188.9410  177.1230  144.3040 C   0  0  0  0  0  3  0  0  0  0  0  0
  183.9750  178.1390  141.3010 C   0  0  1  0  0  3  0  0  0  0  0  0
  182.5960  178.4190  141.8800 C   0  0  0  0  0  1  0  0  0  0  0  0
  183.9320  178.1190  139.8400 N   0  0  0  0  0  2  0  0  0  0  0  0
  182.6390  177.5900  139.4150 C   0  0  1  0  0  3  0  0  0  0  0  0
  182.3050  178.1270  138.0350 C   0  0  0  0  0  1  0  0  0  0  0  0
  182.6830  176.0650  139.3360 C   0  0  0  0  0  2  0  0  0  0  0  0
  182.3310  175.5100  137.9540 C   0  0  1  0  0  3  0  0  0  0  0  0
  182.2390  173.1840  136.4130 C   0  0  0  0  0  2  0  0  0  0  0  0
  183.5260  174.7100  137.4150 C   0  0  0  0  0  2  0  0  0  0  0  0
  181.0870  174.6980  137.9840 N   0  0  0  0  0  0  0  0  0  0  0  0
  180.9360  173.8880  136.7670 C   0  0  0  0  0  2  0  0  0  0  0  0
  183.2220  174.1520  136.1660 O   0  0  0  0  0  0  0  0  0  0  0  0
  179.8710  175.5270  138.0510 C   0  0  0  0  0  3  0  0  0  0  0  0
  178.9340  175.2380  139.2350 C   0  0  0  0  0  2  0  0  0  0  0  0
  178.9970  174.7620  141.5700 O   0  0  0  0  0  1  0  0  0  0  0  0
  179.6930  174.5820  140.3760 C   0  0  0  0  0  2  0  0  0  0  0  0
  179.1870  175.7020  136.6910 C   0  0  0  0  0  2  0  0  0  0  0  0
  178.9620  178.0350  136.2660 O   0  0  0  0  0  1  0  0  0  0  0  0
  179.7010  176.9050  135.9160 C   0  0  0  0  0  2  0  0  0  0  0  0
  188.1850  178.3640  140.2500 C   0  0  0  0  0  2  0  0  0  0  0  0
  189.4670  177.9730  137.1490 C   0  0  0  0  0  2  0  0  0  0  0  0
  188.1870  177.1370  136.1690 P   0  0  1  0  0  0  0  0  0  0  0  0
  187.3520  178.2610  135.2210 O   0  0  0  0  0  0  0  0  0  0  0  0
  187.0090  177.2580  138.3470 C   0  0  0  0  0  2  0  0  0  0  0  0
  189.5770  177.2360  138.4790 C   0  0  0  0  0  2  0  0  0  0  0  0
  188.2460  177.2080  139.2580 C   0  0  1  0  0  3  0  0  0  0  0  0
  188.8300  176.0950  135.2810 O   0  0  0  0  0  1  0  0  0  0  0  0
  187.1250  176.3790  137.2590 O   0  0  0  0  0  0  0  0  0  0  0  0
  1  6  1  0  0  0  0
  2 12  2  0  0  0  0
  2 11  1  0  0  0  0
  3 16  1  6  0  0  0
  3 10  1  0  0  0  0
  4  8  1  0  0  0  0
  5  1  1  0  0  0  0
  7  4  1  0  0  0  0
  7  9  1  0  0  0  0
  8  1  2  0  0  0  0
  9  5  2  0  0  0  0
 10 11  1  0  0  0  0
 11  7  2  0  0  0  0
 12 15  1  0  0  0  0
 13 35  1  6  0  0  0
 13  2  1  0  0  0  0
 14 13  1  0  0  0  0
 14  3  1  0  0  0  0
 15  4  2  0  0  0  0
 16 17  1  1  0  0  0
 18 16  1  0  0  0  0
 19 20  1  6  0  0  0
 19 18  1  0  0  0  0
 21 19  1  0  0  0  0
 22 25  1  0  0  0  0
 22 21  1  1  0  0  0
 23 26  1  0  0  0  0
 24 22  1  0  0  0  0
 25 28  1  0  0  0  0
 26 25  1  0  0  0  0
 27 23  1  0  0  0  0
 27 24  1  0  0  0  0
 28 29  1  0  0  0  0
 29 31  1  0  0  0  0
 31 30  1  0  0  0  0
 32 28  1  0  0  0  0
 34 33  1  0  0  0  0
 34 32  1  0  0  0  0
 36 40  1  0  0  0  0
 37 38  2  6  0  0  0
 37 36  1  0  0  0  0
 37 43  1  0  0  0  0
 39 41  1  0  0  0  0
 40 41  1  0  0  0  0
 41 35  1  1  0  0  0
 42 37  1  0  0  0  0
 43 39  1  0  0  0  0
M  END
>  <MODEL>
8

>  <REMARK>
 VINA RESULT:      -6.9      1.477      2.730
  Name = 
  12 active torsions:
  status: ('A' for Active; 'I' for Inactive)
    1  A    between atoms: C_1  and  C_34
    2  A    between atoms: C_1  and  C_35
    3  A    between atoms: C_2  and  N_6
    4  A    between atoms: C_2  and  C_13
    5  A    between atoms: C_3  and  C_4
    6  A    between atoms: C_3  and  C_12
    7  A    between atoms: N_6  and  C_12
    8  A    between atoms: C_11  and  C_14
    9  A    between atoms: C_11  and  C_36
   10  A    between atoms: C_14  and  N_22
   11  A    between atoms: C_14  and  C_40
   12  A    between atoms: C_31  and  C_40
                            x       y       z     vdW  Elec       q    Type
                         _______ _______ _______ _____ _____    ______ ____

>  <TORSDO>
F 12

$$$$
=
 OpenBabel11052416133D

 43 47  0  0  1  0  0  0  0  0999 V2000
  192.1560  176.3870  147.8620 C   0  0  0  0  0  0  0  0  0  0  0  0
  188.2020  177.4830  144.9050 C   0  0  0  0  0  0  0  0  0  0  0  0
  188.5910  176.4650  142.3050 C   0  0  1  0  0  3  0  0  0  0  0  0
  190.0770  177.2650  146.9840 C   0  0  0  0  0  0  0  0  0  0  0  0
  192.4020  175.7430  146.6460 C   0  0  0  0  0  3  0  0  0  0  0  0
  193.0660  176.2710  148.9040 O   0  0  0  0  0  1  0  0  0  0  0  0
  190.3210  176.6230  145.7470 C   0  0  0  0  0  0  0  0  0  0  0  0
  190.9960  177.1450  148.0300 C   0  0  0  0  0  3  0  0  0  0  0  0
  191.4900  175.8600  145.5940 C   0  0  0  0  0  3  0  0  0  0  0  0
  189.6650  176.1380  143.3480 C   0  0  0  0  0  2  0  0  0  0  0  0
  189.3930  176.7610  144.6920 C   0  0  0  0  0  0  0  0  0  0  0  0
  187.9910  178.1340  146.1300 C   0  0  0  0  0  3  0  0  0  0  0  0
  187.2250  177.6460  143.7610 C   0  0  1  0  0  3  0  0  0  0  0  0
  187.2870  176.5690  142.8480 O   0  0  0  0  0  0  0  0  0  0  0  0
  188.9200  178.0210  147.1640 C   0  0  0  0  0  3  0  0  0  0  0  0
  188.9710  177.5560  141.2920 C   0  0  1  0  0  3  0  0  0  0  0  0
  188.1090  178.7880  141.5340 C   0  0  0  0  0  1  0  0  0  0  0  0
  190.3910  177.8940  141.3570 N   0  0  0  0  0  2  0  0  0  0  0  0
  191.0040  177.6010  140.0650 C   0  0  1  0  0  3  0  0  0  0  0  0
  192.5100  177.5080  140.2330 C   0  0  0  0  0  1  0  0  0  0  0  0
  190.5010  176.2650  139.5220 C   0  0  0  0  0  2  0  0  0  0  0  0
  190.5980  176.1430  138.0000 C   0  0  1  0  0  3  0  0  0  0  0  0
  190.7740  174.3250  135.8890 C   0  0  0  0  0  2  0  0  0  0  0  0
  191.7980  175.2530  137.6430 C   0  0  0  0  0  2  0  0  0  0  0  0
  189.3340  175.6370  137.4040 N   0  0  0  0  0  0  0  0  0  0  0  0
  189.5280  175.1910  136.0160 C   0  0  0  0  0  2  0  0  0  0  0  0
  191.8910  175.0870  136.2550 O   0  0  0  0  0  0  0  0  0  0  0  0
  188.2870  176.6700  137.3360 C   0  0  0  0  0  3  0  0  0  0  0  0
  186.8410  176.1500  137.3170 C   0  0  0  0  0  2  0  0  0  0  0  0
  184.8290  177.3390  137.7930 O   0  0  0  0  0  1  0  0  0  0  0  0
  185.8810  177.2440  136.8810 C   0  0  0  0  0  2  0  0  0  0  0  0
  188.6040  177.7830  136.3320 C   0  0  0  0  0  2  0  0  0  0  0  0
  188.5190  179.2500  138.2090 O   0  0  0  0  0  1  0  0  0  0  0  0
  189.1620  179.0370  136.9880 C   0  0  0  0  0  2  0  0  0  0  0  0
  185.7780  177.8540  144.2230 C   0  0  0  0  0  2  0  0  0  0  0  0
  182.5510  178.8170  143.9650 C   0  0  0  0  0  2  0  0  0  0  0  0
  182.1740  178.8680  142.1890 P   0  0  1  0  0  0  0  0  0  0  0  0
  181.3500  177.4670  141.7280 O   0  0  0  0  0  0  0  0  0  0  0  0
  184.5530  178.1810  142.0740 C   0  0  0  0  0  2  0  0  0  0  0  0
  183.8890  179.5190  144.1670 C   0  0  0  0  0  2  0  0  0  0  0  0
  185.0330  178.8680  143.3640 C   0  0  1  0  0  3  0  0  0  0  0  0
  181.3260  180.0840  141.8870 O   0  0  0  0  0  1  0  0  0  0  0  0
  183.6530  178.9840  141.3580 O   0  0  0  0  0  0  0  0  0  0  0  0
  1  8  1  0  0  0  0
  1  6  1  0  0  0  0
  2 12  1  0  0  0  0
  3 16  1  1  0  0  0
  3 14  1  0  0  0  0
  3 10  1  0  0  0  0
  4 15  1  0  0  0  0
  4  8  2  0  0  0  0
  5  1  2  0  0  0  0
  7  4  1  0  0  0  0
  9  7  2  0  0  0  0
  9  5  1  0  0  0  0
 10 11  1  0  0  0  0
 11  2  2  0  0  0  0
 11  7  1  0  0  0  0
 12 15  2  0  0  0  0
 13 35  1  1  0  0  0
 13  2  1  0  0  0  0
 14 13  1  0  0  0  0
 16 18  1  0  0  0  0
 16 17  1  1  0  0  0
 19 20  1  1  0  0  0
 19 18  1  0  0  0  0
 21 19  1  0  0  0  0
 22 21  1  1  0  0  0
 23 26  1  0  0  0  0
 23 27  1  0  0  0  0
 24 22  1  0  0  0  0
 25 22  1  0  0  0  0
 26 25  1  0  0  0  0
 27 24  1  0  0  0  0
 28 25  1  0  0  0  0
 29 28  1  0  0  0  0
 31 29  1  0  0  0  0
 31 30  1  0  0  0  0
 32 34  1  0  0  0  0
 32 28  1  0  0  0  0
 34 33  1  0  0  0  0
 36 40  1  0  0  0  0
 37 38  2  6  0  0  0
 37 36  1  0  0  0  0
 39 41  1  0  0  0  0
 41 40  1  0  0  0  0
 41 35  1  1  0  0  0
 42 37  1  0  0  0  0
 43 39  1  0  0  0  0
 43 37  1  0  0  0  0
M  END
>  <MODEL>
9

>  <REMARK>
 VINA RESULT:      -6.8      3.608      6.867
  Name = 
  12 active torsions:
  status: ('A' for Active; 'I' for Inactive)
    1  A    between atoms: C_1  and  C_34
    2  A    between atoms: C_1  and  C_35
    3  A    between atoms: C_2  and  N_6
    4  A    between atoms: C_2  and  C_13
    5  A    between atoms: C_3  and  C_4
    6  A    between atoms: C_3  and  C_12
    7  A    between atoms: N_6  and  C_12
    8  A    between atoms: C_11  and  C_14
    9  A    between atoms: C_11  and  C_36
   10  A    between atoms: C_14  and  N_22
   11  A    between atoms: C_14  and  C_40
   12  A    between atoms: C_31  and  C_40
                            x       y       z     vdW  Elec       q    Type
                         _______ _______ _______ _____ _____    ______ ____

>  <TORSDO>
F 12

$$$$
