=
 OpenBabel11052414423D

 32 34  0  0  1  0  0  0  0  0999 V2000
  186.4950  178.2320  142.3140 C   0  0  0  0  0  3  0  0  0  0  0  0
  186.2970  178.5440  140.9670 C   0  0  0  0  0  0  0  0  0  0  0  0
  185.4170  178.2340  143.2080 C   0  0  0  0  0  0  0  0  0  0  0  0
  184.1240  178.5620  142.7270 C   0  0  0  0  0  0  0  0  0  0  0  0
  183.9800  178.8790  141.3730 C   0  0  0  0  0  3  0  0  0  0  0  0
  185.0470  178.8620  140.5340 N   0  0  0  0  0  0  0  0  0  0  0  0
  185.6930  177.9340  144.6500 C   0  0  2  0  0  3  0  0  0  0  0  0
  185.3820  179.1420  145.5390 C   0  0  0  0  0  2  0  0  0  0  0  0
  189.7350  177.2230  147.3330 C   0  0  0  0  0  3  0  0  0  0  0  0
  187.0760  177.4740  144.8240 N   0  0  0  0  0  0  0  0  0  0  0  0
  187.7760  178.3760  148.2490 C   0  0  0  0  0  3  0  0  0  0  0  0
  187.0950  178.2720  147.1050 C   0  0  0  0  0  0  0  0  0  0  0  0
  185.7010  178.8080  146.9950 C   0  0  0  0  0  2  0  0  0  0  0  0
  187.7120  177.5820  145.9520 C   0  0  0  0  0  0  0  0  0  0  0  0
  189.1470  177.8350  148.3680 C   0  0  0  0  0  3  0  0  0  0  0  0
  189.0440  177.0790  146.0840 N   0  0  0  0  0  2  0  0  0  0  0  0
  187.4260  178.5470  140.0210 C   0  0  0  0  0  0  0  0  0  0  0  0
  187.2210  178.3120  138.8000 O   0  0  0  0  0  0  0  0  0  0  0  0
  188.8280  178.7940  140.4860 C   0  0  0  0  0  2  0  0  0  0  0  0
  189.9320  177.3210  142.1930 C   0  0  0  0  0  0  0  0  0  0  0  0
  190.1160  178.3010  142.9640 O   0  0  0  0  0  0  0  0  0  0  0  0
  189.4710  177.5360  140.8480 N   0  0  0  0  0  0  0  0  0  0  0  0
  190.1440  175.9410  142.7200 C   0  0  0  0  0  2  0  0  0  0  0  0
  191.3610  175.9200  143.6230 C   0  0  0  0  0  1  0  0  0  0  0  0
  189.5090  176.4710  139.8520 C   0  0  0  0  0  2  0  0  0  0  0  0
  190.5410  177.4380  137.9510 F   0  0  0  0  0  0  0  0  0  0  0  0
  191.1110  175.3180  138.5040 O   0  0  0  0  0  1  0  0  0  0  0  0
  190.7680  176.5730  139.0050 C   0  0  2  0  0  3  0  0  0  0  0  0
  182.9670  178.6110  143.5220 O   0  0  0  0  0  0  0  0  0  0  0  0
  181.6800  179.0320  143.0820 C   0  0  0  0  0  2  0  0  0  0  0  0
  179.3320  179.3120  143.8600 C   0  0  0  0  0  1  0  0  0  0  0  0
  180.5980  178.4900  144.0020 C   0  0  0  0  0  2  0  0  0  0  0  0
  1  3  1  0  0  0  0
  2  1  2  0  0  0  0
  4  3  2  0  0  0  0
  4 29  1  0  0  0  0
  5  4  1  0  0  0  0
  6  2  1  0  0  0  0
  6  5  2  0  0  0  0
  7  3  1  6  0  0  0
  7 10  1  0  0  0  0
  7  8  1  0  0  0  0
  8 13  1  0  0  0  0
  9 15  2  0  0  0  0
 10 14  2  0  0  0  0
 11 15  1  0  0  0  0
 12 11  2  0  0  0  0
 13 12  1  0  0  0  0
 14 16  1  0  0  0  0
 14 12  1  0  0  0  0
 16  9  1  0  0  0  0
 17 19  1  0  0  0  0
 17  2  1  0  0  0  0
 18 17  2  0  0  0  0
 19 22  1  0  0  0  0
 20 23  1  0  0  0  0
 20 21  2  0  0  0  0
 22 20  1  0  0  0  0
 23 24  1  0  0  0  0
 25 22  1  0  0  0  0
 27 28  1  0  0  0  0
 28 26  1  6  0  0  0
 28 25  1  0  0  0  0
 30 29  1  0  0  0  0
 30 32  1  0  0  0  0
 31 32  1  0  0  0  0
M  END
>  <MODEL>
1

>  <REMARK>
 VINA RESULT:      -8.4      0.000      0.000
  Name = 
  10 active torsions:
  status: ('A' for Active; 'I' for Inactive)
    1  A    between atoms: C_2  and  C_5
    2  A    between atoms: C_3  and  C_22
    3  A    between atoms: C_4  and  C_24
    4  A    between atoms: C_13  and  O_18
    5  A    between atoms: C_13  and  C_29
    6  A    between atoms: C_14  and  O_18
    7  A    between atoms: C_15  and  N_20
    8  A    between atoms: C_15  and  C_26
    9  A    between atoms: C_16  and  N_20
   10  A    between atoms: C_16  and  C_24
                            x       y       z     vdW  Elec       q    Type
                         _______ _______ _______ _____ _____    ______ ____

>  <TORSDO>
F 10

$$$$
=
 OpenBabel11052414423D

 32 34  0  0  1  0  0  0  0  0999 V2000
  186.9940  178.0800  142.0250 C   0  0  0  0  0  3  0  0  0  0  0  0
  187.0080  178.3910  140.6640 C   0  0  0  0  0  0  0  0  0  0  0  0
  185.8210  178.2340  142.7740 C   0  0  0  0  0  0  0  0  0  0  0  0
  184.6520  178.7140  142.1330 C   0  0  0  0  0  0  0  0  0  0  0  0
  184.7200  179.0230  140.7710 C   0  0  0  0  0  3  0  0  0  0  0  0
  185.8740  178.8570  140.0750 N   0  0  0  0  0  0  0  0  0  0  0  0
  185.8720  177.9260  144.2400 C   0  0  2  0  0  3  0  0  0  0  0  0
  185.4220  179.1270  145.0770 C   0  0  0  0  0  2  0  0  0  0  0  0
  189.4550  177.2150  147.5110 C   0  0  0  0  0  3  0  0  0  0  0  0
  187.2140  177.4710  144.6230 N   0  0  0  0  0  0  0  0  0  0  0  0
  187.3720  178.3550  148.1200 C   0  0  0  0  0  3  0  0  0  0  0  0
  186.8760  178.2550  146.8840 C   0  0  0  0  0  0  0  0  0  0  0  0
  185.5140  178.7860  146.5630 C   0  0  0  0  0  2  0  0  0  0  0  0
  187.6670  177.5740  145.8370 C   0  0  0  0  0  0  0  0  0  0  0  0
  188.7120  177.8190  148.4470 C   0  0  0  0  0  3  0  0  0  0  0  0
  188.9660  177.0760  146.1700 N   0  0  0  0  0  2  0  0  0  0  0  0
  188.2390  178.2350  139.8690 C   0  0  0  0  0  0  0  0  0  0  0  0
  188.6760  179.2060  139.1960 O   0  0  0  0  0  0  0  0  0  0  0  0
  188.9700  176.9290  139.8170 C   0  0  0  0  0  2  0  0  0  0  0  0
  191.4730  177.1030  139.7180 C   0  0  0  0  0  0  0  0  0  0  0  0
  191.4820  176.7070  138.5210 O   0  0  0  0  0  0  0  0  0  0  0  0
  190.2600  177.0440  140.4880 N   0  0  0  0  0  0  0  0  0  0  0  0
  192.7210  177.6830  140.2940 C   0  0  0  0  0  2  0  0  0  0  0  0
  193.9030  176.8000  139.9470 C   0  0  0  0  0  1  0  0  0  0  0  0
  190.2690  177.2290  141.9350 C   0  0  0  0  0  2  0  0  0  0  0  0
  189.0480  175.5580  143.0880 F   0  0  0  0  0  0  0  0  0  0  0  0
  191.1780  175.9550  143.7420 O   0  0  0  0  0  1  0  0  0  0  0  0
  190.3160  175.8870  142.6480 C   0  0  2  0  0  3  0  0  0  0  0  0
  183.4190  178.9230  142.7740 O   0  0  0  0  0  0  0  0  0  0  0  0
  182.1380  178.7670  142.1720 C   0  0  0  0  0  2  0  0  0  0  0  0
  180.3670  178.4150  143.8860 C   0  0  0  0  0  1  0  0  0  0  0  0
  181.0670  179.4400  143.0150 C   0  0  0  0  0  2  0  0  0  0  0  0
  1  3  1  0  0  0  0
  2  1  2  0  0  0  0
  4 29  1  0  0  0  0
  4  3  2  0  0  0  0
  5  4  1  0  0  0  0
  6  2  1  0  0  0  0
  6  5  2  0  0  0  0
  7  3  1  6  0  0  0
  7 10  1  0  0  0  0
  7  8  1  0  0  0  0
  8 13  1  0  0  0  0
  9 15  2  0  0  0  0
 10 14  2  0  0  0  0
 11 15  1  0  0  0  0
 12 11  2  0  0  0  0
 13 12  1  0  0  0  0
 14 16  1  0  0  0  0
 14 12  1  0  0  0  0
 16  9  1  0  0  0  0
 17  2  1  0  0  0  0
 18 17  2  0  0  0  0
 19 17  1  0  0  0  0
 19 22  1  0  0  0  0
 20 23  1  0  0  0  0
 20 22  1  0  0  0  0
 21 20  2  0  0  0  0
 22 25  1  0  0  0  0
 24 23  1  0  0  0  0
 25 28  1  0  0  0  0
 28 26  1  1  0  0  0
 28 27  1  0  0  0  0
 30 29  1  0  0  0  0
 30 32  1  0  0  0  0
 32 31  1  0  0  0  0
M  END
>  <MODEL>
2

>  <REMARK>
 VINA RESULT:      -8.4      1.516      2.293
  Name = 
  10 active torsions:
  status: ('A' for Active; 'I' for Inactive)
    1  A    between atoms: C_2  and  C_5
    2  A    between atoms: C_3  and  C_22
    3  A    between atoms: C_4  and  C_24
    4  A    between atoms: C_13  and  O_18
    5  A    between atoms: C_13  and  C_29
    6  A    between atoms: C_14  and  O_18
    7  A    between atoms: C_15  and  N_20
    8  A    between atoms: C_15  and  C_26
    9  A    between atoms: C_16  and  N_20
   10  A    between atoms: C_16  and  C_24
                            x       y       z     vdW  Elec       q    Type
                         _______ _______ _______ _____ _____    ______ ____

>  <TORSDO>
F 10

$$$$
=
 OpenBabel11052414423D

 32 34  0  0  1  0  0  0  0  0999 V2000
  187.0760  177.9390  144.6810 C   0  0  0  0  0  3  0  0  0  0  0  0
  186.1150  178.3660  145.5990 C   0  0  0  0  0  0  0  0  0  0  0  0
  188.2550  177.3270  145.1230 C   0  0  0  0  0  0  0  0  0  0  0  0
  188.4610  177.1530  146.5150 C   0  0  0  0  0  0  0  0  0  0  0  0
  187.4750  177.6090  147.3940 C   0  0  0  0  0  3  0  0  0  0  0  0
  186.3410  178.1940  146.9290 N   0  0  0  0  0  0  0  0  0  0  0  0
  189.2720  176.9250  144.0970 C   0  0  2  0  0  3  0  0  0  0  0  0
  190.5130  177.8210  144.1650 C   0  0  0  0  0  2  0  0  0  0  0  0
  189.5600  177.1950  139.2100 C   0  0  0  0  0  3  0  0  0  0  0  0
  188.6760  176.9240  142.7560 N   0  0  0  0  0  0  0  0  0  0  0  0
  191.5370  177.4940  140.6280 C   0  0  0  0  0  3  0  0  0  0  0  0
  190.8360  177.3410  141.7550 C   0  0  0  0  0  0  0  0  0  0  0  0
  191.5130  177.4010  143.0890 C   0  0  0  0  0  2  0  0  0  0  0  0
  189.3850  177.0680  141.6760 C   0  0  0  0  0  0  0  0  0  0  0  0
  190.8760  177.4210  139.3070 C   0  0  0  0  0  3  0  0  0  0  0  0
  188.7630  177.0170  140.3890 N   0  0  0  0  0  2  0  0  0  0  0  0
  184.8730  179.0140  145.1420 C   0  0  0  0  0  0  0  0  0  0  0  0
  183.8460  178.9830  145.8720 O   0  0  0  0  0  0  0  0  0  0  0  0
  184.7930  179.6860  143.8060 C   0  0  0  0  0  2  0  0  0  0  0  0
  182.6880  178.9580  142.6470 C   0  0  0  0  0  0  0  0  0  0  0  0
  181.9770  179.5340  143.5140 O   0  0  0  0  0  0  0  0  0  0  0  0
  184.1060  178.8280  142.8470 N   0  0  0  0  0  0  0  0  0  0  0  0
  182.0430  178.4730  141.3930 C   0  0  0  0  0  2  0  0  0  0  0  0
  180.5420  178.6720  141.4790 C   0  0  0  0  0  1  0  0  0  0  0  0
  184.9130  177.9410  142.0160 C   0  0  0  0  0  2  0  0  0  0  0  0
  186.7670  179.3860  141.7230 F   0  0  0  0  0  0  0  0  0  0  0  0
  184.9630  179.6930  140.3900 O   0  0  0  0  0  1  0  0  0  0  0  0
  185.7550  178.7430  141.0360 C   0  0  2  0  0  3  0  0  0  0  0  0
  189.6030  176.5660  147.0850 O   0  0  0  0  0  0  0  0  0  0  0  0
  190.6890  177.2730  147.6750 C   0  0  0  0  0  2  0  0  0  0  0  0
  192.0670  175.5610  146.5070 C   0  0  0  0  0  1  0  0  0  0  0  0
  191.9170  176.3840  147.7710 C   0  0  0  0  0  2  0  0  0  0  0  0
  1  3  2  0  0  0  0
  1  2  1  0  0  0  0
  2  6  2  0  0  0  0
  3  4  1  0  0  0  0
  4 29  1  0  0  0  0
  4  5  2  0  0  0  0
  6  5  1  0  0  0  0
  7  8  1  0  0  0  0
  7  3  1  1  0  0  0
  9 15  2  0  0  0  0
  9 16  1  0  0  0  0
 10  7  1  0  0  0  0
 11 12  2  0  0  0  0
 12 13  1  0  0  0  0
 13  8  1  0  0  0  0
 14 12  1  0  0  0  0
 14 10  2  0  0  0  0
 15 11  1  0  0  0  0
 16 14  1  0  0  0  0
 17  2  1  0  0  0  0
 17 18  2  0  0  0  0
 19 17  1  0  0  0  0
 20 22  1  0  0  0  0
 20 21  2  0  0  0  0
 22 19  1  0  0  0  0
 23 24  1  0  0  0  0
 23 20  1  0  0  0  0
 25 22  1  0  0  0  0
 28 27  1  1  0  0  0
 28 26  1  0  0  0  0
 28 25  1  0  0  0  0
 29 30  1  0  0  0  0
 30 32  1  0  0  0  0
 31 32  1  0  0  0  0
M  END
>  <MODEL>
3

>  <REMARK>
 VINA RESULT:      -8.3      2.484      7.346
  Name = 
  10 active torsions:
  status: ('A' for Active; 'I' for Inactive)
    1  A    between atoms: C_2  and  C_5
    2  A    between atoms: C_3  and  C_22
    3  A    between atoms: C_4  and  C_24
    4  A    between atoms: C_13  and  O_18
    5  A    between atoms: C_13  and  C_29
    6  A    between atoms: C_14  and  O_18
    7  A    between atoms: C_15  and  N_20
    8  A    between atoms: C_15  and  C_26
    9  A    between atoms: C_16  and  N_20
   10  A    between atoms: C_16  and  C_24
                            x       y       z     vdW  Elec       q    Type
                         _______ _______ _______ _____ _____    ______ ____

>  <TORSDO>
F 10

$$$$
=
 OpenBabel11052414423D

 32 34  0  0  1  0  0  0  0  0999 V2000
  187.7020  178.3740  141.6390 C   0  0  0  0  0  3  0  0  0  0  0  0
  186.7430  178.5140  140.6330 C   0  0  0  0  0  0  0  0  0  0  0  0
  189.0350  178.1000  141.3140 C   0  0  0  0  0  0  0  0  0  0  0  0
  189.3980  177.9600  139.9500 C   0  0  0  0  0  0  0  0  0  0  0  0
  188.4000  178.0960  138.9810 C   0  0  0  0  0  3  0  0  0  0  0  0
  187.1160  178.3670  139.3330 N   0  0  0  0  0  0  0  0  0  0  0  0
  190.0140  177.9180  142.4340 C   0  0  2  0  0  3  0  0  0  0  0  0
  190.6360  176.5190  142.4080 C   0  0  0  0  0  2  0  0  0  0  0  0
  189.6660  177.4800  147.3060 C   0  0  0  0  0  3  0  0  0  0  0  0
  189.3770  178.2050  143.7250 N   0  0  0  0  0  0  0  0  0  0  0  0
  191.3470  176.2390  146.0250 C   0  0  0  0  0  3  0  0  0  0  0  0
  190.9280  176.7390  144.8590 C   0  0  0  0  0  0  0  0  0  0  0  0
  191.6050  176.3610  143.5790 C   0  0  0  0  0  2  0  0  0  0  0  0
  189.8110  177.7090  144.8450 C   0  0  0  0  0  0  0  0  0  0  0  0
  190.6910  176.6200  147.2950 C   0  0  0  0  0  3  0  0  0  0  0  0
  189.1820  178.0520  146.0820 N   0  0  0  0  0  2  0  0  0  0  0  0
  185.3370  178.7990  140.9660 C   0  0  0  0  0  0  0  0  0  0  0  0
  184.7280  179.7260  140.3680 O   0  0  0  0  0  0  0  0  0  0  0  0
  184.6190  178.0270  142.0300 C   0  0  0  0  0  2  0  0  0  0  0  0
  182.3150  178.8920  142.5300 C   0  0  0  0  0  0  0  0  0  0  0  0
  181.8700  178.4120  141.4530 O   0  0  0  0  0  0  0  0  0  0  0  0
  183.7310  178.9070  142.7820 N   0  0  0  0  0  0  0  0  0  0  0  0
  181.3490  179.3870  143.5530 C   0  0  0  0  0  2  0  0  0  0  0  0
  180.3310  178.3060  143.8600 C   0  0  0  0  0  1  0  0  0  0  0  0
  184.3010  179.6900  143.8730 C   0  0  0  0  0  2  0  0  0  0  0  0
  183.6090  178.5830  145.8500 F   0  0  0  0  0  0  0  0  0  0  0  0
  185.7260  179.3810  145.7670 O   0  0  0  0  0  1  0  0  0  0  0  0
  184.7020  178.7880  145.0290 C   0  0  2  0  0  3  0  0  0  0  0  0
  190.6960  177.6740  139.4950 O   0  0  0  0  0  0  0  0  0  0  0  0
  191.0610  176.5620  138.6840 C   0  0  0  0  0  2  0  0  0  0  0  0
  193.2330  177.1940  139.7240 C   0  0  0  0  0  1  0  0  0  0  0  0
  192.5730  176.4530  138.5780 C   0  0  0  0  0  2  0  0  0  0  0  0
  2 17  1  0  0  0  0
  2  1  2  0  0  0  0
  3  1  1  0  0  0  0
  4  3  2  0  0  0  0
  5  6  2  0  0  0  0
  5  4  1  0  0  0  0
  6  2  1  0  0  0  0
  7  3  1  6  0  0  0
  7 10  1  0  0  0  0
  8  7  1  0  0  0  0
  8 13  1  0  0  0  0
 10 14  2  0  0  0  0
 11 15  1  0  0  0  0
 12 11  2  0  0  0  0
 13 12  1  0  0  0  0
 14 12  1  0  0  0  0
 14 16  1  0  0  0  0
 15  9  2  0  0  0  0
 16  9  1  0  0  0  0
 17 19  1  0  0  0  0
 18 17  2  0  0  0  0
 19 22  1  0  0  0  0
 20 22  1  0  0  0  0
 20 23  1  0  0  0  0
 21 20  2  0  0  0  0
 22 25  1  0  0  0  0
 23 24  1  0  0  0  0
 25 28  1  0  0  0  0
 28 27  1  1  0  0  0
 28 26  1  0  0  0  0
 29  4  1  0  0  0  0
 30 29  1  0  0  0  0
 32 30  1  0  0  0  0
 32 31  1  0  0  0  0
M  END
>  <MODEL>
4

>  <REMARK>
 VINA RESULT:      -8.2      2.573      7.109
  Name = 
  10 active torsions:
  status: ('A' for Active; 'I' for Inactive)
    1  A    between atoms: C_2  and  C_5
    2  A    between atoms: C_3  and  C_22
    3  A    between atoms: C_4  and  C_24
    4  A    between atoms: C_13  and  O_18
    5  A    between atoms: C_13  and  C_29
    6  A    between atoms: C_14  and  O_18
    7  A    between atoms: C_15  and  N_20
    8  A    between atoms: C_15  and  C_26
    9  A    between atoms: C_16  and  N_20
   10  A    between atoms: C_16  and  C_24
                            x       y       z     vdW  Elec       q    Type
                         _______ _______ _______ _____ _____    ______ ____

>  <TORSDO>
F 10

$$$$
=
 OpenBabel11052414423D

 32 34  0  0  1  0  0  0  0  0999 V2000
  187.4440  177.9620  142.0840 C   0  0  0  0  0  3  0  0  0  0  0  0
  187.5780  178.2470  140.7230 C   0  0  0  0  0  0  0  0  0  0  0  0
  186.1990  178.0770  142.7120 C   0  0  0  0  0  0  0  0  0  0  0  0
  185.0780  178.4920  141.9500 C   0  0  0  0  0  0  0  0  0  0  0  0
  185.2650  178.7770  140.5950 C   0  0  0  0  0  3  0  0  0  0  0  0
  186.4880  178.6500  140.0170 N   0  0  0  0  0  0  0  0  0  0  0  0
  186.1200  177.8000  144.1830 C   0  0  2  0  0  3  0  0  0  0  0  0
  185.4900  178.9750  144.9370 C   0  0  0  0  0  2  0  0  0  0  0  0
  189.3850  177.4430  147.8250 C   0  0  0  0  0  3  0  0  0  0  0  0
  187.4460  177.4630  144.7150 N   0  0  0  0  0  0  0  0  0  0  0  0
  187.1650  178.4190  148.1850 C   0  0  0  0  0  3  0  0  0  0  0  0
  186.8110  178.2570  146.9070 C   0  0  0  0  0  0  0  0  0  0  0  0
  185.4520  178.6690  146.4340 C   0  0  0  0  0  2  0  0  0  0  0  0
  187.7600  177.6250  145.9650 C   0  0  0  0  0  0  0  0  0  0  0  0
  188.5010  178.0000  148.6620 C   0  0  0  0  0  3  0  0  0  0  0  0
  189.0510  177.2410  146.4440 N   0  0  0  0  0  2  0  0  0  0  0  0
  188.8860  178.1320  140.0550 C   0  0  0  0  0  0  0  0  0  0  0  0
  189.8630  177.6310  140.6730 O   0  0  0  0  0  0  0  0  0  0  0  0
  189.0900  178.6290  138.6570 C   0  0  0  0  0  2  0  0  0  0  0  0
  187.6570  178.2270  136.6340 C   0  0  0  0  0  0  0  0  0  0  0  0
  187.1720  179.3880  136.7110 O   0  0  0  0  0  0  0  0  0  0  0  0
  188.4770  177.7150  137.7000 N   0  0  0  0  0  0  0  0  0  0  0  0
  187.4150  177.4260  135.3990 C   0  0  0  0  0  2  0  0  0  0  0  0
  185.9730  176.9600  135.3660 C   0  0  0  0  0  1  0  0  0  0  0  0
  188.8250  176.3010  137.7780 C   0  0  0  0  0  2  0  0  0  0  0  0
  190.5180  176.1550  136.1270 F   0  0  0  0  0  0  0  0  0  0  0  0
  190.7170  174.8520  137.9680 O   0  0  0  0  0  1  0  0  0  0  0  0
  190.3040  176.0960  137.4910 C   0  0  2  0  0  3  0  0  0  0  0  0
  183.7810  178.6560  142.4640 O   0  0  0  0  0  0  0  0  0  0  0  0
  182.5800  178.6300  141.7000 C   0  0  0  0  0  2  0  0  0  0  0  0
  181.7390  178.6400  144.0430 C   0  0  0  0  0  1  0  0  0  0  0  0
  181.3740  178.8780  142.5910 C   0  0  0  0  0  2  0  0  0  0  0  0
  1  3  1  0  0  0  0
  2  1  2  0  0  0  0
  4 29  1  0  0  0  0
  4  3  2  0  0  0  0
  5  4  1  0  0  0  0
  6  5  2  0  0  0  0
  6  2  1  0  0  0  0
  7  3  1  6  0  0  0
  7 10  1  0  0  0  0
  7  8  1  0  0  0  0
  8 13  1  0  0  0  0
  9 15  2  0  0  0  0
 10 14  2  0  0  0  0
 11 15  1  0  0  0  0
 12 11  2  0  0  0  0
 13 12  1  0  0  0  0
 14 16  1  0  0  0  0
 14 12  1  0  0  0  0
 16  9  1  0  0  0  0
 17 18  2  0  0  0  0
 17  2  1  0  0  0  0
 19 17  1  0  0  0  0
 20 21  2  0  0  0  0
 20 22  1  0  0  0  0
 22 25  1  0  0  0  0
 22 19  1  0  0  0  0
 23 20  1  0  0  0  0
 24 23  1  0  0  0  0
 28 26  1  6  0  0  0
 28 25  1  0  0  0  0
 28 27  1  0  0  0  0
 30 29  1  0  0  0  0
 30 32  1  0  0  0  0
 32 31  1  0  0  0  0
M  END
>  <MODEL>
5

>  <REMARK>
 VINA RESULT:      -8.0      1.899      3.136
  Name = 
  10 active torsions:
  status: ('A' for Active; 'I' for Inactive)
    1  A    between atoms: C_2  and  C_5
    2  A    between atoms: C_3  and  C_22
    3  A    between atoms: C_4  and  C_24
    4  A    between atoms: C_13  and  O_18
    5  A    between atoms: C_13  and  C_29
    6  A    between atoms: C_14  and  O_18
    7  A    between atoms: C_15  and  N_20
    8  A    between atoms: C_15  and  C_26
    9  A    between atoms: C_16  and  N_20
   10  A    between atoms: C_16  and  C_24
                            x       y       z     vdW  Elec       q    Type
                         _______ _______ _______ _____ _____    ______ ____

>  <TORSDO>
F 10

$$$$
=
 OpenBabel11052414423D

 32 34  0  0  1  0  0  0  0  0999 V2000
  186.2750  178.0670  142.6220 C   0  0  0  0  0  3  0  0  0  0  0  0
  186.7480  177.9070  143.9270 C   0  0  0  0  0  0  0  0  0  0  0  0
  184.9930  178.5810  142.3920 C   0  0  0  0  0  0  0  0  0  0  0  0
  184.1810  178.9300  143.5000 C   0  0  0  0  0  0  0  0  0  0  0  0
  184.6940  178.7400  144.7860 C   0  0  0  0  0  3  0  0  0  0  0  0
  185.9450  178.2430  144.9720 N   0  0  0  0  0  0  0  0  0  0  0  0
  184.5210  178.6930  140.9740 C   0  0  2  0  0  3  0  0  0  0  0  0
  183.5280  177.5790  140.6290 C   0  0  0  0  0  2  0  0  0  0  0  0
  186.5640  177.9930  136.5720 C   0  0  0  0  0  3  0  0  0  0  0  0
  185.6620  178.7080  140.0510 N   0  0  0  0  0  0  0  0  0  0  0  0
  184.2190  177.4210  137.0010 C   0  0  0  0  0  3  0  0  0  0  0  0
  184.2910  177.7960  138.2810 C   0  0  0  0  0  0  0  0  0  0  0  0
  183.0900  177.7090  139.1710 C   0  0  0  0  0  2  0  0  0  0  0  0
  185.5600  178.3430  138.8080 C   0  0  0  0  0  0  0  0  0  0  0  0
  185.3980  177.5200  136.1140 C   0  0  0  0  0  3  0  0  0  0  0  0
  186.6920  178.4160  137.9370 N   0  0  0  0  0  2  0  0  0  0  0  0
  188.0940  177.3640  144.1790 C   0  0  0  0  0  0  0  0  0  0  0  0
  188.4020  176.2240  143.7380 O   0  0  0  0  0  0  0  0  0  0  0  0
  189.1020  178.1280  144.9800 C   0  0  0  0  0  2  0  0  0  0  0  0
  190.9500  176.9570  146.2130 C   0  0  0  0  0  0  0  0  0  0  0  0
  191.6930  176.9980  145.1960 O   0  0  0  0  0  0  0  0  0  0  0  0
  189.5640  177.3280  146.1090 N   0  0  0  0  0  0  0  0  0  0  0  0
  191.5450  176.5750  147.5260 C   0  0  0  0  0  2  0  0  0  0  0  0
  192.4610  175.3810  147.3450 C   0  0  0  0  0  1  0  0  0  0  0  0
  188.6160  177.0350  147.1790 C   0  0  0  0  0  2  0  0  0  0  0  0
  188.7870  178.1450  149.2650 F   0  0  0  0  0  0  0  0  0  0  0  0
  186.9270  178.4990  148.0250 O   0  0  0  0  0  1  0  0  0  0  0  0
  188.3050  178.2910  147.9780 C   0  0  2  0  0  3  0  0  0  0  0  0
  182.8770  179.4440  143.4020 O   0  0  0  0  0  0  0  0  0  0  0  0
  181.6950  178.7880  143.8500 C   0  0  0  0  0  2  0  0  0  0  0  0
  179.9080  180.1470  142.7750 C   0  0  0  0  0  1  0  0  0  0  0  0
  180.6270  178.8130  142.7690 C   0  0  0  0  0  2  0  0  0  0  0  0
  1  2  1  0  0  0  0
  2 17  1  0  0  0  0
  2  6  2  0  0  0  0
  3  1  2  0  0  0  0
  3  4  1  0  0  0  0
  4  5  2  0  0  0  0
  5  6  1  0  0  0  0
  7  3  1  1  0  0  0
  8  7  1  0  0  0  0
  9 16  1  0  0  0  0
 10  7  1  0  0  0  0
 11 12  2  0  0  0  0
 12 14  1  0  0  0  0
 12 13  1  0  0  0  0
 13  8  1  0  0  0  0
 14 10  2  0  0  0  0
 15  9  2  0  0  0  0
 15 11  1  0  0  0  0
 16 14  1  0  0  0  0
 17 19  1  0  0  0  0
 18 17  2  0  0  0  0
 19 22  1  0  0  0  0
 20 23  1  0  0  0  0
 21 20  2  0  0  0  0
 22 20  1  0  0  0  0
 22 25  1  0  0  0  0
 24 23  1  0  0  0  0
 25 28  1  0  0  0  0
 28 27  1  1  0  0  0
 28 26  1  0  0  0  0
 29  4  1  0  0  0  0
 29 30  1  0  0  0  0
 32 31  1  0  0  0  0
 32 30  1  0  0  0  0
M  END
>  <MODEL>
6

>  <REMARK>
 VINA RESULT:      -7.9      3.246      6.606
  Name = 
  10 active torsions:
  status: ('A' for Active; 'I' for Inactive)
    1  A    between atoms: C_2  and  C_5
    2  A    between atoms: C_3  and  C_22
    3  A    between atoms: C_4  and  C_24
    4  A    between atoms: C_13  and  O_18
    5  A    between atoms: C_13  and  C_29
    6  A    between atoms: C_14  and  O_18
    7  A    between atoms: C_15  and  N_20
    8  A    between atoms: C_15  and  C_26
    9  A    between atoms: C_16  and  N_20
   10  A    between atoms: C_16  and  C_24
                            x       y       z     vdW  Elec       q    Type
                         _______ _______ _______ _____ _____    ______ ____

>  <TORSDO>
F 10

$$$$
=
 OpenBabel11052414423D

 32 34  0  0  1  0  0  0  0  0999 V2000
  187.1020  177.9500  142.8030 C   0  0  0  0  0  3  0  0  0  0  0  0
  188.2950  177.4940  142.2380 C   0  0  0  0  0  0  0  0  0  0  0  0
  186.1160  178.5350  141.9990 C   0  0  0  0  0  0  0  0  0  0  0  0
  186.3490  178.6620  140.6060 C   0  0  0  0  0  0  0  0  0  0  0  0
  187.5630  178.2020  140.0910 C   0  0  0  0  0  3  0  0  0  0  0  0
  188.4960  177.6350  140.9000 N   0  0  0  0  0  0  0  0  0  0  0  0
  184.8730  179.0450  142.6630 C   0  0  2  0  0  3  0  0  0  0  0  0
  184.7430  178.5030  144.0900 C   0  0  0  0  0  2  0  0  0  0  0  0
  180.0680  178.2420  142.1080 C   0  0  0  0  0  3  0  0  0  0  0  0
  183.6910  178.7280  141.8520 N   0  0  0  0  0  0  0  0  0  0  0  0
  181.0550  178.6260  144.3180 C   0  0  0  0  0  3  0  0  0  0  0  0
  182.2900  178.7400  143.8220 C   0  0  0  0  0  0  0  0  0  0  0  0
  183.4520  179.0200  144.7230 C   0  0  0  0  0  2  0  0  0  0  0  0
  182.5000  178.6300  142.3620 C   0  0  0  0  0  0  0  0  0  0  0  0
  179.9010  178.3640  143.4300 C   0  0  0  0  0  3  0  0  0  0  0  0
  181.3730  178.3620  141.5240 N   0  0  0  0  0  2  0  0  0  0  0  0
  189.3390  176.8800  143.0770 C   0  0  0  0  0  0  0  0  0  0  0  0
  189.3730  175.6280  143.2180 O   0  0  0  0  0  0  0  0  0  0  0  0
  190.3500  177.7190  143.7960 C   0  0  0  0  0  2  0  0  0  0  0  0
  191.3060  176.6530  145.8590 C   0  0  0  0  0  0  0  0  0  0  0  0
  192.0250  175.8850  145.1650 O   0  0  0  0  0  0  0  0  0  0  0  0
  190.2950  177.4600  145.2310 N   0  0  0  0  0  0  0  0  0  0  0  0
  191.5650  176.7520  147.3250 C   0  0  0  0  0  2  0  0  0  0  0  0
  192.4790  175.6230  147.7600 C   0  0  0  0  0  1  0  0  0  0  0  0
  189.2730  178.1450  146.0150 C   0  0  0  0  0  2  0  0  0  0  0  0
  187.1830  177.0470  145.8150 F   0  0  0  0  0  0  0  0  0  0  0  0
  187.9150  177.5630  147.8940 O   0  0  0  0  0  1  0  0  0  0  0  0
  188.3010  177.1440  146.6210 C   0  0  2  0  0  3  0  0  0  0  0  0
  185.4470  179.2390  139.6970 O   0  0  0  0  0  0  0  0  0  0  0  0
  184.9410  178.6120  138.5230 C   0  0  0  0  0  2  0  0  0  0  0  0
  182.8740  177.8530  137.3620 C   0  0  0  0  0  1  0  0  0  0  0  0
  183.4290  178.7460  138.4550 C   0  0  0  0  0  2  0  0  0  0  0  0
  2  1  1  0  0  0  0
  2 17  1  0  0  0  0
  3  1  2  0  0  0  0
  4  3  1  0  0  0  0
  5  4  2  0  0  0  0
  5  6  1  0  0  0  0
  6  2  2  0  0  0  0
  7  3  1  6  0  0  0
  7  8  1  0  0  0  0
  8 13  1  0  0  0  0
  9 15  2  0  0  0  0
 10 14  2  0  0  0  0
 10  7  1  0  0  0  0
 12 11  2  0  0  0  0
 12 13  1  0  0  0  0
 14 12  1  0  0  0  0
 15 11  1  0  0  0  0
 16  9  1  0  0  0  0
 16 14  1  0  0  0  0
 17 18  2  0  0  0  0
 17 19  1  0  0  0  0
 19 22  1  0  0  0  0
 20 23  1  0  0  0  0
 21 20  2  0  0  0  0
 22 20  1  0  0  0  0
 22 25  1  0  0  0  0
 23 24  1  0  0  0  0
 25 28  1  0  0  0  0
 28 26  1  6  0  0  0
 28 27  1  0  0  0  0
 29  4  1  0  0  0  0
 30 29  1  0  0  0  0
 31 32  1  0  0  0  0
 32 30  1  0  0  0  0
M  END
>  <MODEL>
7

>  <REMARK>
 VINA RESULT:      -7.8      2.689      5.921
  Name = 
  10 active torsions:
  status: ('A' for Active; 'I' for Inactive)
    1  A    between atoms: C_2  and  C_5
    2  A    between atoms: C_3  and  C_22
    3  A    between atoms: C_4  and  C_24
    4  A    between atoms: C_13  and  O_18
    5  A    between atoms: C_13  and  C_29
    6  A    between atoms: C_14  and  O_18
    7  A    between atoms: C_15  and  N_20
    8  A    between atoms: C_15  and  C_26
    9  A    between atoms: C_16  and  N_20
   10  A    between atoms: C_16  and  C_24
                            x       y       z     vdW  Elec       q    Type
                         _______ _______ _______ _____ _____    ______ ____

>  <TORSDO>
F 10

$$$$
=
 OpenBabel11052414423D

 32 34  0  0  1  0  0  0  0  0999 V2000
  188.4220  177.8630  140.3630 C   0  0  0  0  0  3  0  0  0  0  0  0
  189.4290  177.9220  139.3970 C   0  0  0  0  0  0  0  0  0  0  0  0
  188.6760  177.2950  141.6170 C   0  0  0  0  0  0  0  0  0  0  0  0
  189.9680  176.7780  141.8900 C   0  0  0  0  0  0  0  0  0  0  0  0
  190.9380  176.8500  140.8860 C   0  0  0  0  0  3  0  0  0  0  0  0
  190.6570  177.4120  139.6820 N   0  0  0  0  0  0  0  0  0  0  0  0
  187.5490  177.2190  142.6010 C   0  0  2  0  0  3  0  0  0  0  0  0
  186.4820  178.2780  142.3070 C   0  0  0  0  0  2  0  0  0  0  0  0
  187.0250  178.2700  147.3620 C   0  0  0  0  0  3  0  0  0  0  0  0
  188.0570  177.3280  143.9740 N   0  0  0  0  0  0  0  0  0  0  0  0
  185.2130  178.6580  145.7580 C   0  0  0  0  0  3  0  0  0  0  0  0
  185.9430  178.2270  144.7250 C   0  0  0  0  0  0  0  0  0  0  0  0
  185.3640  178.1890  143.3450 C   0  0  0  0  0  2  0  0  0  0  0  0
  187.3210  177.7440  144.9610 C   0  0  0  0  0  0  0  0  0  0  0  0
  185.7740  178.6840  147.1260 C   0  0  0  0  0  3  0  0  0  0  0  0
  187.8490  177.7920  146.2890 N   0  0  0  0  0  2  0  0  0  0  0  0
  189.1680  178.5150  138.0730 C   0  0  0  0  0  0  0  0  0  0  0  0
  189.0480  179.7640  137.9590 O   0  0  0  0  0  0  0  0  0  0  0  0
  189.0120  177.6570  136.8560 C   0  0  0  0  0  2  0  0  0  0  0  0
  186.6090  176.9530  137.0500 C   0  0  0  0  0  0  0  0  0  0  0  0
  186.2370  178.1510  137.1700 O   0  0  0  0  0  0  0  0  0  0  0  0
  188.0090  176.6240  137.0900 N   0  0  0  0  0  0  0  0  0  0  0  0
  185.5800  175.9000  136.8070 C   0  0  0  0  0  2  0  0  0  0  0  0
  184.2410  176.3580  137.3510 C   0  0  0  0  0  1  0  0  0  0  0  0
  188.4610  175.2440  137.2300 C   0  0  0  0  0  2  0  0  0  0  0  0
  190.1050  174.4090  135.7420 F   0  0  0  0  0  0  0  0  0  0  0  0
  190.6090  174.4790  137.9480 O   0  0  0  0  0  1  0  0  0  0  0  0
  189.9440  175.1300  136.9090 C   0  0  2  0  0  3  0  0  0  0  0  0
  190.3460  176.1750  143.1020 O   0  0  0  0  0  0  0  0  0  0  0  0
  191.5420  176.4490  143.8230 C   0  0  0  0  0  2  0  0  0  0  0  0
  191.6820  178.9300  143.9710 C   0  0  0  0  0  1  0  0  0  0  0  0
  191.3560  177.6570  144.7260 C   0  0  0  0  0  2  0  0  0  0  0  0
  1  3  1  0  0  0  0
  2  6  1  0  0  0  0
  2  1  2  0  0  0  0
  3  4  2  0  0  0  0
  4 29  1  0  0  0  0
  5  4  1  0  0  0  0
  6  5  2  0  0  0  0
  7  3  1  6  0  0  0
  7 10  1  0  0  0  0
  8  7  1  0  0  0  0
  8 13  1  0  0  0  0
 10 14  2  0  0  0  0
 11 15  1  0  0  0  0
 12 14  1  0  0  0  0
 12 11  2  0  0  0  0
 13 12  1  0  0  0  0
 14 16  1  0  0  0  0
 15  9  2  0  0  0  0
 16  9  1  0  0  0  0
 17  2  1  0  0  0  0
 18 17  2  0  0  0  0
 19 22  1  0  0  0  0
 19 17  1  0  0  0  0
 20 22  1  0  0  0  0
 20 21  2  0  0  0  0
 22 25  1  0  0  0  0
 23 20  1  0  0  0  0
 23 24  1  0  0  0  0
 28 26  1  6  0  0  0
 28 25  1  0  0  0  0
 28 27  1  0  0  0  0
 29 30  1  0  0  0  0
 30 32  1  0  0  0  0
 31 32  1  0  0  0  0
M  END
>  <MODEL>
8

>  <REMARK>
 VINA RESULT:      -7.8      2.613      5.546
  Name = 
  10 active torsions:
  status: ('A' for Active; 'I' for Inactive)
    1  A    between atoms: C_2  and  C_5
    2  A    between atoms: C_3  and  C_22
    3  A    between atoms: C_4  and  C_24
    4  A    between atoms: C_13  and  O_18
    5  A    between atoms: C_13  and  C_29
    6  A    between atoms: C_14  and  O_18
    7  A    between atoms: C_15  and  N_20
    8  A    between atoms: C_15  and  C_26
    9  A    between atoms: C_16  and  N_20
   10  A    between atoms: C_16  and  C_24
                            x       y       z     vdW  Elec       q    Type
                         _______ _______ _______ _____ _____    ______ ____

>  <TORSDO>
F 10

$$$$
=
 OpenBabel11052414423D

 32 34  0  0  1  0  0  0  0  0999 V2000
  188.3780  177.7370  141.5340 C   0  0  0  0  0  3  0  0  0  0  0  0
  188.0800  178.2650  140.2760 C   0  0  0  0  0  0  0  0  0  0  0  0
  187.3910  177.6640  142.5240 C   0  0  0  0  0  0  0  0  0  0  0  0
  186.0870  178.1380  142.2330 C   0  0  0  0  0  0  0  0  0  0  0  0
  185.8410  178.6690  140.9640 C   0  0  0  0  0  3  0  0  0  0  0  0
  186.8230  178.7200  140.0260 N   0  0  0  0  0  0  0  0  0  0  0  0
  187.7760  177.1260  143.8690 C   0  0  2  0  0  3  0  0  0  0  0  0
  187.4000  178.1040  144.9870 C   0  0  0  0  0  2  0  0  0  0  0  0
  192.0140  176.3540  146.2110 C   0  0  0  0  0  3  0  0  0  0  0  0
  189.2050  176.7910  143.8990 N   0  0  0  0  0  0  0  0  0  0  0  0
  190.0070  177.0980  147.4060 C   0  0  0  0  0  3  0  0  0  0  0  0
  189.2750  177.1410  146.2900 C   0  0  0  0  0  0  0  0  0  0  0  0
  187.8320  177.5370  146.3380 C   0  0  0  0  0  2  0  0  0  0  0  0
  189.8900  176.7500  145.0020 C   0  0  0  0  0  0  0  0  0  0  0  0
  191.4290  176.6930  147.3670 C   0  0  0  0  0  3  0  0  0  0  0  0
  191.2700  176.3760  144.9850 N   0  0  0  0  0  2  0  0  0  0  0  0
  189.1140  178.3490  139.2300 C   0  0  0  0  0  0  0  0  0  0  0  0
  189.0600  179.2670  138.3690 O   0  0  0  0  0  0  0  0  0  0  0  0
  190.2190  177.3410  139.1480 C   0  0  0  0  0  2  0  0  0  0  0  0
  191.0900  175.8480  137.3260 C   0  0  0  0  0  0  0  0  0  0  0  0
  192.2270  176.3870  137.3890 O   0  0  0  0  0  0  0  0  0  0  0  0
  189.9810  176.4180  138.0440 N   0  0  0  0  0  0  0  0  0  0  0  0
  190.9320  174.5850  136.5480 C   0  0  0  0  0  2  0  0  0  0  0  0
  192.2510  173.8390  136.5110 C   0  0  0  0  0  1  0  0  0  0  0  0
  188.6090  175.9950  137.7840 C   0  0  0  0  0  2  0  0  0  0  0  0
  187.4690  177.5970  136.4630 F   0  0  0  0  0  0  0  0  0  0  0  0
  187.3610  175.4270  135.8260 O   0  0  0  0  0  1  0  0  0  0  0  0
  188.1750  176.4110  136.3880 C   0  0  2  0  0  3  0  0  0  0  0  0
  185.0150  178.1310  143.1410 O   0  0  0  0  0  0  0  0  0  0  0  0
  183.8340  178.9190  143.0320 C   0  0  0  0  0  2  0  0  0  0  0  0
  183.8730  178.9100  145.5210 C   0  0  0  0  0  1  0  0  0  0  0  0
  182.9930  178.7980  144.2920 C   0  0  0  0  0  2  0  0  0  0  0  0
  1  3  1  0  0  0  0
  2  1  2  0  0  0  0
  4  3  2  0  0  0  0
  4 29  1  0  0  0  0
  5  4  1  0  0  0  0
  6  2  1  0  0  0  0
  6  5  2  0  0  0  0
  7  3  1  6  0  0  0
  7 10  1  0  0  0  0
  7  8  1  0  0  0  0
  8 13  1  0  0  0  0
  9 15  2  0  0  0  0
 10 14  2  0  0  0  0
 12 13  1  0  0  0  0
 12 11  2  0  0  0  0
 14 12  1  0  0  0  0
 15 11  1  0  0  0  0
 16 14  1  0  0  0  0
 16  9  1  0  0  0  0
 17  2  1  0  0  0  0
 18 17  2  0  0  0  0
 19 17  1  0  0  0  0
 20 21  2  0  0  0  0
 20 22  1  0  0  0  0
 22 19  1  0  0  0  0
 23 20  1  0  0  0  0
 24 23  1  0  0  0  0
 25 22  1  0  0  0  0
 28 27  1  1  0  0  0
 28 26  1  0  0  0  0
 28 25  1  0  0  0  0
 30 29  1  0  0  0  0
 30 32  1  0  0  0  0
 32 31  1  0  0  0  0
M  END
>  <MODEL>
9

>  <REMARK>
 VINA RESULT:      -7.6      2.164      3.381
  Name = 
  10 active torsions:
  status: ('A' for Active; 'I' for Inactive)
    1  A    between atoms: C_2  and  C_5
    2  A    between atoms: C_3  and  C_22
    3  A    between atoms: C_4  and  C_24
    4  A    between atoms: C_13  and  O_18
    5  A    between atoms: C_13  and  C_29
    6  A    between atoms: C_14  and  O_18
    7  A    between atoms: C_15  and  N_20
    8  A    between atoms: C_15  and  C_26
    9  A    between atoms: C_16  and  N_20
   10  A    between atoms: C_16  and  C_24
                            x       y       z     vdW  Elec       q    Type
                         _______ _______ _______ _____ _____    ______ ____

>  <TORSDO>
F 10

$$$$
