=
 OpenBabel11052416483D

 32 37  0  0  1  0  0  0  0  0999 V2000
  182.2310  178.4940  144.3310 C   0  0  0  0  0  2  0  0  0  0  0  0
  187.0740  177.9490  142.8400 C   0  0  0  0  0  0  0  0  0  0  0  0
  189.2010  176.7100  147.0630 O   0  0  0  0  0  0  0  0  0  0  0  0
  190.4540  177.1890  146.6450 C   0  0  0  0  0  2  0  0  0  0  0  0
  188.3200  177.6800  140.6770 C   0  0  0  0  0  0  0  0  0  0  0  0
  189.5020  177.3910  140.1370 C   0  0  0  0  0  0  0  0  0  0  0  0
  184.7090  178.5640  142.8450 C   0  0  0  0  0  0  0  0  0  0  0  0
  185.8410  178.2260  144.9880 C   0  0  0  0  0  3  0  0  0  0  0  0
  191.8010  176.8090  139.9950 C   0  0  1  0  0  3  0  0  0  0  0  0
  183.4910  178.9120  145.0900 C   0  0  0  0  0  2  0  0  0  0  0  0
  188.2450  177.5990  146.5380 C   0  0  0  0  0  2  0  0  0  0  0  0
  187.0580  177.9120  144.2850 N   0  0  0  0  0  0  0  0  0  0  0  0
  188.2420  177.5690  145.0250 C   0  0  0  0  0  0  0  0  0  0  0  0
  189.4130  177.3390  142.9330 N   0  0  0  0  0  0  0  0  0  0  0  0
  191.1710  176.9820  138.5920 C   0  0  0  0  0  2  0  0  0  0  0  0
  183.4420  178.8980  142.1730 C   0  0  0  0  0  0  0  0  0  0  0  0
  184.7200  178.5210  144.3270 C   0  0  0  0  0  0  0  0  0  0  0  0
  189.8010  177.3410  138.7930 O   0  0  0  0  0  0  0  0  0  0  0  0
  183.4060  179.0960  140.9270 O   0  0  0  0  0  0  0  0  0  0  0  0
  182.2500  179.0180  142.9660 N   0  0  0  0  0  0  0  0  0  0  0  0
  190.6290  176.9190  145.1490 C   0  0  0  0  0  2  0  0  0  0  0  0
  189.3910  177.3110  144.3740 C   0  0  0  0  0  0  0  0  0  0  0  0
  190.6430  177.0430  142.2380 C   0  0  0  0  0  3  0  0  0  0  0  0
  185.8160  178.2960  142.1470 C   0  0  0  0  0  3  0  0  0  0  0  0
  187.2420  177.9740  139.8470 O   0  0  0  0  0  1  0  0  0  0  0  0
  192.7930  177.7730  140.1780 O   0  0  0  0  0  1  0  0  0  0  0  0
  188.2150  177.6700  142.1740 C   0  0  0  0  0  0  0  0  0  0  0  0
  190.6640  177.0780  140.9090 C   0  0  0  0  0  0  0  0  0  0  0  0
  181.0290  179.5830  142.4070 C   0  0  0  0  0  2  0  0  0  0  0  0
  180.0510  178.5010  142.1030 C   0  0  0  0  0  0  0  0  0  0  0  0
  178.9310  178.3320  142.9050 O   0  0  0  0  0  1  0  0  0  0  0  0
  180.2210  177.7640  141.0980 O   0  0  0  0  0  0  0  0  0  0  0  0
  1 10  1  0  0  0  0
  2 12  1  0  0  0  0
  4  3  1  0  0  0  0
  5 27  1  0  0  0  0
  6  5  2  0  0  0  0
  6 28  1  0  0  0  0
  7 17  1  0  0  0  0
  9 26  1  1  0  0  0
  9 28  1  0  0  0  0
 11  3  1  0  0  0  0
 12  8  1  0  0  0  0
 12 13  1  0  0  0  0
 13 11  1  0  0  0  0
 14 22  1  0  0  0  0
 15 18  1  0  0  0  0
 15  9  1  0  0  0  0
 16  7  1  0  0  0  0
 16 20  1  0  0  0  0
 17  8  2  0  0  0  0
 17 10  1  0  0  0  0
 18  6  1  0  0  0  0
 19 16  2  0  0  0  0
 20  1  1  0  0  0  0
 21  4  1  0  0  0  0
 22 13  2  0  0  0  0
 22 21  1  0  0  0  0
 23 14  1  0  0  0  0
 24  2  1  0  0  0  0
 24  7  2  0  0  0  0
 25  5  1  0  0  0  0
 27  2  2  0  0  0  0
 27 14  1  0  0  0  0
 28 23  2  0  0  0  0
 29 20  1  0  0  0  0
 30 29  1  0  0  0  0
 30 31  1  0  0  0  0
 32 30  2  0  0  0  0
M  END
>  <MODEL>
1

>  <REMARK>
 VINA RESULT:      -9.9      0.000      0.000
  Name = 
  2 active torsions:
  status: ('A' for Active; 'I' for Inactive)
    1  A    between atoms: C_1  and  C_10
    2  A    between atoms: C_10  and  N_24
                            x       y       z     vdW  Elec       q    Type
                         _______ _______ _______ _____ _____    ______ ____

>  <TORSDO>
F 2

$$$$
=
 OpenBabel11052416483D

 32 37  0  0  1  0  0  0  0  0999 V2000
  181.9520  179.6160  140.2090 C   0  0  0  0  0  2  0  0  0  0  0  0
  185.8750  178.2800  143.1750 C   0  0  0  0  0  0  0  0  0  0  0  0
  189.5400  178.3630  139.9410 O   0  0  0  0  0  0  0  0  0  0  0  0
  190.3040  177.4500  140.6880 C   0  0  0  0  0  2  0  0  0  0  0  0
  186.3690  178.1450  145.6330 C   0  0  0  0  0  0  0  0  0  0  0  0
  187.3310  177.9710  146.5360 C   0  0  0  0  0  0  0  0  0  0  0  0
  183.5940  178.6490  142.3820 C   0  0  0  0  0  0  0  0  0  0  0  0
  185.3860  178.4030  140.7340 C   0  0  0  0  0  3  0  0  0  0  0  0
  189.5000  177.6050  147.4350 C   0  0  1  0  0  3  0  0  0  0  0  0
  183.1200  178.6970  139.8480 C   0  0  0  0  0  2  0  0  0  0  0  0
  188.2010  177.9510  140.0670 C   0  0  0  0  0  2  0  0  0  0  0  0
  186.3360  178.2470  141.8040 N   0  0  0  0  0  0  0  0  0  0  0  0
  187.7290  178.0570  141.5010 C   0  0  0  0  0  0  0  0  0  0  0  0
  188.1640  177.9120  143.8650 N   0  0  0  0  0  0  0  0  0  0  0  0
  188.4410  177.7670  148.5520 C   0  0  0  0  0  2  0  0  0  0  0  0
  182.1540  178.8770  142.5960 C   0  0  0  0  0  0  0  0  0  0  0  0
  184.0920  178.6090  140.9870 C   0  0  0  0  0  0  0  0  0  0  0  0
  187.1820  177.9680  147.9050 O   0  0  0  0  0  0  0  0  0  0  0  0
  181.6500  178.7720  143.7480 O   0  0  0  0  0  0  0  0  0  0  0  0
  181.3300  179.1960  141.4640 N   0  0  0  0  0  0  0  0  0  0  0  0
  190.0840  177.7050  142.1810 C   0  0  0  0  0  2  0  0  0  0  0  0
  188.6140  177.8730  142.4970 C   0  0  0  0  0  0  0  0  0  0  0  0
  189.1220  177.7340  144.9300 C   0  0  0  0  0  3  0  0  0  0  0  0
  184.4330  178.4930  143.4100 C   0  0  0  0  0  3  0  0  0  0  0  0
  185.0590  178.3430  146.0580 O   0  0  0  0  0  1  0  0  0  0  0  0
  190.0410  176.3210  147.4920 O   0  0  0  0  0  1  0  0  0  0  0  0
  186.7580  178.1200  144.1840 C   0  0  0  0  0  0  0  0  0  0  0  0
  188.7030  177.7610  146.1920 C   0  0  0  0  0  0  0  0  0  0  0  0
  179.8770  179.1880  141.5660 C   0  0  0  0  0  2  0  0  0  0  0  0
  179.3320  177.8900  141.0760 C   0  0  0  0  0  0  0  0  0  0  0  0
  178.9310  177.7600  139.7540 O   0  0  0  0  0  0  0  0  0  0  0  0
  179.2700  176.9010  141.8520 O   0  0  0  0  0  1  0  0  0  0  0  0
  1 20  1  0  0  0  0
  2 24  1  0  0  0  0
  2 27  2  0  0  0  0
  3 11  1  0  0  0  0
  3  4  1  0  0  0  0
  4 21  1  0  0  0  0
  5 25  1  0  0  0  0
  5  6  2  0  0  0  0
  6 18  1  0  0  0  0
  7 16  1  0  0  0  0
  7 24  2  0  0  0  0
  8 17  2  0  0  0  0
  8 12  1  0  0  0  0
  9 26  1  6  0  0  0
  9 15  1  0  0  0  0
 10  1  1  0  0  0  0
 10 17  1  0  0  0  0
 11 13  1  0  0  0  0
 12  2  1  0  0  0  0
 13 12  1  0  0  0  0
 13 22  2  0  0  0  0
 14 27  1  0  0  0  0
 14 23  1  0  0  0  0
 16 19  2  0  0  0  0
 17  7  1  0  0  0  0
 18 15  1  0  0  0  0
 20 29  1  0  0  0  0
 20 16  1  0  0  0  0
 21 22  1  0  0  0  0
 22 14  1  0  0  0  0
 23 28  2  0  0  0  0
 27  5  1  0  0  0  0
 28  6  1  0  0  0  0
 28  9  1  0  0  0  0
 30 29  1  0  0  0  0
 30 32  1  0  0  0  0
 31 30  2  0  0  0  0
M  END
>  <MODEL>
2

>  <REMARK>
 VINA RESULT:      -9.7      1.677      4.911
  Name = 
  2 active torsions:
  status: ('A' for Active; 'I' for Inactive)
    1  A    between atoms: C_1  and  C_10
    2  A    between atoms: C_10  and  N_24
                            x       y       z     vdW  Elec       q    Type
                         _______ _______ _______ _____ _____    ______ ____

>  <TORSDO>
F 2

$$$$
=
 OpenBabel11052416483D

 32 37  0  0  1  0  0  0  0  0999 V2000
  187.1310  177.6880  137.3490 C   0  0  0  0  0  2  0  0  0  0  0  0
  187.7290  177.9000  142.4060 C   0  0  0  0  0  0  0  0  0  0  0  0
  183.0970  178.4760  143.8550 O   0  0  0  0  0  0  0  0  0  0  0  0
  183.4830  179.0970  145.0550 C   0  0  0  0  0  2  0  0  0  0  0  0
  189.5090  177.3210  144.0800 C   0  0  0  0  0  0  0  0  0  0  0  0
  189.7690  177.1770  145.3770 C   0  0  0  0  0  0  0  0  0  0  0  0
  188.2280  177.9110  140.0140 C   0  0  0  0  0  0  0  0  0  0  0  0
  185.9650  178.4860  140.7470 C   0  0  0  0  0  3  0  0  0  0  0  0
  189.4180  177.1410  147.7270 C   0  0  1  0  0  3  0  0  0  0  0  0
  186.3930  178.5940  138.3360 C   0  0  0  0  0  2  0  0  0  0  0  0
  184.0000  178.9230  142.8740 C   0  0  0  0  0  2  0  0  0  0  0  0
  186.3650  178.2800  142.1140 N   0  0  0  0  0  0  0  0  0  0  0  0
  185.4080  178.4570  143.1730 C   0  0  0  0  0  0  0  0  0  0  0  0
  187.1440  177.9160  144.7530 N   0  0  0  0  0  0  0  0  0  0  0  0
  190.8690  176.7460  147.3630 C   0  0  0  0  0  2  0  0  0  0  0  0
  189.1290  177.7260  138.8640 C   0  0  0  0  0  0  0  0  0  0  0  0
  186.8240  178.3030  139.7420 C   0  0  0  0  0  0  0  0  0  0  0  0
  190.9730  176.8120  145.9380 O   0  0  0  0  0  0  0  0  0  0  0  0
  190.3650  177.5410  139.0370 O   0  0  0  0  0  0  0  0  0  0  0  0
  188.5770  177.7850  137.5390 N   0  0  0  0  0  0  0  0  0  0  0  0
  184.7740  178.4560  145.5670 C   0  0  0  0  0  2  0  0  0  0  0  0
  185.7880  178.3010  144.4540 C   0  0  0  0  0  0  0  0  0  0  0  0
  187.5400  177.7320  146.1290 C   0  0  0  0  0  3  0  0  0  0  0  0
  188.6530  177.7230  141.2670 C   0  0  0  0  0  3  0  0  0  0  0  0
  190.5200  177.0980  143.1500 O   0  0  0  0  0  1  0  0  0  0  0  0
  189.4320  178.3220  148.4680 O   0  0  0  0  0  1  0  0  0  0  0  0
  188.1160  177.7190  143.6870 C   0  0  0  0  0  0  0  0  0  0  0  0
  188.7940  177.3850  146.4020 C   0  0  0  0  0  0  0  0  0  0  0  0
  189.4410  177.8580  136.3680 C   0  0  0  0  0  2  0  0  0  0  0  0
  189.6070  176.5060  135.7620 C   0  0  0  0  0  0  0  0  0  0  0  0
  190.4790  175.5910  136.3340 O   0  0  0  0  0  1  0  0  0  0  0  0
  188.9280  176.1820  134.7540 O   0  0  0  0  0  0  0  0  0  0  0  0
  1 20  1  0  0  0  0
  1 10  1  0  0  0  0
  2 27  2  0  0  0  0
  3  4  1  0  0  0  0
  4 21  1  0  0  0  0
  5  6  2  0  0  0  0
  6 18  1  0  0  0  0
  6 28  1  0  0  0  0
  7 24  2  0  0  0  0
  8 12  1  0  0  0  0
  9 26  1  1  0  0  0
 10 17  1  0  0  0  0
 11 13  1  0  0  0  0
 11  3  1  0  0  0  0
 12  2  1  0  0  0  0
 12 13  1  0  0  0  0
 13 22  2  0  0  0  0
 14 23  1  0  0  0  0
 15  9  1  0  0  0  0
 16 19  2  0  0  0  0
 16  7  1  0  0  0  0
 17  7  1  0  0  0  0
 17  8  2  0  0  0  0
 18 15  1  0  0  0  0
 20 16  1  0  0  0  0
 22 14  1  0  0  0  0
 22 21  1  0  0  0  0
 23 28  2  0  0  0  0
 24  2  1  0  0  0  0
 25  5  1  0  0  0  0
 27  5  1  0  0  0  0
 27 14  1  0  0  0  0
 28  9  1  0  0  0  0
 29 20  1  0  0  0  0
 30 31  1  0  0  0  0
 30 29  1  0  0  0  0
 32 30  2  0  0  0  0
M  END
>  <MODEL>
3

>  <REMARK>
 VINA RESULT:      -9.7      2.216      6.928
  Name = 
  2 active torsions:
  status: ('A' for Active; 'I' for Inactive)
    1  A    between atoms: C_1  and  C_10
    2  A    between atoms: C_10  and  N_24
                            x       y       z     vdW  Elec       q    Type
                         _______ _______ _______ _____ _____    ______ ____

>  <TORSDO>
F 2

$$$$
=
 OpenBabel11052416483D

 32 37  0  0  1  0  0  0  0  0999 V2000
  191.8910  177.5030  140.4830 C   0  0  0  0  0  2  0  0  0  0  0  0
  187.2740  177.9230  142.5980 C   0  0  0  0  0  0  0  0  0  0  0  0
  188.4580  178.2590  147.3280 O   0  0  0  0  0  0  0  0  0  0  0  0
  187.2100  177.7640  147.7410 C   0  0  0  0  0  2  0  0  0  0  0  0
  184.9400  178.4610  141.8440 C   0  0  0  0  0  0  0  0  0  0  0  0
  183.7080  178.7470  142.2570 C   0  0  0  0  0  0  0  0  0  0  0  0
  189.0420  177.4990  140.9660 C   0  0  0  0  0  0  0  0  0  0  0  0
  189.5870  177.3790  143.3490 C   0  0  0  0  0  3  0  0  0  0  0  0
  181.8990  179.1680  143.7400 C   0  0  1  0  0  3  0  0  0  0  0  0
  191.4040  176.8670  141.7850 C   0  0  0  0  0  2  0  0  0  0  0  0
  188.7970  177.5470  146.1630 C   0  0  0  0  0  2  0  0  0  0  0  0
  188.2240  177.7150  143.6680 N   0  0  0  0  0  0  0  0  0  0  0  0
  187.8210  177.8350  145.0430 C   0  0  0  0  0  0  0  0  0  0  0  0
  185.5890  178.3280  144.2860 N   0  0  0  0  0  0  0  0  0  0  0  0
  181.4610  179.2850  142.2600 C   0  0  0  0  0  2  0  0  0  0  0  0
  189.5520  177.3810  139.5890 C   0  0  0  0  0  0  0  0  0  0  0  0
  189.9950  177.2870  142.0810 C   0  0  0  0  0  0  0  0  0  0  0  0
  182.6130  179.0030  141.4620 O   0  0  0  0  0  0  0  0  0  0  0  0
  188.7610  177.4020  138.6060 O   0  0  0  0  0  0  0  0  0  0  0  0
  190.9650  177.2190  139.3880 N   0  0  0  0  0  0  0  0  0  0  0  0
  186.1220  178.2710  146.7920 C   0  0  0  0  0  2  0  0  0  0  0  0
  186.5400  178.1120  145.3460 C   0  0  0  0  0  0  0  0  0  0  0  0
  184.2200  178.6440  144.6170 C   0  0  0  0  0  3  0  0  0  0  0  0
  187.7620  177.7960  141.2100 C   0  0  0  0  0  3  0  0  0  0  0  0
  185.2070  178.3960  140.4800 O   0  0  0  0  0  1  0  0  0  0  0  0
  181.2120  178.1150  144.3440 O   0  0  0  0  0  1  0  0  0  0  0  0
  185.9900  178.2240  142.8900 C   0  0  0  0  0  0  0  0  0  0  0  0
  183.3420  178.8340  143.6370 C   0  0  0  0  0  0  0  0  0  0  0  0
  191.5010  176.8520  138.0840 C   0  0  0  0  0  2  0  0  0  0  0  0
  191.7310  175.3800  138.0150 C   0  0  0  0  0  0  0  0  0  0  0  0
  190.6510  174.5100  137.9680 O   0  0  0  0  0  1  0  0  0  0  0  0
  192.9040  174.9300  137.9630 O   0  0  0  0  0  0  0  0  0  0  0  0
  1 10  1  0  0  0  0
  2 27  2  0  0  0  0
  2 12  1  0  0  0  0
  3  4  1  0  0  0  0
  5  6  2  0  0  0  0
  5 27  1  0  0  0  0
  6 28  1  0  0  0  0
  7 24  2  0  0  0  0
  7 17  1  0  0  0  0
  8 12  1  0  0  0  0
  9 26  1  6  0  0  0
 10 17  1  0  0  0  0
 11  3  1  0  0  0  0
 12 13  1  0  0  0  0
 13 22  2  0  0  0  0
 13 11  1  0  0  0  0
 14 23  1  0  0  0  0
 14 22  1  0  0  0  0
 15  9  1  0  0  0  0
 16  7  1  0  0  0  0
 17  8  2  0  0  0  0
 18  6  1  0  0  0  0
 18 15  1  0  0  0  0
 19 16  2  0  0  0  0
 20 16  1  0  0  0  0
 20  1  1  0  0  0  0
 21  4  1  0  0  0  0
 22 21  1  0  0  0  0
 24  2  1  0  0  0  0
 25  5  1  0  0  0  0
 27 14  1  0  0  0  0
 28  9  1  0  0  0  0
 28 23  2  0  0  0  0
 29 20  1  0  0  0  0
 30 29  1  0  0  0  0
 31 30  1  0  0  0  0
 32 30  2  0  0  0  0
M  END
>  <MODEL>
4

>  <REMARK>
 VINA RESULT:      -9.4      1.565      7.473
  Name = 
  2 active torsions:
  status: ('A' for Active; 'I' for Inactive)
    1  A    between atoms: C_1  and  C_10
    2  A    between atoms: C_10  and  N_24
                            x       y       z     vdW  Elec       q    Type
                         _______ _______ _______ _____ _____    ______ ____

>  <TORSDO>
F 2

$$$$
=
 OpenBabel11052416483D

 32 37  0  0  1  0  0  0  0  0999 V2000
  180.7020  178.5690  142.6290 C   0  0  0  0  0  2  0  0  0  0  0  0
  185.7800  178.2490  142.9140 C   0  0  0  0  0  0  0  0  0  0  0  0
  186.3880  177.5580  147.7140 O   0  0  0  0  0  0  0  0  0  0  0  0
  187.6890  178.0880  147.6900 C   0  0  0  0  0  2  0  0  0  0  0  0
  187.6980  177.8770  141.3370 C   0  0  0  0  0  0  0  0  0  0  0  0
  189.0030  177.6270  141.2590 C   0  0  0  0  0  0  0  0  0  0  0  0
  183.5330  178.6860  142.0600 C   0  0  0  0  0  0  0  0  0  0  0  0
  183.8810  178.6290  144.4810 C   0  0  0  0  0  3  0  0  0  0  0  0
  191.2340  177.2060  141.9590 C   0  0  1  0  0  3  0  0  0  0  0  0
  181.6110  179.1460  143.7150 C   0  0  0  0  0  2  0  0  0  0  0  0
  185.6350  178.3230  146.8060 C   0  0  0  0  0  2  0  0  0  0  0  0
  185.2750  178.3420  144.2650 N   0  0  0  0  0  0  0  0  0  0  0  0
  186.1490  178.1560  145.3920 C   0  0  0  0  0  0  0  0  0  0  0  0
  187.9690  177.8240  143.8510 N   0  0  0  0  0  0  0  0  0  0  0  0
  191.1130  177.2040  140.4170 C   0  0  0  0  0  2  0  0  0  0  0  0
  182.5590  178.8640  140.9700 C   0  0  0  0  0  0  0  0  0  0  0  0
  183.0410  178.7790  143.4550 C   0  0  0  0  0  0  0  0  0  0  0  0
  189.7440  177.4770  140.1070 O   0  0  0  0  0  0  0  0  0  0  0  0
  182.9420  178.9440  139.7700 O   0  0  0  0  0  0  0  0  0  0  0  0
  181.1650  178.9680  141.3000 N   0  0  0  0  0  0  0  0  0  0  0  0
  188.3740  177.6970  146.3790 C   0  0  0  0  0  2  0  0  0  0  0  0
  187.4590  177.9250  145.1950 C   0  0  0  0  0  0  0  0  0  0  0  0
  189.3730  177.5560  143.6460 C   0  0  0  0  0  3  0  0  0  0  0  0
  184.8220  178.4380  141.8060 C   0  0  0  0  0  3  0  0  0  0  0  0
  186.9560  178.0140  140.1670 O   0  0  0  0  0  1  0  0  0  0  0  0
  192.0660  178.2520  142.3560 O   0  0  0  0  0  1  0  0  0  0  0  0
  187.0900  177.9950  142.7030 C   0  0  0  0  0  0  0  0  0  0  0  0
  189.8440  177.4720  142.4050 C   0  0  0  0  0  0  0  0  0  0  0  0
  180.1870  179.3890  140.3060 C   0  0  0  0  0  2  0  0  0  0  0  0
  180.0430  180.8720  140.3180 C   0  0  0  0  0  0  0  0  0  0  0  0
  180.5330  181.6260  139.2600 O   0  0  0  0  0  0  0  0  0  0  0  0
  179.4460  181.4380  141.2690 O   0  0  0  0  0  1  0  0  0  0  0  0
  1 10  1  0  0  0  0
  2 12  1  0  0  0  0
  4  3  1  0  0  0  0
  5 27  1  0  0  0  0
  6  5  2  0  0  0  0
  6 28  1  0  0  0  0
  7 17  1  0  0  0  0
  9 26  1  6  0  0  0
  9 28  1  0  0  0  0
 11  3  1  0  0  0  0
 12  8  1  0  0  0  0
 12 13  1  0  0  0  0
 13 11  1  0  0  0  0
 14 22  1  0  0  0  0
 15  9  1  0  0  0  0
 16 20  1  0  0  0  0
 16  7  1  0  0  0  0
 17 10  1  0  0  0  0
 17  8  2  0  0  0  0
 18 15  1  0  0  0  0
 18  6  1  0  0  0  0
 19 16  2  0  0  0  0
 20  1  1  0  0  0  0
 21  4  1  0  0  0  0
 22 13  2  0  0  0  0
 22 21  1  0  0  0  0
 23 14  1  0  0  0  0
 24  7  2  0  0  0  0
 24  2  1  0  0  0  0
 25  5  1  0  0  0  0
 27  2  2  0  0  0  0
 27 14  1  0  0  0  0
 28 23  2  0  0  0  0
 29 30  1  0  0  0  0
 29 20  1  0  0  0  0
 30 32  1  0  0  0  0
 31 30  2  0  0  0  0
M  END
>  <MODEL>
5

>  <REMARK>
 VINA RESULT:      -9.2      1.638      2.248
  Name = 
  2 active torsions:
  status: ('A' for Active; 'I' for Inactive)
    1  A    between atoms: C_1  and  C_10
    2  A    between atoms: C_10  and  N_24
                            x       y       z     vdW  Elec       q    Type
                         _______ _______ _______ _____ _____    ______ ____

>  <TORSDO>
F 2

$$$$
=
 OpenBabel11052416483D

 32 37  0  0  1  0  0  0  0  0999 V2000
  190.5560  177.2660  147.7180 C   0  0  0  0  0  2  0  0  0  0  0  0
  187.6900  177.7540  143.5320 C   0  0  0  0  0  0  0  0  0  0  0  0
  183.5050  179.3760  145.4690 O   0  0  0  0  0  0  0  0  0  0  0  0
  182.7440  178.8820  144.3960 C   0  0  0  0  0  2  0  0  0  0  0  0
  188.0510  177.8580  141.0500 C   0  0  0  0  0  0  0  0  0  0  0  0
  187.4700  178.1180  139.8810 C   0  0  0  0  0  0  0  0  0  0  0  0
  189.5100  177.1070  145.0280 C   0  0  0  0  0  0  0  0  0  0  0  0
  187.3260  177.6410  145.9950 C   0  0  0  0  0  3  0  0  0  0  0  0
  185.7830  178.7200  138.3200 C   0  0  1  0  0  3  0  0  0  0  0  0
  189.0720  176.9320  147.5630 C   0  0  0  0  0  2  0  0  0  0  0  0
  184.5230  178.4310  145.6960 C   0  0  0  0  0  2  0  0  0  0  0  0
  186.8190  177.9130  144.6750 N   0  0  0  0  0  0  0  0  0  0  0  0
  185.4540  178.3340  144.5080 C   0  0  0  0  0  0  0  0  0  0  0  0
  185.8300  178.4040  142.1300 N   0  0  0  0  0  0  0  0  0  0  0  0
  187.1280  178.4200  137.6160 C   0  0  0  0  0  2  0  0  0  0  0  0
  190.8990  176.6990  145.3000 C   0  0  0  0  0  0  0  0  0  0  0  0
  188.5960  177.2750  146.1830 C   0  0  0  0  0  0  0  0  0  0  0  0
  188.0610  178.0590  138.6380 O   0  0  0  0  0  0  0  0  0  0  0  0
  191.6780  176.3970  144.3540 O   0  0  0  0  0  0  0  0  0  0  0  0
  191.3440  176.6290  146.6640 N   0  0  0  0  0  0  0  0  0  0  0  0
  183.5400  179.0270  143.0970 C   0  0  0  0  0  2  0  0  0  0  0  0
  184.9660  178.5530  143.2740 C   0  0  0  0  0  0  0  0  0  0  0  0
  185.3050  178.6590  140.8090 C   0  0  0  0  0  3  0  0  0  0  0  0
  189.0830  177.3320  143.7820 C   0  0  0  0  0  3  0  0  0  0  0  0
  189.3900  177.4800  141.0790 O   0  0  0  0  0  1  0  0  0  0  0  0
  184.8280  177.7900  137.9080 O   0  0  0  0  0  1  0  0  0  0  0  0
  187.2180  177.9930  142.2900 C   0  0  0  0  0  0  0  0  0  0  0  0
  186.1010  178.5120  139.7540 C   0  0  0  0  0  0  0  0  0  0  0  0
  192.6120  176.0010  147.0100 C   0  0  0  0  0  2  0  0  0  0  0  0
  192.7730  175.9410  148.4900 C   0  0  0  0  0  0  0  0  0  0  0  0
  193.1810  177.0680  149.1910 O   0  0  0  0  0  1  0  0  0  0  0  0
  192.5040  174.8790  149.1090 O   0  0  0  0  0  0  0  0  0  0  0  0
  2 24  1  0  0  0  0
  2 12  1  0  0  0  0
  3 11  1  0  0  0  0
  4  3  1  0  0  0  0
  5 25  1  0  0  0  0
  5 27  1  0  0  0  0
  6  5  2  0  0  0  0
  7 16  1  0  0  0  0
  7 17  1  0  0  0  0
  8 17  2  0  0  0  0
  9 26  1  6  0  0  0
  9 28  1  0  0  0  0
 10  1  1  0  0  0  0
 12  8  1  0  0  0  0
 13 12  1  0  0  0  0
 13 11  1  0  0  0  0
 14 27  1  0  0  0  0
 14 22  1  0  0  0  0
 15  9  1  0  0  0  0
 15 18  1  0  0  0  0
 16 20  1  0  0  0  0
 17 10  1  0  0  0  0
 18  6  1  0  0  0  0
 19 16  2  0  0  0  0
 20 29  1  0  0  0  0
 20  1  1  0  0  0  0
 21 22  1  0  0  0  0
 21  4  1  0  0  0  0
 22 13  2  0  0  0  0
 23 14  1  0  0  0  0
 24  7  2  0  0  0  0
 27  2  2  0  0  0  0
 28  6  1  0  0  0  0
 28 23  2  0  0  0  0
 29 30  1  0  0  0  0
 30 32  2  0  0  0  0
 30 31  1  0  0  0  0
M  END
>  <MODEL>
6

>  <REMARK>
 VINA RESULT:      -9.2      2.549      7.353
  Name = 
  2 active torsions:
  status: ('A' for Active; 'I' for Inactive)
    1  A    between atoms: C_1  and  C_10
    2  A    between atoms: C_10  and  N_24
                            x       y       z     vdW  Elec       q    Type
                         _______ _______ _______ _____ _____    ______ ____

>  <TORSDO>
F 2

$$$$
=
 OpenBabel11052416483D

 32 37  0  0  1  0  0  0  0  0999 V2000
  191.1970  177.1140  137.7790 C   0  0  0  0  0  2  0  0  0  0  0  0
  188.4320  177.5200  142.0400 C   0  0  0  0  0  0  0  0  0  0  0  0
  191.9400  177.2870  145.4370 O   0  0  0  0  0  0  0  0  0  0  0  0
  191.0500  176.8100  146.4140 C   0  0  0  0  0  2  0  0  0  0  0  0
  186.1130  178.2440  142.6740 C   0  0  0  0  0  0  0  0  0  0  0  0
  185.3130  178.5420  143.6960 C   0  0  0  0  0  0  0  0  0  0  0  0
  189.0360  177.1910  139.6960 C   0  0  0  0  0  0  0  0  0  0  0  0
  190.7310  176.7890  141.4140 C   0  0  0  0  0  3  0  0  0  0  0  0
  184.5960  178.8850  145.9350 C   0  0  1  0  0  3  0  0  0  0  0  0
  191.4030  176.3640  139.0960 C   0  0  0  0  0  2  0  0  0  0  0  0
  191.5490  176.6900  144.2240 C   0  0  0  0  0  2  0  0  0  0  0  0
  189.7760  177.1530  142.4280 N   0  0  0  0  0  0  0  0  0  0  0  0
  190.1650  177.1420  143.8130 C   0  0  0  0  0  0  0  0  0  0  0  0
  187.9260  177.8190  144.3870 N   0  0  0  0  0  0  0  0  0  0  0  0
  183.4630  179.1810  144.9230 C   0  0  0  0  0  2  0  0  0  0  0  0
  188.7370  177.1990  138.2540 C   0  0  0  0  0  0  0  0  0  0  0  0
  190.4060  176.8160  140.1200 C   0  0  0  0  0  0  0  0  0  0  0  0
  183.9940  178.9330  143.6190 O   0  0  0  0  0  0  0  0  0  0  0  0
  187.5550  177.3630  137.8420 O   0  0  0  0  0  0  0  0  0  0  0  0
  189.8130  176.9930  137.3250 N   0  0  0  0  0  0  0  0  0  0  0  0
  189.6820  177.4660  146.2200 C   0  0  0  0  0  2  0  0  0  0  0  0
  189.2650  177.4450  144.7660 C   0  0  0  0  0  0  0  0  0  0  0  0
  186.9700  178.1610  145.4130 C   0  0  0  0  0  3  0  0  0  0  0  0
  188.1080  177.5200  140.6000 C   0  0  0  0  0  3  0  0  0  0  0  0
  185.6200  178.3140  141.3750 O   0  0  0  0  0  1  0  0  0  0  0  0
  184.2280  177.8060  146.7390 O   0  0  0  0  0  1  0  0  0  0  0  0
  187.5260  177.8470  142.9870 C   0  0  0  0  0  0  0  0  0  0  0  0
  185.7320  178.4970  145.0620 C   0  0  0  0  0  0  0  0  0  0  0  0
  189.5500  176.7440  135.9140 C   0  0  0  0  0  2  0  0  0  0  0  0
  189.5720  175.2800  135.6340 C   0  0  0  0  0  0  0  0  0  0  0  0
  188.4570  174.5020  135.9140 O   0  0  0  0  0  1  0  0  0  0  0  0
  190.5880  174.7550  135.1100 O   0  0  0  0  0  0  0  0  0  0  0  0
  1 10  1  0  0  0  0
  2 12  1  0  0  0  0
  2 27  2  0  0  0  0
  3  4  1  0  0  0  0
  5 27  1  0  0  0  0
  5  6  2  0  0  0  0
  6 28  1  0  0  0  0
  7 17  1  0  0  0  0
  7 24  2  0  0  0  0
  8 12  1  0  0  0  0
  9 26  1  1  0  0  0
 10 17  1  0  0  0  0
 11  3  1  0  0  0  0
 12 13  1  0  0  0  0
 13 11  1  0  0  0  0
 13 22  2  0  0  0  0
 14 22  1  0  0  0  0
 14 23  1  0  0  0  0
 15  9  1  0  0  0  0
 16  7  1  0  0  0  0
 17  8  2  0  0  0  0
 18  6  1  0  0  0  0
 18 15  1  0  0  0  0
 19 16  2  0  0  0  0
 20  1  1  0  0  0  0
 20 16  1  0  0  0  0
 21  4  1  0  0  0  0
 22 21  1  0  0  0  0
 24  2  1  0  0  0  0
 25  5  1  0  0  0  0
 27 14  1  0  0  0  0
 28 23  2  0  0  0  0
 28  9  1  0  0  0  0
 29 20  1  0  0  0  0
 30 31  1  0  0  0  0
 30 29  1  0  0  0  0
 32 30  2  0  0  0  0
M  END
>  <MODEL>
7

>  <REMARK>
 VINA RESULT:      -9.0      2.458      7.168
  Name = 
  2 active torsions:
  status: ('A' for Active; 'I' for Inactive)
    1  A    between atoms: C_1  and  C_10
    2  A    between atoms: C_10  and  N_24
                            x       y       z     vdW  Elec       q    Type
                         _______ _______ _______ _____ _____    ______ ____

>  <TORSDO>
F 2

$$$$
=
 OpenBabel11052416483D

 32 37  0  0  1  0  0  0  0  0999 V2000
  191.6430  176.4960  144.9620 C   0  0  0  0  0  2  0  0  0  0  0  0
  187.6860  178.0050  142.1260 C   0  0  0  0  0  0  0  0  0  0  0  0
  189.5240  177.4720  137.6290 O   0  0  0  0  0  0  0  0  0  0  0  0
  188.6510  178.4320  137.0900 C   0  0  0  0  0  2  0  0  0  0  0  0
  185.2230  178.3770  142.4430 C   0  0  0  0  0  0  0  0  0  0  0  0
  184.0740  178.6120  141.8140 C   0  0  0  0  0  0  0  0  0  0  0  0
  189.1450  177.6290  144.0500 C   0  0  0  0  0  0  0  0  0  0  0  0
  190.1320  177.6470  141.8100 C   0  0  0  0  0  3  0  0  0  0  0  0
  182.5510  179.0000  140.0320 C   0  0  1  0  0  3  0  0  0  0  0  0
  191.6800  177.3360  143.6840 C   0  0  0  0  0  2  0  0  0  0  0  0
  189.8790  177.9370  138.9080 C   0  0  0  0  0  2  0  0  0  0  0  0
  188.8280  177.8810  141.2480 N   0  0  0  0  0  0  0  0  0  0  0  0
  188.6750  177.9950  139.8220 C   0  0  0  0  0  0  0  0  0  0  0  0
  186.3200  178.3690  140.1640 N   0  0  0  0  0  0  0  0  0  0  0  0
  181.8320  178.9880  141.4020 C   0  0  0  0  0  2  0  0  0  0  0  0
  189.3940  177.4710  145.4930 C   0  0  0  0  0  0  0  0  0  0  0  0
  190.2990  177.5100  143.1270 C   0  0  0  0  0  0  0  0  0  0  0  0
  182.8340  178.7620  142.3960 O   0  0  0  0  0  0  0  0  0  0  0  0
  188.4840  177.7100  146.3330 O   0  0  0  0  0  0  0  0  0  0  0  0
  190.7010  177.0630  145.9270 N   0  0  0  0  0  0  0  0  0  0  0  0
  187.2960  178.3400  137.7940 C   0  0  0  0  0  2  0  0  0  0  0  0
  187.4640  178.2520  139.2950 C   0  0  0  0  0  0  0  0  0  0  0  0
  185.0200  178.6260  139.5910 C   0  0  0  0  0  3  0  0  0  0  0  0
  187.9170  177.8630  143.5780 C   0  0  0  0  0  3  0  0  0  0  0  0
  185.2340  178.2660  143.8300 O   0  0  0  0  0  1  0  0  0  0  0  0
  182.4330  180.2650  139.4580 O   0  0  0  0  0  1  0  0  0  0  0  0
  186.4610  178.2400  141.6070 C   0  0  0  0  0  0  0  0  0  0  0  0
  183.9670  178.7420  140.3940 C   0  0  0  0  0  0  0  0  0  0  0  0
  191.0810  177.1280  147.3320 C   0  0  0  0  0  2  0  0  0  0  0  0
  191.8540  175.9130  147.7150 C   0  0  0  0  0  0  0  0  0  0  0  0
  193.1810  176.0290  148.1080 O   0  0  0  0  0  1  0  0  0  0  0  0
  191.2940  174.7860  147.7190 O   0  0  0  0  0  0  0  0  0  0  0  0
  1 20  1  0  0  0  0
  2 24  1  0  0  0  0
  3 11  1  0  0  0  0
  4  3  1  0  0  0  0
  4 21  1  0  0  0  0
  5 25  1  0  0  0  0
  6 18  1  0  0  0  0
  6  5  2  0  0  0  0
  7 16  1  0  0  0  0
  8 17  2  0  0  0  0
  9 26  1  1  0  0  0
  9 28  1  0  0  0  0
  9 15  1  0  0  0  0
 10  1  1  0  0  0  0
 11 13  1  0  0  0  0
 12  8  1  0  0  0  0
 12  2  1  0  0  0  0
 13 12  1  0  0  0  0
 14 27  1  0  0  0  0
 15 18  1  0  0  0  0
 16 20  1  0  0  0  0
 16 19  2  0  0  0  0
 17 10  1  0  0  0  0
 17  7  1  0  0  0  0
 20 29  1  0  0  0  0
 21 22  1  0  0  0  0
 22 13  2  0  0  0  0
 22 14  1  0  0  0  0
 23 14  1  0  0  0  0
 23 28  2  0  0  0  0
 24  7  2  0  0  0  0
 27  2  2  0  0  0  0
 27  5  1  0  0  0  0
 28  6  1  0  0  0  0
 29 30  1  0  0  0  0
 30 32  2  0  0  0  0
 30 31  1  0  0  0  0
M  END
>  <MODEL>
8

>  <REMARK>
 VINA RESULT:      -9.0      2.218      8.091
  Name = 
  2 active torsions:
  status: ('A' for Active; 'I' for Inactive)
    1  A    between atoms: C_1  and  C_10
    2  A    between atoms: C_10  and  N_24
                            x       y       z     vdW  Elec       q    Type
                         _______ _______ _______ _____ _____    ______ ____

>  <TORSDO>
F 2

$$$$
=
 OpenBabel11052416483D

 32 37  0  0  1  0  0  0  0  0999 V2000
  191.3410  176.6120  144.7750 C   0  0  0  0  0  2  0  0  0  0  0  0
  186.8020  178.0490  142.9570 C   0  0  0  0  0  0  0  0  0  0  0  0
  187.5830  177.6870  138.1450 O   0  0  0  0  0  0  0  0  0  0  0  0
  186.5840  178.6280  137.8480 C   0  0  0  0  0  2  0  0  0  0  0  0
  184.4660  178.3280  143.8350 C   0  0  0  0  0  0  0  0  0  0  0  0
  183.1970  178.5380  143.4900 C   0  0  0  0  0  0  0  0  0  0  0  0
  188.6700  177.6790  144.4870 C   0  0  0  0  0  0  0  0  0  0  0  0
  189.1210  177.7830  142.0840 C   0  0  0  0  0  3  0  0  0  0  0  0
  181.2990  178.9150  142.1120 C   0  0  1  0  0  3  0  0  0  0  0  0
  191.0630  177.4820  143.5480 C   0  0  0  0  0  2  0  0  0  0  0  0
  188.2060  178.1340  139.3250 C   0  0  0  0  0  2  0  0  0  0  0  0
  187.7170  177.9860  141.8390 N   0  0  0  0  0  0  0  0  0  0  0  0
  187.2400  178.1280  140.4890 C   0  0  0  0  0  0  0  0  0  0  0  0
  185.0160  178.4120  141.3670 N   0  0  0  0  0  0  0  0  0  0  0  0
  180.9110  178.8460  143.6080 C   0  0  0  0  0  2  0  0  0  0  0  0
  189.2450  177.4950  145.8300 C   0  0  0  0  0  0  0  0  0  0  0  0
  189.5870  177.6210  143.3240 C   0  0  0  0  0  0  0  0  0  0  0  0
  182.1190  178.6310  144.3420 O   0  0  0  0  0  0  0  0  0  0  0  0
  188.5430  177.6820  146.8620 O   0  0  0  0  0  0  0  0  0  0  0  0
  190.6280  177.1220  145.9440 N   0  0  0  0  0  0  0  0  0  0  0  0
  185.4270  178.4730  138.8380 C   0  0  0  0  0  2  0  0  0  0  0  0
  185.9350  178.3560  140.2580 C   0  0  0  0  0  0  0  0  0  0  0  0
  183.6120  178.6370  141.1110 C   0  0  0  0  0  3  0  0  0  0  0  0
  187.3610  177.8810  144.3130 C   0  0  0  0  0  3  0  0  0  0  0  0
  184.7950  178.1850  145.1790 O   0  0  0  0  0  1  0  0  0  0  0  0
  181.0170  180.1890  141.6190 O   0  0  0  0  0  1  0  0  0  0  0  0
  185.4850  178.2540  142.7360 C   0  0  0  0  0  0  0  0  0  0  0  0
  182.7670  178.6980  142.1360 C   0  0  0  0  0  0  0  0  0  0  0  0
  191.3140  177.1680  147.2280 C   0  0  0  0  0  2  0  0  0  0  0  0
  191.8870  175.8310  147.5560 C   0  0  0  0  0  0  0  0  0  0  0  0
  193.2570  175.6830  147.7200 O   0  0  0  0  0  0  0  0  0  0  0  0
  191.1240  174.8440  147.7200 O   0  0  0  0  0  1  0  0  0  0  0  0
  1 20  1  0  0  0  0
  2 24  1  0  0  0  0
  3 11  1  0  0  0  0
  4  3  1  0  0  0  0
  4 21  1  0  0  0  0
  5 25  1  0  0  0  0
  6  5  2  0  0  0  0
  6 18  1  0  0  0  0
  7 16  1  0  0  0  0
  8 17  2  0  0  0  0
  9 26  1  1  0  0  0
  9 28  1  0  0  0  0
  9 15  1  0  0  0  0
 10  1  1  0  0  0  0
 11 13  1  0  0  0  0
 12  8  1  0  0  0  0
 12  2  1  0  0  0  0
 13 12  1  0  0  0  0
 14 27  1  0  0  0  0
 15 18  1  0  0  0  0
 16 20  1  0  0  0  0
 16 19  2  0  0  0  0
 17 10  1  0  0  0  0
 17  7  1  0  0  0  0
 20 29  1  0  0  0  0
 21 22  1  0  0  0  0
 22 13  2  0  0  0  0
 22 14  1  0  0  0  0
 23 14  1  0  0  0  0
 23 28  2  0  0  0  0
 24  7  2  0  0  0  0
 27  2  2  0  0  0  0
 27  5  1  0  0  0  0
 28  6  1  0  0  0  0
 29 30  1  0  0  0  0
 30 31  2  0  0  0  0
 30 32  1  0  0  0  0
M  END
>  <MODEL>
9

>  <REMARK>
 VINA RESULT:      -9.0      2.141      8.376
  Name = 
  2 active torsions:
  status: ('A' for Active; 'I' for Inactive)
    1  A    between atoms: C_1  and  C_10
    2  A    between atoms: C_10  and  N_24
                            x       y       z     vdW  Elec       q    Type
                         _______ _______ _______ _____ _____    ______ ____

>  <TORSDO>
F 2

$$$$
