=
 OpenBabel11052413033D

 31 34  0  0  1  0  0  0  0  0999 V2000
  190.1080  177.3260  146.7790 C   0  0  0  0  0  0  0  0  0  0  0  0
  188.0910  177.6900  143.4530 C   0  0  0  0  0  0  0  0  0  0  0  0
  186.7160  177.8110  143.7810 C   0  0  0  0  0  0  0  0  0  0  0  0
  185.5600  178.3570  145.8990 C   0  0  0  0  0  3  0  0  0  0  0  0
  189.1280  177.2760  144.4520 C   0  0  0  0  0  0  0  0  0  0  0  0
  191.3030  176.7050  146.2110 C   0  0  0  0  0  3  0  0  0  0  0  0
  186.1960  177.2830  145.0830 C   0  0  0  0  0  2  0  0  0  0  0  0
  189.9310  177.8050  141.7240 C   0  0  2  0  0  3  0  0  0  0  0  0
  190.0410  177.5420  148.0170 O   0  0  0  0  0  0  0  0  0  0  0  0
  186.2690  178.5700  141.5300 C   0  0  0  0  0  3  0  0  0  0  0  0
  184.4600  178.9990  145.5140 C   0  0  0  0  0  3  0  0  0  0  0  0
  190.4870  176.1850  142.3250 S   0  0  0  0  0  0  0  0  0  0  0  0
  188.4910  177.9790  142.1270 C   0  0  0  0  0  0  0  0  0  0  0  0
  188.9780  177.7350  145.8870 C   0  0  0  0  0  2  0  0  0  0  0  0
  183.7800  178.8050  144.2200 C   0  0  0  0  0  3  0  0  0  0  0  0
  190.2720  176.6790  144.0400 C   0  0  0  0  0  0  0  0  0  0  0  0
  191.3550  176.4240  144.9470 N   0  0  0  0  0  0  0  0  0  0  0  0
  187.5780  178.4110  141.2170 N   0  0  0  0  0  0  0  0  0  0  0  0
  185.8050  178.2860  142.8120 C   0  0  0  0  0  0  0  0  0  0  0  0
  184.3630  178.4900  143.0580 C   0  0  0  0  0  3  0  0  0  0  0  0
  190.0880  177.8590  140.2770 N   0  0  0  0  0  2  0  0  0  0  0  0
  189.8770  175.8290  139.1680 O   0  0  0  0  0  1  0  0  0  0  0  0
  190.7700  176.6390  139.8720 C   0  0  1  0  0  3  0  0  0  0  0  0
  193.2190  177.1950  139.8660 C   0  0  0  0  0  1  0  0  0  0  0  0
  191.9890  176.9760  139.0000 C   0  0  1  0  0  3  0  0  0  0  0  0
  191.7890  176.2450  136.7030 O   0  0  0  0  0  1  0  0  0  0  0  0
  192.3070  175.9010  137.9540 C   0  0  1  0  0  3  0  0  0  0  0  0
  193.8010  175.6320  137.8440 C   0  0  0  0  0  2  0  0  0  0  0  0
  194.0660  174.2050  137.9340 N   0  0  0  0  0  0  0  0  0  0  0  0
  194.3140  173.7330  136.5830 C   0  0  0  0  0  1  0  0  0  0  0  0
  195.3150  174.0610  138.6590 C   0  0  0  0  0  1  0  0  0  0  0  0
  1  9  2  0  0  0  0
  2  3  1  0  0  0  0
  2  5  1  0  0  0  0
  3  7  1  0  0  0  0
  5 14  1  0  0  0  0
  6  1  1  0  0  0  0
  7  4  1  0  0  0  0
  8 21  1  6  0  0  0
  8 13  1  0  0  0  0
  8 12  1  0  0  0  0
 10 19  1  0  0  0  0
 11  4  2  0  0  0  0
 12 16  1  0  0  0  0
 13  2  2  0  0  0  0
 14  1  1  0  0  0  0
 15 11  1  0  0  0  0
 16  5  2  0  0  0  0
 16 17  1  0  0  0  0
 17  6  2  0  0  0  0
 18 10  2  0  0  0  0
 18 13  1  0  0  0  0
 19 20  1  0  0  0  0
 19  3  2  0  0  0  0
 20 15  2  0  0  0  0
 23 22  1  6  0  0  0
 23 21  1  0  0  0  0
 25 24  1  1  0  0  0
 25 23  1  0  0  0  0
 27 26  1  6  0  0  0
 27 25  1  0  0  0  0
 28 29  1  0  0  0  0
 28 27  1  0  0  0  0
 29 31  1  0  0  0  0
 30 29  1  0  0  0  0
M  END
>  <MODEL>
1

>  <REMARK>
 VINA RESULT:      -9.3      0.000      0.000
  Name = 
  6 active torsions:
  status: ('A' for Active; 'I' for Inactive)
    1  A    between atoms: N_1  and  C_24
    2  A    between atoms: C_9  and  C_22
    3  A    between atoms: C_9  and  N_23
    4  A    between atoms: C_15  and  N_23
    5  A    between atoms: C_19  and  C_22
    6  A    between atoms: C_19  and  C_24
                            x       y       z     vdW  Elec       q    Type
                         _______ _______ _______ _____ _____    ______ ____

>  <TORSDO>
F 6

$$$$
=
 OpenBabel11052413033D

 31 34  0  0  1  0  0  0  0  0999 V2000
  190.6140  177.1080  145.3620 C   0  0  0  0  0  0  0  0  0  0  0  0
  187.7450  177.9300  142.8400 C   0  0  0  0  0  0  0  0  0  0  0  0
  186.5220  177.9610  143.5570 C   0  0  0  0  0  0  0  0  0  0  0  0
  186.0230  178.1400  145.9740 C   0  0  0  0  0  3  0  0  0  0  0  0
  189.0150  177.3930  143.4280 C   0  0  0  0  0  0  0  0  0  0  0  0
  191.5880  176.6150  144.3900 C   0  0  0  0  0  3  0  0  0  0  0  0
  186.3820  177.2230  144.8540 C   0  0  0  0  0  2  0  0  0  0  0  0
  189.0230  178.3610  140.7020 C   0  0  2  0  0  3  0  0  0  0  0  0
  190.9040  177.1280  146.5860 O   0  0  0  0  0  0  0  0  0  0  0  0
  185.4700  179.0480  141.6720 C   0  0  0  0  0  3  0  0  0  0  0  0
  184.8710  178.8040  146.0200 C   0  0  0  0  0  3  0  0  0  0  0  0
  189.6960  176.6830  140.8600 S   0  0  0  0  0  0  0  0  0  0  0  0
  187.7590  178.4320  141.5170 C   0  0  0  0  0  0  0  0  0  0  0  0
  189.2860  177.6200  144.9010 C   0  0  0  0  0  2  0  0  0  0  0  0
  183.8490  178.7950  144.9580 C   0  0  0  0  0  3  0  0  0  0  0  0
  189.9850  176.8980  142.6210 C   0  0  0  0  0  0  0  0  0  0  0  0
  191.2750  176.5360  143.1340 N   0  0  0  0  0  0  0  0  0  0  0  0
  186.6340  178.9750  140.9810 N   0  0  0  0  0  0  0  0  0  0  0  0
  185.3830  178.5560  142.9720 C   0  0  0  0  0  0  0  0  0  0  0  0
  184.0730  178.6810  143.6430 C   0  0  0  0  0  3  0  0  0  0  0  0
  188.7650  178.6440  139.2970 N   0  0  0  0  0  2  0  0  0  0  0  0
  187.5340  176.9960  138.2170 O   0  0  0  0  0  1  0  0  0  0  0  0
  188.8260  177.3750  138.5840 C   0  0  1  0  0  3  0  0  0  0  0  0
  191.0590  176.8260  137.5760 C   0  0  0  0  0  1  0  0  0  0  0  0
  189.7200  177.5060  137.3430 C   0  0  1  0  0  3  0  0  0  0  0  0
  189.2680  177.7840  134.9820 O   0  0  0  0  0  1  0  0  0  0  0  0
  189.0870  176.9270  136.0710 C   0  0  1  0  0  3  0  0  0  0  0  0
  189.6270  175.5430  135.7410 C   0  0  0  0  0  2  0  0  0  0  0  0
  188.6670  174.5210  136.1270 N   0  0  0  0  0  0  0  0  0  0  0  0
  188.2010  173.8930  134.9030 C   0  0  0  0  0  1  0  0  0  0  0  0
  189.4100  173.5090  136.8550 C   0  0  0  0  0  1  0  0  0  0  0  0
  1  9  2  0  0  0  0
  2  5  1  0  0  0  0
  2  3  1  0  0  0  0
  3  7  1  0  0  0  0
  4 11  2  0  0  0  0
  5 14  1  0  0  0  0
  6  1  1  0  0  0  0
  7  4  1  0  0  0  0
  8 21  1  6  0  0  0
  8 12  1  0  0  0  0
  8 13  1  0  0  0  0
 10 19  1  0  0  0  0
 12 16  1  0  0  0  0
 13  2  2  0  0  0  0
 14  1  1  0  0  0  0
 15 11  1  0  0  0  0
 16 17  1  0  0  0  0
 16  5  2  0  0  0  0
 17  6  2  0  0  0  0
 18 13  1  0  0  0  0
 18 10  2  0  0  0  0
 19  3  2  0  0  0  0
 19 20  1  0  0  0  0
 20 15  2  0  0  0  0
 23 22  1  6  0  0  0
 23 21  1  0  0  0  0
 25 24  1  1  0  0  0
 25 23  1  0  0  0  0
 27 26  1  6  0  0  0
 27 25  1  0  0  0  0
 28 27  1  0  0  0  0
 28 29  1  0  0  0  0
 29 31  1  0  0  0  0
 30 29  1  0  0  0  0
M  END
>  <MODEL>
2

>  <REMARK>
 VINA RESULT:      -9.2      2.315      2.679
  Name = 
  6 active torsions:
  status: ('A' for Active; 'I' for Inactive)
    1  A    between atoms: N_1  and  C_24
    2  A    between atoms: C_9  and  C_22
    3  A    between atoms: C_9  and  N_23
    4  A    between atoms: C_15  and  N_23
    5  A    between atoms: C_19  and  C_22
    6  A    between atoms: C_19  and  C_24
                            x       y       z     vdW  Elec       q    Type
                         _______ _______ _______ _____ _____    ______ ____

>  <TORSDO>
F 6

$$$$
=
 OpenBabel11052413033D

 31 34  0  0  1  0  0  0  0  0999 V2000
  185.2510  178.3240  143.2630 C   0  0  0  0  0  0  0  0  0  0  0  0
  189.0390  177.3770  143.1130 C   0  0  0  0  0  0  0  0  0  0  0  0
  189.5520  177.3970  144.4360 C   0  0  0  0  0  0  0  0  0  0  0  0
  188.4380  177.3630  146.6450 C   0  0  0  0  0  3  0  0  0  0  0  0
  187.6960  177.9380  142.7580 C   0  0  0  0  0  0  0  0  0  0  0  0
  185.1060  178.7520  141.8730 C   0  0  0  0  0  3  0  0  0  0  0  0
  188.8800  178.2100  145.5000 C   0  0  0  0  0  2  0  0  0  0  0  0
  189.3500  176.8130  140.6690 C   0  0  2  0  0  3  0  0  0  0  0  0
  184.2640  178.3730  144.0420 O   0  0  0  0  0  0  0  0  0  0  0  0
  191.5120  176.2100  143.6690 C   0  0  0  0  0  3  0  0  0  0  0  0
  189.2930  176.7110  147.4300 C   0  0  0  0  0  3  0  0  0  0  0  0
  188.7760  178.4930  140.2910 S   0  0  0  0  0  0  0  0  0  0  0  0
  189.8340  176.7990  142.0960 C   0  0  0  0  0  0  0  0  0  0  0  0
  186.5630  177.7950  143.7530 C   0  0  0  0  0  2  0  0  0  0  0  0
  190.7530  176.6660  147.2330 C   0  0  0  0  0  3  0  0  0  0  0  0
  187.4510  178.3780  141.5000 C   0  0  0  0  0  0  0  0  0  0  0  0
  186.1320  178.7610  141.0820 N   0  0  0  0  0  0  0  0  0  0  0  0
  191.0310  176.2340  142.4020 N   0  0  0  0  0  0  0  0  0  0  0  0
  190.7890  176.7770  144.7150 C   0  0  0  0  0  0  0  0  0  0  0  0
  191.3960  176.7010  146.0600 C   0  0  0  0  0  3  0  0  0  0  0  0
  190.4160  176.4510  139.7450 N   0  0  0  0  0  2  0  0  0  0  0  0
  191.0740  176.8970  137.5620 O   0  0  0  0  0  1  0  0  0  0  0  0
  189.9660  176.8100  138.4080 C   0  0  1  0  0  3  0  0  0  0  0  0
  187.8120  176.4430  137.1710 C   0  0  0  0  0  1  0  0  0  0  0  0
  188.9710  175.7650  137.8830 C   0  0  1  0  0  3  0  0  0  0  0  0
  190.3750  173.8110  137.6320 O   0  0  0  0  0  1  0  0  0  0  0  0
  189.6050  174.7430  136.9310 C   0  0  1  0  0  3  0  0  0  0  0  0
  188.5640  174.0280  136.0820 C   0  0  0  0  0  2  0  0  0  0  0  0
  188.2010  172.7580  136.6920 N   0  0  0  0  0  0  0  0  0  0  0  0
  186.8030  172.8550  137.0740 C   0  0  0  0  0  1  0  0  0  0  0  0
  188.2740  171.7590  135.6420 C   0  0  0  0  0  1  0  0  0  0  0  0
  1 14  1  0  0  0  0
  1  9  2  0  0  0  0
  2  3  1  0  0  0  0
  3 19  2  0  0  0  0
  3  7  1  0  0  0  0
  4 11  2  0  0  0  0
  5  2  1  0  0  0  0
  5 14  1  0  0  0  0
  6  1  1  0  0  0  0
  7  4  1  0  0  0  0
  8 21  1  6  0  0  0
  8 13  1  0  0  0  0
 10 19  1  0  0  0  0
 12  8  1  0  0  0  0
 12 16  1  0  0  0  0
 13 18  1  0  0  0  0
 13  2  2  0  0  0  0
 15 11  1  0  0  0  0
 16  5  2  0  0  0  0
 17 16  1  0  0  0  0
 17  6  2  0  0  0  0
 18 10  2  0  0  0  0
 19 20  1  0  0  0  0
 20 15  2  0  0  0  0
 23 22  1  6  0  0  0
 23 21  1  0  0  0  0
 25 24  1  6  0  0  0
 25 23  1  0  0  0  0
 27 26  1  1  0  0  0
 27 25  1  0  0  0  0
 28 29  1  0  0  0  0
 28 27  1  0  0  0  0
 29 30  1  0  0  0  0
 31 29  1  0  0  0  0
M  END
>  <MODEL>
3

>  <REMARK>
 VINA RESULT:      -8.9      2.950      5.041
  Name = 
  6 active torsions:
  status: ('A' for Active; 'I' for Inactive)
    1  A    between atoms: N_1  and  C_24
    2  A    between atoms: C_9  and  C_22
    3  A    between atoms: C_9  and  N_23
    4  A    between atoms: C_15  and  N_23
    5  A    between atoms: C_19  and  C_22
    6  A    between atoms: C_19  and  C_24
                            x       y       z     vdW  Elec       q    Type
                         _______ _______ _______ _____ _____    ______ ____

>  <TORSDO>
F 6

$$$$
=
 OpenBabel11052413033D

 31 34  0  0  1  0  0  0  0  0999 V2000
  185.1290  178.2840  143.8110 C   0  0  0  0  0  0  0  0  0  0  0  0
  188.8970  177.4560  143.1890 C   0  0  0  0  0  0  0  0  0  0  0  0
  189.5580  177.4390  144.4440 C   0  0  0  0  0  0  0  0  0  0  0  0
  188.7090  177.2880  146.7630 C   0  0  0  0  0  3  0  0  0  0  0  0
  187.5080  177.9900  143.0140 C   0  0  0  0  0  0  0  0  0  0  0  0
  184.8140  178.7610  142.4660 C   0  0  0  0  0  3  0  0  0  0  0  0
  188.9940  178.1920  145.6110 C   0  0  0  0  0  2  0  0  0  0  0  0
  188.9380  176.9950  140.7040 C   0  0  2  0  0  3  0  0  0  0  0  0
  184.2380  178.2750  144.6980 O   0  0  0  0  0  0  0  0  0  0  0  0
  191.4460  176.3410  143.4090 C   0  0  0  0  0  3  0  0  0  0  0  0
  189.6640  176.6320  147.4170 C   0  0  0  0  0  3  0  0  0  0  0  0
  188.2820  178.6710  140.4650 S   0  0  0  0  0  0  0  0  0  0  0  0
  189.5830  176.9410  142.0640 C   0  0  0  0  0  0  0  0  0  0  0  0
  186.5010  177.7760  144.1250 C   0  0  0  0  0  2  0  0  0  0  0  0
  191.0920  176.6370  147.0520 C   0  0  0  0  0  3  0  0  0  0  0  0
  187.1090  178.4710  141.8110 C   0  0  0  0  0  0  0  0  0  0  0  0
  185.7410  178.8310  141.5630 N   0  0  0  0  0  0  0  0  0  0  0  0
  190.8210  176.4000  142.2080 N   0  0  0  0  0  0  0  0  0  0  0  0
  190.8350  176.8460  144.5540 C   0  0  0  0  0  0  0  0  0  0  0  0
  191.5940  176.7370  145.8160 C   0  0  0  0  0  3  0  0  0  0  0  0
  189.8980  176.7010  139.6500 N   0  0  0  0  0  2  0  0  0  0  0  0
  189.8730  178.0830  137.7830 O   0  0  0  0  0  1  0  0  0  0  0  0
  189.2460  176.9880  138.3800 C   0  0  1  0  0  3  0  0  0  0  0  0
  189.0260  176.1600  136.0200 C   0  0  0  0  0  1  0  0  0  0  0  0
  189.3140  175.7620  137.4580 C   0  0  1  0  0  3  0  0  0  0  0  0
  190.4900  173.6500  137.5350 O   0  0  0  0  0  1  0  0  0  0  0  0
  190.6640  175.0360  137.5080 C   0  0  1  0  0  3  0  0  0  0  0  0
  191.5680  175.4260  136.3480 C   0  0  0  0  0  2  0  0  0  0  0  0
  192.9580  175.4520  136.7770 N   0  0  0  0  0  0  0  0  0  0  0  0
  193.7230  176.0600  135.7020 C   0  0  0  0  0  1  0  0  0  0  0  0
  193.0270  176.3660  137.9030 C   0  0  0  0  0  1  0  0  0  0  0  0
  1 14  1  0  0  0  0
  1  9  2  0  0  0  0
  2  3  1  0  0  0  0
  3 19  2  0  0  0  0
  3  7  1  0  0  0  0
  4 11  2  0  0  0  0
  5  2  1  0  0  0  0
  5 14  1  0  0  0  0
  6  1  1  0  0  0  0
  7  4  1  0  0  0  0
  8 21  1  6  0  0  0
  8 13  1  0  0  0  0
 10 19  1  0  0  0  0
 12  8  1  0  0  0  0
 12 16  1  0  0  0  0
 13 18  1  0  0  0  0
 13  2  2  0  0  0  0
 15 11  1  0  0  0  0
 16  5  2  0  0  0  0
 17 16  1  0  0  0  0
 17  6  2  0  0  0  0
 18 10  2  0  0  0  0
 19 20  1  0  0  0  0
 20 15  2  0  0  0  0
 23 22  1  6  0  0  0
 23 21  1  0  0  0  0
 25 24  1  6  0  0  0
 25 27  1  0  0  0  0
 25 23  1  0  0  0  0
 27 26  1  6  0  0  0
 28 29  1  0  0  0  0
 28 27  1  0  0  0  0
 29 31  1  0  0  0  0
 30 29  1  0  0  0  0
M  END
>  <MODEL>
4

>  <REMARK>
 VINA RESULT:      -8.7      2.162      4.463
  Name = 
  6 active torsions:
  status: ('A' for Active; 'I' for Inactive)
    1  A    between atoms: N_1  and  C_24
    2  A    between atoms: C_9  and  C_22
    3  A    between atoms: C_9  and  N_23
    4  A    between atoms: C_15  and  N_23
    5  A    between atoms: C_19  and  C_22
    6  A    between atoms: C_19  and  C_24
                            x       y       z     vdW  Elec       q    Type
                         _______ _______ _______ _____ _____    ______ ____

>  <TORSDO>
F 6

$$$$
=
 OpenBabel11052413033D

 31 34  0  0  1  0  0  0  0  0999 V2000
  185.1930  178.3680  143.9160 C   0  0  0  0  0  0  0  0  0  0  0  0
  188.9160  177.2970  143.4030 C   0  0  0  0  0  0  0  0  0  0  0  0
  189.5610  177.3230  144.6660 C   0  0  0  0  0  0  0  0  0  0  0  0
  188.6770  177.3630  146.9770 C   0  0  0  0  0  3  0  0  0  0  0  0
  187.5610  177.8950  143.1740 C   0  0  0  0  0  0  0  0  0  0  0  0
  184.9200  178.7770  142.5390 C   0  0  0  0  0  3  0  0  0  0  0  0
  189.0250  178.1760  145.7760 C   0  0  0  0  0  2  0  0  0  0  0  0
  188.9590  176.6810  140.9520 C   0  0  2  0  0  3  0  0  0  0  0  0
  184.2920  178.4630  144.7890 O   0  0  0  0  0  0  0  0  0  0  0  0
  191.3960  176.0600  143.7290 C   0  0  0  0  0  3  0  0  0  0  0  0
  189.5870  176.6980  147.6840 C   0  0  0  0  0  3  0  0  0  0  0  0
  188.4010  178.3710  140.5990 S   0  0  0  0  0  0  0  0  0  0  0  0
  189.5840  176.6760  142.3220 C   0  0  0  0  0  0  0  0  0  0  0  0
  186.5310  177.8060  144.2810 C   0  0  0  0  0  2  0  0  0  0  0  0
  191.0170  176.6020  147.3410 C   0  0  0  0  0  3  0  0  0  0  0  0
  187.2030  178.3210  141.9380 C   0  0  0  0  0  0  0  0  0  0  0  0
  185.8600  178.7390  141.6480 N   0  0  0  0  0  0  0  0  0  0  0  0
  190.7890  176.0780  142.5170 N   0  0  0  0  0  0  0  0  0  0  0  0
  190.8000  176.6680  144.8310 C   0  0  0  0  0  0  0  0  0  0  0  0
  191.5380  176.5960  146.1090 C   0  0  0  0  0  3  0  0  0  0  0  0
  189.9140  176.2690  139.9320 N   0  0  0  0  0  2  0  0  0  0  0  0
  191.7720  177.6570  139.8070 O   0  0  0  0  0  1  0  0  0  0  0  0
  190.4670  177.4810  139.3450 C   0  0  1  0  0  3  0  0  0  0  0  0
  190.6810  175.9500  137.3650 C   0  0  0  0  0  1  0  0  0  0  0  0
  190.4490  177.3850  137.8120 C   0  0  1  0  0  3  0  0  0  0  0  0
  189.1020  179.2890  137.1680 O   0  0  0  0  0  1  0  0  0  0  0  0
  189.1440  177.8920  137.1850 C   0  0  1  0  0  3  0  0  0  0  0  0
  188.9340  177.3470  135.7800 C   0  0  0  0  0  2  0  0  0  0  0  0
  187.6000  176.7810  135.6510 N   0  0  0  0  0  0  0  0  0  0  0  0
  187.0760  176.6190  136.9960 C   0  0  0  0  0  1  0  0  0  0  0  0
  186.7820  177.7930  135.0070 C   0  0  0  0  0  1  0  0  0  0  0  0
  1 14  1  0  0  0  0
  1  9  2  0  0  0  0
  2  3  1  0  0  0  0
  3 19  2  0  0  0  0
  3  7  1  0  0  0  0
  4 11  2  0  0  0  0
  5  2  1  0  0  0  0
  5 14  1  0  0  0  0
  6  1  1  0  0  0  0
  7  4  1  0  0  0  0
  8 21  1  6  0  0  0
  8 13  1  0  0  0  0
 10 19  1  0  0  0  0
 12  8  1  0  0  0  0
 12 16  1  0  0  0  0
 13 18  1  0  0  0  0
 13  2  2  0  0  0  0
 15 11  1  0  0  0  0
 16  5  2  0  0  0  0
 17 16  1  0  0  0  0
 17  6  2  0  0  0  0
 18 10  2  0  0  0  0
 19 20  1  0  0  0  0
 20 15  2  0  0  0  0
 23 22  1  1  0  0  0
 23 21  1  0  0  0  0
 25 24  1  1  0  0  0
 25 23  1  0  0  0  0
 27 26  1  6  0  0  0
 27 25  1  0  0  0  0
 28 27  1  0  0  0  0
 29 28  1  0  0  0  0
 29 30  1  0  0  0  0
 31 29  1  0  0  0  0
M  END
>  <MODEL>
5

>  <REMARK>
 VINA RESULT:      -8.6      2.774      5.148
  Name = 
  6 active torsions:
  status: ('A' for Active; 'I' for Inactive)
    1  A    between atoms: N_1  and  C_24
    2  A    between atoms: C_9  and  C_22
    3  A    between atoms: C_9  and  N_23
    4  A    between atoms: C_15  and  N_23
    5  A    between atoms: C_19  and  C_22
    6  A    between atoms: C_19  and  C_24
                            x       y       z     vdW  Elec       q    Type
                         _______ _______ _______ _____ _____    ______ ____

>  <TORSDO>
F 6

$$$$
=
 OpenBabel11052413033D

 31 34  0  0  1  0  0  0  0  0999 V2000
  190.2330  177.1870  146.5180 C   0  0  0  0  0  0  0  0  0  0  0  0
  188.0120  177.7320  143.3500 C   0  0  0  0  0  0  0  0  0  0  0  0
  186.6600  177.8270  143.7690 C   0  0  0  0  0  0  0  0  0  0  0  0
  185.6380  178.2440  145.9830 C   0  0  0  0  0  3  0  0  0  0  0  0
  189.1090  177.2660  144.2570 C   0  0  0  0  0  0  0  0  0  0  0  0
  191.3910  176.6050  145.8420 C   0  0  0  0  0  3  0  0  0  0  0  0
  186.2220  177.2220  145.0680 C   0  0  0  0  0  2  0  0  0  0  0  0
  189.7410  177.9550  141.5200 C   0  0  2  0  0  3  0  0  0  0  0  0
  190.2430  177.3310  147.7680 O   0  0  0  0  0  0  0  0  0  0  0  0
  186.0730  178.7120  141.5980 C   0  0  0  0  0  3  0  0  0  0  0  0
  184.5150  178.9020  145.7040 C   0  0  0  0  0  3  0  0  0  0  0  0
  190.3350  176.3060  141.9900 S   0  0  0  0  0  0  0  0  0  0  0  0
  188.3280  178.0990  142.0200 C   0  0  0  0  0  0  0  0  0  0  0  0
  189.0490  177.6410  145.7230 C   0  0  0  0  0  2  0  0  0  0  0  0
  183.7560  178.7790  144.4460 C   0  0  0  0  0  3  0  0  0  0  0  0
  190.2270  176.6990  143.7410 C   0  0  0  0  0  0  0  0  0  0  0  0
  191.3650  176.3980  144.5630 N   0  0  0  0  0  0  0  0  0  0  0  0
  187.3600  178.5780  141.1950 N   0  0  0  0  0  0  0  0  0  0  0  0
  185.6900  178.3530  142.8880 C   0  0  0  0  0  0  0  0  0  0  0  0
  184.2650  178.5350  143.2340 C   0  0  0  0  0  3  0  0  0  0  0  0
  189.8070  178.0930  140.0710 N   0  0  0  0  0  2  0  0  0  0  0  0
  189.1990  176.2890  138.7400 O   0  0  0  0  0  1  0  0  0  0  0  0
  190.2240  176.8060  139.5340 C   0  0  1  0  0  3  0  0  0  0  0  0
  192.6760  177.3410  139.6130 C   0  0  0  0  0  1  0  0  0  0  0  0
  191.5110  176.9650  138.7120 C   0  0  1  0  0  3  0  0  0  0  0  0
  191.0620  174.6310  138.2580 O   0  0  0  0  0  1  0  0  0  0  0  0
  191.8880  175.7070  137.9190 C   0  0  1  0  0  3  0  0  0  0  0  0
  191.8470  175.9430  136.4160 C   0  0  0  0  0  2  0  0  0  0  0  0
  190.5670  175.5170  135.8720 N   0  0  0  0  0  0  0  0  0  0  0  0
  189.9620  176.6800  135.2480 C   0  0  0  0  0  1  0  0  0  0  0  0
  190.8620  174.5800  134.8040 C   0  0  0  0  0  1  0  0  0  0  0  0
  1  9  2  0  0  0  0
  2  3  1  0  0  0  0
  2  5  1  0  0  0  0
  3  7  1  0  0  0  0
  5 14  1  0  0  0  0
  6  1  1  0  0  0  0
  7  4  1  0  0  0  0
  8 21  1  6  0  0  0
  8 12  1  0  0  0  0
  8 13  1  0  0  0  0
 10 19  1  0  0  0  0
 11  4  2  0  0  0  0
 12 16  1  0  0  0  0
 13  2  2  0  0  0  0
 14  1  1  0  0  0  0
 15 11  1  0  0  0  0
 16  5  2  0  0  0  0
 16 17  1  0  0  0  0
 17  6  2  0  0  0  0
 18 10  2  0  0  0  0
 18 13  1  0  0  0  0
 19 20  1  0  0  0  0
 19  3  2  0  0  0  0
 20 15  2  0  0  0  0
 23 22  1  6  0  0  0
 23 21  1  0  0  0  0
 25 23  1  0  0  0  0
 25 24  1  1  0  0  0
 27 26  1  6  0  0  0
 27 25  1  0  0  0  0
 28 27  1  0  0  0  0
 29 28  1  0  0  0  0
 30 29  1  0  0  0  0
 31 29  1  0  0  0  0
M  END
>  <MODEL>
6

>  <REMARK>
 VINA RESULT:      -8.6      1.358      1.777
  Name = 
  6 active torsions:
  status: ('A' for Active; 'I' for Inactive)
    1  A    between atoms: N_1  and  C_24
    2  A    between atoms: C_9  and  C_22
    3  A    between atoms: C_9  and  N_23
    4  A    between atoms: C_15  and  N_23
    5  A    between atoms: C_19  and  C_22
    6  A    between atoms: C_19  and  C_24
                            x       y       z     vdW  Elec       q    Type
                         _______ _______ _______ _____ _____    ______ ____

>  <TORSDO>
F 6

$$$$
=
 OpenBabel11052413033D

 31 34  0  0  1  0  0  0  0  0999 V2000
  184.9420  178.3340  145.3680 C   0  0  0  0  0  0  0  0  0  0  0  0
  188.3990  177.5760  143.7120 C   0  0  0  0  0  0  0  0  0  0  0  0
  189.3660  177.4560  144.7430 C   0  0  0  0  0  0  0  0  0  0  0  0
  189.1510  177.1070  147.1840 C   0  0  0  0  0  3  0  0  0  0  0  0
  187.0230  178.1170  143.9530 C   0  0  0  0  0  0  0  0  0  0  0  0
  184.2940  178.9210  144.1970 C   0  0  0  0  0  3  0  0  0  0  0  0
  189.1410  178.1050  146.0760 C   0  0  0  0  0  2  0  0  0  0  0  0
  187.7790  177.3260  141.2750 C   0  0  2  0  0  3  0  0  0  0  0  0
  184.3140  178.2460  146.4550 O   0  0  0  0  0  0  0  0  0  0  0  0
  190.8960  176.4560  143.1620 C   0  0  0  0  0  3  0  0  0  0  0  0
  190.2330  176.4020  147.5080 C   0  0  0  0  0  3  0  0  0  0  0  0
  187.1140  179.0130  141.3550 S   0  0  0  0  0  0  0  0  0  0  0  0
  188.7560  177.1600  142.4080 C   0  0  0  0  0  0  0  0  0  0  0  0
  186.3390  177.8070  145.2680 C   0  0  0  0  0  2  0  0  0  0  0  0
  191.5150  176.4430  146.7820 C   0  0  0  0  0  3  0  0  0  0  0  0
  186.3310  178.6960  142.9410 C   0  0  0  0  0  0  0  0  0  0  0  0
  184.9530  179.0700  143.0910 N   0  0  0  0  0  0  0  0  0  0  0  0
  189.9790  176.6140  142.1760 N   0  0  0  0  0  0  0  0  0  0  0  0
  190.6150  176.8610  144.4650 C   0  0  0  0  0  0  0  0  0  0  0  0
  191.6780  176.6490  145.4700 C   0  0  0  0  0  3  0  0  0  0  0  0
  188.4230  177.1250  139.9850 N   0  0  0  0  0  2  0  0  0  0  0  0
  189.0570  179.0120  138.7860 O   0  0  0  0  0  1  0  0  0  0  0  0
  187.9710  178.1950  139.1060 C   0  0  1  0  0  3  0  0  0  0  0  0
  187.3690  178.6300  136.7080 C   0  0  0  0  0  1  0  0  0  0  0  0
  187.3480  177.6070  137.8320 C   0  0  1  0  0  3  0  0  0  0  0  0
  187.1520  175.2500  137.3240 O   0  0  0  0  0  1  0  0  0  0  0  0
  188.0410  176.3280  137.3470 C   0  0  1  0  0  3  0  0  0  0  0  0
  188.6810  176.5050  135.9780 C   0  0  0  0  0  2  0  0  0  0  0  0
  190.0530  176.0230  135.9940 N   0  0  0  0  0  0  0  0  0  0  0  0
  190.4470  175.9120  137.3880 C   0  0  0  0  0  1  0  0  0  0  0  0
  190.0240  174.6720  135.4640 C   0  0  0  0  0  1  0  0  0  0  0  0
  1  9  2  0  0  0  0
  2  5  1  0  0  0  0
  2  3  1  0  0  0  0
  3  7  1  0  0  0  0
  4 11  2  0  0  0  0
  5 14  1  0  0  0  0
  6  1  1  0  0  0  0
  7  4  1  0  0  0  0
  8 21  1  6  0  0  0
  8 12  1  0  0  0  0
  8 13  1  0  0  0  0
 10 19  1  0  0  0  0
 12 16  1  0  0  0  0
 13  2  2  0  0  0  0
 14  1  1  0  0  0  0
 15 11  1  0  0  0  0
 16 17  1  0  0  0  0
 16  5  2  0  0  0  0
 17  6  2  0  0  0  0
 18 13  1  0  0  0  0
 18 10  2  0  0  0  0
 19  3  2  0  0  0  0
 19 20  1  0  0  0  0
 20 15  2  0  0  0  0
 23 22  1  6  0  0  0
 23 21  1  0  0  0  0
 25 24  1  6  0  0  0
 25 23  1  0  0  0  0
 27 26  1  6  0  0  0
 27 25  1  0  0  0  0
 28 29  1  0  0  0  0
 28 27  1  0  0  0  0
 29 30  1  0  0  0  0
 31 29  1  0  0  0  0
M  END
>  <MODEL>
7

>  <REMARK>
 VINA RESULT:      -8.1      2.730      4.962
  Name = 
  6 active torsions:
  status: ('A' for Active; 'I' for Inactive)
    1  A    between atoms: N_1  and  C_24
    2  A    between atoms: C_9  and  C_22
    3  A    between atoms: C_9  and  N_23
    4  A    between atoms: C_15  and  N_23
    5  A    between atoms: C_19  and  C_22
    6  A    between atoms: C_19  and  C_24
                            x       y       z     vdW  Elec       q    Type
                         _______ _______ _______ _____ _____    ______ ____

>  <TORSDO>
F 6

$$$$
=
 OpenBabel11052413033D

 31 34  0  0  1  0  0  0  0  0999 V2000
  185.7520  179.0030  140.8140 C   0  0  0  0  0  0  0  0  0  0  0  0
  189.1840  177.3410  139.9610 C   0  0  0  0  0  0  0  0  0  0  0  0
  189.2020  177.0530  138.5720 C   0  0  0  0  0  0  0  0  0  0  0  0
  187.8120  177.8660  136.6930 C   0  0  0  0  0  3  0  0  0  0  0  0
  187.9360  177.7410  140.6880 C   0  0  0  0  0  0  0  0  0  0  0  0
  185.7480  178.7100  142.2460 C   0  0  0  0  0  3  0  0  0  0  0  0
  187.9200  176.8870  137.8130 C   0  0  0  0  0  2  0  0  0  0  0  0
  190.4100  177.4890  142.1660 C   0  0  2  0  0  3  0  0  0  0  0  0
  184.7830  179.6170  140.2960 O   0  0  0  0  0  0  0  0  0  0  0  0
  191.5910  176.7070  138.6980 C   0  0  0  0  0  3  0  0  0  0  0  0
  188.6400  177.8620  135.6510 C   0  0  0  0  0  3  0  0  0  0  0  0
  189.0480  176.5360  142.8950 S   0  0  0  0  0  0  0  0  0  0  0  0
  190.3990  177.2490  140.6790 C   0  0  0  0  0  0  0  0  0  0  0  0
  186.9210  178.6040  139.9680 C   0  0  0  0  0  2  0  0  0  0  0  0
  189.8030  176.9680  135.5010 C   0  0  0  0  0  3  0  0  0  0  0  0
  187.8160  177.5060  142.0170 C   0  0  0  0  0  0  0  0  0  0  0  0
  186.7130  178.0260  142.7750 N   0  0  0  0  0  0  0  0  0  0  0  0
  191.5550  176.9440  140.0320 N   0  0  0  0  0  0  0  0  0  0  0  0
  190.4280  176.7630  137.9340 C   0  0  0  0  0  0  0  0  0  0  0  0
  190.5680  176.4900  136.4890 C   0  0  0  0  0  3  0  0  0  0  0  0
  191.6680  177.0620  142.7630 N   0  0  0  0  0  2  0  0  0  0  0  0
  192.0560  175.1150  143.9690 O   0  0  0  0  0  1  0  0  0  0  0  0
  191.3410  176.3140  143.9680 C   0  0  1  0  0  3  0  0  0  0  0  0
  191.5670  178.6280  144.9170 C   0  0  0  0  0  1  0  0  0  0  0  0
  191.6800  177.1420  145.2160 C   0  0  1  0  0  3  0  0  0  0  0  0
  191.5510  176.7550  147.6010 O   0  0  0  0  0  1  0  0  0  0  0  0
  190.7970  176.8130  146.4260 C   0  0  1  0  0  3  0  0  0  0  0  0
  189.6540  177.8050  146.5890 C   0  0  0  0  0  2  0  0  0  0  0  0
  188.4950  177.1500  147.1730 N   0  0  0  0  0  0  0  0  0  0  0  0
  188.2690  177.7640  148.4690 C   0  0  0  0  0  1  0  0  0  0  0  0
  187.3570  177.5030  146.3430 C   0  0  0  0  0  1  0  0  0  0  0  0
  1  6  1  0  0  0  0
  2 13  1  0  0  0  0
  2  5  1  0  0  0  0
  3  2  2  0  0  0  0
  4  7  1  0  0  0  0
  5 16  2  0  0  0  0
  6 17  2  0  0  0  0
  7  3  1  0  0  0  0
  8 21  1  1  0  0  0
  8 12  1  0  0  0  0
  9  1  2  0  0  0  0
 10 18  1  0  0  0  0
 11  4  2  0  0  0  0
 13  8  1  0  0  0  0
 14  5  1  0  0  0  0
 14  1  1  0  0  0  0
 15 11  1  0  0  0  0
 15 20  2  0  0  0  0
 16 17  1  0  0  0  0
 16 12  1  0  0  0  0
 18 13  2  0  0  0  0
 19  3  1  0  0  0  0
 19 10  2  0  0  0  0
 20 19  1  0  0  0  0
 21 23  1  0  0  0  0
 23 22  1  1  0  0  0
 23 25  1  0  0  0  0
 25 24  1  6  0  0  0
 25 27  1  0  0  0  0
 27 28  1  0  0  0  0
 27 26  1  1  0  0  0
 28 29  1  0  0  0  0
 29 30  1  0  0  0  0
 31 29  1  0  0  0  0
M  END
>  <MODEL>
8

>  <REMARK>
 VINA RESULT:      -8.0      2.661      7.602
  Name = 
  6 active torsions:
  status: ('A' for Active; 'I' for Inactive)
    1  A    between atoms: N_1  and  C_24
    2  A    between atoms: C_9  and  C_22
    3  A    between atoms: C_9  and  N_23
    4  A    between atoms: C_15  and  N_23
    5  A    between atoms: C_19  and  C_22
    6  A    between atoms: C_19  and  C_24
                            x       y       z     vdW  Elec       q    Type
                         _______ _______ _______ _____ _____    ______ ____

>  <TORSDO>
F 6

$$$$
=
 OpenBabel11052413033D

 31 34  0  0  1  0  0  0  0  0999 V2000
  183.8560  178.9590  144.9900 C   0  0  0  0  0  0  0  0  0  0  0  0
  185.6650  178.3370  141.5830 C   0  0  0  0  0  0  0  0  0  0  0  0
  184.6780  178.2540  140.5670 C   0  0  0  0  0  0  0  0  0  0  0  0
  182.3020  178.9430  140.5060 C   0  0  0  0  0  3  0  0  0  0  0  0
  185.3280  178.3100  143.0430 C   0  0  0  0  0  0  0  0  0  0  0  0
  184.9260  178.4820  145.8640 C   0  0  0  0  0  3  0  0  0  0  0  0
  183.2670  177.8780  140.9070 C   0  0  0  0  0  2  0  0  0  0  0  0
  188.1020  178.4840  142.2390 C   0  0  2  0  0  3  0  0  0  0  0  0
  182.7780  179.3770  145.4870 O   0  0  0  0  0  0  0  0  0  0  0  0
  186.4080  178.5000  138.8980 C   0  0  0  0  0  3  0  0  0  0  0  0
  182.0960  179.2870  139.2370 C   0  0  0  0  0  3  0  0  0  0  0  0
  187.7850  177.1310  143.4070 S   0  0  0  0  0  0  0  0  0  0  0  0
  187.0200  178.4540  141.1920 C   0  0  0  0  0  0  0  0  0  0  0  0
  184.0530  178.9820  143.5060 C   0  0  0  0  0  2  0  0  0  0  0  0
  182.8350  178.7400  138.0840 C   0  0  0  0  0  3  0  0  0  0  0  0
  186.2400  177.8740  143.9460 C   0  0  0  0  0  0  0  0  0  0  0  0
  186.0150  177.9940  145.3580 N   0  0  0  0  0  0  0  0  0  0  0  0
  187.3460  178.5360  139.8750 N   0  0  0  0  0  0  0  0  0  0  0  0
  185.0580  178.3680  139.2130 C   0  0  0  0  0  0  0  0  0  0  0  0
  184.1110  178.3380  138.0780 C   0  0  0  0  0  3  0  0  0  0  0  0
  189.4200  178.3070  141.6460 N   0  0  0  0  0  2  0  0  0  0  0  0
  190.2050  176.2310  140.9600 O   0  0  0  0  0  1  0  0  0  0  0  0
  189.9180  177.0100  142.0820 C   0  0  1  0  0  3  0  0  0  0  0  0
  191.2880  178.6230  143.4330 C   0  0  0  0  0  1  0  0  0  0  0  0
  191.1730  177.1870  142.9480 C   0  0  1  0  0  3  0  0  0  0  0  0
  192.0830  175.1800  143.9460 O   0  0  0  0  0  1  0  0  0  0  0  0
  191.2130  176.2520  144.1630 C   0  0  1  0  0  3  0  0  0  0  0  0
  191.5990  176.9850  145.4390 C   0  0  0  0  0  2  0  0  0  0  0  0
  190.8090  176.5000  146.5600 N   0  0  0  0  0  0  0  0  0  0  0  0
  191.6800  176.4900  147.7210 C   0  0  0  0  0  1  0  0  0  0  0  0
  189.7900  177.5020  146.8140 C   0  0  0  0  0  1  0  0  0  0  0  0
  1  9  2  0  0  0  0
  1  6  1  0  0  0  0
  2  5  1  0  0  0  0
  3  7  1  0  0  0  0
  3  2  2  0  0  0  0
  4  7  1  0  0  0  0
  5 14  1  0  0  0  0
  5 16  2  0  0  0  0
  8 21  1  6  0  0  0
  8 12  1  0  0  0  0
 10 19  2  0  0  0  0
 10 18  1  0  0  0  0
 11  4  2  0  0  0  0
 12 16  1  0  0  0  0
 13  2  1  0  0  0  0
 13  8  1  0  0  0  0
 14  1  1  0  0  0  0
 15 11  1  0  0  0  0
 16 17  1  0  0  0  0
 17  6  2  0  0  0  0
 18 13  2  0  0  0  0
 19  3  1  0  0  0  0
 20 15  2  0  0  0  0
 20 19  1  0  0  0  0
 21 23  1  0  0  0  0
 23 22  1  6  0  0  0
 23 25  1  0  0  0  0
 25 24  1  1  0  0  0
 25 27  1  0  0  0  0
 27 26  1  6  0  0  0
 27 28  1  0  0  0  0
 28 29  1  0  0  0  0
 29 31  1  0  0  0  0
 29 30  1  0  0  0  0
M  END
>  <MODEL>
9

>  <REMARK>
 VINA RESULT:      -7.9      3.283      5.764
  Name = 
  6 active torsions:
  status: ('A' for Active; 'I' for Inactive)
    1  A    between atoms: N_1  and  C_24
    2  A    between atoms: C_9  and  C_22
    3  A    between atoms: C_9  and  N_23
    4  A    between atoms: C_15  and  N_23
    5  A    between atoms: C_19  and  C_22
    6  A    between atoms: C_19  and  C_24
                            x       y       z     vdW  Elec       q    Type
                         _______ _______ _______ _____ _____    ______ ____

>  <TORSDO>
F 6

$$$$
