=
 OpenBabel11052413263D

 28 32  0  0  1  0  0  0  0  0999 V2000
  187.3980  177.8660  144.1310 C   0  0  0  0  0  0  0  0  0  0  0  0
  186.2960  178.1650  143.2550 N   0  0  0  0  0  0  0  0  0  0  0  0
  187.8630  178.1680  141.3260 C   0  0  0  0  0  0  0  0  0  0  0  0
  191.7200  177.2480  139.6160 C   0  0  0  0  0  2  0  0  0  0  0  0
  190.4930  176.5340  146.5250 O   0  0  0  0  0  0  0  0  0  0  0  0
  186.5550  178.6530  141.8880 C   0  0  0  0  0  2  0  0  0  0  0  0
  189.4290  177.9680  137.9110 C   0  0  0  0  0  3  0  0  0  0  0  0
  190.1610  177.3820  141.5950 C   0  0  0  0  0  0  0  0  0  0  0  0
  190.6120  175.7820  137.7960 C   0  0  1  0  0  3  0  0  0  0  0  0
  190.3540  177.4750  140.2060 C   0  0  0  0  0  0  0  0  0  0  0  0
  188.0670  178.2590  139.9490 C   0  0  0  0  0  3  0  0  0  0  0  0
  190.0670  177.0420  137.1890 C   0  0  0  0  0  3  0  0  0  0  0  0
  189.7890  177.1700  144.3480 C   0  0  0  0  0  0  0  0  0  0  0  0
  188.9090  177.7230  142.1570 C   0  0  0  0  0  0  0  0  0  0  0  0
  189.2880  177.8910  139.3790 C   0  0  0  0  0  0  0  0  0  0  0  0
  188.3140  177.4960  146.4420 C   0  0  0  0  0  2  0  0  0  0  0  0
  191.0150  176.8570  143.7530 C   0  0  0  0  0  3  0  0  0  0  0  0
  189.5860  177.0210  145.8000 C   0  0  0  0  0  0  0  0  0  0  0  0
  191.0030  174.8130  136.7010 C   0  0  0  0  0  1  0  0  0  0  0  0
  191.8040  175.9980  138.7340 C   0  0  0  0  0  2  0  0  0  0  0  0
  191.1730  176.9700  142.4080 N   0  0  0  0  0  0  0  0  0  0  0  0
  187.2080  177.7680  145.4550 C   0  0  0  0  0  3  0  0  0  0  0  0
  188.7290  177.6090  143.5420 C   0  0  0  0  0  0  0  0  0  0  0  0
  184.0520  178.2770  142.6520 C   0  0  0  0  0  1  0  0  0  0  0  0
  184.9790  178.1430  143.7690 N   0  0  0  0  0  0  0  0  0  0  0  0
  184.7940  179.2820  144.6690 C   0  0  0  0  0  3  0  0  0  0  0  0
  184.6670  180.4500  143.9350 F   0  0  0  0  0  0  0  0  0  0  0  0
  183.6470  179.1100  145.4260 F   0  0  0  0  0  0  0  0  0  0  0  0
  1 22  2  0  0  0  0
  2 25  1  0  0  0  0
  2  1  1  0  0  0  0
  3  6  1  0  0  0  0
  3 14  1  0  0  0  0
  4 10  1  0  0  0  0
  6  2  1  0  0  0  0
  7 15  1  0  0  0  0
  8 14  2  0  0  0  0
  8 21  1  0  0  0  0
  9 19  1  6  0  0  0
  9 20  1  0  0  0  0
 10  8  1  0  0  0  0
 11  3  2  0  0  0  0
 12  9  1  0  0  0  0
 12  7  2  0  0  0  0
 13 18  1  0  0  0  0
 14 23  1  0  0  0  0
 15 11  1  0  0  0  0
 15 10  2  0  0  0  0
 17 13  1  0  0  0  0
 18 16  1  0  0  0  0
 18  5  2  0  0  0  0
 20  4  1  0  0  0  0
 21 17  2  0  0  0  0
 22 16  1  0  0  0  0
 23  1  1  0  0  0  0
 23 13  2  0  0  0  0
 24 25  1  0  0  0  0
 25 26  1  0  0  0  0
 26 28  1  0  0  0  0
 27 26  1  0  0  0  0
M  END
>  <MODEL>
1

>  <REMARK>
 VINA RESULT:     -10.0      0.000      0.000
  Name = 
  2 active torsions:
  status: ('A' for Active; 'I' for Inactive)
    1  A    between atoms: N_2  and  N_11
    2  A    between atoms: C_6  and  N_11
                            x       y       z     vdW  Elec       q    Type
                         _______ _______ _______ _____ _____    ______ ____

>  <TORSDO>
F 2

$$$$
=
 OpenBabel11052413263D

 28 32  0  0  1  0  0  0  0  0999 V2000
  189.3350  177.4700  144.5790 C   0  0  0  0  0  0  0  0  0  0  0  0
  188.4400  177.3640  145.7030 N   0  0  0  0  0  0  0  0  0  0  0  0
  186.5830  178.1810  144.2680 C   0  0  0  0  0  0  0  0  0  0  0  0
  184.9630  179.0820  140.3670 C   0  0  0  0  0  2  0  0  0  0  0  0
  191.7410  177.3250  141.2220 O   0  0  0  0  0  0  0  0  0  0  0  0
  187.1280  178.0340  145.6620 C   0  0  0  0  0  2  0  0  0  0  0  0
  183.2290  178.9420  142.7430 C   0  0  0  0  0  3  0  0  0  0  0  0
  186.8830  178.3890  141.8520 C   0  0  0  0  0  0  0  0  0  0  0  0
  182.9920  177.4550  140.7620 C   0  0  1  0  0  3  0  0  0  0  0  0
  185.5130  178.6750  141.7080 C   0  0  0  0  0  0  0  0  0  0  0  0
  185.2260  178.4670  144.1130 C   0  0  0  0  0  3  0  0  0  0  0  0
  182.4640  178.4270  141.7760 C   0  0  0  0  0  3  0  0  0  0  0  0
  189.5940  177.8030  142.1160 C   0  0  0  0  0  0  0  0  0  0  0  0
  187.4180  178.1340  143.1350 C   0  0  0  0  0  0  0  0  0  0  0  0
  184.6790  178.6860  142.8470 C   0  0  0  0  0  0  0  0  0  0  0  0
  191.6450  177.3100  143.6040 C   0  0  0  0  0  2  0  0  0  0  0  0
  189.0260  178.0760  140.8670 C   0  0  0  0  0  3  0  0  0  0  0  0
  191.0200  177.4580  142.2460 C   0  0  0  0  0  0  0  0  0  0  0  0
  181.8420  176.8330  140.0000 C   0  0  0  0  0  1  0  0  0  0  0  0
  183.9910  178.0600  139.7700 C   0  0  0  0  0  2  0  0  0  0  0  0
  187.7010  178.3610  140.7630 N   0  0  0  0  0  0  0  0  0  0  0  0
  190.6390  177.1880  144.7180 C   0  0  0  0  0  3  0  0  0  0  0  0
  188.7820  177.8360  143.2590 C   0  0  0  0  0  0  0  0  0  0  0  0
  187.7950  176.7400  147.8480 C   0  0  0  0  0  1  0  0  0  0  0  0
  188.8980  176.7580  146.8950 N   0  0  0  0  0  0  0  0  0  0  0  0
  189.9880  177.5590  147.4560 C   0  0  0  0  0  3  0  0  0  0  0  0
  189.5250  178.3020  148.5290 F   0  0  0  0  0  0  0  0  0  0  0  0
  191.0070  176.7330  147.8990 F   0  0  0  0  0  0  0  0  0  0  0  0
  1 22  2  0  0  0  0
  1  2  1  0  0  0  0
  2 25  1  0  0  0  0
  3  6  1  0  0  0  0
  4 10  1  0  0  0  0
  5 18  2  0  0  0  0
  6  2  1  0  0  0  0
  7 15  1  0  0  0  0
  8 14  1  0  0  0  0
  9 19  1  6  0  0  0
  9 12  1  0  0  0  0
 10  8  2  0  0  0  0
 10 15  1  0  0  0  0
 11  3  1  0  0  0  0
 12  7  2  0  0  0  0
 13 18  1  0  0  0  0
 13 23  2  0  0  0  0
 14 23  1  0  0  0  0
 14  3  2  0  0  0  0
 15 11  2  0  0  0  0
 16 22  1  0  0  0  0
 17 13  1  0  0  0  0
 18 16  1  0  0  0  0
 20  4  1  0  0  0  0
 20  9  1  0  0  0  0
 21 17  2  0  0  0  0
 21  8  1  0  0  0  0
 23  1  1  0  0  0  0
 25 26  1  0  0  0  0
 25 24  1  0  0  0  0
 26 28  1  0  0  0  0
 26 27  1  0  0  0  0
M  END
>  <MODEL>
2

>  <REMARK>
 VINA RESULT:      -9.6      3.157      5.690
  Name = 
  2 active torsions:
  status: ('A' for Active; 'I' for Inactive)
    1  A    between atoms: N_2  and  N_11
    2  A    between atoms: C_6  and  N_11
                            x       y       z     vdW  Elec       q    Type
                         _______ _______ _______ _____ _____    ______ ____

>  <TORSDO>
F 2

$$$$
=
 OpenBabel11052413263D

 28 32  0  0  1  0  0  0  0  0999 V2000
  187.7390  177.7210  144.5500 C   0  0  0  0  0  0  0  0  0  0  0  0
  186.4140  178.0580  145.0000 N   0  0  0  0  0  0  0  0  0  0  0  0
  185.7910  178.6210  142.6620 C   0  0  0  0  0  0  0  0  0  0  0  0
  186.6050  178.5050  138.4220 C   0  0  0  0  0  2  0  0  0  0  0  0
  191.3610  176.3080  143.1460 O   0  0  0  0  0  0  0  0  0  0  0  0
  185.5160  178.8330  144.1250 C   0  0  0  0  0  2  0  0  0  0  0  0
  183.9540  179.2790  139.4450 C   0  0  0  0  0  3  0  0  0  0  0  0
  187.2870  178.0670  140.8120 C   0  0  0  0  0  0  0  0  0  0  0  0
  184.3560  177.3090  137.9780 C   0  0  1  0  0  3  0  0  0  0  0  0
  186.2950  178.4540  139.8940 C   0  0  0  0  0  0  0  0  0  0  0  0
  184.8130  179.0040  141.7420 C   0  0  0  0  0  3  0  0  0  0  0  0
  183.6650  178.5930  138.3340 C   0  0  0  0  0  3  0  0  0  0  0  0
  189.2580  177.2750  142.6160 C   0  0  0  0  0  0  0  0  0  0  0  0
  187.0320  178.1440  142.2000 C   0  0  0  0  0  0  0  0  0  0  0  0
  185.0420  178.8990  140.3680 C   0  0  0  0  0  0  0  0  0  0  0  0
  190.0990  177.0110  145.0420 C   0  0  0  0  0  2  0  0  0  0  0  0
  189.4740  177.2290  141.2350 C   0  0  0  0  0  3  0  0  0  0  0  0
  190.2890  176.8210  143.5650 C   0  0  0  0  0  0  0  0  0  0  0  0
  183.6180  176.6270  136.8460 C   0  0  0  0  0  1  0  0  0  0  0  0
  185.8320  177.4720  137.5980 C   0  0  0  0  0  2  0  0  0  0  0  0
  188.4980  177.6220  140.3740 N   0  0  0  0  0  0  0  0  0  0  0  0
  188.6810  177.3430  145.4270 C   0  0  0  0  0  3  0  0  0  0  0  0
  188.0270  177.7390  143.1010 C   0  0  0  0  0  0  0  0  0  0  0  0
  184.6410  178.1280  146.5040 C   0  0  0  0  0  1  0  0  0  0  0  0
  186.0490  177.7840  146.3390 N   0  0  0  0  0  0  0  0  0  0  0  0
  186.8440  178.6230  147.2370 C   0  0  0  0  0  3  0  0  0  0  0  0
  186.1060  179.7260  147.6310 F   0  0  0  0  0  0  0  0  0  0  0  0
  187.2020  177.9050  148.3650 F   0  0  0  0  0  0  0  0  0  0  0  0
  1  2  1  0  0  0  0
  1 22  2  0  0  0  0
  2 25  1  0  0  0  0
  3  6  1  0  0  0  0
  4 10  1  0  0  0  0
  5 18  2  0  0  0  0
  6  2  1  0  0  0  0
  7 15  1  0  0  0  0
  8 14  1  0  0  0  0
  9 19  1  6  0  0  0
  9 12  1  0  0  0  0
 10 15  2  0  0  0  0
 10  8  1  0  0  0  0
 11  3  2  0  0  0  0
 12  7  2  0  0  0  0
 13 23  1  0  0  0  0
 13 18  1  0  0  0  0
 14  3  1  0  0  0  0
 14 23  2  0  0  0  0
 15 11  1  0  0  0  0
 16 22  1  0  0  0  0
 17 13  2  0  0  0  0
 18 16  1  0  0  0  0
 20  9  1  0  0  0  0
 20  4  1  0  0  0  0
 21  8  2  0  0  0  0
 21 17  1  0  0  0  0
 23  1  1  0  0  0  0
 25 24  1  0  0  0  0
 25 26  1  0  0  0  0
 26 27  1  0  0  0  0
 26 28  1  0  0  0  0
M  END
>  <MODEL>
3

>  <REMARK>
 VINA RESULT:      -8.7      2.617      4.011
  Name = 
  2 active torsions:
  status: ('A' for Active; 'I' for Inactive)
    1  A    between atoms: N_2  and  N_11
    2  A    between atoms: C_6  and  N_11
                            x       y       z     vdW  Elec       q    Type
                         _______ _______ _______ _____ _____    ______ ____

>  <TORSDO>
F 2

$$$$
=
 OpenBabel11052413263D

 28 32  0  0  1  0  0  0  0  0999 V2000
  187.2940  177.8710  143.1620 C   0  0  0  0  0  0  0  0  0  0  0  0
  186.0060  178.2750  142.6610 N   0  0  0  0  0  0  0  0  0  0  0  0
  186.9500  178.3440  140.3640 C   0  0  0  0  0  0  0  0  0  0  0  0
  190.0900  177.3830  137.5590 C   0  0  0  0  0  2  0  0  0  0  0  0
  190.8610  176.2510  144.4790 O   0  0  0  0  0  0  0  0  0  0  0  0
  185.8910  178.8450  141.3060 C   0  0  0  0  0  2  0  0  0  0  0  0
  187.4530  178.3130  136.6350 C   0  0  0  0  0  3  0  0  0  0  0  0
  189.1770  177.4460  139.9110 C   0  0  0  0  0  0  0  0  0  0  0  0
  188.4200  176.0920  136.0650 C   0  0  1  0  0  3  0  0  0  0  0  0
  188.9680  177.6260  138.5320 C   0  0  0  0  0  0  0  0  0  0  0  0
  186.7540  178.5200  138.9930 C   0  0  0  0  0  3  0  0  0  0  0  0
  187.8010  177.4120  135.7110 C   0  0  0  0  0  3  0  0  0  0  0  0
  189.6000  177.0620  142.6380 C   0  0  0  0  0  0  0  0  0  0  0  0
  188.1620  177.8000  140.8290 C   0  0  0  0  0  0  0  0  0  0  0  0
  187.7360  178.1420  138.0740 C   0  0  0  0  0  0  0  0  0  0  0  0
  188.8110  177.3070  145.0840 C   0  0  0  0  0  2  0  0  0  0  0  0
  190.5820  176.7400  141.6960 C   0  0  0  0  0  3  0  0  0  0  0  0
  189.8140  176.8240  144.0760 C   0  0  0  0  0  0  0  0  0  0  0  0
  188.4220  175.1850  134.8530 C   0  0  0  0  0  1  0  0  0  0  0  0
  189.8430  176.1940  136.6260 C   0  0  0  0  0  2  0  0  0  0  0  0
  190.3540  176.9380  140.3710 N   0  0  0  0  0  0  0  0  0  0  0  0
  187.4870  177.6920  144.4770 C   0  0  0  0  0  3  0  0  0  0  0  0
  188.3810  177.5990  142.1990 C   0  0  0  0  0  0  0  0  0  0  0  0
  183.6830  178.1910  142.7260 C   0  0  0  0  0  1  0  0  0  0  0  0
  184.8940  178.2730  143.5340 N   0  0  0  0  0  0  0  0  0  0  0  0
  184.8690  179.5290  144.2870 C   0  0  0  0  0  3  0  0  0  0  0  0
  183.7020  180.2220  144.0130 F   0  0  0  0  0  0  0  0  0  0  0  0
  184.9210  179.2700  145.6450 F   0  0  0  0  0  0  0  0  0  0  0  0
  1 22  2  0  0  0  0
  2  1  1  0  0  0  0
  2 25  1  0  0  0  0
  3 14  1  0  0  0  0
  3  6  1  0  0  0  0
  4 10  1  0  0  0  0
  6  2  1  0  0  0  0
  7 15  1  0  0  0  0
  8 21  2  0  0  0  0
  8 14  1  0  0  0  0
  9 19  1  6  0  0  0
  9 20  1  0  0  0  0
 10  8  1  0  0  0  0
 11  3  2  0  0  0  0
 12  9  1  0  0  0  0
 12  7  2  0  0  0  0
 13 18  1  0  0  0  0
 14 23  2  0  0  0  0
 15 10  2  0  0  0  0
 15 11  1  0  0  0  0
 17 13  2  0  0  0  0
 18  5  2  0  0  0  0
 18 16  1  0  0  0  0
 20  4  1  0  0  0  0
 21 17  1  0  0  0  0
 22 16  1  0  0  0  0
 23 13  1  0  0  0  0
 23  1  1  0  0  0  0
 24 25  1  0  0  0  0
 25 26  1  0  0  0  0
 26 28  1  0  0  0  0
 27 26  1  0  0  0  0
M  END
>  <MODEL>
4

>  <REMARK>
 VINA RESULT:      -8.5      1.420      1.853
  Name = 
  2 active torsions:
  status: ('A' for Active; 'I' for Inactive)
    1  A    between atoms: N_2  and  N_11
    2  A    between atoms: C_6  and  N_11
                            x       y       z     vdW  Elec       q    Type
                         _______ _______ _______ _____ _____    ______ ____

>  <TORSDO>
F 2

$$$$
=
 OpenBabel11052413263D

 28 32  0  0  1  0  0  0  0  0999 V2000
  190.6500  177.3950  140.5300 C   0  0  0  0  0  0  0  0  0  0  0  0
  190.3330  177.5900  141.9210 N   0  0  0  0  0  0  0  0  0  0  0  0
  188.0400  178.2950  141.2730 C   0  0  0  0  0  0  0  0  0  0  0  0
  184.8880  178.5920  138.3350 C   0  0  0  0  0  2  0  0  0  0  0  0
  191.3560  176.3860  136.5850 O   0  0  0  0  0  0  0  0  0  0  0  0
  189.1360  178.3630  142.3000 C   0  0  0  0  0  2  0  0  0  0  0  0
  184.3600  179.0720  141.1930 C   0  0  0  0  0  3  0  0  0  0  0  0
  187.2590  178.0120  138.9750 C   0  0  0  0  0  0  0  0  0  0  0  0
  183.2780  177.2670  139.8650 C   0  0  1  0  0  3  0  0  0  0  0  0
  185.9650  178.3950  139.3680 C   0  0  0  0  0  0  0  0  0  0  0  0
  186.7520  178.6760  141.6520 C   0  0  0  0  0  3  0  0  0  0  0  0
  183.2480  178.4600  140.7750 C   0  0  0  0  0  3  0  0  0  0  0  0
  189.8130  177.2280  138.1810 C   0  0  0  0  0  0  0  0  0  0  0  0
  188.2980  177.9540  139.9310 C   0  0  0  0  0  0  0  0  0  0  0  0
  185.7090  178.7020  140.7230 C   0  0  0  0  0  0  0  0  0  0  0  0
  192.3050  176.8310  138.7250 C   0  0  0  0  0  2  0  0  0  0  0  0
  188.7590  177.3130  137.2650 C   0  0  0  0  0  3  0  0  0  0  0  0
  191.1520  176.7790  137.7640 C   0  0  0  0  0  0  0  0  0  0  0  0
  181.9080  176.6260  139.8140 C   0  0  0  0  0  1  0  0  0  0  0  0
  183.7490  177.5740  138.4390 C   0  0  0  0  0  2  0  0  0  0  0  0
  187.5230  177.6990  137.6750 N   0  0  0  0  0  0  0  0  0  0  0  0
  191.8830  177.0200  140.1590 C   0  0  0  0  0  3  0  0  0  0  0  0
  189.5790  177.5550  139.5250 C   0  0  0  0  0  0  0  0  0  0  0  0
  190.8810  175.8470  143.3610 C   0  0  0  0  0  1  0  0  0  0  0  0
  191.2620  177.1790  142.9050 N   0  0  0  0  0  0  0  0  0  0  0  0
  191.1970  178.0980  144.0430 C   0  0  0  0  0  3  0  0  0  0  0  0
  191.7120  177.4890  145.1740 F   0  0  0  0  0  0  0  0  0  0  0  0
  191.9390  179.2370  143.7770 F   0  0  0  0  0  0  0  0  0  0  0  0
  1  2  1  0  0  0  0
  2  6  1  0  0  0  0
  2 25  1  0  0  0  0
  3 11  1  0  0  0  0
  3  6  1  0  0  0  0
  4 20  1  0  0  0  0
  4 10  1  0  0  0  0
  5 18  2  0  0  0  0
  8 10  2  0  0  0  0
  8 14  1  0  0  0  0
  9 19  1  6  0  0  0
  9 12  1  0  0  0  0
 10 15  1  0  0  0  0
 12  7  2  0  0  0  0
 13 23  2  0  0  0  0
 14  3  2  0  0  0  0
 15  7  1  0  0  0  0
 15 11  2  0  0  0  0
 16 22  1  0  0  0  0
 17 21  2  0  0  0  0
 17 13  1  0  0  0  0
 18 13  1  0  0  0  0
 18 16  1  0  0  0  0
 20  9  1  0  0  0  0
 21  8  1  0  0  0  0
 22  1  2  0  0  0  0
 23 14  1  0  0  0  0
 23  1  1  0  0  0  0
 25 24  1  0  0  0  0
 25 26  1  0  0  0  0
 26 27  1  0  0  0  0
 28 26  1  0  0  0  0
M  END
>  <MODEL>
5

>  <REMARK>
 VINA RESULT:      -8.4      3.527      6.502
  Name = 
  2 active torsions:
  status: ('A' for Active; 'I' for Inactive)
    1  A    between atoms: N_2  and  N_11
    2  A    between atoms: C_6  and  N_11
                            x       y       z     vdW  Elec       q    Type
                         _______ _______ _______ _____ _____    ______ ____

>  <TORSDO>
F 2

$$$$
=
 OpenBabel11052413263D

 28 32  0  0  1  0  0  0  0  0999 V2000
  186.5590  178.3860  140.6520 C   0  0  0  0  0  0  0  0  0  0  0  0
  187.8070  178.2340  139.9510 N   0  0  0  0  0  0  0  0  0  0  0  0
  189.0060  178.2860  142.1270 C   0  0  0  0  0  0  0  0  0  0  0  0
  188.9780  178.0770  146.4400 C   0  0  0  0  0  2  0  0  0  0  0  0
  182.9850  178.3310  142.7270 O   0  0  0  0  0  0  0  0  0  0  0  0
  189.0770  178.5180  140.6430 C   0  0  0  0  0  2  0  0  0  0  0  0
  191.4930  177.8780  144.9200 C   0  0  0  0  0  3  0  0  0  0  0  0
  187.7660  178.1670  144.2280 C   0  0  0  0  0  0  0  0  0  0  0  0
  190.6160  176.0770  146.3970 C   0  0  1  0  0  3  0  0  0  0  0  0
  188.9760  178.0550  144.9350 C   0  0  0  0  0  0  0  0  0  0  0  0
  190.2020  178.1760  142.8380 C   0  0  0  0  0  3  0  0  0  0  0  0
  191.6810  177.0280  145.9350 C   0  0  0  0  0  3  0  0  0  0  0  0
  185.3570  178.3660  142.8430 C   0  0  0  0  0  0  0  0  0  0  0  0
  187.7810  178.2760  142.8190 C   0  0  0  0  0  0  0  0  0  0  0  0
  190.1980  178.0330  144.2280 C   0  0  0  0  0  0  0  0  0  0  0  0
  184.0640  178.6810  140.6310 C   0  0  0  0  0  2  0  0  0  0  0  0
  185.3890  178.2710  144.2380 C   0  0  0  0  0  3  0  0  0  0  0  0
  184.0790  178.4350  142.1120 C   0  0  0  0  0  0  0  0  0  0  0  0
  191.2150  175.0580  147.3430 C   0  0  0  0  0  1  0  0  0  0  0  0
  189.4160  176.7520  147.0710 C   0  0  0  0  0  2  0  0  0  0  0  0
  186.5760  178.1770  144.8920 N   0  0  0  0  0  0  0  0  0  0  0  0
  185.4050  178.4830  139.9750 C   0  0  0  0  0  3  0  0  0  0  0  0
  186.5640  178.3710  142.1290 C   0  0  0  0  0  0  0  0  0  0  0  0
  188.2980  176.6220  138.3470 C   0  0  0  0  0  1  0  0  0  0  0  0
  187.7920  177.9730  138.5610 N   0  0  0  0  0  0  0  0  0  0  0  0
  188.6800  178.9180  137.8830 C   0  0  0  0  0  3  0  0  0  0  0  0
  189.8030  178.2590  137.4120 F   0  0  0  0  0  0  0  0  0  0  0  0
  188.0260  179.4990  136.8090 F   0  0  0  0  0  0  0  0  0  0  0  0
  1 23  1  0  0  0  0
  2  6  1  0  0  0  0
  2  1  1  0  0  0  0
  3 14  2  0  0  0  0
  3 11  1  0  0  0  0
  4 20  1  0  0  0  0
  6  3  1  0  0  0  0
  7 12  2  0  0  0  0
  8 21  1  0  0  0  0
  8 10  2  0  0  0  0
  9 20  1  0  0  0  0
  9 19  1  1  0  0  0
 10  4  1  0  0  0  0
 11 15  2  0  0  0  0
 12  9  1  0  0  0  0
 13 17  1  0  0  0  0
 14  8  1  0  0  0  0
 15  7  1  0  0  0  0
 15 10  1  0  0  0  0
 16 18  1  0  0  0  0
 17 21  2  0  0  0  0
 18  5  2  0  0  0  0
 18 13  1  0  0  0  0
 22 16  1  0  0  0  0
 22  1  2  0  0  0  0
 23 14  1  0  0  0  0
 23 13  2  0  0  0  0
 24 25  1  0  0  0  0
 25  2  1  0  0  0  0
 26 25  1  0  0  0  0
 27 26  1  0  0  0  0
 28 26  1  0  0  0  0
M  END
>  <MODEL>
6

>  <REMARK>
 VINA RESULT:      -8.4      3.417      6.456
  Name = 
  2 active torsions:
  status: ('A' for Active; 'I' for Inactive)
    1  A    between atoms: N_2  and  N_11
    2  A    between atoms: C_6  and  N_11
                            x       y       z     vdW  Elec       q    Type
                         _______ _______ _______ _____ _____    ______ ____

>  <TORSDO>
F 2

$$$$
=
 OpenBabel11052413263D

 28 32  0  0  1  0  0  0  0  0999 V2000
  184.4530  178.5970  142.0560 C   0  0  0  0  0  0  0  0  0  0  0  0
  184.9640  178.3950  140.7260 N   0  0  0  0  0  0  0  0  0  0  0  0
  187.2690  178.3210  141.6520 C   0  0  0  0  0  0  0  0  0  0  0  0
  189.9620  177.9960  145.0120 C   0  0  0  0  0  2  0  0  0  0  0  0
  183.0010  178.6850  145.9250 O   0  0  0  0  0  0  0  0  0  0  0  0
  186.4000  178.5900  140.4540 C   0  0  0  0  0  2  0  0  0  0  0  0
  190.9310  177.6980  142.2470 C   0  0  0  0  0  3  0  0  0  0  0  0
  187.6330  178.2140  144.0650 C   0  0  0  0  0  0  0  0  0  0  0  0
  191.0790  175.9100  143.9710 C   0  0  1  0  0  3  0  0  0  0  0  0
  189.0080  178.0150  143.8480 C   0  0  0  0  0  0  0  0  0  0  0  0
  188.6360  178.1250  141.4480 C   0  0  0  0  0  3  0  0  0  0  0  0
  191.6670  176.8130  142.9270 C   0  0  0  0  0  3  0  0  0  0  0  0
  184.9080  178.5850  144.5140 C   0  0  0  0  0  0  0  0  0  0  0  0
  186.7600  178.3600  142.9630 C   0  0  0  0  0  0  0  0  0  0  0  0
  189.5030  177.9440  142.5280 C   0  0  0  0  0  0  0  0  0  0  0  0
  182.5300  179.0320  143.6140 C   0  0  0  0  0  2  0  0  0  0  0  0
  185.8090  178.4500  145.5750 C   0  0  0  0  0  3  0  0  0  0  0  0
  183.4640  178.7450  144.7550 C   0  0  0  0  0  0  0  0  0  0  0  0
  192.0780  174.8340  144.3390 C   0  0  0  0  0  1  0  0  0  0  0  0
  190.6190  176.6320  145.2420 C   0  0  0  0  0  2  0  0  0  0  0  0
  187.1340  178.2720  145.3320 N   0  0  0  0  0  0  0  0  0  0  0  0
  183.1390  178.7770  142.2600 C   0  0  0  0  0  3  0  0  0  0  0  0
  185.3890  178.5420  143.1970 C   0  0  0  0  0  0  0  0  0  0  0  0
  184.8280  177.8290  138.4740 C   0  0  0  0  0  1  0  0  0  0  0  0
  184.0580  178.1740  139.6630 N   0  0  0  0  0  0  0  0  0  0  0  0
  183.3160  179.4080  139.3970 C   0  0  0  0  0  3  0  0  0  0  0  0
  184.1690  180.3730  138.8900 F   0  0  0  0  0  0  0  0  0  0  0  0
  182.3160  179.1710  138.4700 F   0  0  0  0  0  0  0  0  0  0  0  0
  1 22  2  0  0  0  0
  1 23  1  0  0  0  0
  2  1  1  0  0  0  0
  3 14  1  0  0  0  0
  4 20  1  0  0  0  0
  6  2  1  0  0  0  0
  6  3  1  0  0  0  0
  7 15  1  0  0  0  0
  7 12  2  0  0  0  0
  8 21  1  0  0  0  0
  9 19  1  1  0  0  0
  9 20  1  0  0  0  0
 10  8  1  0  0  0  0
 10  4  1  0  0  0  0
 11  3  2  0  0  0  0
 11 15  1  0  0  0  0
 12  9  1  0  0  0  0
 13 18  1  0  0  0  0
 13 17  1  0  0  0  0
 14 23  1  0  0  0  0
 14  8  2  0  0  0  0
 15 10  2  0  0  0  0
 16 18  1  0  0  0  0
 18  5  2  0  0  0  0
 21 17  2  0  0  0  0
 22 16  1  0  0  0  0
 23 13  2  0  0  0  0
 24 25  1  0  0  0  0
 25  2  1  0  0  0  0
 26 25  1  0  0  0  0
 27 26  1  0  0  0  0
 28 26  1  0  0  0  0
M  END
>  <MODEL>
7

>  <REMARK>
 VINA RESULT:      -8.4      3.368      5.057
  Name = 
  2 active torsions:
  status: ('A' for Active; 'I' for Inactive)
    1  A    between atoms: N_2  and  N_11
    2  A    between atoms: C_6  and  N_11
                            x       y       z     vdW  Elec       q    Type
                         _______ _______ _______ _____ _____    ______ ____

>  <TORSDO>
F 2

$$$$
=
 OpenBabel11052413263D

 28 32  0  0  1  0  0  0  0  0999 V2000
  189.4530  177.5450  141.9870 C   0  0  0  0  0  0  0  0  0  0  0  0
  188.9680  177.4550  143.3390 N   0  0  0  0  0  0  0  0  0  0  0  0
  186.7520  178.2750  142.5700 C   0  0  0  0  0  0  0  0  0  0  0  0
  183.9670  179.1580  139.3900 C   0  0  0  0  0  2  0  0  0  0  0  0
  190.6510  177.3530  138.0350 O   0  0  0  0  0  0  0  0  0  0  0  0
  187.7160  178.1350  143.7160 C   0  0  0  0  0  2  0  0  0  0  0  0
  183.0890  179.0510  142.1990 C   0  0  0  0  0  3  0  0  0  0  0  0
  186.2590  178.4620  140.1840 C   0  0  0  0  0  0  0  0  0  0  0  0
  182.2200  177.5510  140.4140 C   0  0  1  0  0  3  0  0  0  0  0  0
  184.9180  178.7570  140.4860 C   0  0  0  0  0  0  0  0  0  0  0  0
  185.4190  178.5710  142.8580 C   0  0  0  0  0  3  0  0  0  0  0  0
  182.0510  178.5350  141.5340 C   0  0  0  0  0  3  0  0  0  0  0  0
  188.9070  177.8550  139.5680 C   0  0  0  0  0  0  0  0  0  0  0  0
  187.1770  178.2130  141.2300 C   0  0  0  0  0  0  0  0  0  0  0  0
  184.4940  178.7850  141.8320 C   0  0  0  0  0  0  0  0  0  0  0  0
  191.3260  177.3580  140.3210 C   0  0  0  0  0  2  0  0  0  0  0  0
  187.9690  178.1230  138.5660 C   0  0  0  0  0  3  0  0  0  0  0  0
  190.2980  177.5000  139.2360 C   0  0  0  0  0  0  0  0  0  0  0  0
  180.8820  176.9320  140.0690 C   0  0  0  0  0  1  0  0  0  0  0  0
  182.8500  178.1400  139.1470 C   0  0  0  0  0  2  0  0  0  0  0  0
  186.6830  178.4180  138.8910 N   0  0  0  0  0  0  0  0  0  0  0  0
  190.7310  177.2530  141.7020 C   0  0  0  0  0  3  0  0  0  0  0  0
  188.5070  177.9040  140.9110 C   0  0  0  0  0  0  0  0  0  0  0  0
  189.0510  176.8710  145.5890 C   0  0  0  0  0  1  0  0  0  0  0  0
  189.7820  176.8540  144.3270 N   0  0  0  0  0  0  0  0  0  0  0  0
  191.0070  177.6400  144.4860 C   0  0  0  0  0  3  0  0  0  0  0  0
  190.6910  178.9750  144.6760 F   0  0  0  0  0  0  0  0  0  0  0  0
  191.7190  177.1940  145.5860 F   0  0  0  0  0  0  0  0  0  0  0  0
  1  2  1  0  0  0  0
  2  6  1  0  0  0  0
  2 25  1  0  0  0  0
  3 11  1  0  0  0  0
  3  6  1  0  0  0  0
  4 10  1  0  0  0  0
  5 18  2  0  0  0  0
  8 10  2  0  0  0  0
  8 14  1  0  0  0  0
  9 19  1  6  0  0  0
  9 12  1  0  0  0  0
 10 15  1  0  0  0  0
 12  7  2  0  0  0  0
 13 23  2  0  0  0  0
 14  3  2  0  0  0  0
 15  7  1  0  0  0  0
 15 11  2  0  0  0  0
 16 22  1  0  0  0  0
 17 21  2  0  0  0  0
 17 13  1  0  0  0  0
 18 13  1  0  0  0  0
 18 16  1  0  0  0  0
 20  4  1  0  0  0  0
 20  9  1  0  0  0  0
 21  8  1  0  0  0  0
 22  1  2  0  0  0  0
 23 14  1  0  0  0  0
 23  1  1  0  0  0  0
 25 26  1  0  0  0  0
 25 24  1  0  0  0  0
 26 27  1  0  0  0  0
 26 28  1  0  0  0  0
M  END
>  <MODEL>
8

>  <REMARK>
 VINA RESULT:      -8.3      3.186      6.323
  Name = 
  2 active torsions:
  status: ('A' for Active; 'I' for Inactive)
    1  A    between atoms: N_2  and  N_11
    2  A    between atoms: C_6  and  N_11
                            x       y       z     vdW  Elec       q    Type
                         _______ _______ _______ _____ _____    ______ ____

>  <TORSDO>
F 2

$$$$
=
 OpenBabel11052413263D

 28 32  0  0  1  0  0  0  0  0999 V2000
  183.4030  178.6820  142.6740 C   0  0  0  0  0  0  0  0  0  0  0  0
  182.5030  178.6660  141.5500 N   0  0  0  0  0  0  0  0  0  0  0  0
  184.4590  178.6650  140.0170 C   0  0  0  0  0  0  0  0  0  0  0  0
  188.6940  178.1790  139.3280 C   0  0  0  0  0  2  0  0  0  0  0  0
  186.0090  178.2360  145.8500 O   0  0  0  0  0  0  0  0  0  0  0  0
  183.0040  178.9970  140.2040 C   0  0  0  0  0  2  0  0  0  0  0  0
  186.7840  178.2590  137.0870 C   0  0  0  0  0  3  0  0  0  0  0  0
  186.7160  178.3220  140.8880 C   0  0  0  0  0  0  0  0  0  0  0  0
  188.2420  176.3090  137.5990 C   0  0  1  0  0  3  0  0  0  0  0  0
  187.2110  178.2530  139.5740 C   0  0  0  0  0  0  0  0  0  0  0  0
  184.9610  178.5960  138.7170 C   0  0  0  0  0  3  0  0  0  0  0  0
  187.6900  177.3630  136.6850 C   0  0  0  0  0  3  0  0  0  0  0  0
  185.7490  178.4350  143.4980 C   0  0  0  0  0  0  0  0  0  0  0  0
  185.3340  178.5220  141.1100 C   0  0  0  0  0  0  0  0  0  0  0  0
  186.3190  178.3650  138.4840 C   0  0  0  0  0  0  0  0  0  0  0  0
  183.8000  178.7960  145.1520 C   0  0  0  0  0  2  0  0  0  0  0  0
  187.1100  178.2540  143.2330 C   0  0  0  0  0  3  0  0  0  0  0  0
  185.2370  178.4580  144.8800 C   0  0  0  0  0  0  0  0  0  0  0  0
  189.0020  175.2780  136.7930 C   0  0  0  0  0  1  0  0  0  0  0  0
  189.1460  176.8510  138.7120 C   0  0  0  0  0  2  0  0  0  0  0  0
  187.5590  178.2030  141.9510 N   0  0  0  0  0  0  0  0  0  0  0  0
  182.9260  178.7390  143.9260 C   0  0  0  0  0  3  0  0  0  0  0  0
  184.8550  178.5730  142.4270 C   0  0  0  0  0  0  0  0  0  0  0  0
  180.6180  177.5170  140.8160 C   0  0  0  0  0  1  0  0  0  0  0  0
  181.1170  178.4940  141.7770 N   0  0  0  0  0  0  0  0  0  0  0  0
  180.4300  179.7670  141.5490 C   0  0  0  0  0  3  0  0  0  0  0  0
  179.2090  179.5420  140.9360 F   0  0  0  0  0  0  0  0  0  0  0  0
  180.2080  180.4100  142.7550 F   0  0  0  0  0  0  0  0  0  0  0  0
  1 22  2  0  0  0  0
  2 25  1  0  0  0  0
  2  1  1  0  0  0  0
  3  6  1  0  0  0  0
  3 14  1  0  0  0  0
  4 10  1  0  0  0  0
  6  2  1  0  0  0  0
  7 15  1  0  0  0  0
  8 14  2  0  0  0  0
  8 21  1  0  0  0  0
  9 19  1  6  0  0  0
  9 20  1  0  0  0  0
 10  8  1  0  0  0  0
 11  3  2  0  0  0  0
 12  7  2  0  0  0  0
 12  9  1  0  0  0  0
 13 18  1  0  0  0  0
 14 23  1  0  0  0  0
 15 11  1  0  0  0  0
 15 10  2  0  0  0  0
 17 13  1  0  0  0  0
 18 16  1  0  0  0  0
 18  5  2  0  0  0  0
 20  4  1  0  0  0  0
 21 17  2  0  0  0  0
 22 16  1  0  0  0  0
 23  1  1  0  0  0  0
 23 13  2  0  0  0  0
 24 25  1  0  0  0  0
 26 25  1  0  0  0  0
 26 28  1  0  0  0  0
 27 26  1  0  0  0  0
M  END
>  <MODEL>
9

>  <REMARK>
 VINA RESULT:      -8.3      2.794      4.008
  Name = 
  2 active torsions:
  status: ('A' for Active; 'I' for Inactive)
    1  A    between atoms: N_2  and  N_11
    2  A    between atoms: C_6  and  N_11
                            x       y       z     vdW  Elec       q    Type
                         _______ _______ _______ _____ _____    ______ ____

>  <TORSDO>
F 2

$$$$
