=
 OpenBabel11052412513D

 25 27  0  0  1  0  0  0  0  0999 V2000
  189.0910  177.1010  145.1500 C   0  0  0  0  0  0  0  0  0  0  0  0
  187.7560  177.5250  144.9730 C   0  0  0  0  0  0  0  0  0  0  0  0
  188.7780  177.1310  147.5060 C   0  0  0  0  0  3  0  0  0  0  0  0
  189.9760  176.8700  144.0350 N   0  0  0  0  0  0  0  0  0  0  0  0
  187.4890  177.5260  147.3550 N   0  0  0  0  0  0  0  0  0  0  0  0
  185.6320  178.1620  145.9660 C   0  0  0  0  0  0  0  0  0  0  0  0
  184.7540  178.3900  147.1490 C   0  0  0  0  0  1  0  0  0  0  0  0
  187.2110  177.7780  143.7100 C   0  0  0  0  0  3  0  0  0  0  0  0
  189.5620  176.9280  146.4170 N   0  0  0  0  0  0  0  0  0  0  0  0
  185.1360  178.3880  144.7200 N   0  0  0  0  0  0  0  0  0  0  0  0
  185.8870  178.2040  143.6010 C   0  0  0  0  0  0  0  0  0  0  0  0
  186.9610  177.7300  146.1190 C   0  0  0  0  0  0  0  0  0  0  0  0
  190.7320  179.5160  143.8070 C   0  0  0  0  0  1  0  0  0  0  0  0
  191.4180  177.0610  144.2270 C   0  0  2  0  0  3  0  0  0  0  0  0
  191.8440  178.5380  144.1600 C   0  0  1  0  0  3  0  0  0  0  0  0
  192.0760  177.6220  142.9770 C   0  0  0  0  0  2  0  0  0  0  0  0
  189.5380  176.0100  142.9390 C   0  0  0  0  0  2  0  0  0  0  0  0
  190.2610  174.8170  142.9550 O   0  0  0  0  0  1  0  0  0  0  0  0
  185.3080  178.4920  142.2610 C   0  0  0  0  0  2  0  0  0  0  0  0
  186.4150  178.5990  141.2300 C   0  0  0  0  0  2  0  0  0  0  0  0
  185.8330  178.9100  139.8970 C   0  0  0  0  0  0  0  0  0  0  0  0
  184.8000  179.6270  139.8210 O   0  0  0  0  0  0  0  0  0  0  0  0
  186.4560  178.4260  138.7460 O   0  0  0  0  0  0  0  0  0  0  0  0
  187.7880  177.9370  138.7660 C   0  0  0  0  0  2  0  0  0  0  0  0
  188.7020  179.0100  138.4230 N   0  0  0  0  0  1  0  0  0  0  0  0
  1  9  1  0  0  0  0
  2  1  2  0  0  0  0
  2 12  1  0  0  0  0
  4  1  1  0  0  0  0
  5  3  1  0  0  0  0
  6 12  1  0  0  0  0
  6  7  1  0  0  0  0
  8  2  1  0  0  0  0
  9  3  2  0  0  0  0
 10  6  2  0  0  0  0
 11  8  2  0  0  0  0
 11 10  1  0  0  0  0
 12  5  2  0  0  0  0
 14  4  1  6  0  0  0
 15 13  1  6  0  0  0
 15 14  1  0  0  0  0
 16 15  1  0  0  0  0
 16 14  1  0  0  0  0
 17 18  1  0  0  0  0
 17  4  1  0  0  0  0
 19 11  1  0  0  0  0
 20 19  1  0  0  0  0
 21 20  1  0  0  0  0
 22 21  2  0  0  0  0
 23 24  1  0  0  0  0
 23 21  1  0  0  0  0
 25 24  1  0  0  0  0
M  END
>  <MODEL>
1

>  <REMARK>
 VINA RESULT:      -7.6      0.000      0.000
  Name = 
  7 active torsions:
  status: ('A' for Active; 'I' for Inactive)
    1  A    between atoms: O_2  and  C_7
    2  A    between atoms: O_2  and  C_21
    3  A    between atoms: N_5  and  C_10
    4  A    between atoms: N_5  and  C_17
    5  A    between atoms: C_6  and  C_15
    6  A    between atoms: C_6  and  C_23
    7  A    between atoms: C_15  and  C_21
                            x       y       z     vdW  Elec       q    Type
                         _______ _______ _______ _____ _____    ______ ____

>  <TORSDO>
F 7

$$$$
=
 OpenBabel11052412513D

 25 27  0  0  1  0  0  0  0  0999 V2000
  190.1850  176.8230  145.1150 C   0  0  0  0  0  0  0  0  0  0  0  0
  189.0110  177.2930  145.7420 C   0  0  0  0  0  0  0  0  0  0  0  0
  191.2500  176.6820  147.2350 C   0  0  0  0  0  3  0  0  0  0  0  0
  190.2760  176.6550  143.6860 N   0  0  0  0  0  0  0  0  0  0  0  0
  190.1260  177.1190  147.8570 N   0  0  0  0  0  0  0  0  0  0  0  0
  187.8550  177.9060  147.7890 C   0  0  0  0  0  0  0  0  0  0  0  0
  187.8080  178.0650  149.2700 C   0  0  0  0  0  1  0  0  0  0  0  0
  187.8690  177.6550  145.0210 C   0  0  0  0  0  3  0  0  0  0  0  0
  191.2730  176.5420  145.8860 N   0  0  0  0  0  0  0  0  0  0  0  0
  186.7610  178.2390  147.0530 N   0  0  0  0  0  0  0  0  0  0  0  0
  186.7430  178.1210  145.6980 C   0  0  0  0  0  0  0  0  0  0  0  0
  189.0100  177.4310  147.1460 C   0  0  0  0  0  0  0  0  0  0  0  0
  191.0760  179.2890  143.4740 C   0  0  0  0  0  1  0  0  0  0  0  0
  191.5860  176.7940  143.0400 C   0  0  2  0  0  3  0  0  0  0  0  0
  192.0690  178.2530  142.9680 C   0  0  1  0  0  3  0  0  0  0  0  0
  191.4870  177.5810  141.7430 C   0  0  0  0  0  2  0  0  0  0  0  0
  189.2450  175.8920  142.9870 C   0  0  0  0  0  2  0  0  0  0  0  0
  188.5780  176.7160  142.0800 O   0  0  0  0  0  1  0  0  0  0  0  0
  185.5310  178.5250  144.9340 C   0  0  0  0  0  2  0  0  0  0  0  0
  185.6440  178.0530  143.4960 C   0  0  0  0  0  2  0  0  0  0  0  0
  184.7450  178.8620  142.6290 C   0  0  0  0  0  0  0  0  0  0  0  0
  183.5320  178.9940  142.9430 O   0  0  0  0  0  0  0  0  0  0  0  0
  185.2660  179.4870  141.4960 O   0  0  0  0  0  0  0  0  0  0  0  0
  185.0590  178.9650  140.1920 C   0  0  0  0  0  2  0  0  0  0  0  0
  184.4140  179.9690  139.3670 N   0  0  0  0  0  1  0  0  0  0  0  0
  1  2  2  0  0  0  0
  1  9  1  0  0  0  0
  2 12  1  0  0  0  0
  3  5  1  0  0  0  0
  4  1  1  0  0  0  0
  6  7  1  0  0  0  0
  8 11  2  0  0  0  0
  8  2  1  0  0  0  0
  9  3  2  0  0  0  0
 10  6  2  0  0  0  0
 11 10  1  0  0  0  0
 12  6  1  0  0  0  0
 12  5  2  0  0  0  0
 14  4  1  1  0  0  0
 15 14  1  0  0  0  0
 15 13  1  1  0  0  0
 16 15  1  0  0  0  0
 16 14  1  0  0  0  0
 17  4  1  0  0  0  0
 18 17  1  0  0  0  0
 19 11  1  0  0  0  0
 20 19  1  0  0  0  0
 21 22  2  0  0  0  0
 21 20  1  0  0  0  0
 23 21  1  0  0  0  0
 24 23  1  0  0  0  0
 25 24  1  0  0  0  0
M  END
>  <MODEL>
2

>  <REMARK>
 VINA RESULT:      -7.5      1.803      2.456
  Name = 
  7 active torsions:
  status: ('A' for Active; 'I' for Inactive)
    1  A    between atoms: O_2  and  C_7
    2  A    between atoms: O_2  and  C_21
    3  A    between atoms: N_5  and  C_10
    4  A    between atoms: N_5  and  C_17
    5  A    between atoms: C_6  and  C_15
    6  A    between atoms: C_6  and  C_23
    7  A    between atoms: C_15  and  C_21
                            x       y       z     vdW  Elec       q    Type
                         _______ _______ _______ _____ _____    ______ ____

>  <TORSDO>
F 7

$$$$
=
 OpenBabel11052412513D

 25 27  0  0  1  0  0  0  0  0999 V2000
  189.0750  177.1000  145.0980 C   0  0  0  0  0  0  0  0  0  0  0  0
  187.7410  177.5120  144.8930 C   0  0  0  0  0  0  0  0  0  0  0  0
  188.7270  177.1790  147.4480 C   0  0  0  0  0  3  0  0  0  0  0  0
  189.9770  176.8510  144.0020 N   0  0  0  0  0  0  0  0  0  0  0  0
  187.4370  177.5630  147.2700 N   0  0  0  0  0  0  0  0  0  0  0  0
  185.5980  178.1570  145.8400 C   0  0  0  0  0  0  0  0  0  0  0  0
  184.7020  178.4060  147.0050 C   0  0  0  0  0  1  0  0  0  0  0  0
  187.2130  177.7350  143.6170 C   0  0  0  0  0  3  0  0  0  0  0  0
  189.5280  176.9570  146.3750 N   0  0  0  0  0  0  0  0  0  0  0  0
  185.1190  178.3540  144.5820 N   0  0  0  0  0  0  0  0  0  0  0  0
  185.8880  178.1500  143.4790 C   0  0  0  0  0  0  0  0  0  0  0  0
  186.9270  177.7380  146.0220 C   0  0  0  0  0  0  0  0  0  0  0  0
  190.7140  179.5020  143.7720 C   0  0  0  0  0  1  0  0  0  0  0  0
  191.4150  177.0550  144.2110 C   0  0  2  0  0  3  0  0  0  0  0  0
  191.8300  178.5340  144.1430 C   0  0  1  0  0  3  0  0  0  0  0  0
  192.0850  177.6160  142.9670 C   0  0  0  0  0  2  0  0  0  0  0  0
  189.5610  175.9650  142.9190 C   0  0  0  0  0  2  0  0  0  0  0  0
  190.2960  174.7800  142.9660 O   0  0  0  0  0  1  0  0  0  0  0  0
  185.3270  178.4060  142.1250 C   0  0  0  0  0  2  0  0  0  0  0  0
  183.8230  178.5860  142.2130 C   0  0  0  0  0  2  0  0  0  0  0  0
  183.2010  178.2690  140.9000 C   0  0  0  0  0  0  0  0  0  0  0  0
  183.3000  177.1050  140.4290 O   0  0  0  0  0  0  0  0  0  0  0  0
  182.4900  179.2590  140.2200 O   0  0  0  0  0  0  0  0  0  0  0  0
  182.9620  179.8170  139.0030 C   0  0  0  0  0  2  0  0  0  0  0  0
  184.3840  180.0810  139.1120 N   0  0  0  0  0  1  0  0  0  0  0  0
  1  9  1  0  0  0  0
  2  1  2  0  0  0  0
  2 12  1  0  0  0  0
  4  1  1  0  0  0  0
  5  3  1  0  0  0  0
  6 12  1  0  0  0  0
  6  7  1  0  0  0  0
  8  2  1  0  0  0  0
  9  3  2  0  0  0  0
 10  6  2  0  0  0  0
 11  8  2  0  0  0  0
 11 10  1  0  0  0  0
 12  5  2  0  0  0  0
 14  4  1  6  0  0  0
 15 13  1  6  0  0  0
 15 14  1  0  0  0  0
 16 15  1  0  0  0  0
 16 14  1  0  0  0  0
 17 18  1  0  0  0  0
 17  4  1  0  0  0  0
 19 20  1  0  0  0  0
 19 11  1  0  0  0  0
 21 20  1  0  0  0  0
 22 21  2  0  0  0  0
 23 21  1  0  0  0  0
 24 25  1  0  0  0  0
 24 23  1  0  0  0  0
M  END
>  <MODEL>
3

>  <REMARK>
 VINA RESULT:      -7.4      1.621      1.907
  Name = 
  7 active torsions:
  status: ('A' for Active; 'I' for Inactive)
    1  A    between atoms: O_2  and  C_7
    2  A    between atoms: O_2  and  C_21
    3  A    between atoms: N_5  and  C_10
    4  A    between atoms: N_5  and  C_17
    5  A    between atoms: C_6  and  C_15
    6  A    between atoms: C_6  and  C_23
    7  A    between atoms: C_15  and  C_21
                            x       y       z     vdW  Elec       q    Type
                         _______ _______ _______ _____ _____    ______ ____

>  <TORSDO>
F 7

$$$$
=
 OpenBabel11052412513D

 25 27  0  0  1  0  0  0  0  0999 V2000
  188.3380  177.1920  144.8790 C   0  0  0  0  0  0  0  0  0  0  0  0
  187.1770  177.7280  144.2830 C   0  0  0  0  0  0  0  0  0  0  0  0
  187.3350  177.4280  147.0210 C   0  0  0  0  0  3  0  0  0  0  0  0
  189.4860  176.7940  144.1020 N   0  0  0  0  0  0  0  0  0  0  0  0
  186.2050  177.9330  146.4640 N   0  0  0  0  0  0  0  0  0  0  0  0
  184.9410  178.6400  144.5450 C   0  0  0  0  0  0  0  0  0  0  0  0
  183.7790  179.0390  145.3900 C   0  0  0  0  0  1  0  0  0  0  0  0
  187.0710  177.9380  142.9040 C   0  0  0  0  0  3  0  0  0  0  0  0
  188.3820  177.0690  146.2360 N   0  0  0  0  0  0  0  0  0  0  0  0
  184.8720  178.8190  143.1980 N   0  0  0  0  0  0  0  0  0  0  0  0
  185.9000  178.4800  142.3750 C   0  0  0  0  0  0  0  0  0  0  0  0
  186.1020  178.0950  145.1180 C   0  0  0  0  0  0  0  0  0  0  0  0
  190.7320  179.2210  143.6800 C   0  0  0  0  0  1  0  0  0  0  0  0
  190.8150  176.8580  144.7210 C   0  0  2  0  0  3  0  0  0  0  0  0
  191.4960  178.2260  144.5420 C   0  0  1  0  0  3  0  0  0  0  0  0
  191.9050  177.0520  143.6800 C   0  0  0  0  0  2  0  0  0  0  0  0
  189.3040  175.9000  142.9620 C   0  0  0  0  0  2  0  0  0  0  0  0
  189.6770  176.5500  141.7850 O   0  0  0  0  0  1  0  0  0  0  0  0
  185.7890  178.7210  140.9100 C   0  0  0  0  0  2  0  0  0  0  0  0
  187.0870  178.3410  140.2230 C   0  0  0  0  0  2  0  0  0  0  0  0
  186.8620  178.2170  138.7580 C   0  0  0  0  0  0  0  0  0  0  0  0
  185.7860  178.6390  138.2550 O   0  0  0  0  0  0  0  0  0  0  0  0
  187.8580  177.6610  137.9550 O   0  0  0  0  0  0  0  0  0  0  0  0
  189.1410  178.2560  137.8340 C   0  0  0  0  0  2  0  0  0  0  0  0
  188.9970  179.6260  137.3790 N   0  0  0  0  0  1  0  0  0  0  0  0
  1  9  1  0  0  0  0
  2  1  2  0  0  0  0
  2 12  1  0  0  0  0
  4  1  1  0  0  0  0
  5  3  1  0  0  0  0
  6 12  1  0  0  0  0
  6  7  1  0  0  0  0
  8  2  1  0  0  0  0
  9  3  2  0  0  0  0
 10  6  2  0  0  0  0
 11  8  2  0  0  0  0
 11 10  1  0  0  0  0
 12  5  2  0  0  0  0
 14  4  1  6  0  0  0
 15 13  1  6  0  0  0
 15 14  1  0  0  0  0
 16 15  1  0  0  0  0
 16 14  1  0  0  0  0
 17  4  1  0  0  0  0
 18 17  1  0  0  0  0
 19 11  1  0  0  0  0
 20 19  1  0  0  0  0
 21 20  1  0  0  0  0
 22 21  2  0  0  0  0
 23 21  1  0  0  0  0
 24 23  1  0  0  0  0
 25 24  1  0  0  0  0
M  END
>  <MODEL>
4

>  <REMARK>
 VINA RESULT:      -7.1      1.180      1.375
  Name = 
  7 active torsions:
  status: ('A' for Active; 'I' for Inactive)
    1  A    between atoms: O_2  and  C_7
    2  A    between atoms: O_2  and  C_21
    3  A    between atoms: N_5  and  C_10
    4  A    between atoms: N_5  and  C_17
    5  A    between atoms: C_6  and  C_15
    6  A    between atoms: C_6  and  C_23
    7  A    between atoms: C_15  and  C_21
                            x       y       z     vdW  Elec       q    Type
                         _______ _______ _______ _____ _____    ______ ____

>  <TORSDO>
F 7

$$$$
=
 OpenBabel11052412513D

 25 27  0  0  1  0  0  0  0  0999 V2000
  188.5190  177.1720  144.8790 C   0  0  0  0  0  0  0  0  0  0  0  0
  187.3030  177.6890  144.3830 C   0  0  0  0  0  0  0  0  0  0  0  0
  187.6920  177.3810  147.0970 C   0  0  0  0  0  3  0  0  0  0  0  0
  189.6060  176.7990  144.0080 N   0  0  0  0  0  0  0  0  0  0  0  0
  186.5110  177.8670  146.6380 N   0  0  0  0  0  0  0  0  0  0  0  0
  185.0790  178.5570  144.8340 C   0  0  0  0  0  0  0  0  0  0  0  0
  183.9840  178.9320  145.7730 C   0  0  0  0  0  1  0  0  0  0  0  0
  187.0800  177.9020  143.0190 C   0  0  0  0  0  3  0  0  0  0  0  0
  188.6770  177.0450  146.2270 N   0  0  0  0  0  0  0  0  0  0  0  0
  184.8970  178.7410  143.4980 N   0  0  0  0  0  0  0  0  0  0  0  0
  185.8600  178.4240  142.5910 C   0  0  0  0  0  0  0  0  0  0  0  0
  186.2940  178.0320  145.3060 C   0  0  0  0  0  0  0  0  0  0  0  0
  190.7050  179.3070  143.6580 C   0  0  0  0  0  1  0  0  0  0  0  0
  190.9800  176.8860  144.5150 C   0  0  2  0  0  3  0  0  0  0  0  0
  191.5830  178.2940  144.3780 C   0  0  1  0  0  3  0  0  0  0  0  0
  191.9650  177.2030  143.4020 C   0  0  0  0  0  2  0  0  0  0  0  0
  189.3470  175.9070  142.8810 C   0  0  0  0  0  2  0  0  0  0  0  0
  189.6180  176.5660  141.6820 O   0  0  0  0  0  1  0  0  0  0  0  0
  185.6240  178.6700  141.1420 C   0  0  0  0  0  2  0  0  0  0  0  0
  184.1470  178.5230  140.8260 C   0  0  0  0  0  2  0  0  0  0  0  0
  183.8460  179.1660  139.5190 C   0  0  0  0  0  0  0  0  0  0  0  0
  184.5610  180.1230  139.1170 O   0  0  0  0  0  0  0  0  0  0  0  0
  182.7940  178.6820  138.7410 O   0  0  0  0  0  0  0  0  0  0  0  0
  182.9700  177.6090  137.8290 C   0  0  0  0  0  2  0  0  0  0  0  0
  182.3820  177.9600  136.5510 N   0  0  0  0  0  1  0  0  0  0  0  0
  1  9  1  0  0  0  0
  2  1  2  0  0  0  0
  2 12  1  0  0  0  0
  4  1  1  0  0  0  0
  5  3  1  0  0  0  0
  6 12  1  0  0  0  0
  6  7  1  0  0  0  0
  8  2  1  0  0  0  0
  9  3  2  0  0  0  0
 10  6  2  0  0  0  0
 11  8  2  0  0  0  0
 11 10  1  0  0  0  0
 12  5  2  0  0  0  0
 14  4  1  6  0  0  0
 15 13  1  6  0  0  0
 15 14  1  0  0  0  0
 16 15  1  0  0  0  0
 16 14  1  0  0  0  0
 17  4  1  0  0  0  0
 18 17  1  0  0  0  0
 19 11  1  0  0  0  0
 20 19  1  0  0  0  0
 21 20  1  0  0  0  0
 22 21  2  0  0  0  0
 23 21  1  0  0  0  0
 24 23  1  0  0  0  0
 25 24  1  0  0  0  0
M  END
>  <MODEL>
5

>  <REMARK>
 VINA RESULT:      -6.8      1.926      2.134
  Name = 
  7 active torsions:
  status: ('A' for Active; 'I' for Inactive)
    1  A    between atoms: O_2  and  C_7
    2  A    between atoms: O_2  and  C_21
    3  A    between atoms: N_5  and  C_10
    4  A    between atoms: N_5  and  C_17
    5  A    between atoms: C_6  and  C_15
    6  A    between atoms: C_6  and  C_23
    7  A    between atoms: C_15  and  C_21
                            x       y       z     vdW  Elec       q    Type
                         _______ _______ _______ _____ _____    ______ ____

>  <TORSDO>
F 7

$$$$
=
 OpenBabel11052412513D

 25 27  0  0  1  0  0  0  0  0999 V2000
  186.9230  178.3710  139.4620 C   0  0  0  0  0  0  0  0  0  0  0  0
  187.4470  177.9800  140.7130 C   0  0  0  0  0  0  0  0  0  0  0  0
  184.9370  179.1120  140.5380 C   0  0  0  0  0  3  0  0  0  0  0  0
  187.6550  178.1880  138.2340 N   0  0  0  0  0  0  0  0  0  0  0  0
  185.4300  178.7550  141.7500 N   0  0  0  0  0  0  0  0  0  0  0  0
  187.1610  177.8010  143.1190 C   0  0  0  0  0  0  0  0  0  0  0  0
  186.3670  178.0080  144.3630 C   0  0  0  0  0  1  0  0  0  0  0  0
  188.6960  177.3630  140.8430 C   0  0  0  0  0  3  0  0  0  0  0  0
  185.6760  178.9170  139.4160 N   0  0  0  0  0  0  0  0  0  0  0  0
  188.3850  177.2120  143.2050 N   0  0  0  0  0  0  0  0  0  0  0  0
  189.1550  176.9910  142.1060 C   0  0  0  0  0  0  0  0  0  0  0  0
  186.6620  178.1920  141.8650 C   0  0  0  0  0  0  0  0  0  0  0  0
  187.6440  175.5570  137.3990 C   0  0  0  0  0  1  0  0  0  0  0  0
  186.9050  177.9970  136.9870 C   0  0  2  0  0  3  0  0  0  0  0  0
  186.8430  176.5260  136.5420 C   0  0  1  0  0  3  0  0  0  0  0  0
  187.8020  177.4860  135.8710 C   0  0  0  0  0  2  0  0  0  0  0  0
  189.0290  178.6730  138.1390 C   0  0  0  0  0  2  0  0  0  0  0  0
  189.0420  179.9640  137.6130 O   0  0  0  0  0  1  0  0  0  0  0  0
  190.4750  176.3180  142.2480 C   0  0  0  0  0  2  0  0  0  0  0  0
  191.5750  177.3570  142.3750 C   0  0  0  0  0  2  0  0  0  0  0  0
  191.6420  177.8490  143.7770 C   0  0  0  0  0  0  0  0  0  0  0  0
  191.5380  179.0840  144.0080 O   0  0  0  0  0  0  0  0  0  0  0  0
  191.7890  176.9350  144.8200 O   0  0  0  0  0  0  0  0  0  0  0  0
  190.9910  177.0010  145.9920 C   0  0  0  0  0  2  0  0  0  0  0  0
  191.8250  176.7770  147.1570 N   0  0  0  0  0  1  0  0  0  0  0  0
  1  2  1  0  0  0  0
  2  8  2  0  0  0  0
  2 12  1  0  0  0  0
  3  5  2  0  0  0  0
  4  1  1  0  0  0  0
  5 12  1  0  0  0  0
  6 10  1  0  0  0  0
  6  7  1  0  0  0  0
  8 11  1  0  0  0  0
  9  1  2  0  0  0  0
  9  3  1  0  0  0  0
 11 19  1  0  0  0  0
 11 10  2  0  0  0  0
 12  6  2  0  0  0  0
 14  4  1  1  0  0  0
 15 14  1  0  0  0  0
 15 13  1  1  0  0  0
 16 15  1  0  0  0  0
 16 14  1  0  0  0  0
 17  4  1  0  0  0  0
 18 17  1  0  0  0  0
 19 20  1  0  0  0  0
 20 21  1  0  0  0  0
 21 22  2  0  0  0  0
 21 23  1  0  0  0  0
 23 24  1  0  0  0  0
 24 25  1  0  0  0  0
M  END
>  <MODEL>
6

>  <REMARK>
 VINA RESULT:      -6.6      2.251      6.716
  Name = 
  7 active torsions:
  status: ('A' for Active; 'I' for Inactive)
    1  A    between atoms: O_2  and  C_7
    2  A    between atoms: O_2  and  C_21
    3  A    between atoms: N_5  and  C_10
    4  A    between atoms: N_5  and  C_17
    5  A    between atoms: C_6  and  C_15
    6  A    between atoms: C_6  and  C_23
    7  A    between atoms: C_15  and  C_21
                            x       y       z     vdW  Elec       q    Type
                         _______ _______ _______ _____ _____    ______ ____

>  <TORSDO>
F 7

$$$$
=
 OpenBabel11052412513D

 25 27  0  0  1  0  0  0  0  0999 V2000
  182.9220  178.8000  141.5720 C   0  0  0  0  0  0  0  0  0  0  0  0
  184.0050  178.5770  142.4480 C   0  0  0  0  0  0  0  0  0  0  0  0
  181.5180  179.2460  143.4380 C   0  0  0  0  0  3  0  0  0  0  0  0
  183.0550  178.6780  140.1410 N   0  0  0  0  0  0  0  0  0  0  0  0
  182.5520  179.0490  144.2940 N   0  0  0  0  0  0  0  0  0  0  0  0
  184.8500  178.4870  144.7240 C   0  0  0  0  0  0  0  0  0  0  0  0
  184.6650  178.6240  146.1970 C   0  0  0  0  0  1  0  0  0  0  0  0
  185.2710  178.1940  141.9920 C   0  0  0  0  0  3  0  0  0  0  0  0
  181.7060  179.1190  142.1000 N   0  0  0  0  0  0  0  0  0  0  0  0
  186.0690  178.1250  144.2410 N   0  0  0  0  0  0  0  0  0  0  0  0
  186.3000  177.9790  142.9080 C   0  0  0  0  0  0  0  0  0  0  0  0
  183.7870  178.7150  143.8340 C   0  0  0  0  0  0  0  0  0  0  0  0
  183.0670  175.9990  139.4710 C   0  0  0  0  0  1  0  0  0  0  0  0
  181.8790  178.2900  139.3540 C   0  0  2  0  0  3  0  0  0  0  0  0
  181.8450  176.7880  139.0230 C   0  0  1  0  0  3  0  0  0  0  0  0
  182.2730  177.7910  137.9730 C   0  0  0  0  0  2  0  0  0  0  0  0
  184.1330  179.3870  139.4580 C   0  0  0  0  0  2  0  0  0  0  0  0
  183.7020  180.6600  139.0850 O   0  0  0  0  0  1  0  0  0  0  0  0
  187.6440  177.5540  142.4300 C   0  0  0  0  0  2  0  0  0  0  0  0
  188.1230  176.3560  143.2290 C   0  0  0  0  0  2  0  0  0  0  0  0
  189.6100  176.3440  143.2740 C   0  0  0  0  0  0  0  0  0  0  0  0
  190.2520  175.6340  142.4550 O   0  0  0  0  0  0  0  0  0  0  0  0
  190.2740  177.1430  144.2050 O   0  0  0  0  0  0  0  0  0  0  0  0
  191.3460  177.9950  143.8300 C   0  0  0  0  0  2  0  0  0  0  0  0
  190.9350  179.3790  143.9700 N   0  0  0  0  0  1  0  0  0  0  0  0
  1  9  2  0  0  0  0
  1  2  1  0  0  0  0
  2 12  1  0  0  0  0
  3  5  2  0  0  0  0
  4  1  1  0  0  0  0
  6  7  1  0  0  0  0
  8  2  2  0  0  0  0
  8 11  1  0  0  0  0
  9  3  1  0  0  0  0
 10  6  1  0  0  0  0
 11 10  2  0  0  0  0
 12  5  1  0  0  0  0
 12  6  2  0  0  0  0
 14  4  1  1  0  0  0
 15 14  1  0  0  0  0
 15 13  1  1  0  0  0
 16 15  1  0  0  0  0
 16 14  1  0  0  0  0
 17  4  1  0  0  0  0
 18 17  1  0  0  0  0
 19 11  1  0  0  0  0
 19 20  1  0  0  0  0
 20 21  1  0  0  0  0
 21 23  1  0  0  0  0
 22 21  2  0  0  0  0
 24 25  1  0  0  0  0
 24 23  1  0  0  0  0
M  END
>  <MODEL>
7

>  <REMARK>
 VINA RESULT:      -6.6      2.711      6.899
  Name = 
  7 active torsions:
  status: ('A' for Active; 'I' for Inactive)
    1  A    between atoms: O_2  and  C_7
    2  A    between atoms: O_2  and  C_21
    3  A    between atoms: N_5  and  C_10
    4  A    between atoms: N_5  and  C_17
    5  A    between atoms: C_6  and  C_15
    6  A    between atoms: C_6  and  C_23
    7  A    between atoms: C_15  and  C_21
                            x       y       z     vdW  Elec       q    Type
                         _______ _______ _______ _____ _____    ______ ____

>  <TORSDO>
F 7

$$$$
=
 OpenBabel11052412513D

 25 27  0  0  1  0  0  0  0  0999 V2000
  188.1810  177.3500  143.7340 C   0  0  0  0  0  0  0  0  0  0  0  0
  187.7110  177.7650  142.4700 C   0  0  0  0  0  0  0  0  0  0  0  0
  186.0640  177.8690  144.6810 C   0  0  0  0  0  3  0  0  0  0  0  0
  189.5270  176.8710  143.9310 N   0  0  0  0  0  0  0  0  0  0  0  0
  185.5900  178.2600  143.4710 N   0  0  0  0  0  0  0  0  0  0  0  0
  185.8960  178.6490  141.1180 C   0  0  0  0  0  0  0  0  0  0  0  0
  184.4960  179.1380  140.9620 C   0  0  0  0  0  1  0  0  0  0  0  0
  188.5240  177.7690  141.3310 C   0  0  0  0  0  3  0  0  0  0  0  0
  187.3410  177.4260  144.8040 N   0  0  0  0  0  0  0  0  0  0  0  0
  186.7150  178.6300  140.0320 N   0  0  0  0  0  0  0  0  0  0  0  0
  188.0030  178.2000  140.1110 C   0  0  0  0  0  0  0  0  0  0  0  0
  186.3810  178.2220  142.3660 C   0  0  0  0  0  0  0  0  0  0  0  0
  191.2290  179.0450  143.9890 C   0  0  0  0  0  1  0  0  0  0  0  0
  190.1570  177.0580  145.2440 C   0  0  2  0  0  3  0  0  0  0  0  0
  191.0630  178.2990  145.3050 C   0  0  1  0  0  3  0  0  0  0  0  0
  191.6680  176.9200  145.1610 C   0  0  0  0  0  2  0  0  0  0  0  0
  190.0480  175.8180  143.0650 C   0  0  0  0  0  2  0  0  0  0  0  0
  191.0520  176.3320  142.2450 O   0  0  0  0  0  1  0  0  0  0  0  0
  188.8690  178.2240  138.9010 C   0  0  0  0  0  2  0  0  0  0  0  0
  190.2350  177.6520  139.2310 C   0  0  0  0  0  2  0  0  0  0  0  0
  190.6540  176.7040  138.1630 C   0  0  0  0  0  0  0  0  0  0  0  0
  190.0340  176.6880  137.0670 O   0  0  0  0  0  0  0  0  0  0  0  0
  191.7480  175.8660  138.3800 O   0  0  0  0  0  0  0  0  0  0  0  0
  193.0680  176.3750  138.5050 C   0  0  0  0  0  2  0  0  0  0  0  0
  193.5670  176.7500  137.1960 N   0  0  0  0  0  1  0  0  0  0  0  0
  1  4  1  0  0  0  0
  1  9  1  0  0  0  0
  2  1  2  0  0  0  0
  3  9  2  0  0  0  0
  5  3  1  0  0  0  0
  6 12  1  0  0  0  0
  7  6  1  0  0  0  0
  8  2  1  0  0  0  0
 10 11  1  0  0  0  0
 10  6  2  0  0  0  0
 11  8  2  0  0  0  0
 12  2  1  0  0  0  0
 12  5  2  0  0  0  0
 14  4  1  6  0  0  0
 14 15  1  0  0  0  0
 15 13  1  6  0  0  0
 16 14  1  0  0  0  0
 16 15  1  0  0  0  0
 17  4  1  0  0  0  0
 18 17  1  0  0  0  0
 19 20  1  0  0  0  0
 19 11  1  0  0  0  0
 21 23  1  0  0  0  0
 21 20  1  0  0  0  0
 22 21  2  0  0  0  0
 23 24  1  0  0  0  0
 25 24  1  0  0  0  0
M  END
>  <MODEL>
8

>  <REMARK>
 VINA RESULT:      -6.5      2.464      4.031
  Name = 
  7 active torsions:
  status: ('A' for Active; 'I' for Inactive)
    1  A    between atoms: O_2  and  C_7
    2  A    between atoms: O_2  and  C_21
    3  A    between atoms: N_5  and  C_10
    4  A    between atoms: N_5  and  C_17
    5  A    between atoms: C_6  and  C_15
    6  A    between atoms: C_6  and  C_23
    7  A    between atoms: C_15  and  C_21
                            x       y       z     vdW  Elec       q    Type
                         _______ _______ _______ _____ _____    ______ ____

>  <TORSDO>
F 7

$$$$
=
 OpenBabel11052412513D

 25 27  0  0  1  0  0  0  0  0999 V2000
  190.2480  177.7320  141.3540 C   0  0  0  0  0  0  0  0  0  0  0  0
  188.9600  178.0460  140.8690 C   0  0  0  0  0  0  0  0  0  0  0  0
  190.9170  177.1250  139.1560 C   0  0  0  0  0  3  0  0  0  0  0  0
  190.5940  177.8620  142.7480 N   0  0  0  0  0  0  0  0  0  0  0  0
  189.6890  177.4340  138.6690 N   0  0  0  0  0  0  0  0  0  0  0  0
  187.4270  178.1840  138.9900 C   0  0  0  0  0  0  0  0  0  0  0  0
  187.1140  178.0330  137.5400 C   0  0  0  0  0  1  0  0  0  0  0  0
  187.9260  178.4740  141.7080 C   0  0  0  0  0  3  0  0  0  0  0  0
  191.1840  177.2700  140.4790 N   0  0  0  0  0  0  0  0  0  0  0  0
  186.4510  178.6070  139.8370 N   0  0  0  0  0  0  0  0  0  0  0  0
  186.6720  178.7600  141.1700 C   0  0  0  0  0  0  0  0  0  0  0  0
  188.7060  177.8870  139.4910 C   0  0  0  0  0  0  0  0  0  0  0  0
  189.6370  175.3370  143.3260 C   0  0  0  0  0  1  0  0  0  0  0  0
  191.6290  176.9810  143.3030 C   0  0  2  0  0  3  0  0  0  0  0  0
  191.1220  175.5550  143.5760 C   0  0  1  0  0  3  0  0  0  0  0  0
  191.2840  176.5380  144.7150 C   0  0  0  0  0  2  0  0  0  0  0  0
  190.3180  179.1160  143.4420 C   0  0  0  0  0  2  0  0  0  0  0  0
  191.5100  179.6730  143.9070 O   0  0  0  0  0  1  0  0  0  0  0  0
  185.5640  179.1990  142.0610 C   0  0  0  0  0  2  0  0  0  0  0  0
  185.4860  178.2930  143.2760 C   0  0  0  0  0  2  0  0  0  0  0  0
  184.3200  178.6770  144.1160 C   0  0  0  0  0  0  0  0  0  0  0  0
  183.1600  178.6400  143.6250 O   0  0  0  0  0  0  0  0  0  0  0  0
  184.5240  179.0460  145.4460 O   0  0  0  0  0  0  0  0  0  0  0  0
  185.7600  178.8170  146.1050 C   0  0  0  0  0  2  0  0  0  0  0  0
  185.7530  179.4850  147.3920 N   0  0  0  0  0  1  0  0  0  0  0  0
  1  4  1  0  0  0  0
  2  1  1  0  0  0  0
  2  8  1  0  0  0  0
  3  9  1  0  0  0  0
  4 17  1  0  0  0  0
  5  3  2  0  0  0  0
  5 12  1  0  0  0  0
  6 12  1  0  0  0  0
  6 10  2  0  0  0  0
  7  6  1  0  0  0  0
  9  1  2  0  0  0  0
 10 11  1  0  0  0  0
 11  8  2  0  0  0  0
 11 19  1  0  0  0  0
 12  2  2  0  0  0  0
 14  4  1  6  0  0  0
 14 15  1  0  0  0  0
 14 16  1  0  0  0  0
 15 13  1  6  0  0  0
 15 16  1  0  0  0  0
 17 18  1  0  0  0  0
 19 20  1  0  0  0  0
 20 21  1  0  0  0  0
 21 23  1  0  0  0  0
 22 21  2  0  0  0  0
 23 24  1  0  0  0  0
 24 25  1  0  0  0  0
M  END
>  <MODEL>
9

>  <REMARK>
 VINA RESULT:      -6.4      2.533      5.574
  Name = 
  7 active torsions:
  status: ('A' for Active; 'I' for Inactive)
    1  A    between atoms: O_2  and  C_7
    2  A    between atoms: O_2  and  C_21
    3  A    between atoms: N_5  and  C_10
    4  A    between atoms: N_5  and  C_17
    5  A    between atoms: C_6  and  C_15
    6  A    between atoms: C_6  and  C_23
    7  A    between atoms: C_15  and  C_21
                            x       y       z     vdW  Elec       q    Type
                         _______ _______ _______ _____ _____    ______ ____

>  <TORSDO>
F 7

$$$$
