=
 OpenBabel11052414053D

 34 39  0  0  1  0  0  0  0  0999 V2000
  185.0750  178.4730  139.2940 C   0  0  0  0  0  0  0  0  0  0  0  0
  183.5580  176.6450  138.7070 C   0  0  0  0  0  0  0  0  0  0  0  0
  183.6070  177.6230  141.1020 C   0  0  1  0  0  3  0  0  0  0  0  0
  182.0940  179.0640  142.4640 C   0  0  0  0  0  0  0  0  0  0  0  0
  184.9990  177.4970  136.9490 C   0  0  0  0  0  3  0  0  0  0  0  0
  184.0810  176.6150  137.3400 C   0  0  0  0  0  3  0  0  0  0  0  0
  181.3390  178.6140  140.3130 C   0  0  0  0  0  3  0  0  0  0  0  0
  184.1220  177.6000  139.6800 C   0  0  0  0  0  0  0  0  0  0  0  0
  180.5930  179.8100  142.4310 S   0  0  0  0  0  0  0  0  0  0  0  0
  185.5160  178.5870  137.8530 C   0  0  0  0  0  2  0  0  0  0  0  0
  184.7070  178.0850  142.0950 C   0  0  2  0  0  3  0  0  0  0  0  0
  185.6600  179.3710  140.2490 N   0  0  0  0  0  0  0  0  0  0  0  0
  182.6510  175.8400  139.0460 O   0  0  0  0  0  0  0  0  0  0  0  0
  182.9660  178.9640  143.5900 N   0  0  0  0  0  0  0  0  0  0  0  0
  184.1630  178.4560  143.4690 C   0  0  0  0  0  0  0  0  0  0  0  0
  180.2840  179.3660  140.8320 C   0  0  0  0  0  0  0  0  0  0  0  0
  182.3700  178.4690  141.2490 C   0  0  0  0  0  0  0  0  0  0  0  0
  185.4890  179.2400  141.5310 C   0  0  0  0  0  3  0  0  0  0  0  0
  187.1450  177.7030  145.6810 C   0  0  0  0  0  0  0  0  0  0  0  0
  186.6650  178.0960  146.9330 C   0  0  0  0  0  3  0  0  0  0  0  0
  185.0280  178.3340  144.6630 C   0  0  0  0  0  0  0  0  0  0  0  0
  185.3710  178.6060  147.0560 C   0  0  0  0  0  3  0  0  0  0  0  0
  186.3300  177.8220  144.5520 C   0  0  0  0  0  3  0  0  0  0  0  0
  184.5550  178.7240  145.9260 C   0  0  0  0  0  3  0  0  0  0  0  0
  188.4000  177.2090  145.5620 F   0  0  0  0  0  0  0  0  0  0  0  0
  179.0850  179.6970  140.1330 N   0  0  0  0  0  2  0  0  0  0  0  0
  178.9310  180.9550  139.4190 C   0  0  0  0  0  2  0  0  0  0  0  0
  180.0070  183.3720  138.2730 F   0  0  0  0  0  0  0  0  0  0  0  0
  179.8610  180.9850  138.2190 C   0  0  2  0  0  3  0  0  0  0  0  0
  179.6860  182.3040  137.4570 C   0  0  2  0  0  3  0  0  0  0  0  0
  180.3720  181.0760  135.3820 C   0  0  0  0  0  2  0  0  0  0  0  0
  180.5330  179.8310  136.2500 C   0  0  0  0  0  2  0  0  0  0  0  0
  179.5590  179.8550  137.3390 N   0  0  0  0  0  2  0  0  0  0  0  0
  180.6000  182.3190  136.2340 C   0  0  0  0  0  2  0  0  0  0  0  0
  1  8  2  0  0  0  0
  1 12  1  0  0  0  0
  2 13  2  0  0  0  0
  2  8  1  0  0  0  0
  3  8  1  6  0  0  0
  3 17  1  0  0  0  0
  3 11  1  0  0  0  0
  4 14  1  0  0  0  0
  5  6  2  0  0  0  0
  5 10  1  0  0  0  0
  6  2  1  0  0  0  0
  7 16  2  0  0  0  0
  7 17  1  0  0  0  0
  9  4  1  0  0  0  0
 10  1  1  0  0  0  0
 11 18  1  6  0  0  0
 11 15  1  0  0  0  0
 12 18  2  0  0  0  0
 15 14  2  0  0  0  0
 15 21  1  0  0  0  0
 16  9  1  0  0  0  0
 17  4  2  0  0  0  0
 19 20  1  0  0  0  0
 20 22  2  0  0  0  0
 21 24  2  0  0  0  0
 23 21  1  0  0  0  0
 23 19  2  0  0  0  0
 24 22  1  0  0  0  0
 25 19  1  0  0  0  0
 26 16  1  0  0  0  0
 27 26  1  0  0  0  0
 29 27  1  1  0  0  0
 30 29  1  0  0  0  0
 30 28  1  1  0  0  0
 31 34  1  0  0  0  0
 31 32  1  0  0  0  0
 32 33  1  0  0  0  0
 33 29  1  0  0  0  0
 34 30  1  0  0  0  0
M  END
>  <MODEL>
1

>  <REMARK>
 VINA RESULT:      -8.6      0.000      0.000
  Name = 
  4 active torsions:
  status: ('A' for Active; 'I' for Inactive)
    1  A    between atoms: C_3  and  C_13
    2  A    between atoms: C_3  and  N_17
    3  A    between atoms: C_12  and  C_28
    4  A    between atoms: N_17  and  C_29
                            x       y       z     vdW  Elec       q    Type
                         _______ _______ _______ _____ _____    ______ ____

>  <TORSDO>
F 4

$$$$
=
 OpenBabel11052414053D

 34 39  0  0  1  0  0  0  0  0999 V2000
  186.5530  176.8460  136.9310 C   0  0  0  0  0  0  0  0  0  0  0  0
  188.4330  178.4120  136.8810 C   0  0  0  0  0  0  0  0  0  0  0  0
  186.4110  178.8010  138.4490 C   0  0  1  0  0  3  0  0  0  0  0  0
  186.0100  178.6360  140.9050 C   0  0  0  0  0  0  0  0  0  0  0  0
  188.5550  176.4860  135.4080 C   0  0  0  0  0  3  0  0  0  0  0  0
  189.0940  177.6260  135.8380 C   0  0  0  0  0  3  0  0  0  0  0  0
  188.1650  178.0900  140.2290 C   0  0  0  0  0  3  0  0  0  0  0  0
  187.1150  177.9840  137.3890 C   0  0  0  0  0  0  0  0  0  0  0  0
  186.7930  178.3380  142.3570 S   0  0  0  0  0  0  0  0  0  0  0  0
  187.2820  175.9220  135.9840 C   0  0  0  0  0  2  0  0  0  0  0  0
  184.8690  178.6720  138.3310 C   0  0  2  0  0  3  0  0  0  0  0  0
  185.2500  176.4510  137.3880 N   0  0  0  0  0  0  0  0  0  0  0  0
  188.9810  179.4590  137.3150 O   0  0  0  0  0  0  0  0  0  0  0  0
  184.6670  179.0930  140.7440 N   0  0  0  0  0  0  0  0  0  0  0  0
  184.1250  179.1830  139.5590 C   0  0  0  0  0  0  0  0  0  0  0  0
  188.2630  177.9660  141.6150 C   0  0  0  0  0  0  0  0  0  0  0  0
  186.8690  178.4530  139.8400 C   0  0  0  0  0  0  0  0  0  0  0  0
  184.4690  177.2490  138.0530 C   0  0  0  0  0  3  0  0  0  0  0  0
  181.1700  181.3200  138.5310 C   0  0  0  0  0  0  0  0  0  0  0  0
  180.1190  180.6670  139.1800 C   0  0  0  0  0  3  0  0  0  0  0  0
  182.7430  179.6950  139.4250 C   0  0  0  0  0  0  0  0  0  0  0  0
  180.3740  179.5310  139.9520 C   0  0  0  0  0  3  0  0  0  0  0  0
  182.4750  180.8360  138.6530 C   0  0  0  0  0  3  0  0  0  0  0  0
  181.6800  179.0470  140.0750 C   0  0  0  0  0  3  0  0  0  0  0  0
  180.9240  182.4210  137.7830 F   0  0  0  0  0  0  0  0  0  0  0  0
  189.4450  177.6080  142.3290 N   0  0  0  0  0  2  0  0  0  0  0  0
  189.8890  178.3440  143.5030 C   0  0  0  0  0  2  0  0  0  0  0  0
  187.9170  177.7520  145.5220 F   0  0  0  0  0  0  0  0  0  0  0  0
  190.1180  177.3850  144.6580 C   0  0  2  0  0  3  0  0  0  0  0  0
  189.2580  177.7990  145.8570 C   0  0  2  0  0  3  0  0  0  0  0  0
  191.0030  176.7680  147.3320 C   0  0  0  0  0  2  0  0  0  0  0  0
  191.7600  176.3890  146.0620 C   0  0  0  0  0  2  0  0  0  0  0  0
  191.5330  177.3970  145.0290 N   0  0  0  0  0  2  0  0  0  0  0  0
  189.5120  176.8510  147.0260 C   0  0  0  0  0  2  0  0  0  0  0  0
  1 12  1  0  0  0  0
  1  8  2  0  0  0  0
  2 13  2  0  0  0  0
  2  8  1  0  0  0  0
  3  8  1  6  0  0  0
  3 17  1  0  0  0  0
  4  9  1  0  0  0  0
  5  6  2  0  0  0  0
  5 10  1  0  0  0  0
  6  2  1  0  0  0  0
  7 16  2  0  0  0  0
 10  1  1  0  0  0  0
 11 18  1  1  0  0  0
 11  3  1  0  0  0  0
 11 15  1  0  0  0  0
 12 18  2  0  0  0  0
 14  4  1  0  0  0  0
 15 14  2  0  0  0  0
 16 26  1  0  0  0  0
 16  9  1  0  0  0  0
 17  7  1  0  0  0  0
 17  4  2  0  0  0  0
 19 23  2  0  0  0  0
 19 20  1  0  0  0  0
 20 22  2  0  0  0  0
 21 15  1  0  0  0  0
 21 24  2  0  0  0  0
 22 24  1  0  0  0  0
 23 21  1  0  0  0  0
 25 19  1  0  0  0  0
 26 27  1  0  0  0  0
 29 27  1  6  0  0  0
 29 33  1  0  0  0  0
 29 30  1  0  0  0  0
 30 28  1  6  0  0  0
 30 34  1  0  0  0  0
 32 31  1  0  0  0  0
 33 32  1  0  0  0  0
 34 31  1  0  0  0  0
M  END
>  <MODEL>
2

>  <REMARK>
 VINA RESULT:      -8.4      3.338      8.931
  Name = 
  4 active torsions:
  status: ('A' for Active; 'I' for Inactive)
    1  A    between atoms: C_3  and  C_13
    2  A    between atoms: C_3  and  N_17
    3  A    between atoms: C_12  and  C_28
    4  A    between atoms: N_17  and  C_29
                            x       y       z     vdW  Elec       q    Type
                         _______ _______ _______ _____ _____    ______ ____

>  <TORSDO>
F 4

$$$$
=
 OpenBabel11052414053D

 34 39  0  0  1  0  0  0  0  0999 V2000
  186.8080  176.7140  137.1530 C   0  0  0  0  0  0  0  0  0  0  0  0
  188.6300  178.3350  137.3510 C   0  0  0  0  0  0  0  0  0  0  0  0
  186.3300  178.7710  138.4520 C   0  0  1  0  0  3  0  0  0  0  0  0
  185.4480  178.7760  140.7850 C   0  0  0  0  0  0  0  0  0  0  0  0
  189.0800  176.3100  136.0900 C   0  0  0  0  0  3  0  0  0  0  0  0
  189.5020  177.4970  136.5260 C   0  0  0  0  0  3  0  0  0  0  0  0
  187.7040  178.2540  140.5940 C   0  0  0  0  0  3  0  0  0  0  0  0
  187.2460  177.9010  137.6210 C   0  0  0  0  0  0  0  0  0  0  0  0
  185.9300  178.6130  142.3820 S   0  0  0  0  0  0  0  0  0  0  0  0
  187.7280  175.7480  136.4450 C   0  0  0  0  0  2  0  0  0  0  0  0
  184.8440  178.5820  138.0420 C   0  0  2  0  0  3  0  0  0  0  0  0
  185.4480  176.3110  137.3730 N   0  0  0  0  0  0  0  0  0  0  0  0
  189.0620  179.4290  137.8010 O   0  0  0  0  0  0  0  0  0  0  0  0
  184.1560  179.1730  140.3260 N   0  0  0  0  0  0  0  0  0  0  0  0
  183.8610  179.1570  139.0530 C   0  0  0  0  0  0  0  0  0  0  0  0
  187.5250  178.2370  141.9780 C   0  0  0  0  0  0  0  0  0  0  0  0
  186.5060  178.5430  139.9290 C   0  0  0  0  0  0  0  0  0  0  0  0
  184.5340  177.1290  137.8040 C   0  0  0  0  0  3  0  0  0  0  0  0
  180.3440  179.1270  137.6460 C   0  0  0  0  0  0  0  0  0  0  0  0
  179.9910  180.4740  137.7570 C   0  0  0  0  0  3  0  0  0  0  0  0
  182.5240  179.6100  138.6080 C   0  0  0  0  0  0  0  0  0  0  0  0
  180.8990  181.3920  138.2900 C   0  0  0  0  0  3  0  0  0  0  0  0
  181.6040  178.6980  138.0690 C   0  0  0  0  0  3  0  0  0  0  0  0
  182.1600  180.9620  138.7140 C   0  0  0  0  0  3  0  0  0  0  0  0
  179.4640  178.2370  137.1290 F   0  0  0  0  0  0  0  0  0  0  0  0
  188.5470  177.9730  142.9380 N   0  0  0  0  0  2  0  0  0  0  0  0
  188.3730  176.9920  143.9990 C   0  0  0  0  0  2  0  0  0  0  0  0
  190.6330  177.3520  145.7520 F   0  0  0  0  0  0  0  0  0  0  0  0
  188.3010  177.6930  145.3440 C   0  0  2  0  0  3  0  0  0  0  0  0
  189.3750  177.1320  146.2820 C   0  0  2  0  0  3  0  0  0  0  0  0
  187.8630  177.7180  148.1940 C   0  0  0  0  0  2  0  0  0  0  0  0
  186.8800  178.2660  147.1640 C   0  0  0  0  0  2  0  0  0  0  0  0
  186.9730  177.4940  145.9270 N   0  0  0  0  0  2  0  0  0  0  0  0
  189.2810  177.8170  147.6420 C   0  0  0  0  0  2  0  0  0  0  0  0
  1 12  1  0  0  0  0
  1  8  2  0  0  0  0
  2  8  1  0  0  0  0
  2 13  2  0  0  0  0
  3  8  1  6  0  0  0
  3 17  1  0  0  0  0
  4  9  1  0  0  0  0
  5 10  1  0  0  0  0
  5  6  2  0  0  0  0
  6  2  1  0  0  0  0
  7 16  2  0  0  0  0
 10  1  1  0  0  0  0
 11 18  1  1  0  0  0
 11  3  1  0  0  0  0
 11 15  1  0  0  0  0
 12 18  2  0  0  0  0
 14  4  1  0  0  0  0
 15 14  2  0  0  0  0
 16  9  1  0  0  0  0
 16 26  1  0  0  0  0
 17  7  1  0  0  0  0
 17  4  2  0  0  0  0
 19 20  2  0  0  0  0
 19 23  1  0  0  0  0
 20 22  1  0  0  0  0
 21 24  1  0  0  0  0
 21 15  1  0  0  0  0
 22 24  2  0  0  0  0
 23 21  2  0  0  0  0
 25 19  1  0  0  0  0
 26 27  1  0  0  0  0
 29 27  1  6  0  0  0
 29 33  1  0  0  0  0
 29 30  1  0  0  0  0
 30 28  1  6  0  0  0
 30 34  1  0  0  0  0
 32 31  1  0  0  0  0
 33 32  1  0  0  0  0
 34 31  1  0  0  0  0
M  END
>  <MODEL>
3

>  <REMARK>
 VINA RESULT:      -8.0      3.009      8.792
  Name = 
  4 active torsions:
  status: ('A' for Active; 'I' for Inactive)
    1  A    between atoms: C_3  and  C_13
    2  A    between atoms: C_3  and  N_17
    3  A    between atoms: C_12  and  C_28
    4  A    between atoms: N_17  and  C_29
                            x       y       z     vdW  Elec       q    Type
                         _______ _______ _______ _____ _____    ______ ____

>  <TORSDO>
F 4

$$$$
=
 OpenBabel11052414053D

 34 39  0  0  1  0  0  0  0  0999 V2000
  186.7630  176.7250  137.5590 C   0  0  0  0  0  0  0  0  0  0  0  0
  188.6280  178.2460  138.0020 C   0  0  0  0  0  0  0  0  0  0  0  0
  186.2320  178.8010  138.8070 C   0  0  1  0  0  3  0  0  0  0  0  0
  185.0620  178.8450  141.0090 C   0  0  0  0  0  0  0  0  0  0  0  0
  189.1290  176.2040  136.7900 C   0  0  0  0  0  3  0  0  0  0  0  0
  189.5520  177.3650  137.2870 C   0  0  0  0  0  3  0  0  0  0  0  0
  187.2940  178.2060  141.1020 C   0  0  0  0  0  3  0  0  0  0  0  0
  187.2000  177.8860  138.0910 C   0  0  0  0  0  0  0  0  0  0  0  0
  185.3280  178.6530  142.6530 S   0  0  0  0  0  0  0  0  0  0  0  0
  187.7140  175.7130  136.9650 C   0  0  0  0  0  2  0  0  0  0  0  0
  184.8030  178.6910  138.2100 C   0  0  2  0  0  3  0  0  0  0  0  0
  185.3670  176.3930  137.6010 N   0  0  0  0  0  0  0  0  0  0  0  0
  189.0550  179.3150  138.5140 O   0  0  0  0  0  0  0  0  0  0  0  0
  183.8620  179.3110  140.3940 N   0  0  0  0  0  0  0  0  0  0  0  0
  183.7300  179.3150  139.0940 C   0  0  0  0  0  0  0  0  0  0  0  0
  186.9400  178.1940  142.4510 C   0  0  0  0  0  0  0  0  0  0  0  0
  186.2070  178.5590  140.2930 C   0  0  0  0  0  0  0  0  0  0  0  0
  184.4500  177.2570  137.9220 C   0  0  0  0  0  3  0  0  0  0  0  0
  180.9190  181.6630  138.1270 C   0  0  0  0  0  0  0  0  0  0  0  0
  180.1200  180.8280  137.3420 C   0  0  0  0  0  3  0  0  0  0  0  0
  182.4860  179.8390  138.4880 C   0  0  0  0  0  0  0  0  0  0  0  0
  180.4980  179.5000  137.1280 C   0  0  0  0  0  3  0  0  0  0  0  0
  182.0960  181.1700  138.6970 C   0  0  0  0  0  3  0  0  0  0  0  0
  181.6750  179.0080  137.6990 C   0  0  0  0  0  3  0  0  0  0  0  0
  180.5530  182.9500  138.3350 F   0  0  0  0  0  0  0  0  0  0  0  0
  187.8160  177.8740  143.5300 N   0  0  0  0  0  2  0  0  0  0  0  0
  189.2630  177.8840  143.3780 C   0  0  0  0  0  2  0  0  0  0  0  0
  192.0010  177.0950  143.8170 F   0  0  0  0  0  0  0  0  0  0  0  0
  189.9270  177.8450  144.7430 C   0  0  2  0  0  3  0  0  0  0  0  0
  191.0330  176.7850  144.7540 C   0  0  2  0  0  3  0  0  0  0  0  0
  190.6190  176.5270  147.2120 C   0  0  0  0  0  2  0  0  0  0  0  0
  189.5530  177.6110  147.0810 C   0  0  0  0  0  2  0  0  0  0  0  0
  188.9250  177.5340  145.7640 N   0  0  0  0  0  2  0  0  0  0  0  0
  191.6790  176.7260  146.1360 C   0  0  0  0  0  2  0  0  0  0  0  0
  1 12  1  0  0  0  0
  1  8  2  0  0  0  0
  2  8  1  0  0  0  0
  2 13  2  0  0  0  0
  3  8  1  6  0  0  0
  3 17  1  0  0  0  0
  4  9  1  0  0  0  0
  5 10  1  0  0  0  0
  5  6  2  0  0  0  0
  6  2  1  0  0  0  0
  7 16  2  0  0  0  0
 10  1  1  0  0  0  0
 11 18  1  1  0  0  0
 11  3  1  0  0  0  0
 11 15  1  0  0  0  0
 12 18  2  0  0  0  0
 14  4  1  0  0  0  0
 15 14  2  0  0  0  0
 16  9  1  0  0  0  0
 16 26  1  0  0  0  0
 17  4  2  0  0  0  0
 17  7  1  0  0  0  0
 19 25  1  0  0  0  0
 19 23  1  0  0  0  0
 20 19  2  0  0  0  0
 21 23  2  0  0  0  0
 21 15  1  0  0  0  0
 22 20  1  0  0  0  0
 22 24  2  0  0  0  0
 24 21  1  0  0  0  0
 27 26  1  0  0  0  0
 29 27  1  6  0  0  0
 29 30  1  0  0  0  0
 29 33  1  0  0  0  0
 30 28  1  6  0  0  0
 30 34  1  0  0  0  0
 32 31  1  0  0  0  0
 33 32  1  0  0  0  0
 34 31  1  0  0  0  0
M  END
>  <MODEL>
4

>  <REMARK>
 VINA RESULT:      -7.8      3.227      9.065
  Name = 
  4 active torsions:
  status: ('A' for Active; 'I' for Inactive)
    1  A    between atoms: C_3  and  C_13
    2  A    between atoms: C_3  and  N_17
    3  A    between atoms: C_12  and  C_28
    4  A    between atoms: N_17  and  C_29
                            x       y       z     vdW  Elec       q    Type
                         _______ _______ _______ _____ _____    ______ ____

>  <TORSDO>
F 4

$$$$
=
 OpenBabel11052414053D

 34 39  0  0  1  0  0  0  0  0999 V2000
  188.3700  177.2500  135.4080 C   0  0  0  0  0  0  0  0  0  0  0  0
  186.4940  176.2930  136.6550 C   0  0  0  0  0  0  0  0  0  0  0  0
  188.9410  175.7420  137.2910 C   0  0  1  0  0  3  0  0  0  0  0  0
  190.4750  176.3590  139.1590 C   0  0  0  0  0  0  0  0  0  0  0  0
  185.9560  177.7790  134.8130 C   0  0  0  0  0  3  0  0  0  0  0  0
  185.5340  176.9640  135.7780 C   0  0  0  0  0  3  0  0  0  0  0  0
  188.3550  177.3020  139.2830 C   0  0  0  0  0  3  0  0  0  0  0  0
  187.9400  176.4500  136.4060 C   0  0  0  0  0  0  0  0  0  0  0  0
  190.5210  177.1910  140.6130 S   0  0  0  0  0  0  0  0  0  0  0  0
  187.4150  178.0910  134.5940 C   0  0  0  0  0  2  0  0  0  0  0  0
  190.2460  175.4120  136.5170 C   0  0  2  0  0  3  0  0  0  0  0  0
  189.7740  177.3670  135.1330 N   0  0  0  0  0  0  0  0  0  0  0  0
  186.0780  175.5690  137.5980 O   0  0  0  0  0  0  0  0  0  0  0  0
  191.5050  175.5270  138.6250 N   0  0  0  0  0  0  0  0  0  0  0  0
  191.4030  175.0180  137.4270 C   0  0  0  0  0  0  0  0  0  0  0  0
  188.9420  177.7680  140.4600 C   0  0  0  0  0  0  0  0  0  0  0  0
  189.2480  176.5170  138.5440 C   0  0  0  0  0  0  0  0  0  0  0  0
  190.6590  176.5650  135.6440 C   0  0  0  0  0  3  0  0  0  0  0  0
  194.8310  173.5700  136.7090 C   0  0  0  0  0  0  0  0  0  0  0  0
  194.5010  172.4480  135.9440 C   0  0  0  0  0  3  0  0  0  0  0  0
  192.4730  174.1300  136.9180 C   0  0  0  0  0  0  0  0  0  0  0  0
  193.1630  172.1640  135.6630 C   0  0  0  0  0  3  0  0  0  0  0  0
  193.8210  174.4070  137.1930 C   0  0  0  0  0  3  0  0  0  0  0  0
  192.1530  173.0010  136.1470 C   0  0  0  0  0  3  0  0  0  0  0  0
  196.1280  173.8470  136.9820 F   0  0  0  0  0  0  0  0  0  0  0  0
  188.3000  178.5930  141.4310 N   0  0  0  0  0  2  0  0  0  0  0  0
  187.0110  178.2440  142.0090 C   0  0  0  0  0  2  0  0  0  0  0  0
  184.9090  177.9020  143.9520 F   0  0  0  0  0  0  0  0  0  0  0  0
  187.2120  177.6100  143.3740 C   0  0  2  0  0  3  0  0  0  0  0  0
  186.1970  178.1840  144.3690 C   0  0  2  0  0  3  0  0  0  0  0  0
  187.8720  177.7360  146.1780 C   0  0  0  0  0  2  0  0  0  0  0  0
  188.7900  177.1680  145.0990 C   0  0  0  0  0  2  0  0  0  0  0  0
  188.5740  177.8770  143.8400 N   0  0  0  0  0  2  0  0  0  0  0  0
  186.4200  177.5690  145.7470 C   0  0  0  0  0  2  0  0  0  0  0  0
  1  8  2  0  0  0  0
  2 13  2  0  0  0  0
  3  8  1  6  0  0  0
  3 17  1  0  0  0  0
  4  9  1  0  0  0  0
  5  6  2  0  0  0  0
  6  2  1  0  0  0  0
  7 16  2  0  0  0  0
  8  2  1  0  0  0  0
 10  5  1  0  0  0  0
 10  1  1  0  0  0  0
 11 18  1  1  0  0  0
 11  3  1  0  0  0  0
 11 15  1  0  0  0  0
 12  1  1  0  0  0  0
 12 18  2  0  0  0  0
 14  4  1  0  0  0  0
 15 14  2  0  0  0  0
 16  9  1  0  0  0  0
 16 26  1  0  0  0  0
 17  4  2  0  0  0  0
 17  7  1  0  0  0  0
 19 25  1  0  0  0  0
 19 23  1  0  0  0  0
 20 19  2  0  0  0  0
 21 23  2  0  0  0  0
 21 15  1  0  0  0  0
 22 20  1  0  0  0  0
 22 24  2  0  0  0  0
 24 21  1  0  0  0  0
 26 27  1  0  0  0  0
 29 27  1  6  0  0  0
 29 33  1  0  0  0  0
 29 30  1  0  0  0  0
 30 28  1  6  0  0  0
 30 34  1  0  0  0  0
 32 31  1  0  0  0  0
 33 32  1  0  0  0  0
 34 31  1  0  0  0  0
M  END
>  <MODEL>
5

>  <REMARK>
 VINA RESULT:      -7.6      6.022      9.679
  Name = 
  4 active torsions:
  status: ('A' for Active; 'I' for Inactive)
    1  A    between atoms: C_3  and  C_13
    2  A    between atoms: C_3  and  N_17
    3  A    between atoms: C_12  and  C_28
    4  A    between atoms: N_17  and  C_29
                            x       y       z     vdW  Elec       q    Type
                         _______ _______ _______ _____ _____    ______ ____

>  <TORSDO>
F 4

$$$$
=
 OpenBabel11052414053D

 34 39  0  0  1  0  0  0  0  0999 V2000
  192.4930  176.7540  138.7560 C   0  0  0  0  0  0  0  0  0  0  0  0
  191.1870  175.0100  137.6420 C   0  0  0  0  0  0  0  0  0  0  0  0
  190.3340  176.1380  139.8080 C   0  0  1  0  0  3  0  0  0  0  0  0
  188.5380  177.7750  140.3710 C   0  0  0  0  0  0  0  0  0  0  0  0
  193.3000  175.6340  136.6230 C   0  0  0  0  0  3  0  0  0  0  0  0
  192.2230  174.8500  136.6190 C   0  0  0  0  0  3  0  0  0  0  0  0
  188.7020  177.2420  138.1160 C   0  0  0  0  0  3  0  0  0  0  0  0
  191.3860  175.9830  138.7330 C   0  0  0  0  0  0  0  0  0  0  0  0
  187.2640  178.6280  139.6930 S   0  0  0  0  0  0  0  0  0  0  0  0
  193.4990  176.7390  137.6290 C   0  0  0  0  0  2  0  0  0  0  0  0
  190.9640  176.5810  141.1570 C   0  0  2  0  0  3  0  0  0  0  0  0
  192.7130  177.6670  139.8420 N   0  0  0  0  0  0  0  0  0  0  0  0
  190.1490  174.3000  137.5940 O   0  0  0  0  0  0  0  0  0  0  0  0
  188.8530  177.6840  141.7610 N   0  0  0  0  0  0  0  0  0  0  0  0
  189.9380  177.0810  142.1660 C   0  0  0  0  0  0  0  0  0  0  0  0
  187.6050  178.1040  138.1250 C   0  0  0  0  0  0  0  0  0  0  0  0
  189.2340  177.0820  139.4010 C   0  0  0  0  0  0  0  0  0  0  0  0
  192.0150  177.6340  140.9380 C   0  0  0  0  0  3  0  0  0  0  0  0
  189.5540  177.3490  145.9260 C   0  0  0  0  0  0  0  0  0  0  0  0
  190.7500  176.7760  146.3660 C   0  0  0  0  0  3  0  0  0  0  0  0
  190.2160  176.9740  143.6160 C   0  0  0  0  0  0  0  0  0  0  0  0
  191.6800  176.3030  145.4390 C   0  0  0  0  0  3  0  0  0  0  0  0
  189.2890  177.4470  144.5570 C   0  0  0  0  0  3  0  0  0  0  0  0
  191.4150  176.4020  144.0700 C   0  0  0  0  0  3  0  0  0  0  0  0
  188.6520  177.8090  146.8250 F   0  0  0  0  0  0  0  0  0  0  0  0
  186.8400  178.4760  136.9800 N   0  0  0  0  0  2  0  0  0  0  0  0
  186.1230  177.4950  136.1780 C   0  0  0  0  0  2  0  0  0  0  0  0
  186.9780  174.7860  136.6660 F   0  0  0  0  0  0  0  0  0  0  0  0
  185.3890  176.5250  137.0860 C   0  0  2  0  0  3  0  0  0  0  0  0
  185.6290  175.0870  136.6130 C   0  0  2  0  0  3  0  0  0  0  0  0
  183.3950  174.5030  137.5870 C   0  0  0  0  0  2  0  0  0  0  0  0
  183.2780  175.9590  138.0270 C   0  0  0  0  0  2  0  0  0  0  0  0
  183.9570  176.8250  137.0650 N   0  0  0  0  0  2  0  0  0  0  0  0
  184.8660  174.1140  137.5080 C   0  0  0  0  0  2  0  0  0  0  0  0
  1 12  1  0  0  0  0
  2  8  1  0  0  0  0
  3  8  1  6  0  0  0
  3 11  1  0  0  0  0
  4 14  1  0  0  0  0
  5 10  1  0  0  0  0
  6  5  2  0  0  0  0
  6  2  1  0  0  0  0
  7 16  2  0  0  0  0
  7 17  1  0  0  0  0
  8  1  2  0  0  0  0
  9  4  1  0  0  0  0
 10  1  1  0  0  0  0
 11 18  1  6  0  0  0
 11 15  1  0  0  0  0
 12 18  2  0  0  0  0
 13  2  2  0  0  0  0
 14 15  2  0  0  0  0
 15 21  1  0  0  0  0
 16  9  1  0  0  0  0
 17  3  1  0  0  0  0
 17  4  2  0  0  0  0
 19 20  1  0  0  0  0
 19 25  1  0  0  0  0
 21 24  2  0  0  0  0
 21 23  1  0  0  0  0
 22 20  2  0  0  0  0
 23 19  2  0  0  0  0
 24 22  1  0  0  0  0
 26 16  1  0  0  0  0
 27 26  1  0  0  0  0
 29 27  1  6  0  0  0
 30 28  1  1  0  0  0
 30 29  1  0  0  0  0
 30 34  1  0  0  0  0
 31 32  1  0  0  0  0
 33 29  1  0  0  0  0
 33 32  1  0  0  0  0
 34 31  1  0  0  0  0
M  END
>  <MODEL>
6

>  <REMARK>
 VINA RESULT:      -7.6      5.224      7.212
  Name = 
  4 active torsions:
  status: ('A' for Active; 'I' for Inactive)
    1  A    between atoms: C_3  and  C_13
    2  A    between atoms: C_3  and  N_17
    3  A    between atoms: C_12  and  C_28
    4  A    between atoms: N_17  and  C_29
                            x       y       z     vdW  Elec       q    Type
                         _______ _______ _______ _____ _____    ______ ____

>  <TORSDO>
F 4

$$$$
=
 OpenBabel11052414053D

 34 39  0  0  1  0  0  0  0  0999 V2000
  190.4000  177.1890  144.9350 C   0  0  0  0  0  0  0  0  0  0  0  0
  190.8110  174.9940  143.9340 C   0  0  0  0  0  0  0  0  0  0  0  0
  188.8520  176.4820  143.1320 C   0  0  1  0  0  3  0  0  0  0  0  0
  188.3700  177.8400  141.0960 C   0  0  0  0  0  0  0  0  0  0  0  0
  192.3200  175.7080  145.6960 C   0  0  0  0  0  3  0  0  0  0  0  0
  191.9400  174.7630  144.8370 C   0  0  0  0  0  3  0  0  0  0  0  0
  190.4260  176.7590  141.0840 C   0  0  0  0  0  3  0  0  0  0  0  0
  190.0350  176.2440  144.0430 C   0  0  0  0  0  0  0  0  0  0  0  0
  188.9830  178.2210  139.5830 S   0  0  0  0  0  0  0  0  0  0  0  0
  191.6570  177.0600  145.7630 C   0  0  0  0  0  2  0  0  0  0  0  0
  187.7860  177.3830  143.8120 C   0  0  2  0  0  3  0  0  0  0  0  0
  189.6190  178.3850  145.0780 N   0  0  0  0  0  0  0  0  0  0  0  0
  190.4980  174.1140  143.0890 O   0  0  0  0  0  0  0  0  0  0  0  0
  187.0800  178.1890  141.6000 N   0  0  0  0  0  0  0  0  0  0  0  0
  186.7520  177.9340  142.8380 C   0  0  0  0  0  0  0  0  0  0  0  0
  190.4180  177.3670  139.8280 C   0  0  0  0  0  0  0  0  0  0  0  0
  189.2600  177.0550  141.8000 C   0  0  0  0  0  0  0  0  0  0  0  0
  188.4370  178.5180  144.5550 C   0  0  0  0  0  3  0  0  0  0  0  0
  183.0460  178.7210  142.8700 C   0  0  0  0  0  0  0  0  0  0  0  0
  182.8210  178.9340  144.2330 C   0  0  0  0  0  3  0  0  0  0  0  0
  185.3950  178.2760  143.3190 C   0  0  0  0  0  0  0  0  0  0  0  0
  183.8770  178.8220  145.1400 C   0  0  0  0  0  3  0  0  0  0  0  0
  184.3260  178.3930  142.4160 C   0  0  0  0  0  3  0  0  0  0  0  0
  185.1580  178.4950  144.6850 C   0  0  0  0  0  3  0  0  0  0  0  0
  182.0230  178.8290  141.9900 F   0  0  0  0  0  0  0  0  0  0  0  0
  191.4580  177.2650  138.8560 N   0  0  0  0  0  2  0  0  0  0  0  0
  191.2100  176.7700  137.5110 C   0  0  0  0  0  2  0  0  0  0  0  0
  190.7790  174.1340  136.4270 F   0  0  0  0  0  0  0  0  0  0  0  0
  192.3270  175.8320  137.0910 C   0  0  2  0  0  3  0  0  0  0  0  0
  191.8700  174.3770  137.2410 C   0  0  2  0  0  3  0  0  0  0  0  0
  194.2710  173.7700  137.6260 C   0  0  0  0  0  2  0  0  0  0  0  0
  194.6070  175.2460  137.4370 C   0  0  0  0  0  2  0  0  0  0  0  0
  193.5060  176.0740  137.9240 N   0  0  0  0  0  2  0  0  0  0  0  0
  193.0040  173.4350  136.8470 C   0  0  0  0  0  2  0  0  0  0  0  0
  1 12  1  0  0  0  0
  1 10  1  0  0  0  0
  2  8  1  0  0  0  0
  2  6  1  0  0  0  0
  3 17  1  6  0  0  0
  3 11  1  0  0  0  0
  3  8  1  0  0  0  0
  4 14  1  0  0  0  0
  4 17  2  0  0  0  0
  5 10  1  0  0  0  0
  6  5  2  0  0  0  0
  7 17  1  0  0  0  0
  8  1  2  0  0  0  0
  9 16  1  0  0  0  0
  9  4  1  0  0  0  0
 11 18  1  6  0  0  0
 13  2  2  0  0  0  0
 14 15  2  0  0  0  0
 15 21  1  0  0  0  0
 15 11  1  0  0  0  0
 16  7  2  0  0  0  0
 18 12  2  0  0  0  0
 19 20  1  0  0  0  0
 20 22  2  0  0  0  0
 21 24  2  0  0  0  0
 23 19  2  0  0  0  0
 23 21  1  0  0  0  0
 24 22  1  0  0  0  0
 25 19  1  0  0  0  0
 26 16  1  0  0  0  0
 27 26  1  0  0  0  0
 29 30  1  0  0  0  0
 29 27  1  1  0  0  0
 29 33  1  0  0  0  0
 30 28  1  6  0  0  0
 32 31  1  0  0  0  0
 32 33  1  0  0  0  0
 34 30  1  0  0  0  0
 34 31  1  0  0  0  0
M  END
>  <MODEL>
7

>  <REMARK>
 VINA RESULT:      -7.4      5.764      9.563
  Name = 
  4 active torsions:
  status: ('A' for Active; 'I' for Inactive)
    1  A    between atoms: C_3  and  C_13
    2  A    between atoms: C_3  and  N_17
    3  A    between atoms: C_12  and  C_28
    4  A    between atoms: N_17  and  C_29
                            x       y       z     vdW  Elec       q    Type
                         _______ _______ _______ _____ _____    ______ ____

>  <TORSDO>
F 4

$$$$
=
 OpenBabel11052414053D

 34 39  0  0  1  0  0  0  0  0999 V2000
  190.4180  177.2430  144.9850 C   0  0  0  0  0  0  0  0  0  0  0  0
  190.8540  175.0600  143.9680 C   0  0  0  0  0  0  0  0  0  0  0  0
  188.8730  176.5270  143.1830 C   0  0  1  0  0  3  0  0  0  0  0  0
  188.3640  177.8900  141.1570 C   0  0  0  0  0  0  0  0  0  0  0  0
  192.3610  175.7830  145.7290 C   0  0  0  0  0  3  0  0  0  0  0  0
  191.9900  174.8390  144.8650 C   0  0  0  0  0  3  0  0  0  0  0  0
  190.4350  176.8370  141.1310 C   0  0  0  0  0  3  0  0  0  0  0  0
  190.0630  176.3000  144.0880 C   0  0  0  0  0  0  0  0  0  0  0  0
  188.9660  178.2890  139.6440 S   0  0  0  0  0  0  0  0  0  0  0  0
  191.6800  177.1260  145.8060 C   0  0  0  0  0  2  0  0  0  0  0  0
  187.7980  177.4100  143.8730 C   0  0  2  0  0  3  0  0  0  0  0  0
  189.6220  178.4280  145.1380 N   0  0  0  0  0  0  0  0  0  0  0  0
  190.5490  174.1810  143.1200 O   0  0  0  0  0  0  0  0  0  0  0  0
  187.0720  178.2190  141.6690 N   0  0  0  0  0  0  0  0  0  0  0  0
  186.7520  177.9520  142.9070 C   0  0  0  0  0  0  0  0  0  0  0  0
  190.4140  177.4530  139.8790 C   0  0  0  0  0  0  0  0  0  0  0  0
  189.2680  177.1130  141.8540 C   0  0  0  0  0  0  0  0  0  0  0  0
  188.4360  178.5480  144.6200 C   0  0  0  0  0  3  0  0  0  0  0  0
  183.0250  178.6280  142.9670 C   0  0  0  0  0  0  0  0  0  0  0  0
  182.8140  178.8920  144.3230 C   0  0  0  0  0  3  0  0  0  0  0  0
  185.3920  178.2740  143.3950 C   0  0  0  0  0  0  0  0  0  0  0  0
  183.8870  178.8510  145.2160 C   0  0  0  0  0  3  0  0  0  0  0  0
  184.3070  178.3200  142.5060 C   0  0  0  0  0  3  0  0  0  0  0  0
  185.1700  178.5430  144.7540 C   0  0  0  0  0  3  0  0  0  0  0  0
  181.9850  178.6680  142.1000 F   0  0  0  0  0  0  0  0  0  0  0  0
  191.4500  177.3700  138.9020 N   0  0  0  0  0  2  0  0  0  0  0  0
  192.5220  176.3910  138.9970 C   0  0  0  0  0  2  0  0  0  0  0  0
  193.9410  176.6150  136.4970 F   0  0  0  0  0  0  0  0  0  0  0  0
  192.4070  175.3880  137.8620 C   0  0  2  0  0  3  0  0  0  0  0  0
  192.6640  176.0860  136.5220 C   0  0  2  0  0  3  0  0  0  0  0  0
  191.1720  174.3740  135.4620 C   0  0  0  0  0  2  0  0  0  0  0  0
  191.0090  173.7530  136.8460 C   0  0  0  0  0  2  0  0  0  0  0  0
  191.0690  174.7960  137.8690 N   0  0  0  0  0  2  0  0  0  0  0  0
  192.5190  175.0830  135.3810 C   0  0  0  0  0  2  0  0  0  0  0  0
  1 12  1  0  0  0  0
  1 10  1  0  0  0  0
  2  8  1  0  0  0  0
  2  6  1  0  0  0  0
  3 17  1  6  0  0  0
  3 11  1  0  0  0  0
  3  8  1  0  0  0  0
  4 14  1  0  0  0  0
  4 17  2  0  0  0  0
  5 10  1  0  0  0  0
  6  5  2  0  0  0  0
  7 17  1  0  0  0  0
  8  1  2  0  0  0  0
  9 16  1  0  0  0  0
  9  4  1  0  0  0  0
 11 18  1  6  0  0  0
 13  2  2  0  0  0  0
 14 15  2  0  0  0  0
 15 21  1  0  0  0  0
 15 11  1  0  0  0  0
 16  7  2  0  0  0  0
 18 12  2  0  0  0  0
 19 20  1  0  0  0  0
 20 22  2  0  0  0  0
 21 24  2  0  0  0  0
 23 19  2  0  0  0  0
 23 21  1  0  0  0  0
 24 22  1  0  0  0  0
 25 19  1  0  0  0  0
 26 27  1  0  0  0  0
 26 16  1  0  0  0  0
 29 33  1  0  0  0  0
 29 27  1  1  0  0  0
 30 28  1  1  0  0  0
 30 29  1  0  0  0  0
 31 32  1  0  0  0  0
 32 33  1  0  0  0  0
 34 31  1  0  0  0  0
 34 30  1  0  0  0  0
M  END
>  <MODEL>
8

>  <REMARK>
 VINA RESULT:      -7.3      5.525      9.286
  Name = 
  4 active torsions:
  status: ('A' for Active; 'I' for Inactive)
    1  A    between atoms: C_3  and  C_13
    2  A    between atoms: C_3  and  N_17
    3  A    between atoms: C_12  and  C_28
    4  A    between atoms: N_17  and  C_29
                            x       y       z     vdW  Elec       q    Type
                         _______ _______ _______ _____ _____    ______ ____

>  <TORSDO>
F 4

$$$$
=
 OpenBabel11052414053D

 34 39  0  0  1  0  0  0  0  0999 V2000
  185.6480  179.3570  145.8280 C   0  0  0  0  0  0  0  0  0  0  0  0
  186.7490  177.1720  145.8060 C   0  0  0  0  0  0  0  0  0  0  0  0
  185.1420  177.8760  143.9050 C   0  0  1  0  0  3  0  0  0  0  0  0
  185.4010  178.5510  141.5180 C   0  0  0  0  0  0  0  0  0  0  0  0
  187.2380  178.6400  147.6770 C   0  0  0  0  0  3  0  0  0  0  0  0
  187.3990  177.4560  147.0870 C   0  0  0  0  0  3  0  0  0  0  0  0
  187.3900  178.0650  142.6160 C   0  0  0  0  0  3  0  0  0  0  0  0
  185.8380  178.1700  145.2150 C   0  0  0  0  0  0  0  0  0  0  0  0
  186.5470  178.7150  140.3050 S   0  0  0  0  0  0  0  0  0  0  0  0
  186.4310  179.7530  147.0580 C   0  0  0  0  0  2  0  0  0  0  0  0
  183.7740  178.6040  143.8150 C   0  0  2  0  0  3  0  0  0  0  0  0
  184.7250  180.3100  145.2810 N   0  0  0  0  0  0  0  0  0  0  0  0
  186.9550  176.0690  145.2340 O   0  0  0  0  0  0  0  0  0  0  0  0
  183.9850  178.6640  141.3670 N   0  0  0  0  0  0  0  0  0  0  0  0
  183.1940  178.6280  142.4060 C   0  0  0  0  0  0  0  0  0  0  0  0
  187.8390  178.3410  141.3250 C   0  0  0  0  0  0  0  0  0  0  0  0
  186.0000  178.2090  142.7130 C   0  0  0  0  0  0  0  0  0  0  0  0
  183.8770  180.0090  144.3430 C   0  0  0  0  0  3  0  0  0  0  0  0
  179.8060  178.9610  140.7450 C   0  0  0  0  0  0  0  0  0  0  0  0
  178.9490  178.8760  141.8460 C   0  0  0  0  0  3  0  0  0  0  0  0
  181.7300  178.7110  142.2110 C   0  0  0  0  0  0  0  0  0  0  0  0
  179.4770  178.7110  143.1290 C   0  0  0  0  0  3  0  0  0  0  0  0
  181.1880  178.8790  140.9270 C   0  0  0  0  0  3  0  0  0  0  0  0
  180.8610  178.6290  143.3110 C   0  0  0  0  0  3  0  0  0  0  0  0
  179.2950  179.1220  139.5010 F   0  0  0  0  0  0  0  0  0  0  0  0
  189.1990  178.2880  140.8960 N   0  0  0  0  0  2  0  0  0  0  0  0
  190.0090  177.0890  141.0510 C   0  0  0  0  0  2  0  0  0  0  0  0
  190.5560  174.8990  142.8440 F   0  0  0  0  0  0  0  0  0  0  0  0
  190.8710  177.2060  142.2950 C   0  0  2  0  0  3  0  0  0  0  0  0
  190.4170  176.1810  143.3410 C   0  0  2  0  0  3  0  0  0  0  0  0
  191.2520  177.7610  145.0990 C   0  0  0  0  0  2  0  0  0  0  0  0
  191.6810  178.6910  143.9690 C   0  0  0  0  0  2  0  0  0  0  0  0
  190.7610  178.5590  142.8410 N   0  0  0  0  0  2  0  0  0  0  0  0
  191.2660  176.3200  144.6020 C   0  0  0  0  0  2  0  0  0  0  0  0
  1 10  1  0  0  0  0
  2  6  1  0  0  0  0
  3 17  1  6  0  0  0
  3  8  1  0  0  0  0
  4 17  2  0  0  0  0
  6  5  2  0  0  0  0
  7 17  1  0  0  0  0
  8  2  1  0  0  0  0
  8  1  2  0  0  0  0
  9 16  1  0  0  0  0
  9  4  1  0  0  0  0
 10  5  1  0  0  0  0
 11  3  1  0  0  0  0
 11 18  1  6  0  0  0
 12  1  1  0  0  0  0
 13  2  2  0  0  0  0
 14  4  1  0  0  0  0
 14 15  2  0  0  0  0
 15 11  1  0  0  0  0
 16  7  2  0  0  0  0
 18 12  2  0  0  0  0
 19 23  2  0  0  0  0
 19 20  1  0  0  0  0
 20 22  2  0  0  0  0
 21 15  1  0  0  0  0
 21 24  2  0  0  0  0
 22 24  1  0  0  0  0
 23 21  1  0  0  0  0
 25 19  1  0  0  0  0
 26 27  1  0  0  0  0
 26 16  1  0  0  0  0
 29 27  1  6  0  0  0
 29 33  1  0  0  0  0
 29 30  1  0  0  0  0
 30 28  1  6  0  0  0
 30 34  1  0  0  0  0
 32 31  1  0  0  0  0
 33 32  1  0  0  0  0
 34 31  1  0  0  0  0
M  END
>  <MODEL>
9

>  <REMARK>
 VINA RESULT:      -7.2      3.576      8.965
  Name = 
  4 active torsions:
  status: ('A' for Active; 'I' for Inactive)
    1  A    between atoms: C_3  and  C_13
    2  A    between atoms: C_3  and  N_17
    3  A    between atoms: C_12  and  C_28
    4  A    between atoms: N_17  and  C_29
                            x       y       z     vdW  Elec       q    Type
                         _______ _______ _______ _____ _____    ______ ____

>  <TORSDO>
F 4

$$$$
