=
 OpenBabel11052414183D

 34 40  0  0  1  0  0  0  0  0999 V2000
  188.9990  177.1670  146.3910 C   0  0  0  0  0  0  0  0  0  0  0  0
  190.8090  176.8860  144.7470 C   0  0  0  0  0  0  0  0  0  0  0  0
  188.5690  177.4780  144.0280 C   0  0  0  0  0  0  0  0  0  0  0  0
  188.3860  177.7710  141.6780 C   0  0  0  0  0  0  0  0  0  0  0  0
  191.2400  176.5710  147.1130 C   0  0  0  0  0  3  0  0  0  0  0  0
  191.6940  176.5840  145.7850 C   0  0  0  0  0  3  0  0  0  0  0  0
  190.3210  177.2150  142.4740 C   0  0  0  0  0  0  0  0  0  0  0  0
  189.4550  177.1750  145.0660 C   0  0  2  0  0  3  0  0  0  0  0  0
  189.2370  177.7050  140.5730 C   0  0  0  0  0  3  0  0  0  0  0  0
  189.8990  176.8620  147.4170 C   0  0  0  0  0  3  0  0  0  0  0  0
  187.2150  177.7810  144.2580 C   0  0  0  0  0  0  0  0  0  0  0  0
  187.6570  177.4700  146.6560 C   0  0  0  0  0  3  0  0  0  0  0  0
  191.2320  176.9120  143.4410 N   0  0  0  0  0  0  0  0  0  0  0  0
  186.9360  178.1500  141.7560 C   0  0  0  0  0  3  0  0  0  0  0  0
  186.3950  178.0840  143.1980 C   0  0  0  0  0  0  0  0  0  0  0  0
  190.4850  177.3290  141.1080 C   0  0  0  0  0  0  0  0  0  0  0  0
  189.0570  177.4790  142.7820 N   0  0  0  0  0  0  0  0  0  0  0  0
  186.7760  177.7760  145.6010 C   0  0  0  0  0  3  0  0  0  0  0  0
  182.7200  178.7180  142.4430 C   0  0  0  0  0  0  0  0  0  0  0  0
  182.2350  179.0340  143.7140 C   0  0  0  0  0  3  0  0  0  0  0  0
  184.9490  178.3850  143.3650 C   0  0  0  0  0  0  0  0  0  0  0  0
  183.1010  179.0360  144.8110 C   0  0  0  0  0  3  0  0  0  0  0  0
  184.0710  178.4010  142.2690 C   0  0  0  0  0  3  0  0  0  0  0  0
  184.4510  178.7170  144.6360 C   0  0  0  0  0  3  0  0  0  0  0  0
  181.8630  178.7220  141.3520 O   0  0  0  0  0  1  0  0  0  0  0  0
  191.7560  177.1750  140.3490 C   0  0  0  0  0  2  0  0  0  0  0  0
  191.4930  177.3400  138.8630 C   0  0  0  0  0  2  0  0  0  0  0  0
  189.5280  175.4820  137.9330 F   0  0  0  0  0  0  0  0  0  0  0  0
  191.8410  176.0830  138.1390 C   0  0  0  0  0  0  0  0  0  0  0  0
  190.8360  175.2000  137.7110 C   0  0  0  0  0  0  0  0  0  0  0  0
  192.5260  173.7110  136.8170 C   0  0  0  0  0  3  0  0  0  0  0  0
  193.5270  174.5870  137.2480 C   0  0  0  0  0  3  0  0  0  0  0  0
  193.1850  175.7700  137.9090 C   0  0  0  0  0  3  0  0  0  0  0  0
  191.1820  174.0180  137.0500 C   0  0  0  0  0  3  0  0  0  0  0  0
  1 12  1  0  0  0  0
  1 10  2  0  0  0  0
  2  8  1  0  0  0  0
  2  6  1  0  0  0  0
  3 11  2  0  0  0  0
  4 14  1  0  0  0  0
  4 17  1  0  0  0  0
  5 10  1  0  0  0  0
  6  5  2  0  0  0  0
  7 17  1  0  0  0  0
  7 13  1  0  0  0  0
  8  3  1  1  0  0  0
  8  1  1  0  0  0  0
  9 16  1  0  0  0  0
  9  4  2  0  0  0  0
 11 18  1  0  0  0  0
 13  2  2  0  0  0  0
 14 15  2  0  0  0  0
 15 21  1  0  0  0  0
 15 11  1  0  0  0  0
 16  7  2  0  0  0  0
 17  3  1  0  0  0  0
 18 12  2  0  0  0  0
 19 20  1  0  0  0  0
 20 22  2  0  0  0  0
 21 24  2  0  0  0  0
 23 19  2  0  0  0  0
 23 21  1  0  0  0  0
 24 22  1  0  0  0  0
 25 19  1  0  0  0  0
 26 16  1  0  0  0  0
 27 26  1  0  0  0  0
 29 27  1  0  0  0  0
 30 28  1  0  0  0  0
 30 29  2  0  0  0  0
 31 34  2  0  0  0  0
 31 32  1  0  0  0  0
 32 33  2  0  0  0  0
 33 29  1  0  0  0  0
 34 30  1  0  0  0  0
M  END
>  <MODEL>
1

>  <REMARK>
 VINA RESULT:     -11.9      0.000      0.000
  Name = 
  4 active torsions:
  status: ('A' for Active; 'I' for Inactive)
    1  A    between atoms: C_3  and  C_13
    2  A    between atoms: C_3  and  C_17
    3  A    between atoms: C_12  and  C_28
    4  A    between atoms: C_17  and  C_29
                            x       y       z     vdW  Elec       q    Type
                         _______ _______ _______ _____ _____    ______ ____

>  <TORSDO>
F 4

$$$$
=
 OpenBabel11052414183D

 34 40  0  0  1  0  0  0  0  0999 V2000
  190.4230  177.0830  145.8250 C   0  0  0  0  0  0  0  0  0  0  0  0
  188.1000  177.6820  146.3750 C   0  0  0  0  0  0  0  0  0  0  0  0
  188.8100  177.4850  144.0630 C   0  0  0  0  0  0  0  0  0  0  0  0
  187.0590  177.8820  142.5070 C   0  0  0  0  0  0  0  0  0  0  0  0
  189.7150  177.2830  148.1390 C   0  0  0  0  0  3  0  0  0  0  0  0
  188.4120  177.6130  147.7350 C   0  0  0  0  0  3  0  0  0  0  0  0
  186.5890  178.0460  144.6150 C   0  0  0  0  0  0  0  0  0  0  0  0
  189.1220  177.4160  145.4240 C   0  0  2  0  0  3  0  0  0  0  0  0
  185.6990  178.1940  142.5620 C   0  0  0  0  0  3  0  0  0  0  0  0
  190.7170  177.0180  147.1910 C   0  0  0  0  0  3  0  0  0  0  0  0
  189.7610  177.2300  143.0590 C   0  0  0  0  0  0  0  0  0  0  0  0
  191.3930  176.8170  144.8500 C   0  0  0  0  0  3  0  0  0  0  0  0
  186.8300  177.9950  145.9550 N   0  0  0  0  0  0  0  0  0  0  0  0
  187.9390  177.6050  141.3240 C   0  0  0  0  0  3  0  0  0  0  0  0
  189.3920  177.3000  141.7370 C   0  0  0  0  0  0  0  0  0  0  0  0
  185.4160  178.3100  143.9360 C   0  0  0  0  0  0  0  0  0  0  0  0
  187.5510  177.8000  143.7350 N   0  0  0  0  0  0  0  0  0  0  0  0
  191.0640  176.8870  143.4830 C   0  0  0  0  0  3  0  0  0  0  0  0
  192.5960  177.1900  139.6880 C   0  0  0  0  0  0  0  0  0  0  0  0
  192.1190  176.6980  138.4710 C   0  0  0  0  0  3  0  0  0  0  0  0
  190.3510  177.0720  140.6250 C   0  0  0  0  0  0  0  0  0  0  0  0
  190.7630  176.3990  138.3210 C   0  0  0  0  0  3  0  0  0  0  0  0
  191.7150  177.3820  140.7570 C   0  0  0  0  0  3  0  0  0  0  0  0
  189.8830  176.5900  139.3920 C   0  0  0  0  0  3  0  0  0  0  0  0
  193.9420  177.4930  139.8360 O   0  0  0  0  0  1  0  0  0  0  0  0
  184.0810  178.5790  144.5390 C   0  0  0  0  0  2  0  0  0  0  0  0
  183.3380  179.6110  143.7090 C   0  0  0  0  0  2  0  0  0  0  0  0
  183.0110  179.0920  140.9160 F   0  0  0  0  0  0  0  0  0  0  0  0
  182.1000  179.0110  143.1340 C   0  0  0  0  0  0  0  0  0  0  0  0
  181.9880  178.7840  141.7520 C   0  0  0  0  0  0  0  0  0  0  0  0
  179.7480  177.9190  142.0770 C   0  0  0  0  0  3  0  0  0  0  0  0
  179.8570  178.1480  143.4520 C   0  0  0  0  0  3  0  0  0  0  0  0
  181.0300  178.6950  143.9790 C   0  0  0  0  0  3  0  0  0  0  0  0
  180.8130  178.2370  141.2290 C   0  0  0  0  0  3  0  0  0  0  0  0
  1 10  2  0  0  0  0
  2  6  1  0  0  0  0
  4  9  2  0  0  0  0
  4 17  1  0  0  0  0
  6  5  2  0  0  0  0
  7 13  1  0  0  0  0
  8  3  1  1  0  0  0
  8  1  1  0  0  0  0
  8  2  1  0  0  0  0
  9 16  1  0  0  0  0
 10  5  1  0  0  0  0
 11 18  1  0  0  0  0
 11  3  2  0  0  0  0
 12  1  1  0  0  0  0
 13  2  2  0  0  0  0
 14 15  2  0  0  0  0
 14  4  1  0  0  0  0
 15 11  1  0  0  0  0
 16 26  1  0  0  0  0
 16  7  2  0  0  0  0
 17  3  1  0  0  0  0
 17  7  1  0  0  0  0
 18 12  2  0  0  0  0
 19 25  1  0  0  0  0
 19 23  1  0  0  0  0
 20 19  2  0  0  0  0
 21 23  2  0  0  0  0
 21 15  1  0  0  0  0
 22 20  1  0  0  0  0
 22 24  2  0  0  0  0
 24 21  1  0  0  0  0
 27 26  1  0  0  0  0
 28 30  1  0  0  0  0
 29 27  1  0  0  0  0
 29 33  1  0  0  0  0
 30 29  2  0  0  0  0
 31 32  1  0  0  0  0
 32 33  2  0  0  0  0
 34 30  1  0  0  0  0
 34 31  2  0  0  0  0
M  END
>  <MODEL>
2

>  <REMARK>
 VINA RESULT:     -11.4      2.876      7.884
  Name = 
  4 active torsions:
  status: ('A' for Active; 'I' for Inactive)
    1  A    between atoms: C_3  and  C_13
    2  A    between atoms: C_3  and  C_17
    3  A    between atoms: C_12  and  C_28
    4  A    between atoms: C_17  and  C_29
                            x       y       z     vdW  Elec       q    Type
                         _______ _______ _______ _____ _____    ______ ____

>  <TORSDO>
F 4

$$$$
=
 OpenBabel11052414183D

 34 40  0  0  1  0  0  0  0  0999 V2000
  186.9870  178.2410  147.3040 C   0  0  0  0  0  0  0  0  0  0  0  0
  189.1030  177.5750  146.2370 C   0  0  0  0  0  0  0  0  0  0  0  0
  187.1020  177.9080  144.9060 C   0  0  0  0  0  0  0  0  0  0  0  0
  187.4540  177.5680  142.5820 C   0  0  0  0  0  0  0  0  0  0  0  0
  188.9880  177.9040  148.6380 C   0  0  0  0  0  3  0  0  0  0  0  0
  189.7250  177.5760  147.4880 C   0  0  0  0  0  3  0  0  0  0  0  0
  189.1430  177.2820  143.9080 C   0  0  0  0  0  0  0  0  0  0  0  0
  187.7240  177.9080  146.1590 C   0  0  2  0  0  3  0  0  0  0  0  0
  188.5260  177.2310  141.7530 C   0  0  0  0  0  3  0  0  0  0  0  0
  187.6260  178.2360  148.5470 C   0  0  0  0  0  3  0  0  0  0  0  0
  185.7430  178.2320  144.7420 C   0  0  0  0  0  0  0  0  0  0  0  0
  185.6330  178.5740  147.1730 C   0  0  0  0  0  3  0  0  0  0  0  0
  189.8050  177.2650  145.0990 N   0  0  0  0  0  0  0  0  0  0  0  0
  186.0390  177.9220  142.2330 C   0  0  0  0  0  3  0  0  0  0  0  0
  185.1910  178.2280  143.4840 C   0  0  0  0  0  0  0  0  0  0  0  0
  189.6080  177.0360  142.6320 C   0  0  0  0  0  0  0  0  0  0  0  0
  187.8530  177.5910  143.8450 N   0  0  0  0  0  0  0  0  0  0  0  0
  185.0190  178.5720  145.9060 C   0  0  0  0  0  3  0  0  0  0  0  0
  181.8940  178.9550  141.7280 C   0  0  0  0  0  0  0  0  0  0  0  0
  181.0530  179.1820  142.8200 C   0  0  0  0  0  3  0  0  0  0  0  0
  183.7560  178.5310  143.2390 C   0  0  0  0  0  0  0  0  0  0  0  0
  181.5570  179.0950  144.1200 C   0  0  0  0  0  3  0  0  0  0  0  0
  183.2390  178.6370  141.9370 C   0  0  0  0  0  3  0  0  0  0  0  0
  182.9030  178.7760  144.3270 C   0  0  0  0  0  3  0  0  0  0  0  0
  181.3960  179.0470  140.4360 O   0  0  0  0  0  1  0  0  0  0  0  0
  191.0100  176.7140  142.2430 C   0  0  0  0  0  2  0  0  0  0  0  0
  191.5510  177.7950  141.3250 C   0  0  0  0  0  2  0  0  0  0  0  0
  194.1130  177.0340  140.3060 F   0  0  0  0  0  0  0  0  0  0  0  0
  191.7500  177.2470  139.9520 C   0  0  0  0  0  0  0  0  0  0  0  0
  193.0320  176.8970  139.4980 C   0  0  0  0  0  0  0  0  0  0  0  0
  192.0980  176.2590  137.3550 C   0  0  0  0  0  3  0  0  0  0  0  0
  190.8220  176.6120  137.8050 C   0  0  0  0  0  3  0  0  0  0  0  0
  190.6490  177.1070  139.1000 C   0  0  0  0  0  3  0  0  0  0  0  0
  193.2010  176.4020  138.2010 C   0  0  0  0  0  3  0  0  0  0  0  0
  1 10  2  0  0  0  0
  2  6  1  0  0  0  0
  4 17  1  0  0  0  0
  6  5  2  0  0  0  0
  7 13  1  0  0  0  0
  8  3  1  6  0  0  0
  8  2  1  0  0  0  0
  8  1  1  0  0  0  0
  9  4  2  0  0  0  0
  9 16  1  0  0  0  0
 10  5  1  0  0  0  0
 11  3  2  0  0  0  0
 11 18  1  0  0  0  0
 12  1  1  0  0  0  0
 13  2  2  0  0  0  0
 14  4  1  0  0  0  0
 14 15  2  0  0  0  0
 15 11  1  0  0  0  0
 16  7  2  0  0  0  0
 17  7  1  0  0  0  0
 17  3  1  0  0  0  0
 18 12  2  0  0  0  0
 19 23  2  0  0  0  0
 19 20  1  0  0  0  0
 20 22  2  0  0  0  0
 21 15  1  0  0  0  0
 21 24  2  0  0  0  0
 22 24  1  0  0  0  0
 23 21  1  0  0  0  0
 25 19  1  0  0  0  0
 26 16  1  0  0  0  0
 27 26  1  0  0  0  0
 29 27  1  0  0  0  0
 30 29  1  0  0  0  0
 30 28  1  0  0  0  0
 31 32  2  0  0  0  0
 31 34  1  0  0  0  0
 32 33  1  0  0  0  0
 33 29  2  0  0  0  0
 34 30  2  0  0  0  0
M  END
>  <MODEL>
3

>  <REMARK>
 VINA RESULT:     -11.4      1.618      2.328
  Name = 
  4 active torsions:
  status: ('A' for Active; 'I' for Inactive)
    1  A    between atoms: C_3  and  C_13
    2  A    between atoms: C_3  and  C_17
    3  A    between atoms: C_12  and  C_28
    4  A    between atoms: C_17  and  C_29
                            x       y       z     vdW  Elec       q    Type
                         _______ _______ _______ _____ _____    ______ ____

>  <TORSDO>
F 4

$$$$
=
 OpenBabel11052414183D

 34 40  0  0  0  0  0  0  0  0999 V2000
  185.0410  178.3720  143.3920 C   0  0  0  0  0  0  0  0  0  0  0  0
  185.4440  178.6290  140.9770 C   0  0  0  0  0  0  0  0  0  0  0  0
  187.2690  178.0890  142.4830 C   0  0  0  0  0  0  0  0  0  0  0  0
  189.3510  177.8190  141.3720 C   0  0  0  0  0  0  0  0  0  0  0  0
  183.2140  178.9150  141.8880 C   0  0  0  0  0  3  0  0  0  0  0  0
  184.0870  178.9040  140.7880 C   0  0  0  0  0  3  0  0  0  0  0  0
  187.6260  178.3290  140.1660 C   0  0  0  0  0  0  0  0  0  0  0  0
  185.9110  178.3660  142.2930 C   0  0  0  0  0  0  0  0  0  0  0  0
  189.8200  177.8760  140.0580 C   0  0  0  0  0  3  0  0  0  0  0  0
  183.6870  178.6500  143.1840 C   0  0  0  0  0  3  0  0  0  0  0  0
  187.8100  177.8130  143.7510 C   0  0  0  0  0  0  0  0  0  0  0  0
  185.5480  178.0950  144.6680 C   0  0  0  0  0  3  0  0  0  0  0  0
  186.3160  178.6040  139.9160 N   0  0  0  0  0  0  0  0  0  0  0  0
  190.0740  177.4700  142.6400 C   0  0  0  0  0  2  0  0  0  0  0  0
  189.1510  177.5360  143.8730 C   0  0  0  0  0  0  0  0  0  0  0  0
  188.6900  178.2220  139.2920 C   0  0  0  0  0  0  0  0  0  0  0  0
  188.0540  178.0880  141.3990 N   0  0  0  0  0  0  0  0  0  0  0  0
  186.9170  177.8160  144.8440 C   0  0  0  0  0  3  0  0  0  0  0  0
  189.8550  177.4570  147.6110 C   0  0  0  0  0  0  0  0  0  0  0  0
  191.0860  176.7970  147.6390 C   0  0  0  0  0  3  0  0  0  0  0  0
  189.7960  177.2640  145.1840 C   0  0  0  0  0  0  0  0  0  0  0  0
  191.6800  176.3770  146.4460 C   0  0  0  0  0  3  0  0  0  0  0  0
  189.2160  177.6940  146.3900 C   0  0  0  0  0  3  0  0  0  0  0  0
  191.0400  176.6140  145.2250 C   0  0  0  0  0  3  0  0  0  0  0  0
  189.2670  177.8800  148.7940 O   0  0  0  0  0  1  0  0  0  0  0  0
  188.6410  178.3550  137.8100 C   0  0  0  0  0  2  0  0  0  0  0  0
  189.8050  177.6090  137.1850 C   0  0  0  0  0  2  0  0  0  0  0  0
  191.2380  175.3880  138.2790 F   0  0  0  0  0  0  0  0  0  0  0  0
  189.4250  176.1890  136.9290 C   0  0  0  0  0  0  0  0  0  0  0  0
  190.1690  175.1350  137.4840 C   0  0  0  0  0  0  0  0  0  0  0  0
  188.7100  173.5350  136.3970 C   0  0  0  0  0  3  0  0  0  0  0  0
  187.9730  174.5830  135.8390 C   0  0  0  0  0  3  0  0  0  0  0  0
  188.3310  175.9080  136.1030 C   0  0  0  0  0  3  0  0  0  0  0  0
  189.8070  173.8120  137.2180 C   0  0  0  0  0  3  0  0  0  0  0  0
  1 12  1  0  0  0  0
  2  8  1  0  0  0  0
  3 11  1  0  0  0  0
  4 17  1  0  0  0  0
  4 14  1  0  0  0  0
  5 10  1  0  0  0  0
  6  2  1  0  0  0  0
  6  5  2  0  0  0  0
  7 17  1  0  0  0  0
  8  3  2  0  0  0  0
  8  1  1  0  0  0  0
  9  4  2  0  0  0  0
 10  1  2  0  0  0  0
 11 15  2  0  0  0  0
 11 18  1  0  0  0  0
 12 18  2  0  0  0  0
 13  7  1  0  0  0  0
 13  2  2  0  0  0  0
 14 15  1  0  0  0  0
 15 21  1  0  0  0  0
 16  9  1  0  0  0  0
 16  7  2  0  0  0  0
 17  3  1  0  0  0  0
 19 20  1  0  0  0  0
 19 25  1  0  0  0  0
 21 24  2  0  0  0  0
 21 23  1  0  0  0  0
 22 20  2  0  0  0  0
 23 19  2  0  0  0  0
 24 22  1  0  0  0  0
 26 16  1  0  0  0  0
 27 26  1  0  0  0  0
 29 27  1  0  0  0  0
 29 30  1  0  0  0  0
 30 28  1  0  0  0  0
 31 34  1  0  0  0  0
 32 33  1  0  0  0  0
 32 31  2  0  0  0  0
 33 29  2  0  0  0  0
 34 30  2  0  0  0  0
M  END
>  <MODEL>
4

>  <REMARK>
 VINA RESULT:     -11.1      2.446      5.534
  Name = 
  4 active torsions:
  status: ('A' for Active; 'I' for Inactive)
    1  A    between atoms: C_3  and  C_13
    2  A    between atoms: C_3  and  C_17
    3  A    between atoms: C_12  and  C_28
    4  A    between atoms: C_17  and  C_29
                            x       y       z     vdW  Elec       q    Type
                         _______ _______ _______ _____ _____    ______ ____

>  <TORSDO>
F 4

$$$$
=
 OpenBabel11052414183D

 34 40  0  0  0  0  0  0  0  0999 V2000
  185.1760  178.3570  142.8940 C   0  0  0  0  0  0  0  0  0  0  0  0
  185.6900  178.6270  140.5030 C   0  0  0  0  0  0  0  0  0  0  0  0
  187.4430  178.0760  142.0870 C   0  0  0  0  0  0  0  0  0  0  0  0
  189.5740  177.8100  141.0730 C   0  0  0  0  0  0  0  0  0  0  0  0
  183.4210  178.9110  141.3110 C   0  0  0  0  0  3  0  0  0  0  0  0
  184.3440  178.9050  140.2520 C   0  0  0  0  0  3  0  0  0  0  0  0
  187.9080  178.3290  139.7910 C   0  0  0  0  0  0  0  0  0  0  0  0
  186.0960  178.3560  141.8370 C   0  0  0  0  0  0  0  0  0  0  0  0
  190.1040  177.8750  139.7830 C   0  0  0  0  0  3  0  0  0  0  0  0
  183.8330  178.6370  142.6250 C   0  0  0  0  0  3  0  0  0  0  0  0
  187.9250  177.7920  143.3780 C   0  0  0  0  0  0  0  0  0  0  0  0
  185.6230  178.0710  144.1910 C   0  0  0  0  0  3  0  0  0  0  0  0
  186.6100  178.6070  139.4830 N   0  0  0  0  0  0  0  0  0  0  0  0
  190.2370  177.4530  142.3710 C   0  0  0  0  0  2  0  0  0  0  0  0
  189.2580  177.5120  143.5600 C   0  0  0  0  0  0  0  0  0  0  0  0
  189.0110  178.2260  138.9670 C   0  0  0  0  0  0  0  0  0  0  0  0
  188.2780  178.0810  141.0410 N   0  0  0  0  0  0  0  0  0  0  0  0
  186.9820  177.7900  144.4290 C   0  0  0  0  0  3  0  0  0  0  0  0
  189.7720  177.3820  147.3270 C   0  0  0  0  0  0  0  0  0  0  0  0
  191.0150  176.7520  147.4080 C   0  0  0  0  0  3  0  0  0  0  0  0
  189.8420  177.2320  144.8980 C   0  0  0  0  0  0  0  0  0  0  0  0
  191.6800  176.3670  146.2400 C   0  0  0  0  0  3  0  0  0  0  0  0
  189.1910  177.6270  146.0790 C   0  0  0  0  0  3  0  0  0  0  0  0
  191.0970  176.6110  144.9920 C   0  0  0  0  0  3  0  0  0  0  0  0
  189.1140  177.7700  148.4860 O   0  0  0  0  0  1  0  0  0  0  0  0
  189.0300  178.3680  137.4850 C   0  0  0  0  0  2  0  0  0  0  0  0
  189.0100  176.9970  136.8340 C   0  0  0  0  0  2  0  0  0  0  0  0
  188.1090  174.3100  137.2210 F   0  0  0  0  0  0  0  0  0  0  0  0
  187.6030  176.5680  136.5880 C   0  0  0  0  0  0  0  0  0  0  0  0
  187.2150  175.2320  136.7850 C   0  0  0  0  0  0  0  0  0  0  0  0
  184.9640  175.7840  136.0780 C   0  0  0  0  0  3  0  0  0  0  0  0
  185.3500  177.1120  135.8760 C   0  0  0  0  0  3  0  0  0  0  0  0
  186.6680  177.5030  136.1290 C   0  0  0  0  0  3  0  0  0  0  0  0
  185.8950  174.8460  136.5320 C   0  0  0  0  0  3  0  0  0  0  0  0
  1 12  1  0  0  0  0
  2  8  1  0  0  0  0
  3 11  1  0  0  0  0
  4 14  1  0  0  0  0
  5 10  1  0  0  0  0
  6  2  1  0  0  0  0
  6  5  2  0  0  0  0
  7 17  1  0  0  0  0
  8  3  2  0  0  0  0
  8  1  1  0  0  0  0
  9  4  2  0  0  0  0
 10  1  2  0  0  0  0
 11 15  2  0  0  0  0
 11 18  1  0  0  0  0
 12 18  2  0  0  0  0
 13  7  1  0  0  0  0
 13  2  2  0  0  0  0
 14 15  1  0  0  0  0
 15 21  1  0  0  0  0
 16  9  1  0  0  0  0
 16  7  2  0  0  0  0
 17  4  1  0  0  0  0
 17  3  1  0  0  0  0
 19 20  1  0  0  0  0
 19 25  1  0  0  0  0
 21 24  2  0  0  0  0
 21 23  1  0  0  0  0
 22 20  2  0  0  0  0
 23 19  2  0  0  0  0
 24 22  1  0  0  0  0
 26 16  1  0  0  0  0
 27 26  1  0  0  0  0
 29 30  1  0  0  0  0
 29 27  1  0  0  0  0
 30 28  1  0  0  0  0
 31 34  1  0  0  0  0
 32 31  2  0  0  0  0
 32 33  1  0  0  0  0
 33 29  2  0  0  0  0
 34 30  2  0  0  0  0
M  END
>  <MODEL>
5

>  <REMARK>
 VINA RESULT:     -11.0      3.082      5.982
  Name = 
  4 active torsions:
  status: ('A' for Active; 'I' for Inactive)
    1  A    between atoms: C_3  and  C_13
    2  A    between atoms: C_3  and  C_17
    3  A    between atoms: C_12  and  C_28
    4  A    between atoms: C_17  and  C_29
                            x       y       z     vdW  Elec       q    Type
                         _______ _______ _______ _____ _____    ______ ____

>  <TORSDO>
F 4

$$$$
=
 OpenBabel11052414183D

 34 40  0  0  1  0  0  0  0  0999 V2000
  189.0600  177.2180  145.7540 C   0  0  0  0  0  0  0  0  0  0  0  0
  190.6690  176.9730  143.9070 C   0  0  0  0  0  0  0  0  0  0  0  0
  188.3580  177.5630  143.4610 C   0  0  0  0  0  0  0  0  0  0  0  0
  187.9030  177.8910  141.1530 C   0  0  0  0  0  0  0  0  0  0  0  0
  191.3710  176.6240  146.2020 C   0  0  0  0  0  3  0  0  0  0  0  0
  191.6690  176.6600  144.8300 C   0  0  0  0  0  3  0  0  0  0  0  0
  189.9200  177.3330  141.7110 C   0  0  0  0  0  0  0  0  0  0  0  0
  189.3590  177.2490  144.3850 C   0  0  2  0  0  3  0  0  0  0  0  0
  188.6210  177.8470  139.9560 C   0  0  0  0  0  3  0  0  0  0  0  0
  190.0740  176.9030  146.6630 C   0  0  0  0  0  3  0  0  0  0  0  0
  187.0380  177.8540  143.8510 C   0  0  0  0  0  0  0  0  0  0  0  0
  187.7560  177.5090  146.1760 C   0  0  0  0  0  3  0  0  0  0  0  0
  190.9380  177.0220  142.5610 N   0  0  0  0  0  0  0  0  0  0  0  0
  186.4700  178.2590  141.4040 C   0  0  0  0  0  3  0  0  0  0  0  0
  186.1000  178.1680  142.8980 C   0  0  0  0  0  0  0  0  0  0  0  0
  189.9240  177.4700  140.3370 C   0  0  0  0  0  0  0  0  0  0  0  0
  188.6990  177.5860  142.1670 N   0  0  0  0  0  0  0  0  0  0  0  0
  186.7580  177.8260  145.2350 C   0  0  0  0  0  3  0  0  0  0  0  0
  182.3660  178.8290  142.5790 C   0  0  0  0  0  0  0  0  0  0  0  0
  182.0250  179.0850  143.9090 C   0  0  0  0  0  3  0  0  0  0  0  0
  184.6820  178.4580  143.2360 C   0  0  0  0  0  0  0  0  0  0  0  0
  183.0050  179.0380  144.9030 C   0  0  0  0  0  3  0  0  0  0  0  0
  183.6890  178.5230  142.2440 C   0  0  0  0  0  3  0  0  0  0  0  0
  184.3270  178.7310  144.5670 C   0  0  0  0  0  3  0  0  0  0  0  0
  181.3950  178.8810  141.5900 O   0  0  0  0  0  1  0  0  0  0  0  0
  191.1000  177.3350  139.4340 C   0  0  0  0  0  2  0  0  0  0  0  0
  191.0660  175.9850  138.7410 C   0  0  0  0  0  2  0  0  0  0  0  0
  189.8350  173.7140  137.5130 F   0  0  0  0  0  0  0  0  0  0  0  0
  190.2670  176.0730  137.4850 C   0  0  0  0  0  0  0  0  0  0  0  0
  189.6910  174.9240  136.9180 C   0  0  0  0  0  0  0  0  0  0  0  0
  188.8060  176.2650  135.1040 C   0  0  0  0  0  3  0  0  0  0  0  0
  189.3840  177.4080  135.6640 C   0  0  0  0  0  3  0  0  0  0  0  0
  190.1150  177.3120  136.8520 C   0  0  0  0  0  3  0  0  0  0  0  0
  188.9600  175.0250  135.7310 C   0  0  0  0  0  3  0  0  0  0  0  0
  1 12  1  0  0  0  0
  1 10  2  0  0  0  0
  2  8  1  0  0  0  0
  2  6  1  0  0  0  0
  3 11  2  0  0  0  0
  4 14  1  0  0  0  0
  4 17  1  0  0  0  0
  5 10  1  0  0  0  0
  6  5  2  0  0  0  0
  7 17  1  0  0  0  0
  7 13  1  0  0  0  0
  8  3  1  1  0  0  0
  8  1  1  0  0  0  0
  9 16  1  0  0  0  0
  9  4  2  0  0  0  0
 11 18  1  0  0  0  0
 13  2  2  0  0  0  0
 14 15  2  0  0  0  0
 15 21  1  0  0  0  0
 15 11  1  0  0  0  0
 16  7  2  0  0  0  0
 17  3  1  0  0  0  0
 18 12  2  0  0  0  0
 19 20  1  0  0  0  0
 20 22  2  0  0  0  0
 21 24  2  0  0  0  0
 23 19  2  0  0  0  0
 23 21  1  0  0  0  0
 24 22  1  0  0  0  0
 25 19  1  0  0  0  0
 26 16  1  0  0  0  0
 27 26  1  0  0  0  0
 29 27  1  0  0  0  0
 30 29  1  0  0  0  0
 30 28  1  0  0  0  0
 31 32  2  0  0  0  0
 31 34  1  0  0  0  0
 32 33  1  0  0  0  0
 33 29  2  0  0  0  0
 34 30  2  0  0  0  0
M  END
>  <MODEL>
6

>  <REMARK>
 VINA RESULT:     -10.9      1.260      1.662
  Name = 
  4 active torsions:
  status: ('A' for Active; 'I' for Inactive)
    1  A    between atoms: C_3  and  C_13
    2  A    between atoms: C_3  and  C_17
    3  A    between atoms: C_12  and  C_28
    4  A    between atoms: C_17  and  C_29
                            x       y       z     vdW  Elec       q    Type
                         _______ _______ _______ _____ _____    ______ ____

>  <TORSDO>
F 4

$$$$
=
 OpenBabel11052414183D

 34 40  0  0  0  0  0  0  0  0999 V2000
  183.6980  178.6690  143.1300 C   0  0  0  0  0  0  0  0  0  0  0  0
  184.4650  178.7240  140.7920 C   0  0  0  0  0  0  0  0  0  0  0  0
  186.0420  178.3600  142.6000 C   0  0  0  0  0  0  0  0  0  0  0  0
  188.2730  178.0440  141.8480 C   0  0  0  0  0  0  0  0  0  0  0  0
  182.1190  179.0370  141.3230 C   0  0  0  0  0  3  0  0  0  0  0  0
  183.1510  178.9510  140.3740 C   0  0  0  0  0  3  0  0  0  0  0  0
  186.7490  178.4060  140.3520 C   0  0  0  0  0  0  0  0  0  0  0  0
  184.7270  178.5870  142.1820 C   0  0  0  0  0  0  0  0  0  0  0  0
  188.9380  177.9980  140.6210 C   0  0  0  0  0  3  0  0  0  0  0  0
  182.3890  178.8950  142.6940 C   0  0  0  0  0  3  0  0  0  0  0  0
  186.3850  178.2080  143.9550 C   0  0  0  0  0  0  0  0  0  0  0  0
  184.0050  178.5150  144.4880 C   0  0  0  0  0  3  0  0  0  0  0  0
  185.4900  178.6290  139.8830 N   0  0  0  0  0  0  0  0  0  0  0  0
  188.7950  177.8230  143.2370 C   0  0  0  0  0  2  0  0  0  0  0  0
  187.6930  177.9730  144.3040 C   0  0  0  0  0  0  0  0  0  0  0  0
  187.9360  178.2490  139.6640 C   0  0  0  0  0  0  0  0  0  0  0  0
  186.9850  178.2840  141.6530 N   0  0  0  0  0  0  0  0  0  0  0  0
  185.3330  178.2840  144.8950 C   0  0  0  0  0  3  0  0  0  0  0  0
  189.8020  177.2220  147.3810 C   0  0  0  0  0  0  0  0  0  0  0  0
  188.8940  177.5020  148.4040 C   0  0  0  0  0  3  0  0  0  0  0  0
  188.1310  177.8310  145.7180 C   0  0  0  0  0  0  0  0  0  0  0  0
  187.6030  177.9380  148.0920 C   0  0  0  0  0  3  0  0  0  0  0  0
  189.4200  177.3790  146.0450 C   0  0  0  0  0  3  0  0  0  0  0  0
  187.2230  178.0970  146.7560 C   0  0  0  0  0  3  0  0  0  0  0  0
  191.0810  176.7830  147.6890 O   0  0  0  0  0  1  0  0  0  0  0  0
  188.1140  178.2530  138.1860 C   0  0  0  0  0  2  0  0  0  0  0  0
  189.5880  178.1440  137.8430 C   0  0  0  0  0  2  0  0  0  0  0  0
  192.0360  176.9090  138.6580 F   0  0  0  0  0  0  0  0  0  0  0  0
  189.9350  176.7320  137.5140 C   0  0  0  0  0  0  0  0  0  0  0  0
  191.1560  176.1760  137.9320 C   0  0  0  0  0  0  0  0  0  0  0  0
  190.5750  174.0880  136.8480 C   0  0  0  0  0  3  0  0  0  0  0  0
  189.3620  174.6420  136.4270 C   0  0  0  0  0  3  0  0  0  0  0  0
  189.0440  175.9620  136.7580 C   0  0  0  0  0  3  0  0  0  0  0  0
  191.4700  174.8550  137.5980 C   0  0  0  0  0  3  0  0  0  0  0  0
  1 12  1  0  0  0  0
  2  8  1  0  0  0  0
  3 11  1  0  0  0  0
  4 14  1  0  0  0  0
  5 10  1  0  0  0  0
  6  2  1  0  0  0  0
  6  5  2  0  0  0  0
  7 17  1  0  0  0  0
  8  3  2  0  0  0  0
  8  1  1  0  0  0  0
  9  4  2  0  0  0  0
 10  1  2  0  0  0  0
 11 15  2  0  0  0  0
 11 18  1  0  0  0  0
 12 18  2  0  0  0  0
 13  7  1  0  0  0  0
 13  2  2  0  0  0  0
 14 15  1  0  0  0  0
 15 21  1  0  0  0  0
 16  7  2  0  0  0  0
 16  9  1  0  0  0  0
 17  4  1  0  0  0  0
 17  3  1  0  0  0  0
 19 25  1  0  0  0  0
 19 20  1  0  0  0  0
 21 23  1  0  0  0  0
 21 24  2  0  0  0  0
 22 20  2  0  0  0  0
 23 19  2  0  0  0  0
 24 22  1  0  0  0  0
 26 16  1  0  0  0  0
 27 26  1  0  0  0  0
 29 27  1  0  0  0  0
 29 30  1  0  0  0  0
 30 28  1  0  0  0  0
 31 34  1  0  0  0  0
 32 33  1  0  0  0  0
 32 31  2  0  0  0  0
 33 29  2  0  0  0  0
 34 30  2  0  0  0  0
M  END
>  <MODEL>
7

>  <REMARK>
 VINA RESULT:     -10.8      2.544      5.504
  Name = 
  4 active torsions:
  status: ('A' for Active; 'I' for Inactive)
    1  A    between atoms: C_3  and  C_13
    2  A    between atoms: C_3  and  C_17
    3  A    between atoms: C_12  and  C_28
    4  A    between atoms: C_17  and  C_29
                            x       y       z     vdW  Elec       q    Type
                         _______ _______ _______ _____ _____    ______ ____

>  <TORSDO>
F 4

$$$$
=
 OpenBabel11052414183D

 34 40  0  0  0  0  0  0  0  0999 V2000
  184.6770  178.4180  143.4620 C   0  0  0  0  0  0  0  0  0  0  0  0
  185.0000  178.6320  141.0310 C   0  0  0  0  0  0  0  0  0  0  0  0
  186.8770  178.1370  142.4870 C   0  0  0  0  0  0  0  0  0  0  0  0
  188.9260  177.8630  141.3170 C   0  0  0  0  0  0  0  0  0  0  0  0
  182.7980  178.9170  142.0070 C   0  0  0  0  0  3  0  0  0  0  0  0
  183.6360  178.8920  140.8800 C   0  0  0  0  0  3  0  0  0  0  0  0
  187.1590  178.3350  140.1560 C   0  0  0  0  0  0  0  0  0  0  0  0
  185.5120  178.3980  142.3360 C   0  0  0  0  0  0  0  0  0  0  0  0
  189.3520  177.8990  139.9870 C   0  0  0  0  0  3  0  0  0  0  0  0
  183.3140  178.6800  143.2920 C   0  0  0  0  0  3  0  0  0  0  0  0
  187.4610  177.8890  143.7430 C   0  0  0  0  0  0  0  0  0  0  0  0
  185.2270  178.1690  144.7260 C   0  0  0  0  0  3  0  0  0  0  0  0
  185.8380  178.5940  139.9440 N   0  0  0  0  0  0  0  0  0  0  0  0
  189.6910  177.5450  142.5670 C   0  0  0  0  0  2  0  0  0  0  0  0
  188.8070  177.6260  143.8270 C   0  0  0  0  0  0  0  0  0  0  0  0
  188.1950  178.2200  139.2510 C   0  0  0  0  0  0  0  0  0  0  0  0
  187.6280  178.1210  141.3790 N   0  0  0  0  0  0  0  0  0  0  0  0
  186.6030  177.9060  144.8640 C   0  0  0  0  0  3  0  0  0  0  0  0
  189.5970  177.5640  147.5480 C   0  0  0  0  0  0  0  0  0  0  0  0
  190.8660  176.9800  147.5440 C   0  0  0  0  0  3  0  0  0  0  0  0
  189.4960  177.3850  145.1220 C   0  0  0  0  0  0  0  0  0  0  0  0
  191.4580  176.6050  146.3360 C   0  0  0  0  0  3  0  0  0  0  0  0
  188.9180  177.7710  146.3430 C   0  0  0  0  0  3  0  0  0  0  0  0
  190.7780  176.8110  145.1310 C   0  0  0  0  0  3  0  0  0  0  0  0
  189.0110  177.9430  148.7480 O   0  0  0  0  0  1  0  0  0  0  0  0
  188.0970  178.3250  137.7690 C   0  0  0  0  0  2  0  0  0  0  0  0
  187.7440  176.9720  137.1780 C   0  0  0  0  0  2  0  0  0  0  0  0
  188.8530  177.6940  134.6430 F   0  0  0  0  0  0  0  0  0  0  0  0
  188.9630  176.3270  136.6110 C   0  0  0  0  0  0  0  0  0  0  0  0
  189.4610  176.7140  135.3560 C   0  0  0  0  0  0  0  0  0  0  0  0
  191.2310  175.0700  135.5540 C   0  0  0  0  0  3  0  0  0  0  0  0
  190.7330  174.6820  136.8000 C   0  0  0  0  0  3  0  0  0  0  0  0
  189.6000  175.3070  137.3270 C   0  0  0  0  0  3  0  0  0  0  0  0
  190.5950  176.0850  134.8330 C   0  0  0  0  0  3  0  0  0  0  0  0
  1 12  1  0  0  0  0
  2  8  1  0  0  0  0
  3 11  1  0  0  0  0
  4 17  1  0  0  0  0
  4 14  1  0  0  0  0
  5 10  1  0  0  0  0
  6  2  1  0  0  0  0
  6  5  2  0  0  0  0
  7 17  1  0  0  0  0
  8  3  2  0  0  0  0
  8  1  1  0  0  0  0
  9  4  2  0  0  0  0
 10  1  2  0  0  0  0
 11 15  2  0  0  0  0
 11 18  1  0  0  0  0
 12 18  2  0  0  0  0
 13  7  1  0  0  0  0
 13  2  2  0  0  0  0
 14 15  1  0  0  0  0
 15 21  1  0  0  0  0
 16  9  1  0  0  0  0
 16  7  2  0  0  0  0
 17  3  1  0  0  0  0
 19 25  1  0  0  0  0
 20 19  1  0  0  0  0
 21 24  2  0  0  0  0
 21 23  1  0  0  0  0
 22 20  2  0  0  0  0
 23 19  2  0  0  0  0
 24 22  1  0  0  0  0
 26 16  1  0  0  0  0
 27 26  1  0  0  0  0
 28 30  1  0  0  0  0
 29 27  1  0  0  0  0
 29 33  1  0  0  0  0
 30 29  2  0  0  0  0
 31 32  1  0  0  0  0
 32 33  2  0  0  0  0
 34 30  1  0  0  0  0
 34 31  2  0  0  0  0
M  END
>  <MODEL>
8

>  <REMARK>
 VINA RESULT:     -10.7      2.538      5.543
  Name = 
  4 active torsions:
  status: ('A' for Active; 'I' for Inactive)
    1  A    between atoms: C_3  and  C_13
    2  A    between atoms: C_3  and  C_17
    3  A    between atoms: C_12  and  C_28
    4  A    between atoms: C_17  and  C_29
                            x       y       z     vdW  Elec       q    Type
                         _______ _______ _______ _____ _____    ______ ____

>  <TORSDO>
F 4

$$$$
=
 OpenBabel11052414183D

 34 40  0  0  1  0  0  0  0  0999 V2000
  184.0020  178.6460  144.3760 C   0  0  0  0  0  0  0  0  0  0  0  0
  186.3990  178.2060  144.7200 C   0  0  0  0  0  0  0  0  0  0  0  0
  185.4980  178.4530  142.4800 C   0  0  0  0  0  0  0  0  0  0  0  0
  187.1460  178.2660  140.7810 C   0  0  0  0  0  0  0  0  0  0  0  0
  184.9000  178.3960  146.6180 C   0  0  0  0  0  3  0  0  0  0  0  0
  186.1900  178.1880  146.1010 C   0  0  0  0  0  3  0  0  0  0  0  0
  187.7910  178.0430  142.8360 C   0  0  0  0  0  0  0  0  0  0  0  0
  185.2880  178.4340  143.8630 C   0  0  2  0  0  3  0  0  0  0  0  0
  188.5260  178.0590  140.7180 C   0  0  0  0  0  3  0  0  0  0  0  0
  183.8110  178.6250  145.7610 C   0  0  0  0  0  3  0  0  0  0  0  0
  184.4540  178.6770  141.5650 C   0  0  0  0  0  0  0  0  0  0  0  0
  182.9410  178.8780  143.4910 C   0  0  0  0  0  3  0  0  0  0  0  0
  187.6510  178.0140  144.1910 N   0  0  0  0  0  0  0  0  0  0  0  0
  186.1590  178.5270  139.6820 C   0  0  0  0  0  3  0  0  0  0  0  0
  184.7240  178.6970  140.2170 C   0  0  0  0  0  0  0  0  0  0  0  0
  188.9230  177.9030  142.0590 C   0  0  0  0  0  0  0  0  0  0  0  0
  186.7470  178.2530  142.0440 N   0  0  0  0  0  0  0  0  0  0  0  0
  183.1660  178.8970  142.1010 C   0  0  0  0  0  3  0  0  0  0  0  0
  181.9790  180.2860  138.1160 C   0  0  0  0  0  0  0  0  0  0  0  0
  181.6170  179.2170  137.2930 C   0  0  0  0  0  3  0  0  0  0  0  0
  183.6660  178.8990  139.1930 C   0  0  0  0  0  0  0  0  0  0  0  0
  182.2670  177.9870  137.4210 C   0  0  0  0  0  3  0  0  0  0  0  0
  182.9930  180.1260  139.0650 C   0  0  0  0  0  3  0  0  0  0  0  0
  183.2830  177.8290  138.3690 C   0  0  0  0  0  3  0  0  0  0  0  0
  181.3290  181.5060  137.9950 O   0  0  0  0  0  1  0  0  0  0  0  0
  190.3180  177.7140  142.5460 C   0  0  0  0  0  2  0  0  0  0  0  0
  190.4820  176.3140  143.1100 C   0  0  0  0  0  2  0  0  0  0  0  0
  192.4260  174.6180  144.3450 F   0  0  0  0  0  0  0  0  0  0  0  0
  190.8140  176.3820  144.5620 C   0  0  0  0  0  0  0  0  0  0  0  0
  191.7720  175.5190  145.1200 C   0  0  0  0  0  0  0  0  0  0  0  0
  191.3890  176.5060  147.3000 C   0  0  0  0  0  3  0  0  0  0  0  0
  190.4320  177.3620  146.7460 C   0  0  0  0  0  3  0  0  0  0  0  0
  190.1440  177.2980  145.3800 C   0  0  0  0  0  3  0  0  0  0  0  0
  192.0570  175.5860  146.4870 C   0  0  0  0  0  3  0  0  0  0  0  0
  1 10  2  0  0  0  0
  2  6  1  0  0  0  0
  4 17  1  0  0  0  0
  6  5  2  0  0  0  0
  7 13  1  0  0  0  0
  8  3  1  1  0  0  0
  8  1  1  0  0  0  0
  8  2  1  0  0  0  0
  9  4  2  0  0  0  0
  9 16  1  0  0  0  0
 10  5  1  0  0  0  0
 11 18  1  0  0  0  0
 11  3  2  0  0  0  0
 12  1  1  0  0  0  0
 13  2  2  0  0  0  0
 14 15  2  0  0  0  0
 14  4  1  0  0  0  0
 15 11  1  0  0  0  0
 16 26  1  0  0  0  0
 16  7  2  0  0  0  0
 17  3  1  0  0  0  0
 17  7  1  0  0  0  0
 18 12  2  0  0  0  0
 19 23  1  0  0  0  0
 20 22  1  0  0  0  0
 20 19  2  0  0  0  0
 21 15  1  0  0  0  0
 22 24  2  0  0  0  0
 23 21  2  0  0  0  0
 24 21  1  0  0  0  0
 25 19  1  0  0  0  0
 26 27  1  0  0  0  0
 27 29  1  0  0  0  0
 28 30  1  0  0  0  0
 29 30  2  0  0  0  0
 29 33  1  0  0  0  0
 30 34  1  0  0  0  0
 32 31  1  0  0  0  0
 33 32  2  0  0  0  0
 34 31  2  0  0  0  0
M  END
>  <MODEL>
9

>  <REMARK>
 VINA RESULT:     -10.7      3.171      5.714
  Name = 
  4 active torsions:
  status: ('A' for Active; 'I' for Inactive)
    1  A    between atoms: C_3  and  C_13
    2  A    between atoms: C_3  and  C_17
    3  A    between atoms: C_12  and  C_28
    4  A    between atoms: C_17  and  C_29
                            x       y       z     vdW  Elec       q    Type
                         _______ _______ _______ _____ _____    ______ ____

>  <TORSDO>
F 4

$$$$
