=
 OpenBabel11052412463D

 25 28  0  0  1  0  0  0  0  0999 V2000
  187.2500  177.8040  145.7360 C   0  0  0  0  0  0  0  0  0  0  0  0
  188.5940  177.3820  145.5100 C   0  0  2  0  0  3  0  0  0  0  0  0
  187.6950  178.1590  148.1000 C   0  0  0  0  0  3  0  0  0  0  0  0
  186.1050  178.0790  144.8540 C   0  0  0  0  0  0  0  0  0  0  0  0
  183.7050  178.8710  143.6690 C   0  0  0  0  0  3  0  0  0  0  0  0
  189.0310  177.8180  147.8920 C   0  0  0  0  0  3  0  0  0  0  0  0
  185.0390  178.5020  145.6330 C   0  0  0  0  0  0  0  0  0  0  0  0
  183.8290  178.8980  145.0640 C   0  0  0  0  0  3  0  0  0  0  0  0
  191.2850  176.7210  145.2750 C   0  0  0  0  0  3  0  0  0  0  0  0
  190.7960  177.1290  146.4680 N   0  0  0  0  0  0  0  0  0  0  0  0
  189.1310  176.8870  144.2910 C   0  0  0  0  0  0  0  0  0  0  0  0
  184.7890  178.4730  142.8690 C   0  0  0  0  0  3  0  0  0  0  0  0
  186.8240  178.1420  147.0190 C   0  0  0  0  0  0  0  0  0  0  0  0
  185.3910  178.5600  147.0770 C   0  0  0  0  0  3  0  0  0  0  0  0
  190.4560  176.5910  144.2130 N   0  0  0  0  0  0  0  0  0  0  0  0
  186.0000  178.0900  143.4610 C   0  0  0  0  0  3  0  0  0  0  0  0
  189.4860  177.4440  146.6200 C   0  0  0  0  0  0  0  0  0  0  0  0
  188.2980  176.5140  143.1120 C   0  0  0  0  0  2  0  0  0  0  0  0
  189.0520  176.7520  141.8080 C   0  0  0  0  0  2  0  0  0  0  0  0
  188.8510  178.1720  141.2940 C   0  0  0  0  0  2  0  0  0  0  0  0
  188.2010  178.1830  139.9410 C   0  0  0  0  0  0  0  0  0  0  0  0
  187.0530  178.5800  139.8280 O   0  0  0  0  0  0  0  0  0  0  0  0
  188.9420  177.7240  138.7230 C   0  0  1  0  0  3  0  0  0  0  0  0
  188.3270  176.5950  138.1840 O   0  0  0  0  0  1  0  0  0  0  0  0
  189.0180  178.8210  137.6770 C   0  0  0  0  0  1  0  0  0  0  0  0
  1 13  1  0  0  0  0
  2 11  1  1  0  0  0
  2  1  1  0  0  0  0
  2 17  1  0  0  0  0
  4  7  1  0  0  0  0
  4  1  2  0  0  0  0
  5  8  2  0  0  0  0
  6  3  1  0  0  0  0
  7 14  2  0  0  0  0
  8  7  1  0  0  0  0
  9 10  2  0  0  0  0
 10 17  1  0  0  0  0
 12 16  2  0  0  0  0
 12  5  1  0  0  0  0
 13 14  1  0  0  0  0
 13  3  2  0  0  0  0
 15 11  2  0  0  0  0
 15  9  1  0  0  0  0
 16  4  1  0  0  0  0
 17  6  2  0  0  0  0
 18 11  1  0  0  0  0
 19 18  1  0  0  0  0
 20 19  1  0  0  0  0
 21 20  1  0  0  0  0
 22 21  2  0  0  0  0
 23 25  1  6  0  0  0
 23 21  1  0  0  0  0
 24 23  1  0  0  0  0
M  END
>  <MODEL>
1

>  <REMARK>
 VINA RESULT:     -10.5      0.000      0.000
  Name = 
  5 active torsions:
  status: ('A' for Active; 'I' for Inactive)
    1  A    between atoms: C_2  and  C_21
    2  A    between atoms: C_6  and  C_15
    3  A    between atoms: C_6  and  C_23
    4  A    between atoms: C_15  and  C_21
    5  A    between atoms: C_16  and  C_23
                            x       y       z     vdW  Elec       q    Type
                         _______ _______ _______ _____ _____    ______ ____

>  <TORSDO>
F 5

$$$$
=
 OpenBabel11052412463D

 25 28  0  0  1  0  0  0  0  0999 V2000
  187.5610  177.7770  145.8990 C   0  0  0  0  0  0  0  0  0  0  0  0
  188.9200  177.3420  145.8830 C   0  0  2  0  0  3  0  0  0  0  0  0
  187.6850  178.2750  148.2760 C   0  0  0  0  0  3  0  0  0  0  0  0
  186.5480  177.9980  144.8550 C   0  0  0  0  0  0  0  0  0  0  0  0
  184.3370  178.7160  143.3090 C   0  0  0  0  0  3  0  0  0  0  0  0
  189.0340  177.9230  148.2720 C   0  0  0  0  0  3  0  0  0  0  0  0
  185.3900  178.4670  145.4560 C   0  0  0  0  0  0  0  0  0  0  0  0
  184.2710  178.8280  144.7040 C   0  0  0  0  0  3  0  0  0  0  0  0
  191.6120  176.6670  146.0550 C   0  0  0  0  0  3  0  0  0  0  0  0
  190.9700  177.1480  147.1440 N   0  0  0  0  0  0  0  0  0  0  0  0
  189.6120  176.7740  144.7800 C   0  0  0  0  0  0  0  0  0  0  0  0
  185.5160  178.2700  142.6900 C   0  0  0  0  0  3  0  0  0  0  0  0
  186.9680  178.1930  147.0890 C   0  0  0  0  0  0  0  0  0  0  0  0
  185.5440  178.6140  146.9280 C   0  0  0  0  0  3  0  0  0  0  0  0
  190.9330  176.4740  144.9000 N   0  0  0  0  0  0  0  0  0  0  0  0
  186.6330  177.9240  143.4620 C   0  0  0  0  0  3  0  0  0  0  0  0
  189.6540  177.4720  147.0970 C   0  0  0  0  0  0  0  0  0  0  0  0
  188.9440  176.3290  143.5240 C   0  0  0  0  0  2  0  0  0  0  0  0
  189.9640  175.8550  142.4950 C   0  0  0  0  0  2  0  0  0  0  0  0
  190.0000  176.7690  141.2770 C   0  0  0  0  0  2  0  0  0  0  0  0
  191.3730  177.3300  141.0480 C   0  0  0  0  0  0  0  0  0  0  0  0
  192.0530  177.6700  142.0030 O   0  0  0  0  0  0  0  0  0  0  0  0
  191.9320  177.4700  139.6650 C   0  0  1  0  0  3  0  0  0  0  0  0
  193.2890  177.1510  139.6610 O   0  0  0  0  0  1  0  0  0  0  0  0
  191.1910  176.5890  138.6770 C   0  0  0  0  0  1  0  0  0  0  0  0
  1 13  1  0  0  0  0
  2 11  1  1  0  0  0
  2  1  1  0  0  0  0
  2 17  1  0  0  0  0
  4  7  1  0  0  0  0
  4  1  2  0  0  0  0
  5  8  2  0  0  0  0
  6  3  1  0  0  0  0
  7 14  2  0  0  0  0
  8  7  1  0  0  0  0
  9 10  2  0  0  0  0
 11 15  2  0  0  0  0
 12  5  1  0  0  0  0
 12 16  2  0  0  0  0
 13  3  2  0  0  0  0
 14 13  1  0  0  0  0
 15  9  1  0  0  0  0
 16  4  1  0  0  0  0
 17 10  1  0  0  0  0
 17  6  2  0  0  0  0
 18 11  1  0  0  0  0
 19 18  1  0  0  0  0
 20 19  1  0  0  0  0
 21 20  1  0  0  0  0
 21 22  2  0  0  0  0
 23 25  1  6  0  0  0
 23 21  1  0  0  0  0
 24 23  1  0  0  0  0
M  END
>  <MODEL>
2

>  <REMARK>
 VINA RESULT:      -9.9      1.921      2.019
  Name = 
  5 active torsions:
  status: ('A' for Active; 'I' for Inactive)
    1  A    between atoms: C_2  and  C_21
    2  A    between atoms: C_6  and  C_15
    3  A    between atoms: C_6  and  C_23
    4  A    between atoms: C_15  and  C_21
    5  A    between atoms: C_16  and  C_23
                            x       y       z     vdW  Elec       q    Type
                         _______ _______ _______ _____ _____    ______ ____

>  <TORSDO>
F 5

$$$$
=
 OpenBabel11052412463D

 25 28  0  0  1  0  0  0  0  0999 V2000
  185.7070  178.4420  144.4990 C   0  0  0  0  0  0  0  0  0  0  0  0
  185.4070  178.5540  143.1080 C   0  0  0  0  0  0  0  0  0  0  0  0
  183.3980  178.9150  145.0980 C   0  0  0  0  0  3  0  0  0  0  0  0
  186.9000  178.0310  145.2560 C   0  0  0  0  0  0  0  0  0  0  0  0
  188.7790  177.2150  147.1520 C   0  0  0  0  0  3  0  0  0  0  0  0
  183.0640  178.9600  143.7450 C   0  0  0  0  0  3  0  0  0  0  0  0
  186.6040  178.0800  146.6090 C   0  0  0  0  0  0  0  0  0  0  0  0
  187.5280  177.6820  147.5750 C   0  0  0  0  0  3  0  0  0  0  0  0
  184.5710  178.6890  140.4600 C   0  0  0  0  0  3  0  0  0  0  0  0
  183.6660  178.8200  141.4570 N   0  0  0  0  0  0  0  0  0  0  0  0
  186.3350  178.4860  142.0360 C   0  0  1  0  0  3  0  0  0  0  0  0
  189.0780  177.1330  145.7820 C   0  0  0  0  0  3  0  0  0  0  0  0
  184.7160  178.6600  145.4540 C   0  0  0  0  0  0  0  0  0  0  0  0
  185.2000  178.5030  146.8590 C   0  0  0  0  0  3  0  0  0  0  0  0
  185.8840  178.5390  140.7540 N   0  0  0  0  0  0  0  0  0  0  0  0
  188.1310  177.5270  144.8270 C   0  0  0  0  0  3  0  0  0  0  0  0
  184.0430  178.7740  142.7580 C   0  0  0  0  0  0  0  0  0  0  0  0
  187.8140  178.5190  142.2190 C   0  0  0  0  0  2  0  0  0  0  0  0
  188.5380  178.4100  140.8800 C   0  0  0  0  0  2  0  0  0  0  0  0
  189.2570  177.0750  140.7380 C   0  0  0  0  0  2  0  0  0  0  0  0
  190.7330  177.2160  140.9680 C   0  0  0  0  0  0  0  0  0  0  0  0
  191.4560  177.5680  140.0490 O   0  0  0  0  0  0  0  0  0  0  0  0
  191.3370  176.9440  142.3110 C   0  0  1  0  0  3  0  0  0  0  0  0
  191.2490  178.0780  143.1160 O   0  0  0  0  0  1  0  0  0  0  0  0
  190.6610  175.7700  142.9950 C   0  0  0  0  0  1  0  0  0  0  0  0
  1  4  1  0  0  0  0
  1 13  1  0  0  0  0
  2  1  2  0  0  0  0
  3 13  1  0  0  0  0
  4  7  1  0  0  0  0
  5  8  1  0  0  0  0
  6  3  2  0  0  0  0
  7 14  1  0  0  0  0
  7  8  2  0  0  0  0
  9 15  2  0  0  0  0
  9 10  1  0  0  0  0
 10 17  2  0  0  0  0
 11 18  1  1  0  0  0
 11  2  1  0  0  0  0
 12  5  2  0  0  0  0
 13 14  2  0  0  0  0
 15 11  1  0  0  0  0
 16  4  2  0  0  0  0
 16 12  1  0  0  0  0
 17  2  1  0  0  0  0
 17  6  1  0  0  0  0
 19 18  1  0  0  0  0
 20 19  1  0  0  0  0
 20 21  1  0  0  0  0
 21 23  1  0  0  0  0
 22 21  2  0  0  0  0
 23 25  1  1  0  0  0
 23 24  1  0  0  0  0
M  END
>  <MODEL>
3

>  <REMARK>
 VINA RESULT:      -9.7      2.606      4.884
  Name = 
  5 active torsions:
  status: ('A' for Active; 'I' for Inactive)
    1  A    between atoms: C_2  and  C_21
    2  A    between atoms: C_6  and  C_15
    3  A    between atoms: C_6  and  C_23
    4  A    between atoms: C_15  and  C_21
    5  A    between atoms: C_16  and  C_23
                            x       y       z     vdW  Elec       q    Type
                         _______ _______ _______ _____ _____    ______ ____

>  <TORSDO>
F 5

$$$$
=
 OpenBabel11052412463D

 25 28  0  0  1  0  0  0  0  0999 V2000
  187.6200  177.8060  145.3140 C   0  0  0  0  0  0  0  0  0  0  0  0
  186.2610  178.1600  145.0590 C   0  0  2  0  0  3  0  0  0  0  0  0
  187.3730  178.3190  147.6790 C   0  0  0  0  0  3  0  0  0  0  0  0
  188.6890  177.2060  144.5010 C   0  0  0  0  0  0  0  0  0  0  0  0
  190.9830  175.9780  143.4890 C   0  0  0  0  0  3  0  0  0  0  0  0
  186.0240  178.6030  147.4690 C   0  0  0  0  0  3  0  0  0  0  0  0
  189.8150  177.0540  145.2940 C   0  0  0  0  0  0  0  0  0  0  0  0
  190.9750  176.4480  144.8080 C   0  0  0  0  0  3  0  0  0  0  0  0
  183.5600  178.7730  144.8160 C   0  0  0  0  0  3  0  0  0  0  0  0
  184.1470  178.7970  146.0350 N   0  0  0  0  0  0  0  0  0  0  0  0
  185.6250  178.2090  143.7900 C   0  0  0  0  0  0  0  0  0  0  0  0
  189.8360  176.1000  142.6870 C   0  0  0  0  0  3  0  0  0  0  0  0
  188.1520  177.9290  146.5970 C   0  0  0  0  0  0  0  0  0  0  0  0
  189.5850  177.5180  146.6870 C   0  0  0  0  0  3  0  0  0  0  0  0
  184.2990  178.4960  143.7150 N   0  0  0  0  0  0  0  0  0  0  0  0
  188.6770  176.7020  143.1970 C   0  0  0  0  0  3  0  0  0  0  0  0
  185.4650  178.5180  146.1850 C   0  0  0  0  0  0  0  0  0  0  0  0
  186.3570  178.1190  142.4940 C   0  0  0  0  0  2  0  0  0  0  0  0
  185.9580  179.2530  141.5560 C   0  0  0  0  0  2  0  0  0  0  0  0
  185.5210  178.7290  140.1950 C   0  0  0  0  0  2  0  0  0  0  0  0
  184.2180  179.3350  139.7630 C   0  0  0  0  0  0  0  0  0  0  0  0
  184.2200  180.2990  139.0130 O   0  0  0  0  0  0  0  0  0  0  0  0
  182.9100  178.7690  140.2250 C   0  0  1  0  0  3  0  0  0  0  0  0
  181.8670  179.2750  139.4500 O   0  0  0  0  0  1  0  0  0  0  0  0
  182.9100  177.2530  140.1650 C   0  0  0  0  0  1  0  0  0  0  0  0
  1 13  1  0  0  0  0
  2 11  1  6  0  0  0
  2  1  1  0  0  0  0
  2 17  1  0  0  0  0
  4  7  1  0  0  0  0
  4  1  2  0  0  0  0
  5  8  2  0  0  0  0
  6  3  1  0  0  0  0
  7 14  2  0  0  0  0
  8  7  1  0  0  0  0
  9 10  2  0  0  0  0
 10 17  1  0  0  0  0
 12 16  2  0  0  0  0
 12  5  1  0  0  0  0
 13 14  1  0  0  0  0
 13  3  2  0  0  0  0
 15 11  2  0  0  0  0
 15  9  1  0  0  0  0
 16  4  1  0  0  0  0
 17  6  2  0  0  0  0
 18 11  1  0  0  0  0
 19 18  1  0  0  0  0
 20 19  1  0  0  0  0
 21 20  1  0  0  0  0
 21 23  1  0  0  0  0
 22 21  2  0  0  0  0
 23 25  1  6  0  0  0
 24 23  1  0  0  0  0
M  END
>  <MODEL>
4

>  <REMARK>
 VINA RESULT:      -9.6      2.759      4.956
  Name = 
  5 active torsions:
  status: ('A' for Active; 'I' for Inactive)
    1  A    between atoms: C_2  and  C_21
    2  A    between atoms: C_6  and  C_15
    3  A    between atoms: C_6  and  C_23
    4  A    between atoms: C_15  and  C_21
    5  A    between atoms: C_16  and  C_23
                            x       y       z     vdW  Elec       q    Type
                         _______ _______ _______ _____ _____    ______ ____

>  <TORSDO>
F 5

$$$$
=
 OpenBabel11052412463D

 25 28  0  0  1  0  0  0  0  0999 V2000
  187.7480  177.8190  145.2840 C   0  0  0  0  0  0  0  0  0  0  0  0
  186.7840  178.0250  144.2520 C   0  0  0  0  0  0  0  0  0  0  0  0
  186.0880  178.2600  147.0050 C   0  0  0  0  0  3  0  0  0  0  0  0
  189.1430  177.3540  145.2990 C   0  0  0  0  0  0  0  0  0  0  0  0
  191.6950  176.4050  145.9170 C   0  0  0  0  0  3  0  0  0  0  0  0
  185.1120  178.3970  146.0190 C   0  0  0  0  0  3  0  0  0  0  0  0
  189.5810  177.3140  146.6130 C   0  0  0  0  0  0  0  0  0  0  0  0
  190.8540  176.8480  146.9460 C   0  0  0  0  0  3  0  0  0  0  0  0
  184.7190  178.3410  142.4170 C   0  0  0  0  0  3  0  0  0  0  0  0
  184.4550  178.4080  143.7420 N   0  0  0  0  0  0  0  0  0  0  0  0
  187.0310  178.0260  142.8530 C   0  0  1  0  0  3  0  0  0  0  0  0
  191.2490  176.4140  144.5860 C   0  0  0  0  0  3  0  0  0  0  0  0
  187.3920  177.9770  146.6220 C   0  0  0  0  0  0  0  0  0  0  0  0
  188.5190  177.7250  147.5700 C   0  0  0  0  0  3  0  0  0  0  0  0
  185.9920  178.1660  141.9880 N   0  0  0  0  0  0  0  0  0  0  0  0
  189.9630  176.8750  144.2730 C   0  0  0  0  0  3  0  0  0  0  0  0
  185.4420  178.2740  144.6620 C   0  0  0  0  0  0  0  0  0  0  0  0
  188.3970  178.0400  142.2550 C   0  0  0  0  0  2  0  0  0  0  0  0
  188.3320  177.9660  140.7330 C   0  0  0  0  0  2  0  0  0  0  0  0
  189.6730  177.5640  140.1320 C   0  0  0  0  0  2  0  0  0  0  0  0
  189.6690  177.6940  138.6370 C   0  0  0  0  0  0  0  0  0  0  0  0
  190.5810  177.2060  137.9880 O   0  0  0  0  0  0  0  0  0  0  0  0
  188.5590  178.4010  137.9240 C   0  0  1  0  0  3  0  0  0  0  0  0
  188.9710  179.6750  137.5370 O   0  0  0  0  0  1  0  0  0  0  0  0
  188.0920  177.6180  136.7110 C   0  0  0  0  0  1  0  0  0  0  0  0
  1  4  1  0  0  0  0
  1 13  1  0  0  0  0
  2 17  1  0  0  0  0
  2  1  2  0  0  0  0
  4  7  1  0  0  0  0
  5  8  1  0  0  0  0
  6  3  2  0  0  0  0
  7  8  2  0  0  0  0
  7 14  1  0  0  0  0
  9 10  1  0  0  0  0
 10 17  2  0  0  0  0
 11 18  1  1  0  0  0
 11  2  1  0  0  0  0
 12  5  2  0  0  0  0
 13  3  1  0  0  0  0
 13 14  2  0  0  0  0
 15  9  2  0  0  0  0
 15 11  1  0  0  0  0
 16 12  1  0  0  0  0
 16  4  2  0  0  0  0
 17  6  1  0  0  0  0
 19 18  1  0  0  0  0
 20 19  1  0  0  0  0
 21 20  1  0  0  0  0
 22 21  2  0  0  0  0
 23 25  1  6  0  0  0
 23 21  1  0  0  0  0
 24 23  1  0  0  0  0
M  END
>  <MODEL>
5

>  <REMARK>
 VINA RESULT:      -9.3      2.073      4.364
  Name = 
  5 active torsions:
  status: ('A' for Active; 'I' for Inactive)
    1  A    between atoms: C_2  and  C_21
    2  A    between atoms: C_6  and  C_15
    3  A    between atoms: C_6  and  C_23
    4  A    between atoms: C_15  and  C_21
    5  A    between atoms: C_16  and  C_23
                            x       y       z     vdW  Elec       q    Type
                         _______ _______ _______ _____ _____    ______ ____

>  <TORSDO>
F 5

$$$$
=
 OpenBabel11052412463D

 25 28  0  0  1  0  0  0  0  0999 V2000
  187.7930  177.8180  145.5200 C   0  0  0  0  0  0  0  0  0  0  0  0
  186.8790  178.0100  144.4410 C   0  0  0  0  0  0  0  0  0  0  0  0
  186.0500  178.2660  147.1560 C   0  0  0  0  0  3  0  0  0  0  0  0
  189.1880  177.3600  145.6060 C   0  0  0  0  0  0  0  0  0  0  0  0
  191.7110  176.4270  146.3540 C   0  0  0  0  0  3  0  0  0  0  0  0
  185.1220  178.3900  146.1230 C   0  0  0  0  0  3  0  0  0  0  0  0
  189.5630  177.3330  146.9400 C   0  0  0  0  0  0  0  0  0  0  0  0
  190.8190  176.8750  147.3380 C   0  0  0  0  0  3  0  0  0  0  0  0
  184.9020  178.3000  142.5060 C   0  0  0  0  0  3  0  0  0  0  0  0
  184.5750  178.3780  143.8160 N   0  0  0  0  0  0  0  0  0  0  0  0
  187.1930  178.0000  143.0560 C   0  0  1  0  0  3  0  0  0  0  0  0
  191.3290  176.4230  145.0020 C   0  0  0  0  0  3  0  0  0  0  0  0
  187.3730  177.9860  146.8380 C   0  0  0  0  0  0  0  0  0  0  0  0
  188.4540  177.7470  147.8410 C   0  0  0  0  0  3  0  0  0  0  0  0
  186.1950  178.1280  142.1410 N   0  0  0  0  0  0  0  0  0  0  0  0
  190.0580  176.8750  144.6250 C   0  0  0  0  0  3  0  0  0  0  0  0
  185.5180  178.2560  144.7840 C   0  0  0  0  0  0  0  0  0  0  0  0
  188.5850  178.0150  142.5230 C   0  0  0  0  0  2  0  0  0  0  0  0
  188.6570  177.3530  141.1510 C   0  0  0  0  0  2  0  0  0  0  0  0
  190.0640  177.4170  140.5700 C   0  0  0  0  0  2  0  0  0  0  0  0
  190.0390  177.6250  139.0850 C   0  0  0  0  0  0  0  0  0  0  0  0
  189.4010  178.5550  138.6170 O   0  0  0  0  0  0  0  0  0  0  0  0
  190.7930  176.7180  138.1620 C   0  0  1  0  0  3  0  0  0  0  0  0
  190.7820  175.4140  138.6550 O   0  0  0  0  0  1  0  0  0  0  0  0
  190.2130  176.7460  136.7610 C   0  0  0  0  0  1  0  0  0  0  0  0
  1  4  1  0  0  0  0
  1 13  1  0  0  0  0
  2 17  1  0  0  0  0
  2  1  2  0  0  0  0
  4  7  1  0  0  0  0
  5  8  1  0  0  0  0
  6  3  2  0  0  0  0
  7  8  2  0  0  0  0
  7 14  1  0  0  0  0
  9 10  1  0  0  0  0
 10 17  2  0  0  0  0
 11 18  1  1  0  0  0
 11  2  1  0  0  0  0
 12  5  2  0  0  0  0
 13  3  1  0  0  0  0
 13 14  2  0  0  0  0
 15  9  2  0  0  0  0
 15 11  1  0  0  0  0
 16 12  1  0  0  0  0
 16  4  2  0  0  0  0
 17  6  1  0  0  0  0
 19 18  1  0  0  0  0
 20 19  1  0  0  0  0
 21 20  1  0  0  0  0
 22 21  2  0  0  0  0
 23 25  1  6  0  0  0
 23 24  1  0  0  0  0
 23 21  1  0  0  0  0
M  END
>  <MODEL>
6

>  <REMARK>
 VINA RESULT:      -9.3      2.034      4.310
  Name = 
  5 active torsions:
  status: ('A' for Active; 'I' for Inactive)
    1  A    between atoms: C_2  and  C_21
    2  A    between atoms: C_6  and  C_15
    3  A    between atoms: C_6  and  C_23
    4  A    between atoms: C_15  and  C_21
    5  A    between atoms: C_16  and  C_23
                            x       y       z     vdW  Elec       q    Type
                         _______ _______ _______ _____ _____    ______ ____

>  <TORSDO>
F 5

$$$$
=
 OpenBabel11052412463D

 25 28  0  0  1  0  0  0  0  0999 V2000
  185.7660  178.4550  144.2190 C   0  0  0  0  0  0  0  0  0  0  0  0
  185.4360  178.6320  142.8420 C   0  0  0  0  0  0  0  0  0  0  0  0
  183.4680  178.8820  144.8880 C   0  0  0  0  0  3  0  0  0  0  0  0
  186.9780  178.0160  144.9290 C   0  0  0  0  0  0  0  0  0  0  0  0
  188.9020  177.1210  146.7440 C   0  0  0  0  0  3  0  0  0  0  0  0
  183.1050  178.9910  143.5460 C   0  0  0  0  0  3  0  0  0  0  0  0
  186.7100  177.9980  146.2890 C   0  0  0  0  0  0  0  0  0  0  0  0
  187.6570  177.5590  147.2150 C   0  0  0  0  0  3  0  0  0  0  0  0
  184.5430  178.8900  140.2210 C   0  0  0  0  0  3  0  0  0  0  0  0
  183.6590  178.9660  141.2420 N   0  0  0  0  0  0  0  0  0  0  0  0
  186.3420  178.6230  141.7480 C   0  0  1  0  0  3  0  0  0  0  0  0
  189.1710  177.1090  145.3650 C   0  0  0  0  0  3  0  0  0  0  0  0
  184.7940  178.6200  145.2040 C   0  0  0  0  0  0  0  0  0  0  0  0
  185.3090  178.3980  146.5890 C   0  0  0  0  0  3  0  0  0  0  0  0
  185.8630  178.7350  140.4800 N   0  0  0  0  0  0  0  0  0  0  0  0
  188.2020  177.5420  144.4510 C   0  0  0  0  0  3  0  0  0  0  0  0
  184.0640  178.8600  142.5320 C   0  0  0  0  0  0  0  0  0  0  0  0
  187.8240  178.6570  141.9010 C   0  0  0  0  0  2  0  0  0  0  0  0
  188.5160  178.0140  140.7040 C   0  0  0  0  0  2  0  0  0  0  0  0
  189.7790  177.2700  141.1180 C   0  0  0  0  0  2  0  0  0  0  0  0
  190.7360  177.1250  139.9710 C   0  0  0  0  0  0  0  0  0  0  0  0
  191.9050  177.4460  140.1160 O   0  0  0  0  0  0  0  0  0  0  0  0
  190.2850  176.5800  138.6510 C   0  0  1  0  0  3  0  0  0  0  0  0
  190.1600  177.6120  137.7220 O   0  0  0  0  0  1  0  0  0  0  0  0
  191.2450  175.5270  138.1290 C   0  0  0  0  0  1  0  0  0  0  0  0
  1  4  1  0  0  0  0
  1 13  1  0  0  0  0
  2  1  2  0  0  0  0
  3 13  1  0  0  0  0
  4  7  1  0  0  0  0
  5  8  1  0  0  0  0
  6  3  2  0  0  0  0
  7 14  1  0  0  0  0
  7  8  2  0  0  0  0
  9 15  2  0  0  0  0
  9 10  1  0  0  0  0
 10 17  2  0  0  0  0
 11 18  1  1  0  0  0
 11  2  1  0  0  0  0
 12  5  2  0  0  0  0
 13 14  2  0  0  0  0
 15 11  1  0  0  0  0
 16  4  2  0  0  0  0
 16 12  1  0  0  0  0
 17  2  1  0  0  0  0
 17  6  1  0  0  0  0
 19 20  1  0  0  0  0
 19 18  1  0  0  0  0
 21 22  2  0  0  0  0
 21 20  1  0  0  0  0
 23 25  1  6  0  0  0
 23 21  1  0  0  0  0
 24 23  1  0  0  0  0
M  END
>  <MODEL>
7

>  <REMARK>
 VINA RESULT:      -9.3      2.549      4.663
  Name = 
  5 active torsions:
  status: ('A' for Active; 'I' for Inactive)
    1  A    between atoms: C_2  and  C_21
    2  A    between atoms: C_6  and  C_15
    3  A    between atoms: C_6  and  C_23
    4  A    between atoms: C_15  and  C_21
    5  A    between atoms: C_16  and  C_23
                            x       y       z     vdW  Elec       q    Type
                         _______ _______ _______ _____ _____    ______ ____

>  <TORSDO>
F 5

$$$$
=
 OpenBabel11052412463D

 25 28  0  0  1  0  0  0  0  0999 V2000
  189.1350  177.4760  144.2950 C   0  0  0  0  0  0  0  0  0  0  0  0
  188.7620  177.6910  142.9340 C   0  0  0  0  0  0  0  0  0  0  0  0
  191.4260  176.9750  143.6510 C   0  0  0  0  0  3  0  0  0  0  0  0
  188.4470  177.6570  145.5830 C   0  0  0  0  0  0  0  0  0  0  0  0
  187.6960  177.9510  148.2560 C   0  0  0  0  0  3  0  0  0  0  0  0
  191.1040  177.2480  142.3220 C   0  0  0  0  0  3  0  0  0  0  0  0
  189.3220  177.3180  146.6020 C   0  0  0  0  0  0  0  0  0  0  0  0
  188.9680  177.4520  147.9450 C   0  0  0  0  0  3  0  0  0  0  0  0
  188.2910  178.1870  140.2390 C   0  0  0  0  0  3  0  0  0  0  0  0
  189.5390  177.8730  140.6550 N   0  0  0  0  0  0  0  0  0  0  0  0
  187.4540  177.9590  142.4490 C   0  0  0  0  0  0  0  0  0  0  0  0
  186.8130  178.3250  147.2290 C   0  0  0  0  0  3  0  0  0  0  0  0
  190.4350  177.0890  144.6170 C   0  0  0  0  0  0  0  0  0  0  0  0
  190.6540  176.9070  146.0830 C   0  0  0  0  0  3  0  0  0  0  0  0
  187.2680  178.2130  141.1270 N   0  0  0  0  0  0  0  0  0  0  0  0
  187.1930  178.1940  145.8870 C   0  0  0  0  0  3  0  0  0  0  0  0
  189.7990  177.6100  141.9600 C   0  0  1  0  0  3  0  0  0  0  0  0
  186.2220  177.8260  143.2770 C   0  0  0  0  0  2  0  0  0  0  0  0
  185.2460  178.9650  143.0000 C   0  0  0  0  0  2  0  0  0  0  0  0
  183.8570  178.4430  142.6540 C   0  0  0  0  0  2  0  0  0  0  0  0
  182.8320  178.9020  143.6490 C   0  0  0  0  0  0  0  0  0  0  0  0
  183.1310  178.9840  144.8300 O   0  0  0  0  0  0  0  0  0  0  0  0
  181.4470  179.2760  143.2180 C   0  0  1  0  0  3  0  0  0  0  0  0
  181.3190  179.1310  141.8370 O   0  0  0  0  0  1  0  0  0  0  0  0
  180.4010  178.4350  143.9260 C   0  0  0  0  0  1  0  0  0  0  0  0
  1 13  1  0  0  0  0
  1  4  1  0  0  0  0
  2  1  2  0  0  0  0
  3 13  1  0  0  0  0
  4 16  2  0  0  0  0
  4  7  1  0  0  0  0
  6  3  2  0  0  0  0
  7  8  2  0  0  0  0
  8  5  1  0  0  0  0
  9 10  2  0  0  0  0
  9 15  1  0  0  0  0
 10 17  1  0  0  0  0
 11  2  1  0  0  0  0
 11 18  1  0  0  0  0
 12  5  2  0  0  0  0
 13 14  2  0  0  0  0
 14  7  1  0  0  0  0
 15 11  2  0  0  0  0
 16 12  1  0  0  0  0
 17  6  1  6  0  0  0
 17  2  1  0  0  0  0
 19 18  1  0  0  0  0
 20 19  1  0  0  0  0
 20 21  1  0  0  0  0
 21 22  2  0  0  0  0
 23 21  1  0  0  0  0
 23 25  1  1  0  0  0
 24 23  1  0  0  0  0
M  END
>  <MODEL>
8

>  <REMARK>
 VINA RESULT:      -9.2      2.740      5.618
  Name = 
  5 active torsions:
  status: ('A' for Active; 'I' for Inactive)
    1  A    between atoms: C_2  and  C_21
    2  A    between atoms: C_6  and  C_15
    3  A    between atoms: C_6  and  C_23
    4  A    between atoms: C_15  and  C_21
    5  A    between atoms: C_16  and  C_23
                            x       y       z     vdW  Elec       q    Type
                         _______ _______ _______ _____ _____    ______ ____

>  <TORSDO>
F 5

$$$$
=
 OpenBabel11052412463D

 25 28  0  0  1  0  0  0  0  0999 V2000
  185.4750  178.3480  143.0940 C   0  0  0  0  0  0  0  0  0  0  0  0
  185.5430  178.2900  144.5190 C   0  0  2  0  0  3  0  0  0  0  0  0
  183.1300  178.9890  143.1730 C   0  0  0  0  0  3  0  0  0  0  0  0
  186.4720  178.2340  142.0190 C   0  0  0  0  0  0  0  0  0  0  0  0
  187.9290  178.2540  139.6370 C   0  0  0  0  0  3  0  0  0  0  0  0
  183.1890  179.0080  144.5660 C   0  0  0  0  0  3  0  0  0  0  0  0
  185.8320  178.4100  140.8030 C   0  0  0  0  0  0  0  0  0  0  0  0
  186.5380  178.4190  139.5990 C   0  0  0  0  0  3  0  0  0  0  0  0
  185.4830  178.3680  147.2980 C   0  0  0  0  0  3  0  0  0  0  0  0
  184.3830  178.7170  146.5930 N   0  0  0  0  0  0  0  0  0  0  0  0
  186.6560  177.8690  145.2940 C   0  0  0  0  0  0  0  0  0  0  0  0
  188.5900  178.1050  140.8680 C   0  0  0  0  0  3  0  0  0  0  0  0
  184.2730  178.6550  142.4580 C   0  0  0  0  0  0  0  0  0  0  0  0
  184.3780  178.6710  140.9680 C   0  0  0  0  0  3  0  0  0  0  0  0
  186.5930  177.9380  146.6510 N   0  0  0  0  0  0  0  0  0  0  0  0
  187.8630  178.1110  142.0660 C   0  0  0  0  0  3  0  0  0  0  0  0
  184.3750  178.6760  145.2370 C   0  0  0  0  0  0  0  0  0  0  0  0
  187.8560  177.1950  144.7210 C   0  0  0  0  0  2  0  0  0  0  0  0
  189.0500  177.2990  145.6650 C   0  0  0  0  0  2  0  0  0  0  0  0
  190.2720  177.8770  144.9630 C   0  0  0  0  0  2  0  0  0  0  0  0
  191.2880  176.8140  144.6600 C   0  0  0  0  0  0  0  0  0  0  0  0
  191.9230  176.3100  145.5720 O   0  0  0  0  0  0  0  0  0  0  0  0
  191.5280  176.3520  143.2560 C   0  0  1  0  0  3  0  0  0  0  0  0
  190.4830  175.5300  142.8350 O   0  0  0  0  0  1  0  0  0  0  0  0
  191.6800  177.5240  142.3050 C   0  0  0  0  0  1  0  0  0  0  0  0
  2  1  1  6  0  0  0
  2 17  1  0  0  0  0
  2 11  1  0  0  0  0
  3  6  1  0  0  0  0
  4 16  1  0  0  0  0
  4  1  2  0  0  0  0
  5 12  1  0  0  0  0
  6 17  2  0  0  0  0
  7 14  2  0  0  0  0
  7  4  1  0  0  0  0
  8  5  2  0  0  0  0
  8  7  1  0  0  0  0
 10  9  2  0  0  0  0
 11 15  2  0  0  0  0
 12 16  2  0  0  0  0
 13  1  1  0  0  0  0
 13  3  2  0  0  0  0
 14 13  1  0  0  0  0
 15  9  1  0  0  0  0
 17 10  1  0  0  0  0
 18 11  1  0  0  0  0
 18 19  1  0  0  0  0
 20 19  1  0  0  0  0
 21 20  1  0  0  0  0
 21 22  2  0  0  0  0
 23 25  1  6  0  0  0
 23 21  1  0  0  0  0
 24 23  1  0  0  0  0
M  END
>  <MODEL>
9

>  <REMARK>
 VINA RESULT:      -9.1      2.740      5.172
  Name = 
  5 active torsions:
  status: ('A' for Active; 'I' for Inactive)
    1  A    between atoms: C_2  and  C_21
    2  A    between atoms: C_6  and  C_15
    3  A    between atoms: C_6  and  C_23
    4  A    between atoms: C_15  and  C_21
    5  A    between atoms: C_16  and  C_23
                            x       y       z     vdW  Elec       q    Type
                         _______ _______ _______ _____ _____    ______ ____

>  <TORSDO>
F 5

$$$$
