=
 OpenBabel11052414223D

 34 40  0  0  1  0  0  0  0  0999 V2000
  188.8810  177.6890  146.2010 N   0  0  0  0  0  0  0  0  0  0  0  0
  186.7940  178.2650  147.1920 C   0  0  2  0  0  3  0  0  0  0  0  0
  187.0850  178.0980  144.6460 C   0  0  0  0  0  0  0  0  0  0  0  0
  185.3600  178.4890  142.9090 C   0  0  0  0  0  0  0  0  0  0  0  0
  189.1370  177.5750  147.6230 C   0  0  1  0  0  3  0  0  0  0  0  0
  187.8090  177.9240  148.3030 C   0  0  2  0  0  3  0  0  0  0  0  0
  184.6250  178.4320  145.2110 C   0  0  0  0  0  3  0  0  0  0  0  0
  187.5430  178.0540  145.9210 C   0  0  0  0  0  0  0  0  0  0  0  0
  183.3130  178.6750  144.8010 C   0  0  0  0  0  3  0  0  0  0  0  0
  184.0460  178.7390  142.5000 C   0  0  0  0  0  3  0  0  0  0  0  0
  188.2740  176.4800  148.2300 C   0  0  0  0  0  2  0  0  0  0  0  0
  188.0750  177.8750  143.5420 C   0  0  0  0  0  0  0  0  0  0  0  0
  189.8520  177.4690  145.1800 C   0  0  0  0  0  3  0  0  0  0  0  0
  186.4270  179.7310  147.3410 C   0  0  0  0  0  1  0  0  0  0  0  0
  186.3620  178.3580  141.9450 O   0  0  0  0  0  0  0  0  0  0  0  0
  187.6880  178.0090  142.2480 C   0  0  0  0  0  0  0  0  0  0  0  0
  183.0200  178.8380  143.4420 C   0  0  0  0  0  0  0  0  0  0  0  0
  185.6660  178.3530  144.2730 C   0  0  0  0  0  0  0  0  0  0  0  0
  189.4820  177.5630  143.9040 C   0  0  0  0  0  3  0  0  0  0  0  0
  189.2130  178.4130  138.8130 C   0  0  0  0  0  0  0  0  0  0  0  0
  190.2130  177.4400  138.8200 C   0  0  0  0  0  3  0  0  0  0  0  0
  188.5990  177.8170  141.0910 C   0  0  0  0  0  0  0  0  0  0  0  0
  190.4060  176.6460  139.9540 C   0  0  0  0  0  3  0  0  0  0  0  0
  188.4060  178.5950  139.9390 C   0  0  0  0  0  3  0  0  0  0  0  0
  189.5990  176.8290  141.0800 C   0  0  0  0  0  3  0  0  0  0  0  0
  189.0170  179.1990  137.6850 O   0  0  0  0  0  1  0  0  0  0  0  0
  181.6860  179.0890  143.0020 N   0  0  0  0  0  2  0  0  0  0  0  0
  181.2450  178.6880  141.7330 N   0  0  0  0  0  2  0  0  0  0  0  0
  179.5670  179.2430  140.0790 C   0  0  0  0  0  2  0  0  0  0  0  0
  180.7530  180.1350  139.7600 C   0  0  1  0  0  3  0  0  0  0  0  0
  180.4200  179.7680  141.2150 C   0  0  2  0  0  3  0  0  0  0  0  0
  183.1760  179.8190  139.2120 O   0  0  0  0  0  1  0  0  0  0  0  0
  181.8730  179.3400  139.1500 C   0  0  0  0  0  0  0  0  0  0  0  0
  181.6330  178.2670  138.5350 O   0  0  0  0  0  0  0  0  0  0  0  0
  1  5  1  0  0  0  0
  2 14  1  1  0  0  0
  2  6  1  0  0  0  0
  3  8  2  0  0  0  0
  4 18  1  0  0  0  0
  5 11  1  6  0  0  0
  5  6  1  0  0  0  0
  6 11  1  6  0  0  0
  8  1  1  0  0  0  0
  8  2  1  0  0  0  0
  9  7  1  0  0  0  0
 10  4  2  0  0  0  0
 10 17  1  0  0  0  0
 12 19  1  0  0  0  0
 12  3  1  0  0  0  0
 13  1  1  0  0  0  0
 15 16  1  0  0  0  0
 15  4  1  0  0  0  0
 16 12  2  0  0  0  0
 17  9  2  0  0  0  0
 18  3  1  0  0  0  0
 18  7  2  0  0  0  0
 19 13  2  0  0  0  0
 20 21  2  0  0  0  0
 20 24  1  0  0  0  0
 21 23  1  0  0  0  0
 22 16  1  0  0  0  0
 23 25  2  0  0  0  0
 24 22  2  0  0  0  0
 25 22  1  0  0  0  0
 26 20  1  0  0  0  0
 27 17  1  0  0  0  0
 28 27  1  0  0  0  0
 29 31  1  0  0  0  0
 30 33  1  6  0  0  0
 30 29  1  0  0  0  0
 30 31  1  0  0  0  0
 31 28  1  6  0  0  0
 33 32  1  0  0  0  0
 34 33  2  0  0  0  0
M  END
>  <MODEL>
1

>  <REMARK>
 VINA RESULT:     -10.0      0.000      0.000
  Name = 
  5 active torsions:
  status: ('A' for Active; 'I' for Inactive)
    1  A    between atoms: N_3  and  N_13
    2  A    between atoms: N_3  and  C_29
    3  A    between atoms: C_12  and  C_28
    4  A    between atoms: N_13  and  C_33
    5  A    between atoms: C_20  and  C_22
                            x       y       z     vdW  Elec       q    Type
                         _______ _______ _______ _____ _____    ______ ____

>  <TORSDO>
F 5

$$$$
=
 OpenBabel11052414223D

 34 40  0  0  1  0  0  0  0  0999 V2000
  191.0690  176.7680  145.2570 N   0  0  0  0  0  0  0  0  0  0  0  0
  189.4030  177.2220  146.8950 C   0  0  2  0  0  3  0  0  0  0  0  0
  188.9130  177.3940  144.3810 C   0  0  0  0  0  0  0  0  0  0  0  0
  186.7690  178.0280  143.3090 C   0  0  0  0  0  0  0  0  0  0  0  0
  191.7330  176.4620  146.5080 C   0  0  1  0  0  3  0  0  0  0  0  0
  190.6860  176.7280  147.5960 C   0  0  2  0  0  3  0  0  0  0  0  0
  186.7530  177.6690  145.6990 C   0  0  0  0  0  3  0  0  0  0  0  0
  189.7280  177.1770  145.4410 C   0  0  0  0  0  0  0  0  0  0  0  0
  185.3910  177.9760  145.7390 C   0  0  0  0  0  3  0  0  0  0  0  0
  185.4070  178.3400  143.3500 C   0  0  0  0  0  3  0  0  0  0  0  0
  191.0380  175.3020  147.2060 C   0  0  0  0  0  2  0  0  0  0  0  0
  189.5170  177.3140  143.0100 C   0  0  0  0  0  0  0  0  0  0  0  0
  191.6800  176.6780  143.9700 C   0  0  0  0  0  3  0  0  0  0  0  0
  189.1680  178.6580  147.3300 C   0  0  0  0  0  1  0  0  0  0  0  0
  187.4310  178.0200  142.0790 O   0  0  0  0  0  0  0  0  0  0  0  0
  188.7690  177.6230  141.9210 C   0  0  0  0  0  0  0  0  0  0  0  0
  184.7140  178.3210  144.5630 C   0  0  0  0  0  0  0  0  0  0  0  0
  187.4610  177.7090  144.4880 C   0  0  0  0  0  0  0  0  0  0  0  0
  190.9520  176.9450  142.8880 C   0  0  0  0  0  3  0  0  0  0  0  0
  189.2160  178.4700  138.2640 C   0  0  0  0  0  0  0  0  0  0  0  0
  190.1260  177.4970  137.8470 C   0  0  0  0  0  3  0  0  0  0  0  0
  189.2830  177.5800  140.5280 C   0  0  0  0  0  0  0  0  0  0  0  0
  190.6100  176.5570  138.7620 C   0  0  0  0  0  3  0  0  0  0  0  0
  188.7910  178.5060  139.5950 C   0  0  0  0  0  3  0  0  0  0  0  0
  190.1860  176.5950  140.0930 C   0  0  0  0  0  3  0  0  0  0  0  0
  188.7290  179.4000  137.3550 O   0  0  0  0  0  1  0  0  0  0  0  0
  183.3240  178.6390  144.5810 N   0  0  0  0  0  2  0  0  0  0  0  0
  182.5670  178.6870  143.4020 N   0  0  0  0  0  2  0  0  0  0  0  0
  180.1950  178.3240  143.7220 C   0  0  0  0  0  2  0  0  0  0  0  0
  180.2970  179.3210  142.5810 C   0  0  1  0  0  3  0  0  0  0  0  0
  181.3130  179.3450  143.7340 C   0  0  2  0  0  3  0  0  0  0  0  0
  181.5150  179.3770  140.3940 O   0  0  0  0  0  0  0  0  0  0  0  0
  180.7820  178.6520  141.3260 C   0  0  0  0  0  0  0  0  0  0  0  0
  180.4850  177.4510  141.0870 O   0  0  0  0  0  1  0  0  0  0  0  0
  1  8  1  0  0  0  0
  1  5  1  0  0  0  0
  2 14  1  1  0  0  0
  2  6  1  0  0  0  0
  3 18  1  0  0  0  0
  3  8  2  0  0  0  0
  4 10  2  0  0  0  0
  4 18  1  0  0  0  0
  5 11  1  6  0  0  0
  5  6  1  0  0  0  0
  6 11  1  6  0  0  0
  7  9  1  0  0  0  0
  8  2  1  0  0  0  0
 10 17  1  0  0  0  0
 12  3  1  0  0  0  0
 13  1  1  0  0  0  0
 15  4  1  0  0  0  0
 16 15  1  0  0  0  0
 16 12  2  0  0  0  0
 17 27  1  0  0  0  0
 17  9  2  0  0  0  0
 18  7  2  0  0  0  0
 19 12  1  0  0  0  0
 19 13  2  0  0  0  0
 20 24  1  0  0  0  0
 21 20  2  0  0  0  0
 21 23  1  0  0  0  0
 22 16  1  0  0  0  0
 23 25  2  0  0  0  0
 24 22  2  0  0  0  0
 25 22  1  0  0  0  0
 26 20  1  0  0  0  0
 28 27  1  0  0  0  0
 29 31  1  0  0  0  0
 30 33  1  6  0  0  0
 30 29  1  0  0  0  0
 30 31  1  0  0  0  0
 31 28  1  6  0  0  0
 32 33  2  0  0  0  0
 34 33  1  0  0  0  0
M  END
>  <MODEL>
2

>  <REMARK>
 VINA RESULT:      -9.7      1.555      2.211
  Name = 
  5 active torsions:
  status: ('A' for Active; 'I' for Inactive)
    1  A    between atoms: N_3  and  N_13
    2  A    between atoms: N_3  and  C_29
    3  A    between atoms: C_12  and  C_28
    4  A    between atoms: N_13  and  C_33
    5  A    between atoms: C_20  and  C_22
                            x       y       z     vdW  Elec       q    Type
                         _______ _______ _______ _____ _____    ______ ____

>  <TORSDO>
F 5

$$$$
=
 OpenBabel11052414223D

 34 40  0  0  1  0  0  0  0  0999 V2000
  187.5610  177.9520  147.3970 N   0  0  0  0  0  0  0  0  0  0  0  0
  189.7850  177.3820  146.7690 C   0  0  2  0  0  3  0  0  0  0  0  0
  187.9460  177.7850  145.0240 C   0  0  0  0  0  0  0  0  0  0  0  0
  188.1610  177.6500  142.5570 C   0  0  0  0  0  0  0  0  0  0  0  0
  188.2700  177.9130  148.6600 C   0  0  1  0  0  3  0  0  0  0  0  0
  189.7180  177.5620  148.3010 C   0  0  2  0  0  3  0  0  0  0  0  0
  190.1930  177.5150  143.8590 C   0  0  0  0  0  3  0  0  0  0  0  0
  188.4050  177.6820  146.2950 C   0  0  0  0  0  0  0  0  0  0  0  0
  190.9380  177.3750  142.6860 C   0  0  0  0  0  3  0  0  0  0  0  0
  188.9070  177.5050  141.3840 C   0  0  0  0  0  3  0  0  0  0  0  0
  189.3510  178.9830  148.6940 C   0  0  0  0  0  2  0  0  0  0  0  0
  186.4860  178.0680  144.8310 C   0  0  0  0  0  0  0  0  0  0  0  0
  186.1670  178.2260  147.2560 C   0  0  0  0  0  3  0  0  0  0  0  0
  190.1240  175.9270  146.4940 C   0  0  0  0  0  1  0  0  0  0  0  0
  186.7790  177.8270  142.4700 O   0  0  0  0  0  0  0  0  0  0  0  0
  185.9580  178.0810  143.5810 C   0  0  0  0  0  0  0  0  0  0  0  0
  190.2950  177.3620  141.4430 C   0  0  0  0  0  0  0  0  0  0  0  0
  188.7960  177.6360  143.8100 C   0  0  0  0  0  0  0  0  0  0  0  0
  185.6390  178.2760  146.0350 C   0  0  0  0  0  3  0  0  0  0  0  0
  182.7500  178.5900  141.6470 C   0  0  0  0  0  0  0  0  0  0  0  0
  181.8490  178.9320  142.6580 C   0  0  0  0  0  3  0  0  0  0  0  0
  184.5240  178.3430  143.2940 C   0  0  0  0  0  0  0  0  0  0  0  0
  182.2810  178.9920  143.9860 C   0  0  0  0  0  3  0  0  0  0  0  0
  184.0810  178.3050  141.9630 C   0  0  0  0  0  3  0  0  0  0  0  0
  183.6120  178.7050  144.3010 C   0  0  0  0  0  3  0  0  0  0  0  0
  182.3230  178.5370  140.3270 O   0  0  0  0  0  1  0  0  0  0  0  0
  191.0370  177.2190  140.2330 N   0  0  0  0  0  2  0  0  0  0  0  0
  190.5580  177.7220  139.0150 N   0  0  0  0  0  2  0  0  0  0  0  0
  189.9930  176.9250  136.8010 C   0  0  0  0  0  2  0  0  0  0  0  0
  188.6880  176.9090  137.5760 C   0  0  1  0  0  3  0  0  0  0  0  0
  190.0190  176.5900  138.2770 C   0  0  2  0  0  3  0  0  0  0  0  0
  188.7760  179.3730  137.1380 O   0  0  0  0  0  0  0  0  0  0  0  0
  188.1780  178.3050  137.7960 C   0  0  0  0  0  0  0  0  0  0  0  0
  187.2430  178.5210  138.6130 O   0  0  0  0  0  1  0  0  0  0  0  0
  1  5  1  0  0  0  0
  2 14  1  1  0  0  0
  2  6  1  0  0  0  0
  3  8  2  0  0  0  0
  4 18  1  0  0  0  0
  5 11  1  6  0  0  0
  6  5  1  0  0  0  0
  6 11  1  6  0  0  0
  8  2  1  0  0  0  0
  8  1  1  0  0  0  0
  9  7  1  0  0  0  0
 10 17  1  0  0  0  0
 10  4  2  0  0  0  0
 12  3  1  0  0  0  0
 12 19  1  0  0  0  0
 13  1  1  0  0  0  0
 15  4  1  0  0  0  0
 15 16  1  0  0  0  0
 16 12  2  0  0  0  0
 17  9  2  0  0  0  0
 18  7  2  0  0  0  0
 18  3  1  0  0  0  0
 19 13  2  0  0  0  0
 20 24  2  0  0  0  0
 20 21  1  0  0  0  0
 21 23  2  0  0  0  0
 22 16  1  0  0  0  0
 22 25  2  0  0  0  0
 23 25  1  0  0  0  0
 24 22  1  0  0  0  0
 26 20  1  0  0  0  0
 27 17  1  0  0  0  0
 28 27  1  0  0  0  0
 29 30  1  0  0  0  0
 29 31  1  0  0  0  0
 30 33  1  1  0  0  0
 30 31  1  0  0  0  0
 31 28  1  1  0  0  0
 32 33  2  0  0  0  0
 33 34  1  0  0  0  0
M  END
>  <MODEL>
3

>  <REMARK>
 VINA RESULT:      -9.6      2.426      6.176
  Name = 
  5 active torsions:
  status: ('A' for Active; 'I' for Inactive)
    1  A    between atoms: N_3  and  N_13
    2  A    between atoms: N_3  and  C_29
    3  A    between atoms: C_12  and  C_28
    4  A    between atoms: N_13  and  C_33
    5  A    between atoms: C_20  and  C_22
                            x       y       z     vdW  Elec       q    Type
                         _______ _______ _______ _____ _____    ______ ____

>  <TORSDO>
F 5

$$$$
=
 OpenBabel11052414223D

 34 40  0  0  1  0  0  0  0  0999 V2000
  189.5330  176.8420  146.4050 N   0  0  0  0  0  0  0  0  0  0  0  0
  191.4030  176.3610  145.0130 C   0  0  2  0  0  3  0  0  0  0  0  0
  189.1760  177.1980  144.0480 C   0  0  0  0  0  0  0  0  0  0  0  0
  188.6330  177.6110  141.6640 C   0  0  0  0  0  0  0  0  0  0  0  0
  190.5790  176.5010  147.3480 C   0  0  1  0  0  3  0  0  0  0  0  0
  191.8130  176.1960  146.4910 C   0  0  2  0  0  3  0  0  0  0  0  0
  190.9370  177.1280  142.2110 C   0  0  0  0  0  3  0  0  0  0  0  0
  189.9800  176.8000  145.0630 C   0  0  0  0  0  0  0  0  0  0  0  0
  191.2830  177.2320  140.8620 C   0  0  0  0  0  3  0  0  0  0  0  0
  188.9790  177.7090  140.3130 C   0  0  0  0  0  3  0  0  0  0  0  0
  191.7200  177.5040  147.2590 C   0  0  0  0  0  2  0  0  0  0  0  0
  187.7600  177.5610  144.3810 C   0  0  0  0  0  0  0  0  0  0  0  0
  188.1940  177.1820  146.7630 C   0  0  0  0  0  3  0  0  0  0  0  0
  191.5020  174.9940  144.3560 C   0  0  0  0  0  1  0  0  0  0  0  0
  187.3120  177.8450  142.0490 O   0  0  0  0  0  0  0  0  0  0  0  0
  186.8870  177.8680  143.3880 C   0  0  0  0  0  0  0  0  0  0  0  0
  190.3000  177.5160  139.9050 C   0  0  0  0  0  0  0  0  0  0  0  0
  189.6080  177.2990  142.6260 C   0  0  0  0  0  0  0  0  0  0  0  0
  187.3340  177.5190  145.8050 C   0  0  0  0  0  3  0  0  0  0  0  0
  183.2510  178.6380  142.7010 C   0  0  0  0  0  0  0  0  0  0  0  0
  182.7860  179.0080  143.9640 C   0  0  0  0  0  3  0  0  0  0  0  0
  185.4660  178.2300  143.6220 C   0  0  0  0  0  0  0  0  0  0  0  0
  183.6570  179.0010  145.0570 C   0  0  0  0  0  3  0  0  0  0  0  0
  184.5850  178.2580  142.5300 C   0  0  0  0  0  3  0  0  0  0  0  0
  184.9900  178.6210  144.8860 C   0  0  0  0  0  3  0  0  0  0  0  0
  182.3880  178.6500  141.6130 O   0  0  0  0  0  1  0  0  0  0  0  0
  190.6310  177.6250  138.5220 N   0  0  0  0  0  2  0  0  0  0  0  0
  189.7440  178.1970  137.5990 N   0  0  0  0  0  2  0  0  0  0  0  0
  188.7590  177.6430  135.4580 C   0  0  0  0  0  2  0  0  0  0  0  0
  187.7110  177.2670  136.4900 C   0  0  1  0  0  3  0  0  0  0  0  0
  189.2070  177.1050  136.8010 C   0  0  2  0  0  3  0  0  0  0  0  0
  186.3550  178.4010  138.2640 O   0  0  0  0  0  1  0  0  0  0  0  0
  187.0730  178.4940  137.0780 C   0  0  0  0  0  0  0  0  0  0  0  0
  187.1400  179.5990  136.4750 O   0  0  0  0  0  0  0  0  0  0  0  0
  1 13  1  0  0  0  0
  1  5  1  0  0  0  0
  2 14  1  6  0  0  0
  2  8  1  0  0  0  0
  2  6  1  0  0  0  0
  3 12  1  0  0  0  0
  3  8  2  0  0  0  0
  4 15  1  0  0  0  0
  4 18  1  0  0  0  0
  5 11  1  1  0  0  0
  6 11  1  1  0  0  0
  6  5  1  0  0  0  0
  7 18  2  0  0  0  0
  8  1  1  0  0  0  0
  9  7  1  0  0  0  0
 10  4  2  0  0  0  0
 12 19  1  0  0  0  0
 15 16  1  0  0  0  0
 16 22  1  0  0  0  0
 16 12  2  0  0  0  0
 17 10  1  0  0  0  0
 17  9  2  0  0  0  0
 18  3  1  0  0  0  0
 19 13  2  0  0  0  0
 20 21  1  0  0  0  0
 21 23  2  0  0  0  0
 22 25  2  0  0  0  0
 24 20  2  0  0  0  0
 24 22  1  0  0  0  0
 25 23  1  0  0  0  0
 26 20  1  0  0  0  0
 27 17  1  0  0  0  0
 28 27  1  0  0  0  0
 29 30  1  0  0  0  0
 29 31  1  0  0  0  0
 30 31  1  0  0  0  0
 30 33  1  1  0  0  0
 31 28  1  1  0  0  0
 33 32  1  0  0  0  0
 34 33  2  0  0  0  0
M  END
>  <MODEL>
4

>  <REMARK>
 VINA RESULT:      -9.6      2.925      6.234
  Name = 
  5 active torsions:
  status: ('A' for Active; 'I' for Inactive)
    1  A    between atoms: N_3  and  N_13
    2  A    between atoms: N_3  and  C_29
    3  A    between atoms: C_12  and  C_28
    4  A    between atoms: N_13  and  C_33
    5  A    between atoms: C_20  and  C_22
                            x       y       z     vdW  Elec       q    Type
                         _______ _______ _______ _____ _____    ______ ____

>  <TORSDO>
F 5

$$$$
=
 OpenBabel11052414223D

 34 40  0  0  1  0  0  0  0  0999 V2000
  189.5080  176.8720  146.3640 N   0  0  0  0  0  0  0  0  0  0  0  0
  191.3700  176.3670  144.9690 C   0  0  2  0  0  3  0  0  0  0  0  0
  189.1400  177.1950  144.0040 C   0  0  0  0  0  0  0  0  0  0  0  0
  188.5860  177.5740  141.6170 C   0  0  0  0  0  0  0  0  0  0  0  0
  190.5580  176.5430  147.3060 C   0  0  1  0  0  3  0  0  0  0  0  0
  191.7870  176.2240  146.4480 C   0  0  2  0  0  3  0  0  0  0  0  0
  190.8920  177.0950  142.1590 C   0  0  0  0  0  3  0  0  0  0  0  0
  189.9480  176.8100  145.0210 C   0  0  0  0  0  0  0  0  0  0  0  0
  191.2300  177.1790  140.8070 C   0  0  0  0  0  3  0  0  0  0  0  0
  188.9240  177.6530  140.2630 C   0  0  0  0  0  3  0  0  0  0  0  0
  191.7000  177.5420  147.1980 C   0  0  0  0  0  2  0  0  0  0  0  0
  187.7260  177.5640  144.3390 C   0  0  0  0  0  0  0  0  0  0  0  0
  188.1720  177.2190  146.7240 C   0  0  0  0  0  3  0  0  0  0  0  0
  191.4630  174.9920  144.3320 C   0  0  0  0  0  1  0  0  0  0  0  0
  187.2660  177.8160  142.0060 O   0  0  0  0  0  0  0  0  0  0  0  0
  186.8490  177.8590  143.3460 C   0  0  0  0  0  0  0  0  0  0  0  0
  190.2440  177.4510  139.8520 C   0  0  0  0  0  0  0  0  0  0  0  0
  189.5640  177.2740  142.5780 C   0  0  0  0  0  0  0  0  0  0  0  0
  187.3070  177.5440  145.7650 C   0  0  0  0  0  3  0  0  0  0  0  0
  183.2140  178.6400  142.6640 C   0  0  0  0  0  0  0  0  0  0  0  0
  182.7520  179.0150  143.9280 C   0  0  0  0  0  3  0  0  0  0  0  0
  185.4290  178.2270  143.5820 C   0  0  0  0  0  0  0  0  0  0  0  0
  183.6260  179.0090  145.0190 C   0  0  0  0  0  3  0  0  0  0  0  0
  184.5460  178.2560  142.4920 C   0  0  0  0  0  3  0  0  0  0  0  0
  184.9580  178.6230  144.8460 C   0  0  0  0  0  3  0  0  0  0  0  0
  182.3490  178.6530  141.5780 O   0  0  0  0  0  1  0  0  0  0  0  0
  190.5670  177.5400  138.4650 N   0  0  0  0  0  2  0  0  0  0  0  0
  191.7670  177.0240  137.9580 N   0  0  0  0  0  2  0  0  0  0  0  0
  191.9210  174.6340  137.6030 C   0  0  0  0  0  2  0  0  0  0  0  0
  192.6320  175.2600  136.4180 C   0  0  1  0  0  3  0  0  0  0  0  0
  191.4100  175.9460  137.0480 C   0  0  2  0  0  3  0  0  0  0  0  0
  194.5860  175.3710  137.9810 O   0  0  0  0  0  1  0  0  0  0  0  0
  193.9590  175.8330  136.8300 C   0  0  0  0  0  0  0  0  0  0  0  0
  194.4830  176.7690  136.1680 O   0  0  0  0  0  0  0  0  0  0  0  0
  1 13  1  0  0  0  0
  1  5  1  0  0  0  0
  2 14  1  6  0  0  0
  2  8  1  0  0  0  0
  2  6  1  0  0  0  0
  3 12  1  0  0  0  0
  3  8  2  0  0  0  0
  4 15  1  0  0  0  0
  4 18  1  0  0  0  0
  5 11  1  1  0  0  0
  6 11  1  1  0  0  0
  6  5  1  0  0  0  0
  7 18  2  0  0  0  0
  8  1  1  0  0  0  0
  9  7  1  0  0  0  0
 10  4  2  0  0  0  0
 12 19  1  0  0  0  0
 15 16  1  0  0  0  0
 16 22  1  0  0  0  0
 16 12  2  0  0  0  0
 17 10  1  0  0  0  0
 17  9  2  0  0  0  0
 18  3  1  0  0  0  0
 19 13  2  0  0  0  0
 20 21  1  0  0  0  0
 21 23  2  0  0  0  0
 22 25  2  0  0  0  0
 24 20  2  0  0  0  0
 24 22  1  0  0  0  0
 25 23  1  0  0  0  0
 26 20  1  0  0  0  0
 27 17  1  0  0  0  0
 28 27  1  0  0  0  0
 30 33  1  1  0  0  0
 30 31  1  0  0  0  0
 30 29  1  0  0  0  0
 31 29  1  0  0  0  0
 31 28  1  1  0  0  0
 33 32  1  0  0  0  0
 34 33  2  0  0  0  0
M  END
>  <MODEL>
5

>  <REMARK>
 VINA RESULT:      -9.5      3.137      7.658
  Name = 
  5 active torsions:
  status: ('A' for Active; 'I' for Inactive)
    1  A    between atoms: N_3  and  N_13
    2  A    between atoms: N_3  and  C_29
    3  A    between atoms: C_12  and  C_28
    4  A    between atoms: N_13  and  C_33
    5  A    between atoms: C_20  and  C_22
                            x       y       z     vdW  Elec       q    Type
                         _______ _______ _______ _____ _____    ______ ____

>  <TORSDO>
F 5

$$$$
=
 OpenBabel11052414223D

 34 40  0  0  1  0  0  0  0  0999 V2000
  181.6080  178.9580  142.0180 N   0  0  0  0  0  0  0  0  0  0  0  0
  181.9830  179.0490  139.6690 C   0  0  2  0  0  3  0  0  0  0  0  0
  183.9050  178.7000  141.3350 C   0  0  0  0  0  0  0  0  0  0  0  0
  186.3130  178.4260  140.8130 C   0  0  0  0  0  0  0  0  0  0  0  0
  180.2730  179.0680  141.4660 C   0  0  1  0  0  3  0  0  0  0  0  0
  180.4660  179.1150  139.9460 C   0  0  2  0  0  3  0  0  0  0  0  0
  184.7660  178.4150  138.9560 C   0  0  0  0  0  3  0  0  0  0  0  0
  182.6060  178.9160  141.0160 C   0  0  0  0  0  0  0  0  0  0  0  0
  185.8290  178.2500  138.0670 C   0  0  0  0  0  3  0  0  0  0  0  0
  187.3780  178.2670  139.9210 C   0  0  0  0  0  3  0  0  0  0  0  0
  179.9510  177.8500  140.6120 C   0  0  0  0  0  2  0  0  0  0  0  0
  184.2640  178.6390  142.7900 C   0  0  0  0  0  0  0  0  0  0  0  0
  181.9090  178.9020  143.4120 C   0  0  0  0  0  3  0  0  0  0  0  0
  182.3900  180.3690  139.0370 C   0  0  0  0  0  1  0  0  0  0  0  0
  186.5720  178.4700  142.1850 O   0  0  0  0  0  0  0  0  0  0  0  0
  185.5650  178.5260  143.1620 C   0  0  0  0  0  0  0  0  0  0  0  0
  187.1430  178.1840  138.5470 C   0  0  0  0  0  0  0  0  0  0  0  0
  184.9950  178.5220  140.3370 C   0  0  0  0  0  0  0  0  0  0  0  0
  183.1760  178.7580  143.7950 C   0  0  0  0  0  3  0  0  0  0  0  0
  187.6380  177.6680  146.2040 C   0  0  0  0  0  0  0  0  0  0  0  0
  186.8810  178.2180  147.2400 C   0  0  0  0  0  3  0  0  0  0  0  0
  186.0150  178.4670  144.5760 C   0  0  0  0  0  0  0  0  0  0  0  0
  185.6860  178.8840  146.9520 C   0  0  0  0  0  3  0  0  0  0  0  0
  187.2040  177.7850  144.8810 C   0  0  0  0  0  3  0  0  0  0  0  0
  185.2530  179.0020  145.6290 C   0  0  0  0  0  3  0  0  0  0  0  0
  188.8220  177.0010  146.4890 O   0  0  0  0  0  1  0  0  0  0  0  0
  188.2440  178.0180  137.6560 N   0  0  0  0  0  2  0  0  0  0  0  0
  189.5680  178.1800  138.0880 N   0  0  0  0  0  2  0  0  0  0  0  0
  189.8790  175.7830  137.9690 C   0  0  0  0  0  2  0  0  0  0  0  0
  191.2080  176.3350  138.4530 C   0  0  1  0  0  3  0  0  0  0  0  0
  190.3480  177.1280  137.4560 C   0  0  2  0  0  3  0  0  0  0  0  0
  192.0730  177.6530  140.3980 O   0  0  0  0  0  0  0  0  0  0  0  0
  191.1090  176.7980  139.8790 C   0  0  0  0  0  0  0  0  0  0  0  0
  190.1850  176.3750  140.6250 O   0  0  0  0  0  1  0  0  0  0  0  0
  1 13  1  0  0  0  0
  2 14  1  1  0  0  0
  2  6  1  0  0  0  0
  2  8  1  0  0  0  0
  3 12  1  0  0  0  0
  4 15  1  0  0  0  0
  5 11  1  6  0  0  0
  5  1  1  0  0  0  0
  6 11  1  6  0  0  0
  6  5  1  0  0  0  0
  7 18  2  0  0  0  0
  8  3  2  0  0  0  0
  8  1  1  0  0  0  0
  9 17  2  0  0  0  0
  9  7  1  0  0  0  0
 10  4  2  0  0  0  0
 12 16  2  0  0  0  0
 12 19  1  0  0  0  0
 13 19  2  0  0  0  0
 15 16  1  0  0  0  0
 16 22  1  0  0  0  0
 17 10  1  0  0  0  0
 18  4  1  0  0  0  0
 18  3  1  0  0  0  0
 20 26  1  0  0  0  0
 20 21  1  0  0  0  0
 22 24  1  0  0  0  0
 22 25  2  0  0  0  0
 23 21  2  0  0  0  0
 24 20  2  0  0  0  0
 25 23  1  0  0  0  0
 27 28  1  0  0  0  0
 27 17  1  0  0  0  0
 29 30  1  0  0  0  0
 30 33  1  1  0  0  0
 31 29  1  0  0  0  0
 31 28  1  1  0  0  0
 31 30  1  0  0  0  0
 33 32  2  0  0  0  0
 33 34  1  0  0  0  0
M  END
>  <MODEL>
6

>  <REMARK>
 VINA RESULT:      -9.4      2.749      7.962
  Name = 
  5 active torsions:
  status: ('A' for Active; 'I' for Inactive)
    1  A    between atoms: N_3  and  N_13
    2  A    between atoms: N_3  and  C_29
    3  A    between atoms: C_12  and  C_28
    4  A    between atoms: N_13  and  C_33
    5  A    between atoms: C_20  and  C_22
                            x       y       z     vdW  Elec       q    Type
                         _______ _______ _______ _____ _____    ______ ____

>  <TORSDO>
F 5

$$$$
=
 OpenBabel11052414223D

 34 40  0  0  1  0  0  0  0  0999 V2000
  189.3900  176.8420  146.0960 N   0  0  0  0  0  0  0  0  0  0  0  0
  191.2130  176.4510  144.6170 C   0  0  2  0  0  3  0  0  0  0  0  0
  188.9400  177.2910  143.7710 C   0  0  0  0  0  0  0  0  0  0  0  0
  188.3020  177.7940  141.4290 C   0  0  0  0  0  0  0  0  0  0  0  0
  190.4750  176.4790  146.9850 C   0  0  1  0  0  3  0  0  0  0  0  0
  191.6810  176.2310  146.0720 C   0  0  2  0  0  3  0  0  0  0  0  0
  190.6320  177.3270  141.8700 C   0  0  0  0  0  3  0  0  0  0  0  0
  189.7870  176.8630  144.7390 C   0  0  0  0  0  0  0  0  0  0  0  0
  190.9250  177.4940  140.5150 C   0  0  0  0  0  3  0  0  0  0  0  0
  188.5950  177.9550  140.0710 C   0  0  0  0  0  3  0  0  0  0  0  0
  191.5960  177.5030  146.8980 C   0  0  0  0  0  2  0  0  0  0  0  0
  187.5320  177.6150  144.1720 C   0  0  0  0  0  0  0  0  0  0  0  0
  188.0600  177.1430  146.5180 C   0  0  0  0  0  3  0  0  0  0  0  0
  191.3090  175.1150  143.8990 C   0  0  0  0  0  1  0  0  0  0  0  0
  186.9920  177.9890  141.8720 O   0  0  0  0  0  0  0  0  0  0  0  0
  186.6180  177.9490  143.2260 C   0  0  0  0  0  0  0  0  0  0  0  0
  189.9040  177.8020  139.6080 C   0  0  0  0  0  0  0  0  0  0  0  0
  189.3160  177.4580  142.3400 C   0  0  0  0  0  0  0  0  0  0  0  0
  187.1600  177.5060  145.6070 C   0  0  0  0  0  3  0  0  0  0  0  0
  182.9360  178.6340  142.7110 C   0  0  0  0  0  0  0  0  0  0  0  0
  182.5220  178.9910  143.9960 C   0  0  0  0  0  3  0  0  0  0  0  0
  185.2010  178.2770  143.5270 C   0  0  0  0  0  0  0  0  0  0  0  0
  183.4430  179.0030  145.0470 C   0  0  0  0  0  3  0  0  0  0  0  0
  184.2690  178.2870  142.4770 C   0  0  0  0  0  3  0  0  0  0  0  0
  184.7760  178.6540  144.8120 C   0  0  0  0  0  3  0  0  0  0  0  0
  182.0240  178.6280  141.6650 O   0  0  0  0  0  1  0  0  0  0  0  0
  190.1810  177.9740  138.2190 N   0  0  0  0  0  2  0  0  0  0  0  0
  190.6770  176.9240  137.4340 N   0  0  0  0  0  2  0  0  0  0  0  0
  188.6110  175.8520  136.7690 C   0  0  0  0  0  2  0  0  0  0  0  0
  189.6680  175.3000  135.8300 C   0  0  1  0  0  3  0  0  0  0  0  0
  189.7470  176.7520  136.3290 C   0  0  2  0  0  3  0  0  0  0  0  0
  191.8250  174.0420  136.0250 O   0  0  0  0  0  0  0  0  0  0  0  0
  190.5720  174.3370  136.5480 C   0  0  0  0  0  0  0  0  0  0  0  0
  190.1800  173.7530  137.5940 O   0  0  0  0  0  1  0  0  0  0  0  0
  1 13  1  0  0  0  0
  1  5  1  0  0  0  0
  2 14  1  6  0  0  0
  2  8  1  0  0  0  0
  2  6  1  0  0  0  0
  3 12  1  0  0  0  0
  3  8  2  0  0  0  0
  4 15  1  0  0  0  0
  4 18  1  0  0  0  0
  5 11  1  1  0  0  0
  6 11  1  1  0  0  0
  6  5  1  0  0  0  0
  7 18  2  0  0  0  0
  8  1  1  0  0  0  0
  9  7  1  0  0  0  0
 10  4  2  0  0  0  0
 12 19  1  0  0  0  0
 15 16  1  0  0  0  0
 16 22  1  0  0  0  0
 16 12  2  0  0  0  0
 17 10  1  0  0  0  0
 17  9  2  0  0  0  0
 18  3  1  0  0  0  0
 19 13  2  0  0  0  0
 20 21  1  0  0  0  0
 21 23  2  0  0  0  0
 22 25  2  0  0  0  0
 24 20  2  0  0  0  0
 24 22  1  0  0  0  0
 25 23  1  0  0  0  0
 26 20  1  0  0  0  0
 27 17  1  0  0  0  0
 28 27  1  0  0  0  0
 30 31  1  0  0  0  0
 30 33  1  1  0  0  0
 30 29  1  0  0  0  0
 31 29  1  0  0  0  0
 31 28  1  1  0  0  0
 32 33  2  0  0  0  0
 33 34  1  0  0  0  0
M  END
>  <MODEL>
7

>  <REMARK>
 VINA RESULT:      -9.3      3.029      6.950
  Name = 
  5 active torsions:
  status: ('A' for Active; 'I' for Inactive)
    1  A    between atoms: N_3  and  N_13
    2  A    between atoms: N_3  and  C_29
    3  A    between atoms: C_12  and  C_28
    4  A    between atoms: N_13  and  C_33
    5  A    between atoms: C_20  and  C_22
                            x       y       z     vdW  Elec       q    Type
                         _______ _______ _______ _____ _____    ______ ____

>  <TORSDO>
F 5

$$$$
=
 OpenBabel11052414223D

 34 40  0  0  1  0  0  0  0  0999 V2000
  181.5770  178.9770  142.0000 N   0  0  0  0  0  0  0  0  0  0  0  0
  181.9320  179.0720  139.6490 C   0  0  2  0  0  3  0  0  0  0  0  0
  183.8660  178.7060  141.2970 C   0  0  0  0  0  0  0  0  0  0  0  0
  186.2680  178.4180  140.7520 C   0  0  0  0  0  0  0  0  0  0  0  0
  180.2380  179.0960  141.4600 C   0  0  1  0  0  3  0  0  0  0  0  0
  180.4180  179.1460  139.9390 C   0  0  2  0  0  3  0  0  0  0  0  0
  184.7040  178.4210  138.9100 C   0  0  0  0  0  3  0  0  0  0  0  0
  182.5660  178.9310  140.9900 C   0  0  0  0  0  0  0  0  0  0  0  0
  185.7590  178.2530  138.0100 C   0  0  0  0  0  3  0  0  0  0  0  0
  187.3240  178.2540  139.8510 C   0  0  0  0  0  3  0  0  0  0  0  0
  179.9010  177.8830  140.6060 C   0  0  0  0  0  2  0  0  0  0  0  0
  184.2380  178.6380  142.7480 C   0  0  0  0  0  0  0  0  0  0  0  0
  181.8900  178.9150  143.3910 C   0  0  0  0  0  3  0  0  0  0  0  0
  182.3420  180.3910  139.0160 C   0  0  0  0  0  1  0  0  0  0  0  0
  186.5390  178.4570  142.1220 O   0  0  0  0  0  0  0  0  0  0  0  0
  185.5410  178.5170  143.1080 C   0  0  0  0  0  0  0  0  0  0  0  0
  187.0760  178.1760  138.4790 C   0  0  0  0  0  0  0  0  0  0  0  0
  184.9470  178.5230  140.2880 C   0  0  0  0  0  0  0  0  0  0  0  0
  183.1590  178.7620  143.7630 C   0  0  0  0  0  3  0  0  0  0  0  0
  187.6280  177.6270  146.1310 C   0  0  0  0  0  0  0  0  0  0  0  0
  186.8890  178.1890  147.1740 C   0  0  0  0  0  3  0  0  0  0  0  0
  186.0030  178.4500  144.5180 C   0  0  0  0  0  0  0  0  0  0  0  0
  185.7020  178.8730  146.8970 C   0  0  0  0  0  3  0  0  0  0  0  0
  187.1840  177.7510  144.8120 C   0  0  0  0  0  3  0  0  0  0  0  0
  185.2590  178.9970  145.5780 C   0  0  0  0  0  3  0  0  0  0  0  0
  188.8040  176.9410  146.4060 O   0  0  0  0  0  1  0  0  0  0  0  0
  188.1690  178.0060  137.5780 N   0  0  0  0  0  2  0  0  0  0  0  0
  188.5690  176.7350  137.1430 N   0  0  0  0  0  2  0  0  0  0  0  0
  189.9250  175.6650  135.4470 C   0  0  0  0  0  2  0  0  0  0  0  0
  190.8920  176.0320  136.5590 C   0  0  1  0  0  3  0  0  0  0  0  0
  189.6900  176.9350  136.2370 C   0  0  2  0  0  3  0  0  0  0  0  0
  190.9300  175.6270  139.0290 O   0  0  0  0  0  1  0  0  0  0  0  0
  190.7060  175.1350  137.7500 C   0  0  0  0  0  0  0  0  0  0  0  0
  190.3990  173.9230  137.5930 O   0  0  0  0  0  0  0  0  0  0  0  0
  1 13  1  0  0  0  0
  2 14  1  1  0  0  0
  2  6  1  0  0  0  0
  2  8  1  0  0  0  0
  3 12  1  0  0  0  0
  4 15  1  0  0  0  0
  5 11  1  6  0  0  0
  5  1  1  0  0  0  0
  6 11  1  6  0  0  0
  6  5  1  0  0  0  0
  7 18  2  0  0  0  0
  8  3  2  0  0  0  0
  8  1  1  0  0  0  0
  9 17  2  0  0  0  0
  9  7  1  0  0  0  0
 10  4  2  0  0  0  0
 12 16  2  0  0  0  0
 12 19  1  0  0  0  0
 13 19  2  0  0  0  0
 15 16  1  0  0  0  0
 16 22  1  0  0  0  0
 17 10  1  0  0  0  0
 18  4  1  0  0  0  0
 18  3  1  0  0  0  0
 20 26  1  0  0  0  0
 20 21  1  0  0  0  0
 22 24  1  0  0  0  0
 22 25  2  0  0  0  0
 23 21  2  0  0  0  0
 24 20  2  0  0  0  0
 25 23  1  0  0  0  0
 27 17  1  0  0  0  0
 28 27  1  0  0  0  0
 29 31  1  0  0  0  0
 29 30  1  0  0  0  0
 30 33  1  1  0  0  0
 31 30  1  0  0  0  0
 31 28  1  1  0  0  0
 33 32  1  0  0  0  0
 34 33  2  0  0  0  0
M  END
>  <MODEL>
8

>  <REMARK>
 VINA RESULT:      -8.9      3.005      8.025
  Name = 
  5 active torsions:
  status: ('A' for Active; 'I' for Inactive)
    1  A    between atoms: N_3  and  N_13
    2  A    between atoms: N_3  and  C_29
    3  A    between atoms: C_12  and  C_28
    4  A    between atoms: N_13  and  C_33
    5  A    between atoms: C_20  and  C_22
                            x       y       z     vdW  Elec       q    Type
                         _______ _______ _______ _____ _____    ______ ____

>  <TORSDO>
F 5

$$$$
=
 OpenBabel11052414223D

 34 40  0  0  1  0  0  0  0  0999 V2000
  180.9300  179.2410  140.7940 N   0  0  0  0  0  0  0  0  0  0  0  0
  180.5380  179.1620  143.1410 C   0  0  2  0  0  3  0  0  0  0  0  0
  182.8870  178.8650  142.1500 C   0  0  0  0  0  0  0  0  0  0  0  0
  184.9990  178.4650  143.3870 C   0  0  0  0  0  0  0  0  0  0  0  0
  179.5180  179.5450  140.9120 C   0  0  1  0  0  3  0  0  0  0  0  0
  179.2230  179.5190  142.4160 C   0  0  2  0  0  3  0  0  0  0  0  0
  183.0350  179.0090  144.6870 C   0  0  0  0  0  3  0  0  0  0  0  0
  181.5480  179.0460  142.0520 C   0  0  0  0  0  0  0  0  0  0  0  0
  183.7820  178.9060  145.8630 C   0  0  0  0  0  3  0  0  0  0  0  0
  185.7440  178.3560  144.5650 C   0  0  0  0  0  3  0  0  0  0  0  0
  179.3180  180.8440  141.6780 C   0  0  0  0  0  2  0  0  0  0  0  0
  183.6700  178.7500  140.8760 C   0  0  0  0  0  0  0  0  0  0  0  0
  181.6400  179.1400  139.5600 C   0  0  0  0  0  3  0  0  0  0  0  0
  180.3380  177.8130  143.8110 C   0  0  0  0  0  1  0  0  0  0  0  0
  185.6340  178.2810  142.1570 O   0  0  0  0  0  0  0  0  0  0  0  0
  184.9970  178.4670  140.9200 C   0  0  0  0  0  0  0  0  0  0  0  0
  185.1400  178.5710  145.8050 C   0  0  0  0  0  0  0  0  0  0  0  0
  183.6290  178.7730  143.4380 C   0  0  0  0  0  0  0  0  0  0  0  0
  182.9490  178.8970  139.5850 C   0  0  0  0  0  3  0  0  0  0  0  0
  188.0820  178.2400  138.7480 C   0  0  0  0  0  0  0  0  0  0  0  0
  187.5340  178.1700  137.4660 C   0  0  0  0  0  3  0  0  0  0  0  0
  185.8500  178.3260  139.7110 C   0  0  0  0  0  0  0  0  0  0  0  0
  186.1460  178.1890  137.2990 C   0  0  0  0  0  3  0  0  0  0  0  0
  187.2450  178.3250  139.8630 C   0  0  0  0  0  3  0  0  0  0  0  0
  185.3100  178.2730  138.4150 C   0  0  0  0  0  3  0  0  0  0  0  0
  189.4610  178.2270  138.9140 O   0  0  0  0  0  1  0  0  0  0  0  0
  185.9210  178.4580  146.9940 N   0  0  0  0  0  2  0  0  0  0  0  0
  187.3140  178.6090  146.9730 N   0  0  0  0  0  2  0  0  0  0  0  0
  189.2950  177.9130  148.1770 C   0  0  0  0  0  2  0  0  0  0  0  0
  189.0230  176.8020  147.1790 C   0  0  1  0  0  3  0  0  0  0  0  0
  187.8620  177.5700  147.8310 C   0  0  2  0  0  3  0  0  0  0  0  0
  188.7210  176.6560  144.6980 O   0  0  0  0  0  0  0  0  0  0  0  0
  189.3640  177.2400  145.7830 C   0  0  0  0  0  0  0  0  0  0  0  0
  190.2670  178.0960  145.5850 O   0  0  0  0  0  1  0  0  0  0  0  0
  1  5  1  0  0  0  0
  1  8  1  0  0  0  0
  2 14  1  6  0  0  0
  3 18  1  0  0  0  0
  4 18  2  0  0  0  0
  4 10  1  0  0  0  0
  5 11  1  1  0  0  0
  5  6  1  0  0  0  0
  6 11  1  1  0  0  0
  6  2  1  0  0  0  0
  7  9  2  0  0  0  0
  8  3  2  0  0  0  0
  8  2  1  0  0  0  0
 10 17  2  0  0  0  0
 12 16  2  0  0  0  0
 12  3  1  0  0  0  0
 13 19  2  0  0  0  0
 13  1  1  0  0  0  0
 15  4  1  0  0  0  0
 16 15  1  0  0  0  0
 17  9  1  0  0  0  0
 17 27  1  0  0  0  0
 18  7  1  0  0  0  0
 19 12  1  0  0  0  0
 20 26  1  0  0  0  0
 20 24  1  0  0  0  0
 21 20  2  0  0  0  0
 22 24  2  0  0  0  0
 22 16  1  0  0  0  0
 23 21  1  0  0  0  0
 23 25  2  0  0  0  0
 25 22  1  0  0  0  0
 28 27  1  0  0  0  0
 30 33  1  6  0  0  0
 30 31  1  0  0  0  0
 30 29  1  0  0  0  0
 31 28  1  6  0  0  0
 31 29  1  0  0  0  0
 32 33  2  0  0  0  0
 34 33  1  0  0  0  0
M  END
>  <MODEL>
9

>  <REMARK>
 VINA RESULT:      -8.9      2.007      7.242
  Name = 
  5 active torsions:
  status: ('A' for Active; 'I' for Inactive)
    1  A    between atoms: N_3  and  N_13
    2  A    between atoms: N_3  and  C_29
    3  A    between atoms: C_12  and  C_28
    4  A    between atoms: N_13  and  C_33
    5  A    between atoms: C_20  and  C_22
                            x       y       z     vdW  Elec       q    Type
                         _______ _______ _______ _____ _____    ______ ____

>  <TORSDO>
F 5

$$$$
