=
 OpenBabel11052413353D

 28 31  0  0  1  0  0  0  0  0999 V2000
  179.5740  177.4220  142.2990 O   0  0  0  0  0  1  0  0  0  0  0  0
  182.3860  178.4150  142.7480 C   0  0  2  0  0  3  0  0  0  0  0  0
  180.8700  178.1790  144.5940 F   0  0  0  0  0  0  0  0  0  0  0  0
  180.1290  179.5060  141.1560 C   0  0  1  0  0  0  0  0  0  0  0  0
  182.6460  179.2200  141.4770 C   0  0  0  0  0  2  0  0  0  0  0  0
  180.2040  180.8740  141.4270 O   0  0  0  0  0  1  0  0  0  0  0  0
  179.8950  178.7690  142.4930 C   0  0  2  0  0  3  0  0  0  0  0  0
  178.9310  179.3050  140.2370 C   0  0  0  0  0  1  0  0  0  0  0  0
  181.1010  178.8960  143.4320 C   0  0  2  0  0  3  0  0  0  0  0  0
  181.4720  179.0760  140.4950 C   0  0  1  0  0  3  0  0  0  0  0  0
  181.5210  177.8310  139.5340 C   0  0  1  0  0  0  0  0  0  0  0  0
  182.9190  179.3120  137.9000 C   0  0  0  0  0  2  0  0  0  0  0  0
  181.8620  178.2410  138.0800 C   0  0  0  0  0  0  0  0  0  0  0  0
  183.1720  175.9680  137.7040 C   0  0  1  0  0  3  0  0  0  0  0  0
  181.4600  179.6090  137.5710 C   0  0  0  0  0  2  0  0  0  0  0  0
  182.6590  175.5850  139.0840 C   0  0  0  0  0  2  0  0  0  0  0  0
  182.5850  176.8130  139.9880 C   0  0  0  0  0  2  0  0  0  0  0  0
  183.5440  174.4640  136.7630 S   0  0  0  0  0  1  0  0  0  0  0  0
  180.2880  177.1750  139.5280 O   0  0  0  0  0  1  0  0  0  0  0  0
  181.9230  176.9430  136.8040 S   0  0  0  0  0  0  0  0  0  0  0  0
  183.4200  178.9060  144.9980 C   0  0  0  0  0  3  0  0  0  0  0  0
  184.8470  178.1550  143.1870 C   0  0  0  0  0  0  0  0  0  0  0  0
  185.7980  178.6400  145.3610 C   0  0  0  0  0  0  0  0  0  0  0  0
  183.5700  178.4910  143.6660 C   0  0  0  0  0  0  0  0  0  0  0  0
  185.9550  178.2290  144.0340 C   0  0  0  0  0  3  0  0  0  0  0  0
  185.0180  177.7550  141.9010 F   0  0  0  0  0  0  0  0  0  0  0  0
  186.8750  178.7110  146.1800 F   0  0  0  0  0  0  0  0  0  0  0  0
  184.5310  178.9790  145.8430 C   0  0  0  0  0  3  0  0  0  0  0  0
  2  9  1  0  0  0  0
  2 24  1  1  0  0  0
  4  8  1  6  0  0  0
  4  6  1  0  0  0  0
  4  7  1  0  0  0  0
  5  2  1  0  0  0  0
  7  1  1  6  0  0  0
  7  9  1  0  0  0  0
  9  3  1  1  0  0  0
 10  4  1  0  0  0  0
 10  5  1  1  0  0  0
 11 19  1  1  0  0  0
 11 17  1  0  0  0  0
 11 10  1  0  0  0  0
 12 13  1  0  0  0  0
 13 11  1  0  0  0  0
 14 18  1  6  0  0  0
 14 16  1  0  0  0  0
 15 12  1  0  0  0  0
 15 13  1  0  0  0  0
 16 17  1  0  0  0  0
 20 14  1  0  0  0  0
 20 13  1  0  0  0  0
 21 28  1  0  0  0  0
 22 24  1  0  0  0  0
 22 25  2  0  0  0  0
 23 28  2  0  0  0  0
 23 27  1  0  0  0  0
 24 21  2  0  0  0  0
 25 23  1  0  0  0  0
 26 22  1  0  0  0  0
M  END
>  <MODEL>
1

>  <REMARK>
 VINA RESULT:      -7.1      0.000      0.000
  Name = 
  2 active torsions:
  status: ('A' for Active; 'I' for Inactive)
    1  A    between atoms: C_1  and  C_27
    2  A    between atoms: C_10  and  C_13
                            x       y       z     vdW  Elec       q    Type
                         _______ _______ _______ _____ _____    ______ ____

>  <TORSDO>
F 2

$$$$
=
 OpenBabel11052413353D

 28 31  0  0  1  0  0  0  0  0999 V2000
  187.6620  179.4390  136.6630 O   0  0  0  0  0  1  0  0  0  0  0  0
  188.3860  177.6050  138.9450 C   0  0  2  0  0  3  0  0  0  0  0  0
  189.4300  179.7560  138.7350 F   0  0  0  0  0  0  0  0  0  0  0  0
  188.6370  177.3010  136.0020 C   0  0  1  0  0  0  0  0  0  0  0  0
  188.2830  176.2290  138.2920 C   0  0  0  0  0  2  0  0  0  0  0  0
  189.8930  176.7070  135.8670 O   0  0  0  0  0  1  0  0  0  0  0  0
  188.8290  178.6680  136.6940 C   0  0  2  0  0  3  0  0  0  0  0  0
  188.0930  177.5050  134.5940 C   0  0  0  0  0  1  0  0  0  0  0  0
  189.3220  178.5120  138.1370 C   0  0  2  0  0  3  0  0  0  0  0  0
  187.7480  176.3490  136.8560 C   0  0  1  0  0  3  0  0  0  0  0  0
  186.1820  176.3720  136.7000 C   0  0  1  0  0  0  0  0  0  0  0  0
  186.2260  173.8130  137.2180 C   0  0  0  0  0  2  0  0  0  0  0  0
  185.6120  174.9560  136.4360 C   0  0  0  0  0  0  0  0  0  0  0  0
  183.4070  175.5510  137.7800 C   0  0  1  0  0  3  0  0  0  0  0  0
  186.4570  173.9270  135.7150 C   0  0  0  0  0  2  0  0  0  0  0  0
  183.9770  176.9590  137.8560 C   0  0  0  0  0  2  0  0  0  0  0  0
  185.4990  176.9150  137.9700 C   0  0  0  0  0  2  0  0  0  0  0  0
  181.6040  175.6240  137.9610 S   0  0  0  0  0  1  0  0  0  0  0  0
  185.8140  177.2000  135.6380 O   0  0  0  0  0  1  0  0  0  0  0  0
  183.8170  174.7780  136.1820 S   0  0  0  0  0  0  0  0  0  0  0  0
  190.0270  176.8190  140.6960 C   0  0  0  0  0  3  0  0  0  0  0  0
  188.0310  178.0020  141.4010 C   0  0  0  0  0  0  0  0  0  0  0  0
  189.6300  177.2270  143.0470 C   0  0  0  0  0  0  0  0  0  0  0  0
  188.8280  177.4750  140.3730 C   0  0  0  0  0  0  0  0  0  0  0  0
  188.4340  177.8780  142.7340 C   0  0  0  0  0  3  0  0  0  0  0  0
  186.8660  178.6360  141.1140 F   0  0  0  0  0  0  0  0  0  0  0  0
  190.0170  177.1090  144.3400 F   0  0  0  0  0  0  0  0  0  0  0  0
  190.4270  176.6970  142.0280 C   0  0  0  0  0  3  0  0  0  0  0  0
  2 24  1  1  0  0  0
  4  8  1  6  0  0  0
  4  7  1  0  0  0  0
  4 10  1  0  0  0  0
  5  2  1  0  0  0  0
  6  4  1  0  0  0  0
  7  1  1  1  0  0  0
  7  9  1  0  0  0  0
  9  3  1  1  0  0  0
  9  2  1  0  0  0  0
 10  5  1  1  0  0  0
 11 19  1  6  0  0  0
 11 10  1  0  0  0  0
 11 17  1  0  0  0  0
 13 11  1  0  0  0  0
 13 12  1  0  0  0  0
 14 16  1  0  0  0  0
 14 18  1  6  0  0  0
 15 13  1  0  0  0  0
 15 12  1  0  0  0  0
 16 17  1  0  0  0  0
 20 13  1  0  0  0  0
 20 14  1  0  0  0  0
 21 28  1  0  0  0  0
 22 25  2  0  0  0  0
 23 27  1  0  0  0  0
 24 21  2  0  0  0  0
 24 22  1  0  0  0  0
 25 23  1  0  0  0  0
 26 22  1  0  0  0  0
 28 23  2  0  0  0  0
M  END
>  <MODEL>
2

>  <REMARK>
 VINA RESULT:      -6.6      4.924      7.103
  Name = 
  2 active torsions:
  status: ('A' for Active; 'I' for Inactive)
    1  A    between atoms: C_1  and  C_27
    2  A    between atoms: C_10  and  C_13
                            x       y       z     vdW  Elec       q    Type
                         _______ _______ _______ _____ _____    ______ ____

>  <TORSDO>
F 2

$$$$
=
 OpenBabel11052413353D

 28 31  0  0  1  0  0  0  0  0999 V2000
  184.9700  179.4110  138.1850 O   0  0  0  0  0  1  0  0  0  0  0  0
  183.8930  178.6110  140.8860 C   0  0  2  0  0  3  0  0  0  0  0  0
  186.2590  178.7830  140.5230 F   0  0  0  0  0  0  0  0  0  0  0  0
  183.6700  177.3460  138.2090 C   0  0  1  0  0  0  0  0  0  0  0  0
  182.6550  177.8000  140.5080 C   0  0  0  0  0  2  0  0  0  0  0  0
  183.8400  175.9910  138.5010 O   0  0  0  0  0  1  0  0  0  0  0  0
  184.9490  178.0920  138.6480 C   0  0  2  0  0  3  0  0  0  0  0  0
  183.5010  177.4510  136.6990 C   0  0  0  0  0  1  0  0  0  0  0  0
  185.1320  178.0600  140.1700 C   0  0  2  0  0  3  0  0  0  0  0  0
  182.4190  177.8480  138.9900 C   0  0  1  0  0  3  0  0  0  0  0  0
  181.5910  179.0760  138.4570 C   0  0  1  0  0  0  0  0  0  0  0  0
  179.6570  178.2820  140.0210 C   0  0  0  0  0  2  0  0  0  0  0  0
  180.0720  178.8910  138.6970 C   0  0  0  0  0  0  0  0  0  0  0  0
  179.7720  181.4990  139.0600 C   0  0  1  0  0  3  0  0  0  0  0  0
  179.4800  177.4970  138.7250 C   0  0  0  0  0  2  0  0  0  0  0  0
  181.2350  181.6010  138.6590 C   0  0  0  0  0  2  0  0  0  0  0  0
  182.0130  180.3830  139.1550 C   0  0  0  0  0  2  0  0  0  0  0  0
  178.9500  183.0820  138.7390 S   0  0  0  0  0  1  0  0  0  0  0  0
  181.8020  179.2440  137.0860 O   0  0  0  0  0  1  0  0  0  0  0  0
  178.9370  180.1870  138.1090 S   0  0  0  0  0  0  0  0  0  0  0  0
  185.2820  178.2290  142.9600 C   0  0  0  0  0  3  0  0  0  0  0  0
  183.0090  179.0390  143.1990 C   0  0  0  0  0  0  0  0  0  0  0  0
  184.3760  178.6560  145.1620 C   0  0  0  0  0  0  0  0  0  0  0  0
  184.0700  178.6290  142.3760 C   0  0  0  0  0  0  0  0  0  0  0  0
  183.1650  179.0520  144.5880 C   0  0  0  0  0  3  0  0  0  0  0  0
  181.8260  179.4250  142.6590 F   0  0  0  0  0  0  0  0  0  0  0  0
  184.5230  178.6710  146.5090 F   0  0  0  0  0  0  0  0  0  0  0  0
  185.4350  178.2440  144.3480 C   0  0  0  0  0  3  0  0  0  0  0  0
  2 24  1  1  0  0  0
  4  8  1  6  0  0  0
  4  6  1  0  0  0  0
  4  7  1  0  0  0  0
  4 10  1  0  0  0  0
  5  2  1  0  0  0  0
  7  1  1  1  0  0  0
  7  9  1  0  0  0  0
  9  3  1  6  0  0  0
  9  2  1  0  0  0  0
 10  5  1  1  0  0  0
 11 19  1  6  0  0  0
 11 13  1  0  0  0  0
 11 10  1  0  0  0  0
 11 17  1  0  0  0  0
 13 15  1  0  0  0  0
 13 12  1  0  0  0  0
 14 18  1  6  0  0  0
 15 12  1  0  0  0  0
 16 14  1  0  0  0  0
 16 17  1  0  0  0  0
 20 13  1  0  0  0  0
 20 14  1  0  0  0  0
 21 28  1  0  0  0  0
 22 25  2  0  0  0  0
 23 27  1  0  0  0  0
 24 21  2  0  0  0  0
 24 22  1  0  0  0  0
 25 23  1  0  0  0  0
 26 22  1  0  0  0  0
 28 23  2  0  0  0  0
M  END
>  <MODEL>
3

>  <REMARK>
 VINA RESULT:      -6.1      2.692      4.612
  Name = 
  2 active torsions:
  status: ('A' for Active; 'I' for Inactive)
    1  A    between atoms: C_1  and  C_27
    2  A    between atoms: C_10  and  C_13
                            x       y       z     vdW  Elec       q    Type
                         _______ _______ _______ _____ _____    ______ ____

>  <TORSDO>
F 2

$$$$
=
 OpenBabel11052413353D

 28 31  0  0  1  0  0  0  0  0999 V2000
  186.4220  177.6280  138.7440 O   0  0  0  0  0  1  0  0  0  0  0  0
  189.1180  177.2630  140.0460 C   0  0  2  0  0  3  0  0  0  0  0  0
  187.3680  178.4460  141.1850 F   0  0  0  0  0  0  0  0  0  0  0  0
  188.2930  178.6400  137.5480 C   0  0  1  0  0  0  0  0  0  0  0  0
  190.0620  177.3370  138.8480 C   0  0  0  0  0  2  0  0  0  0  0  0
  189.0630  179.8040  137.5780 O   0  0  0  0  0  1  0  0  0  0  0  0
  187.3940  178.6320  138.8030 C   0  0  2  0  0  3  0  0  0  0  0  0
  187.4320  178.7150  136.2940 C   0  0  0  0  0  1  0  0  0  0  0  0
  188.2150  178.5010  140.0920 C   0  0  2  0  0  3  0  0  0  0  0  0
  189.2670  177.4240  137.5360 C   0  0  1  0  0  3  0  0  0  0  0  0
  188.8190  176.0540  136.9050 C   0  0  1  0  0  0  0  0  0  0  0  0
  190.9010  176.2430  135.3420 C   0  0  0  0  0  2  0  0  0  0  0  0
  189.4530  175.8300  135.5100 C   0  0  0  0  0  0  0  0  0  0  0  0
  189.5700  173.2180  135.9390 C   0  0  1  0  0  3  0  0  0  0  0  0
  189.7940  177.0210  134.6390 C   0  0  0  0  0  2  0  0  0  0  0  0
  188.8050  173.5160  137.2190 C   0  0  0  0  0  2  0  0  0  0  0  0
  189.2290  174.8650  137.7950 C   0  0  0  0  0  2  0  0  0  0  0  0
  189.2810  171.4940  135.4560 S   0  0  0  0  0  1  0  0  0  0  0  0
  187.4290  176.0170  136.7670 O   0  0  0  0  0  1  0  0  0  0  0  0
  189.0210  174.3170  134.5940 S   0  0  0  0  0  0  0  0  0  0  0  0
  191.2730  177.3750  141.3570 C   0  0  0  0  0  3  0  0  0  0  0  0
  189.2520  176.6360  142.4760 C   0  0  0  0  0  0  0  0  0  0  0  0
  191.3420  176.7550  143.6950 C   0  0  0  0  0  0  0  0  0  0  0  0
  189.8980  177.0930  141.3160 C   0  0  0  0  0  0  0  0  0  0  0  0
  189.9740  176.4690  143.6610 C   0  0  0  0  0  3  0  0  0  0  0  0
  187.9250  176.3520  142.4590 F   0  0  0  0  0  0  0  0  0  0  0  0
  192.0380  176.5920  144.8450 F   0  0  0  0  0  0  0  0  0  0  0  0
  191.9920  177.2070  142.5430 C   0  0  0  0  0  3  0  0  0  0  0  0
  2  9  1  0  0  0  0
  2 24  1  1  0  0  0
  4  8  1  6  0  0  0
  4  6  1  0  0  0  0
  4  7  1  0  0  0  0
  5  2  1  0  0  0  0
  7  1  1  6  0  0  0
  7  9  1  0  0  0  0
  9  3  1  1  0  0  0
 10  4  1  0  0  0  0
 10  5  1  1  0  0  0
 11 19  1  6  0  0  0
 11 10  1  0  0  0  0
 11 17  1  0  0  0  0
 12 13  1  0  0  0  0
 13 11  1  0  0  0  0
 14 18  1  6  0  0  0
 14 16  1  0  0  0  0
 15 12  1  0  0  0  0
 15 13  1  0  0  0  0
 16 17  1  0  0  0  0
 20 13  1  0  0  0  0
 20 14  1  0  0  0  0
 21 28  1  0  0  0  0
 22 25  2  0  0  0  0
 23 27  1  0  0  0  0
 24 21  2  0  0  0  0
 24 22  1  0  0  0  0
 25 23  1  0  0  0  0
 26 22  1  0  0  0  0
 28 23  2  0  0  0  0
M  END
>  <MODEL>
4

>  <REMARK>
 VINA RESULT:      -6.0      6.259      7.630
  Name = 
  2 active torsions:
  status: ('A' for Active; 'I' for Inactive)
    1  A    between atoms: C_1  and  C_27
    2  A    between atoms: C_10  and  C_13
                            x       y       z     vdW  Elec       q    Type
                         _______ _______ _______ _____ _____    ______ ____

>  <TORSDO>
F 2

$$$$
=
 OpenBabel11052413353D

 28 31  0  0  1  0  0  0  0  0999 V2000
  181.2150  178.8950  141.1740 O   0  0  0  0  0  1  0  0  0  0  0  0
  180.9750  180.5860  138.6890 C   0  0  2  0  0  3  0  0  0  0  0  0
  179.8540  181.2300  140.7110 F   0  0  0  0  0  0  0  0  0  0  0  0
  180.1910  177.7790  139.2610 C   0  0  1  0  0  0  0  0  0  0  0  0
  180.9900  179.5320  137.5840 C   0  0  0  0  0  2  0  0  0  0  0  0
  178.9470  177.6810  138.6340 O   0  0  0  0  0  1  0  0  0  0  0  0
  180.0950  178.8830  140.3370 C   0  0  2  0  0  3  0  0  0  0  0  0
  180.4590  176.4330  139.9200 C   0  0  0  0  0  1  0  0  0  0  0  0
  179.8820  180.2680  139.7160 C   0  0  2  0  0  3  0  0  0  0  0  0
  181.2470  178.1350  138.1720 C   0  0  1  0  0  3  0  0  0  0  0  0
  182.7560  177.7330  138.3680 C   0  0  1  0  0  0  0  0  0  0  0  0
  182.8570  177.3680  135.7840 C   0  0  0  0  0  2  0  0  0  0  0  0
  183.2930  176.9190  137.1640 C   0  0  0  0  0  0  0  0  0  0  0  0
  185.6980  177.9910  137.4640 C   0  0  1  0  0  3  0  0  0  0  0  0
  182.3470  176.0510  136.3610 C   0  0  0  0  0  2  0  0  0  0  0  0
  185.1260  178.6260  138.7210 C   0  0  0  0  0  2  0  0  0  0  0  0
  183.6530  178.9760  138.5220 C   0  0  0  0  0  2  0  0  0  0  0  0
  187.5010  177.8770  137.6160 S   0  0  0  0  0  1  0  0  0  0  0  0
  182.9050  176.9600  139.5220 O   0  0  0  0  0  1  0  0  0  0  0  0
  185.0120  176.3200  137.2210 S   0  0  0  0  0  0  0  0  0  0  0  0
  179.5990  182.3360  137.4960 C   0  0  0  0  0  3  0  0  0  0  0  0
  181.8740  182.8680  138.1440 C   0  0  0  0  0  0  0  0  0  0  0  0
  180.5200  184.5160  136.9950 C   0  0  0  0  0  0  0  0  0  0  0  0
  180.8080  181.9560  138.1010 C   0  0  0  0  0  0  0  0  0  0  0  0
  181.7280  184.1440  137.5920 C   0  0  0  0  0  3  0  0  0  0  0  0
  183.0540  182.5230  138.7190 F   0  0  0  0  0  0  0  0  0  0  0  0
  180.3820  185.7530  136.4610 F   0  0  0  0  0  0  0  0  0  0  0  0
  179.4560  183.6110  136.9460 C   0  0  0  0  0  3  0  0  0  0  0  0
  2 24  1  6  0  0  0
  2  9  1  0  0  0  0
  4  8  1  1  0  0  0
  4  7  1  0  0  0  0
  5  2  1  0  0  0  0
  6  4  1  0  0  0  0
  7  1  1  6  0  0  0
  9  7  1  0  0  0  0
  9  3  1  1  0  0  0
 10  5  1  1  0  0  0
 10 11  1  0  0  0  0
 10  4  1  0  0  0  0
 11 17  1  0  0  0  0
 11 19  1  1  0  0  0
 12 15  1  0  0  0  0
 12 13  1  0  0  0  0
 13 20  1  0  0  0  0
 13 11  1  0  0  0  0
 14 18  1  1  0  0  0
 14 16  1  0  0  0  0
 15 13  1  0  0  0  0
 17 16  1  0  0  0  0
 20 14  1  0  0  0  0
 21 24  1  0  0  0  0
 22 26  1  0  0  0  0
 23 25  2  0  0  0  0
 24 22  2  0  0  0  0
 25 22  1  0  0  0  0
 27 23  1  0  0  0  0
 28 23  1  0  0  0  0
 28 21  2  0  0  0  0
M  END
>  <MODEL>
5

>  <REMARK>
 VINA RESULT:      -5.8      3.915      6.016
  Name = 
  2 active torsions:
  status: ('A' for Active; 'I' for Inactive)
    1  A    between atoms: C_1  and  C_27
    2  A    between atoms: C_10  and  C_13
                            x       y       z     vdW  Elec       q    Type
                         _______ _______ _______ _____ _____    ______ ____

>  <TORSDO>
F 2

$$$$
=
 OpenBabel11052413353D

 28 31  0  0  1  0  0  0  0  0999 V2000
  188.3440  178.5580  136.0290 O   0  0  0  0  0  1  0  0  0  0  0  0
  188.7530  177.3510  138.7620 C   0  0  2  0  0  3  0  0  0  0  0  0
  189.3690  179.6310  138.3350 F   0  0  0  0  0  0  0  0  0  0  0  0
  189.8660  176.6510  136.0990 C   0  0  1  0  0  0  0  0  0  0  0  0
  189.1090  175.9060  138.4210 C   0  0  0  0  0  2  0  0  0  0  0  0
  191.2020  176.3740  136.3950 O   0  0  0  0  0  1  0  0  0  0  0  0
  189.5840  178.1160  136.5000 C   0  0  2  0  0  3  0  0  0  0  0  0
  189.7060  176.4860  134.5940 C   0  0  0  0  0  1  0  0  0  0  0  0
  189.6790  178.3200  138.0170 C   0  0  2  0  0  3  0  0  0  0  0  0
  188.9810  175.6580  136.9100 C   0  0  1  0  0  3  0  0  0  0  0  0
  187.5480  175.2670  136.3910 C   0  0  1  0  0  0  0  0  0  0  0  0
  188.1950  172.7830  136.8740 C   0  0  0  0  0  2  0  0  0  0  0  0
  187.4730  173.7740  135.9830 C   0  0  0  0  0  0  0  0  0  0  0  0
  184.9490  173.6420  136.7800 C   0  0  1  0  0  3  0  0  0  0  0  0
  188.7120  173.0730  135.4680 C   0  0  0  0  0  2  0  0  0  0  0  0
  185.0680  175.1410  137.0040 C   0  0  0  0  0  2  0  0  0  0  0  0
  186.4750  175.5040  137.4720 C   0  0  0  0  0  2  0  0  0  0  0  0
  183.2060  173.2080  136.5340 S   0  0  0  0  0  1  0  0  0  0  0  0
  187.2060  176.0430  135.2820 O   0  0  0  0  0  1  0  0  0  0  0  0
  185.9050  173.1360  135.3130 S   0  0  0  0  0  0  0  0  0  0  0  0
  187.6760  178.0510  140.9360 C   0  0  0  0  0  3  0  0  0  0  0  0
  189.9770  177.2850  140.9550 C   0  0  0  0  0  0  0  0  0  0  0  0
  188.9060  177.9700  143.0180 C   0  0  0  0  0  0  0  0  0  0  0  0
  188.7980  177.5640  140.2460 C   0  0  0  0  0  0  0  0  0  0  0  0
  190.0280  177.4880  142.3370 C   0  0  0  0  0  3  0  0  0  0  0  0
  191.0760  176.8180  140.3100 F   0  0  0  0  0  0  0  0  0  0  0  0
  188.9600  178.1640  144.3570 F   0  0  0  0  0  0  0  0  0  0  0  0
  187.7310  178.2520  142.3170 C   0  0  0  0  0  3  0  0  0  0  0  0
  2 24  1  1  0  0  0
  4  8  1  6  0  0  0
  4  6  1  0  0  0  0
  4  7  1  0  0  0  0
  4 10  1  0  0  0  0
  5  2  1  0  0  0  0
  7  1  1  1  0  0  0
  7  9  1  0  0  0  0
  9  3  1  6  0  0  0
  9  2  1  0  0  0  0
 10  5  1  1  0  0  0
 11 19  1  6  0  0  0
 11 10  1  0  0  0  0
 11 17  1  0  0  0  0
 13 11  1  0  0  0  0
 13 12  1  0  0  0  0
 14 18  1  6  0  0  0
 14 16  1  0  0  0  0
 15 13  1  0  0  0  0
 15 12  1  0  0  0  0
 16 17  1  0  0  0  0
 20 13  1  0  0  0  0
 20 14  1  0  0  0  0
 21 28  1  0  0  0  0
 22 25  2  0  0  0  0
 23 27  1  0  0  0  0
 24 21  2  0  0  0  0
 24 22  1  0  0  0  0
 25 23  1  0  0  0  0
 26 22  1  0  0  0  0
 28 23  2  0  0  0  0
M  END
>  <MODEL>
6

>  <REMARK>
 VINA RESULT:      -5.8      5.826      7.916
  Name = 
  2 active torsions:
  status: ('A' for Active; 'I' for Inactive)
    1  A    between atoms: C_1  and  C_27
    2  A    between atoms: C_10  and  C_13
                            x       y       z     vdW  Elec       q    Type
                         _______ _______ _______ _____ _____    ______ ____

>  <TORSDO>
F 2

$$$$
=
 OpenBabel11052413353D

 28 31  0  0  1  0  0  0  0  0999 V2000
  184.1920  177.7550  141.1530 O   0  0  0  0  0  1  0  0  0  0  0  0
  186.1920  177.7220  138.8960 C   0  0  2  0  0  3  0  0  0  0  0  0
  186.8790  178.3010  141.1210 F   0  0  0  0  0  0  0  0  0  0  0  0
  183.7310  179.3230  139.3400 C   0  0  1  0  0  0  0  0  0  0  0  0
  185.3470  178.1980  137.7160 C   0  0  0  0  0  2  0  0  0  0  0  0
  184.1200  180.5960  138.9170 O   0  0  0  0  0  1  0  0  0  0  0  0
  184.6500  178.9090  140.5100 C   0  0  2  0  0  3  0  0  0  0  0  0
  182.2930  179.4420  139.8280 C   0  0  0  0  0  1  0  0  0  0  0  0
  186.1020  178.7210  140.0550 C   0  0  2  0  0  3  0  0  0  0  0  0
  183.8760  178.3530  138.1300 C   0  0  1  0  0  3  0  0  0  0  0  0
  182.9910  177.0540  138.0430 C   0  0  1  0  0  0  0  0  0  0  0  0
  182.3400  177.8190  135.6330 C   0  0  0  0  0  2  0  0  0  0  0  0
  181.9170  177.1660  136.9330 C   0  0  0  0  0  0  0  0  0  0  0  0
  182.0970  174.5680  136.4430 C   0  0  1  0  0  3  0  0  0  0  0  0
  181.3570  178.5230  136.5620 C   0  0  0  0  0  2  0  0  0  0  0  0
  183.0240  174.5280  137.6480 C   0  0  0  0  0  2  0  0  0  0  0  0
  183.8470  175.8110  137.7330 C   0  0  0  0  0  2  0  0  0  0  0  0
  181.3730  172.9250  136.1880 S   0  0  0  0  0  1  0  0  0  0  0  0
  182.3440  176.8270  139.2600 O   0  0  0  0  0  1  0  0  0  0  0  0
  180.7600  175.7780  136.7030 S   0  0  0  0  0  0  0  0  0  0  0  0
  188.6090  178.4370  138.7450 C   0  0  0  0  0  3  0  0  0  0  0  0
  187.9440  176.3230  137.7610 C   0  0  0  0  0  0  0  0  0  0  0  0
  190.2510  177.0500  137.6370 C   0  0  0  0  0  0  0  0  0  0  0  0
  187.6100  177.4910  138.4640 C   0  0  0  0  0  0  0  0  0  0  0  0
  189.2620  176.1050  137.3500 C   0  0  0  0  0  3  0  0  0  0  0  0
  186.9960  175.3960  137.4730 F   0  0  0  0  0  0  0  0  0  0  0  0
  191.5280  176.8350  137.2370 F   0  0  0  0  0  0  0  0  0  0  0  0
  189.9250  178.2160  138.3340 C   0  0  0  0  0  3  0  0  0  0  0  0
  2 24  1  6  0  0  0
  2  9  1  0  0  0  0
  4  8  1  1  0  0  0
  4  7  1  0  0  0  0
  5  2  1  0  0  0  0
  6  4  1  0  0  0  0
  7  1  1  6  0  0  0
  9  7  1  0  0  0  0
  9  3  1  1  0  0  0
 10  5  1  1  0  0  0
 10  4  1  0  0  0  0
 11 10  1  0  0  0  0
 11 19  1  1  0  0  0
 12 15  1  0  0  0  0
 12 13  1  0  0  0  0
 13 11  1  0  0  0  0
 14 18  1  1  0  0  0
 14 20  1  0  0  0  0
 14 16  1  0  0  0  0
 15 13  1  0  0  0  0
 16 17  1  0  0  0  0
 17 11  1  0  0  0  0
 20 13  1  0  0  0  0
 22 24  2  0  0  0  0
 23 28  1  0  0  0  0
 24 21  1  0  0  0  0
 25 23  2  0  0  0  0
 25 22  1  0  0  0  0
 26 22  1  0  0  0  0
 27 23  1  0  0  0  0
 28 21  2  0  0  0  0
M  END
>  <MODEL>
7

>  <REMARK>
 VINA RESULT:      -5.6      3.929      5.381
  Name = 
  2 active torsions:
  status: ('A' for Active; 'I' for Inactive)
    1  A    between atoms: C_1  and  C_27
    2  A    between atoms: C_10  and  C_13
                            x       y       z     vdW  Elec       q    Type
                         _______ _______ _______ _____ _____    ______ ____

>  <TORSDO>
F 2

$$$$
=
 OpenBabel11052413353D

 28 31  0  0  1  0  0  0  0  0999 V2000
  187.4990  178.0660  134.8430 O   0  0  0  0  0  1  0  0  0  0  0  0
  187.0640  177.6360  137.7960 C   0  0  2  0  0  3  0  0  0  0  0  0
  187.3260  179.8530  136.9150 F   0  0  0  0  0  0  0  0  0  0  0  0
  189.2270  176.7550  135.9620 C   0  0  1  0  0  0  0  0  0  0  0  0
  187.8060  176.3240  138.0390 C   0  0  0  0  0  2  0  0  0  0  0  0
  190.3740  176.9540  136.7330 O   0  0  0  0  0  1  0  0  0  0  0  0
  188.5260  178.1200  135.7910 C   0  0  2  0  0  3  0  0  0  0  0  0
  189.6920  176.2370  134.6080 C   0  0  0  0  0  1  0  0  0  0  0  0
  187.9900  178.6570  137.1230 C   0  0  2  0  0  3  0  0  0  0  0  0
  188.3180  175.7370  136.7150 C   0  0  1  0  0  3  0  0  0  0  0  0
  187.3020  174.8390  135.9160 C   0  0  1  0  0  0  0  0  0  0  0  0
  188.3120  172.7950  137.1900 C   0  0  0  0  0  2  0  0  0  0  0  0
  187.7390  173.3530  135.9020 C   0  0  0  0  0  0  0  0  0  0  0  0
  185.2070  172.5690  135.9260 C   0  0  1  0  0  3  0  0  0  0  0  0
  189.2100  173.0010  135.9740 C   0  0  0  0  0  2  0  0  0  0  0  0
  184.8750  174.0460  135.7820 C   0  0  0  0  0  2  0  0  0  0  0  0
  185.8920  174.9000  136.5340 C   0  0  0  0  0  2  0  0  0  0  0  0
  183.8250  171.5780  135.2980 S   0  0  0  0  0  1  0  0  0  0  0  0
  187.2020  175.2800  134.5940 O   0  0  0  0  0  1  0  0  0  0  0  0
  186.7140  172.1570  134.9880 S   0  0  0  0  0  0  0  0  0  0  0  0
  187.3010  178.2940  140.2220 C   0  0  0  0  0  3  0  0  0  0  0  0
  185.1370  178.5100  139.1510 C   0  0  0  0  0  0  0  0  0  0  0  0
  185.4080  179.1270  141.4770 C   0  0  0  0  0  0  0  0  0  0  0  0
  186.4940  178.1600  139.0810 C   0  0  0  0  0  0  0  0  0  0  0  0
  184.5980  178.9930  140.3470 C   0  0  0  0  0  3  0  0  0  0  0  0
  184.3360  178.3850  138.0630 F   0  0  0  0  0  0  0  0  0  0  0  0
  184.8820  179.5950  142.6350 F   0  0  0  0  0  0  0  0  0  0  0  0
  186.7590  178.7770  141.4160 C   0  0  0  0  0  3  0  0  0  0  0  0
  2  5  1  0  0  0  0
  2 24  1  1  0  0  0
  4  8  1  6  0  0  0
  4 10  1  0  0  0  0
  4  6  1  0  0  0  0
  7  1  1  6  0  0  0
  7  4  1  0  0  0  0
  7  9  1  0  0  0  0
  9  3  1  6  0  0  0
  9  2  1  0  0  0  0
 10  5  1  1  0  0  0
 11 19  1  6  0  0  0
 11 17  1  0  0  0  0
 11 10  1  0  0  0  0
 13 11  1  0  0  0  0
 13 15  1  0  0  0  0
 13 12  1  0  0  0  0
 14 18  1  6  0  0  0
 15 12  1  0  0  0  0
 16 14  1  0  0  0  0
 16 17  1  0  0  0  0
 20 13  1  0  0  0  0
 20 14  1  0  0  0  0
 21 28  1  0  0  0  0
 22 25  2  0  0  0  0
 23 27  1  0  0  0  0
 24 22  1  0  0  0  0
 24 21  2  0  0  0  0
 25 23  1  0  0  0  0
 26 22  1  0  0  0  0
 28 23  2  0  0  0  0
M  END
>  <MODEL>
8

>  <REMARK>
 VINA RESULT:      -5.6      5.336      7.746
  Name = 
  2 active torsions:
  status: ('A' for Active; 'I' for Inactive)
    1  A    between atoms: C_1  and  C_27
    2  A    between atoms: C_10  and  C_13
                            x       y       z     vdW  Elec       q    Type
                         _______ _______ _______ _____ _____    ______ ____

>  <TORSDO>
F 2

$$$$
=
 OpenBabel11052413353D

 28 31  0  0  1  0  0  0  0  0999 V2000
  180.9620  177.8780  140.0370 O   0  0  0  0  0  1  0  0  0  0  0  0
  181.1100  179.6280  137.5850 C   0  0  2  0  0  3  0  0  0  0  0  0
  179.4390  180.0230  139.2620 F   0  0  0  0  0  0  0  0  0  0  0  0
  180.6190  176.7180  137.9170 C   0  0  1  0  0  0  0  0  0  0  0  0
  181.5520  178.6360  136.5120 C   0  0  0  0  0  2  0  0  0  0  0  0
  179.5980  176.4780  136.9950 O   0  0  0  0  0  1  0  0  0  0  0  0
  180.1000  177.7490  138.9430 C   0  0  2  0  0  3  0  0  0  0  0  0
  180.9040  175.3930  138.6120 C   0  0  0  0  0  1  0  0  0  0  0  0
  179.8520  179.1190  138.2990 C   0  0  2  0  0  3  0  0  0  0  0  0
  181.8510  177.2630  137.1340 C   0  0  1  0  0  3  0  0  0  0  0  0
  183.3050  177.0620  137.7030 C   0  0  1  0  0  0  0  0  0  0  0  0
  184.1050  176.8650  135.2250 C   0  0  0  0  0  2  0  0  0  0  0  0
  184.2420  176.4020  136.6620 C   0  0  0  0  0  0  0  0  0  0  0  0
  186.3080  177.7760  137.5920 C   0  0  1  0  0  3  0  0  0  0  0  0
  183.6680  175.4590  135.6250 C   0  0  0  0  0  2  0  0  0  0  0  0
  185.3500  178.2530  138.6720 C   0  0  0  0  0  2  0  0  0  0  0  0
  183.9400  178.4060  138.1080 C   0  0  0  0  0  2  0  0  0  0  0  0
  188.0110  177.9050  138.2000 S   0  0  0  0  0  1  0  0  0  0  0  0
  183.2720  176.2520  138.8410 O   0  0  0  0  0  1  0  0  0  0  0  0
  185.9600  176.0440  137.1460 S   0  0  0  0  0  0  0  0  0  0  0  0
  180.4370  181.1270  135.6670 C   0  0  0  0  0  3  0  0  0  0  0  0
  181.1810  182.1350  137.7430 C   0  0  0  0  0  0  0  0  0  0  0  0
  180.5300  183.5350  135.8770 C   0  0  0  0  0  0  0  0  0  0  0  0
  180.9000  180.9870  136.9850 C   0  0  0  0  0  0  0  0  0  0  0  0
  180.9940  183.4040  137.1880 C   0  0  0  0  0  3  0  0  0  0  0  0
  181.6340  182.0260  139.0180 F   0  0  0  0  0  0  0  0  0  0  0  0
  180.3500  184.7670  135.3420 F   0  0  0  0  0  0  0  0  0  0  0  0
  180.2520  182.3960  135.1160 C   0  0  0  0  0  3  0  0  0  0  0  0
  2 24  1  6  0  0  0
  2  9  1  0  0  0  0
  4  8  1  1  0  0  0
  4  7  1  0  0  0  0
  5  2  1  0  0  0  0
  6  4  1  0  0  0  0
  7  1  1  1  0  0  0
  9  7  1  0  0  0  0
  9  3  1  1  0  0  0
 10  5  1  1  0  0  0
 10 11  1  0  0  0  0
 10  4  1  0  0  0  0
 11 17  1  0  0  0  0
 11 19  1  1  0  0  0
 12 15  1  0  0  0  0
 12 13  1  0  0  0  0
 13 20  1  0  0  0  0
 13 11  1  0  0  0  0
 14 18  1  1  0  0  0
 14 16  1  0  0  0  0
 15 13  1  0  0  0  0
 17 16  1  0  0  0  0
 20 14  1  0  0  0  0
 21 24  1  0  0  0  0
 22 26  1  0  0  0  0
 23 25  2  0  0  0  0
 24 22  2  0  0  0  0
 25 22  1  0  0  0  0
 27 23  1  0  0  0  0
 28 21  2  0  0  0  0
 28 23  1  0  0  0  0
M  END
>  <MODEL>
9

>  <REMARK>
 VINA RESULT:      -5.6      4.360      6.617
  Name = 
  2 active torsions:
  status: ('A' for Active; 'I' for Inactive)
    1  A    between atoms: C_1  and  C_27
    2  A    between atoms: C_10  and  C_13
                            x       y       z     vdW  Elec       q    Type
                         _______ _______ _______ _____ _____    ______ ____

>  <TORSDO>
F 2

$$$$
