=
 OpenBabel11052413103D

 31 36  0  0  1  0  0  0  0  0999 V2000
  187.5750  178.0430  143.5930 C   0  0  0  0  0  0  0  0  0  0  0  0
  186.3550  178.4990  144.1400 C   0  0  0  0  0  0  0  0  0  0  0  0
  184.6920  178.4520  146.0030 C   0  0  0  0  0  0  0  0  0  0  0  0
  188.7320  177.6080  144.4030 C   0  0  0  0  0  0  0  0  0  0  0  0
  190.1350  176.9810  145.9230 C   0  0  0  0  0  0  0  0  0  0  0  0
  186.1410  178.6320  145.6290 C   0  0  0  0  0  2  0  0  0  0  0  0
  188.9830  177.4290  141.5590 C   0  0  1  0  0  3  0  0  0  0  0  0
  185.5080  178.8270  141.8950 C   0  0  0  0  0  3  0  0  0  0  0  0
  184.3740  177.9390  147.2190 F   0  0  0  0  0  0  0  0  0  0  0  0
  190.2320  177.6240  142.4360 C   0  0  0  0  0  2  0  0  0  0  0  0
  187.7260  178.0100  142.1870 C   0  0  0  0  0  0  0  0  0  0  0  0
  188.8090  177.3670  145.7650 C   0  0  0  0  0  3  0  0  0  0  0  0
  183.7130  178.8150  145.1620 C   0  0  0  0  0  3  0  0  0  0  0  0
  189.9220  177.3630  143.8350 N   0  0  0  0  0  0  0  0  0  0  0  0
  190.8000  177.0030  144.7500 N   0  0  0  0  0  0  0  0  0  0  0  0
  186.6860  178.3800  141.3900 N   0  0  0  0  0  0  0  0  0  0  0  0
  185.3190  178.8930  143.2730 C   0  0  0  0  0  0  0  0  0  0  0  0
  184.0270  179.4290  143.8230 C   0  0  0  0  0  2  0  0  0  0  0  0
  190.7770  176.6490  147.2240 C   0  0  0  0  0  2  0  0  0  0  0  0
  192.0580  175.8760  146.9870 C   0  0  0  0  0  1  0  0  0  0  0  0
  189.2360  178.0030  140.1700 C   0  0  0  0  0  2  0  0  0  0  0  0
  187.8630  175.1610  135.9210 C   0  0  0  0  0  0  0  0  0  0  0  0
  187.6180  176.9240  137.6080 C   0  0  0  0  0  3  0  0  0  0  0  0
  190.6620  175.2430  138.3110 N   0  0  0  0  0  0  0  0  0  0  0  0
  190.6850  176.1380  139.2960 N   0  0  0  0  0  0  0  0  0  0  0  0
  187.3310  174.4510  134.7290 C   0  0  0  0  0  1  0  0  0  0  0  0
  189.5830  176.9180  139.2060 C   0  0  0  0  0  0  0  0  0  0  0  0
  187.1340  176.2370  136.4790 C   0  0  0  0  0  3  0  0  0  0  0  0
  189.5390  175.4580  137.6030 C   0  0  0  0  0  0  0  0  0  0  0  0
  188.8320  176.4970  138.1360 C   0  0  0  0  0  0  0  0  0  0  0  0
  189.0870  174.7560  136.4890 C   0  0  0  0  0  2  0  0  0  0  0  0
  1  2  1  0  0  0  0
  1  4  1  0  0  0  0
  2  6  1  0  0  0  0
  3  9  1  0  0  0  0
  4 12  2  0  0  0  0
  5 19  1  0  0  0  0
  6  3  1  0  0  0  0
  7 21  1  6  0  0  0
  7 11  1  0  0  0  0
  7 10  1  0  0  0  0
  8 17  1  0  0  0  0
 10 14  1  0  0  0  0
 11  1  2  0  0  0  0
 12  5  1  0  0  0  0
 13  3  2  0  0  0  0
 14  4  1  0  0  0  0
 14 15  1  0  0  0  0
 15  5  2  0  0  0  0
 16  8  2  0  0  0  0
 16 11  1  0  0  0  0
 17 18  1  0  0  0  0
 17  2  2  0  0  0  0
 18 13  1  0  0  0  0
 20 19  1  0  0  0  0
 22 28  2  0  0  0  0
 22 31  1  0  0  0  0
 23 30  2  0  0  0  0
 24 25  1  0  0  0  0
 26 22  1  0  0  0  0
 27 25  2  0  0  0  0
 27 21  1  0  0  0  0
 28 23  1  0  0  0  0
 29 30  1  0  0  0  0
 29 24  2  0  0  0  0
 30 27  1  0  0  0  0
 31 29  1  0  0  0  0
M  END
>  <MODEL>
1

>  <REMARK>
 VINA RESULT:     -10.6      0.000      0.000
  Name = 
  3 active torsions:
  status: ('A' for Active; 'I' for Inactive)
    1  A    between atoms: C_2  and  C_13
    2  A    between atoms: C_9  and  C_23
    3  A    between atoms: C_15  and  C_23
                            x       y       z     vdW  Elec       q    Type
                         _______ _______ _______ _____ _____    ______ ____

>  <TORSDO>
F 3

$$$$
=
 OpenBabel11052413103D

 31 36  0  0  1  0  0  0  0  0999 V2000
  188.9080  177.5690  143.7730 C   0  0  0  0  0  0  0  0  0  0  0  0
  189.5880  177.1700  144.9460 C   0  0  0  0  0  0  0  0  0  0  0  0
  189.8130  177.2700  147.4310 C   0  0  0  0  0  0  0  0  0  0  0  0
  187.4740  177.9240  143.7300 C   0  0  0  0  0  0  0  0  0  0  0  0
  185.4090  178.4410  144.1090 C   0  0  0  0  0  0  0  0  0  0  0  0
  188.8830  177.0180  146.2720 C   0  0  0  0  0  2  0  0  0  0  0  0
  188.9520  178.1480  141.2910 C   0  0  1  0  0  3  0  0  0  0  0  0
  191.6190  176.9350  143.6490 C   0  0  0  0  0  3  0  0  0  0  0  0
  189.3170  177.7740  148.5890 F   0  0  0  0  0  0  0  0  0  0  0  0
  187.4400  177.8660  141.2570 C   0  0  0  0  0  2  0  0  0  0  0  0
  189.6200  177.6240  142.5530 C   0  0  0  0  0  0  0  0  0  0  0  0
  186.5890  178.1320  144.7760 C   0  0  0  0  0  3  0  0  0  0  0  0
  191.1190  176.9780  147.3420 C   0  0  0  0  0  3  0  0  0  0  0  0
  186.8430  178.1150  142.5620 N   0  0  0  0  0  0  0  0  0  0  0  0
  185.5740  178.4060  142.7710 N   0  0  0  0  0  0  0  0  0  0  0  0
  190.9500  177.3270  142.5350 N   0  0  0  0  0  0  0  0  0  0  0  0
  190.9570  176.8520  144.8700 C   0  0  0  0  0  0  0  0  0  0  0  0
  191.6970  176.3760  146.0880 C   0  0  0  0  0  2  0  0  0  0  0  0
  184.1030  178.7090  144.7690 C   0  0  0  0  0  2  0  0  0  0  0  0
  183.0520  179.0270  143.7240 C   0  0  0  0  0  1  0  0  0  0  0  0
  189.6060  177.5890  140.0330 C   0  0  0  0  0  2  0  0  0  0  0  0
  186.6690  176.5650  135.7500 C   0  0  0  0  0  0  0  0  0  0  0  0
  187.8230  176.0400  137.8490 C   0  0  0  0  0  3  0  0  0  0  0  0
  188.3210  179.4990  137.2390 N   0  0  0  0  0  0  0  0  0  0  0  0
  188.9980  179.3890  138.3800 N   0  0  0  0  0  2  0  0  0  0  0  0
  185.8520  176.1150  134.5940 C   0  0  0  0  0  1  0  0  0  0  0  0
  188.9250  178.1080  138.8100 C   0  0  0  0  0  0  0  0  0  0  0  0
  187.0480  175.6350  136.7460 C   0  0  0  0  0  3  0  0  0  0  0  0
  187.8270  178.2830  136.9490 C   0  0  0  0  0  0  0  0  0  0  0  0
  188.1880  177.3820  137.9080 C   0  0  0  0  0  0  0  0  0  0  0  0
  187.0630  177.9140  135.8440 C   0  0  0  0  0  3  0  0  0  0  0  0
  1  2  1  0  0  0  0
  2  6  1  0  0  0  0
  3  9  1  0  0  0  0
  4  1  1  0  0  0  0
  4 12  2  0  0  0  0
  5 19  1  0  0  0  0
  5 12  1  0  0  0  0
  6  3  1  0  0  0  0
  7 21  1  6  0  0  0
  7 11  1  0  0  0  0
  8 17  1  0  0  0  0
 10  7  1  0  0  0  0
 10 14  1  0  0  0  0
 11  1  2  0  0  0  0
 13  3  2  0  0  0  0
 14 15  1  0  0  0  0
 14  4  1  0  0  0  0
 15  5  2  0  0  0  0
 16 11  1  0  0  0  0
 16  8  2  0  0  0  0
 17  2  2  0  0  0  0
 17 18  1  0  0  0  0
 18 13  1  0  0  0  0
 20 19  1  0  0  0  0
 22 31  2  0  0  0  0
 22 28  1  0  0  0  0
 23 30  1  0  0  0  0
 24 25  1  0  0  0  0
 25 27  1  0  0  0  0
 26 22  1  0  0  0  0
 27 21  1  0  0  0  0
 28 23  2  0  0  0  0
 29 24  2  0  0  0  0
 29 30  1  0  0  0  0
 30 27  2  0  0  0  0
 31 29  1  0  0  0  0
M  END
>  <MODEL>
2

>  <REMARK>
 VINA RESULT:     -10.6      1.821      4.580
  Name = 
  3 active torsions:
  status: ('A' for Active; 'I' for Inactive)
    1  A    between atoms: C_2  and  C_13
    2  A    between atoms: C_9  and  C_23
    3  A    between atoms: C_15  and  C_23
                            x       y       z     vdW  Elec       q    Type
                         _______ _______ _______ _____ _____    ______ ____

>  <TORSDO>
F 3

$$$$
=
 OpenBabel11052413103D

 31 36  0  0  1  0  0  0  0  0999 V2000
  187.4040  178.1440  143.5530 C   0  0  0  0  0  0  0  0  0  0  0  0
  186.2050  178.5720  144.1660 C   0  0  0  0  0  0  0  0  0  0  0  0
  184.6260  178.4570  146.0980 C   0  0  0  0  0  0  0  0  0  0  0  0
  188.5990  177.6950  144.2990 C   0  0  0  0  0  0  0  0  0  0  0  0
  190.0720  177.0380  145.7380 C   0  0  0  0  0  0  0  0  0  0  0  0
  186.0550  178.6600  145.6670 C   0  0  0  0  0  2  0  0  0  0  0  0
  188.7260  177.6010  141.4430 C   0  0  1  0  0  3  0  0  0  0  0  0
  185.2590  178.9580  141.9710 C   0  0  0  0  0  3  0  0  0  0  0  0
  184.3660  177.9060  147.3110 F   0  0  0  0  0  0  0  0  0  0  0  0
  190.0110  177.7820  142.2700 C   0  0  0  0  0  2  0  0  0  0  0  0
  187.4930  178.1520  142.1420 C   0  0  0  0  0  0  0  0  0  0  0  0
  188.7370  177.4160  145.6490 C   0  0  0  0  0  3  0  0  0  0  0  0
  183.6080  178.8350  145.3110 C   0  0  0  0  0  3  0  0  0  0  0  0
  189.7640  177.4780  143.6730 N   0  0  0  0  0  0  0  0  0  0  0  0
  190.6840  177.1000  144.5390 N   0  0  0  0  0  0  0  0  0  0  0  0
  186.4160  178.5360  141.4020 N   0  0  0  0  0  0  0  0  0  0  0  0
  185.1290  178.9820  143.3570 C   0  0  0  0  0  0  0  0  0  0  0  0
  183.8590  179.4900  143.9780 C   0  0  0  0  0  2  0  0  0  0  0  0
  190.7720  176.6750  147.0000 C   0  0  0  0  0  2  0  0  0  0  0  0
  192.0370  175.9020  146.6850 C   0  0  0  0  0  1  0  0  0  0  0  0
  188.9140  178.2180  140.0620 C   0  0  0  0  0  2  0  0  0  0  0  0
  191.9590  174.9630  137.2070 C   0  0  0  0  0  0  0  0  0  0  0  0
  191.4810  176.6490  138.9220 C   0  0  0  0  0  3  0  0  0  0  0  0
  188.3780  175.7880  137.4320 N   0  0  0  0  0  0  0  0  0  0  0  0
  187.9450  176.6900  138.3100 N   0  0  0  0  0  2  0  0  0  0  0  0
  192.9470  174.1210  136.4830 C   0  0  0  0  0  1  0  0  0  0  0  0
  189.0000  177.1540  139.0170 C   0  0  0  0  0  0  0  0  0  0  0  0
  192.3990  175.8420  138.2240 C   0  0  0  0  0  3  0  0  0  0  0  0
  189.7110  175.6910  137.5840 C   0  0  0  0  0  0  0  0  0  0  0  0
  190.1400  176.5360  138.5660 C   0  0  0  0  0  0  0  0  0  0  0  0
  190.5930  174.8810  136.8730 C   0  0  0  0  0  3  0  0  0  0  0  0
  1  2  1  0  0  0  0
  1  4  1  0  0  0  0
  2  6  1  0  0  0  0
  3  9  1  0  0  0  0
  4 12  2  0  0  0  0
  5 19  1  0  0  0  0
  6  3  1  0  0  0  0
  7 21  1  6  0  0  0
  7 11  1  0  0  0  0
  7 10  1  0  0  0  0
  8 17  1  0  0  0  0
 10 14  1  0  0  0  0
 11  1  2  0  0  0  0
 12  5  1  0  0  0  0
 13  3  2  0  0  0  0
 14  4  1  0  0  0  0
 14 15  1  0  0  0  0
 15  5  2  0  0  0  0
 16  8  2  0  0  0  0
 16 11  1  0  0  0  0
 17 18  1  0  0  0  0
 17  2  2  0  0  0  0
 18 13  1  0  0  0  0
 20 19  1  0  0  0  0
 22 28  1  0  0  0  0
 24 29  2  0  0  0  0
 24 25  1  0  0  0  0
 25 27  1  0  0  0  0
 26 22  1  0  0  0  0
 27 21  1  0  0  0  0
 28 23  2  0  0  0  0
 29 30  1  0  0  0  0
 30 23  1  0  0  0  0
 30 27  2  0  0  0  0
 31 22  2  0  0  0  0
 31 29  1  0  0  0  0
M  END
>  <MODEL>
3

>  <REMARK>
 VINA RESULT:     -10.4      1.325      1.984
  Name = 
  3 active torsions:
  status: ('A' for Active; 'I' for Inactive)
    1  A    between atoms: C_2  and  C_13
    2  A    between atoms: C_9  and  C_23
    3  A    between atoms: C_15  and  C_23
                            x       y       z     vdW  Elec       q    Type
                         _______ _______ _______ _____ _____    ______ ____

>  <TORSDO>
F 3

$$$$
=
 OpenBabel11052413103D

 31 36  0  0  1  0  0  0  0  0999 V2000
  186.4700  178.3000  144.4460 C   0  0  0  0  0  0  0  0  0  0  0  0
  187.2720  178.1280  145.5960 C   0  0  0  0  0  0  0  0  0  0  0  0
  189.2600  177.0790  146.6840 C   0  0  0  0  0  0  0  0  0  0  0  0
  186.9800  178.2070  143.0620 C   0  0  0  0  0  0  0  0  0  0  0  0
  188.0880  177.9040  141.2300 C   0  0  0  0  0  0  0  0  0  0  0  0
  188.7590  177.8800  145.5100 C   0  0  0  0  0  2  0  0  0  0  0  0
  184.1800  178.6860  143.3960 C   0  0  1  0  0  3  0  0  0  0  0  0
  185.3210  178.5190  146.9750 C   0  0  0  0  0  3  0  0  0  0  0  0
  190.3320  176.2600  146.5270 F   0  0  0  0  0  0  0  0  0  0  0  0
  184.9060  179.1850  142.1340 C   0  0  0  0  0  2  0  0  0  0  0  0
  185.0970  178.5970  144.6060 C   0  0  0  0  0  0  0  0  0  0  0  0
  188.2110  177.7610  142.6070 C   0  0  0  0  0  3  0  0  0  0  0  0
  188.6780  177.1820  147.8880 C   0  0  0  0  0  3  0  0  0  0  0  0
  186.2170  178.5620  142.0180 N   0  0  0  0  0  0  0  0  0  0  0  0
  186.8840  178.4080  140.8910 N   0  0  0  0  0  0  0  0  0  0  0  0
  184.5660  178.6750  145.8580 N   0  0  0  0  0  0  0  0  0  0  0  0
  186.6810  178.2410  146.8680 C   0  0  0  0  0  0  0  0  0  0  0  0
  187.5150  178.1130  148.1110 C   0  0  0  0  0  2  0  0  0  0  0  0
  189.1630  177.6090  140.2440 C   0  0  0  0  0  2  0  0  0  0  0  0
  189.0540  178.5530  139.0640 C   0  0  0  0  0  1  0  0  0  0  0  0
  182.9670  179.5670  143.6720 C   0  0  0  0  0  2  0  0  0  0  0  0
  179.7520  177.8730  139.8240 C   0  0  0  0  0  0  0  0  0  0  0  0
  181.7680  178.9070  140.7600 C   0  0  0  0  0  3  0  0  0  0  0  0
  179.7700  177.8760  143.5050 N   0  0  0  0  0  0  0  0  0  0  0  0
  180.7910  178.4050  144.1770 N   0  0  0  0  0  0  0  0  0  0  0  0
  178.9570  177.4710  138.6350 C   0  0  0  0  0  1  0  0  0  0  0  0
  181.7070  178.8630  143.2930 C   0  0  0  0  0  0  0  0  0  0  0  0
  180.9990  178.5170  139.6480 C   0  0  0  0  0  3  0  0  0  0  0  0
  180.0430  178.0090  142.1950 C   0  0  0  0  0  0  0  0  0  0  0  0
  181.2470  178.6280  142.0200 C   0  0  0  0  0  0  0  0  0  0  0  0
  179.2560  177.6130  141.1160 C   0  0  0  0  0  2  0  0  0  0  0  0
  1 11  2  0  0  0  0
  1  2  1  0  0  0  0
  2 17  2  0  0  0  0
  3 13  2  0  0  0  0
  4  1  1  0  0  0  0
  5 12  1  0  0  0  0
  6  2  1  0  0  0  0
  6  3  1  0  0  0  0
  7 21  1  1  0  0  0
  7 11  1  0  0  0  0
  9  3  1  0  0  0  0
 10  7  1  0  0  0  0
 11 16  1  0  0  0  0
 12  4  2  0  0  0  0
 13 18  1  0  0  0  0
 14 10  1  0  0  0  0
 14  4  1  0  0  0  0
 15  5  2  0  0  0  0
 15 14  1  0  0  0  0
 16  8  2  0  0  0  0
 17  8  1  0  0  0  0
 17 18  1  0  0  0  0
 19  5  1  0  0  0  0
 20 19  1  0  0  0  0
 22 31  1  0  0  0  0
 23 30  2  0  0  0  0
 24 25  1  0  0  0  0
 26 22  1  0  0  0  0
 27 21  1  0  0  0  0
 27 25  2  0  0  0  0
 28 22  2  0  0  0  0
 28 23  1  0  0  0  0
 29 24  2  0  0  0  0
 30 29  1  0  0  0  0
 30 27  1  0  0  0  0
 31 29  1  0  0  0  0
M  END
>  <MODEL>
4

>  <REMARK>
 VINA RESULT:     -10.4      3.548      7.013
  Name = 
  3 active torsions:
  status: ('A' for Active; 'I' for Inactive)
    1  A    between atoms: C_2  and  C_13
    2  A    between atoms: C_9  and  C_23
    3  A    between atoms: C_15  and  C_23
                            x       y       z     vdW  Elec       q    Type
                         _______ _______ _______ _____ _____    ______ ____

>  <TORSDO>
F 3

$$$$
=
 OpenBabel11052413103D

 31 36  0  0  1  0  0  0  0  0999 V2000
  188.4840  177.7920  144.6990 C   0  0  0  0  0  0  0  0  0  0  0  0
  188.9360  177.5950  146.0230 C   0  0  0  0  0  0  0  0  0  0  0  0
  188.6500  178.0090  148.4690 C   0  0  0  0  0  0  0  0  0  0  0  0
  187.0690  178.0150  144.3340 C   0  0  0  0  0  0  0  0  0  0  0  0
  184.9430  178.3950  144.2380 C   0  0  0  0  0  0  0  0  0  0  0  0
  187.9890  177.5420  147.1980 C   0  0  0  0  0  2  0  0  0  0  0  0
  188.9910  178.0720  142.2170 C   0  0  1  0  0  3  0  0  0  0  0  0
  191.1970  177.3820  145.1830 C   0  0  0  0  0  3  0  0  0  0  0  0
  187.9010  178.6030  149.4330 F   0  0  0  0  0  0  0  0  0  0  0  0
  187.5360  177.6600  141.9320 C   0  0  0  0  0  2  0  0  0  0  0  0
  189.4220  177.7610  143.6420 C   0  0  0  0  0  0  0  0  0  0  0  0
  185.9800  178.2700  145.1540 C   0  0  0  0  0  3  0  0  0  0  0  0
  189.9620  177.8210  148.6720 C   0  0  0  0  0  3  0  0  0  0  0  0
  186.6750  178.0110  143.0520 N   0  0  0  0  0  0  0  0  0  0  0  0
  185.3750  178.2160  142.9740 N   0  0  0  0  0  0  0  0  0  0  0  0
  190.7430  177.5800  143.9190 N   0  0  0  0  0  0  0  0  0  0  0  0
  190.3090  177.3880  146.2550 C   0  0  0  0  0  0  0  0  0  0  0  0
  190.8160  177.1260  147.6450 C   0  0  0  0  0  2  0  0  0  0  0  0
  183.5160  178.6280  144.5930 C   0  0  0  0  0  2  0  0  0  0  0  0
  182.7950  179.2820  143.4320 C   0  0  0  0  0  1  0  0  0  0  0  0
  189.9170  177.4260  141.1940 C   0  0  0  0  0  2  0  0  0  0  0  0
  190.1270  176.3840  136.0090 C   0  0  0  0  0  0  0  0  0  0  0  0
  190.5430  175.9770  138.3910 C   0  0  0  0  0  3  0  0  0  0  0  0
  188.6950  178.9980  138.1700 N   0  0  0  0  0  0  0  0  0  0  0  0
  188.8340  178.9340  139.4930 N   0  0  0  0  0  2  0  0  0  0  0  0
  190.2870  175.9610  134.5940 C   0  0  0  0  0  1  0  0  0  0  0  0
  189.5230  177.8130  139.8070 C   0  0  0  0  0  0  0  0  0  0  0  0
  190.6820  175.5950  137.0430 C   0  0  0  0  0  3  0  0  0  0  0  0
  189.3050  177.9170  137.6520 C   0  0  0  0  0  0  0  0  0  0  0  0
  189.8410  177.1510  138.6470 C   0  0  0  0  0  0  0  0  0  0  0  0
  189.4260  177.5680  136.3100 C   0  0  0  0  0  3  0  0  0  0  0  0
  1  2  1  0  0  0  0
  2 17  2  0  0  0  0
  2  6  1  0  0  0  0
  3 13  2  0  0  0  0
  3  9  1  0  0  0  0
  4  1  1  0  0  0  0
  4 12  2  0  0  0  0
  5 19  1  0  0  0  0
  5 12  1  0  0  0  0
  6  3  1  0  0  0  0
  7 21  1  6  0  0  0
  7 11  1  0  0  0  0
  8 17  1  0  0  0  0
 10  7  1  0  0  0  0
 10 14  1  0  0  0  0
 11 16  1  0  0  0  0
 11  1  2  0  0  0  0
 14  4  1  0  0  0  0
 15 14  1  0  0  0  0
 15  5  2  0  0  0  0
 16  8  2  0  0  0  0
 17 18  1  0  0  0  0
 18 13  1  0  0  0  0
 20 19  1  0  0  0  0
 22 31  2  0  0  0  0
 22 28  1  0  0  0  0
 23 30  1  0  0  0  0
 24 25  1  0  0  0  0
 25 27  1  0  0  0  0
 26 22  1  0  0  0  0
 27 21  1  0  0  0  0
 28 23  2  0  0  0  0
 29 24  2  0  0  0  0
 29 30  1  0  0  0  0
 30 27  2  0  0  0  0
 31 29  1  0  0  0  0
M  END
>  <MODEL>
5

>  <REMARK>
 VINA RESULT:     -10.1      1.869      4.575
  Name = 
  3 active torsions:
  status: ('A' for Active; 'I' for Inactive)
    1  A    between atoms: C_2  and  C_13
    2  A    between atoms: C_9  and  C_23
    3  A    between atoms: C_15  and  C_23
                            x       y       z     vdW  Elec       q    Type
                         _______ _______ _______ _____ _____    ______ ____

>  <TORSDO>
F 3

$$$$
=
 OpenBabel11052413103D

 31 36  0  0  1  0  0  0  0  0999 V2000
  188.4360  177.6900  143.7680 C   0  0  0  0  0  0  0  0  0  0  0  0
  189.1070  177.5970  145.0080 C   0  0  0  0  0  0  0  0  0  0  0  0
  191.0270  176.7240  146.3450 C   0  0  0  0  0  0  0  0  0  0  0  0
  189.1130  177.6190  142.4560 C   0  0  0  0  0  0  0  0  0  0  0  0
  190.4510  177.3790  140.7740 C   0  0  0  0  0  0  0  0  0  0  0  0
  190.6080  177.4670  145.1030 C   0  0  0  0  0  2  0  0  0  0  0  0
  186.2640  177.8790  142.4480 C   0  0  1  0  0  3  0  0  0  0  0  0
  186.9810  177.8510  146.1390 C   0  0  0  0  0  3  0  0  0  0  0  0
  192.1690  175.9910  146.3340 F   0  0  0  0  0  0  0  0  0  0  0  0
  187.0940  178.4160  141.2690 C   0  0  0  0  0  2  0  0  0  0  0  0
  187.0350  177.8790  143.7590 C   0  0  0  0  0  0  0  0  0  0  0  0
  190.4200  177.2660  142.1590 C   0  0  0  0  0  3  0  0  0  0  0  0
  190.3000  176.7970  147.4700 C   0  0  0  0  0  3  0  0  0  0  0  0
  188.4540  177.8980  141.3210 N   0  0  0  0  0  0  0  0  0  0  0  0
  189.2610  177.7820  140.2850 N   0  0  0  0  0  0  0  0  0  0  0  0
  186.3550  177.9310  144.9380 N   0  0  0  0  0  0  0  0  0  0  0  0
  188.3620  177.6810  146.1990 C   0  0  0  0  0  0  0  0  0  0  0  0
  189.0500  177.6360  147.5330 C   0  0  0  0  0  2  0  0  0  0  0  0
  191.6540  177.1570  139.9280 C   0  0  0  0  0  2  0  0  0  0  0  0
  191.2420  176.6140  138.5750 C   0  0  0  0  0  1  0  0  0  0  0  0
  184.9630  178.6650  142.5590 C   0  0  0  0  0  2  0  0  0  0  0  0
  181.0760  178.2800  138.9870 C   0  0  0  0  0  0  0  0  0  0  0  0
  182.1630  177.9290  141.1570 C   0  0  0  0  0  3  0  0  0  0  0  0
  184.4140  179.8220  139.1730 N   0  0  0  0  0  0  0  0  0  0  0  0
  185.1450  179.7220  140.2810 N   0  0  0  0  0  2  0  0  0  0  0  0
  179.9060  178.0700  138.0950 C   0  0  0  0  0  1  0  0  0  0  0  0
  184.4470  179.0240  141.2050 C   0  0  0  0  0  0  0  0  0  0  0  0
  181.0660  177.7420  140.2950 C   0  0  0  0  0  3  0  0  0  0  0  0
  183.2550  179.1780  139.4000 C   0  0  0  0  0  0  0  0  0  0  0  0
  183.2390  178.6600  140.6620 C   0  0  0  0  0  0  0  0  0  0  0  0
  182.1870  179.0100  138.5230 C   0  0  0  0  0  3  0  0  0  0  0  0
  1  2  1  0  0  0  0
  2  6  1  0  0  0  0
  2 17  2  0  0  0  0
  3 13  2  0  0  0  0
  4  1  1  0  0  0  0
  5 12  1  0  0  0  0
  6  3  1  0  0  0  0
  7 21  1  1  0  0  0
  7 11  1  0  0  0  0
  8 17  1  0  0  0  0
  9  3  1  0  0  0  0
 10 14  1  0  0  0  0
 10  7  1  0  0  0  0
 11  1  2  0  0  0  0
 11 16  1  0  0  0  0
 12  4  2  0  0  0  0
 13 18  1  0  0  0  0
 14  4  1  0  0  0  0
 15  5  2  0  0  0  0
 15 14  1  0  0  0  0
 16  8  2  0  0  0  0
 17 18  1  0  0  0  0
 19  5  1  0  0  0  0
 20 19  1  0  0  0  0
 22 28  1  0  0  0  0
 24 29  2  0  0  0  0
 24 25  1  0  0  0  0
 25 27  1  0  0  0  0
 26 22  1  0  0  0  0
 27 21  1  0  0  0  0
 28 23  2  0  0  0  0
 29 30  1  0  0  0  0
 30 23  1  0  0  0  0
 30 27  2  0  0  0  0
 31 22  2  0  0  0  0
 31 29  1  0  0  0  0
M  END
>  <MODEL>
6

>  <REMARK>
 VINA RESULT:      -9.9      3.017      5.932
  Name = 
  3 active torsions:
  status: ('A' for Active; 'I' for Inactive)
    1  A    between atoms: C_2  and  C_13
    2  A    between atoms: C_9  and  C_23
    3  A    between atoms: C_15  and  C_23
                            x       y       z     vdW  Elec       q    Type
                         _______ _______ _______ _____ _____    ______ ____

>  <TORSDO>
F 3

$$$$
=
 OpenBabel11052413103D

 31 36  0  0  1  0  0  0  0  0999 V2000
  187.1200  177.9860  144.3410 C   0  0  0  0  0  0  0  0  0  0  0  0
  187.6680  177.8920  145.6400 C   0  0  0  0  0  0  0  0  0  0  0  0
  189.3260  176.8590  147.1960 C   0  0  0  0  0  0  0  0  0  0  0  0
  187.8820  177.7230  143.1010 C   0  0  0  0  0  0  0  0  0  0  0  0
  189.3010  177.1740  141.5660 C   0  0  0  0  0  0  0  0  0  0  0  0
  189.1220  177.5590  145.8770 C   0  0  0  0  0  2  0  0  0  0  0  0
  185.1120  178.3800  142.8210 C   0  0  1  0  0  3  0  0  0  0  0  0
  185.5180  178.5250  146.5570 C   0  0  0  0  0  3  0  0  0  0  0  0
  190.3460  175.9740  147.3320 F   0  0  0  0  0  0  0  0  0  0  0  0
  186.1040  178.7060  141.6910 C   0  0  0  0  0  2  0  0  0  0  0  0
  185.7670  178.3690  144.1930 C   0  0  0  0  0  0  0  0  0  0  0  0
  189.1420  177.1690  142.9460 C   0  0  0  0  0  3  0  0  0  0  0  0
  188.5290  177.1170  148.2430 C   0  0  0  0  0  3  0  0  0  0  0  0
  187.3640  178.0070  141.8970 N   0  0  0  0  0  0  0  0  0  0  0  0
  188.2260  177.7020  140.9470 N   0  0  0  0  0  0  0  0  0  0  0  0
  185.0090  178.6030  145.3010 N   0  0  0  0  0  0  0  0  0  0  0  0
  186.8500  178.1680  146.7510 C   0  0  0  0  0  0  0  0  0  0  0  0
  187.4150  178.1250  148.1420 C   0  0  0  0  0  2  0  0  0  0  0  0
  190.5230  176.7230  140.8470 C   0  0  0  0  0  2  0  0  0  0  0  0
  191.7270  177.5050  141.3330 C   0  0  0  0  0  1  0  0  0  0  0  0
  183.9350  179.3470  142.7660 C   0  0  0  0  0  2  0  0  0  0  0  0
  182.0070  178.0600  138.0070 C   0  0  0  0  0  0  0  0  0  0  0  0
  183.6880  178.8830  139.5920 C   0  0  0  0  0  3  0  0  0  0  0  0
  180.8440  177.9500  141.4980 N   0  0  0  0  0  0  0  0  0  0  0  0
  181.6320  178.3660  142.4880 N   0  0  0  0  0  0  0  0  0  0  0  0
  181.6090  177.7660  136.6060 C   0  0  0  0  0  1  0  0  0  0  0  0
  182.8140  178.7680  141.9670 C   0  0  0  0  0  0  0  0  0  0  0  0
  183.2890  178.5960  138.2730 C   0  0  0  0  0  3  0  0  0  0  0  0
  181.5320  178.0980  140.3520 C   0  0  0  0  0  0  0  0  0  0  0  0
  182.7710  178.6130  140.6040 C   0  0  0  0  0  0  0  0  0  0  0  0
  181.1060  177.8060  139.0590 C   0  0  0  0  0  2  0  0  0  0  0  0
  1  2  1  0  0  0  0
  2  6  1  0  0  0  0
  2 17  2  0  0  0  0
  3  9  1  0  0  0  0
  3 13  2  0  0  0  0
  4  1  1  0  0  0  0
  5 12  1  0  0  0  0
  6  3  1  0  0  0  0
  7 21  1  1  0  0  0
  7 11  1  0  0  0  0
  8 17  1  0  0  0  0
 10 14  1  0  0  0  0
 10  7  1  0  0  0  0
 11  1  2  0  0  0  0
 11 16  1  0  0  0  0
 12  4  2  0  0  0  0
 14  4  1  0  0  0  0
 15  5  2  0  0  0  0
 15 14  1  0  0  0  0
 16  8  2  0  0  0  0
 17 18  1  0  0  0  0
 18 13  1  0  0  0  0
 19 20  1  0  0  0  0
 19  5  1  0  0  0  0
 22 28  2  0  0  0  0
 22 31  1  0  0  0  0
 23 30  2  0  0  0  0
 24 25  1  0  0  0  0
 26 22  1  0  0  0  0
 27 25  2  0  0  0  0
 27 21  1  0  0  0  0
 28 23  1  0  0  0  0
 29 30  1  0  0  0  0
 29 24  2  0  0  0  0
 30 27  1  0  0  0  0
 31 29  1  0  0  0  0
M  END
>  <MODEL>
7

>  <REMARK>
 VINA RESULT:      -9.5      3.143      5.781
  Name = 
  3 active torsions:
  status: ('A' for Active; 'I' for Inactive)
    1  A    between atoms: C_2  and  C_13
    2  A    between atoms: C_9  and  C_23
    3  A    between atoms: C_15  and  C_23
                            x       y       z     vdW  Elec       q    Type
                         _______ _______ _______ _____ _____    ______ ____

>  <TORSDO>
F 3

$$$$
=
 OpenBabel11052413103D

 31 36  0  0  1  0  0  0  0  0999 V2000
  188.6530  177.7470  142.3940 C   0  0  0  0  0  0  0  0  0  0  0  0
  187.3710  178.2240  142.7500 C   0  0  0  0  0  0  0  0  0  0  0  0
  185.4680  178.2510  144.3670 C   0  0  0  0  0  0  0  0  0  0  0  0
  189.6850  177.3430  143.3720 C   0  0  0  0  0  0  0  0  0  0  0  0
  190.8620  176.7780  145.0950 C   0  0  0  0  0  0  0  0  0  0  0  0
  186.9550  178.4160  144.1890 C   0  0  0  0  0  2  0  0  0  0  0  0
  190.3240  177.0510  140.5990 C   0  0  1  0  0  3  0  0  0  0  0  0
  186.8430  178.4620  140.3990 C   0  0  0  0  0  3  0  0  0  0  0  0
  184.9830  177.7860  145.5460 F   0  0  0  0  0  0  0  0  0  0  0  0
  191.4410  177.2810  141.6310 C   0  0  0  0  0  2  0  0  0  0  0  0
  188.9950  177.6570  141.0250 C   0  0  0  0  0  0  0  0  0  0  0  0
  189.5730  177.1570  144.7410 C   0  0  0  0  0  3  0  0  0  0  0  0
  184.6160  178.5800  143.3850 C   0  0  0  0  0  3  0  0  0  0  0  0
  190.9400  177.0760  142.9830 N   0  0  0  0  0  0  0  0  0  0  0  0
  191.6820  176.7540  144.0240 N   0  0  0  0  0  0  0  0  0  0  0  0
  188.0770  177.9950  140.0780 N   0  0  0  0  0  0  0  0  0  0  0  0
  186.4660  178.5830  141.7330 C   0  0  0  0  0  0  0  0  0  0  0  0
  185.1150  179.1400  142.0790 C   0  0  0  0  0  2  0  0  0  0  0  0
  191.3170  176.4990  146.4840 C   0  0  0  0  0  2  0  0  0  0  0  0
  190.1860  176.7550  147.4590 C   0  0  0  0  0  1  0  0  0  0  0  0
  190.7680  177.5700  139.2370 C   0  0  0  0  0  2  0  0  0  0  0  0
  192.2850  173.3230  136.4660 C   0  0  0  0  0  0  0  0  0  0  0  0
  190.6840  174.9170  137.4200 C   0  0  0  0  0  3  0  0  0  0  0  0
  193.9220  176.0230  138.3590 N   0  0  0  0  0  0  0  0  0  0  0  0
  193.1980  176.9720  138.9480 N   0  0  0  0  0  0  0  0  0  0  0  0
  192.5450  172.0940  135.6730 C   0  0  0  0  0  1  0  0  0  0  0  0
  191.8880  176.7420  138.6980 C   0  0  0  0  0  0  0  0  0  0  0  0
  190.9540  173.7560  136.6710 C   0  0  0  0  0  3  0  0  0  0  0  0
  193.0630  175.1900  137.7430 C   0  0  0  0  0  0  0  0  0  0  0  0
  191.7780  175.6050  137.9360 C   0  0  0  0  0  0  0  0  0  0  0  0
  193.3640  174.0460  137.0100 C   0  0  0  0  0  2  0  0  0  0  0  0
  1  2  1  0  0  0  0
  1  4  1  0  0  0  0
  2  6  1  0  0  0  0
  3  9  1  0  0  0  0
  4 12  2  0  0  0  0
  5 19  1  0  0  0  0
  6  3  1  0  0  0  0
  7 21  1  6  0  0  0
  7 11  1  0  0  0  0
  7 10  1  0  0  0  0
  8 17  1  0  0  0  0
 10 14  1  0  0  0  0
 11  1  2  0  0  0  0
 12  5  1  0  0  0  0
 13  3  2  0  0  0  0
 14  4  1  0  0  0  0
 14 15  1  0  0  0  0
 15  5  2  0  0  0  0
 16  8  2  0  0  0  0
 16 11  1  0  0  0  0
 17 18  1  0  0  0  0
 17  2  2  0  0  0  0
 18 13  1  0  0  0  0
 19 20  1  0  0  0  0
 22 28  2  0  0  0  0
 22 31  1  0  0  0  0
 23 30  2  0  0  0  0
 24 25  1  0  0  0  0
 26 22  1  0  0  0  0
 27 25  2  0  0  0  0
 27 21  1  0  0  0  0
 28 23  1  0  0  0  0
 29 30  1  0  0  0  0
 29 24  2  0  0  0  0
 30 27  1  0  0  0  0
 31 29  1  0  0  0  0
M  END
>  <MODEL>
8

>  <REMARK>
 VINA RESULT:      -9.3      2.025      2.642
  Name = 
  3 active torsions:
  status: ('A' for Active; 'I' for Inactive)
    1  A    between atoms: C_2  and  C_13
    2  A    between atoms: C_9  and  C_23
    3  A    between atoms: C_15  and  C_23
                            x       y       z     vdW  Elec       q    Type
                         _______ _______ _______ _____ _____    ______ ____

>  <TORSDO>
F 3

$$$$
=
 OpenBabel11052413103D

 31 36  0  0  1  0  0  0  0  0999 V2000
  185.8330  178.3820  142.9150 C   0  0  0  0  0  0  0  0  0  0  0  0
  186.2100  178.3510  144.2760 C   0  0  0  0  0  0  0  0  0  0  0  0
  187.7860  177.5610  146.0450 C   0  0  0  0  0  0  0  0  0  0  0  0
  186.7850  178.2640  141.7910 C   0  0  0  0  0  0  0  0  0  0  0  0
  188.4650  177.9690  140.4620 C   0  0  0  0  0  0  0  0  0  0  0  0
  187.6530  178.2440  144.7090 C   0  0  0  0  0  2  0  0  0  0  0  0
  184.0100  178.4870  141.1370 C   0  0  1  0  0  3  0  0  0  0  0  0
  183.8850  178.6270  144.8930 C   0  0  0  0  0  3  0  0  0  0  0  0
  188.9040  176.8430  146.3210 F   0  0  0  0  0  0  0  0  0  0  0  0
  185.0800  178.9840  140.1500 C   0  0  0  0  0  2  0  0  0  0  0  0
  184.4690  178.5530  142.5850 C   0  0  0  0  0  0  0  0  0  0  0  0
  188.1260  177.9150  141.8090 C   0  0  0  0  0  3  0  0  0  0  0  0
  186.8250  177.6730  146.9750 C   0  0  0  0  0  3  0  0  0  0  0  0
  186.3960  178.4850  140.5270 N   0  0  0  0  0  0  0  0  0  0  0  0
  187.4130  178.3350  139.7030 N   0  0  0  0  0  0  0  0  0  0  0  0
  183.5420  178.6470  143.5800 N   0  0  0  0  0  0  0  0  0  0  0  0
  185.2170  178.4760  145.2660 C   0  0  0  0  0  0  0  0  0  0  0  0
  185.5910  178.4970  146.7210 C   0  0  0  0  0  2  0  0  0  0  0  0
  189.8280  177.7260  139.9170 C   0  0  0  0  0  2  0  0  0  0  0  0
  189.7830  177.7100  138.4020 C   0  0  0  0  0  1  0  0  0  0  0  0
  182.7140  179.2600  140.9200 C   0  0  0  0  0  2  0  0  0  0  0  0
  180.7430  181.3300  136.4650 C   0  0  0  0  0  0  0  0  0  0  0  0
  181.7110  181.3800  138.7180 C   0  0  0  0  0  3  0  0  0  0  0  0
  181.4730  177.9680  137.7740 N   0  0  0  0  0  0  0  0  0  0  0  0
  181.9980  177.8130  138.9880 N   0  0  0  0  0  2  0  0  0  0  0  0
  180.1990  182.0630  135.2930 C   0  0  0  0  0  1  0  0  0  0  0  0
  182.1890  179.0320  139.5410 C   0  0  0  0  0  0  0  0  0  0  0  0
  181.1920  182.0520  137.5960 C   0  0  0  0  0  3  0  0  0  0  0  0
  181.3280  179.2890  137.5680 C   0  0  0  0  0  0  0  0  0  0  0  0
  181.7610  179.9900  138.6560 C   0  0  0  0  0  0  0  0  0  0  0  0
  180.8070  179.9240  136.4430 C   0  0  0  0  0  3  0  0  0  0  0  0
  1  2  1  0  0  0  0
  2  6  1  0  0  0  0
  2 17  2  0  0  0  0
  3  9  1  0  0  0  0
  3 13  2  0  0  0  0
  4 12  2  0  0  0  0
  4  1  1  0  0  0  0
  5 12  1  0  0  0  0
  6  3  1  0  0  0  0
  7 21  1  1  0  0  0
  7 11  1  0  0  0  0
  8 17  1  0  0  0  0
 10 14  1  0  0  0  0
 10  7  1  0  0  0  0
 11  1  2  0  0  0  0
 11 16  1  0  0  0  0
 14  4  1  0  0  0  0
 15  5  2  0  0  0  0
 15 14  1  0  0  0  0
 16  8  2  0  0  0  0
 17 18  1  0  0  0  0
 18 13  1  0  0  0  0
 19  5  1  0  0  0  0
 20 19  1  0  0  0  0
 22 28  1  0  0  0  0
 24 25  1  0  0  0  0
 25 27  1  0  0  0  0
 26 22  1  0  0  0  0
 27 21  1  0  0  0  0
 28 23  2  0  0  0  0
 29 24  2  0  0  0  0
 29 30  1  0  0  0  0
 30 23  1  0  0  0  0
 30 27  2  0  0  0  0
 31 22  2  0  0  0  0
 31 29  1  0  0  0  0
M  END
>  <MODEL>
9

>  <REMARK>
 VINA RESULT:      -9.2      3.976      6.396
  Name = 
  3 active torsions:
  status: ('A' for Active; 'I' for Inactive)
    1  A    between atoms: C_2  and  C_13
    2  A    between atoms: C_9  and  C_23
    3  A    between atoms: C_15  and  C_23
                            x       y       z     vdW  Elec       q    Type
                         _______ _______ _______ _____ _____    ______ ____

>  <TORSDO>
F 3

$$$$
