=
 OpenBabel11052414413D

 32 37  0  0  1  0  0  0  0  0999 V2000
  186.5210  177.9590  137.4670 C   0  0  1  0  0  0  0  0  0  0  0  0
  188.5330  177.6090  138.8390 C   0  0  1  0  0  3  0  0  0  0  0  0
  185.8180  178.3470  136.1830 C   0  0  0  0  0  2  0  0  0  0  0  0
  188.0150  178.3060  137.5830 C   0  0  1  0  0  3  0  0  0  0  0  0
  190.0680  177.6070  138.8880 C   0  0  1  0  0  3  0  0  0  0  0  0
  188.2530  176.7180  144.4940 C   0  0  0  0  0  1  0  0  0  0  0  0
  187.8690  178.2750  140.0470 C   0  0  1  0  0  3  0  0  0  0  0  0
  190.4540  177.4050  143.0190 S   0  0  0  0  0  0  0  0  0  0  0  0
  189.9100  177.9170  141.3730 C   0  0  1  0  0  3  0  0  0  0  0  0
  188.8930  178.0740  136.3340 C   0  0  0  0  0  2  0  0  0  0  0  0
  190.6120  177.1550  140.2550 C   0  0  0  0  0  2  0  0  0  0  0  0
  189.7410  176.8080  136.4420 C   0  0  0  0  0  2  0  0  0  0  0  0
  184.9350  176.0770  136.7220 C   0  0  0  0  0  1  0  0  0  0  0  0
  186.3610  178.1640  139.9470 C   0  0  0  0  0  3  0  0  0  0  0  0
  185.7100  178.0670  138.7640 C   0  0  0  0  0  0  0  0  0  0  0  0
  188.4240  177.6610  141.3260 C   0  0  1  0  0  3  0  0  0  0  0  0
  190.6400  176.7920  137.6950 C   0  0  2  0  0  3  0  0  0  0  0  0
  186.1880  176.8850  136.4260 C   0  0  2  0  0  3  0  0  0  0  0  0
  188.8330  177.8850  143.7210 C   0  0  1  0  0  3  0  0  0  0  0  0
  187.8830  178.2790  142.5950 C   0  0  0  0  0  2  0  0  0  0  0  0
  182.3530  179.8970  139.3430 N   0  0  0  0  0  0  0  0  0  0  0  0
  180.0400  177.6420  138.9920 O   0  0  0  0  0  0  0  0  0  0  0  0
  181.8540  181.1220  139.0500 O   0  0  0  0  0  1  0  0  0  0  0  0
  182.1920  176.7140  139.1430 C   0  0  0  0  0  2  0  0  0  0  0  0
  184.2010  178.1680  138.7480 C   0  0  1  0  0  3  0  0  0  0  0  0
  181.5390  179.0160  140.1690 C   0  0  0  0  0  2  0  0  0  0  0  0
  183.5750  177.1060  139.6490 C   0  0  0  0  0  2  0  0  0  0  0  0
  183.7090  179.5920  138.9680 C   0  0  0  0  0  0  0  0  0  0  0  0
  184.4820  180.5480  138.6880 O   0  0  0  0  0  0  0  0  0  0  0  0
  181.1760  177.7800  139.4120 C   0  0  0  0  0  0  0  0  0  0  0  0
  191.0250  175.3480  138.0370 C   0  0  0  0  0  2  0  0  0  0  0  0
  190.2430  174.3340  137.2110 C   0  0  0  0  0  1  0  0  0  0  0  0
  1  3  1  6  0  0  0
  1  4  1  0  0  0  0
  1 15  1  0  0  0  0
  2  5  1  0  0  0  0
  2  7  1  0  0  0  0
  3 18  1  0  0  0  0
  4  2  1  0  0  0  0
  5 11  1  0  0  0  0
  7 16  1  0  0  0  0
  8 19  1  0  0  0  0
  9  8  1  0  0  0  0
 10 12  1  0  0  0  0
 10  4  1  0  0  0  0
 11  9  1  0  0  0  0
 12 17  1  0  0  0  0
 14  7  1  0  0  0  0
 15 14  2  0  0  0  0
 16  9  1  0  0  0  0
 16 20  1  0  0  0  0
 17 31  1  0  0  0  0
 17  5  1  0  0  0  0
 18 13  1  0  0  0  0
 18  1  1  0  0  0  0
 19  6  1  0  0  0  0
 20 19  1  0  0  0  0
 21 26  1  0  0  0  0
 22 30  2  0  0  0  0
 23 21  1  0  0  0  0
 24 30  1  0  0  0  0
 24 27  1  0  0  0  0
 25 15  1  0  0  0  0
 25 28  1  0  0  0  0
 25 27  1  0  0  0  0
 28 21  1  0  0  0  0
 29 28  2  0  0  0  0
 30 26  1  0  0  0  0
 32 31  1  0  0  0  0
M  END
>  <MODEL>
1

>  <REMARK>
 VINA RESULT:      -6.7      0.000      0.000
  Name = 
  2 active torsions:
  status: ('A' for Active; 'I' for Inactive)
    1  A    between atoms: C_13  and  C_29
    2  A    between atoms: C_16  and  C_27
                            x       y       z     vdW  Elec       q    Type
                         _______ _______ _______ _____ _____    ______ ____

>  <TORSDO>
F 2

$$$$
=
 OpenBabel11052414413D

 32 37  0  0  1  0  0  0  0  0999 V2000
  183.9460  177.3450  136.7720 C   0  0  1  0  0  0  0  0  0  0  0  0
  186.3770  177.1340  137.0920 C   0  0  1  0  0  3  0  0  0  0  0  0
  182.7140  177.5400  135.9130 C   0  0  0  0  0  2  0  0  0  0  0  0
  185.3100  177.6290  136.1180 C   0  0  1  0  0  3  0  0  0  0  0  0
  187.7570  177.0600  136.4240 C   0  0  1  0  0  3  0  0  0  0  0  0
  188.7890  177.2510  142.2900 C   0  0  0  0  0  1  0  0  0  0  0  0
  186.3270  178.0320  138.3310 C   0  0  1  0  0  3  0  0  0  0  0  0
  190.0270  177.5570  139.8680 S   0  0  0  0  0  0  0  0  0  0  0  0
  188.7620  177.8040  138.6000 C   0  0  1  0  0  3  0  0  0  0  0  0
  185.5130  177.1390  134.6680 C   0  0  0  0  0  2  0  0  0  0  0  0
  188.8900  176.8250  137.4390 C   0  0  0  0  0  2  0  0  0  0  0  0
  186.3590  175.8680  134.5940 C   0  0  0  0  0  2  0  0  0  0  0  0
  182.2630  175.4470  137.1930 C   0  0  0  0  0  1  0  0  0  0  0  0
  184.9500  177.9840  138.9630 C   0  0  0  0  0  3  0  0  0  0  0  0
  183.8280  177.7170  138.2550 C   0  0  0  0  0  0  0  0  0  0  0  0
  187.4340  177.6210  139.2930 C   0  0  1  0  0  3  0  0  0  0  0  0
  187.7380  176.0230  135.2680 C   0  0  2  0  0  3  0  0  0  0  0  0
  183.2060  176.1260  136.2130 C   0  0  2  0  0  3  0  0  0  0  0  0
  188.9020  178.2340  141.1430 C   0  0  1  0  0  3  0  0  0  0  0  0
  187.5240  178.4760  140.5360 C   0  0  0  0  0  2  0  0  0  0  0  0
  181.0670  179.7900  139.9970 N   0  0  0  0  0  0  0  0  0  0  0  0
  178.9310  177.6310  141.1520 O   0  0  0  0  0  0  0  0  0  0  0  0
  180.4490  180.9730  139.7610 O   0  0  0  0  0  1  0  0  0  0  0  0
  180.9360  176.6310  140.4460 C   0  0  0  0  0  2  0  0  0  0  0  0
  182.4820  177.8920  138.9220 C   0  0  1  0  0  3  0  0  0  0  0  0
  180.7600  179.1040  141.2430 C   0  0  0  0  0  2  0  0  0  0  0  0
  182.3820  177.0300  140.1780 C   0  0  0  0  0  2  0  0  0  0  0  0
  182.1020  179.3560  139.0960 C   0  0  0  0  0  0  0  0  0  0  0  0
  182.6250  180.2110  138.3290 O   0  0  0  0  0  0  0  0  0  0  0  0
  180.1270  177.7780  140.9670 C   0  0  0  0  0  0  0  0  0  0  0  0
  188.2870  174.6420  135.6420 C   0  0  0  0  0  2  0  0  0  0  0  0
  187.1840  173.6770  136.0570 C   0  0  0  0  0  1  0  0  0  0  0  0
  1  3  1  6  0  0  0
  1 15  1  0  0  0  0
  2  7  1  0  0  0  0
  3 18  1  0  0  0  0
  4  1  1  0  0  0  0
  4  2  1  0  0  0  0
  5  2  1  0  0  0  0
  5 11  1  0  0  0  0
  7 14  1  0  0  0  0
  7 16  1  0  0  0  0
  8 19  1  0  0  0  0
  9 16  1  0  0  0  0
  9  8  1  0  0  0  0
 10  4  1  0  0  0  0
 11  9  1  0  0  0  0
 12 10  1  0  0  0  0
 12 17  1  0  0  0  0
 15 25  1  0  0  0  0
 15 14  2  0  0  0  0
 16 20  1  0  0  0  0
 17 31  1  0  0  0  0
 17  5  1  0  0  0  0
 18  1  1  0  0  0  0
 18 13  1  0  0  0  0
 19  6  1  0  0  0  0
 20 19  1  0  0  0  0
 21 26  1  0  0  0  0
 23 21  1  0  0  0  0
 24 30  1  0  0  0  0
 25 28  1  0  0  0  0
 25 27  1  0  0  0  0
 27 24  1  0  0  0  0
 28 21  1  0  0  0  0
 29 28  2  0  0  0  0
 30 22  2  0  0  0  0
 30 26  1  0  0  0  0
 31 32  1  0  0  0  0
M  END
>  <MODEL>
2

>  <REMARK>
 VINA RESULT:      -5.7      1.717      2.679
  Name = 
  2 active torsions:
  status: ('A' for Active; 'I' for Inactive)
    1  A    between atoms: C_13  and  C_29
    2  A    between atoms: C_16  and  C_27
                            x       y       z     vdW  Elec       q    Type
                         _______ _______ _______ _____ _____    ______ ____

>  <TORSDO>
F 2

$$$$
=
 OpenBabel11052414413D

 32 37  0  0  1  0  0  0  0  0999 V2000
  186.6680  178.1830  139.2780 C   0  0  1  0  0  0  0  0  0  0  0  0
  187.6090  178.0520  141.5480 C   0  0  1  0  0  3  0  0  0  0  0  0
  186.7760  178.4370  137.7890 C   0  0  0  0  0  2  0  0  0  0  0  0
  187.8510  178.6280  140.1550 C   0  0  1  0  0  3  0  0  0  0  0  0
  188.8670  178.1480  142.4220 C   0  0  1  0  0  3  0  0  0  0  0  0
  184.2970  177.5340  146.1970 C   0  0  0  0  0  1  0  0  0  0  0  0
  186.3820  178.7560  142.1350 C   0  0  1  0  0  3  0  0  0  0  0  0
  186.9360  178.2530  146.0990 S   0  0  0  0  0  0  0  0  0  0  0  0
  187.3720  178.6170  144.3830 C   0  0  1  0  0  3  0  0  0  0  0  0
  189.2720  178.3660  139.6100 C   0  0  0  0  0  2  0  0  0  0  0  0
  188.5820  177.8250  143.9010 C   0  0  0  0  0  2  0  0  0  0  0  0
  189.9420  177.1650  140.2760 C   0  0  0  0  0  2  0  0  0  0  0  0
  185.7750  176.1590  137.9660 C   0  0  0  0  0  1  0  0  0  0  0  0
  185.1760  178.5450  141.2430 C   0  0  0  0  0  3  0  0  0  0  0  0
  185.2790  178.3280  139.9110 C   0  0  0  0  0  0  0  0  0  0  0  0
  186.1570  178.2660  143.5600 C   0  0  1  0  0  3  0  0  0  0  0  0
  190.0100  177.2900  141.8130 C   0  0  2  0  0  3  0  0  0  0  0  0
  186.9740  177.0210  138.3260 C   0  0  2  0  0  3  0  0  0  0  0  0
  185.1880  178.6780  145.7610 C   0  0  1  0  0  3  0  0  0  0  0  0
  185.0020  178.9350  144.2690 C   0  0  0  0  0  2  0  0  0  0  0  0
  182.0730  179.9510  138.4800 N   0  0  0  0  0  0  0  0  0  0  0  0
  180.4370  177.5520  137.0220 O   0  0  0  0  0  0  0  0  0  0  0  0
  181.7610  181.1390  137.9090 O   0  0  0  0  0  1  0  0  0  0  0  0
  182.1960  176.7620  138.3650 C   0  0  0  0  0  2  0  0  0  0  0  0
  184.0220  178.3340  139.0680 C   0  0  1  0  0  3  0  0  0  0  0  0
  180.9820  179.0310  138.7650 C   0  0  0  0  0  2  0  0  0  0  0  0
  183.0550  177.2450  139.5260 C   0  0  0  0  0  2  0  0  0  0  0  0
  183.4250  179.7270  138.9210 C   0  0  0  0  0  0  0  0  0  0  0  0
  184.1800  180.7260  139.0670 O   0  0  0  0  0  0  0  0  0  0  0  0
  181.1500  177.7650  137.9880 C   0  0  0  0  0  0  0  0  0  0  0  0
  190.1660  175.8990  142.4370 C   0  0  0  0  0  2  0  0  0  0  0  0
  191.3170  175.8420  143.4330 C   0  0  0  0  0  1  0  0  0  0  0  0
  1  3  1  6  0  0  0
  1 15  1  0  0  0  0
  1  4  1  0  0  0  0
  2  7  1  0  0  0  0
  2  5  1  0  0  0  0
  3 18  1  0  0  0  0
  4  2  1  0  0  0  0
  5 11  1  0  0  0  0
  7 16  1  0  0  0  0
  9  8  1  0  0  0  0
 10  4  1  0  0  0  0
 10 12  1  0  0  0  0
 11  9  1  0  0  0  0
 12 17  1  0  0  0  0
 13 18  1  0  0  0  0
 14  7  1  0  0  0  0
 15 14  2  0  0  0  0
 16 20  1  0  0  0  0
 16  9  1  0  0  0  0
 17  5  1  0  0  0  0
 17 31  1  0  0  0  0
 18  1  1  0  0  0  0
 19  8  1  0  0  0  0
 19  6  1  0  0  0  0
 20 19  1  0  0  0  0
 21 26  1  0  0  0  0
 21 28  1  0  0  0  0
 22 30  2  0  0  0  0
 23 21  1  0  0  0  0
 24 27  1  0  0  0  0
 25 27  1  0  0  0  0
 25 15  1  0  0  0  0
 28 29  2  0  0  0  0
 28 25  1  0  0  0  0
 30 24  1  0  0  0  0
 30 26  1  0  0  0  0
 31 32  1  0  0  0  0
M  END
>  <MODEL>
3

>  <REMARK>
 VINA RESULT:      -5.4      1.933      3.000
  Name = 
  2 active torsions:
  status: ('A' for Active; 'I' for Inactive)
    1  A    between atoms: C_13  and  C_29
    2  A    between atoms: C_16  and  C_27
                            x       y       z     vdW  Elec       q    Type
                         _______ _______ _______ _____ _____    ______ ____

>  <TORSDO>
F 2

$$$$
=
 OpenBabel11052414413D

 32 37  0  0  1  0  0  0  0  0999 V2000
  182.2340  176.2070  136.6640 C   0  0  1  0  0  0  0  0  0  0  0  0
  184.5740  175.6370  136.1590 C   0  0  1  0  0  3  0  0  0  0  0  0
  180.7410  176.0760  136.4490 C   0  0  0  0  0  2  0  0  0  0  0  0
  183.1540  175.5860  135.5990 C   0  0  1  0  0  3  0  0  0  0  0  0
  185.5320  174.7600  135.3400 C   0  0  1  0  0  3  0  0  0  0  0  0
  188.9700  178.6460  138.2720 C   0  0  0  0  0  1  0  0  0  0  0  0
  184.9870  177.1090  136.2430 C   0  0  1  0  0  3  0  0  0  0  0  0
  189.0130  176.8590  136.1990 S   0  0  0  0  0  0  0  0  0  0  0  0
  187.3100  176.4910  135.7180 C   0  0  1  0  0  3  0  0  0  0  0  0
  182.7530  174.2040  135.0380 C   0  0  0  0  0  2  0  0  0  0  0  0
  187.0080  174.9980  135.7110 C   0  0  0  0  0  2  0  0  0  0  0  0
  183.5880  173.0690  135.6300 C   0  0  0  0  0  2  0  0  0  0  0  0
  181.0630  175.6610  138.8880 C   0  0  0  0  0  1  0  0  0  0  0  0
  184.0260  177.8770  137.1280 C   0  0  0  0  0  3  0  0  0  0  0  0
  182.7350  177.5090  137.3000 C   0  0  0  0  0  0  0  0  0  0  0  0
  186.4310  177.1970  136.7210 C   0  0  1  0  0  3  0  0  0  0  0  0
  185.1040  173.2700  135.4300 C   0  0  2  0  0  3  0  0  0  0  0  0
  181.4300  175.1950  137.4890 C   0  0  2  0  0  3  0  0  0  0  0  0
  188.4950  178.4920  136.8420 C   0  0  1  0  0  3  0  0  0  0  0  0
  186.9750  178.6060  136.7900 C   0  0  0  0  0  2  0  0  0  0  0  0
  180.6460  180.7440  137.6540 N   0  0  0  0  0  0  0  0  0  0  0  0
  179.6650  180.8330  140.7510 O   0  0  0  0  0  0  0  0  0  0  0  0
  179.7730  181.4240  136.8730 O   0  0  0  0  0  1  0  0  0  0  0  0
  181.3260  179.2150  140.3740 C   0  0  0  0  0  2  0  0  0  0  0  0
  181.7990  178.4440  138.0320 C   0  0  1  0  0  3  0  0  0  0  0  0
  181.0390  181.3530  138.9170 C   0  0  0  0  0  2  0  0  0  0  0  0
  182.4120  178.9050  139.3520 C   0  0  0  0  0  2  0  0  0  0  0  0
  181.2580  179.5490  137.1350 C   0  0  0  0  0  0  0  0  0  0  0  0
  181.2280  179.3540  135.8890 O   0  0  0  0  0  0  0  0  0  0  0  0
  180.6150  180.4950  140.0650 C   0  0  0  0  0  0  0  0  0  0  0  0
  185.8750  172.4470  136.4690 C   0  0  0  0  0  2  0  0  0  0  0  0
  185.3500  172.6660  137.8820 C   0  0  0  0  0  1  0  0  0  0  0  0
  1  3  1  6  0  0  0
  1 15  1  0  0  0  0
  1 18  1  0  0  0  0
  2  7  1  0  0  0  0
  3 18  1  0  0  0  0
  4  2  1  0  0  0  0
  4  1  1  0  0  0  0
  5 17  1  0  0  0  0
  5 11  1  0  0  0  0
  5  2  1  0  0  0  0
  7 16  1  0  0  0  0
  7 14  1  0  0  0  0
  8 19  1  0  0  0  0
  9  8  1  0  0  0  0
  9 16  1  0  0  0  0
 10  4  1  0  0  0  0
 10 12  1  0  0  0  0
 11  9  1  0  0  0  0
 14 15  2  0  0  0  0
 15 25  1  0  0  0  0
 16 20  1  0  0  0  0
 17 12  1  0  0  0  0
 17 31  1  0  0  0  0
 18 13  1  0  0  0  0
 19  6  1  0  0  0  0
 20 19  1  0  0  0  0
 21 26  1  0  0  0  0
 23 21  1  0  0  0  0
 25 27  1  0  0  0  0
 26 30  1  0  0  0  0
 27 24  1  0  0  0  0
 28 21  1  0  0  0  0
 28 25  1  0  0  0  0
 29 28  2  0  0  0  0
 30 24  1  0  0  0  0
 30 22  2  0  0  0  0
 31 32  1  0  0  0  0
M  END
>  <MODEL>
4

>  <REMARK>
 VINA RESULT:      -5.2      3.081      5.133
  Name = 
  2 active torsions:
  status: ('A' for Active; 'I' for Inactive)
    1  A    between atoms: C_13  and  C_29
    2  A    between atoms: C_16  and  C_27
                            x       y       z     vdW  Elec       q    Type
                         _______ _______ _______ _____ _____    ______ ____

>  <TORSDO>
F 2

$$$$
=
 OpenBabel11052414413D

 32 37  0  0  1  0  0  0  0  0999 V2000
  184.9270  177.1420  137.6110 C   0  0  1  0  0  0  0  0  0  0  0  0
  185.7840  178.0560  139.7290 C   0  0  1  0  0  3  0  0  0  0  0  0
  185.0140  176.8950  136.1190 C   0  0  0  0  0  2  0  0  0  0  0  0
  185.9050  178.1680  138.2110 C   0  0  1  0  0  3  0  0  0  0  0  0
  186.9310  178.7870  140.4400 C   0  0  1  0  0  3  0  0  0  0  0  0
  182.5830  178.2520  144.4800 C   0  0  0  0  0  1  0  0  0  0  0  0
  184.3880  178.5490  140.1210 C   0  0  1  0  0  3  0  0  0  0  0  0
  184.9150  179.5960  143.9810 S   0  0  0  0  0  0  0  0  0  0  0  0
  185.2940  179.4610  142.2190 C   0  0  1  0  0  3  0  0  0  0  0  0
  187.3610  178.1400  137.6970 C   0  0  0  0  0  2  0  0  0  0  0  0
  186.6940  178.9200  141.9550 C   0  0  0  0  0  2  0  0  0  0  0  0
  188.3170  177.4710  138.6850 C   0  0  0  0  0  2  0  0  0  0  0  0
  184.6880  174.6300  137.1130 C   0  0  0  0  0  1  0  0  0  0  0  0
  183.3230  177.7230  139.4290 C   0  0  0  0  0  3  0  0  0  0  0  0
  183.5310  177.1030  138.2430 C   0  0  0  0  0  0  0  0  0  0  0  0
  184.2580  178.5300  141.6390 C   0  0  1  0  0  3  0  0  0  0  0  0
  188.2900  178.1250  140.0830 C   0  0  2  0  0  3  0  0  0  0  0  0
  185.5820  175.8590  137.0870 C   0  0  2  0  0  3  0  0  0  0  0  0
  183.1320  179.3800  143.6300 C   0  0  1  0  0  3  0  0  0  0  0  0
  182.9360  179.0520  142.1530 C   0  0  0  0  0  2  0  0  0  0  0  0
  180.1170  177.2130  136.4300 N   0  0  0  0  0  0  0  0  0  0  0  0
  179.1680  174.1190  136.1360 O   0  0  0  0  0  0  0  0  0  0  0  0
  179.5670  177.9610  135.4440 O   0  0  0  0  0  1  0  0  0  0  0  0
  180.9870  174.3720  137.6010 C   0  0  0  0  0  2  0  0  0  0  0  0
  182.3560  176.4750  137.5280 C   0  0  1  0  0  3  0  0  0  0  0  0
  179.2570  176.2550  137.1110 C   0  0  0  0  0  2  0  0  0  0  0  0
  181.6460  175.4670  138.4290 C   0  0  0  0  0  2  0  0  0  0  0  0
  181.4580  177.5080  136.8610 C   0  0  0  0  0  0  0  0  0  0  0  0
  181.9500  178.6300  136.5580 O   0  0  0  0  0  0  0  0  0  0  0  0
  179.7580  174.8620  136.9010 C   0  0  0  0  0  0  0  0  0  0  0  0
  188.8090  177.1300  141.1270 C   0  0  0  0  0  2  0  0  0  0  0  0
  190.2870  176.8150  140.9390 C   0  0  0  0  0  1  0  0  0  0  0  0
  1  3  1  6  0  0  0
  1  4  1  0  0  0  0
  1 15  1  0  0  0  0
  2  7  1  0  0  0  0
  2  5  1  0  0  0  0
  3 18  1  0  0  0  0
  4  2  1  0  0  0  0
  5 11  1  0  0  0  0
  7 16  1  0  0  0  0
  9  8  1  0  0  0  0
 10  4  1  0  0  0  0
 10 12  1  0  0  0  0
 11  9  1  0  0  0  0
 12 17  1  0  0  0  0
 14  7  1  0  0  0  0
 15 14  2  0  0  0  0
 16 20  1  0  0  0  0
 16  9  1  0  0  0  0
 17  5  1  0  0  0  0
 17 31  1  0  0  0  0
 18 13  1  0  0  0  0
 18  1  1  0  0  0  0
 19  8  1  0  0  0  0
 19  6  1  0  0  0  0
 20 19  1  0  0  0  0
 21 28  1  0  0  0  0
 21 26  1  0  0  0  0
 22 30  2  0  0  0  0
 23 21  1  0  0  0  0
 24 27  1  0  0  0  0
 25 15  1  0  0  0  0
 25 27  1  0  0  0  0
 28 25  1  0  0  0  0
 29 28  2  0  0  0  0
 30 26  1  0  0  0  0
 30 24  1  0  0  0  0
 32 31  1  0  0  0  0
M  END
>  <MODEL>
5

>  <REMARK>
 VINA RESULT:      -5.2      2.620      3.893
  Name = 
  2 active torsions:
  status: ('A' for Active; 'I' for Inactive)
    1  A    between atoms: C_13  and  C_29
    2  A    between atoms: C_16  and  C_27
                            x       y       z     vdW  Elec       q    Type
                         _______ _______ _______ _____ _____    ______ ____

>  <TORSDO>
F 2

$$$$
=
 OpenBabel11052414413D

 32 37  0  0  1  0  0  0  0  0999 V2000
  181.1500  177.2960  139.5740 C   0  0  1  0  0  0  0  0  0  0  0  0
  180.1290  178.7930  137.9090 C   0  0  1  0  0  3  0  0  0  0  0  0
  181.1990  176.0170  140.3820 C   0  0  0  0  0  2  0  0  0  0  0  0
  179.8430  177.6030  138.8210 C   0  0  1  0  0  3  0  0  0  0  0  0
  179.0120  178.9890  136.8740 C   0  0  1  0  0  3  0  0  0  0  0  0
  181.8560  184.2150  137.2170 C   0  0  0  0  0  1  0  0  0  0  0  0
  180.3780  180.0130  138.8000 C   0  0  1  0  0  3  0  0  0  0  0  0
  179.5430  183.0690  136.3040 S   0  0  0  0  0  0  0  0  0  0  0  0
  179.3340  181.4660  137.1130 C   0  0  1  0  0  3  0  0  0  0  0  0
  179.1460  176.4240  138.1090 C   0  0  0  0  0  2  0  0  0  0  0  0
  179.1360  180.3260  136.1210 C   0  0  0  0  0  2  0  0  0  0  0  0
  179.3740  176.4350  136.5980 C   0  0  0  0  0  2  0  0  0  0  0  0
  183.4310  176.1460  139.2760 C   0  0  0  0  0  1  0  0  0  0  0  0
  181.5430  179.7530  139.7360 C   0  0  0  0  0  3  0  0  0  0  0  0
  181.8890  178.5120  140.1470 C   0  0  0  0  0  0  0  0  0  0  0  0
  180.5870  181.2410  137.9230 C   0  0  1  0  0  3  0  0  0  0  0  0
  178.9310  177.7550  135.9330 C   0  0  2  0  0  3  0  0  0  0  0  0
  181.9300  176.0880  139.0430 C   0  0  2  0  0  3  0  0  0  0  0  0
  180.5340  183.6720  137.7200 C   0  0  1  0  0  3  0  0  0  0  0  0
  180.7860  182.5250  138.6940 C   0  0  0  0  0  2  0  0  0  0  0  0
  183.2430  179.0110  143.7350 N   0  0  0  0  0  0  0  0  0  0  0  0
  186.3690  178.1310  143.6350 O   0  0  0  0  0  0  0  0  0  0  0  0
  182.7540  178.8420  144.9880 O   0  0  0  0  0  1  0  0  0  0  0  0
  185.4250  178.3600  141.4960 C   0  0  0  0  0  2  0  0  0  0  0  0
  182.9280  178.3640  141.2370 C   0  0  1  0  0  3  0  0  0  0  0  0
  184.5560  179.6250  143.5990 C   0  0  0  0  0  2  0  0  0  0  0  0
  184.2340  179.0460  140.8380 C   0  0  0  0  0  2  0  0  0  0  0  0
  182.3870  178.7300  142.6120 C   0  0  0  0  0  0  0  0  0  0  0  0
  181.1440  178.6590  142.8110 O   0  0  0  0  0  0  0  0  0  0  0  0
  185.5130  178.6740  142.9570 C   0  0  0  0  0  0  0  0  0  0  0  0
  179.6570  177.9260  134.5940 C   0  0  0  0  0  2  0  0  0  0  0  0
  181.1100  177.4750  134.6640 C   0  0  0  0  0  1  0  0  0  0  0  0
  1 15  1  0  0  0  0
  1  3  1  1  0  0  0
  2  7  1  0  0  0  0
  2  4  1  0  0  0  0
  4  1  1  0  0  0  0
  5  2  1  0  0  0  0
  6 19  1  0  0  0  0
  7 14  1  0  0  0  0
  8  9  1  0  0  0  0
  8 19  1  0  0  0  0
  9 16  1  0  0  0  0
 10  4  1  0  0  0  0
 11  5  1  0  0  0  0
 11  9  1  0  0  0  0
 12 10  1  0  0  0  0
 14 15  2  0  0  0  0
 15 25  1  0  0  0  0
 16 20  1  0  0  0  0
 16  7  1  0  0  0  0
 17 12  1  0  0  0  0
 17  5  1  0  0  0  0
 18 13  1  0  0  0  0
 18  1  1  0  0  0  0
 18  3  1  0  0  0  0
 19 20  1  0  0  0  0
 21 23  1  0  0  0  0
 24 30  1  0  0  0  0
 25 28  1  0  0  0  0
 26 21  1  0  0  0  0
 27 25  1  0  0  0  0
 27 24  1  0  0  0  0
 28 29  2  0  0  0  0
 28 21  1  0  0  0  0
 30 26  1  0  0  0  0
 30 22  2  0  0  0  0
 31 32  1  0  0  0  0
 31 17  1  0  0  0  0
M  END
>  <MODEL>
6

>  <REMARK>
 VINA RESULT:      -4.9      4.916      8.469
  Name = 
  2 active torsions:
  status: ('A' for Active; 'I' for Inactive)
    1  A    between atoms: C_13  and  C_29
    2  A    between atoms: C_16  and  C_27
                            x       y       z     vdW  Elec       q    Type
                         _______ _______ _______ _____ _____    ______ ____

>  <TORSDO>
F 2

$$$$
=
 OpenBabel11052414413D

 32 37  0  0  1  0  0  0  0  0999 V2000
  180.6060  178.0670  136.0530 C   0  0  1  0  0  0  0  0  0  0  0  0
  180.1600  179.6910  137.8470 C   0  0  1  0  0  3  0  0  0  0  0  0
  180.5390  177.5980  134.6140 C   0  0  0  0  0  2  0  0  0  0  0  0
  179.7360  179.2750  136.4400 C   0  0  1  0  0  3  0  0  0  0  0  0
  179.6010  181.0720  138.2170 C   0  0  1  0  0  3  0  0  0  0  0  0
  180.9290  178.4100  143.3800 C   0  0  0  0  0  1  0  0  0  0  0  0
  179.7480  178.5700  138.8060 C   0  0  1  0  0  3  0  0  0  0  0  0
  179.5300  180.5160  142.3330 S   0  0  0  0  0  0  0  0  0  0  0  0
  179.2990  180.2330  140.5630 C   0  0  1  0  0  3  0  0  0  0  0  0
  179.6670  180.4460  135.4370 C   0  0  0  0  0  2  0  0  0  0  0  0
  179.7840  181.3990  139.7100 C   0  0  0  0  0  2  0  0  0  0  0  0
  180.5340  181.6320  135.8620 C   0  0  0  0  0  2  0  0  0  0  0  0
  182.9580  177.4590  135.2070 C   0  0  0  0  0  1  0  0  0  0  0  0
  180.4040  177.2640  138.4050 C   0  0  0  0  0  3  0  0  0  0  0  0
  180.7650  176.9870  137.1300 C   0  0  0  0  0  0  0  0  0  0  0  0
  180.0800  178.9860  140.2330 C   0  0  1  0  0  3  0  0  0  0  0  0
  180.1850  182.1560  137.2700 C   0  0  2  0  0  3  0  0  0  0  0  0
  181.7580  178.3850  135.0920 C   0  0  2  0  0  3  0  0  0  0  0  0
  179.6540  178.7130  142.6200 C   0  0  1  0  0  3  0  0  0  0  0  0
  179.6660  177.9800  141.2830 C   0  0  0  0  0  2  0  0  0  0  0  0
  180.2180  173.1950  136.6080 N   0  0  0  0  0  0  0  0  0  0  0  0
  183.1840  171.9060  136.2860 O   0  0  0  0  0  0  0  0  0  0  0  0
  179.3080  172.4260  135.9630 O   0  0  0  0  0  1  0  0  0  0  0  0
  183.2400  174.1210  137.0670 C   0  0  0  0  0  2  0  0  0  0  0  0
  181.2210  175.5870  136.7860 C   0  0  1  0  0  3  0  0  0  0  0  0
  181.2190  172.5170  137.4200 C   0  0  0  0  0  2  0  0  0  0  0  0
  182.3110  175.1190  137.7480 C   0  0  0  0  0  2  0  0  0  0  0  0
  180.0570  174.6250  136.5910 C   0  0  0  0  0  0  0  0  0  0  0  0
  178.9310  175.0960  136.2750 O   0  0  0  0  0  0  0  0  0  0  0  0
  182.5900  172.7840  136.8890 C   0  0  0  0  0  0  0  0  0  0  0  0
  181.3800  182.9270  137.8440 C   0  0  0  0  0  2  0  0  0  0  0  0
  181.5420  184.2990  137.2020 C   0  0  0  0  0  1  0  0  0  0  0  0
  1  3  1  6  0  0  0
  1  4  1  0  0  0  0
  1 15  1  0  0  0  0
  2  5  1  0  0  0  0
  2  7  1  0  0  0  0
  3 18  1  0  0  0  0
  4  2  1  0  0  0  0
  5 11  1  0  0  0  0
  7 16  1  0  0  0  0
  8 19  1  0  0  0  0
  9  8  1  0  0  0  0
 10 12  1  0  0  0  0
 10  4  1  0  0  0  0
 11  9  1  0  0  0  0
 12 17  1  0  0  0  0
 14  7  1  0  0  0  0
 15 14  2  0  0  0  0
 16  9  1  0  0  0  0
 16 20  1  0  0  0  0
 17 31  1  0  0  0  0
 17  5  1  0  0  0  0
 18 13  1  0  0  0  0
 18  1  1  0  0  0  0
 19  6  1  0  0  0  0
 20 19  1  0  0  0  0
 21 26  1  0  0  0  0
 22 30  2  0  0  0  0
 23 21  1  0  0  0  0
 24 27  1  0  0  0  0
 25 15  1  0  0  0  0
 25 27  1  0  0  0  0
 28 21  1  0  0  0  0
 28 25  1  0  0  0  0
 29 28  2  0  0  0  0
 30 24  1  0  0  0  0
 30 26  1  0  0  0  0
 32 31  1  0  0  0  0
M  END
>  <MODEL>
7

>  <REMARK>
 VINA RESULT:      -4.8      6.334      8.419
  Name = 
  2 active torsions:
  status: ('A' for Active; 'I' for Inactive)
    1  A    between atoms: C_13  and  C_29
    2  A    between atoms: C_16  and  C_27
                            x       y       z     vdW  Elec       q    Type
                         _______ _______ _______ _____ _____    ______ ____

>  <TORSDO>
F 2

$$$$
=
 OpenBabel11052414413D

 32 37  0  0  1  0  0  0  0  0999 V2000
  181.8390  177.0270  137.7850 C   0  0  1  0  0  0  0  0  0  0  0  0
  181.4050  178.1230  139.9450 C   0  0  1  0  0  3  0  0  0  0  0  0
  181.4010  176.2690  136.5490 C   0  0  0  0  0  2  0  0  0  0  0  0
  180.8280  177.1270  138.9410 C   0  0  1  0  0  3  0  0  0  0  0  0
  180.3520  178.5560  140.9750 C   0  0  1  0  0  3  0  0  0  0  0  0
  185.6430  179.7550  143.4410 C   0  0  0  0  0  1  0  0  0  0  0  0
  182.6590  177.4930  140.5570 C   0  0  1  0  0  3  0  0  0  0  0  0
  182.9880  179.4850  144.0490 S   0  0  0  0  0  0  0  0  0  0  0  0
  182.1750  178.5970  142.7010 C   0  0  1  0  0  3  0  0  0  0  0  0
  179.3540  177.3980  138.5700 C   0  0  0  0  0  2  0  0  0  0  0  0
  180.9660  179.3430  142.1470 C   0  0  0  0  0  2  0  0  0  0  0  0
  178.9470  178.8510  138.8150 C   0  0  0  0  0  2  0  0  0  0  0  0
  182.6150  178.2620  135.6680 C   0  0  0  0  0  1  0  0  0  0  0  0
  183.6680  177.1670  139.4730 C   0  0  0  0  0  3  0  0  0  0  0  0
  183.3100  176.8990  138.1960 C   0  0  0  0  0  0  0  0  0  0  0  0
  183.2180  178.4240  141.6250 C   0  0  1  0  0  3  0  0  0  0  0  0
  179.1890  179.3050  140.2700 C   0  0  2  0  0  3  0  0  0  0  0  0
  181.4460  177.7960  136.5190 C   0  0  2  0  0  3  0  0  0  0  0  0
  184.5830  178.6900  143.6300 C   0  0  1  0  0  3  0  0  0  0  0  0
  184.4310  177.8820  142.3450 C   0  0  0  0  0  2  0  0  0  0  0  0
  185.8260  174.2650  136.8960 N   0  0  0  0  0  0  0  0  0  0  0  0
  187.5660  175.7590  134.5940 O   0  0  0  0  0  0  0  0  0  0  0  0
  185.7990  172.9310  136.6630 O   0  0  0  0  0  1  0  0  0  0  0  0
  186.2740  177.2540  135.8650 C   0  0  0  0  0  2  0  0  0  0  0  0
  184.3580  176.3850  137.2340 C   0  0  1  0  0  3  0  0  0  0  0  0
  187.1030  174.9500  136.7510 C   0  0  0  0  0  2  0  0  0  0  0  0
  185.5790  177.3010  137.2200 C   0  0  0  0  0  2  0  0  0  0  0  0
  184.6490  174.9020  137.4260 C   0  0  0  0  0  0  0  0  0  0  0  0
  183.7650  174.1770  137.9580 O   0  0  0  0  0  0  0  0  0  0  0  0
  187.0250  175.9750  135.6650 C   0  0  0  0  0  0  0  0  0  0  0  0
  179.2900  180.8340  140.3230 C   0  0  0  0  0  2  0  0  0  0  0  0
  180.0360  181.4030  139.1230 C   0  0  0  0  0  1  0  0  0  0  0  0
  1  3  1  6  0  0  0
  1 15  1  0  0  0  0
  1  4  1  0  0  0  0
  2  7  1  0  0  0  0
  2  5  1  0  0  0  0
  4  2  1  0  0  0  0
  5 11  1  0  0  0  0
  6 19  1  0  0  0  0
  7 16  1  0  0  0  0
  9  8  1  0  0  0  0
 10 12  1  0  0  0  0
 10  4  1  0  0  0  0
 11  9  1  0  0  0  0
 12 17  1  0  0  0  0
 13 18  1  0  0  0  0
 14  7  1  0  0  0  0
 15 14  2  0  0  0  0
 16 20  1  0  0  0  0
 16  9  1  0  0  0  0
 17 31  1  0  0  0  0
 17  5  1  0  0  0  0
 18  3  1  0  0  0  0
 18  1  1  0  0  0  0
 19  8  1  0  0  0  0
 20 19  1  0  0  0  0
 21 28  1  0  0  0  0
 22 30  2  0  0  0  0
 23 21  1  0  0  0  0
 24 27  1  0  0  0  0
 25 28  1  0  0  0  0
 25 15  1  0  0  0  0
 26 21  1  0  0  0  0
 27 25  1  0  0  0  0
 28 29  2  0  0  0  0
 30 24  1  0  0  0  0
 30 26  1  0  0  0  0
 32 31  1  0  0  0  0
M  END
>  <MODEL>
8

>  <REMARK>
 VINA RESULT:      -4.8      3.889      7.434
  Name = 
  2 active torsions:
  status: ('A' for Active; 'I' for Inactive)
    1  A    between atoms: C_13  and  C_29
    2  A    between atoms: C_16  and  C_27
                            x       y       z     vdW  Elec       q    Type
                         _______ _______ _______ _____ _____    ______ ____

>  <TORSDO>
F 2

$$$$
=
 OpenBabel11052414413D

 32 37  0  0  1  0  0  0  0  0999 V2000
  186.3910  178.3970  144.3370 C   0  0  1  0  0  0  0  0  0  0  0  0
  184.6840  178.6900  142.5890 C   0  0  1  0  0  3  0  0  0  0  0  0
  186.9850  178.6870  145.6990 C   0  0  0  0  0  2  0  0  0  0  0  0
  185.2660  179.3270  143.8490 C   0  0  1  0  0  3  0  0  0  0  0  0
  183.3530  179.3430  142.1930 C   0  0  1  0  0  3  0  0  0  0  0  0
  185.3860  176.6660  137.2720 C   0  0  0  0  0  1  0  0  0  0  0  0
  185.7590  178.7480  141.5000 C   0  0  1  0  0  3  0  0  0  0  0  0
  183.5590  178.5160  138.1270 S   0  0  0  0  0  0  0  0  0  0  0  0
  184.0180  179.0560  139.7900 C   0  0  1  0  0  3  0  0  0  0  0  0
  184.2010  179.7500  144.8830 C   0  0  0  0  0  2  0  0  0  0  0  0
  182.8790  178.9110  140.7930 C   0  0  0  0  0  2  0  0  0  0  0  0
  182.8890  178.9830  144.7190 C   0  0  0  0  0  2  0  0  0  0  0  0
  186.7830  176.2020  145.6180 C   0  0  0  0  0  1  0  0  0  0  0  0
  187.0070  178.0160  141.9510 C   0  0  0  0  0  3  0  0  0  0  0  0
  187.3470  177.8830  143.2550 C   0  0  0  0  0  0  0  0  0  0  0  0
  185.1870  178.1950  140.2010 C   0  0  1  0  0  3  0  0  0  0  0  0
  182.2910  179.1110  143.3030 C   0  0  2  0  0  3  0  0  0  0  0  0
  186.0210  177.5140  145.5340 C   0  0  2  0  0  3  0  0  0  0  0  0
  185.3030  178.0960  137.7650 C   0  0  1  0  0  3  0  0  0  0  0  0
  186.1420  178.2530  139.0300 C   0  0  0  0  0  2  0  0  0  0  0  0
  191.2030  178.0460  143.5080 N   0  0  0  0  0  0  0  0  0  0  0  0
  192.1730  175.0330  144.2430 O   0  0  0  0  0  0  0  0  0  0  0  0
  192.1070  178.9470  143.9630 O   0  0  0  0  0  1  0  0  0  0  0  0
  189.9200  175.1230  143.5830 C   0  0  0  0  0  2  0  0  0  0  0  0
  188.7080  177.3210  143.6030 C   0  0  1  0  0  3  0  0  0  0  0  0
  191.7110  176.8580  142.8370 C   0  0  0  0  0  2  0  0  0  0  0  0
  188.9890  176.0480  142.8090 C   0  0  0  0  0  2  0  0  0  0  0  0
  189.8030  178.3780  143.5650 C   0  0  0  0  0  0  0  0  0  0  0  0
  189.4810  179.5880  143.7170 O   0  0  0  0  0  0  0  0  0  0  0  0
  191.3290  175.6270  143.5930 C   0  0  0  0  0  0  0  0  0  0  0  0
  181.3380  177.9400  143.0380 C   0  0  0  0  0  2  0  0  0  0  0  0
  180.0550  178.0460  143.8530 C   0  0  0  0  0  1  0  0  0  0  0  0
  1 18  1  0  0  0  0
  1  3  1  1  0  0  0
  2  4  1  0  0  0  0
  4  1  1  0  0  0  0
  4 10  1  0  0  0  0
  5  2  1  0  0  0  0
  5 17  1  0  0  0  0
  6 19  1  0  0  0  0
  7 14  1  0  0  0  0
  7  2  1  0  0  0  0
  8  9  1  0  0  0  0
  9 16  1  0  0  0  0
  9 11  1  0  0  0  0
 11  5  1  0  0  0  0
 12 10  1  0  0  0  0
 14 15  2  0  0  0  0
 15 25  1  0  0  0  0
 15  1  1  0  0  0  0
 16  7  1  0  0  0  0
 17 12  1  0  0  0  0
 18 13  1  0  0  0  0
 18  3  1  0  0  0  0
 19  8  1  0  0  0  0
 19 20  1  0  0  0  0
 20 16  1  0  0  0  0
 21 28  1  0  0  0  0
 21 23  1  0  0  0  0
 24 30  1  0  0  0  0
 26 21  1  0  0  0  0
 26 30  1  0  0  0  0
 27 24  1  0  0  0  0
 27 25  1  0  0  0  0
 28 25  1  0  0  0  0
 28 29  2  0  0  0  0
 30 22  2  0  0  0  0
 31 17  1  0  0  0  0
 31 32  1  0  0  0  0
M  END
>  <MODEL>
9

>  <REMARK>
 VINA RESULT:      -4.7      4.384      8.537
  Name = 
  2 active torsions:
  status: ('A' for Active; 'I' for Inactive)
    1  A    between atoms: C_13  and  C_29
    2  A    between atoms: C_16  and  C_27
                            x       y       z     vdW  Elec       q    Type
                         _______ _______ _______ _____ _____    ______ ____

>  <TORSDO>
F 2

$$$$
