=
 OpenBabel11052417023D

 32 36  0  0  1  0  0  0  0  0999 V2000
  187.6910  176.8240  136.2850 C   0  0  0  0  0  0  0  0  0  0  0  0
  189.1410  177.9330  140.9740 C   0  0  0  0  0  0  0  0  0  0  0  0
  188.2380  177.6470  143.3160 C   0  0  0  0  0  0  0  0  0  0  0  0
  188.4740  177.6250  144.7720 C   0  0  0  0  0  0  0  0  0  0  0  0
  187.8950  177.7870  138.9040 C   0  0  0  0  0  0  0  0  0  0  0  0
  190.0190  176.6970  139.1120 N   0  0  0  0  0  0  0  0  0  0  0  0
  188.9190  177.6760  147.5390 C   0  0  0  0  0  3  0  0  0  0  0  0
  188.8150  176.5080  137.0560 C   0  0  0  0  0  3  0  0  0  0  0  0
  190.1610  177.1430  140.3900 C   0  0  0  0  0  0  0  0  0  0  0  0
  191.4590  176.8600  141.1090 C   0  0  2  0  0  3  0  0  0  0  0  0
  190.6440  178.3640  142.9610 C   0  0  2  0  0  3  0  0  0  0  0  0
  187.7300  177.1450  147.0320 C   0  0  0  0  0  3  0  0  0  0  0  0
  186.6680  177.6110  136.8270 C   0  0  0  0  0  3  0  0  0  0  0  0
  188.9230  176.9880  138.3640 C   0  0  0  0  0  0  0  0  0  0  0  0
  187.5060  177.1220  145.6520 C   0  0  0  0  0  3  0  0  0  0  0  0
  186.7700  178.0950  138.1350 C   0  0  0  0  0  3  0  0  0  0  0  0
  191.3640  177.0490  142.6250 C   0  0  1  0  0  3  0  0  0  0  0  0
  190.6830  178.6320  144.3970 N   0  0  0  0  0  2  0  0  0  0  0  0
  188.0120  178.2530  140.2110 C   0  0  0  0  0  3  0  0  0  0  0  0
  187.1980  177.1120  142.8420 O   0  0  0  0  0  0  0  0  0  0  0  0
  189.8910  178.1750  146.6670 C   0  0  0  0  0  3  0  0  0  0  0  0
  189.2020  178.3930  142.4130 C   0  0  1  0  0  3  0  0  0  0  0  0
  189.6760  178.1430  145.2860 C   0  0  0  0  0  0  0  0  0  0  0  0
  193.3970  176.9820  139.7090 O   0  0  0  0  0  1  0  0  0  0  0  0
  192.5830  177.7290  140.5600 C   0  0  0  0  0  2  0  0  0  0  0  0
  191.7040  175.3220  143.9710 C   0  0  0  0  0  1  0  0  0  0  0  0
  190.7210  175.9490  143.2050 O   0  0  0  0  0  0  0  0  0  0  0  0
  187.5660  176.2920  134.9020 C   0  0  0  0  0  2  0  0  0  0  0  0
  187.5050  174.8730  134.9410 O   0  0  0  0  0  0  0  0  0  0  0  0
  186.4280  174.1880  135.5070 C   0  0  0  0  0  0  0  0  0  0  0  0
  185.2860  174.3010  134.9920 O   0  0  0  0  0  0  0  0  0  0  0  0
  186.5970  173.3220  136.7110 C   0  0  0  0  0  1  0  0  0  0  0  0
  1 13  2  0  0  0  0
  1  8  1  0  0  0  0
  3  4  1  0  0  0  0
  4 23  2  0  0  0  0
  4 15  1  0  0  0  0
  5 19  1  0  0  0  0
  6  9  2  0  0  0  0
  8 14  2  0  0  0  0
  9  2  1  0  0  0  0
  9 10  1  0  0  0  0
 10 25  1  6  0  0  0
 10 17  1  0  0  0  0
 11 18  1  1  0  0  0
 12  7  1  0  0  0  0
 13 16  1  0  0  0  0
 14  5  1  0  0  0  0
 14  6  1  0  0  0  0
 15 12  2  0  0  0  0
 16  5  2  0  0  0  0
 17 11  1  0  0  0  0
 17 27  1  1  0  0  0
 18 23  1  0  0  0  0
 19  2  2  0  0  0  0
 20  3  2  0  0  0  0
 21  7  2  0  0  0  0
 22  2  1  6  0  0  0
 22 11  1  0  0  0  0
 22  3  1  0  0  0  0
 23 21  1  0  0  0  0
 24 25  1  0  0  0  0
 27 26  1  0  0  0  0
 28 29  1  0  0  0  0
 28  1  1  0  0  0  0
 29 30  1  0  0  0  0
 30 32  1  0  0  0  0
 31 30  2  0  0  0  0
M  END
>  <MODEL>
1

>  <REMARK>
 VINA RESULT:      -7.7      0.000      0.000
  Name = 
  5 active torsions:
  status: ('A' for Active; 'I' for Inactive)
    1  A    between atoms: C_1  and  O_10
    2  A    between atoms: C_2  and  C_24
    3  A    between atoms: O_10  and  C_24
    4  A    between atoms: C_13  and  C_15
    5  A    between atoms: O_25  and  C_26
                            x       y       z     vdW  Elec       q    Type
                         _______ _______ _______ _____ _____    ______ ____

>  <TORSDO>
F 5

$$$$
=
 OpenBabel11052417023D

 32 36  0  0  1  0  0  0  0  0999 V2000
  188.4770  177.5770  143.8710 C   0  0  0  0  0  0  0  0  0  0  0  0
  184.7160  178.8070  140.7630 C   0  0  0  0  0  0  0  0  0  0  0  0
  183.9700  178.2180  138.4230 C   0  0  0  0  0  0  0  0  0  0  0  0
  182.9080  178.1940  137.3990 C   0  0  0  0  0  0  0  0  0  0  0  0
  186.9080  178.4530  141.7270 C   0  0  0  0  0  0  0  0  0  0  0  0
  184.9390  177.8950  142.9730 N   0  0  0  0  0  0  0  0  0  0  0  0
  180.9080  178.2360  135.4350 C   0  0  0  0  0  3  0  0  0  0  0  0
  187.0830  177.5070  143.9570 C   0  0  0  0  0  3  0  0  0  0  0  0
  184.1360  178.3090  141.9550 C   0  0  0  0  0  0  0  0  0  0  0  0
  182.6410  178.3150  142.1770 C   0  0  2  0  0  3  0  0  0  0  0  0
  182.4210  179.5040  139.9650 C   0  0  2  0  0  3  0  0  0  0  0  0
  182.0530  177.4580  135.2500 C   0  0  0  0  0  3  0  0  0  0  0  0
  189.0850  178.0730  142.7110 C   0  0  0  0  0  3  0  0  0  0  0  0
  186.2940  177.9450  142.8890 C   0  0  0  0  0  0  0  0  0  0  0  0
  183.0520  177.4380  136.2280 C   0  0  0  0  0  3  0  0  0  0  0  0
  188.3020  178.5140  141.6390 C   0  0  0  0  0  3  0  0  0  0  0  0
  181.8390  178.4140  140.8780 C   0  0  1  0  0  3  0  0  0  0  0  0
  181.5730  179.7140  138.7930 N   0  0  0  0  0  2  0  0  0  0  0  0
  186.1110  178.8790  140.6680 C   0  0  0  0  0  3  0  0  0  0  0  0
  184.9780  177.4700  138.2980 O   0  0  0  0  0  0  0  0  0  0  0  0
  180.7550  178.9890  136.6040 C   0  0  0  0  0  3  0  0  0  0  0  0
  183.8820  179.2090  139.5680 C   0  0  1  0  0  3  0  0  0  0  0  0
  181.7460  178.9620  137.5890 C   0  0  0  0  0  0  0  0  0  0  0  0
  180.8510  179.6000  143.1110 O   0  0  0  0  0  1  0  0  0  0  0  0
  182.2380  179.4490  143.1100 C   0  0  0  0  0  2  0  0  0  0  0  0
  180.4790  176.7570  140.3150 C   0  0  0  0  0  1  0  0  0  0  0  0
  181.8100  177.1690  140.2380 O   0  0  0  0  0  0  0  0  0  0  0  0
  189.3160  177.0870  144.9970 C   0  0  0  0  0  2  0  0  0  0  0  0
  188.5540  177.0900  146.1960 O   0  0  0  0  0  0  0  0  0  0  0  0
  189.1100  177.4240  147.4320 C   0  0  0  0  0  0  0  0  0  0  0  0
  190.2940  177.0830  147.6880 O   0  0  0  0  0  0  0  0  0  0  0  0
  188.3350  178.1780  148.4610 C   0  0  0  0  0  1  0  0  0  0  0  0
  1  8  1  0  0  0  0
  1 28  1  0  0  0  0
  2  9  1  0  0  0  0
  4 23  1  0  0  0  0
  4  3  1  0  0  0  0
  5 14  1  0  0  0  0
  7 21  1  0  0  0  0
  9 10  1  0  0  0  0
  9  6  2  0  0  0  0
 10 25  1  1  0  0  0
 11 18  1  6  0  0  0
 11 17  1  0  0  0  0
 12  7  2  0  0  0  0
 12 15  1  0  0  0  0
 13  1  2  0  0  0  0
 14  6  1  0  0  0  0
 14  8  2  0  0  0  0
 15  4  2  0  0  0  0
 16  5  2  0  0  0  0
 16 13  1  0  0  0  0
 17 27  1  6  0  0  0
 17 10  1  0  0  0  0
 19  2  2  0  0  0  0
 19  5  1  0  0  0  0
 20  3  2  0  0  0  0
 21 23  2  0  0  0  0
 22  3  1  6  0  0  0
 22 11  1  0  0  0  0
 22  2  1  0  0  0  0
 23 18  1  0  0  0  0
 25 24  1  0  0  0  0
 27 26  1  0  0  0  0
 28 29  1  0  0  0  0
 29 30  1  0  0  0  0
 30 31  2  0  0  0  0
 30 32  1  0  0  0  0
M  END
>  <MODEL>
2

>  <REMARK>
 VINA RESULT:      -7.4      4.495      9.602
  Name = 
  5 active torsions:
  status: ('A' for Active; 'I' for Inactive)
    1  A    between atoms: C_1  and  O_10
    2  A    between atoms: C_2  and  C_24
    3  A    between atoms: O_10  and  C_24
    4  A    between atoms: C_13  and  C_15
    5  A    between atoms: O_25  and  C_26
                            x       y       z     vdW  Elec       q    Type
                         _______ _______ _______ _____ _____    ______ ____

>  <TORSDO>
F 5

$$$$
=
 OpenBabel11052417023D

 32 36  0  0  1  0  0  0  0  0999 V2000
  188.0580  177.6430  144.0190 C   0  0  0  0  0  0  0  0  0  0  0  0
  184.4810  178.7770  140.6670 C   0  0  0  0  0  0  0  0  0  0  0  0
  183.8900  178.1490  138.2930 C   0  0  0  0  0  0  0  0  0  0  0  0
  182.8960  178.0960  137.2060 C   0  0  0  0  0  0  0  0  0  0  0  0
  186.6130  178.4680  141.7700 C   0  0  0  0  0  0  0  0  0  0  0  0
  184.5780  177.8950  142.8990 N   0  0  0  0  0  0  0  0  0  0  0  0
  181.0220  178.0850  135.1200 C   0  0  0  0  0  3  0  0  0  0  0  0
  186.6620  177.5530  144.0190 C   0  0  0  0  0  3  0  0  0  0  0  0
  183.8340  178.2850  141.8280 C   0  0  0  0  0  0  0  0  0  0  0  0
  182.3290  178.2710  141.9550 C   0  0  2  0  0  3  0  0  0  0  0  0
  182.2300  179.4290  139.7190 C   0  0  2  0  0  3  0  0  0  0  0  0
  182.1880  177.3210  135.0170 C   0  0  0  0  0  3  0  0  0  0  0  0
  188.7290  178.1340  142.8930 C   0  0  0  0  0  3  0  0  0  0  0  0
  185.9350  177.9660  142.8990 C   0  0  0  0  0  0  0  0  0  0  0  0
  183.1240  177.3290  136.0550 C   0  0  0  0  0  3  0  0  0  0  0  0
  188.0080  178.5500  141.7690 C   0  0  0  0  0  3  0  0  0  0  0  0
  181.6080  178.3410  140.6070 C   0  0  1  0  0  3  0  0  0  0  0  0
  181.4540  179.6120  138.4940 N   0  0  0  0  0  2  0  0  0  0  0  0
  185.8770  178.8700  140.6590 C   0  0  0  0  0  3  0  0  0  0  0  0
  184.9160  177.4150  138.2410 O   0  0  0  0  0  0  0  0  0  0  0  0
  180.7850  178.8480  136.2670 C   0  0  0  0  0  3  0  0  0  0  0  0
  183.7170  179.1520  139.4180 C   0  0  1  0  0  3  0  0  0  0  0  0
  181.7130  178.8490  137.3130 C   0  0  0  0  0  0  0  0  0  0  0  0
  181.4790  178.9180  144.0980 O   0  0  0  0  0  1  0  0  0  0  0  0
  181.8510  179.4090  142.8460 C   0  0  0  0  0  2  0  0  0  0  0  0
  180.3450  176.5840  140.1320 C   0  0  0  0  0  1  0  0  0  0  0  0
  181.6370  177.0890  139.9830 O   0  0  0  0  0  0  0  0  0  0  0  0
  188.8310  177.1790  145.2020 C   0  0  0  0  0  2  0  0  0  0  0  0
  190.1600  177.6760  145.1280 O   0  0  0  0  0  0  0  0  0  0  0  0
  191.2740  176.8370  145.1830 C   0  0  0  0  0  0  0  0  0  0  0  0
  191.9650  176.7970  146.2340 O   0  0  0  0  0  0  0  0  0  0  0  0
  191.6680  175.9830  144.0250 C   0  0  0  0  0  1  0  0  0  0  0  0
  1 28  1  0  0  0  0
  2  9  1  0  0  0  0
  4 23  1  0  0  0  0
  4  3  1  0  0  0  0
  5 14  1  0  0  0  0
  7 21  1  0  0  0  0
  8  1  1  0  0  0  0
  9 10  1  0  0  0  0
  9  6  2  0  0  0  0
 10 25  1  1  0  0  0
 11 18  1  6  0  0  0
 11 17  1  0  0  0  0
 12  7  2  0  0  0  0
 12 15  1  0  0  0  0
 13  1  2  0  0  0  0
 14  6  1  0  0  0  0
 14  8  2  0  0  0  0
 15  4  2  0  0  0  0
 16  5  2  0  0  0  0
 16 13  1  0  0  0  0
 17 27  1  6  0  0  0
 17 10  1  0  0  0  0
 19  2  2  0  0  0  0
 19  5  1  0  0  0  0
 20  3  2  0  0  0  0
 21 23  2  0  0  0  0
 22  3  1  6  0  0  0
 22 11  1  0  0  0  0
 22  2  1  0  0  0  0
 23 18  1  0  0  0  0
 25 24  1  0  0  0  0
 27 26  1  0  0  0  0
 29 30  1  0  0  0  0
 29 28  1  0  0  0  0
 30 31  2  0  0  0  0
 32 30  1  0  0  0  0
M  END
>  <MODEL>
3

>  <REMARK>
 VINA RESULT:      -7.2      4.504      9.491
  Name = 
  5 active torsions:
  status: ('A' for Active; 'I' for Inactive)
    1  A    between atoms: C_1  and  O_10
    2  A    between atoms: C_2  and  C_24
    3  A    between atoms: O_10  and  C_24
    4  A    between atoms: C_13  and  C_15
    5  A    between atoms: O_25  and  C_26
                            x       y       z     vdW  Elec       q    Type
                         _______ _______ _______ _____ _____    ______ ____

>  <TORSDO>
F 5

$$$$
=
 OpenBabel11052417023D

 32 36  0  0  1  0  0  0  0  0999 V2000
  189.9210  177.5670  143.6020 C   0  0  0  0  0  0  0  0  0  0  0  0
  191.9760  176.7780  139.0770 C   0  0  0  0  0  0  0  0  0  0  0  0
  194.0740  175.7250  138.1450 C   0  0  0  0  0  0  0  0  0  0  0  0
  194.8060  175.1560  136.9980 C   0  0  0  0  0  0  0  0  0  0  0  0
  191.5910  177.4900  141.3580 C   0  0  0  0  0  0  0  0  0  0  0  0
  189.9130  176.2470  140.1840 N   0  0  0  0  0  0  0  0  0  0  0  0
  196.2150  174.1610  134.7880 C   0  0  0  0  0  3  0  0  0  0  0  0
  189.4970  176.9100  142.4420 C   0  0  0  0  0  3  0  0  0  0  0  0
  190.6910  176.1840  139.0680 C   0  0  0  0  0  0  0  0  0  0  0  0
  190.1080  175.5640  137.8200 C   0  0  2  0  0  3  0  0  0  0  0  0
  192.1670  176.3440  136.5940 C   0  0  2  0  0  3  0  0  0  0  0  0
  196.6960  173.9400  136.0810 C   0  0  0  0  0  3  0  0  0  0  0  0
  191.1820  178.1740  143.6420 C   0  0  0  0  0  3  0  0  0  0  0  0
  190.3260  176.8700  141.3180 C   0  0  0  0  0  0  0  0  0  0  0  0
  195.9950  174.4380  137.1840 C   0  0  0  0  0  3  0  0  0  0  0  0
  192.0170  178.1390  142.5200 C   0  0  0  0  0  3  0  0  0  0  0  0
  191.1670  175.1930  136.7790 C   0  0  1  0  0  3  0  0  0  0  0  0
  193.0890  176.0650  135.4940 N   0  0  0  0  0  2  0  0  0  0  0  0
  192.4090  177.4370  140.2330 C   0  0  0  0  0  3  0  0  0  0  0  0
  194.4620  175.4780  139.3200 O   0  0  0  0  0  0  0  0  0  0  0  0
  195.0270  174.8720  134.5950 C   0  0  0  0  0  3  0  0  0  0  0  0
  192.9190  176.6760  137.8990 C   0  0  1  0  0  3  0  0  0  0  0  0
  194.3160  175.3610  135.6960 C   0  0  0  0  0  0  0  0  0  0  0  0
  187.7890  176.0060  137.4230 O   0  0  0  0  0  1  0  0  0  0  0  0
  189.0770  176.4880  137.1870 C   0  0  0  0  0  2  0  0  0  0  0  0
  191.4160  173.0700  136.1980 C   0  0  0  0  0  1  0  0  0  0  0  0
  191.8100  174.0080  137.1530 O   0  0  0  0  0  0  0  0  0  0  0  0
  189.0490  177.5860  144.8060 C   0  0  0  0  0  2  0  0  0  0  0  0
  189.5560  176.6820  145.7770 O   0  0  0  0  0  0  0  0  0  0  0  0
  189.9980  177.1060  147.0320 C   0  0  0  0  0  0  0  0  0  0  0  0
  191.1840  176.8700  147.3790 O   0  0  0  0  0  0  0  0  0  0  0  0
  189.0980  177.8350  147.9730 C   0  0  0  0  0  1  0  0  0  0  0  0
  1 13  1  0  0  0  0
  1 28  1  0  0  0  0
  2 19  1  0  0  0  0
  3 20  2  0  0  0  0
  4 15  1  0  0  0  0
  4  3  1  0  0  0  0
  5 16  1  0  0  0  0
  6 14  2  0  0  0  0
  7 12  1  0  0  0  0
  8  1  2  0  0  0  0
  9  2  2  0  0  0  0
  9  6  1  0  0  0  0
 10 25  1  6  0  0  0
 10  9  1  0  0  0  0
 11 18  1  6  0  0  0
 11 17  1  0  0  0  0
 11 22  1  0  0  0  0
 12 15  2  0  0  0  0
 14  5  1  0  0  0  0
 14  8  1  0  0  0  0
 16 13  2  0  0  0  0
 17 27  1  1  0  0  0
 17 10  1  0  0  0  0
 18 23  1  0  0  0  0
 19  5  2  0  0  0  0
 21  7  2  0  0  0  0
 21 23  1  0  0  0  0
 22  3  1  1  0  0  0
 22  2  1  0  0  0  0
 23  4  2  0  0  0  0
 25 24  1  0  0  0  0
 26 27  1  0  0  0  0
 28 29  1  0  0  0  0
 29 30  1  0  0  0  0
 30 31  2  0  0  0  0
 30 32  1  0  0  0  0
M  END
>  <MODEL>
4

>  <REMARK>
 VINA RESULT:      -6.5      3.564      8.892
  Name = 
  5 active torsions:
  status: ('A' for Active; 'I' for Inactive)
    1  A    between atoms: C_1  and  O_10
    2  A    between atoms: C_2  and  C_24
    3  A    between atoms: O_10  and  C_24
    4  A    between atoms: C_13  and  C_15
    5  A    between atoms: O_25  and  C_26
                            x       y       z     vdW  Elec       q    Type
                         _______ _______ _______ _____ _____    ______ ____

>  <TORSDO>
F 5

$$$$
=
 OpenBabel11052417023D

 32 36  0  0  1  0  0  0  0  0999 V2000
  189.7730  178.0180  143.9430 C   0  0  0  0  0  0  0  0  0  0  0  0
  185.2060  177.8720  141.8380 C   0  0  0  0  0  0  0  0  0  0  0  0
  182.9010  178.7780  142.3320 C   0  0  0  0  0  0  0  0  0  0  0  0
  181.5410  179.1090  141.8650 C   0  0  0  0  0  0  0  0  0  0  0  0
  187.0540  177.6660  143.3870 C   0  0  0  0  0  0  0  0  0  0  0  0
  187.4160  178.5490  141.1890 N   0  0  0  0  0  0  0  0  0  0  0  0
  178.9350  179.6490  140.9860 C   0  0  0  0  0  3  0  0  0  0  0  0
  189.2670  178.3850  142.6920 C   0  0  0  0  0  3  0  0  0  0  0  0
  186.1010  178.3970  140.8740 C   0  0  0  0  0  0  0  0  0  0  0  0
  185.6610  178.7020  139.4610 C   0  0  2  0  0  3  0  0  0  0  0  0
  183.4050  177.7550  140.0680 C   0  0  2  0  0  3  0  0  0  0  0  0
  179.3840  180.1690  142.2030 C   0  0  0  0  0  3  0  0  0  0  0  0
  188.9190  177.4860  144.9170 C   0  0  0  0  0  3  0  0  0  0  0  0
  187.9100  178.2090  142.4080 C   0  0  0  0  0  0  0  0  0  0  0  0
  180.6830  179.8980  142.6430 C   0  0  0  0  0  3  0  0  0  0  0  0
  187.5600  177.3070  144.6390 C   0  0  0  0  0  3  0  0  0  0  0  0
  184.1460  178.8760  139.3250 C   0  0  1  0  0  3  0  0  0  0  0  0
  181.9660  177.8210  139.8160 N   0  0  0  0  0  2  0  0  0  0  0  0
  185.7030  177.5030  143.0930 C   0  0  0  0  0  3  0  0  0  0  0  0
  183.3400  179.2940  143.3970 O   0  0  0  0  0  0  0  0  0  0  0  0
  179.7870  178.8650  140.2030 C   0  0  0  0  0  3  0  0  0  0  0  0
  183.7220  177.7500  141.5780 C   0  0  1  0  0  3  0  0  0  0  0  0
  181.0910  178.6020  140.6340 C   0  0  0  0  0  0  0  0  0  0  0  0
  186.5390  178.1900  137.2940 O   0  0  0  0  0  1  0  0  0  0  0  0
  186.1340  177.6190  138.5010 C   0  0  0  0  0  2  0  0  0  0  0  0
  183.0730  180.7210  138.7300 C   0  0  0  0  0  1  0  0  0  0  0  0
  183.7660  180.1400  139.7920 O   0  0  0  0  0  0  0  0  0  0  0  0
  191.2130  178.2290  144.2530 C   0  0  0  0  0  2  0  0  0  0  0  0
  191.4770  177.8290  145.5900 O   0  0  0  0  0  0  0  0  0  0  0  0
  191.6640  176.4920  145.9460 C   0  0  0  0  0  0  0  0  0  0  0  0
  192.0950  175.6810  145.0870 O   0  0  0  0  0  0  0  0  0  0  0  0
  191.3650  175.9990  147.3230 C   0  0  0  0  0  1  0  0  0  0  0  0
  1 28  1  0  0  0  0
  1 13  1  0  0  0  0
  2 19  1  0  0  0  0
  3 20  2  0  0  0  0
  4  3  1  0  0  0  0
  4 15  1  0  0  0  0
  5 16  1  0  0  0  0
  6 14  2  0  0  0  0
  7 12  1  0  0  0  0
  8  1  2  0  0  0  0
  9  6  1  0  0  0  0
  9  2  2  0  0  0  0
 10 25  1  6  0  0  0
 10  9  1  0  0  0  0
 11 18  1  1  0  0  0
 11 22  1  0  0  0  0
 12 15  2  0  0  0  0
 14  8  1  0  0  0  0
 14  5  1  0  0  0  0
 16 13  2  0  0  0  0
 17 10  1  0  0  0  0
 17 27  1  1  0  0  0
 17 11  1  0  0  0  0
 18 23  1  0  0  0  0
 19  5  2  0  0  0  0
 21 23  1  0  0  0  0
 21  7  2  0  0  0  0
 22  2  1  6  0  0  0
 22  3  1  0  0  0  0
 23  4  2  0  0  0  0
 24 25  1  0  0  0  0
 26 27  1  0  0  0  0
 28 29  1  0  0  0  0
 29 30  1  0  0  0  0
 30 32  1  0  0  0  0
 31 30  2  0  0  0  0
M  END
>  <MODEL>
5

>  <REMARK>
 VINA RESULT:      -6.4      4.502      8.403
  Name = 
  5 active torsions:
  status: ('A' for Active; 'I' for Inactive)
    1  A    between atoms: C_1  and  O_10
    2  A    between atoms: C_2  and  C_24
    3  A    between atoms: O_10  and  C_24
    4  A    between atoms: C_13  and  C_15
    5  A    between atoms: O_25  and  C_26
                            x       y       z     vdW  Elec       q    Type
                         _______ _______ _______ _____ _____    ______ ____

>  <TORSDO>
F 5

$$$$
=
 OpenBabel11052417023D

 32 36  0  0  1  0  0  0  0  0999 V2000
  184.8400  178.0730  137.7410 C   0  0  0  0  0  0  0  0  0  0  0  0
  188.0820  178.3030  141.5820 C   0  0  0  0  0  0  0  0  0  0  0  0
  188.0750  177.7910  144.0550 C   0  0  0  0  0  0  0  0  0  0  0  0
  188.8240  177.5300  145.2980 C   0  0  0  0  0  0  0  0  0  0  0  0
  186.1550  178.6120  140.1510 C   0  0  0  0  0  0  0  0  0  0  0  0
  187.9900  177.2540  139.4230 N   0  0  0  0  0  0  0  0  0  0  0  0
  190.2620  177.1230  147.6700 C   0  0  0  0  0  3  0  0  0  0  0  0
  186.0990  177.5140  137.9860 C   0  0  0  0  0  3  0  0  0  0  0  0
  188.6670  177.4890  140.5810 C   0  0  0  0  0  0  0  0  0  0  0  0
  190.0720  176.9490  140.7130 C   0  0  2  0  0  3  0  0  0  0  0  0
  190.2620  178.2560  142.8610 C   0  0  2  0  0  3  0  0  0  0  0  0
  188.8990  176.8190  147.6180 C   0  0  0  0  0  3  0  0  0  0  0  0
  184.2360  178.8900  138.7040 C   0  0  0  0  0  3  0  0  0  0  0  0
  186.7610  177.7820  139.1870 C   0  0  0  0  0  0  0  0  0  0  0  0
  188.1810  177.0240  146.4360 C   0  0  0  0  0  3  0  0  0  0  0  0
  184.8940  179.1630  139.9080 C   0  0  0  0  0  3  0  0  0  0  0  0
  190.5760  176.9260  142.1580 C   0  0  1  0  0  3  0  0  0  0  0  0
  190.8740  178.3040  144.1870 N   0  0  0  0  0  2  0  0  0  0  0  0
  186.8230  178.8650  141.3460 C   0  0  0  0  0  3  0  0  0  0  0  0
  186.8590  177.4610  143.9750 O   0  0  0  0  0  0  0  0  0  0  0  0
  190.9120  177.6220  146.5370 C   0  0  0  0  0  3  0  0  0  0  0  0
  188.7470  178.5380  142.9190 C   0  0  1  0  0  3  0  0  0  0  0  0
  190.1990  177.8170  145.3500 C   0  0  0  0  0  0  0  0  0  0  0  0
  192.2950  177.1330  139.8430 O   0  0  0  0  0  1  0  0  0  0  0  0
  191.0420  177.7450  139.8510 C   0  0  0  0  0  2  0  0  0  0  0  0
  191.1080  175.1640  143.3920 C   0  0  0  0  0  1  0  0  0  0  0  0
  190.0180  175.8390  142.8420 O   0  0  0  0  0  0  0  0  0  0  0  0
  184.1250  177.7660  136.4730 C   0  0  0  0  0  2  0  0  0  0  0  0
  183.5160  176.4860  136.5660 O   0  0  0  0  0  0  0  0  0  0  0  0
  182.1580  176.3240  136.8470 C   0  0  0  0  0  0  0  0  0  0  0  0
  181.3050  176.7590  136.0310 O   0  0  0  0  0  0  0  0  0  0  0  0
  181.6910  175.6480  138.0920 C   0  0  0  0  0  1  0  0  0  0  0  0
  1  8  2  0  0  0  0
  1 13  1  0  0  0  0
  3  4  1  0  0  0  0
  4 23  2  0  0  0  0
  4 15  1  0  0  0  0
  5 19  2  0  0  0  0
  6  9  1  0  0  0  0
  8 14  1  0  0  0  0
  9 10  1  0  0  0  0
  9  2  2  0  0  0  0
 10 25  1  6  0  0  0
 10 17  1  0  0  0  0
 11 22  1  0  0  0  0
 11 18  1  1  0  0  0
 12  7  1  0  0  0  0
 13 16  2  0  0  0  0
 14  6  2  0  0  0  0
 14  5  1  0  0  0  0
 15 12  2  0  0  0  0
 16  5  1  0  0  0  0
 17 27  1  1  0  0  0
 17 11  1  0  0  0  0
 18 23  1  0  0  0  0
 19  2  1  0  0  0  0
 20  3  2  0  0  0  0
 21  7  2  0  0  0  0
 22  2  1  6  0  0  0
 22  3  1  0  0  0  0
 23 21  1  0  0  0  0
 24 25  1  0  0  0  0
 27 26  1  0  0  0  0
 28 29  1  0  0  0  0
 28  1  1  0  0  0  0
 29 30  1  0  0  0  0
 30 32  1  0  0  0  0
 31 30  2  0  0  0  0
M  END
>  <MODEL>
6

>  <REMARK>
 VINA RESULT:      -5.9      2.093      2.487
  Name = 
  5 active torsions:
  status: ('A' for Active; 'I' for Inactive)
    1  A    between atoms: C_1  and  O_10
    2  A    between atoms: C_2  and  C_24
    3  A    between atoms: O_10  and  C_24
    4  A    between atoms: C_13  and  C_15
    5  A    between atoms: O_25  and  C_26
                            x       y       z     vdW  Elec       q    Type
                         _______ _______ _______ _____ _____    ______ ____

>  <TORSDO>
F 5

$$$$
=
 OpenBabel11052417023D

 32 36  0  0  1  0  0  0  0  0999 V2000
  189.8200  177.6110  143.0900 C   0  0  0  0  0  0  0  0  0  0  0  0
  192.2100  176.6220  138.7740 C   0  0  0  0  0  0  0  0  0  0  0  0
  194.3010  175.4100  138.0420 C   0  0  0  0  0  0  0  0  0  0  0  0
  195.0890  174.7760  136.9680 C   0  0  0  0  0  0  0  0  0  0  0  0
  191.6740  177.3870  141.0070 C   0  0  0  0  0  0  0  0  0  0  0  0
  190.0220  176.2550  139.6920 N   0  0  0  0  0  0  0  0  0  0  0  0
  196.6150  173.6560  134.9010 C   0  0  0  0  0  3  0  0  0  0  0  0
  189.4550  176.9730  141.9000 C   0  0  0  0  0  3  0  0  0  0  0  0
  190.8910  176.1220  138.6530 C   0  0  0  0  0  0  0  0  0  0  0  0
  190.3790  175.5310  137.3600 C   0  0  2  0  0  3  0  0  0  0  0  0
  192.5920  176.1460  136.3210 C   0  0  2  0  0  3  0  0  0  0  0  0
  196.9610  173.4160  136.2330 C   0  0  0  0  0  3  0  0  0  0  0  0
  191.1130  178.1260  143.2410 C   0  0  0  0  0  3  0  0  0  0  0  0
  190.3760  176.8600  140.8560 C   0  0  0  0  0  0  0  0  0  0  0  0
  196.2020  173.9760  137.2650 C   0  0  0  0  0  3  0  0  0  0  0  0
  192.0400  178.0180  142.2000 C   0  0  0  0  0  3  0  0  0  0  0  0
  191.4970  175.0730  136.4210 C   0  0  1  0  0  3  0  0  0  0  0  0
  193.5850  175.7890  135.3100 N   0  0  0  0  0  2  0  0  0  0  0  0
  192.5850  177.2620  139.9610 C   0  0  0  0  0  3  0  0  0  0  0  0
  194.5630  175.1490  139.2490 O   0  0  0  0  0  0  0  0  0  0  0  0
  195.5040  174.4480  134.5970 C   0  0  0  0  0  3  0  0  0  0  0  0
  193.2450  176.4390  137.6870 C   0  0  1  0  0  3  0  0  0  0  0  0
  194.7350  175.0000  135.6260 C   0  0  0  0  0  0  0  0  0  0  0  0
  188.1420  176.1460  136.7700 O   0  0  0  0  0  1  0  0  0  0  0  0
  189.4790  176.5200  136.6320 C   0  0  0  0  0  2  0  0  0  0  0  0
  191.5700  172.9160  135.9220 C   0  0  0  0  0  1  0  0  0  0  0  0
  192.0170  173.8490  136.8580 O   0  0  0  0  0  0  0  0  0  0  0  0
  188.8470  177.7070  144.2100 C   0  0  0  0  0  2  0  0  0  0  0  0
  187.6050  177.1440  143.8130 O   0  0  0  0  0  0  0  0  0  0  0  0
  186.5120  177.9310  143.4450 C   0  0  0  0  0  0  0  0  0  0  0  0
  185.6490  178.2300  144.3110 O   0  0  0  0  0  0  0  0  0  0  0  0
  186.3410  178.4290  142.0490 C   0  0  0  0  0  1  0  0  0  0  0  0
  1 13  1  0  0  0  0
  1 28  1  0  0  0  0
  2 19  1  0  0  0  0
  3 20  2  0  0  0  0
  4 15  1  0  0  0  0
  4  3  1  0  0  0  0
  5 16  1  0  0  0  0
  6 14  2  0  0  0  0
  7 12  1  0  0  0  0
  8  1  2  0  0  0  0
  9  2  2  0  0  0  0
  9  6  1  0  0  0  0
 10 25  1  6  0  0  0
 10  9  1  0  0  0  0
 11 18  1  6  0  0  0
 11 17  1  0  0  0  0
 11 22  1  0  0  0  0
 12 15  2  0  0  0  0
 14  5  1  0  0  0  0
 14  8  1  0  0  0  0
 16 13  2  0  0  0  0
 17 27  1  1  0  0  0
 17 10  1  0  0  0  0
 18 23  1  0  0  0  0
 19  5  2  0  0  0  0
 21  7  2  0  0  0  0
 21 23  1  0  0  0  0
 22  3  1  1  0  0  0
 22  2  1  0  0  0  0
 23  4  2  0  0  0  0
 25 24  1  0  0  0  0
 26 27  1  0  0  0  0
 29 28  1  0  0  0  0
 30 29  1  0  0  0  0
 30 31  2  0  0  0  0
 32 30  1  0  0  0  0
M  END
>  <MODEL>
7

>  <REMARK>
 VINA RESULT:      -5.8      3.727      8.429
  Name = 
  5 active torsions:
  status: ('A' for Active; 'I' for Inactive)
    1  A    between atoms: C_1  and  O_10
    2  A    between atoms: C_2  and  C_24
    3  A    between atoms: O_10  and  C_24
    4  A    between atoms: C_13  and  C_15
    5  A    between atoms: O_25  and  C_26
                            x       y       z     vdW  Elec       q    Type
                         _______ _______ _______ _____ _____    ______ ____

>  <TORSDO>
F 5

$$$$
=
 OpenBabel11052417023D

 32 36  0  0  1  0  0  0  0  0999 V2000
  189.2770  178.1890  137.7170 C   0  0  0  0  0  0  0  0  0  0  0  0
  187.8020  177.3910  142.4610 C   0  0  0  0  0  0  0  0  0  0  0  0
  188.7580  177.6860  144.7800 C   0  0  0  0  0  0  0  0  0  0  0  0
  188.5450  177.7840  146.2360 C   0  0  0  0  0  0  0  0  0  0  0  0
  189.0270  177.3480  140.3740 C   0  0  0  0  0  0  0  0  0  0  0  0
  187.0080  178.6250  140.5610 N   0  0  0  0  0  0  0  0  0  0  0  0
  188.1350  177.8780  149.0080 C   0  0  0  0  0  3  0  0  0  0  0  0
  188.1950  178.6300  138.4870 C   0  0  0  0  0  3  0  0  0  0  0  0
  186.8460  178.2420  141.8570 C   0  0  0  0  0  0  0  0  0  0  0  0
  185.5860  178.6630  142.5780 C   0  0  2  0  0  3  0  0  0  0  0  0
  186.2950  177.1670  144.4780 C   0  0  2  0  0  3  0  0  0  0  0  0
  189.3580  178.2850  148.4680 C   0  0  0  0  0  3  0  0  0  0  0  0
  190.2370  177.3380  138.2790 C   0  0  0  0  0  3  0  0  0  0  0  0
  188.0650  178.2120  139.8140 C   0  0  0  0  0  0  0  0  0  0  0  0
  189.5640  178.2360  147.0860 C   0  0  0  0  0  3  0  0  0  0  0  0
  190.1120  176.9150  139.6060 C   0  0  0  0  0  3  0  0  0  0  0  0
  185.6860  178.5250  144.0990 C   0  0  1  0  0  3  0  0  0  0  0  0
  186.2520  176.9590  145.9240 N   0  0  0  0  0  2  0  0  0  0  0  0
  188.8880  176.9450  141.6990 C   0  0  0  0  0  3  0  0  0  0  0  0
  189.8340  178.1110  144.2750 O   0  0  0  0  0  0  0  0  0  0  0  0
  187.1120  177.4320  148.1660 C   0  0  0  0  0  3  0  0  0  0  0  0
  187.7220  176.9930  143.9170 C   0  0  1  0  0  3  0  0  0  0  0  0
  187.3100  177.3920  146.7830 C   0  0  0  0  0  0  0  0  0  0  0  0
  183.2200  178.6300  142.2150 O   0  0  0  0  0  1  0  0  0  0  0  0
  184.3850  177.8750  142.0750 C   0  0  0  0  0  2  0  0  0  0  0  0
  185.6220  180.1240  145.6310 C   0  0  0  0  0  1  0  0  0  0  0  0
  186.4290  179.5870  144.6280 O   0  0  0  0  0  0  0  0  0  0  0  0
  189.4290  178.6560  136.3130 C   0  0  0  0  0  2  0  0  0  0  0  0
  189.2550  177.5610  135.4250 O   0  0  0  0  0  0  0  0  0  0  0  0
  188.0000  177.0120  135.1530 C   0  0  0  0  0  0  0  0  0  0  0  0
  187.8510  175.7640  135.1960 O   0  0  0  0  0  0  0  0  0  0  0  0
  186.8280  177.8720  134.8130 C   0  0  0  0  0  1  0  0  0  0  0  0
  1 13  2  0  0  0  0
  1  8  1  0  0  0  0
  3  4  1  0  0  0  0
  4 23  2  0  0  0  0
  4 15  1  0  0  0  0
  5 19  1  0  0  0  0
  6  9  2  0  0  0  0
  8 14  2  0  0  0  0
  9  2  1  0  0  0  0
  9 10  1  0  0  0  0
 10 25  1  6  0  0  0
 10 17  1  0  0  0  0
 11 18  1  1  0  0  0
 12  7  1  0  0  0  0
 13 16  1  0  0  0  0
 14  5  1  0  0  0  0
 14  6  1  0  0  0  0
 15 12  2  0  0  0  0
 16  5  2  0  0  0  0
 17 11  1  0  0  0  0
 17 27  1  6  0  0  0
 18 23  1  0  0  0  0
 19  2  2  0  0  0  0
 20  3  2  0  0  0  0
 21  7  2  0  0  0  0
 22  2  1  6  0  0  0
 22 11  1  0  0  0  0
 22  3  1  0  0  0  0
 23 21  1  0  0  0  0
 25 24  1  0  0  0  0
 27 26  1  0  0  0  0
 28  1  1  0  0  0  0
 29 28  1  0  0  0  0
 30 31  2  0  0  0  0
 30 29  1  0  0  0  0
 32 30  1  0  0  0  0
M  END
>  <MODEL>
8

>  <REMARK>
 VINA RESULT:      -5.6      2.464      4.377
  Name = 
  5 active torsions:
  status: ('A' for Active; 'I' for Inactive)
    1  A    between atoms: C_1  and  O_10
    2  A    between atoms: C_2  and  C_24
    3  A    between atoms: O_10  and  C_24
    4  A    between atoms: C_13  and  C_15
    5  A    between atoms: O_25  and  C_26
                            x       y       z     vdW  Elec       q    Type
                         _______ _______ _______ _____ _____    ______ ____

>  <TORSDO>
F 5

$$$$
=
 OpenBabel11052417023D

 32 36  0  0  1  0  0  0  0  0999 V2000
  192.3390  175.4930  137.8890 C   0  0  0  0  0  0  0  0  0  0  0  0
  187.5950  174.9750  136.2940 C   0  0  0  0  0  0  0  0  0  0  0  0
  185.6990  173.3360  136.6010 C   0  0  0  0  0  0  0  0  0  0  0  0
  184.2600  173.0300  136.5030 C   0  0  0  0  0  0  0  0  0  0  0  0
  189.9390  174.5970  136.7640 C   0  0  0  0  0  0  0  0  0  0  0  0
  188.8840  176.6320  137.4610 N   0  0  0  0  0  0  0  0  0  0  0  0
  181.5350  172.4310  136.2250 C   0  0  0  0  0  3  0  0  0  0  0  0
  191.1950  176.2930  137.9650 C   0  0  0  0  0  3  0  0  0  0  0  0
  187.6950  176.2380  136.9280 C   0  0  0  0  0  0  0  0  0  0  0  0
  186.5420  177.2140  136.9440 C   0  0  2  0  0  3  0  0  0  0  0  0
  185.2720  175.5810  135.5030 C   0  0  2  0  0  3  0  0  0  0  0  0
  182.3610  171.5940  136.9790 C   0  0  0  0  0  3  0  0  0  0  0  0
  192.2800  174.2420  137.2610 C   0  0  0  0  0  3  0  0  0  0  0  0
  189.9940  175.8520  137.4040 C   0  0  0  0  0  0  0  0  0  0  0  0
  183.7200  171.8900  137.1160 C   0  0  0  0  0  3  0  0  0  0  0  0
  191.0820  173.7950  136.6960 C   0  0  0  0  0  3  0  0  0  0  0  0
  185.1860  176.5500  136.6920 C   0  0  1  0  0  3  0  0  0  0  0  0
  183.9520  175.0600  135.1550 N   0  0  0  0  0  2  0  0  0  0  0  0
  188.7350  174.1670  136.2140 C   0  0  0  0  0  3  0  0  0  0  0  0
  186.4420  172.6250  137.3320 O   0  0  0  0  0  0  0  0  0  0  0  0
  182.0640  173.5720  135.6150 C   0  0  0  0  0  3  0  0  0  0  0  0
  186.2870  174.4470  135.7520 C   0  0  1  0  0  3  0  0  0  0  0  0
  183.4210  173.8790  135.7600 C   0  0  0  0  0  0  0  0  0  0  0  0
  187.3480  179.4310  136.5410 O   0  0  0  0  0  1  0  0  0  0  0  0
  186.7590  178.3260  135.9280 C   0  0  0  0  0  2  0  0  0  0  0  0
  183.6860  176.6800  138.3170 C   0  0  0  0  0  1  0  0  0  0  0  0
  184.7470  175.9030  137.8520 O   0  0  0  0  0  0  0  0  0  0  0  0
  193.6100  175.9520  138.5100 C   0  0  0  0  0  2  0  0  0  0  0  0
  194.7050  175.2590  137.9280 O   0  0  0  0  0  0  0  0  0  0  0  0
  195.5560  174.4440  138.6780 C   0  0  0  0  0  0  0  0  0  0  0  0
  196.1690  174.9340  139.6610 O   0  0  0  0  0  0  0  0  0  0  0  0
  195.7560  173.0040  138.3430 C   0  0  0  0  0  1  0  0  0  0  0  0
  1  8  1  0  0  0  0
  1 28  1  0  0  0  0
  2  9  1  0  0  0  0
  3 20  2  0  0  0  0
  4  3  1  0  0  0  0
  4 15  1  0  0  0  0
  5 14  1  0  0  0  0
  7 12  1  0  0  0  0
  9 10  1  0  0  0  0
  9  6  2  0  0  0  0
 10 25  1  6  0  0  0
 11 18  1  1  0  0  0
 11 22  1  0  0  0  0
 11 17  1  0  0  0  0
 12 15  2  0  0  0  0
 13  1  2  0  0  0  0
 14  6  1  0  0  0  0
 14  8  2  0  0  0  0
 16  5  2  0  0  0  0
 16 13  1  0  0  0  0
 17 10  1  0  0  0  0
 17 27  1  1  0  0  0
 18 23  1  0  0  0  0
 19  2  2  0  0  0  0
 19  5  1  0  0  0  0
 21 23  1  0  0  0  0
 21  7  2  0  0  0  0
 22  2  1  1  0  0  0
 22  3  1  0  0  0  0
 23  4  2  0  0  0  0
 25 24  1  0  0  0  0
 27 26  1  0  0  0  0
 29 28  1  0  0  0  0
 29 30  1  0  0  0  0
 30 31  2  0  0  0  0
 32 30  1  0  0  0  0
M  END
>  <MODEL>
9

>  <REMARK>
 VINA RESULT:      -5.3      5.147      8.685
  Name = 
  5 active torsions:
  status: ('A' for Active; 'I' for Inactive)
    1  A    between atoms: C_1  and  O_10
    2  A    between atoms: C_2  and  C_24
    3  A    between atoms: O_10  and  C_24
    4  A    between atoms: C_13  and  C_15
    5  A    between atoms: O_25  and  C_26
                            x       y       z     vdW  Elec       q    Type
                         _______ _______ _______ _____ _____    ______ ____

>  <TORSDO>
F 5

$$$$
