=
 OpenBabel11052413153D

 31 34  0  0  1  0  0  0  0  0999 V2000
  190.6090  177.2050  147.1190 C   0  0  0  0  0  0  0  0  0  0  0  0
  188.2910  177.5470  144.0950 C   0  0  0  0  0  0  0  0  0  0  0  0
  187.0030  177.9040  144.5790 C   0  0  0  0  0  0  0  0  0  0  0  0
  185.4220  178.2390  146.4040 C   0  0  0  0  0  3  0  0  0  0  0  0
  189.4490  177.1790  144.9770 C   0  0  0  0  0  0  0  0  0  0  0  0
  191.6870  176.5230  146.5550 C   0  0  0  0  0  3  0  0  0  0  0  0
  186.6940  177.8920  145.9490 C   0  0  0  0  0  3  0  0  0  0  0  0
  189.8520  177.1750  142.1250 C   0  0  2  0  0  3  0  0  0  0  0  0
  190.6370  177.5500  148.4290 F   0  0  0  0  0  0  0  0  0  0  0  0
  186.2680  178.2520  142.2930 C   0  0  0  0  0  3  0  0  0  0  0  0
  184.4310  178.6030  145.4950 C   0  0  0  0  0  3  0  0  0  0  0  0
  190.5410  176.1070  142.9730 C   0  0  0  0  0  2  0  0  0  0  0  0
  188.4940  177.5180  142.6930 C   0  0  0  0  0  0  0  0  0  0  0  0
  189.5020  177.5330  146.3350 C   0  0  0  0  0  3  0  0  0  0  0  0
  183.6030  179.0090  143.1920 C   0  0  0  0  0  1  0  0  0  0  0  0
  190.5580  176.5130  144.4120 C   0  0  0  0  0  0  0  0  0  0  0  0
  191.6610  176.1750  145.2020 C   0  0  0  0  0  3  0  0  0  0  0  0
  187.4950  177.8900  141.8480 N   0  0  0  0  0  0  0  0  0  0  0  0
  185.9830  178.2620  143.6600 C   0  0  0  0  0  0  0  0  0  0  0  0
  184.7000  178.6170  144.1260 C   0  0  0  0  0  0  0  0  0  0  0  0
  191.8530  177.4480  140.1030 O   0  0  0  0  0  0  0  0  0  0  0  0
  190.7790  176.8660  139.7890 C   0  0  0  0  0  0  0  0  0  0  0  0
  189.7340  176.7050  140.7510 N   0  0  0  0  0  2  0  0  0  0  0  0
  191.1250  175.0160  138.3380 O   0  0  0  0  0  1  0  0  0  0  0  0
  190.5970  176.3080  138.4160 C   0  0  1  0  0  3  0  0  0  0  0  0
  188.7460  175.0870  137.4820 O   0  0  0  0  0  1  0  0  0  0  0  0
  189.1240  176.3260  138.0060 C   0  0  2  0  0  3  0  0  0  0  0  0
  188.8560  177.4160  136.9790 C   0  0  0  0  0  2  0  0  0  0  0  0
  188.3590  178.6550  137.6410 C   0  0  0  0  0  0  0  0  0  0  0  0
  188.9590  179.7470  137.4630 O   0  0  0  0  0  0  0  0  0  0  0  0
  187.2150  178.6130  138.4260 O   0  0  0  0  0  1  0  0  0  0  0  0
  1  9  1  0  0  0  0
  2  3  1  0  0  0  0
  2  5  1  0  0  0  0
  3  7  1  0  0  0  0
  5 14  1  0  0  0  0
  6  1  1  0  0  0  0
  7  4  2  0  0  0  0
  8 23  1  6  0  0  0
  8 13  1  0  0  0  0
  8 12  1  0  0  0  0
 10 19  1  0  0  0  0
 11  4  1  0  0  0  0
 12 16  1  0  0  0  0
 13  2  2  0  0  0  0
 14  1  2  0  0  0  0
 15 20  1  0  0  0  0
 16  5  2  0  0  0  0
 16 17  1  0  0  0  0
 17  6  2  0  0  0  0
 18 10  2  0  0  0  0
 18 13  1  0  0  0  0
 19 20  1  0  0  0  0
 19  3  2  0  0  0  0
 20 11  2  0  0  0  0
 22 21  2  0  0  0  0
 22 23  1  0  0  0  0
 25 24  1  1  0  0  0
 25 22  1  0  0  0  0
 27 26  1  6  0  0  0
 27 25  1  0  0  0  0
 28 29  1  0  0  0  0
 28 27  1  0  0  0  0
 29 31  1  0  0  0  0
 30 29  2  0  0  0  0
M  END
>  <MODEL>
1

>  <REMARK>
 VINA RESULT:     -11.0      0.000      0.000
  Name = 
  5 active torsions:
  status: ('A' for Active; 'I' for Inactive)
    1  A    between atoms: C_1  and  C_24
    2  A    between atoms: C_9  and  C_22
    3  A    between atoms: C_15  and  N_23
    4  A    between atoms: C_19  and  C_22
    5  A    between atoms: C_19  and  C_24
                            x       y       z     vdW  Elec       q    Type
                         _______ _______ _______ _____ _____    ______ ____

>  <TORSDO>
F 5

$$$$
=
 OpenBabel11052413153D

 31 34  0  0  1  0  0  0  0  0999 V2000
  190.7560  177.0270  146.3690 C   0  0  0  0  0  0  0  0  0  0  0  0
  187.8840  177.6840  143.9280 C   0  0  0  0  0  0  0  0  0  0  0  0
  186.7260  177.9830  144.6970 C   0  0  0  0  0  0  0  0  0  0  0  0
  185.5520  178.1160  146.8300 C   0  0  0  0  0  3  0  0  0  0  0  0
  189.1880  177.2270  144.5140 C   0  0  0  0  0  0  0  0  0  0  0  0
  191.6860  176.4120  145.5290 C   0  0  0  0  0  3  0  0  0  0  0  0
  186.6990  177.8230  146.0920 C   0  0  0  0  0  3  0  0  0  0  0  0
  189.0090  177.5300  141.6560 C   0  0  2  0  0  3  0  0  0  0  0  0
  191.0530  177.2290  147.6750 F   0  0  0  0  0  0  0  0  0  0  0  0
  185.5520  178.5720  142.6570 C   0  0  0  0  0  3  0  0  0  0  0  0
  184.4040  178.5720  146.1830 C   0  0  0  0  0  3  0  0  0  0  0  0
  189.8340  176.3780  142.2290 C   0  0  0  0  0  2  0  0  0  0  0  0
  187.7990  177.8050  142.5190 C   0  0  0  0  0  0  0  0  0  0  0  0
  189.5200  177.4340  145.8630 C   0  0  0  0  0  3  0  0  0  0  0  0
  183.1380  179.2200  144.1510 C   0  0  0  0  0  1  0  0  0  0  0  0
  190.1480  176.6280  143.6700 C   0  0  0  0  0  0  0  0  0  0  0  0
  191.3810  176.2110  144.1810 C   0  0  0  0  0  3  0  0  0  0  0  0
  186.6580  178.2630  141.9380 N   0  0  0  0  0  0  0  0  0  0  0  0
  185.5490  178.4350  144.0460 C   0  0  0  0  0  0  0  0  0  0  0  0
  184.3930  178.7340  144.7970 C   0  0  0  0  0  0  0  0  0  0  0  0
  189.0520  179.3420  139.4460 O   0  0  0  0  0  0  0  0  0  0  0  0
  188.6620  178.1620  139.2280 C   0  0  0  0  0  0  0  0  0  0  0  0
  188.6080  177.2090  140.2920 N   0  0  0  0  0  2  0  0  0  0  0  0
  187.5640  178.7480  137.2040 O   0  0  0  0  0  1  0  0  0  0  0  0
  188.2830  177.7370  137.8490 C   0  0  1  0  0  3  0  0  0  0  0  0
  189.3580  177.6920  135.6970 O   0  0  0  0  0  1  0  0  0  0  0  0
  189.5160  177.3370  137.0380 C   0  0  2  0  0  3  0  0  0  0  0  0
  189.7760  175.8410  137.1420 C   0  0  0  0  0  2  0  0  0  0  0  0
  191.0210  175.5720  137.9150 C   0  0  0  0  0  0  0  0  0  0  0  0
  191.4970  174.4080  137.9570 O   0  0  0  0  0  0  0  0  0  0  0  0
  191.6760  176.6120  138.5610 O   0  0  0  0  0  1  0  0  0  0  0  0
  1  9  1  0  0  0  0
  2  5  1  0  0  0  0
  2  3  1  0  0  0  0
  3  7  1  0  0  0  0
  5 14  2  0  0  0  0
  6  1  2  0  0  0  0
  7  4  2  0  0  0  0
  8 23  1  6  0  0  0
  8 12  1  0  0  0  0
  8 13  1  0  0  0  0
 10 19  1  0  0  0  0
 11  4  1  0  0  0  0
 12 16  1  0  0  0  0
 13  2  2  0  0  0  0
 14  1  1  0  0  0  0
 15 20  1  0  0  0  0
 16 17  2  0  0  0  0
 16  5  1  0  0  0  0
 17  6  1  0  0  0  0
 18 13  1  0  0  0  0
 18 10  2  0  0  0  0
 19  3  2  0  0  0  0
 19 20  1  0  0  0  0
 20 11  2  0  0  0  0
 22 21  2  0  0  0  0
 22 23  1  0  0  0  0
 25 24  1  6  0  0  0
 25 22  1  0  0  0  0
 27 26  1  6  0  0  0
 27 28  1  0  0  0  0
 27 25  1  0  0  0  0
 28 29  1  0  0  0  0
 29 30  2  0  0  0  0
 29 31  1  0  0  0  0
M  END
>  <MODEL>
2

>  <REMARK>
 VINA RESULT:     -10.6      1.110      2.269
  Name = 
  5 active torsions:
  status: ('A' for Active; 'I' for Inactive)
    1  A    between atoms: C_1  and  C_24
    2  A    between atoms: C_9  and  C_22
    3  A    between atoms: C_15  and  N_23
    4  A    between atoms: C_19  and  C_22
    5  A    between atoms: C_19  and  C_24
                            x       y       z     vdW  Elec       q    Type
                         _______ _______ _______ _____ _____    ______ ____

>  <TORSDO>
F 5

$$$$
=
 OpenBabel11052413153D

 31 34  0  0  1  0  0  0  0  0999 V2000
  185.1280  178.2490  143.0130 C   0  0  0  0  0  0  0  0  0  0  0  0
  188.8350  177.4510  143.5180 C   0  0  0  0  0  0  0  0  0  0  0  0
  189.0640  177.3370  144.9160 C   0  0  0  0  0  0  0  0  0  0  0  0
  188.3290  177.5750  147.2290 C   0  0  0  0  0  3  0  0  0  0  0  0
  187.5370  177.8980  142.9110 C   0  0  0  0  0  0  0  0  0  0  0  0
  185.1250  178.6800  141.6860 C   0  0  0  0  0  3  0  0  0  0  0  0
  188.0850  177.6880  145.8600 C   0  0  0  0  0  3  0  0  0  0  0  0
  189.7050  177.2180  141.1430 C   0  0  2  0  0  3  0  0  0  0  0  0
  183.9690  178.2090  143.7140 F   0  0  0  0  0  0  0  0  0  0  0  0
  191.3130  176.5510  144.4600 C   0  0  0  0  0  3  0  0  0  0  0  0
  189.5630  177.1110  147.6810 C   0  0  0  0  0  3  0  0  0  0  0  0
  188.7850  178.3800  140.7740 C   0  0  0  0  0  2  0  0  0  0  0  0
  189.9030  177.1430  142.6390 C   0  0  0  0  0  0  0  0  0  0  0  0
  186.3240  177.8570  143.6180 C   0  0  0  0  0  3  0  0  0  0  0  0
  191.8680  176.2740  147.3060 C   0  0  0  0  0  1  0  0  0  0  0  0
  187.5150  178.3110  141.5620 C   0  0  0  0  0  0  0  0  0  0  0  0
  186.3180  178.7130  140.9610 C   0  0  0  0  0  3  0  0  0  0  0  0
  191.0850  176.6850  143.1320 N   0  0  0  0  0  0  0  0  0  0  0  0
  190.3220  176.8780  145.3870 C   0  0  0  0  0  0  0  0  0  0  0  0
  190.5620  176.7610  146.7710 C   0  0  0  0  0  0  0  0  0  0  0  0
  190.5580  175.7230  138.8610 O   0  0  0  0  0  0  0  0  0  0  0  0
  191.3450  176.5970  139.3150 C   0  0  0  0  0  0  0  0  0  0  0  0
  190.9830  177.3730  140.4600 N   0  0  0  0  0  2  0  0  0  0  0  0
  193.6040  177.2890  139.5720 O   0  0  0  0  0  1  0  0  0  0  0  0
  192.6530  176.8570  138.6430 C   0  0  1  0  0  3  0  0  0  0  0  0
  194.4440  175.2910  138.2790 O   0  0  0  0  0  1  0  0  0  0  0  0
  193.1410  175.6160  137.8930 C   0  0  2  0  0  3  0  0  0  0  0  0
  193.0960  175.8350  136.3890 C   0  0  0  0  0  2  0  0  0  0  0  0
  194.4440  176.1930  135.8660 C   0  0  0  0  0  0  0  0  0  0  0  0
  194.8770  177.3690  135.9910 O   0  0  0  0  0  1  0  0  0  0  0  0
  195.2390  175.2230  135.2700 O   0  0  0  0  0  0  0  0  0  0  0  0
  1 14  1  0  0  0  0
  1  9  1  0  0  0  0
  2  3  1  0  0  0  0
  3 19  2  0  0  0  0
  3  7  1  0  0  0  0
  4 11  1  0  0  0  0
  5  2  1  0  0  0  0
  5 14  2  0  0  0  0
  6  1  2  0  0  0  0
  7  4  2  0  0  0  0
  8 23  1  6  0  0  0
  8 13  1  0  0  0  0
 10 19  1  0  0  0  0
 12  8  1  0  0  0  0
 12 16  1  0  0  0  0
 13 18  1  0  0  0  0
 13  2  2  0  0  0  0
 16  5  1  0  0  0  0
 17 16  2  0  0  0  0
 17  6  1  0  0  0  0
 18 10  2  0  0  0  0
 19 20  1  0  0  0  0
 20 15  1  0  0  0  0
 20 11  2  0  0  0  0
 21 22  2  0  0  0  0
 22 23  1  0  0  0  0
 25 22  1  0  0  0  0
 25 24  1  1  0  0  0
 27 26  1  1  0  0  0
 27 25  1  0  0  0  0
 28 27  1  0  0  0  0
 29 30  1  0  0  0  0
 29 28  1  0  0  0  0
 31 29  2  0  0  0  0
M  END
>  <MODEL>
3

>  <REMARK>
 VINA RESULT:     -10.4      2.610      5.189
  Name = 
  5 active torsions:
  status: ('A' for Active; 'I' for Inactive)
    1  A    between atoms: C_1  and  C_24
    2  A    between atoms: C_9  and  C_22
    3  A    between atoms: C_15  and  N_23
    4  A    between atoms: C_19  and  C_22
    5  A    between atoms: C_19  and  C_24
                            x       y       z     vdW  Elec       q    Type
                         _______ _______ _______ _____ _____    ______ ____

>  <TORSDO>
F 5

$$$$
=
 OpenBabel11052413153D

 31 34  0  0  1  0  0  0  0  0999 V2000
  190.6890  177.1310  146.2630 C   0  0  0  0  0  0  0  0  0  0  0  0
  187.8170  177.7020  143.8010 C   0  0  0  0  0  0  0  0  0  0  0  0
  186.6560  178.0140  144.5590 C   0  0  0  0  0  0  0  0  0  0  0  0
  185.4770  178.1970  146.6860 C   0  0  0  0  0  3  0  0  0  0  0  0
  189.1240  177.2700  144.4010 C   0  0  0  0  0  0  0  0  0  0  0  0
  191.6240  176.5000  145.4420 C   0  0  0  0  0  3  0  0  0  0  0  0
  186.6270  177.8920  145.9580 C   0  0  0  0  0  3  0  0  0  0  0  0
  188.9480  177.4950  141.5360 C   0  0  2  0  0  3  0  0  0  0  0  0
  190.9820  177.3700  147.5640 F   0  0  0  0  0  0  0  0  0  0  0  0
  185.4820  178.5400  142.5020 C   0  0  0  0  0  3  0  0  0  0  0  0
  184.3270  178.6280  146.0250 C   0  0  0  0  0  3  0  0  0  0  0  0
  189.7790  176.3650  142.1410 C   0  0  0  0  0  2  0  0  0  0  0  0
  187.7350  177.7850  142.3890 C   0  0  0  0  0  0  0  0  0  0  0  0
  189.4510  177.5160  145.7440 C   0  0  0  0  0  3  0  0  0  0  0  0
  183.0610  179.2120  143.9740 C   0  0  0  0  0  1  0  0  0  0  0  0
  190.0890  176.6550  143.5750 C   0  0  0  0  0  0  0  0  0  0  0  0
  191.3240  176.2610  144.0990 C   0  0  0  0  0  3  0  0  0  0  0  0
  186.5910  178.2200  141.7940 N   0  0  0  0  0  0  0  0  0  0  0  0
  185.4770  178.4400  143.8950 C   0  0  0  0  0  0  0  0  0  0  0  0
  184.3180  178.7520  144.6350 C   0  0  0  0  0  0  0  0  0  0  0  0
  189.0560  179.2240  139.2630 O   0  0  0  0  0  0  0  0  0  0  0  0
  188.6390  178.0470  139.0830 C   0  0  0  0  0  0  0  0  0  0  0  0
  188.5510  177.1350  140.1800 N   0  0  0  0  0  2  0  0  0  0  0  0
  188.1430  176.1890  137.6880 O   0  0  0  0  0  1  0  0  0  0  0  0
  188.2620  177.5820  137.7160 C   0  0  1  0  0  3  0  0  0  0  0  0
  187.2230  179.5640  136.8330 O   0  0  0  0  0  1  0  0  0  0  0  0
  186.9710  178.2520  137.2430 C   0  0  2  0  0  3  0  0  0  0  0  0
  185.9220  178.2560  138.3450 C   0  0  0  0  0  2  0  0  0  0  0  0
  184.6730  177.5840  137.8890 C   0  0  0  0  0  0  0  0  0  0  0  0
  183.8350  177.1730  138.7330 O   0  0  0  0  0  1  0  0  0  0  0  0
  184.4180  177.4400  136.5320 O   0  0  0  0  0  0  0  0  0  0  0  0
  1  9  1  0  0  0  0
  2  5  1  0  0  0  0
  2  3  1  0  0  0  0
  3  7  1  0  0  0  0
  5 14  2  0  0  0  0
  6  1  2  0  0  0  0
  7  4  2  0  0  0  0
  8 23  1  6  0  0  0
  8 12  1  0  0  0  0
  8 13  1  0  0  0  0
 10 19  1  0  0  0  0
 11  4  1  0  0  0  0
 12 16  1  0  0  0  0
 13  2  2  0  0  0  0
 14  1  1  0  0  0  0
 15 20  1  0  0  0  0
 16 17  2  0  0  0  0
 16  5  1  0  0  0  0
 17  6  1  0  0  0  0
 18 13  1  0  0  0  0
 18 10  2  0  0  0  0
 19  3  2  0  0  0  0
 19 20  1  0  0  0  0
 20 11  2  0  0  0  0
 22 21  2  0  0  0  0
 22 23  1  0  0  0  0
 25 24  1  1  0  0  0
 25 22  1  0  0  0  0
 27 26  1  1  0  0  0
 27 25  1  0  0  0  0
 27 28  1  0  0  0  0
 29 28  1  0  0  0  0
 29 30  1  0  0  0  0
 31 29  2  0  0  0  0
M  END
>  <MODEL>
4

>  <REMARK>
 VINA RESULT:     -10.2      1.556      2.249
  Name = 
  5 active torsions:
  status: ('A' for Active; 'I' for Inactive)
    1  A    between atoms: C_1  and  C_24
    2  A    between atoms: C_9  and  C_22
    3  A    between atoms: C_15  and  N_23
    4  A    between atoms: C_19  and  C_22
    5  A    between atoms: C_19  and  C_24
                            x       y       z     vdW  Elec       q    Type
                         _______ _______ _______ _____ _____    ______ ____

>  <TORSDO>
F 5

$$$$
=
 OpenBabel11052413153D

 31 34  0  0  1  0  0  0  0  0999 V2000
  186.7500  178.2190  146.7460 C   0  0  0  0  0  0  0  0  0  0  0  0
  185.7700  178.2930  143.0480 C   0  0  0  0  0  0  0  0  0  0  0  0
  184.3690  178.5300  142.9790 C   0  0  0  0  0  0  0  0  0  0  0  0
  182.1820  178.7370  144.0350 C   0  0  0  0  0  3  0  0  0  0  0  0
  186.5200  178.0510  144.3260 C   0  0  0  0  0  0  0  0  0  0  0  0
  188.0160  177.6360  146.6750 C   0  0  0  0  0  3  0  0  0  0  0  0
  183.5550  178.5080  144.1230 C   0  0  0  0  0  3  0  0  0  0  0  0
  187.9980  178.0470  141.8540 C   0  0  2  0  0  3  0  0  0  0  0  0
  186.2370  178.5830  147.9460 F   0  0  0  0  0  0  0  0  0  0  0  0
  184.5540  178.7740  140.5730 C   0  0  0  0  0  3  0  0  0  0  0  0
  181.5940  178.9900  142.7970 C   0  0  0  0  0  3  0  0  0  0  0  0
  188.3900  177.0620  142.9540 C   0  0  0  0  0  2  0  0  0  0  0  0
  186.5030  178.2640  141.8360 C   0  0  0  0  0  0  0  0  0  0  0  0
  186.0110  178.4280  145.5790 C   0  0  0  0  0  3  0  0  0  0  0  0
  181.6960  179.2830  140.3360 C   0  0  0  0  0  1  0  0  0  0  0  0
  187.8130  177.4870  144.2670 C   0  0  0  0  0  0  0  0  0  0  0  0
  188.5460  177.2690  145.4370 C   0  0  0  0  0  3  0  0  0  0  0  0
  185.8830  178.5270  140.6540 N   0  0  0  0  0  0  0  0  0  0  0  0
  183.7600  178.7760  141.7210 C   0  0  0  0  0  0  0  0  0  0  0  0
  182.3730  179.0120  141.6380 C   0  0  0  0  0  0  0  0  0  0  0  0
  190.7300  177.6210  141.1300 O   0  0  0  0  0  0  0  0  0  0  0  0
  189.8470  177.3490  140.2710 C   0  0  0  0  0  0  0  0  0  0  0  0
  188.4630  177.5490  140.5660 N   0  0  0  0  0  2  0  0  0  0  0  0
  190.8280  175.5290  139.1010 O   0  0  0  0  0  1  0  0  0  0  0  0
  190.2350  176.7850  138.9440 C   0  0  1  0  0  3  0  0  0  0  0  0
  188.8590  175.4100  137.5290 O   0  0  0  0  0  1  0  0  0  0  0  0
  189.0310  176.7120  138.0050 C   0  0  2  0  0  3  0  0  0  0  0  0
  189.1960  177.6650  136.8310 C   0  0  0  0  0  2  0  0  0  0  0  0
  188.4960  178.9540  137.0930 C   0  0  0  0  0  0  0  0  0  0  0  0
  189.0740  179.8630  137.7450 O   0  0  0  0  0  1  0  0  0  0  0  0
  187.2190  179.1660  136.5910 O   0  0  0  0  0  0  0  0  0  0  0  0
  1  9  1  0  0  0  0
  2  5  1  0  0  0  0
  3  2  1  0  0  0  0
  3  7  1  0  0  0  0
  4  7  2  0  0  0  0
  5 14  1  0  0  0  0
  6  1  1  0  0  0  0
  8 23  1  6  0  0  0
  8 12  1  0  0  0  0
 10 18  2  0  0  0  0
 10 19  1  0  0  0  0
 11  4  1  0  0  0  0
 12 16  1  0  0  0  0
 13  8  1  0  0  0  0
 13  2  2  0  0  0  0
 14  1  2  0  0  0  0
 15 20  1  0  0  0  0
 16  5  2  0  0  0  0
 16 17  1  0  0  0  0
 17  6  2  0  0  0  0
 18 13  1  0  0  0  0
 19  3  2  0  0  0  0
 20 19  1  0  0  0  0
 20 11  2  0  0  0  0
 22 23  1  0  0  0  0
 22 21  2  0  0  0  0
 25 24  1  1  0  0  0
 25 22  1  0  0  0  0
 27 26  1  6  0  0  0
 27 25  1  0  0  0  0
 28 29  1  0  0  0  0
 28 27  1  0  0  0  0
 29 30  1  0  0  0  0
 31 29  2  0  0  0  0
M  END
>  <MODEL>
5

>  <REMARK>
 VINA RESULT:      -9.7      1.704      2.712
  Name = 
  5 active torsions:
  status: ('A' for Active; 'I' for Inactive)
    1  A    between atoms: C_1  and  C_24
    2  A    between atoms: C_9  and  C_22
    3  A    between atoms: C_15  and  N_23
    4  A    between atoms: C_19  and  C_22
    5  A    between atoms: C_19  and  C_24
                            x       y       z     vdW  Elec       q    Type
                         _______ _______ _______ _____ _____    ______ ____

>  <TORSDO>
F 5

$$$$
=
 OpenBabel11052413153D

 31 34  0  0  1  0  0  0  0  0999 V2000
  184.0260  178.6510  144.3980 C   0  0  0  0  0  0  0  0  0  0  0  0
  187.7330  177.7300  144.1710 C   0  0  0  0  0  0  0  0  0  0  0  0
  188.2350  177.6400  145.4980 C   0  0  0  0  0  0  0  0  0  0  0  0
  187.9900  177.9570  147.9030 C   0  0  0  0  0  3  0  0  0  0  0  0
  186.3530  178.2100  143.8250 C   0  0  0  0  0  0  0  0  0  0  0  0
  183.7690  179.0520  143.0860 C   0  0  0  0  0  3  0  0  0  0  0  0
  187.4780  178.0480  146.6090 C   0  0  0  0  0  3  0  0  0  0  0  0
  188.0980  177.4100  141.6780 C   0  0  2  0  0  3  0  0  0  0  0  0
  183.0330  178.6700  145.3190 F   0  0  0  0  0  0  0  0  0  0  0  0
  190.3200  176.7610  144.6230 C   0  0  0  0  0  3  0  0  0  0  0  0
  189.2750  177.4580  148.1120 C   0  0  0  0  0  3  0  0  0  0  0  0
  187.1590  178.5980  141.4670 C   0  0  0  0  0  2  0  0  0  0  0  0
  188.5910  177.3630  143.1060 C   0  0  0  0  0  0  0  0  0  0  0  0
  185.3070  178.2300  144.7610 C   0  0  0  0  0  3  0  0  0  0  0  0
  191.4280  176.5280  147.3060 C   0  0  0  0  0  1  0  0  0  0  0  0
  186.0730  178.5930  142.4960 C   0  0  0  0  0  0  0  0  0  0  0  0
  184.7920  179.0250  142.1360 C   0  0  0  0  0  3  0  0  0  0  0  0
  189.8330  176.8730  143.3640 N   0  0  0  0  0  0  0  0  0  0  0  0
  189.5470  177.1450  145.7200 C   0  0  0  0  0  0  0  0  0  0  0  0
  190.0580  177.0510  147.0310 C   0  0  0  0  0  0  0  0  0  0  0  0
  187.9390  177.0240  138.8510 O   0  0  0  0  0  0  0  0  0  0  0  0
  189.0660  177.3060  139.3400 C   0  0  0  0  0  0  0  0  0  0  0  0
  189.2160  177.5030  140.7480 N   0  0  0  0  0  2  0  0  0  0  0  0
  191.4340  177.2290  139.1600 O   0  0  0  0  0  1  0  0  0  0  0  0
  190.2540  177.4720  138.4510 C   0  0  1  0  0  3  0  0  0  0  0  0
  191.3600  175.8940  137.0090 O   0  0  0  0  0  1  0  0  0  0  0  0
  190.1530  176.5640  137.2240 C   0  0  2  0  0  3  0  0  0  0  0  0
  189.7860  177.3640  135.9830 C   0  0  0  0  0  2  0  0  0  0  0  0
  188.4440  176.9640  135.4730 C   0  0  0  0  0  0  0  0  0  0  0  0
  188.2390  175.7790  135.1020 O   0  0  0  0  0  0  0  0  0  0  0  0
  187.4100  177.8890  135.4390 O   0  0  0  0  0  1  0  0  0  0  0  0
  1 14  1  0  0  0  0
  1  9  1  0  0  0  0
  2  3  1  0  0  0  0
  3 19  2  0  0  0  0
  3  7  1  0  0  0  0
  4 11  1  0  0  0  0
  5  2  1  0  0  0  0
  5 14  2  0  0  0  0
  6  1  2  0  0  0  0
  7  4  2  0  0  0  0
  8 23  1  6  0  0  0
  8 13  1  0  0  0  0
 10 19  1  0  0  0  0
 12  8  1  0  0  0  0
 12 16  1  0  0  0  0
 13 18  1  0  0  0  0
 13  2  2  0  0  0  0
 16  5  1  0  0  0  0
 17 16  2  0  0  0  0
 17  6  1  0  0  0  0
 18 10  2  0  0  0  0
 19 20  1  0  0  0  0
 20 15  1  0  0  0  0
 20 11  2  0  0  0  0
 21 22  2  0  0  0  0
 22 23  1  0  0  0  0
 25 24  1  1  0  0  0
 25 22  1  0  0  0  0
 27 26  1  6  0  0  0
 27 25  1  0  0  0  0
 28 27  1  0  0  0  0
 29 28  1  0  0  0  0
 30 29  2  0  0  0  0
 31 29  1  0  0  0  0
M  END
>  <MODEL>
6

>  <REMARK>
 VINA RESULT:      -9.5      2.047      4.577
  Name = 
  5 active torsions:
  status: ('A' for Active; 'I' for Inactive)
    1  A    between atoms: C_1  and  C_24
    2  A    between atoms: C_9  and  C_22
    3  A    between atoms: C_15  and  N_23
    4  A    between atoms: C_19  and  C_22
    5  A    between atoms: C_19  and  C_24
                            x       y       z     vdW  Elec       q    Type
                         _______ _______ _______ _____ _____    ______ ____

>  <TORSDO>
F 5

$$$$
=
 OpenBabel11052413153D

 31 34  0  0  1  0  0  0  0  0999 V2000
  191.0520  177.5740  144.5170 C   0  0  0  0  0  0  0  0  0  0  0  0
  187.5910  178.1680  142.9990 C   0  0  0  0  0  0  0  0  0  0  0  0
  186.6610  178.2540  144.0710 C   0  0  0  0  0  0  0  0  0  0  0  0
  186.0910  178.0300  146.4310 C   0  0  0  0  0  3  0  0  0  0  0  0
  189.0360  177.7970  143.1670 C   0  0  0  0  0  0  0  0  0  0  0  0
  191.7690  177.1580  143.3940 C   0  0  0  0  0  3  0  0  0  0  0  0
  187.0190  177.9450  145.3930 C   0  0  0  0  0  3  0  0  0  0  0  0
  188.0780  178.3810  140.5150 C   0  0  2  0  0  3  0  0  0  0  0  0
  191.6710  177.6670  145.7190 F   0  0  0  0  0  0  0  0  0  0  0  0
  184.9430  178.9250  142.4940 C   0  0  0  0  0  3  0  0  0  0  0  0
  184.7810  178.4230  146.1650 C   0  0  0  0  0  3  0  0  0  0  0  0
  189.1130  177.2730  140.7020 C   0  0  0  0  0  2  0  0  0  0  0  0
  187.1250  178.4290  141.6870 C   0  0  0  0  0  0  0  0  0  0  0  0
  189.6980  177.8950  144.4020 C   0  0  0  0  0  3  0  0  0  0  0  0
  182.9720  179.1410  144.6270 C   0  0  0  0  0  1  0  0  0  0  0  0
  189.7800  177.4010  142.0350 C   0  0  0  0  0  0  0  0  0  0  0  0
  191.1330  177.0700  142.1550 C   0  0  0  0  0  3  0  0  0  0  0  0
  185.8370  178.8180  141.4820 N   0  0  0  0  0  0  0  0  0  0  0  0
  185.3210  178.6410  143.8080 C   0  0  0  0  0  0  0  0  0  0  0  0
  184.3880  178.7300  144.8610 C   0  0  0  0  0  0  0  0  0  0  0  0
  188.9970  179.1290  137.9140 O   0  0  0  0  0  0  0  0  0  0  0  0
  187.8750  178.5570  137.9970 C   0  0  0  0  0  0  0  0  0  0  0  0
  187.3540  178.1660  139.2690 N   0  0  0  0  0  2  0  0  0  0  0  0
  187.9470  178.0720  135.6720 O   0  0  0  0  0  1  0  0  0  0  0  0
  187.0920  178.2510  136.7630 C   0  0  1  0  0  3  0  0  0  0  0  0
  186.5230  176.0240  136.0530 O   0  0  0  0  0  1  0  0  0  0  0  0
  186.1990  177.0270  136.9690 C   0  0  2  0  0  3  0  0  0  0  0  0
  184.7290  177.3940  136.8230 C   0  0  0  0  0  2  0  0  0  0  0  0
  183.9070  176.7010  137.8550 C   0  0  0  0  0  0  0  0  0  0  0  0
  183.7740  177.2080  138.9990 O   0  0  0  0  0  1  0  0  0  0  0  0
  183.2590  175.5130  137.5440 O   0  0  0  0  0  0  0  0  0  0  0  0
  1  9  1  0  0  0  0
  2  5  1  0  0  0  0
  2  3  1  0  0  0  0
  3  7  1  0  0  0  0
  5 14  2  0  0  0  0
  6  1  2  0  0  0  0
  7  4  2  0  0  0  0
  8 23  1  6  0  0  0
  8 12  1  0  0  0  0
  8 13  1  0  0  0  0
 10 19  1  0  0  0  0
 11  4  1  0  0  0  0
 12 16  1  0  0  0  0
 13  2  2  0  0  0  0
 14  1  1  0  0  0  0
 15 20  1  0  0  0  0
 16 17  2  0  0  0  0
 16  5  1  0  0  0  0
 17  6  1  0  0  0  0
 18 13  1  0  0  0  0
 18 10  2  0  0  0  0
 19  3  2  0  0  0  0
 19 20  1  0  0  0  0
 20 11  2  0  0  0  0
 21 22  2  0  0  0  0
 22 23  1  0  0  0  0
 25 24  1  6  0  0  0
 25 27  1  0  0  0  0
 25 22  1  0  0  0  0
 27 26  1  6  0  0  0
 28 27  1  0  0  0  0
 28 29  1  0  0  0  0
 29 30  1  0  0  0  0
 31 29  2  0  0  0  0
M  END
>  <MODEL>
7

>  <REMARK>
 VINA RESULT:      -9.4      2.196      3.061
  Name = 
  5 active torsions:
  status: ('A' for Active; 'I' for Inactive)
    1  A    between atoms: C_1  and  C_24
    2  A    between atoms: C_9  and  C_22
    3  A    between atoms: C_15  and  N_23
    4  A    between atoms: C_19  and  C_22
    5  A    between atoms: C_19  and  C_24
                            x       y       z     vdW  Elec       q    Type
                         _______ _______ _______ _____ _____    ______ ____

>  <TORSDO>
F 5

$$$$
=
 OpenBabel11052413153D

 31 34  0  0  1  0  0  0  0  0999 V2000
  186.7050  177.8780  147.1500 C   0  0  0  0  0  0  0  0  0  0  0  0
  187.7120  178.0970  143.4650 C   0  0  0  0  0  0  0  0  0  0  0  0
  189.1150  177.8780  143.3900 C   0  0  0  0  0  0  0  0  0  0  0  0
  191.2970  177.6090  144.4440 C   0  0  0  0  0  3  0  0  0  0  0  0
  186.9500  178.2340  144.7520 C   0  0  0  0  0  0  0  0  0  0  0  0
  185.4340  178.4540  147.1150 C   0  0  0  0  0  3  0  0  0  0  0  0
  189.9210  177.8190  144.5380 C   0  0  0  0  0  3  0  0  0  0  0  0
  185.4900  178.4160  142.2760 C   0  0  2  0  0  3  0  0  0  0  0  0
  187.2120  177.4270  148.3220 F   0  0  0  0  0  0  0  0  0  0  0  0
  188.9500  177.8190  140.9700 C   0  0  0  0  0  3  0  0  0  0  0  0
  191.8950  177.4560  143.1940 C   0  0  0  0  0  3  0  0  0  0  0  0
  185.0820  179.3100  143.4460 C   0  0  0  0  0  2  0  0  0  0  0  0
  186.9880  178.2140  142.2540 C   0  0  0  0  0  0  0  0  0  0  0  0
  187.4540  177.7660  145.9770 C   0  0  0  0  0  3  0  0  0  0  0  0
  191.8140  177.3540  140.7170 C   0  0  0  0  0  1  0  0  0  0  0  0
  185.6530  178.7900  144.7260 C   0  0  0  0  0  0  0  0  0  0  0  0
  184.9090  178.9110  145.9040 C   0  0  0  0  0  3  0  0  0  0  0  0
  187.6190  178.0480  141.0600 N   0  0  0  0  0  0  0  0  0  0  0  0
  189.7350  177.7350  142.1210 C   0  0  0  0  0  0  0  0  0  0  0  0
  191.1260  177.5180  142.0310 C   0  0  0  0  0  0  0  0  0  0  0  0
  183.0210  177.8170  140.9690 O   0  0  0  0  0  0  0  0  0  0  0  0
  183.7770  178.6700  140.4290 C   0  0  0  0  0  0  0  0  0  0  0  0
  185.0310  179.0090  141.0270 N   0  0  0  0  0  2  0  0  0  0  0  0
  184.1380  180.5030  138.9600 O   0  0  0  0  0  1  0  0  0  0  0  0
  183.3580  179.3630  139.1750 C   0  0  1  0  0  3  0  0  0  0  0  0
  182.2260  177.7130  137.8380 O   0  0  0  0  0  1  0  0  0  0  0  0
  183.4250  178.4170  137.9750 C   0  0  2  0  0  3  0  0  0  0  0  0
  184.5770  177.4340  138.1190 C   0  0  0  0  0  2  0  0  0  0  0  0
  185.7570  177.8840  137.3280 C   0  0  0  0  0  0  0  0  0  0  0  0
  186.6240  178.6280  137.8570 O   0  0  0  0  0  1  0  0  0  0  0  0
  185.9190  177.4560  136.0170 O   0  0  0  0  0  0  0  0  0  0  0  0
  1  9  1  0  0  0  0
  2  5  1  0  0  0  0
  3  2  1  0  0  0  0
  3  7  1  0  0  0  0
  4  7  2  0  0  0  0
  5 14  1  0  0  0  0
  6  1  1  0  0  0  0
  8 23  1  6  0  0  0
  8 12  1  0  0  0  0
 10 18  2  0  0  0  0
 10 19  1  0  0  0  0
 11  4  1  0  0  0  0
 12 16  1  0  0  0  0
 13  8  1  0  0  0  0
 13  2  2  0  0  0  0
 14  1  2  0  0  0  0
 15 20  1  0  0  0  0
 16  5  2  0  0  0  0
 16 17  1  0  0  0  0
 17  6  2  0  0  0  0
 18 13  1  0  0  0  0
 19  3  2  0  0  0  0
 20 19  1  0  0  0  0
 20 11  2  0  0  0  0
 22 21  2  0  0  0  0
 22 23  1  0  0  0  0
 25 24  1  6  0  0  0
 25 22  1  0  0  0  0
 27 26  1  1  0  0  0
 27 28  1  0  0  0  0
 27 25  1  0  0  0  0
 29 30  1  0  0  0  0
 29 28  1  0  0  0  0
 31 29  2  0  0  0  0
M  END
>  <MODEL>
8

>  <REMARK>
 VINA RESULT:      -9.3      2.462      5.474
  Name = 
  5 active torsions:
  status: ('A' for Active; 'I' for Inactive)
    1  A    between atoms: C_1  and  C_24
    2  A    between atoms: C_9  and  C_22
    3  A    between atoms: C_15  and  N_23
    4  A    between atoms: C_19  and  C_22
    5  A    between atoms: C_19  and  C_24
                            x       y       z     vdW  Elec       q    Type
                         _______ _______ _______ _____ _____    ______ ____

>  <TORSDO>
F 5

$$$$
=
 OpenBabel11052413153D

 31 34  0  0  1  0  0  0  0  0999 V2000
  183.7720  178.6320  144.7150 C   0  0  0  0  0  0  0  0  0  0  0  0
  187.3030  177.9260  143.4220 C   0  0  0  0  0  0  0  0  0  0  0  0
  188.1280  177.6580  144.5490 C   0  0  0  0  0  0  0  0  0  0  0  0
  188.5020  177.5940  146.9570 C   0  0  0  0  0  3  0  0  0  0  0  0
  185.8780  178.3900  143.5130 C   0  0  0  0  0  0  0  0  0  0  0  0
  183.1870  179.2160  143.5900 C   0  0  0  0  0  3  0  0  0  0  0  0
  187.6770  177.8570  145.8640 C   0  0  0  0  0  3  0  0  0  0  0  0
  187.0220  178.0060  140.8990 C   0  0  2  0  0  3  0  0  0  0  0  0
  183.0460  178.4660  145.8460 F   0  0  0  0  0  0  0  0  0  0  0  0
  189.9250  177.0180  143.0510 C   0  0  0  0  0  3  0  0  0  0  0  0
  189.8000  177.1280  146.7550 C   0  0  0  0  0  3  0  0  0  0  0  0
  186.0540  179.1670  141.1220 C   0  0  0  0  0  2  0  0  0  0  0  0
  187.8630  177.7640  142.1310 C   0  0  0  0  0  0  0  0  0  0  0  0
  185.1050  178.2200  144.6740 C   0  0  0  0  0  3  0  0  0  0  0  0
  191.6820  176.4310  145.2980 C   0  0  0  0  0  1  0  0  0  0  0  0
  185.2660  178.9570  142.3750 C   0  0  0  0  0  0  0  0  0  0  0  0
  183.9340  179.3800  142.4220 C   0  0  0  0  0  3  0  0  0  0  0  0
  189.1330  177.2980  141.9890 N   0  0  0  0  0  0  0  0  0  0  0  0
  189.4550  177.1950  144.3530 C   0  0  0  0  0  0  0  0  0  0  0  0
  190.2840  176.9260  145.4610 C   0  0  0  0  0  0  0  0  0  0  0  0
  186.2180  177.7890  138.1650 O   0  0  0  0  0  0  0  0  0  0  0  0
  187.3980  178.1700  138.4000 C   0  0  0  0  0  0  0  0  0  0  0  0
  187.8660  178.2900  139.7450 N   0  0  0  0  0  2  0  0  0  0  0  0
  189.0560  179.6700  137.5960 O   0  0  0  0  0  1  0  0  0  0  0  0
  188.3120  178.5310  137.2760 C   0  0  1  0  0  3  0  0  0  0  0  0
  188.4790  176.1960  136.7190 O   0  0  0  0  0  1  0  0  0  0  0  0
  189.2260  177.3600  136.9130 C   0  0  2  0  0  3  0  0  0  0  0  0
  190.2650  177.1220  137.9990 C   0  0  0  0  0  2  0  0  0  0  0  0
  191.2170  176.0490  137.5940 C   0  0  0  0  0  0  0  0  0  0  0  0
  191.9620  176.2130  136.5930 O   0  0  0  0  0  0  0  0  0  0  0  0
  191.3060  174.8820  138.3410 O   0  0  0  0  0  1  0  0  0  0  0  0
  1  9  1  0  0  0  0
  2  5  1  0  0  0  0
  2  3  1  0  0  0  0
  3  7  1  0  0  0  0
  5 14  2  0  0  0  0
  6  1  2  0  0  0  0
  7  4  2  0  0  0  0
  8 23  1  6  0  0  0
  8 12  1  0  0  0  0
  8 13  1  0  0  0  0
 10 19  1  0  0  0  0
 11  4  1  0  0  0  0
 12 16  1  0  0  0  0
 13  2  2  0  0  0  0
 14  1  1  0  0  0  0
 15 20  1  0  0  0  0
 16 17  2  0  0  0  0
 16  5  1  0  0  0  0
 17  6  1  0  0  0  0
 18 13  1  0  0  0  0
 18 10  2  0  0  0  0
 19  3  2  0  0  0  0
 19 20  1  0  0  0  0
 20 11  2  0  0  0  0
 21 22  2  0  0  0  0
 22 23  1  0  0  0  0
 25 24  1  1  0  0  0
 25 22  1  0  0  0  0
 27 26  1  1  0  0  0
 27 25  1  0  0  0  0
 27 28  1  0  0  0  0
 29 28  1  0  0  0  0
 29 31  1  0  0  0  0
 30 29  2  0  0  0  0
M  END
>  <MODEL>
9

>  <REMARK>
 VINA RESULT:      -9.0      1.863      4.979
  Name = 
  5 active torsions:
  status: ('A' for Active; 'I' for Inactive)
    1  A    between atoms: C_1  and  C_24
    2  A    between atoms: C_9  and  C_22
    3  A    between atoms: C_15  and  N_23
    4  A    between atoms: C_19  and  C_22
    5  A    between atoms: C_19  and  C_24
                            x       y       z     vdW  Elec       q    Type
                         _______ _______ _______ _____ _____    ______ ____

>  <TORSDO>
F 5

$$$$
