=
 OpenBabel11052416393D

 43 48  0  0  1  0  0  0  0  0999 V2000
  192.0110  177.4530  141.4490 C   0  0  0  0  0  2  0  0  0  0  0  0
  190.7250  177.6300  142.2740 C   0  0  1  0  0  3  0  0  0  0  0  0
  191.7680  177.4830  139.9410 C   0  0  0  0  0  2  0  0  0  0  0  0
  189.4530  177.7000  141.4210 C   0  0  0  0  0  2  0  0  0  0  0  0
  189.4040  176.5750  140.3860 C   0  0  0  0  0  2  0  0  0  0  0  0
  190.7000  176.4560  139.5580 C   0  0  1  0  0  3  0  0  0  0  0  0
  191.9190  175.6150  143.5810 O   0  0  0  0  0  0  0  0  0  0  0  0
  190.6040  176.3390  143.5050 S   0  0  0  0  0  0  0  0  0  0  0  0
  189.5340  175.3560  143.1180 O   0  0  0  0  0  0  0  0  0  0  0  0
  190.2160  177.0400  145.0520 N   0  0  0  0  0  0  0  0  0  0  0  0
  188.8990  177.5730  145.2880 C   0  0  0  0  0  0  0  0  0  0  0  0
  188.7090  178.3980  146.2230 O   0  0  0  0  0  0  0  0  0  0  0  0
  190.9950  176.5800  147.3290 C   0  0  0  0  0  2  0  0  0  0  0  0
  191.2880  177.2900  146.0150 C   0  0  0  0  0  3  0  0  0  0  0  0
  191.9910  175.9880  146.3660 C   0  0  0  0  0  2  0  0  0  0  0  0
  187.7280  177.1410  144.4620 C   0  0  0  0  0  2  0  0  0  0  0  0
  186.4770  177.8040  144.9320 C   0  0  0  0  0  0  0  0  0  0  0  0
  184.9130  178.3110  146.6940 C   0  0  0  0  0  3  0  0  0  0  0  0
  184.4890  179.0960  144.4910 C   0  0  0  0  0  3  0  0  0  0  0  0
  184.1400  178.9890  145.8020 N   0  0  0  0  0  0  0  0  0  0  0  0
  185.6670  178.5020  144.0310 C   0  0  0  0  0  3  0  0  0  0  0  0
  186.0980  177.7030  146.2730 C   0  0  0  0  0  3  0  0  0  0  0  0
  190.4470  176.4450  138.0470 C   0  0  2  0  0  3  0  0  0  0  0  0
  184.2390  176.4170  135.9890 C   0  0  1  0  0  3  0  0  0  0  0  0
  189.0200  176.7370  137.6800 C   0  0  0  0  0  0  0  0  0  0  0  0
  186.3990  177.2870  136.9370 C   0  0  0  0  0  0  0  0  0  0  0  0
  184.4750  175.1720  136.8370 C   0  0  0  0  0  2  0  0  0  0  0  0
  182.8730  176.6900  135.9310 O   0  0  0  0  0  1  0  0  0  0  0  0
  186.8470  175.9590  137.1000 C   0  0  0  0  0  0  0  0  0  0  0  0
  184.9640  177.6040  136.6160 C   0  0  0  0  0  2  0  0  0  0  0  0
  185.9520  174.7900  136.7910 C   0  0  0  0  0  2  0  0  0  0  0  0
  188.1400  175.7220  137.4440 N   0  0  0  0  0  0  0  0  0  0  0  0
  188.6070  178.0640  137.5400 C   0  0  0  0  0  3  0  0  0  0  0  0
  187.2890  178.3370  137.1720 C   0  0  0  0  0  3  0  0  0  0  0  0
  190.9380  175.1420  137.4190 C   0  0  0  0  0  2  0  0  0  0  0  0
  194.6070  174.5990  137.4350 C   0  0  0  0  0  3  0  0  0  0  0  0
  195.0480  175.5590  136.4090 C   0  0  0  0  0  0  0  0  0  0  0  0
  192.6650  175.9600  135.7970 C   0  0  0  0  0  2  0  0  0  0  0  0
  193.3150  174.4650  137.7270 C   0  0  0  0  0  3  0  0  0  0  0  0
  192.3350  175.2480  137.0320 N   0  0  0  0  0  0  0  0  0  0  0  0
  194.1420  176.2200  135.6730 C   0  0  0  0  0  3  0  0  0  0  0  0
  197.0030  176.1300  134.9950 C   0  0  0  0  0  1  0  0  0  0  0  0
  196.4200  175.7730  136.2420 O   0  0  0  0  0  0  0  0  0  0  0  0
  1  2  1  0  0  0  0
  2  8  1  1  0  0  0
  3  1  1  0  0  0  0
  4  2  1  0  0  0  0
  5  4  1  0  0  0  0
  6 23  1  6  0  0  0
  6  3  1  0  0  0  0
  6  5  1  0  0  0  0
  8  7  2  0  0  0  0
  8 10  1  0  0  0  0
  9  8  2  0  0  0  0
 10 11  1  0  0  0  0
 10 14  1  0  0  0  0
 11 12  2  0  0  0  0
 14 15  1  0  0  0  0
 14 13  1  0  0  0  0
 15 13  1  0  0  0  0
 16 17  1  0  0  0  0
 16 11  1  0  0  0  0
 17 22  1  0  0  0  0
 19 20  2  0  0  0  0
 20 18  1  0  0  0  0
 21 19  1  0  0  0  0
 21 17  2  0  0  0  0
 22 18  2  0  0  0  0
 23 35  1  1  0  0  0
 24 28  1  1  0  0  0
 24 30  1  0  0  0  0
 24 27  1  0  0  0  0
 25 23  1  0  0  0  0
 26 29  2  0  0  0  0
 26 34  1  0  0  0  0
 29 32  1  0  0  0  0
 30 26  1  0  0  0  0
 31 27  1  0  0  0  0
 31 29  1  0  0  0  0
 32 25  2  0  0  0  0
 33 25  1  0  0  0  0
 34 33  2  0  0  0  0
 36 39  2  0  0  0  0
 37 36  1  0  0  0  0
 38 40  1  0  0  0  0
 40 35  1  0  0  0  0
 40 39  1  0  0  0  0
 41 38  1  0  0  0  0
 41 37  2  0  0  0  0
 42 43  1  0  0  0  0
 43 37  1  0  0  0  0
M  END
>  <MODEL>
1

>  <REMARK>
 VINA RESULT:      -9.0      0.000      0.000
  Name = 
  10 active torsions:
  status: ('A' for Active; 'I' for Inactive)
    1  A    between atoms: C_1  and  C_34
    2  A    between atoms: C_1  and  N_35
    3  A    between atoms: N_4  and  S_12
    4  A    between atoms: N_4  and  C_15
    5  A    between atoms: C_6  and  S_12
    6  A    between atoms: C_8  and  C_34
    7  A    between atoms: C_11  and  C_14
    8  A    between atoms: C_14  and  C_22
    9  A    between atoms: C_19  and  O_37
   10  A    between atoms: C_34  and  C_38
                            x       y       z     vdW  Elec       q    Type
                         _______ _______ _______ _____ _____    ______ ____

>  <TORSDO>
F 10

$$$$
=
 OpenBabel11052416393D

 43 48  0  0  1  0  0  0  0  0999 V2000
  188.3780  178.2180  139.3210 C   0  0  0  0  0  2  0  0  0  0  0  0
  189.7870  177.6620  139.0540 C   0  0  1  0  0  3  0  0  0  0  0  0
  188.0970  178.4610  140.8030 C   0  0  0  0  0  2  0  0  0  0  0  0
  190.5840  177.3710  140.3320 C   0  0  0  0  0  2  0  0  0  0  0  0
  189.7590  176.5750  141.3450 C   0  0  0  0  0  2  0  0  0  0  0  0
  188.3680  177.1880  141.6070 C   0  0  1  0  0  3  0  0  0  0  0  0
  188.2920  175.6540  138.0920 O   0  0  0  0  0  0  0  0  0  0  0  0
  189.6860  176.2110  138.0150 S   0  0  0  0  0  0  0  0  0  0  0  0
  190.6510  175.1640  138.4960 O   0  0  0  0  0  0  0  0  0  0  0  0
  190.0700  176.6410  136.3710 N   0  0  0  0  0  0  0  0  0  0  0  0
  191.0710  175.8990  135.6500 C   0  0  0  0  0  0  0  0  0  0  0  0
  191.6230  176.4050  134.6340 O   0  0  0  0  0  0  0  0  0  0  0  0
  188.6810  177.5990  134.5940 C   0  0  0  0  0  2  0  0  0  0  0  0
  189.5430  177.8880  135.8150 C   0  0  0  0  0  3  0  0  0  0  0  0
  188.0250  177.9060  135.9150 C   0  0  0  0  0  2  0  0  0  0  0  0
  191.4540  174.5120  136.0610 C   0  0  0  0  0  2  0  0  0  0  0  0
  192.9360  174.3410  136.0240 C   0  0  0  0  0  0  0  0  0  0  0  0
  194.8990  173.3000  135.0910 C   0  0  0  0  0  3  0  0  0  0  0  0
  195.1310  174.8350  136.8900 C   0  0  0  0  0  3  0  0  0  0  0  0
  195.6730  173.9820  135.9790 N   0  0  0  0  0  0  0  0  0  0  0  0
  193.7490  175.0290  136.9300 C   0  0  0  0  0  3  0  0  0  0  0  0
  193.5120  173.4660  135.0990 C   0  0  0  0  0  3  0  0  0  0  0  0
  188.0740  177.3920  143.0980 C   0  0  2  0  0  3  0  0  0  0  0  0
  181.8730  179.4690  142.9760 C   0  0  1  0  0  3  0  0  0  0  0  0
  186.6490  177.7810  143.3750 C   0  0  0  0  0  0  0  0  0  0  0  0
  184.0340  178.5670  143.8920 C   0  0  0  0  0  0  0  0  0  0  0  0
  182.0990  178.5450  141.7840 C   0  0  0  0  0  2  0  0  0  0  0  0
  180.5090  179.5480  143.2520 O   0  0  0  0  0  1  0  0  0  0  0  0
  184.4740  178.3210  142.5730 C   0  0  0  0  0  0  0  0  0  0  0  0
  182.6030  178.9130  144.1960 C   0  0  0  0  0  2  0  0  0  0  0  0
  183.5740  178.5610  141.3920 C   0  0  0  0  0  2  0  0  0  0  0  0
  185.7650  177.9580  142.3520 N   0  0  0  0  0  0  0  0  0  0  0  0
  186.2440  178.0040  144.6930 C   0  0  0  0  0  3  0  0  0  0  0  0
  184.9300  178.3930  144.9490 C   0  0  0  0  0  3  0  0  0  0  0  0
  189.0620  178.3750  143.7210 C   0  0  0  0  0  2  0  0  0  0  0  0
  191.7340  176.7250  145.6950 C   0  0  0  0  0  3  0  0  0  0  0  0
  191.0370  176.4630  146.9660 C   0  0  0  0  0  0  0  0  0  0  0  0
  189.1190  177.8410  146.1700 C   0  0  0  0  0  2  0  0  0  0  0  0
  191.1080  177.3430  144.6950 C   0  0  0  0  0  3  0  0  0  0  0  0
  189.7490  177.7720  144.8510 N   0  0  0  0  0  0  0  0  0  0  0  0
  189.8040  176.9510  147.1710 C   0  0  0  0  0  3  0  0  0  0  0  0
  193.0800  175.7490  148.1750 C   0  0  0  0  0  1  0  0  0  0  0  0
  191.6810  175.6820  147.9310 O   0  0  0  0  0  0  0  0  0  0  0  0
  1  3  1  0  0  0  0
  2  8  1  1  0  0  0
  2  1  1  0  0  0  0
  2  4  1  0  0  0  0
  3  6  1  0  0  0  0
  4  5  1  0  0  0  0
  5  6  1  0  0  0  0
  6 23  1  1  0  0  0
  8  7  2  0  0  0  0
  8  9  2  0  0  0  0
 10  8  1  0  0  0  0
 11 16  1  0  0  0  0
 11 10  1  0  0  0  0
 12 11  2  0  0  0  0
 13 14  1  0  0  0  0
 13 15  1  0  0  0  0
 14 15  1  0  0  0  0
 14 10  1  0  0  0  0
 17 16  1  0  0  0  0
 17 21  1  0  0  0  0
 18 22  1  0  0  0  0
 18 20  2  0  0  0  0
 19 21  2  0  0  0  0
 20 19  1  0  0  0  0
 22 17  2  0  0  0  0
 23 25  1  0  0  0  0
 23 35  1  6  0  0  0
 24 28  1  1  0  0  0
 24 30  1  0  0  0  0
 25 33  1  0  0  0  0
 26 30  1  0  0  0  0
 26 34  1  0  0  0  0
 27 24  1  0  0  0  0
 29 26  2  0  0  0  0
 31 27  1  0  0  0  0
 31 29  1  0  0  0  0
 32 29  1  0  0  0  0
 32 25  2  0  0  0  0
 33 34  2  0  0  0  0
 35 40  1  0  0  0  0
 36 37  1  0  0  0  0
 37 41  2  0  0  0  0
 37 43  1  0  0  0  0
 38 41  1  0  0  0  0
 39 40  1  0  0  0  0
 39 36  2  0  0  0  0
 40 38  1  0  0  0  0
 43 42  1  0  0  0  0
M  END
>  <MODEL>
2

>  <REMARK>
 VINA RESULT:      -8.7      2.810      9.354
  Name = 
  10 active torsions:
  status: ('A' for Active; 'I' for Inactive)
    1  A    between atoms: C_1  and  C_34
    2  A    between atoms: C_1  and  N_35
    3  A    between atoms: N_4  and  S_12
    4  A    between atoms: N_4  and  C_15
    5  A    between atoms: C_6  and  S_12
    6  A    between atoms: C_8  and  C_34
    7  A    between atoms: C_11  and  C_14
    8  A    between atoms: C_14  and  C_22
    9  A    between atoms: C_19  and  O_37
   10  A    between atoms: C_34  and  C_38
                            x       y       z     vdW  Elec       q    Type
                         _______ _______ _______ _____ _____    ______ ____

>  <TORSDO>
F 10

$$$$
=
 OpenBabel11052416393D

 43 48  0  0  1  0  0  0  0  0999 V2000
  191.5320  177.4310  141.5050 C   0  0  0  0  0  2  0  0  0  0  0  0
  190.0800  177.5830  141.9880 C   0  0  1  0  0  3  0  0  0  0  0  0
  191.6600  177.3870  139.9830 C   0  0  0  0  0  2  0  0  0  0  0  0
  189.0500  177.5600  140.8520 C   0  0  0  0  0  2  0  0  0  0  0  0
  189.2900  176.3910  139.8940 C   0  0  0  0  0  2  0  0  0  0  0  0
  190.7510  176.2980  139.4090 C   0  0  1  0  0  3  0  0  0  0  0  0
  190.7970  175.3020  143.2030 O   0  0  0  0  0  0  0  0  0  0  0  0
  189.7090  176.3400  143.2180 S   0  0  0  0  0  0  0  0  0  0  0  0
  188.4010  175.6710  142.8980 O   0  0  0  0  0  0  0  0  0  0  0  0
  189.6110  177.0830  144.7900 N   0  0  0  0  0  0  0  0  0  0  0  0
  188.3280  177.4530  145.3310 C   0  0  0  0  0  0  0  0  0  0  0  0
  188.2550  178.3050  146.2580 O   0  0  0  0  0  0  0  0  0  0  0  0
  191.0230  176.8120  146.7730 C   0  0  0  0  0  2  0  0  0  0  0  0
  190.8380  177.5350  145.4480 C   0  0  0  0  0  3  0  0  0  0  0  0
  191.8210  176.3810  145.5700 C   0  0  0  0  0  2  0  0  0  0  0  0
  187.0660  176.8170  144.8360 C   0  0  0  0  0  2  0  0  0  0  0  0
  186.0880  177.8560  144.4010 C   0  0  0  0  0  0  0  0  0  0  0  0
  184.2410  179.3250  144.8870 C   0  0  0  0  0  3  0  0  0  0  0  0
  185.1320  179.2550  142.6860 C   0  0  0  0  0  3  0  0  0  0  0  0
  184.2430  179.7450  143.5920 N   0  0  0  0  0  0  0  0  0  0  0  0
  186.0720  178.2980  143.0740 C   0  0  0  0  0  3  0  0  0  0  0  0
  185.1640  178.3680  145.3150 C   0  0  0  0  0  3  0  0  0  0  0  0
  190.8720  176.2120  137.8830 C   0  0  2  0  0  3  0  0  0  0  0  0
  197.0870  174.3010  137.1800 C   0  0  1  0  0  3  0  0  0  0  0  0
  192.2510  175.8430  137.4160 C   0  0  0  0  0  0  0  0  0  0  0  0
  194.8270  175.2210  136.5760 C   0  0  0  0  0  0  0  0  0  0  0  0
  196.3400  173.2380  137.9770 C   0  0  0  0  0  2  0  0  0  0  0  0
  198.2340  173.7420  136.6180 O   0  0  0  0  0  1  0  0  0  0  0  0
  194.3090  174.7050  137.7840 C   0  0  0  0  0  0  0  0  0  0  0  0
  196.1870  174.8300  136.0680 C   0  0  0  0  0  2  0  0  0  0  0  0
  195.1600  173.8750  138.7060 C   0  0  0  0  0  2  0  0  0  0  0  0
  193.0530  175.0450  138.1770 N   0  0  0  0  0  0  0  0  0  0  0  0
  192.7270  176.3610  136.2090 C   0  0  0  0  0  3  0  0  0  0  0  0
  194.0180  176.0430  135.7880 C   0  0  0  0  0  3  0  0  0  0  0  0
  190.3740  177.4950  137.2220 C   0  0  0  0  0  2  0  0  0  0  0  0
  186.8100  178.4630  136.8820 C   0  0  0  0  0  3  0  0  0  0  0  0
  186.2010  177.1890  136.4630 C   0  0  0  0  0  0  0  0  0  0  0  0
  188.4800  176.2190  136.1880 C   0  0  0  0  0  2  0  0  0  0  0  0
  188.1210  178.5490  137.0960 C   0  0  0  0  0  3  0  0  0  0  0  0
  188.9580  177.4000  136.9090 N   0  0  0  0  0  0  0  0  0  0  0  0
  186.9780  176.1340  136.1780 C   0  0  0  0  0  3  0  0  0  0  0  0
  183.9530  177.5000  137.4610 C   0  0  0  0  0  1  0  0  0  0  0  0
  184.8070  177.1080  136.3950 O   0  0  0  0  0  0  0  0  0  0  0  0
  1  2  1  0  0  0  0
  2  8  1  1  0  0  0
  3  1  1  0  0  0  0
  4  2  1  0  0  0  0
  5  4  1  0  0  0  0
  6 23  1  6  0  0  0
  6  5  1  0  0  0  0
  6  3  1  0  0  0  0
  7  8  2  0  0  0  0
  8 10  1  0  0  0  0
  9  8  2  0  0  0  0
 10 11  1  0  0  0  0
 10 14  1  0  0  0  0
 11 12  2  0  0  0  0
 14 15  1  0  0  0  0
 14 13  1  0  0  0  0
 15 13  1  0  0  0  0
 16 11  1  0  0  0  0
 17 16  1  0  0  0  0
 17 22  1  0  0  0  0
 18 22  2  0  0  0  0
 19 21  1  0  0  0  0
 19 20  2  0  0  0  0
 20 18  1  0  0  0  0
 21 17  2  0  0  0  0
 23 35  1  6  0  0  0
 24 28  1  6  0  0  0
 24 27  1  0  0  0  0
 25 23  1  0  0  0  0
 25 32  1  0  0  0  0
 26 29  1  0  0  0  0
 27 31  1  0  0  0  0
 29 32  2  0  0  0  0
 29 31  1  0  0  0  0
 30 26  1  0  0  0  0
 30 24  1  0  0  0  0
 33 25  2  0  0  0  0
 34 33  1  0  0  0  0
 34 26  2  0  0  0  0
 36 39  2  0  0  0  0
 37 36  1  0  0  0  0
 38 40  1  0  0  0  0
 40 39  1  0  0  0  0
 40 35  1  0  0  0  0
 41 38  1  0  0  0  0
 41 37  2  0  0  0  0
 43 37  1  0  0  0  0
 43 42  1  0  0  0  0
M  END
>  <MODEL>
3

>  <REMARK>
 VINA RESULT:      -8.7      1.233      6.219
  Name = 
  10 active torsions:
  status: ('A' for Active; 'I' for Inactive)
    1  A    between atoms: C_1  and  C_34
    2  A    between atoms: C_1  and  N_35
    3  A    between atoms: N_4  and  S_12
    4  A    between atoms: N_4  and  C_15
    5  A    between atoms: C_6  and  S_12
    6  A    between atoms: C_8  and  C_34
    7  A    between atoms: C_11  and  C_14
    8  A    between atoms: C_14  and  C_22
    9  A    between atoms: C_19  and  O_37
   10  A    between atoms: C_34  and  C_38
                            x       y       z     vdW  Elec       q    Type
                         _______ _______ _______ _____ _____    ______ ____

>  <TORSDO>
F 10

$$$$
=
 OpenBabel11052416393D

 43 48  0  0  1  0  0  0  0  0999 V2000
  191.3490  177.3210  141.0130 C   0  0  0  0  0  2  0  0  0  0  0  0
  190.3010  177.7160  142.0670 C   0  0  1  0  0  3  0  0  0  0  0  0
  190.8630  177.5130  139.5770 C   0  0  0  0  0  2  0  0  0  0  0  0
  188.9510  178.1270  141.4650 C   0  0  0  0  0  2  0  0  0  0  0  0
  188.4660  177.1180  140.4230 C   0  0  0  0  0  2  0  0  0  0  0  0
  189.5370  176.7770  139.3670 C   0  0  1  0  0  3  0  0  0  0  0  0
  191.3710  175.5970  143.3140 O   0  0  0  0  0  0  0  0  0  0  0  0
  190.1000  176.3980  143.2570 S   0  0  0  0  0  0  0  0  0  0  0  0
  188.9760  175.4920  142.8390 O   0  0  0  0  0  0  0  0  0  0  0  0
  189.7480  177.0740  144.8240 N   0  0  0  0  0  0  0  0  0  0  0  0
  188.3950  177.4340  145.1630 C   0  0  0  0  0  0  0  0  0  0  0  0
  188.1730  178.2460  146.1030 O   0  0  0  0  0  0  0  0  0  0  0  0
  190.7970  176.7230  147.0100 C   0  0  0  0  0  2  0  0  0  0  0  0
  190.8520  177.4840  145.6930 C   0  0  0  0  0  3  0  0  0  0  0  0
  191.7820  176.3070  145.9470 C   0  0  0  0  0  2  0  0  0  0  0  0
  187.2290  176.8340  144.4400 C   0  0  0  0  0  2  0  0  0  0  0  0
  186.1020  177.8080  144.3580 C   0  0  0  0  0  0  0  0  0  0  0  0
  184.2860  179.0000  145.4020 C   0  0  0  0  0  3  0  0  0  0  0  0
  184.7010  179.2970  143.0810 C   0  0  0  0  0  3  0  0  0  0  0  0
  183.9850  179.5740  144.2050 N   0  0  0  0  0  0  0  0  0  0  0  0
  185.7740  178.4060  143.1370 C   0  0  0  0  0  3  0  0  0  0  0  0
  185.3520  178.1020  145.4990 C   0  0  0  0  0  3  0  0  0  0  0  0
  189.0320  176.9310  137.9280 C   0  0  2  0  0  3  0  0  0  0  0  0
  182.7370  178.5100  138.7430 C   0  0  1  0  0  3  0  0  0  0  0  0
  187.5470  177.1430  137.8390 C   0  0  0  0  0  0  0  0  0  0  0  0
  184.7910  177.4830  137.7190 C   0  0  0  0  0  0  0  0  0  0  0  0
  183.5830  179.7600  138.9630 C   0  0  0  0  0  2  0  0  0  0  0  0
  181.4270  178.8810  138.4450 O   0  0  0  0  0  1  0  0  0  0  0  0
  185.5940  178.3170  138.5270 C   0  0  0  0  0  0  0  0  0  0  0  0
  183.3100  177.7060  137.5800 C   0  0  0  0  0  2  0  0  0  0  0  0
  184.9830  179.3600  139.4230 C   0  0  0  0  0  2  0  0  0  0  0  0
  186.9370  178.1110  138.5800 N   0  0  0  0  0  0  0  0  0  0  0  0
  186.7840  176.3080  137.0190 C   0  0  0  0  0  3  0  0  0  0  0  0
  185.4020  176.4850  136.9570 C   0  0  0  0  0  3  0  0  0  0  0  0
  189.4900  175.7630  137.0580 C   0  0  0  0  0  2  0  0  0  0  0  0
  192.8080  174.2340  137.6990 C   0  0  0  0  0  3  0  0  0  0  0  0
  193.7100  175.3550  137.3870 C   0  0  0  0  0  0  0  0  0  0  0  0
  191.7700  176.6320  136.4830 C   0  0  0  0  0  2  0  0  0  0  0  0
  191.4900  174.3700  137.5720 C   0  0  0  0  0  3  0  0  0  0  0  0
  190.9350  175.6110  137.1160 N   0  0  0  0  0  0  0  0  0  0  0  0
  193.2200  176.4860  136.8560 C   0  0  0  0  0  3  0  0  0  0  0  0
  195.5700  174.3040  138.6460 C   0  0  0  0  0  1  0  0  0  0  0  0
  195.0720  175.2150  137.6750 O   0  0  0  0  0  0  0  0  0  0  0  0
  1  2  1  0  0  0  0
  2  8  1  1  0  0  0
  3  1  1  0  0  0  0
  4  2  1  0  0  0  0
  5  4  1  0  0  0  0
  6 23  1  6  0  0  0
  6  3  1  0  0  0  0
  6  5  1  0  0  0  0
  8  7  2  0  0  0  0
  8 10  1  0  0  0  0
  9  8  2  0  0  0  0
 10 11  1  0  0  0  0
 10 14  1  0  0  0  0
 11 12  2  0  0  0  0
 14 15  1  0  0  0  0
 14 13  1  0  0  0  0
 15 13  1  0  0  0  0
 16 11  1  0  0  0  0
 17 16  1  0  0  0  0
 17 22  1  0  0  0  0
 18 22  2  0  0  0  0
 19 21  1  0  0  0  0
 19 20  2  0  0  0  0
 20 18  1  0  0  0  0
 21 17  2  0  0  0  0
 23 35  1  6  0  0  0
 24 28  1  6  0  0  0
 24 27  1  0  0  0  0
 25 23  1  0  0  0  0
 25 32  1  0  0  0  0
 26 29  1  0  0  0  0
 27 31  1  0  0  0  0
 29 32  2  0  0  0  0
 29 31  1  0  0  0  0
 30 26  1  0  0  0  0
 30 24  1  0  0  0  0
 33 25  2  0  0  0  0
 34 33  1  0  0  0  0
 34 26  2  0  0  0  0
 35 40  1  0  0  0  0
 37 43  1  0  0  0  0
 37 36  1  0  0  0  0
 38 41  1  0  0  0  0
 38 40  1  0  0  0  0
 39 36  2  0  0  0  0
 40 39  1  0  0  0  0
 41 37  2  0  0  0  0
 43 42  1  0  0  0  0
M  END
>  <MODEL>
4

>  <REMARK>
 VINA RESULT:      -8.4      1.526      2.073
  Name = 
  10 active torsions:
  status: ('A' for Active; 'I' for Inactive)
    1  A    between atoms: C_1  and  C_34
    2  A    between atoms: C_1  and  N_35
    3  A    between atoms: N_4  and  S_12
    4  A    between atoms: N_4  and  C_15
    5  A    between atoms: C_6  and  S_12
    6  A    between atoms: C_8  and  C_34
    7  A    between atoms: C_11  and  C_14
    8  A    between atoms: C_14  and  C_22
    9  A    between atoms: C_19  and  O_37
   10  A    between atoms: C_34  and  C_38
                            x       y       z     vdW  Elec       q    Type
                         _______ _______ _______ _____ _____    ______ ____

>  <TORSDO>
F 10

$$$$
=
 OpenBabel11052416393D

 43 48  0  0  1  0  0  0  0  0999 V2000
  186.8980  176.1360  136.9090 C   0  0  0  0  0  2  0  0  0  0  0  0
  187.4130  177.1080  135.8340 C   0  0  1  0  0  3  0  0  0  0  0  0
  185.7180  176.6890  137.7070 C   0  0  0  0  0  2  0  0  0  0  0  0
  186.7060  178.4690  135.8480 C   0  0  0  0  0  2  0  0  0  0  0  0
  186.6300  179.0520  137.2600 C   0  0  0  0  0  2  0  0  0  0  0  0
  186.0760  178.0540  138.2980 C   0  0  1  0  0  3  0  0  0  0  0  0
  189.4720  178.5560  136.7580 O   0  0  0  0  0  0  0  0  0  0  0  0
  189.1840  177.3020  135.9810 S   0  0  0  0  0  0  0  0  0  0  0  0
  189.8040  177.4260  134.6170 O   0  0  0  0  0  0  0  0  0  0  0  0
  189.8580  175.9210  136.8010 N   0  0  0  0  0  0  0  0  0  0  0  0
  190.2150  176.0170  138.1930 C   0  0  0  0  0  0  0  0  0  0  0  0
  191.0260  175.1910  138.6960 O   0  0  0  0  0  0  0  0  0  0  0  0
  189.6030  173.4960  136.5620 C   0  0  0  0  0  2  0  0  0  0  0  0
  190.2690  174.7530  136.0210 C   0  0  0  0  0  3  0  0  0  0  0  0
  189.0660  174.1470  135.3140 C   0  0  0  0  0  2  0  0  0  0  0  0
  189.6140  177.0640  139.0770 C   0  0  0  0  0  2  0  0  0  0  0  0
  190.2120  177.0090  140.4430 C   0  0  0  0  0  0  0  0  0  0  0  0
  192.0570  177.4240  141.9370 C   0  0  0  0  0  3  0  0  0  0  0  0
  190.0910  176.3780  142.7670 C   0  0  0  0  0  3  0  0  0  0  0  0
  191.3470  176.8680  142.9560 N   0  0  0  0  0  0  0  0  0  0  0  0
  189.5010  176.4380  141.5030 C   0  0  0  0  0  3  0  0  0  0  0  0
  191.5020  177.5030  140.6580 C   0  0  0  0  0  3  0  0  0  0  0  0
  184.9200  178.6280  139.1240 C   0  0  2  0  0  3  0  0  0  0  0  0
  184.7990  179.0880  145.6470 C   0  0  1  0  0  3  0  0  0  0  0  0
  185.1600  178.5650  140.6060 C   0  0  0  0  0  0  0  0  0  0  0  0
  185.6290  178.5130  143.3450 C   0  0  0  0  0  0  0  0  0  0  0  0
  183.4270  178.6270  145.1680 C   0  0  0  0  0  2  0  0  0  0  0  0
  184.9600  178.7520  146.9910 O   0  0  0  0  0  1  0  0  0  0  0  0
  184.3390  178.7680  142.8310 C   0  0  0  0  0  0  0  0  0  0  0  0
  185.8830  178.4000  144.8230 C   0  0  0  0  0  2  0  0  0  0  0  0
  183.1910  179.1110  143.7400 C   0  0  0  0  0  2  0  0  0  0  0  0
  184.1470  178.8080  141.4860 N   0  0  0  0  0  0  0  0  0  0  0  0
  186.4460  178.2960  141.0800 C   0  0  0  0  0  3  0  0  0  0  0  0
  186.6770  178.2660  142.4560 C   0  0  0  0  0  3  0  0  0  0  0  0
  183.5940  177.9770  138.7370 C   0  0  0  0  0  2  0  0  0  0  0  0
  181.6100  181.1080  138.5890 C   0  0  0  0  0  3  0  0  0  0  0  0
  180.4410  180.7500  139.4110 C   0  0  0  0  0  0  0  0  0  0  0  0
  181.2280  178.3860  139.4580 C   0  0  0  0  0  2  0  0  0  0  0  0
  182.5800  180.2220  138.3700 C   0  0  0  0  0  3  0  0  0  0  0  0
  182.4890  178.9030  138.9240 N   0  0  0  0  0  0  0  0  0  0  0  0
  180.2850  179.4920  139.8470 C   0  0  0  0  0  3  0  0  0  0  0  0
  179.1610  182.7950  138.8380 C   0  0  0  0  0  1  0  0  0  0  0  0
  179.5240  181.7540  139.7360 O   0  0  0  0  0  0  0  0  0  0  0  0
  1  3  1  0  0  0  0
  2  4  1  0  0  0  0
  2  8  1  1  0  0  0
  2  1  1  0  0  0  0
  3  6  1  0  0  0  0
  4  5  1  0  0  0  0
  5  6  1  0  0  0  0
  6 23  1  6  0  0  0
  8  7  2  0  0  0  0
  8 10  1  0  0  0  0
  9  8  2  0  0  0  0
 10 11  1  0  0  0  0
 11 12  2  0  0  0  0
 11 16  1  0  0  0  0
 14 13  1  0  0  0  0
 14 10  1  0  0  0  0
 15 14  1  0  0  0  0
 15 13  1  0  0  0  0
 16 17  1  0  0  0  0
 17 22  2  0  0  0  0
 17 21  1  0  0  0  0
 18 20  2  0  0  0  0
 19 20  1  0  0  0  0
 21 19  2  0  0  0  0
 22 18  1  0  0  0  0
 23 35  1  1  0  0  0
 23 25  1  0  0  0  0
 24 28  1  1  0  0  0
 25 33  2  0  0  0  0
 25 32  1  0  0  0  0
 26 30  1  0  0  0  0
 27 24  1  0  0  0  0
 29 26  1  0  0  0  0
 29 31  1  0  0  0  0
 30 24  1  0  0  0  0
 31 27  1  0  0  0  0
 32 29  2  0  0  0  0
 33 34  1  0  0  0  0
 34 26  2  0  0  0  0
 35 40  1  0  0  0  0
 36 37  1  0  0  0  0
 37 43  1  0  0  0  0
 37 41  2  0  0  0  0
 38 41  1  0  0  0  0
 39 36  2  0  0  0  0
 39 40  1  0  0  0  0
 40 38  1  0  0  0  0
 42 43  1  0  0  0  0
M  END
>  <MODEL>
5

>  <REMARK>
 VINA RESULT:      -8.2      3.746      9.519
  Name = 
  10 active torsions:
  status: ('A' for Active; 'I' for Inactive)
    1  A    between atoms: C_1  and  C_34
    2  A    between atoms: C_1  and  N_35
    3  A    between atoms: N_4  and  S_12
    4  A    between atoms: N_4  and  C_15
    5  A    between atoms: C_6  and  S_12
    6  A    between atoms: C_8  and  C_34
    7  A    between atoms: C_11  and  C_14
    8  A    between atoms: C_14  and  C_22
    9  A    between atoms: C_19  and  O_37
   10  A    between atoms: C_34  and  C_38
                            x       y       z     vdW  Elec       q    Type
                         _______ _______ _______ _____ _____    ______ ____

>  <TORSDO>
F 10

$$$$
=
 OpenBabel11052416393D

 43 48  0  0  1  0  0  0  0  0999 V2000
  188.5990  178.4170  139.7030 C   0  0  0  0  0  2  0  0  0  0  0  0
  189.9950  177.7870  139.5520 C   0  0  1  0  0  3  0  0  0  0  0  0
  188.1900  178.6340  141.1590 C   0  0  0  0  0  2  0  0  0  0  0  0
  190.6480  177.4160  140.8890 C   0  0  0  0  0  2  0  0  0  0  0  0
  189.6870  176.6410  141.7920 C   0  0  0  0  0  2  0  0  0  0  0  0
  188.3130  177.3250  141.9430 C   0  0  1  0  0  3  0  0  0  0  0  0
  188.6950  175.5650  138.8020 O   0  0  0  0  0  0  0  0  0  0  0  0
  189.9150  176.3740  138.4610 S   0  0  0  0  0  0  0  0  0  0  0  0
  191.1330  175.5120  138.6440 O   0  0  0  0  0  0  0  0  0  0  0  0
  189.8320  176.9170  136.8070 N   0  0  0  0  0  0  0  0  0  0  0  0
  190.4500  176.1390  135.7650 C   0  0  0  0  0  0  0  0  0  0  0  0
  190.7280  176.6750  134.6570 O   0  0  0  0  0  0  0  0  0  0  0  0
  188.4480  178.2470  135.2840 C   0  0  0  0  0  2  0  0  0  0  0  0
  189.3380  178.2640  136.5180 C   0  0  0  0  0  3  0  0  0  0  0  0
  187.8240  178.3070  136.6550 C   0  0  0  0  0  2  0  0  0  0  0  0
  190.7440  174.6830  135.9540 C   0  0  0  0  0  2  0  0  0  0  0  0
  189.6090  173.8490  135.4630 C   0  0  0  0  0  0  0  0  0  0  0  0
  187.3110  173.6430  134.7660 C   0  0  0  0  0  3  0  0  0  0  0  0
  188.6870  171.7070  134.8470 C   0  0  0  0  0  3  0  0  0  0  0  0
  187.4900  172.3040  134.5980 N   0  0  0  0  0  0  0  0  0  0  0  0
  189.7710  172.4710  135.2870 C   0  0  0  0  0  3  0  0  0  0  0  0
  188.3700  174.4410  135.2050 C   0  0  0  0  0  3  0  0  0  0  0  0
  187.8880  177.5040  143.4050 C   0  0  2  0  0  3  0  0  0  0  0  0
  181.6530  179.3570  142.7210 C   0  0  1  0  0  3  0  0  0  0  0  0
  186.4430  177.8850  143.5610 C   0  0  0  0  0  0  0  0  0  0  0  0
  183.7890  178.6580  143.8480 C   0  0  0  0  0  0  0  0  0  0  0  0
  181.9560  178.2810  141.6830 C   0  0  0  0  0  2  0  0  0  0  0  0
  180.2760  179.4340  142.9230 O   0  0  0  0  0  1  0  0  0  0  0  0
  184.2960  178.2420  142.5980 C   0  0  0  0  0  0  0  0  0  0  0  0
  182.3370  179.0000  144.0370 C   0  0  0  0  0  2  0  0  0  0  0  0
  183.4470  178.2860  141.3570 C   0  0  0  0  0  2  0  0  0  0  0  0
  185.6050  177.8900  142.4860 N   0  0  0  0  0  0  0  0  0  0  0  0
  185.9710  178.2790  144.8160 C   0  0  0  0  0  3  0  0  0  0  0  0
  184.6370  178.6610  144.9570 C   0  0  0  0  0  3  0  0  0  0  0  0
  188.8130  178.4790  144.1280 C   0  0  0  0  0  2  0  0  0  0  0  0
  191.6790  176.7390  145.7160 C   0  0  0  0  0  3  0  0  0  0  0  0
  191.0920  176.3250  147.0010 C   0  0  0  0  0  0  0  0  0  0  0  0
  189.0780  177.7050  146.4980 C   0  0  0  0  0  2  0  0  0  0  0  0
  190.9600  177.4300  144.8340 C   0  0  0  0  0  3  0  0  0  0  0  0
  189.6050  177.7910  145.1350 N   0  0  0  0  0  0  0  0  0  0  0  0
  189.8650  176.7440  147.3470 C   0  0  0  0  0  3  0  0  0  0  0  0
  193.0490  175.8670  148.4520 C   0  0  0  0  0  1  0  0  0  0  0  0
  191.8320  175.4760  147.8290 O   0  0  0  0  0  0  0  0  0  0  0  0
  1  3  1  0  0  0  0
  2  8  1  6  0  0  0
  2  1  1  0  0  0  0
  2  4  1  0  0  0  0
  3  6  1  0  0  0  0
  4  5  1  0  0  0  0
  5  6  1  0  0  0  0
  6 23  1  1  0  0  0
  8  9  2  0  0  0  0
  8  7  2  0  0  0  0
 10  8  1  0  0  0  0
 11 16  1  0  0  0  0
 11 10  1  0  0  0  0
 12 11  2  0  0  0  0
 13 14  1  0  0  0  0
 13 15  1  0  0  0  0
 14 15  1  0  0  0  0
 14 10  1  0  0  0  0
 17 16  1  0  0  0  0
 18 22  1  0  0  0  0
 19 21  2  0  0  0  0
 20 18  2  0  0  0  0
 20 19  1  0  0  0  0
 21 17  1  0  0  0  0
 22 17  2  0  0  0  0
 23 25  1  0  0  0  0
 23 35  1  6  0  0  0
 24 28  1  1  0  0  0
 24 30  1  0  0  0  0
 25 33  1  0  0  0  0
 26 30  1  0  0  0  0
 26 34  1  0  0  0  0
 27 24  1  0  0  0  0
 29 26  2  0  0  0  0
 31 27  1  0  0  0  0
 31 29  1  0  0  0  0
 32 29  1  0  0  0  0
 32 25  2  0  0  0  0
 33 34  2  0  0  0  0
 35 40  1  0  0  0  0
 36 37  1  0  0  0  0
 37 41  2  0  0  0  0
 37 43  1  0  0  0  0
 38 41  1  0  0  0  0
 39 40  1  0  0  0  0
 39 36  2  0  0  0  0
 40 38  1  0  0  0  0
 43 42  1  0  0  0  0
M  END
>  <MODEL>
6

>  <REMARK>
 VINA RESULT:      -8.1      3.017      8.964
  Name = 
  10 active torsions:
  status: ('A' for Active; 'I' for Inactive)
    1  A    between atoms: C_1  and  C_34
    2  A    between atoms: C_1  and  N_35
    3  A    between atoms: N_4  and  S_12
    4  A    between atoms: N_4  and  C_15
    5  A    between atoms: C_6  and  S_12
    6  A    between atoms: C_8  and  C_34
    7  A    between atoms: C_11  and  C_14
    8  A    between atoms: C_14  and  C_22
    9  A    between atoms: C_19  and  O_37
   10  A    between atoms: C_34  and  C_38
                            x       y       z     vdW  Elec       q    Type
                         _______ _______ _______ _____ _____    ______ ____

>  <TORSDO>
F 10

$$$$
=
 OpenBabel11052416393D

 43 48  0  0  1  0  0  0  0  0999 V2000
  182.0470  178.9800  142.2710 C   0  0  0  0  0  2  0  0  0  0  0  0
  181.7910  179.2880  140.7860 C   0  0  1  0  0  3  0  0  0  0  0  0
  183.5310  178.9510  142.6330 C   0  0  0  0  0  2  0  0  0  0  0  0
  183.0730  179.4040  139.9530 C   0  0  0  0  0  2  0  0  0  0  0  0
  184.0240  178.2340  140.2130 C   0  0  0  0  0  2  0  0  0  0  0  0
  184.2790  177.9830  141.7130 C   0  0  1  0  0  3  0  0  0  0  0  0
  179.4240  178.0340  140.9160 O   0  0  0  0  0  0  0  0  0  0  0  0
  180.6800  178.0730  140.0900 S   0  0  0  0  0  0  0  0  0  0  0  0
  181.3190  176.7130  140.1200 O   0  0  0  0  0  0  0  0  0  0  0  0
  180.3020  178.5000  138.4440 N   0  0  0  0  0  0  0  0  0  0  0  0
  179.5230  179.6800  138.1700 C   0  0  0  0  0  0  0  0  0  0  0  0
  178.9310  179.8040  137.0630 O   0  0  0  0  0  0  0  0  0  0  0  0
  181.7080  178.0480  136.4900 C   0  0  0  0  0  2  0  0  0  0  0  0
  180.5770  177.5420  137.3730 C   0  0  0  0  0  3  0  0  0  0  0  0
  181.9840  176.9830  137.5200 C   0  0  0  0  0  2  0  0  0  0  0  0
  179.4260  180.7940  139.1660 C   0  0  0  0  0  2  0  0  0  0  0  0
  179.8000  182.0950  138.5400 C   0  0  0  0  0  0  0  0  0  0  0  0
  179.3040  184.4030  138.0560 C   0  0  0  0  0  3  0  0  0  0  0  0
  181.3010  183.4330  137.2090 C   0  0  0  0  0  3  0  0  0  0  0  0
  180.4610  184.4960  137.3460 N   0  0  0  0  0  0  0  0  0  0  0  0
  180.9840  182.2100  137.8040 C   0  0  0  0  0  3  0  0  0  0  0  0
  178.9500  183.1970  138.6650 C   0  0  0  0  0  3  0  0  0  0  0  0
  185.7700  177.9130  142.0640 C   0  0  2  0  0  3  0  0  0  0  0  0
  187.9380  177.6820  148.2310 C   0  0  1  0  0  3  0  0  0  0  0  0
  186.0420  178.0760  143.5330 C   0  0  0  0  0  0  0  0  0  0  0  0
  186.5110  178.3200  146.2610 C   0  0  0  0  0  0  0  0  0  0  0  0
  189.1350  177.8500  147.3010 C   0  0  0  0  0  2  0  0  0  0  0  0
  188.2850  178.0920  149.5170 O   0  0  0  0  0  1  0  0  0  0  0  0
  187.4980  177.8010  145.3960 C   0  0  0  0  0  0  0  0  0  0  0  0
  186.7780  178.5350  147.7260 C   0  0  0  0  0  2  0  0  0  0  0  0
  188.8040  177.2760  145.9260 C   0  0  0  0  0  2  0  0  0  0  0  0
  187.2300  177.6750  144.0690 N   0  0  0  0  0  0  0  0  0  0  0  0
  185.0480  178.6070  144.3590 C   0  0  0  0  0  3  0  0  0  0  0  0
  185.2890  178.7330  145.7270 C   0  0  0  0  0  3  0  0  0  0  0  0
  186.5770  178.9000  141.2250 C   0  0  0  0  0  2  0  0  0  0  0  0
  188.6860  177.2640  138.6490 C   0  0  0  0  0  3  0  0  0  0  0  0
  189.8450  176.8380  139.4500 C   0  0  0  0  0  0  0  0  0  0  0  0
  188.9640  178.1490  141.3780 C   0  0  0  0  0  2  0  0  0  0  0  0
  187.6790  177.9270  139.2150 C   0  0  0  0  0  3  0  0  0  0  0  0
  187.7200  178.2450  140.6120 N   0  0  0  0  0  0  0  0  0  0  0  0
  189.9540  177.2190  140.7320 C   0  0  0  0  0  3  0  0  0  0  0  0
  191.9380  176.5290  138.1570 C   0  0  0  0  0  1  0  0  0  0  0  0
  190.8060  176.0190  138.8490 O   0  0  0  0  0  0  0  0  0  0  0  0
  1  3  1  0  0  0  0
  2  8  1  6  0  0  0
  2  1  1  0  0  0  0
  4  5  1  0  0  0  0
  4  2  1  0  0  0  0
  5  6  1  0  0  0  0
  6 23  1  6  0  0  0
  6  3  1  0  0  0  0
  8  9  2  0  0  0  0
  8  7  2  0  0  0  0
 10  8  1  0  0  0  0
 11 10  1  0  0  0  0
 11 16  1  0  0  0  0
 12 11  2  0  0  0  0
 13 14  1  0  0  0  0
 13 15  1  0  0  0  0
 14 15  1  0  0  0  0
 14 10  1  0  0  0  0
 17 22  1  0  0  0  0
 17 16  1  0  0  0  0
 18 22  2  0  0  0  0
 19 20  2  0  0  0  0
 19 21  1  0  0  0  0
 20 18  1  0  0  0  0
 21 17  2  0  0  0  0
 23 35  1  6  0  0  0
 23 25  1  0  0  0  0
 24 28  1  1  0  0  0
 25 32  2  0  0  0  0
 25 33  1  0  0  0  0
 26 30  1  0  0  0  0
 27 24  1  0  0  0  0
 29 31  1  0  0  0  0
 29 26  2  0  0  0  0
 30 24  1  0  0  0  0
 31 27  1  0  0  0  0
 32 29  1  0  0  0  0
 33 34  2  0  0  0  0
 34 26  1  0  0  0  0
 36 39  2  0  0  0  0
 36 37  1  0  0  0  0
 37 41  2  0  0  0  0
 39 40  1  0  0  0  0
 40 35  1  0  0  0  0
 40 38  1  0  0  0  0
 41 38  1  0  0  0  0
 42 43  1  0  0  0  0
 43 37  1  0  0  0  0
M  END
>  <MODEL>
7

>  <REMARK>
 VINA RESULT:      -8.1      4.737      9.793
  Name = 
  10 active torsions:
  status: ('A' for Active; 'I' for Inactive)
    1  A    between atoms: C_1  and  C_34
    2  A    between atoms: C_1  and  N_35
    3  A    between atoms: N_4  and  S_12
    4  A    between atoms: N_4  and  C_15
    5  A    between atoms: C_6  and  S_12
    6  A    between atoms: C_8  and  C_34
    7  A    between atoms: C_11  and  C_14
    8  A    between atoms: C_14  and  C_22
    9  A    between atoms: C_19  and  O_37
   10  A    between atoms: C_34  and  C_38
                            x       y       z     vdW  Elec       q    Type
                         _______ _______ _______ _____ _____    ______ ____

>  <TORSDO>
F 10

$$$$
=
 OpenBabel11052416393D

 43 48  0  0  1  0  0  0  0  0999 V2000
  182.5630  180.0900  138.6270 C   0  0  0  0  0  2  0  0  0  0  0  0
  181.9310  178.9360  137.8310 C   0  0  1  0  0  3  0  0  0  0  0  0
  183.9870  179.7910  139.0950 C   0  0  0  0  0  2  0  0  0  0  0  0
  182.8170  177.6870  137.7530 C   0  0  0  0  0  2  0  0  0  0  0  0
  183.3650  177.2960  139.1270 C   0  0  0  0  0  2  0  0  0  0  0  0
  184.0200  178.4750  139.8750 C   0  0  1  0  0  3  0  0  0  0  0  0
  180.2330  177.0560  138.7110 O   0  0  0  0  0  0  0  0  0  0  0  0
  180.3200  178.5410  138.4960 S   0  0  0  0  0  0  0  0  0  0  0  0
  179.2460  178.9530  137.5280 O   0  0  0  0  0  0  0  0  0  0  0  0
  180.0900  179.3790  140.0070 N   0  0  0  0  0  0  0  0  0  0  0  0
  179.6470  180.7490  140.0080 C   0  0  0  0  0  0  0  0  0  0  0  0
  179.8310  181.4730  141.0250 O   0  0  0  0  0  0  0  0  0  0  0  0
  179.3880  178.3540  142.1190 C   0  0  0  0  0  2  0  0  0  0  0  0
  180.5660  178.7650  141.2470 C   0  0  0  0  0  3  0  0  0  0  0  0
  180.1220  177.3120  141.3160 C   0  0  0  0  0  2  0  0  0  0  0  0
  178.9320  181.3330  138.8290 C   0  0  0  0  0  2  0  0  0  0  0  0
  179.5870  182.5990  138.3900 C   0  0  0  0  0  0  0  0  0  0  0  0
  179.5560  184.9970  138.1500 C   0  0  0  0  0  3  0  0  0  0  0  0
  181.4150  183.7640  137.3340 C   0  0  0  0  0  3  0  0  0  0  0  0
  180.7700  184.9440  137.5380 N   0  0  0  0  0  0  0  0  0  0  0  0
  180.8330  182.5670  137.7560 C   0  0  0  0  0  3  0  0  0  0  0  0
  178.9390  183.8220  138.5860 C   0  0  0  0  0  3  0  0  0  0  0  0
  185.4320  178.1560  140.3780 C   0  0  2  0  0  3  0  0  0  0  0  0
  187.0160  177.6060  146.7000 C   0  0  1  0  0  3  0  0  0  0  0  0
  185.5640  178.2410  141.8720 C   0  0  0  0  0  0  0  0  0  0  0  0
  185.7730  178.3400  144.6420 C   0  0  0  0  0  0  0  0  0  0  0  0
  188.2930  177.8330  145.8980 C   0  0  0  0  0  2  0  0  0  0  0  0
  187.2370  177.9480  148.0330 O   0  0  0  0  0  1  0  0  0  0  0  0
  186.8420  177.8760  143.8460 C   0  0  0  0  0  0  0  0  0  0  0  0
  185.8990  178.4770  146.1340 C   0  0  0  0  0  2  0  0  0  0  0  0
  188.1000  177.3330  144.4690 C   0  0  0  0  0  2  0  0  0  0  0  0
  186.7010  177.8200  142.4960 N   0  0  0  0  0  0  0  0  0  0  0  0
  184.4900  178.7190  142.6280 C   0  0  0  0  0  3  0  0  0  0  0  0
  184.6010  178.7720  144.0170 C   0  0  0  0  0  3  0  0  0  0  0  0
  186.4740  179.0170  139.6670 C   0  0  0  0  0  2  0  0  0  0  0  0
  187.5650  176.6020  137.0720 C   0  0  0  0  0  3  0  0  0  0  0  0
  189.0040  176.4900  137.3660 C   0  0  0  0  0  0  0  0  0  0  0  0
  188.7980  178.3820  138.9750 C   0  0  0  0  0  2  0  0  0  0  0  0
  186.7890  177.4130  137.7880 C   0  0  0  0  0  3  0  0  0  0  0  0
  187.3520  178.1970  138.8490 N   0  0  0  0  0  0  0  0  0  0  0  0
  189.5690  177.2930  138.2800 C   0  0  0  0  0  3  0  0  0  0  0  0
  189.5200  174.1230  136.8360 C   0  0  0  0  0  1  0  0  0  0  0  0
  189.7480  175.5190  136.6890 O   0  0  0  0  0  0  0  0  0  0  0  0
  1  3  1  0  0  0  0
  2  8  1  1  0  0  0
  2  1  1  0  0  0  0
  3  6  1  0  0  0  0
  4  2  1  0  0  0  0
  4  5  1  0  0  0  0
  5  6  1  0  0  0  0
  6 23  1  6  0  0  0
  8  7  2  0  0  0  0
  8 10  1  0  0  0  0
  9  8  2  0  0  0  0
 10 11  1  0  0  0  0
 10 14  1  0  0  0  0
 11 12  2  0  0  0  0
 14 15  1  0  0  0  0
 14 13  1  0  0  0  0
 15 13  1  0  0  0  0
 16 11  1  0  0  0  0
 17 22  1  0  0  0  0
 17 16  1  0  0  0  0
 18 22  2  0  0  0  0
 19 20  2  0  0  0  0
 19 21  1  0  0  0  0
 20 18  1  0  0  0  0
 21 17  2  0  0  0  0
 23 35  1  6  0  0  0
 23 25  1  0  0  0  0
 24 28  1  1  0  0  0
 25 32  2  0  0  0  0
 25 33  1  0  0  0  0
 26 30  1  0  0  0  0
 27 24  1  0  0  0  0
 29 31  1  0  0  0  0
 29 26  2  0  0  0  0
 30 24  1  0  0  0  0
 31 27  1  0  0  0  0
 32 29  1  0  0  0  0
 33 34  2  0  0  0  0
 34 26  1  0  0  0  0
 36 37  1  0  0  0  0
 36 39  2  0  0  0  0
 37 41  2  0  0  0  0
 39 40  1  0  0  0  0
 40 38  1  0  0  0  0
 40 35  1  0  0  0  0
 41 38  1  0  0  0  0
 43 42  1  0  0  0  0
 43 37  1  0  0  0  0
M  END
>  <MODEL>
8

>  <REMARK>
 VINA RESULT:      -7.9      5.029      9.362
  Name = 
  10 active torsions:
  status: ('A' for Active; 'I' for Inactive)
    1  A    between atoms: C_1  and  C_34
    2  A    between atoms: C_1  and  N_35
    3  A    between atoms: N_4  and  S_12
    4  A    between atoms: N_4  and  C_15
    5  A    between atoms: C_6  and  S_12
    6  A    between atoms: C_8  and  C_34
    7  A    between atoms: C_11  and  C_14
    8  A    between atoms: C_14  and  C_22
    9  A    between atoms: C_19  and  O_37
   10  A    between atoms: C_34  and  C_38
                            x       y       z     vdW  Elec       q    Type
                         _______ _______ _______ _____ _____    ______ ____

>  <TORSDO>
F 10

$$$$
=
 OpenBabel11052416393D

 43 48  0  0  1  0  0  0  0  0999 V2000
  188.9900  178.5220  141.6760 C   0  0  0  0  0  2  0  0  0  0  0  0
  189.3480  177.3970  142.6620 C   0  0  1  0  0  3  0  0  0  0  0  0
  189.0650  178.0870  140.2130 C   0  0  0  0  0  2  0  0  0  0  0  0
  189.8020  176.1020  141.9770 C   0  0  0  0  0  2  0  0  0  0  0  0
  190.8540  176.3710  140.8990 C   0  0  0  0  0  2  0  0  0  0  0  0
  190.4390  177.4820  139.9130 C   0  0  1  0  0  3  0  0  0  0  0  0
  190.5760  179.4750  143.8310 O   0  0  0  0  0  0  0  0  0  0  0  0
  190.5730  177.9710  143.8290 S   0  0  0  0  0  0  0  0  0  0  0  0
  191.9380  177.4870  143.4250 O   0  0  0  0  0  0  0  0  0  0  0  0
  190.1930  177.3710  145.4200 N   0  0  0  0  0  0  0  0  0  0  0  0
  188.8180  177.1840  145.8060 C   0  0  0  0  0  0  0  0  0  0  0  0
  188.5080  177.1190  147.0270 O   0  0  0  0  0  0  0  0  0  0  0  0
  191.0270  176.0740  147.3240 C   0  0  0  0  0  2  0  0  0  0  0  0
  191.2520  177.2810  146.4250 C   0  0  0  0  0  3  0  0  0  0  0  0
  192.0560  176.0060  146.2260 C   0  0  0  0  0  2  0  0  0  0  0  0
  187.7390  177.0260  144.7810 C   0  0  0  0  0  2  0  0  0  0  0  0
  186.4980  177.7350  145.2080 C   0  0  0  0  0  0  0  0  0  0  0  0
  185.0220  178.5020  146.9510 C   0  0  0  0  0  3  0  0  0  0  0  0
  184.4530  178.8970  144.6790 C   0  0  0  0  0  3  0  0  0  0  0  0
  184.1800  179.0050  146.0070 N   0  0  0  0  0  0  0  0  0  0  0  0
  185.6190  178.2570  144.2540 C   0  0  0  0  0  3  0  0  0  0  0  0
  186.1980  177.8540  146.5670 C   0  0  0  0  0  3  0  0  0  0  0  0
  190.5550  177.0550  138.4450 C   0  0  2  0  0  3  0  0  0  0  0  0
  184.9740  176.1590  135.1560 C   0  0  1  0  0  3  0  0  0  0  0  0
  189.2620  177.1660  137.6900 C   0  0  0  0  0  0  0  0  0  0  0  0
  186.9030  177.3600  136.2330 C   0  0  0  0  0  0  0  0  0  0  0  0
  184.9560  175.2680  136.3930 C   0  0  0  0  0  2  0  0  0  0  0  0
  183.6700  176.3550  134.7030 O   0  0  0  0  0  1  0  0  0  0  0  0
  187.2410  176.1730  136.9170 C   0  0  0  0  0  0  0  0  0  0  0  0
  185.5930  177.5080  135.5090 C   0  0  0  0  0  2  0  0  0  0  0  0
  186.3870  174.9390  136.8110 C   0  0  0  0  0  2  0  0  0  0  0  0
  188.4130  176.1030  137.6040 N   0  0  0  0  0  0  0  0  0  0  0  0
  188.9510  178.3600  137.0350 C   0  0  0  0  0  3  0  0  0  0  0  0
  187.7640  178.4560  136.3090 C   0  0  0  0  0  3  0  0  0  0  0  0
  191.1620  175.6590  138.3280 C   0  0  0  0  0  2  0  0  0  0  0  0
  194.6880  175.2410  137.2530 C   0  0  0  0  0  3  0  0  0  0  0  0
  194.6580  175.8520  135.9140 C   0  0  0  0  0  0  0  0  0  0  0  0
  192.1730  175.9860  136.0570 C   0  0  0  0  0  2  0  0  0  0  0  0
  193.5810  175.1700  137.9900 C   0  0  0  0  0  3  0  0  0  0  0  0
  192.3410  175.6770  137.4780 N   0  0  0  0  0  0  0  0  0  0  0  0
  193.4900  176.2330  135.3730 C   0  0  0  0  0  3  0  0  0  0  0  0
  197.0700  175.3700  135.6010 C   0  0  0  0  0  1  0  0  0  0  0  0
  195.8690  176.0390  135.2390 O   0  0  0  0  0  0  0  0  0  0  0  0
  1  2  1  0  0  0  0
  2  8  1  1  0  0  0
  3  1  1  0  0  0  0
  4  2  1  0  0  0  0
  5  4  1  0  0  0  0
  6 23  1  6  0  0  0
  6  3  1  0  0  0  0
  6  5  1  0  0  0  0
  8  7  2  0  0  0  0
  8 10  1  0  0  0  0
  9  8  2  0  0  0  0
 10 11  1  0  0  0  0
 10 14  1  0  0  0  0
 11 12  2  0  0  0  0
 14 13  1  0  0  0  0
 15 14  1  0  0  0  0
 15 13  1  0  0  0  0
 16 17  1  0  0  0  0
 16 11  1  0  0  0  0
 17 22  1  0  0  0  0
 19 20  2  0  0  0  0
 20 18  1  0  0  0  0
 21 19  1  0  0  0  0
 21 17  2  0  0  0  0
 22 18  2  0  0  0  0
 23 35  1  1  0  0  0
 24 28  1  1  0  0  0
 24 30  1  0  0  0  0
 24 27  1  0  0  0  0
 25 23  1  0  0  0  0
 26 34  2  0  0  0  0
 26 29  1  0  0  0  0
 27 31  1  0  0  0  0
 29 32  2  0  0  0  0
 30 26  1  0  0  0  0
 31 29  1  0  0  0  0
 32 25  1  0  0  0  0
 33 25  2  0  0  0  0
 34 33  1  0  0  0  0
 36 39  2  0  0  0  0
 37 36  1  0  0  0  0
 38 40  1  0  0  0  0
 40 39  1  0  0  0  0
 40 35  1  0  0  0  0
 41 37  2  0  0  0  0
 41 38  1  0  0  0  0
 43 42  1  0  0  0  0
 43 37  1  0  0  0  0
M  END
>  <MODEL>
9

>  <REMARK>
 VINA RESULT:      -7.8      1.049      1.333
  Name = 
  10 active torsions:
  status: ('A' for Active; 'I' for Inactive)
    1  A    between atoms: C_1  and  C_34
    2  A    between atoms: C_1  and  N_35
    3  A    between atoms: N_4  and  S_12
    4  A    between atoms: N_4  and  C_15
    5  A    between atoms: C_6  and  S_12
    6  A    between atoms: C_8  and  C_34
    7  A    between atoms: C_11  and  C_14
    8  A    between atoms: C_14  and  C_22
    9  A    between atoms: C_19  and  O_37
   10  A    between atoms: C_34  and  C_38
                            x       y       z     vdW  Elec       q    Type
                         _______ _______ _______ _____ _____    ______ ____

>  <TORSDO>
F 10

$$$$
