=
 OpenBabel11052416513D

 32 37  0  0  1  0  0  0  0  0999 V2000
  190.5670  176.4300  139.6170 C   0  0  1  0  0  3  0  0  0  0  0  0
  193.3100  173.7610  137.2680 F   0  0  0  0  0  0  0  0  0  0  0  0
  189.4310  178.0590  138.0990 C   0  0  1  0  0  3  0  0  0  0  0  0
  188.5730  178.6280  139.2430 C   0  0  1  0  0  3  0  0  0  0  0  0
  187.3670  178.6450  136.7060 C   0  0  2  0  0  3  0  0  0  0  0  0
  193.1910  174.7570  138.1820 C   0  0  0  0  0  3  0  0  0  0  0  0
  192.2790  177.0130  139.3240 S   0  0  0  0  0  0  0  0  0  0  0  0
  192.4850  175.8760  137.9680 C   0  0  0  0  0  0  0  0  0  0  0  0
  190.1390  175.9210  137.0740 C   0  0  2  0  0  3  0  0  0  0  0  0
  186.5870  177.8770  137.7640 C   0  0  0  0  0  2  0  0  0  0  0  0
  187.0980  178.1950  139.1730 C   0  0  0  0  0  2  0  0  0  0  0  0
  191.6280  176.1630  136.7620 C   0  0  2  0  0  3  0  0  0  0  0  0
  189.0860  176.6400  135.7690 S   0  0  0  0  0  0  0  0  0  0  0  0
  189.9780  177.1950  140.7930 C   0  0  0  0  0  0  0  0  0  0  0  0
  189.1310  178.2370  140.5930 C   0  0  0  0  0  3  0  0  0  0  0  0
  186.7840  178.4850  135.4620 F   0  0  0  0  0  0  0  0  0  0  0  0
  189.6830  176.5940  138.3660 C   0  0  1  0  0  3  0  0  0  0  0  0
  188.8380  178.2060  136.6930 C   0  0  2  0  0  3  0  0  0  0  0  0
  189.8020  178.6180  143.7500 C   0  0  0  0  0  2  0  0  0  0  0  0
  190.4060  176.8370  142.2150 C   0  0  1  0  0  0  0  0  0  0  0  0
  190.6490  175.4660  142.3260 O   0  0  0  0  0  1  0  0  0  0  0  0
  191.3110  178.6360  143.6220 C   0  0  0  0  0  2  0  0  0  0  0  0
  191.6790  177.5920  142.5770 C   0  0  0  0  0  2  0  0  0  0  0  0
  189.3900  177.2390  143.2870 C   0  0  2  0  0  3  0  0  0  0  0  0
  187.9270  177.1760  142.8480 C   0  0  0  0  0  2  0  0  0  0  0  0
  187.2810  177.3720  145.2930 C   0  0  0  0  0  3  0  0  0  0  0  0
  185.9010  178.3570  143.6600 N   0  0  0  0  0  0  0  0  0  0  0  0
  186.3240  177.8770  146.1700 C   0  0  0  0  0  3  0  0  0  0  0  0
  187.0250  177.6530  143.9340 C   0  0  0  0  0  0  0  0  0  0  0  0
  185.2370  178.6300  145.1520 S   0  0  0  0  0  0  0  0  0  0  0  0
  193.1460  176.0690  134.7820 C   0  0  0  0  0  2  0  0  0  0  0  0
  192.1050  175.5780  135.4540 C   0  0  0  0  0  3  0  0  0  0  0  0
  1  7  1  6  0  0  0
  1 14  1  0  0  0  0
  2  6  1  0  0  0  0
  3 17  1  0  0  0  0
  3  4  1  0  0  0  0
  4 15  1  0  0  0  0
  5 10  1  0  0  0  0
  8  6  2  0  0  0  0
  8  7  1  0  0  0  0
  9 17  1  0  0  0  0
 10 11  1  0  0  0  0
 11  4  1  0  0  0  0
 12  9  1  0  0  0  0
 12  8  1  0  0  0  0
 13 18  1  0  0  0  0
 13  9  1  0  0  0  0
 14 20  1  0  0  0  0
 15 14  2  0  0  0  0
 16  5  1  0  0  0  0
 17  1  1  0  0  0  0
 18  5  1  0  0  0  0
 18  3  1  0  0  0  0
 20 21  1  0  0  0  0
 20 23  1  0  0  0  0
 20 24  1  0  0  0  0
 22 19  1  0  0  0  0
 23 22  1  0  0  0  0
 24 19  1  0  0  0  0
 25 24  1  0  0  0  0
 25 29  1  0  0  0  0
 26 28  2  0  0  0  0
 27 29  2  0  0  0  0
 27 30  1  0  0  0  0
 29 26  1  0  0  0  0
 30 28  1  0  0  0  0
 31 32  2  0  0  0  0
 32 12  1  0  0  0  0
M  END
>  <MODEL>
1

>  <REMARK>
 VINA RESULT:      -8.2      0.000      0.000
  Name = 
  4 active torsions:
  status: ('A' for Active; 'I' for Inactive)
    1  A    between atoms: C_8  and  C_28
    2  A    between atoms: C_19  and  C_24
    3  A    between atoms: C_23  and  C_24
    4  A    between atoms: C_25  and  C_26
                            x       y       z     vdW  Elec       q    Type
                         _______ _______ _______ _____ _____    ______ ____

>  <TORSDO>
F 4

$$$$
=
 OpenBabel11052416513D

 32 37  0  0  1  0  0  0  0  0999 V2000
  189.5960  176.6770  140.3010 C   0  0  1  0  0  3  0  0  0  0  0  0
  191.3240  174.2430  136.9460 F   0  0  0  0  0  0  0  0  0  0  0  0
  187.9580  178.3420  139.4110 C   0  0  1  0  0  3  0  0  0  0  0  0
  187.5720  178.8160  140.8230 C   0  0  1  0  0  3  0  0  0  0  0  0
  185.5180  178.9250  138.9090 C   0  0  2  0  0  3  0  0  0  0  0  0
  191.5340  175.1840  137.9010 C   0  0  0  0  0  3  0  0  0  0  0  0
  191.0720  177.3390  139.4400 S   0  0  0  0  0  0  0  0  0  0  0  0
  190.7820  176.2850  138.0330 C   0  0  0  0  0  0  0  0  0  0  0  0
  188.2720  176.2910  138.0640 C   0  0  2  0  0  3  0  0  0  0  0  0
  185.1920  178.0730  140.1280 C   0  0  0  0  0  2  0  0  0  0  0  0
  186.1800  178.3330  141.2700 C   0  0  0  0  0  2  0  0  0  0  0  0
  189.5380  176.6040  137.2450 C   0  0  2  0  0  3  0  0  0  0  0  0
  186.8020  177.0390  137.2830 S   0  0  0  0  0  0  0  0  0  0  0  0
  189.4690  177.3550  141.6570 C   0  0  0  0  0  0  0  0  0  0  0  0
  188.5920  178.3740  141.8480 C   0  0  0  0  0  3  0  0  0  0  0  0
  184.5210  178.8100  137.9580 F   0  0  0  0  0  0  0  0  0  0  0  0
  188.3120  176.8750  139.4730 C   0  0  1  0  0  3  0  0  0  0  0  0
  186.8880  178.5430  138.3310 C   0  0  2  0  0  3  0  0  0  0  0  0
  190.2630  178.5380  144.6180 C   0  0  0  0  0  2  0  0  0  0  0  0
  190.3940  176.9370  142.7980 C   0  0  1  0  0  0  0  0  0  0  0  0
  190.7460  175.5910  142.6790 O   0  0  0  0  0  1  0  0  0  0  0  0
  191.6250  178.7070  143.9770 C   0  0  0  0  0  2  0  0  0  0  0  0
  191.6630  177.7800  142.7690 C   0  0  0  0  0  2  0  0  0  0  0  0
  189.8010  177.1640  144.1910 C   0  0  2  0  0  3  0  0  0  0  0  0
  188.2840  176.9950  144.2830 C   0  0  0  0  0  2  0  0  0  0  0  0
  186.6030  178.2540  145.7060 C   0  0  0  0  0  3  0  0  0  0  0  0
  188.4360  177.2100  146.7510 N   0  0  0  0  0  0  0  0  0  0  0  0
  186.2870  178.6340  147.0080 C   0  0  0  0  0  3  0  0  0  0  0  0
  187.7760  177.4760  145.5990 C   0  0  0  0  0  0  0  0  0  0  0  0
  187.5190  177.9580  147.9100 S   0  0  0  0  0  0  0  0  0  0  0  0
  189.8040  176.8900  134.7790 C   0  0  0  0  0  2  0  0  0  0  0  0
  189.5100  176.1090  135.8190 C   0  0  0  0  0  3  0  0  0  0  0  0
  1  7  1  6  0  0  0
  1 14  1  0  0  0  0
  2  6  1  0  0  0  0
  3 17  1  0  0  0  0
  3  4  1  0  0  0  0
  4 11  1  0  0  0  0
  4 15  1  0  0  0  0
  5 10  1  0  0  0  0
  6  8  2  0  0  0  0
  8  7  1  0  0  0  0
  9 17  1  0  0  0  0
 10 11  1  0  0  0  0
 12  8  1  0  0  0  0
 12  9  1  0  0  0  0
 13  9  1  0  0  0  0
 13 18  1  0  0  0  0
 14 15  2  0  0  0  0
 14 20  1  0  0  0  0
 16  5  1  0  0  0  0
 17  1  1  0  0  0  0
 18  5  1  0  0  0  0
 18  3  1  0  0  0  0
 20 24  1  0  0  0  0
 21 20  1  0  0  0  0
 22 19  1  0  0  0  0
 23 20  1  0  0  0  0
 23 22  1  0  0  0  0
 24 25  1  0  0  0  0
 24 19  1  0  0  0  0
 25 29  1  0  0  0  0
 26 28  2  0  0  0  0
 27 30  1  0  0  0  0
 28 30  1  0  0  0  0
 29 26  1  0  0  0  0
 29 27  2  0  0  0  0
 31 32  2  0  0  0  0
 32 12  1  0  0  0  0
M  END
>  <MODEL>
2

>  <REMARK>
 VINA RESULT:      -7.5      1.819      2.121
  Name = 
  4 active torsions:
  status: ('A' for Active; 'I' for Inactive)
    1  A    between atoms: C_8  and  C_28
    2  A    between atoms: C_19  and  C_24
    3  A    between atoms: C_23  and  C_24
    4  A    between atoms: C_25  and  C_26
                            x       y       z     vdW  Elec       q    Type
                         _______ _______ _______ _____ _____    ______ ____

>  <TORSDO>
F 4

$$$$
=
 OpenBabel11052416513D

 32 37  0  0  1  0  0  0  0  0999 V2000
  187.6900  177.4870  141.2330 C   0  0  1  0  0  3  0  0  0  0  0  0
  183.6410  177.6660  143.1680 F   0  0  0  0  0  0  0  0  0  0  0  0
  189.4650  178.1220  142.8740 C   0  0  1  0  0  3  0  0  0  0  0  0
  190.5930  177.8170  141.8720 C   0  0  1  0  0  3  0  0  0  0  0  0
  191.2190  177.3560  144.5710 C   0  0  2  0  0  3  0  0  0  0  0  0
  184.4990  178.1990  142.2610 C   0  0  0  0  0  3  0  0  0  0  0  0
  186.8120  179.0950  141.2260 S   0  0  0  0  0  0  0  0  0  0  0  0
  185.7500  178.5760  142.5590 C   0  0  0  0  0  0  0  0  0  0  0  0
  187.3930  177.1600  143.8240 C   0  0  2  0  0  3  0  0  0  0  0  0
  191.3740  176.1340  143.6760 C   0  0  0  0  0  2  0  0  0  0  0  0
  191.3640  176.5250  142.1940 C   0  0  0  0  0  2  0  0  0  0  0  0
  186.4430  178.3710  143.8810 C   0  0  2  0  0  3  0  0  0  0  0  0
  188.5120  177.1540  145.2650 S   0  0  0  0  0  0  0  0  0  0  0  0
  188.7590  177.5020  140.1500 C   0  0  0  0  0  0  0  0  0  0  0  0
  190.0610  177.7270  140.4590 C   0  0  0  0  0  3  0  0  0  0  0  0
  191.4060  177.0110  145.8970 F   0  0  0  0  0  0  0  0  0  0  0  0
  188.3150  177.1800  142.6080 C   0  0  1  0  0  3  0  0  0  0  0  0
  189.8510  178.0180  144.3540 C   0  0  2  0  0  3  0  0  0  0  0  0
  190.2580  177.7240  137.2340 C   0  0  0  0  0  2  0  0  0  0  0  0
  188.3520  177.3400  138.6870 C   0  0  1  0  0  0  0  0  0  0  0  0
  187.1460  176.6410  138.5860 O   0  0  0  0  0  1  0  0  0  0  0  0
  189.3190  178.8980  137.0520 C   0  0  0  0  0  2  0  0  0  0  0  0
  188.1780  178.7100  138.0440 C   0  0  0  0  0  2  0  0  0  0  0  0
  189.4000  176.6290  137.8270 C   0  0  2  0  0  3  0  0  0  0  0  0
  190.2200  175.5650  138.5560 C   0  0  0  0  0  2  0  0  0  0  0  0
  192.3620  174.6830  137.5200 C   0  0  0  0  0  3  0  0  0  0  0  0
  190.2920  173.9170  136.7030 N   0  0  0  0  0  0  0  0  0  0  0  0
  192.8760  173.8350  136.5430 C   0  0  0  0  0  3  0  0  0  0  0  0
  190.9520  174.7020  137.5860 C   0  0  0  0  0  0  0  0  0  0  0  0
  191.5050  173.1880  135.8430 S   0  0  0  0  0  0  0  0  0  0  0  0
  185.7080  179.3600  146.0530 C   0  0  0  0  0  2  0  0  0  0  0  0
  185.5640  178.4310  145.1070 C   0  0  0  0  0  3  0  0  0  0  0  0
  1 14  1  6  0  0  0
  1 17  1  0  0  0  0
  3 18  1  0  0  0  0
  4 11  1  0  0  0  0
  4  3  1  0  0  0  0
  5 16  1  0  0  0  0
  6  8  2  0  0  0  0
  6  2  1  0  0  0  0
  7  1  1  0  0  0  0
  7  8  1  0  0  0  0
  8 12  1  0  0  0  0
  9 12  1  0  0  0  0
  9 13  1  0  0  0  0
 10  5  1  0  0  0  0
 11 10  1  0  0  0  0
 12 32  1  0  0  0  0
 14 15  2  0  0  0  0
 15  4  1  0  0  0  0
 17  3  1  0  0  0  0
 17  9  1  0  0  0  0
 18  5  1  0  0  0  0
 18 13  1  0  0  0  0
 19 24  1  0  0  0  0
 20 14  1  0  0  0  0
 21 20  1  0  0  0  0
 22 19  1  0  0  0  0
 22 23  1  0  0  0  0
 23 20  1  0  0  0  0
 24 25  1  0  0  0  0
 24 20  1  0  0  0  0
 26 29  1  0  0  0  0
 27 29  2  0  0  0  0
 28 26  2  0  0  0  0
 29 25  1  0  0  0  0
 30 28  1  0  0  0  0
 30 27  1  0  0  0  0
 32 31  2  0  0  0  0
M  END
>  <MODEL>
3

>  <REMARK>
 VINA RESULT:      -7.0      3.445      8.167
  Name = 
  4 active torsions:
  status: ('A' for Active; 'I' for Inactive)
    1  A    between atoms: C_8  and  C_28
    2  A    between atoms: C_19  and  C_24
    3  A    between atoms: C_23  and  C_24
    4  A    between atoms: C_25  and  C_26
                            x       y       z     vdW  Elec       q    Type
                         _______ _______ _______ _____ _____    ______ ____

>  <TORSDO>
F 4

$$$$
=
 OpenBabel11052416513D

 32 37  0  0  1  0  0  0  0  0999 V2000
  185.5420  178.3590  141.8910 C   0  0  1  0  0  3  0  0  0  0  0  0
  182.7800  178.3210  145.4320 F   0  0  0  0  0  0  0  0  0  0  0  0
  187.9220  178.4550  142.6480 C   0  0  1  0  0  3  0  0  0  0  0  0
  188.4530  178.3330  141.2090 C   0  0  1  0  0  3  0  0  0  0  0  0
  190.0730  177.1820  143.1950 C   0  0  2  0  0  3  0  0  0  0  0  0
  183.2510  179.0030  144.3580 C   0  0  0  0  0  3  0  0  0  0  0  0
  185.0250  179.9740  142.5880 S   0  0  0  0  0  0  0  0  0  0  0  0
  184.5550  179.2130  144.1280 C   0  0  0  0  0  0  0  0  0  0  0  0
  186.3150  177.4260  144.2230 C   0  0  2  0  0  3  0  0  0  0  0  0
  189.6290  176.2110  142.1100 C   0  0  0  0  0  2  0  0  0  0  0  0
  189.0600  176.9530  140.8960 C   0  0  0  0  0  2  0  0  0  0  0  0
  185.6960  178.6450  144.9310 C   0  0  2  0  0  3  0  0  0  0  0  0
  187.9200  176.9930  144.9770 S   0  0  0  0  0  0  0  0  0  0  0  0
  186.0400  178.5710  140.4690 C   0  0  0  0  0  0  0  0  0  0  0  0
  187.3680  178.6280  140.1970 C   0  0  0  0  0  3  0  0  0  0  0  0
  190.7410  176.5110  144.2020 F   0  0  0  0  0  0  0  0  0  0  0  0
  186.6270  177.6850  142.7520 C   0  0  1  0  0  3  0  0  0  0  0  0
  188.8730  177.9650  143.7460 C   0  0  2  0  0  3  0  0  0  0  0  0
  184.1390  176.6790  138.5700 C   0  0  0  0  0  2  0  0  0  0  0  0
  185.0330  178.8000  139.3440 C   0  0  1  0  0  0  0  0  0  0  0  0
  184.6000  180.1280  139.3320 O   0  0  0  0  0  1  0  0  0  0  0  0
  185.0340  177.2100  137.4700 C   0  0  0  0  0  2  0  0  0  0  0  0
  185.6800  178.4840  138.0000 C   0  0  0  0  0  2  0  0  0  0  0  0
  183.8060  177.8880  139.4160 C   0  0  2  0  0  3  0  0  0  0  0  0
  183.3600  177.5140  140.8290 C   0  0  0  0  0  2  0  0  0  0  0  0
  180.8900  176.9870  140.5880 C   0  0  0  0  0  3  0  0  0  0  0  0
  181.5380  178.9900  141.6400 N   0  0  0  0  0  0  0  0  0  0  0  0
  179.6050  177.4580  140.8470 C   0  0  0  0  0  3  0  0  0  0  0  0
  181.9210  177.8410  141.0360 C   0  0  0  0  0  0  0  0  0  0  0  0
  179.8830  178.9150  141.6140 S   0  0  0  0  0  0  0  0  0  0  0  0
  186.0570  179.1810  147.3430 C   0  0  0  0  0  2  0  0  0  0  0  0
  185.4400  178.4580  146.4080 C   0  0  0  0  0  3  0  0  0  0  0  0
  1 14  1  6  0  0  0
  1  7  1  0  0  0  0
  1 17  1  0  0  0  0
  3 17  1  0  0  0  0
  3 18  1  0  0  0  0
  4  3  1  0  0  0  0
  5 18  1  0  0  0  0
  5 16  1  0  0  0  0
  6  2  1  0  0  0  0
  7  8  1  0  0  0  0
  8  6  2  0  0  0  0
  8 12  1  0  0  0  0
  9 12  1  0  0  0  0
  9 13  1  0  0  0  0
 10  5  1  0  0  0  0
 11  4  1  0  0  0  0
 11 10  1  0  0  0  0
 12 32  1  0  0  0  0
 15 14  2  0  0  0  0
 15  4  1  0  0  0  0
 17  9  1  0  0  0  0
 18 13  1  0  0  0  0
 19 24  1  0  0  0  0
 20 24  1  0  0  0  0
 20 14  1  0  0  0  0
 21 20  1  0  0  0  0
 22 23  1  0  0  0  0
 22 19  1  0  0  0  0
 23 20  1  0  0  0  0
 24 25  1  0  0  0  0
 25 29  1  0  0  0  0
 26 28  2  0  0  0  0
 26 29  1  0  0  0  0
 28 30  1  0  0  0  0
 29 27  2  0  0  0  0
 30 27  1  0  0  0  0
 32 31  2  0  0  0  0
M  END
>  <MODEL>
4

>  <REMARK>
 VINA RESULT:      -6.8      4.431      8.205
  Name = 
  4 active torsions:
  status: ('A' for Active; 'I' for Inactive)
    1  A    between atoms: C_8  and  C_28
    2  A    between atoms: C_19  and  C_24
    3  A    between atoms: C_23  and  C_24
    4  A    between atoms: C_25  and  C_26
                            x       y       z     vdW  Elec       q    Type
                         _______ _______ _______ _____ _____    ______ ____

>  <TORSDO>
F 4

$$$$
=
 OpenBabel11052416513D

 32 37  0  0  1  0  0  0  0  0999 V2000
  188.9200  177.8920  142.3080 C   0  0  1  0  0  3  0  0  0  0  0  0
  192.0560  177.0570  145.4120 F   0  0  0  0  0  0  0  0  0  0  0  0
  186.6390  177.4960  143.2500 C   0  0  1  0  0  3  0  0  0  0  0  0
  185.9500  177.9910  141.9660 C   0  0  1  0  0  3  0  0  0  0  0  0
  184.5500  178.4800  144.3520 C   0  0  2  0  0  3  0  0  0  0  0  0
  191.4750  176.6810  144.2440 C   0  0  0  0  0  3  0  0  0  0  0  0
  189.5250  176.1690  142.4670 S   0  0  0  0  0  0  0  0  0  0  0  0
  190.1560  176.4910  144.1010 C   0  0  0  0  0  0  0  0  0  0  0  0
  188.4000  178.1100  144.8750 C   0  0  2  0  0  3  0  0  0  0  0  0
  184.8630  179.7310  143.5420 C   0  0  0  0  0  2  0  0  0  0  0  0
  185.3000  179.3780  142.1170 C   0  0  0  0  0  2  0  0  0  0  0  0
  189.1060  176.7690  145.1460 C   0  0  2  0  0  3  0  0  0  0  0  0
  186.8860  178.2530  145.8830 S   0  0  0  0  0  0  0  0  0  0  0  0
  188.2690  178.0630  140.9430 C   0  0  0  0  0  0  0  0  0  0  0  0
  186.9190  178.0310  140.8050 C   0  0  0  0  0  3  0  0  0  0  0  0
  183.9910  178.8190  145.5700 F   0  0  0  0  0  0  0  0  0  0  0  0
  187.9300  178.2580  143.4310 C   0  0  1  0  0  3  0  0  0  0  0  0
  185.8110  177.6240  144.5350 C   0  0  2  0  0  3  0  0  0  0  0  0
  189.6680  176.0030  138.7990 C   0  0  0  0  0  2  0  0  0  0  0  0
  189.1480  178.1960  139.7010 C   0  0  1  0  0  0  0  0  0  0  0  0
  189.0860  179.4950  139.1900 O   0  0  0  0  0  1  0  0  0  0  0  0
  190.9480  176.5520  139.3950 C   0  0  0  0  0  2  0  0  0  0  0  0
  190.5950  177.8780  140.0560 C   0  0  0  0  0  2  0  0  0  0  0  0
  188.7910  177.2150  138.5820 C   0  0  2  0  0  3  0  0  0  0  0  0
  187.3070  176.8590  138.4820 C   0  0  0  0  0  2  0  0  0  0  0  0
  187.4260  177.9830  136.2110 C   0  0  0  0  0  3  0  0  0  0  0  0
  185.6920  176.4510  136.6440 N   0  0  0  0  0  0  0  0  0  0  0  0
  186.8050  178.0830  134.9680 C   0  0  0  0  0  3  0  0  0  0  0  0
  186.7990  177.0840  137.1000 C   0  0  0  0  0  0  0  0  0  0  0  0
  185.5160  177.0320  135.1020 S   0  0  0  0  0  0  0  0  0  0  0  0
  189.6320  177.5440  147.4600 C   0  0  0  0  0  2  0  0  0  0  0  0
  189.5220  176.5480  146.5800 C   0  0  0  0  0  3  0  0  0  0  0  0
  1 14  1  6  0  0  0
  1  7  1  0  0  0  0
  1 17  1  0  0  0  0
  3 17  1  0  0  0  0
  3 18  1  0  0  0  0
  4 11  1  0  0  0  0
  4  3  1  0  0  0  0
  5 18  1  0  0  0  0
  5 16  1  0  0  0  0
  6  2  1  0  0  0  0
  7  8  1  0  0  0  0
  8  6  2  0  0  0  0
  8 12  1  0  0  0  0
  9 12  1  0  0  0  0
  9 13  1  0  0  0  0
 10  5  1  0  0  0  0
 11 10  1  0  0  0  0
 12 32  1  0  0  0  0
 15 14  2  0  0  0  0
 15  4  1  0  0  0  0
 17  9  1  0  0  0  0
 18 13  1  0  0  0  0
 19 22  1  0  0  0  0
 20 23  1  0  0  0  0
 20 14  1  0  0  0  0
 21 20  1  0  0  0  0
 22 23  1  0  0  0  0
 24 19  1  0  0  0  0
 24 20  1  0  0  0  0
 25 24  1  0  0  0  0
 26 29  1  0  0  0  0
 27 29  2  0  0  0  0
 28 30  1  0  0  0  0
 28 26  2  0  0  0  0
 29 25  1  0  0  0  0
 30 27  1  0  0  0  0
 32 31  2  0  0  0  0
M  END
>  <MODEL>
5

>  <REMARK>
 VINA RESULT:      -6.8      3.575      7.293
  Name = 
  4 active torsions:
  status: ('A' for Active; 'I' for Inactive)
    1  A    between atoms: C_8  and  C_28
    2  A    between atoms: C_19  and  C_24
    3  A    between atoms: C_23  and  C_24
    4  A    between atoms: C_25  and  C_26
                            x       y       z     vdW  Elec       q    Type
                         _______ _______ _______ _____ _____    ______ ____

>  <TORSDO>
F 4

$$$$
=
 OpenBabel11052416513D

 32 37  0  0  1  0  0  0  0  0999 V2000
  183.6920  177.1090  137.5350 C   0  0  1  0  0  3  0  0  0  0  0  0
  180.4810  174.3050  136.1210 F   0  0  0  0  0  0  0  0  0  0  0  0
  185.9490  176.0990  137.1660 C   0  0  1  0  0  3  0  0  0  0  0  0
  186.6690  177.3710  137.6490 C   0  0  1  0  0  3  0  0  0  0  0  0
  188.0140  175.9000  135.6690 C   0  0  2  0  0  3  0  0  0  0  0  0
  181.0880  174.9100  137.1740 C   0  0  0  0  0  3  0  0  0  0  0  0
  183.0790  175.8490  138.7160 S   0  0  0  0  0  0  0  0  0  0  0  0
  182.4100  174.8630  137.3920 C   0  0  0  0  0  0  0  0  0  0  0  0
  184.1510  175.3380  135.6470 C   0  0  2  0  0  3  0  0  0  0  0  0
  187.7240  177.3440  135.2860 C   0  0  0  0  0  2  0  0  0  0  0  0
  187.3200  178.1750  136.5080 C   0  0  0  0  0  2  0  0  0  0  0  0
  183.4360  174.2530  136.4720 C   0  0  2  0  0  3  0  0  0  0  0  0
  185.6420  174.6560  134.8460 S   0  0  0  0  0  0  0  0  0  0  0  0
  184.3760  178.2240  138.3120 C   0  0  0  0  0  0  0  0  0  0  0  0
  185.7290  178.2790  138.4090 C   0  0  0  0  0  3  0  0  0  0  0  0
  188.5440  175.2100  134.5940 F   0  0  0  0  0  0  0  0  0  0  0  0
  184.6560  176.5000  136.4980 C   0  0  1  0  0  3  0  0  0  0  0  0
  186.7470  175.2150  136.2000 C   0  0  2  0  0  3  0  0  0  0  0  0
  181.8370  178.1390  140.3970 C   0  0  0  0  0  2  0  0  0  0  0  0
  183.5280  179.2530  139.0570 C   0  0  1  0  0  0  0  0  0  0  0  0
  184.1760  180.4900  139.0970 O   0  0  0  0  0  1  0  0  0  0  0  0
  181.1170  178.8190  139.2510 C   0  0  0  0  0  2  0  0  0  0  0  0
  182.1870  179.4240  138.3520 C   0  0  0  0  0  2  0  0  0  0  0  0
  183.1720  178.8430  140.4880 C   0  0  2  0  0  3  0  0  0  0  0  0
  184.2330  178.0060  141.2040 C   0  0  0  0  0  2  0  0  0  0  0  0
  185.4930  178.2450  143.3930 C   0  0  0  0  0  3  0  0  0  0  0  0
  183.1990  178.7690  143.3260 N   0  0  0  0  0  0  0  0  0  0  0  0
  185.3650  178.5920  144.7350 C   0  0  0  0  0  3  0  0  0  0  0  0
  184.2970  178.3550  142.6510 C   0  0  0  0  0  0  0  0  0  0  0  0
  183.7530  179.0040  144.8700 S   0  0  0  0  0  0  0  0  0  0  0  0
  183.0450  171.8060  136.1630 C   0  0  0  0  0  2  0  0  0  0  0  0
  182.9850  173.0480  135.6820 C   0  0  0  0  0  3  0  0  0  0  0  0
  1 14  1  1  0  0  0
  1  7  1  0  0  0  0
  2  6  1  0  0  0  0
  3  4  1  0  0  0  0
  4 15  1  0  0  0  0
  5 18  1  0  0  0  0
  6  8  2  0  0  0  0
  8  7  1  0  0  0  0
  9 12  1  0  0  0  0
  9 17  1  0  0  0  0
 10  5  1  0  0  0  0
 10 11  1  0  0  0  0
 11  4  1  0  0  0  0
 12  8  1  0  0  0  0
 13  9  1  0  0  0  0
 13 18  1  0  0  0  0
 14 15  2  0  0  0  0
 14 20  1  0  0  0  0
 16  5  1  0  0  0  0
 17  3  1  0  0  0  0
 17  1  1  0  0  0  0
 18  3  1  0  0  0  0
 19 24  1  0  0  0  0
 20 21  1  0  0  0  0
 20 24  1  0  0  0  0
 22 19  1  0  0  0  0
 23 20  1  0  0  0  0
 23 22  1  0  0  0  0
 24 25  1  0  0  0  0
 25 29  1  0  0  0  0
 26 28  2  0  0  0  0
 27 30  1  0  0  0  0
 28 30  1  0  0  0  0
 29 27  2  0  0  0  0
 29 26  1  0  0  0  0
 32 31  2  0  0  0  0
 32 12  1  0  0  0  0
M  END
>  <MODEL>
6

>  <REMARK>
 VINA RESULT:      -6.7      4.375      7.070
  Name = 
  4 active torsions:
  status: ('A' for Active; 'I' for Inactive)
    1  A    between atoms: C_8  and  C_28
    2  A    between atoms: C_19  and  C_24
    3  A    between atoms: C_23  and  C_24
    4  A    between atoms: C_25  and  C_26
                            x       y       z     vdW  Elec       q    Type
                         _______ _______ _______ _____ _____    ______ ____

>  <TORSDO>
F 4

$$$$
=
 OpenBabel11052416513D

 32 37  0  0  1  0  0  0  0  0999 V2000
  187.5400  177.4230  142.1600 C   0  0  1  0  0  3  0  0  0  0  0  0
  185.7810  177.6450  138.0340 F   0  0  0  0  0  0  0  0  0  0  0  0
  186.2420  178.8660  143.7360 C   0  0  1  0  0  3  0  0  0  0  0  0
  187.0730  178.4060  144.9460 C   0  0  1  0  0  3  0  0  0  0  0  0
  184.3910  179.0340  145.4930 C   0  0  2  0  0  3  0  0  0  0  0  0
  186.8220  177.9480  138.8510 C   0  0  0  0  0  3  0  0  0  0  0  0
  188.1190  178.7680  141.0570 S   0  0  0  0  0  0  0  0  0  0  0  0
  186.6840  178.5960  140.0160 C   0  0  0  0  0  0  0  0  0  0  0  0
  185.0030  177.9940  141.7810 C   0  0  2  0  0  3  0  0  0  0  0  0
  184.7900  177.6150  145.8710 C   0  0  0  0  0  2  0  0  0  0  0  0
  186.3130  177.4480  145.8810 C   0  0  0  0  0  2  0  0  0  0  0  0
  185.3790  178.9840  140.6620 C   0  0  2  0  0  3  0  0  0  0  0  0
  183.6590  178.6730  142.8120 S   0  0  0  0  0  0  0  0  0  0  0  0
  188.5610  177.2200  143.2700 C   0  0  0  0  0  0  0  0  0  0  0  0
  188.3590  177.7390  144.5080 C   0  0  0  0  0  3  0  0  0  0  0  0
  183.0300  179.2150  145.6590 F   0  0  0  0  0  0  0  0  0  0  0  0
  186.1490  177.7250  142.7510 C   0  0  1  0  0  3  0  0  0  0  0  0
  184.8250  179.3550  144.0560 C   0  0  2  0  0  3  0  0  0  0  0  0
  191.6910  178.0750  142.7500 C   0  0  0  0  0  2  0  0  0  0  0  0
  189.8670  176.4880  142.9670 C   0  0  1  0  0  0  0  0  0  0  0  0
  189.7580  175.1330  143.2880 O   0  0  0  0  0  1  0  0  0  0  0  0
  191.4130  177.5270  141.3650 C   0  0  0  0  0  2  0  0  0  0  0  0
  190.1990  176.6160  141.4850 C   0  0  0  0  0  2  0  0  0  0  0  0
  191.0830  177.0640  143.6960 C   0  0  2  0  0  3  0  0  0  0  0  0
  190.7920  177.6500  145.0780 C   0  0  0  0  0  2  0  0  0  0  0  0
  192.0180  175.5820  145.8900 C   0  0  0  0  0  3  0  0  0  0  0  0
  191.5560  177.3150  147.4150 N   0  0  0  0  0  0  0  0  0  0  0  0
  192.5910  174.9760  147.0040 C   0  0  0  0  0  3  0  0  0  0  0  0
  191.4670  176.8570  146.1440 C   0  0  0  0  0  0  0  0  0  0  0  0
  192.3470  176.0990  148.2150 S   0  0  0  0  0  0  0  0  0  0  0  0
  183.2160  178.5260  139.5010 C   0  0  0  0  0  2  0  0  0  0  0  0
  184.2520  179.3370  139.7210 C   0  0  0  0  0  3  0  0  0  0  0  0
  1  7  1  6  0  0  0
  1 17  1  0  0  0  0
  1 14  1  0  0  0  0
  2  6  1  0  0  0  0
  3 18  1  0  0  0  0
  3  4  1  0  0  0  0
  4 11  1  0  0  0  0
  5 16  1  0  0  0  0
  5 10  1  0  0  0  0
  6  8  2  0  0  0  0
  8 12  1  0  0  0  0
  8  7  1  0  0  0  0
  9 17  1  0  0  0  0
  9 13  1  0  0  0  0
 10 11  1  0  0  0  0
 12  9  1  0  0  0  0
 13 18  1  0  0  0  0
 14 15  2  0  0  0  0
 15  4  1  0  0  0  0
 17  3  1  0  0  0  0
 18  5  1  0  0  0  0
 19 24  1  0  0  0  0
 20 14  1  0  0  0  0
 20 21  1  0  0  0  0
 20 24  1  0  0  0  0
 22 23  1  0  0  0  0
 22 19  1  0  0  0  0
 23 20  1  0  0  0  0
 24 25  1  0  0  0  0
 25 29  1  0  0  0  0
 26 29  1  0  0  0  0
 26 28  2  0  0  0  0
 27 30  1  0  0  0  0
 28 30  1  0  0  0  0
 29 27  2  0  0  0  0
 31 32  2  0  0  0  0
 32 12  1  0  0  0  0
M  END
>  <MODEL>
7

>  <REMARK>
 VINA RESULT:      -6.6      3.604      6.620
  Name = 
  4 active torsions:
  status: ('A' for Active; 'I' for Inactive)
    1  A    between atoms: C_8  and  C_28
    2  A    between atoms: C_19  and  C_24
    3  A    between atoms: C_23  and  C_24
    4  A    between atoms: C_25  and  C_26
                            x       y       z     vdW  Elec       q    Type
                         _______ _______ _______ _____ _____    ______ ____

>  <TORSDO>
F 4

$$$$
=
 OpenBabel11052416513D

 32 37  0  0  1  0  0  0  0  0999 V2000
  187.2840  177.7660  140.9160 C   0  0  1  0  0  3  0  0  0  0  0  0
  183.3980  177.8360  143.1670 F   0  0  0  0  0  0  0  0  0  0  0  0
  189.1990  178.1370  142.4790 C   0  0  1  0  0  3  0  0  0  0  0  0
  190.2370  177.9220  141.3630 C   0  0  1  0  0  3  0  0  0  0  0  0
  191.0390  177.1110  143.9300 C   0  0  2  0  0  3  0  0  0  0  0  0
  184.2090  178.4480  142.2670 C   0  0  0  0  0  3  0  0  0  0  0  0
  186.4740  179.3910  141.1710 S   0  0  0  0  0  0  0  0  0  0  0  0
  185.4930  178.7460  142.5100 C   0  0  0  0  0  0  0  0  0  0  0  0
  187.1640  177.1320  143.4640 C   0  0  2  0  0  3  0  0  0  0  0  0
  191.0770  176.0050  142.8850 C   0  0  0  0  0  2  0  0  0  0  0  0
  190.9750  176.5760  141.4660 C   0  0  0  0  0  2  0  0  0  0  0  0
  186.2720  178.3570  143.7410 C   0  0  2  0  0  3  0  0  0  0  0  0
  188.3840  176.9130  144.8030 S   0  0  0  0  0  0  0  0  0  0  0  0
  188.2700  177.8810  139.7630 C   0  0  0  0  0  0  0  0  0  0  0  0
  189.6000  178.0250  139.9950 C   0  0  0  0  0  3  0  0  0  0  0  0
  191.3080  176.6000  145.1860 F   0  0  0  0  0  0  0  0  0  0  0  0
  187.9940  177.2730  142.1910 C   0  0  1  0  0  3  0  0  0  0  0  0
  189.6870  177.8380  143.9010 C   0  0  2  0  0  3  0  0  0  0  0  0
  189.5440  177.4090  136.7710 C   0  0  0  0  0  2  0  0  0  0  0  0
  187.7510  177.9130  138.3270 C   0  0  1  0  0  0  0  0  0  0  0  0
  186.3570  177.8220  138.3050 O   0  0  0  0  0  1  0  0  0  0  0  0
  189.2140  178.8780  136.6050 C   0  0  0  0  0  2  0  0  0  0  0  0
  188.1660  179.2180  137.6570 C   0  0  0  0  0  2  0  0  0  0  0  0
  188.3250  176.8100  137.4360 C   0  0  2  0  0  3  0  0  0  0  0  0
  188.6300  175.4940  138.1510 C   0  0  0  0  0  2  0  0  0  0  0  0
  188.9770  173.3540  136.8330 C   0  0  0  0  0  3  0  0  0  0  0  0
  186.7930  174.1850  137.1170 N   0  0  0  0  0  0  0  0  0  0  0  0
  188.3270  172.3530  136.1150 C   0  0  0  0  0  3  0  0  0  0  0  0
  188.1150  174.3340  137.3700 C   0  0  0  0  0  0  0  0  0  0  0  0
  186.7200  172.7970  136.2160 S   0  0  0  0  0  0  0  0  0  0  0  0
  185.6110  179.2050  145.9940 C   0  0  0  0  0  2  0  0  0  0  0  0
  185.4880  178.2930  145.0290 C   0  0  0  0  0  3  0  0  0  0  0  0
  1 14  1  6  0  0  0
  1  7  1  0  0  0  0
  1 17  1  0  0  0  0
  3 18  1  0  0  0  0
  4 11  1  0  0  0  0
  4  3  1  0  0  0  0
  5 16  1  0  0  0  0
  6  8  2  0  0  0  0
  6  2  1  0  0  0  0
  7  8  1  0  0  0  0
  8 12  1  0  0  0  0
  9 12  1  0  0  0  0
  9 13  1  0  0  0  0
 10  5  1  0  0  0  0
 11 10  1  0  0  0  0
 12 32  1  0  0  0  0
 14 15  2  0  0  0  0
 15  4  1  0  0  0  0
 17  3  1  0  0  0  0
 17  9  1  0  0  0  0
 18  5  1  0  0  0  0
 18 13  1  0  0  0  0
 19 24  1  0  0  0  0
 20 14  1  0  0  0  0
 21 20  1  0  0  0  0
 22 19  1  0  0  0  0
 22 23  1  0  0  0  0
 23 20  1  0  0  0  0
 24 25  1  0  0  0  0
 24 20  1  0  0  0  0
 26 29  1  0  0  0  0
 27 29  2  0  0  0  0
 28 30  1  0  0  0  0
 28 26  2  0  0  0  0
 29 25  1  0  0  0  0
 30 27  1  0  0  0  0
 32 31  2  0  0  0  0
M  END
>  <MODEL>
8

>  <REMARK>
 VINA RESULT:      -6.5      3.639      7.974
  Name = 
  4 active torsions:
  status: ('A' for Active; 'I' for Inactive)
    1  A    between atoms: C_8  and  C_28
    2  A    between atoms: C_19  and  C_24
    3  A    between atoms: C_23  and  C_24
    4  A    between atoms: C_25  and  C_26
                            x       y       z     vdW  Elec       q    Type
                         _______ _______ _______ _____ _____    ______ ____

>  <TORSDO>
F 4

$$$$
=
 OpenBabel11052416513D

 32 37  0  0  1  0  0  0  0  0999 V2000
  183.6250  178.5690  138.5770 C   0  0  1  0  0  3  0  0  0  0  0  0
  187.7360  179.1970  136.8810 F   0  0  0  0  0  0  0  0  0  0  0  0
  183.7750  177.7480  140.9330 C   0  0  1  0  0  3  0  0  0  0  0  0
  182.2480  177.7940  141.1160 C   0  0  1  0  0  3  0  0  0  0  0  0
  183.7570  178.3120  143.4280 C   0  0  2  0  0  3  0  0  0  0  0  0
  186.5890  178.4720  136.8590 C   0  0  0  0  0  3  0  0  0  0  0  0
  184.4520  177.1350  137.7920 S   0  0  0  0  0  0  0  0  0  0  0  0
  186.0490  177.9080  137.9480 C   0  0  0  0  0  0  0  0  0  0  0  0
  185.6810  179.1030  140.1260 C   0  0  2  0  0  3  0  0  0  0  0  0
  182.8000  179.4310  143.0430 C   0  0  0  0  0  2  0  0  0  0  0  0
  181.7740  178.9560  142.0080 C   0  0  0  0  0  2  0  0  0  0  0  0
  186.5390  178.0750  139.3640 C   0  0  2  0  0  3  0  0  0  0  0  0
  186.0110  179.0100  141.9180 S   0  0  0  0  0  0  0  0  0  0  0  0
  182.1280  178.3060  138.6360 C   0  0  0  0  0  0  0  0  0  0  0  0
  181.5380  177.8840  139.7830 C   0  0  0  0  0  3  0  0  0  0  0  0
  184.5580  178.7020  144.4850 F   0  0  0  0  0  0  0  0  0  0  0  0
  184.1820  178.8510  139.9860 C   0  0  1  0  0  3  0  0  0  0  0  0
  184.5980  177.8780  142.2200 C   0  0  2  0  0  3  0  0  0  0  0  0
  179.0510  179.2070  137.9160 C   0  0  0  0  0  2  0  0  0  0  0  0
  181.2880  178.4430  137.3670 C   0  0  1  0  0  0  0  0  0  0  0  0
  182.1080  178.4890  136.2370 O   0  0  0  0  0  1  0  0  0  0  0  0
  178.9310  177.7620  137.4790 C   0  0  0  0  0  2  0  0  0  0  0  0
  180.3460  177.2520  137.2410 C   0  0  0  0  0  2  0  0  0  0  0  0
  180.3770  179.6720  137.3580 C   0  0  2  0  0  3  0  0  0  0  0  0
  180.9300  180.8940  138.0910 C   0  0  0  0  0  2  0  0  0  0  0  0
  180.4100  182.0470  135.8910 C   0  0  0  0  0  3  0  0  0  0  0  0
  181.3090  183.3090  137.6640 N   0  0  0  0  0  0  0  0  0  0  0  0
  180.4510  183.2660  135.2190 C   0  0  0  0  0  3  0  0  0  0  0  0
  180.8790  182.1030  137.2210 C   0  0  0  0  0  0  0  0  0  0  0  0
  181.0820  184.3070  136.3610 S   0  0  0  0  0  0  0  0  0  0  0  0
  188.8750  177.2100  139.5330 C   0  0  0  0  0  2  0  0  0  0  0  0
  188.0290  178.2420  139.5350 C   0  0  0  0  0  3  0  0  0  0  0  0
  1  7  1  1  0  0  0
  1 14  1  0  0  0  0
  1 17  1  0  0  0  0
  3  4  1  0  0  0  0
  3 18  1  0  0  0  0
  4 11  1  0  0  0  0
  5 16  1  0  0  0  0
  6  2  1  0  0  0  0
  6  8  2  0  0  0  0
  7  8  1  0  0  0  0
  8 12  1  0  0  0  0
  9 13  1  0  0  0  0
 10  5  1  0  0  0  0
 11 10  1  0  0  0  0
 12 32  1  0  0  0  0
 12  9  1  0  0  0  0
 13 18  1  0  0  0  0
 14 15  2  0  0  0  0
 15  4  1  0  0  0  0
 17  9  1  0  0  0  0
 17  3  1  0  0  0  0
 18  5  1  0  0  0  0
 20 14  1  0  0  0  0
 21 20  1  0  0  0  0
 22 19  1  0  0  0  0
 23 20  1  0  0  0  0
 23 22  1  0  0  0  0
 24 20  1  0  0  0  0
 24 19  1  0  0  0  0
 24 25  1  0  0  0  0
 26 29  1  0  0  0  0
 28 26  2  0  0  0  0
 28 30  1  0  0  0  0
 29 27  2  0  0  0  0
 29 25  1  0  0  0  0
 30 27  1  0  0  0  0
 31 32  2  0  0  0  0
M  END
>  <MODEL>
9

>  <REMARK>
 VINA RESULT:      -6.5      5.850      9.021
  Name = 
  4 active torsions:
  status: ('A' for Active; 'I' for Inactive)
    1  A    between atoms: C_8  and  C_28
    2  A    between atoms: C_19  and  C_24
    3  A    between atoms: C_23  and  C_24
    4  A    between atoms: C_25  and  C_26
                            x       y       z     vdW  Elec       q    Type
                         _______ _______ _______ _____ _____    ______ ____

>  <TORSDO>
F 4

$$$$
