=
 OpenBabel11052412533D

 25 28  0  0  1  0  0  0  0  0999 V2000
  189.7810  177.4810  145.1790 C   0  0  2  0  0  0  0  0  0  0  0  0
  188.7990  177.1440  144.0420 C   0  0  1  0  0  3  0  0  0  0  0  0
  191.6400  176.7240  143.3920 C   0  0  0  0  0  2  0  0  0  0  0  0
  189.3010  177.1720  146.6010 C   0  0  0  0  0  2  0  0  0  0  0  0
  192.0450  175.4120  148.1720 N   0  0  0  0  0  1  0  0  0  0  0  0
  190.4750  176.2330  142.5270 C   0  0  0  0  0  2  0  0  0  0  0  0
  191.3840  176.3730  147.3090 C   0  0  2  0  0  3  0  0  0  0  0  0
  189.9840  176.0070  147.1530 N   0  0  0  0  0  2  0  0  0  0  0  0
  188.1420  177.0090  141.7990 C   0  0  2  0  0  3  0  0  0  0  0  0
  188.3700  177.4750  140.3660 C   0  0  0  0  0  1  0  0  0  0  0  0
  187.4980  177.9100  143.9950 C   0  0  0  0  0  2  0  0  0  0  0  0
  190.8930  178.5410  145.1290 C   0  0  1  0  0  3  0  0  0  0  0  0
  191.2340  177.0640  144.8490 C   0  0  1  0  0  0  0  0  0  0  0  0
  192.0700  176.3900  145.9470 C   0  0  0  0  0  2  0  0  0  0  0  0
  190.8120  179.4500  143.9070 C   0  0  0  0  0  1  0  0  0  0  0  0
  187.0020  177.7340  142.5540 C   0  0  1  0  0  3  0  0  0  0  0  0
  189.3570  177.2420  142.6560 C   0  0  1  0  0  3  0  0  0  0  0  0
  186.6500  179.1040  141.9710 C   0  0  0  0  0  2  0  0  0  0  0  0
  185.2170  179.1380  141.4660 C   0  0  0  0  0  2  0  0  0  0  0  0
  184.3430  178.1890  142.2700 C   0  0  0  0  0  2  0  0  0  0  0  0
  183.1970  178.9470  142.9220 C   0  0  0  0  0  2  0  0  0  0  0  0
  183.1710  178.7370  144.4310 C   0  0  0  0  0  2  0  0  0  0  0  0
  184.4660  179.2070  145.0820 C   0  0  0  0  0  2  0  0  0  0  0  0
  184.7290  178.4740  146.3870 C   0  0  0  0  0  2  0  0  0  0  0  0
  185.4860  179.2760  147.2410 O   0  0  0  0  0  1  0  0  0  0  0  0
  1  4  1  1  0  0  0
  2 11  1  6  0  0  0
  2  1  1  0  0  0  0
  4  8  1  0  0  0  0
  6  3  1  0  0  0  0
  7  5  1  1  0  0  0
  8  7  1  0  0  0  0
  9 10  1  6  0  0  0
  9 16  1  0  0  0  0
  9 17  1  0  0  0  0
 12 15  1  6  0  0  0
 12  1  1  0  0  0  0
 13  3  1  6  0  0  0
 13 12  1  0  0  0  0
 13  1  1  0  0  0  0
 13 14  1  0  0  0  0
 14  7  1  0  0  0  0
 16 18  1  6  0  0  0
 16 11  1  0  0  0  0
 17  6  1  1  0  0  0
 17  2  1  0  0  0  0
 19 18  1  0  0  0  0
 19 20  1  0  0  0  0
 20 21  1  0  0  0  0
 21 22  1  0  0  0  0
 22 23  1  0  0  0  0
 23 24  1  0  0  0  0
 24 25  1  0  0  0  0
M  END
>  <MODEL>
1

>  <REMARK>
 VINA RESULT:      -7.5      0.000      0.000
  Name = 
  7 active torsions:
  status: ('A' for Active; 'I' for Inactive)
    1  A    between atoms: C_2  and  C_7
    2  A    between atoms: C_2  and  C_25
    3  A    between atoms: C_6  and  C_15
    4  A    between atoms: C_6  and  C_21
    5  A    between atoms: C_15  and  C_20
    6  A    between atoms: C_20  and  C_23
    7  A    between atoms: C_21  and  C_25
                            x       y       z     vdW  Elec       q    Type
                         _______ _______ _______ _____ _____    ______ ____

>  <TORSDO>
F 7

$$$$
=
 OpenBabel11052412533D

 25 28  0  0  1  0  0  0  0  0999 V2000
  189.5330  177.5790  145.7300 C   0  0  2  0  0  0  0  0  0  0  0  0
  188.0650  177.3960  145.3060 C   0  0  1  0  0  3  0  0  0  0  0  0
  190.0510  176.4550  143.3450 C   0  0  0  0  0  2  0  0  0  0  0  0
  189.8340  177.3970  147.2220 C   0  0  0  0  0  2  0  0  0  0  0  0
  192.7160  175.2120  147.3550 N   0  0  0  0  0  1  0  0  0  0  0  0
  188.5500  176.1600  143.2630 C   0  0  0  0  0  2  0  0  0  0  0  0
  191.8430  176.2550  146.8490 C   0  0  2  0  0  3  0  0  0  0  0  0
  190.5340  176.1430  147.4760 N   0  0  0  0  0  2  0  0  0  0  0  0
  186.3180  177.3250  143.7500 C   0  0  2  0  0  3  0  0  0  0  0  0
  185.8220  177.7060  142.3600 C   0  0  0  0  0  1  0  0  0  0  0  0
  187.0560  178.3820  145.8440 C   0  0  0  0  0  2  0  0  0  0  0  0
  190.5900  178.4200  144.9950 C   0  0  1  0  0  3  0  0  0  0  0  0
  190.5220  176.8990  144.7530 C   0  0  1  0  0  0  0  0  0  0  0  0
  191.7050  176.1140  145.3370 C   0  0  0  0  0  2  0  0  0  0  0  0
  190.0070  179.2980  143.8920 C   0  0  0  0  0  1  0  0  0  0  0  0
  185.8580  178.2620  144.8920 C   0  0  1  0  0  3  0  0  0  0  0  0
  187.8200  177.3570  143.8290 C   0  0  1  0  0  3  0  0  0  0  0  0
  185.4490  179.6570  144.4190 C   0  0  0  0  0  2  0  0  0  0  0  0
  184.0600  179.6460  143.8020 C   0  0  0  0  0  2  0  0  0  0  0  0
  183.0850  178.8890  144.6890 C   0  0  0  0  0  2  0  0  0  0  0  0
  181.7190  178.8060  144.0270 C   0  0  0  0  0  2  0  0  0  0  0  0
  181.8260  178.8540  142.5080 C   0  0  0  0  0  2  0  0  0  0  0  0
  180.4520  178.9470  141.8550 C   0  0  0  0  0  2  0  0  0  0  0  0
  179.5430  179.9050  142.6070 C   0  0  0  0  0  2  0  0  0  0  0  0
  179.6020  181.1730  142.0290 O   0  0  0  0  0  1  0  0  0  0  0  0
  1  4  1  1  0  0  0
  2  1  1  0  0  0  0
  2 11  1  6  0  0  0
  4  8  1  0  0  0  0
  6  3  1  0  0  0  0
  7  5  1  1  0  0  0
  7  8  1  0  0  0  0
  9 10  1  6  0  0  0
  9 17  1  0  0  0  0
  9 16  1  0  0  0  0
 12 15  1  6  0  0  0
 12  1  1  0  0  0  0
 13  3  1  6  0  0  0
 13 12  1  0  0  0  0
 13 14  1  0  0  0  0
 13  1  1  0  0  0  0
 14  7  1  0  0  0  0
 16 18  1  6  0  0  0
 16 11  1  0  0  0  0
 17  6  1  1  0  0  0
 17  2  1  0  0  0  0
 19 18  1  0  0  0  0
 19 20  1  0  0  0  0
 21 20  1  0  0  0  0
 22 21  1  0  0  0  0
 23 22  1  0  0  0  0
 23 24  1  0  0  0  0
 25 24  1  0  0  0  0
M  END
>  <MODEL>
2

>  <REMARK>
 VINA RESULT:      -6.9      2.160      2.921
  Name = 
  7 active torsions:
  status: ('A' for Active; 'I' for Inactive)
    1  A    between atoms: C_2  and  C_7
    2  A    between atoms: C_2  and  C_25
    3  A    between atoms: C_6  and  C_15
    4  A    between atoms: C_6  and  C_21
    5  A    between atoms: C_15  and  C_20
    6  A    between atoms: C_20  and  C_23
    7  A    between atoms: C_21  and  C_25
                            x       y       z     vdW  Elec       q    Type
                         _______ _______ _______ _____ _____    ______ ____

>  <TORSDO>
F 7

$$$$
=
 OpenBabel11052412533D

 25 28  0  0  1  0  0  0  0  0999 V2000
  189.7880  177.4870  145.2230 C   0  0  2  0  0  0  0  0  0  0  0  0
  188.7750  177.1520  144.1140 C   0  0  1  0  0  3  0  0  0  0  0  0
  191.5980  176.7450  143.3800 C   0  0  0  0  0  2  0  0  0  0  0  0
  189.3500  177.1690  146.6570 C   0  0  0  0  0  2  0  0  0  0  0  0
  192.1450  175.4120  148.1400 N   0  0  0  0  0  1  0  0  0  0  0  0
  190.4110  176.2540  142.5470 C   0  0  0  0  0  2  0  0  0  0  0  0
  191.4560  176.3750  147.3010 C   0  0  2  0  0  3  0  0  0  0  0  0
  190.0530  176.0050  147.1830 N   0  0  0  0  0  2  0  0  0  0  0  0
  188.0550  177.0250  141.8890 C   0  0  2  0  0  3  0  0  0  0  0  0
  188.2400  177.4980  140.4530 C   0  0  0  0  0  1  0  0  0  0  0  0
  187.4700  177.9130  144.1070 C   0  0  0  0  0  2  0  0  0  0  0  0
  190.8950  178.5520  145.1460 C   0  0  1  0  0  3  0  0  0  0  0  0
  191.2330  177.0770  144.8500 C   0  0  1  0  0  0  0  0  0  0  0  0
  192.1020  176.4010  145.9200 C   0  0  0  0  0  2  0  0  0  0  0  0
  190.7750  179.4660  143.9320 C   0  0  0  0  0  1  0  0  0  0  0  0
  186.9340  177.7420  142.6800 C   0  0  1  0  0  3  0  0  0  0  0  0
  189.2930  177.2580  142.7120 C   0  0  1  0  0  3  0  0  0  0  0  0
  186.5610  179.1130  142.1140 C   0  0  0  0  0  2  0  0  0  0  0  0
  185.1830  179.0900  141.4720 C   0  0  0  0  0  2  0  0  0  0  0  0
  184.1750  178.4220  142.3930 C   0  0  0  0  0  2  0  0  0  0  0  0
  184.0590  179.1900  143.7000 C   0  0  0  0  0  2  0  0  0  0  0  0
  182.7000  178.9810  144.3570 C   0  0  0  0  0  2  0  0  0  0  0  0
  181.5790  178.9620  143.3250 C   0  0  0  0  0  2  0  0  0  0  0  0
  180.2580  178.5430  143.9480 C   0  0  0  0  0  2  0  0  0  0  0  0
  179.5730  177.6860  143.0870 O   0  0  0  0  0  1  0  0  0  0  0  0
  1  4  1  1  0  0  0
  2 11  1  6  0  0  0
  2  1  1  0  0  0  0
  4  8  1  0  0  0  0
  6  3  1  0  0  0  0
  7  5  1  1  0  0  0
  8  7  1  0  0  0  0
  9 10  1  6  0  0  0
  9 16  1  0  0  0  0
  9 17  1  0  0  0  0
 12 15  1  6  0  0  0
 12  1  1  0  0  0  0
 13  3  1  6  0  0  0
 13 12  1  0  0  0  0
 13  1  1  0  0  0  0
 13 14  1  0  0  0  0
 14  7  1  0  0  0  0
 16 18  1  6  0  0  0
 16 11  1  0  0  0  0
 17  6  1  6  0  0  0
 17  2  1  0  0  0  0
 19 18  1  0  0  0  0
 19 20  1  0  0  0  0
 20 21  1  0  0  0  0
 21 22  1  0  0  0  0
 23 24  1  0  0  0  0
 23 22  1  0  0  0  0
 25 24  1  0  0  0  0
M  END
>  <MODEL>
3

>  <REMARK>
 VINA RESULT:      -6.8      1.652      1.940
  Name = 
  7 active torsions:
  status: ('A' for Active; 'I' for Inactive)
    1  A    between atoms: C_2  and  C_7
    2  A    between atoms: C_2  and  C_25
    3  A    between atoms: C_6  and  C_15
    4  A    between atoms: C_6  and  C_21
    5  A    between atoms: C_15  and  C_20
    6  A    between atoms: C_20  and  C_23
    7  A    between atoms: C_21  and  C_25
                            x       y       z     vdW  Elec       q    Type
                         _______ _______ _______ _____ _____    ______ ____

>  <TORSDO>
F 7

$$$$
=
 OpenBabel11052412533D

 25 28  0  0  1  0  0  0  0  0999 V2000
  189.0020  177.9040  144.1890 C   0  0  2  0  0  0  0  0  0  0  0  0
  188.9070  177.2880  142.7820 C   0  0  1  0  0  3  0  0  0  0  0  0
  191.2670  176.4660  144.3400 C   0  0  0  0  0  2  0  0  0  0  0  0
  187.6740  178.1140  144.9270 C   0  0  0  0  0  2  0  0  0  0  0  0
  188.2010  176.7650  148.2430 N   0  0  0  0  0  1  0  0  0  0  0  0
  190.8260  175.8080  143.0280 C   0  0  0  0  0  2  0  0  0  0  0  0
  188.5260  177.4370  146.9990 C   0  0  2  0  0  3  0  0  0  0  0  0
  187.5040  177.1470  146.0050 N   0  0  0  0  0  2  0  0  0  0  0  0
  189.7990  176.4760  140.7760 C   0  0  2  0  0  3  0  0  0  0  0  0
  190.9930  176.4280  139.8290 C   0  0  0  0  0  1  0  0  0  0  0  0
  188.2010  178.0920  141.7150 C   0  0  0  0  0  2  0  0  0  0  0  0
  190.1360  178.8030  144.7090 C   0  0  1  0  0  3  0  0  0  0  0  0
  190.1520  177.2940  145.0270 C   0  0  1  0  0  0  0  0  0  0  0  0
  189.8840  176.9560  146.5010 C   0  0  0  0  0  2  0  0  0  0  0  0
  191.0940  179.2650  143.6170 C   0  0  0  0  0  1  0  0  0  0  0  0
  188.6960  177.4910  140.3930 C   0  0  1  0  0  3  0  0  0  0  0  0
  190.2100  176.8840  142.1640 C   0  0  1  0  0  3  0  0  0  0  0  0
  189.1830  178.6170  139.4800 C   0  0  0  0  0  2  0  0  0  0  0  0
  188.4680  178.5900  138.1390 C   0  0  0  0  0  2  0  0  0  0  0  0
  187.9320  177.1980  137.8450 C   0  0  0  0  0  2  0  0  0  0  0  0
  186.4990  177.2760  137.3430 C   0  0  0  0  0  2  0  0  0  0  0  0
  185.7340  178.4170  138.0020 C   0  0  0  0  0  2  0  0  0  0  0  0
  184.4220  177.9330  138.6060 C   0  0  0  0  0  2  0  0  0  0  0  0
  184.1210  178.6370  139.9190 C   0  0  0  0  0  2  0  0  0  0  0  0
  185.1190  179.5700  140.2000 O   0  0  0  0  0  1  0  0  0  0  0  0
  1 12  1  0  0  0  0
  1  4  1  1  0  0  0
  1 13  1  0  0  0  0
  2 11  1  6  0  0  0
  2  1  1  0  0  0  0
  4  8  1  0  0  0  0
  6  3  1  0  0  0  0
  7  5  1  1  0  0  0
  8  7  1  0  0  0  0
  9 10  1  6  0  0  0
  9 17  1  0  0  0  0
 12 15  1  6  0  0  0
 12 13  1  0  0  0  0
 13  3  1  6  0  0  0
 13 14  1  0  0  0  0
 14  7  1  0  0  0  0
 16 18  1  6  0  0  0
 16  9  1  0  0  0  0
 16 11  1  0  0  0  0
 17  2  1  0  0  0  0
 17  6  1  1  0  0  0
 19 18  1  0  0  0  0
 20 19  1  0  0  0  0
 21 20  1  0  0  0  0
 21 22  1  0  0  0  0
 22 23  1  0  0  0  0
 23 24  1  0  0  0  0
 24 25  1  0  0  0  0
M  END
>  <MODEL>
4

>  <REMARK>
 VINA RESULT:      -6.7      2.478      3.885
  Name = 
  7 active torsions:
  status: ('A' for Active; 'I' for Inactive)
    1  A    between atoms: C_2  and  C_7
    2  A    between atoms: C_2  and  C_25
    3  A    between atoms: C_6  and  C_15
    4  A    between atoms: C_6  and  C_21
    5  A    between atoms: C_15  and  C_20
    6  A    between atoms: C_20  and  C_23
    7  A    between atoms: C_21  and  C_25
                            x       y       z     vdW  Elec       q    Type
                         _______ _______ _______ _____ _____    ______ ____

>  <TORSDO>
F 7

$$$$
=
 OpenBabel11052412533D

 25 28  0  0  1  0  0  0  0  0999 V2000
  189.0240  177.8890  144.1980 C   0  0  2  0  0  0  0  0  0  0  0  0
  188.8850  177.2900  142.7870 C   0  0  1  0  0  3  0  0  0  0  0  0
  191.2800  176.4300  144.2690 C   0  0  0  0  0  2  0  0  0  0  0  0
  187.7190  178.1030  144.9740 C   0  0  0  0  0  2  0  0  0  0  0  0
  188.3250  176.7120  148.2590 N   0  0  0  0  0  1  0  0  0  0  0  0
  190.7960  175.7900  142.9630 C   0  0  0  0  0  2  0  0  0  0  0  0
  188.6220  177.3960  147.0140 C   0  0  2  0  0  3  0  0  0  0  0  0
  187.5700  177.1250  146.0450 N   0  0  0  0  0  2  0  0  0  0  0  0
  189.7140  176.4920  140.7480 C   0  0  2  0  0  3  0  0  0  0  0  0
  190.8800  176.4450  139.7680 C   0  0  0  0  0  1  0  0  0  0  0  0
  188.1570  178.1120  141.7490 C   0  0  0  0  0  2  0  0  0  0  0  0
  190.1800  178.7720  144.6960 C   0  0  1  0  0  3  0  0  0  0  0  0
  190.1910  177.2600  144.9960 C   0  0  1  0  0  0  0  0  0  0  0  0
  189.9610  176.9070  146.4730 C   0  0  0  0  0  2  0  0  0  0  0  0
  191.1120  179.2380  143.5820 C   0  0  0  0  0  1  0  0  0  0  0  0
  188.6090  177.5220  140.4070 C   0  0  1  0  0  3  0  0  0  0  0  0
  190.1670  176.8820  142.1290 C   0  0  1  0  0  3  0  0  0  0  0  0
  189.0820  178.6530  139.4930 C   0  0  0  0  0  2  0  0  0  0  0  0
  188.3200  178.6560  138.1770 C   0  0  0  0  0  2  0  0  0  0  0  0
  189.2830  178.6480  137.0010 C   0  0  0  0  0  2  0  0  0  0  0  0
  189.3970  177.2490  136.4170 C   0  0  0  0  0  2  0  0  0  0  0  0
  188.0910  176.4760  136.5510 C   0  0  0  0  0  2  0  0  0  0  0  0
  188.3100  175.1220  137.2140 C   0  0  0  0  0  2  0  0  0  0  0  0
  189.4480  174.3590  136.5570 C   0  0  0  0  0  2  0  0  0  0  0  0
  190.2600  173.7770  137.5310 O   0  0  0  0  0  1  0  0  0  0  0  0
  1 12  1  0  0  0  0
  1  4  1  1  0  0  0
  1 13  1  0  0  0  0
  2 11  1  6  0  0  0
  2  1  1  0  0  0  0
  4  8  1  0  0  0  0
  6  3  1  0  0  0  0
  7  5  1  1  0  0  0
  8  7  1  0  0  0  0
  9 10  1  6  0  0  0
  9 17  1  0  0  0  0
 12 15  1  6  0  0  0
 12 13  1  0  0  0  0
 13  3  1  6  0  0  0
 13 14  1  0  0  0  0
 14  7  1  0  0  0  0
 16 18  1  6  0  0  0
 16  9  1  0  0  0  0
 16 11  1  0  0  0  0
 17  2  1  0  0  0  0
 17  6  1  1  0  0  0
 19 18  1  0  0  0  0
 20 19  1  0  0  0  0
 21 22  1  0  0  0  0
 21 20  1  0  0  0  0
 22 23  1  0  0  0  0
 24 23  1  0  0  0  0
 24 25  1  0  0  0  0
M  END
>  <MODEL>
5

>  <REMARK>
 VINA RESULT:      -6.5      3.350      5.340
  Name = 
  7 active torsions:
  status: ('A' for Active; 'I' for Inactive)
    1  A    between atoms: C_2  and  C_7
    2  A    between atoms: C_2  and  C_25
    3  A    between atoms: C_6  and  C_15
    4  A    between atoms: C_6  and  C_21
    5  A    between atoms: C_15  and  C_20
    6  A    between atoms: C_20  and  C_23
    7  A    between atoms: C_21  and  C_25
                            x       y       z     vdW  Elec       q    Type
                         _______ _______ _______ _____ _____    ______ ____

>  <TORSDO>
F 7

$$$$
=
 OpenBabel11052412533D

 25 28  0  0  1  0  0  0  0  0999 V2000
  189.0270  177.5520  142.2850 C   0  0  2  0  0  0  0  0  0  0  0  0
  189.3500  178.0680  143.6990 C   0  0  1  0  0  3  0  0  0  0  0  0
  191.6930  177.2680  142.1050 C   0  0  0  0  0  2  0  0  0  0  0  0
  187.8500  178.2270  141.5710 C   0  0  0  0  0  2  0  0  0  0  0  0
  189.0710  179.0120  138.2560 N   0  0  0  0  0  1  0  0  0  0  0  0
  191.7710  178.0340  143.4290 C   0  0  0  0  0  2  0  0  0  0  0  0
  188.9180  178.2620  139.4890 C   0  0  2  0  0  3  0  0  0  0  0  0
  188.3090  179.1080  140.5040 N   0  0  0  0  0  2  0  0  0  0  0  0
  190.5730  178.1120  145.6950 C   0  0  2  0  0  3  0  0  0  0  0  0
  191.5450  177.3900  146.6190 C   0  0  0  0  0  1  0  0  0  0  0  0
  188.3070  177.8600  144.7720 C   0  0  0  0  0  2  0  0  0  0  0  0
  189.3490  176.1510  141.7380 C   0  0  1  0  0  3  0  0  0  0  0  0
  190.2980  177.3270  141.4320 C   0  0  1  0  0  0  0  0  0  0  0  0
  190.2860  177.7840  139.9660 C   0  0  0  0  0  2  0  0  0  0  0  0
  189.8210  175.1740  142.8090 C   0  0  0  0  0  1  0  0  0  0  0  0
  189.0810  177.9990  146.0900 C   0  0  1  0  0  3  0  0  0  0  0  0
  190.6260  177.5610  144.2960 C   0  0  1  0  0  3  0  0  0  0  0  0
  188.7700  176.7980  146.9850 C   0  0  0  0  0  2  0  0  0  0  0  0
  188.0510  177.2270  148.2550 C   0  0  0  0  0  2  0  0  0  0  0  0
  187.2920  178.5240  148.0280 C   0  0  0  0  0  2  0  0  0  0  0  0
  185.9270  178.2420  147.4210 C   0  0  0  0  0  2  0  0  0  0  0  0
  185.5840  179.2390  146.3210 C   0  0  0  0  0  2  0  0  0  0  0  0
  184.4300  178.7430  145.4590 C   0  0  0  0  0  2  0  0  0  0  0  0
  184.7190  178.9330  143.9790 C   0  0  0  0  0  2  0  0  0  0  0  0
  183.5920  178.6090  143.2260 O   0  0  0  0  0  1  0  0  0  0  0  0
  1  4  1  6  0  0  0
  1  2  1  0  0  0  0
  2 17  1  0  0  0  0
  2 11  1  1  0  0  0
  3  6  1  0  0  0  0
  7  5  1  6  0  0  0
  7 14  1  0  0  0  0
  7  8  1  0  0  0  0
  8  4  1  0  0  0  0
  9 16  1  0  0  0  0
  9 10  1  1  0  0  0
 11 16  1  0  0  0  0
 12  1  1  0  0  0  0
 12 15  1  1  0  0  0
 13 14  1  6  0  0  0
 13 12  1  0  0  0  0
 13  3  1  0  0  0  0
 13  1  1  0  0  0  0
 16 18  1  1  0  0  0
 17  6  1  6  0  0  0
 17  9  1  0  0  0  0
 18 19  1  0  0  0  0
 20 19  1  0  0  0  0
 21 20  1  0  0  0  0
 22 21  1  0  0  0  0
 23 22  1  0  0  0  0
 24 23  1  0  0  0  0
 25 24  1  0  0  0  0
M  END
>  <MODEL>
6

>  <REMARK>
 VINA RESULT:      -6.5      2.884      5.218
  Name = 
  7 active torsions:
  status: ('A' for Active; 'I' for Inactive)
    1  A    between atoms: C_2  and  C_7
    2  A    between atoms: C_2  and  C_25
    3  A    between atoms: C_6  and  C_15
    4  A    between atoms: C_6  and  C_21
    5  A    between atoms: C_15  and  C_20
    6  A    between atoms: C_20  and  C_23
    7  A    between atoms: C_21  and  C_25
                            x       y       z     vdW  Elec       q    Type
                         _______ _______ _______ _____ _____    ______ ____

>  <TORSDO>
F 7

$$$$
=
 OpenBabel11052412533D

 25 28  0  0  1  0  0  0  0  0999 V2000
  189.7680  177.5320  145.1770 C   0  0  2  0  0  0  0  0  0  0  0  0
  188.7710  177.2000  144.0520 C   0  0  1  0  0  3  0  0  0  0  0  0
  191.5990  176.7190  143.3860 C   0  0  0  0  0  2  0  0  0  0  0  0
  189.2940  177.2490  146.6070 C   0  0  0  0  0  2  0  0  0  0  0  0
  192.0170  175.4570  148.1770 N   0  0  0  0  0  1  0  0  0  0  0  0
  190.4180  176.2390  142.5360 C   0  0  0  0  0  2  0  0  0  0  0  0
  191.3670  176.4200  147.3080 C   0  0  2  0  0  3  0  0  0  0  0  0
  189.9590  176.0790  147.1670 N   0  0  0  0  0  2  0  0  0  0  0  0
  188.0940  177.0500  141.8160 C   0  0  2  0  0  3  0  0  0  0  0  0
  188.3190  177.4940  140.3760 C   0  0  0  0  0  1  0  0  0  0  0  0
  187.4840  177.9890  144.0060 C   0  0  0  0  0  2  0  0  0  0  0  0
  190.8990  178.5710  145.1060 C   0  0  1  0  0  3  0  0  0  0  0  0
  191.2110  177.0840  144.8410 C   0  0  1  0  0  0  0  0  0  0  0  0
  192.0420  176.4080  145.9410 C   0  0  0  0  0  2  0  0  0  0  0  0
  190.8250  179.4660  143.8730 C   0  0  0  0  0  1  0  0  0  0  0  0
  186.9740  177.8050  142.5700 C   0  0  1  0  0  3  0  0  0  0  0  0
  189.3200  177.2700  142.6610 C   0  0  1  0  0  3  0  0  0  0  0  0
  186.6430  179.1740  141.9740 C   0  0  0  0  0  2  0  0  0  0  0  0
  185.2950  179.1600  141.2710 C   0  0  0  0  0  2  0  0  0  0  0  0
  184.2480  178.4760  142.1350 C   0  0  0  0  0  2  0  0  0  0  0  0
  182.9930  178.1940  141.3250 C   0  0  0  0  0  2  0  0  0  0  0  0
  183.3260  177.6360  139.9470 C   0  0  0  0  0  2  0  0  0  0  0  0
  182.5900  176.3280  139.6820 C   0  0  0  0  0  2  0  0  0  0  0  0
  183.1030  175.6480  138.4230 C   0  0  0  0  0  2  0  0  0  0  0  0
  184.1050  176.4200  137.8360 O   0  0  0  0  0  1  0  0  0  0  0  0
  1  4  1  1  0  0  0
  2 11  1  6  0  0  0
  2  1  1  0  0  0  0
  4  8  1  0  0  0  0
  6  3  1  0  0  0  0
  7  5  1  1  0  0  0
  8  7  1  0  0  0  0
  9 10  1  6  0  0  0
  9 16  1  0  0  0  0
  9 17  1  0  0  0  0
 12 15  1  6  0  0  0
 12  1  1  0  0  0  0
 13  3  1  6  0  0  0
 13 12  1  0  0  0  0
 13  1  1  0  0  0  0
 13 14  1  0  0  0  0
 14  7  1  0  0  0  0
 16 18  1  6  0  0  0
 16 11  1  0  0  0  0
 17  6  1  1  0  0  0
 17  2  1  0  0  0  0
 19 18  1  0  0  0  0
 19 20  1  0  0  0  0
 21 20  1  0  0  0  0
 22 21  1  0  0  0  0
 23 22  1  0  0  0  0
 24 23  1  0  0  0  0
 25 24  1  0  0  0  0
M  END
>  <MODEL>
7

>  <REMARK>
 VINA RESULT:      -6.1      2.402      3.087
  Name = 
  7 active torsions:
  status: ('A' for Active; 'I' for Inactive)
    1  A    between atoms: C_2  and  C_7
    2  A    between atoms: C_2  and  C_25
    3  A    between atoms: C_6  and  C_15
    4  A    between atoms: C_6  and  C_21
    5  A    between atoms: C_15  and  C_20
    6  A    between atoms: C_20  and  C_23
    7  A    between atoms: C_21  and  C_25
                            x       y       z     vdW  Elec       q    Type
                         _______ _______ _______ _____ _____    ______ ____

>  <TORSDO>
F 7

$$$$
=
 OpenBabel11052412533D

 25 28  0  0  1  0  0  0  0  0999 V2000
  184.9070  178.6320  143.0930 C   0  0  2  0  0  0  0  0  0  0  0  0
  185.9690  177.7630  143.7910 C   0  0  1  0  0  3  0  0  0  0  0  0
  183.7890  178.6970  145.5360 C   0  0  0  0  0  2  0  0  0  0  0  0
  184.5780  178.2630  141.6430 C   0  0  0  0  0  2  0  0  0  0  0  0
  180.9640  178.1840  141.4760 N   0  0  0  0  0  1  0  0  0  0  0  0
  184.8150  177.6310  145.9320 C   0  0  0  0  0  2  0  0  0  0  0  0
  182.2800  178.6280  141.8960 C   0  0  2  0  0  3  0  0  0  0  0  0
  183.2710  177.6240  141.5390 N   0  0  0  0  0  2  0  0  0  0  0  0
  187.3070  177.1250  145.6030 C   0  0  2  0  0  3  0  0  0  0  0  0
  187.9140  177.5090  146.9470 C   0  0  0  0  0  1  0  0  0  0  0  0
  187.3750  177.8050  143.2400 C   0  0  0  0  0  2  0  0  0  0  0  0
  184.5530  180.0860  143.4470 C   0  0  1  0  0  3  0  0  0  0  0  0
  183.6950  178.9340  144.0070 C   0  0  1  0  0  0  0  0  0  0  0  0
  182.2850  178.8460  143.4060 C   0  0  0  0  0  2  0  0  0  0  0  0
  185.5290  180.7280  144.4270 C   0  0  0  0  0  1  0  0  0  0  0  0
  188.2510  177.2810  144.3860 C   0  0  1  0  0  3  0  0  0  0  0  0
  186.1230  177.9880  145.2640 C   0  0  1  0  0  3  0  0  0  0  0  0
  189.4060  178.2550  144.6230 C   0  0  0  0  0  2  0  0  0  0  0  0
  190.7390  177.5270  144.6840 C   0  0  0  0  0  2  0  0  0  0  0  0
  190.8520  176.5200  143.5520 C   0  0  0  0  0  2  0  0  0  0  0  0
  191.1440  177.2270  142.2390 C   0  0  0  0  0  2  0  0  0  0  0  0
  190.2220  176.7470  141.1240 C   0  0  0  0  0  2  0  0  0  0  0  0
  189.9540  177.8500  140.1080 C   0  0  0  0  0  2  0  0  0  0  0  0
  188.6260  177.6420  139.3990 C   0  0  0  0  0  2  0  0  0  0  0  0
  187.7170  178.6250  139.7890 O   0  0  0  0  0  1  0  0  0  0  0  0
  1  4  1  6  0  0  0
  1 12  1  0  0  0  0
  1  2  1  0  0  0  0
  1 13  1  0  0  0  0
  2 11  1  6  0  0  0
  2 17  1  0  0  0  0
  3  6  1  0  0  0  0
  7  5  1  1  0  0  0
  7 14  1  0  0  0  0
  8  4  1  0  0  0  0
  8  7  1  0  0  0  0
  9 10  1  1  0  0  0
 11 16  1  0  0  0  0
 12 13  1  0  0  0  0
 12 15  1  1  0  0  0
 13 14  1  6  0  0  0
 13  3  1  0  0  0  0
 16 18  1  1  0  0  0
 16  9  1  0  0  0  0
 17  9  1  0  0  0  0
 17  6  1  1  0  0  0
 18 19  1  0  0  0  0
 20 19  1  0  0  0  0
 21 20  1  0  0  0  0
 22 21  1  0  0  0  0
 23 22  1  0  0  0  0
 24 25  1  0  0  0  0
 24 23  1  0  0  0  0
M  END
>  <MODEL>
8

>  <REMARK>
 VINA RESULT:      -5.9      3.512      7.265
  Name = 
  7 active torsions:
  status: ('A' for Active; 'I' for Inactive)
    1  A    between atoms: C_2  and  C_7
    2  A    between atoms: C_2  and  C_25
    3  A    between atoms: C_6  and  C_15
    4  A    between atoms: C_6  and  C_21
    5  A    between atoms: C_15  and  C_20
    6  A    between atoms: C_20  and  C_23
    7  A    between atoms: C_21  and  C_25
                            x       y       z     vdW  Elec       q    Type
                         _______ _______ _______ _____ _____    ______ ____

>  <TORSDO>
F 7

$$$$
=
 OpenBabel11052412533D

 25 28  0  0  1  0  0  0  0  0999 V2000
  181.9200  178.8090  140.3630 C   0  0  2  0  0  0  0  0  0  0  0  0
  183.1940  179.2880  141.0800 C   0  0  1  0  0  3  0  0  0  0  0  0
  183.5480  178.6250  138.2320 C   0  0  0  0  0  2  0  0  0  0  0  0
  180.6070  179.4660  140.8050 C   0  0  0  0  0  2  0  0  0  0  0  0
  178.9310  180.4060  137.7390 N   0  0  0  0  0  1  0  0  0  0  0  0
  184.5940  179.3490  139.0860 C   0  0  0  0  0  2  0  0  0  0  0  0
  179.7520  179.6090  138.6310 C   0  0  2  0  0  3  0  0  0  0  0  0
  180.1130  180.3990  139.7990 N   0  0  0  0  0  2  0  0  0  0  0  0
  185.5010  179.3080  141.4840 C   0  0  2  0  0  3  0  0  0  0  0  0
  186.8350  178.5890  141.3320 C   0  0  0  0  0  1  0  0  0  0  0  0
  183.3090  179.0080  142.5600 C   0  0  0  0  0  2  0  0  0  0  0  0
  181.7190  177.4400  139.6920 C   0  0  1  0  0  3  0  0  0  0  0  0
  182.1200  178.6580  138.8350 C   0  0  1  0  0  0  0  0  0  0  0  0
  181.0130  179.1640  137.8980 C   0  0  0  0  0  2  0  0  0  0  0  0
  182.8320  176.4440  139.9980 C   0  0  0  0  0  1  0  0  0  0  0  0
  184.8100  179.1290  142.8570 C   0  0  1  0  0  3  0  0  0  0  0  0
  184.4860  178.8070  140.4930 C   0  0  1  0  0  3  0  0  0  0  0  0
  185.2730  177.8890  143.6240 C   0  0  0  0  0  2  0  0  0  0  0  0
  185.3930  178.1720  145.1120 C   0  0  0  0  0  2  0  0  0  0  0  0
  186.8190  177.9500  145.5870 C   0  0  0  0  0  2  0  0  0  0  0  0
  187.6500  177.3050  144.4890 C   0  0  0  0  0  2  0  0  0  0  0  0
  189.0930  177.0890  144.9280 C   0  0  0  0  0  2  0  0  0  0  0  0
  189.2270  177.1350  146.4450 C   0  0  0  0  0  2  0  0  0  0  0  0
  190.6780  177.0060  146.8790 C   0  0  0  0  0  2  0  0  0  0  0  0
  191.4950  176.8190  145.7640 O   0  0  0  0  0  1  0  0  0  0  0  0
  1  4  1  1  0  0  0
  1  2  1  0  0  0  0
  2 11  1  1  0  0  0
  3 13  1  0  0  0  0
  3  6  1  0  0  0  0
  7  5  1  6  0  0  0
  7  8  1  0  0  0  0
  8  4  1  0  0  0  0
  9 10  1  1  0  0  0
  9 16  1  0  0  0  0
 11 16  1  0  0  0  0
 12 15  1  1  0  0  0
 12  1  1  0  0  0  0
 13 14  1  6  0  0  0
 13 12  1  0  0  0  0
 13  1  1  0  0  0  0
 14  7  1  0  0  0  0
 16 18  1  6  0  0  0
 17  6  1  6  0  0  0
 17  2  1  0  0  0  0
 17  9  1  0  0  0  0
 18 19  1  0  0  0  0
 19 20  1  0  0  0  0
 21 22  1  0  0  0  0
 21 20  1  0  0  0  0
 22 23  1  0  0  0  0
 23 24  1  0  0  0  0
 25 24  1  0  0  0  0
M  END
>  <MODEL>
9

>  <REMARK>
 VINA RESULT:      -5.9      4.917      8.722
  Name = 
  7 active torsions:
  status: ('A' for Active; 'I' for Inactive)
    1  A    between atoms: C_2  and  C_7
    2  A    between atoms: C_2  and  C_25
    3  A    between atoms: C_6  and  C_15
    4  A    between atoms: C_6  and  C_21
    5  A    between atoms: C_15  and  C_20
    6  A    between atoms: C_20  and  C_23
    7  A    between atoms: C_21  and  C_25
                            x       y       z     vdW  Elec       q    Type
                         _______ _______ _______ _____ _____    ______ ____

>  <TORSDO>
F 7

$$$$
