=
 OpenBabel11052414163D

 34 38  0  0  1  0  0  0  0  0999 V2000
  191.7290  173.9210  136.3500 C   0  0  0  0  0  0  0  0  0  0  0  0
  189.4450  174.7100  136.3770 C   0  0  0  0  0  0  0  0  0  0  0  0
  191.1780  175.9320  137.6820 N   0  0  0  0  0  0  0  0  0  0  0  0
  190.3350  177.7170  139.3080 C   0  0  2  0  0  3  0  0  0  0  0  0
  190.0420  172.7890  135.1330 C   0  0  0  0  0  3  0  0  0  0  0  0
  189.1090  173.6840  135.5530 N   0  0  0  0  0  0  0  0  0  0  0  0
  188.8080  176.3680  138.0920 C   0  0  2  0  0  3  0  0  0  0  0  0
  190.7850  174.8600  136.7940 C   0  0  0  0  0  0  0  0  0  0  0  0
  188.9270  178.2750  139.5510 C   0  0  0  0  0  2  0  0  0  0  0  0
  191.3370  172.9150  135.5250 N   0  0  0  0  0  0  0  0  0  0  0  0
  193.3890  174.9240  137.9440 C   0  0  0  0  0  2  0  0  0  0  0  0
  193.1830  174.0780  136.6880 C   0  0  0  0  0  2  0  0  0  0  0  0
  188.3940  175.7120  136.7800 C   0  0  0  0  0  2  0  0  0  0  0  0
  187.9530  177.4900  138.6600 C   0  0  1  0  0  3  0  0  0  0  0  0
  190.1850  176.9670  137.9880 C   0  0  2  0  0  3  0  0  0  0  0  0
  192.6020  176.2250  137.8330 C   0  0  0  0  0  2  0  0  0  0  0  0
  188.1430  179.2640  137.0800 O   0  0  0  0  0  0  0  0  0  0  0  0
  187.4000  178.3850  137.5920 C   0  0  0  0  0  0  0  0  0  0  0  0
  186.0630  178.2660  137.2010 O   0  0  0  0  0  0  0  0  0  0  0  0
  185.1180  177.5010  137.9400 C   0  0  0  0  0  2  0  0  0  0  0  0
  183.8170  178.2850  138.1120 C   0  0  0  0  0  2  0  0  0  0  0  0
  182.4360  179.2380  139.9260 C   0  0  0  0  0  1  0  0  0  0  0  0
  184.7980  178.7010  140.3770 C   0  0  0  0  0  1  0  0  0  0  0  0
  183.8270  179.2110  139.3280 C   0  0  0  0  0  0  0  0  0  0  0  0
  184.1830  180.5070  138.9560 O   0  0  0  0  0  1  0  0  0  0  0  0
  190.6830  176.7900  140.4690 C   0  0  0  0  0  2  0  0  0  0  0  0
  190.8950  177.5500  141.6520 O   0  0  0  0  0  0  0  0  0  0  0  0
  188.4300  177.7740  145.3900 C   0  0  0  0  0  3  0  0  0  0  0  0
  189.7050  178.1090  145.2030 C   0  0  0  0  0  3  0  0  0  0  0  0
  190.1370  177.3890  142.8150 C   0  0  0  0  0  0  0  0  0  0  0  0
  190.3920  178.1510  143.8970 C   0  0  0  0  0  3  0  0  0  0  0  0
  187.9670  176.3160  143.4570 C   0  0  0  0  0  3  0  0  0  0  0  0
  189.1240  176.3130  142.7940 C   0  0  0  0  0  3  0  0  0  0  0  0
  187.4940  177.4740  144.2680 C   0  0  0  0  0  2  0  0  0  0  0  0
  1 12  1  0  0  0  0
  1  8  1  0  0  0  0
  2 13  1  0  0  0  0
  2  8  2  0  0  0  0
  3 16  1  0  0  0  0
  4  9  1  0  0  0  0
  4 26  1  1  0  0  0
  5 10  1  0  0  0  0
  5  6  2  0  0  0  0
  6  2  1  0  0  0  0
  7 13  1  6  0  0  0
  7 14  1  0  0  0  0
  8  3  1  0  0  0  0
 10  1  2  0  0  0  0
 12 11  1  0  0  0  0
 14 18  1  6  0  0  0
 14  9  1  0  0  0  0
 15  3  1  1  0  0  0
 15  7  1  0  0  0  0
 15  4  1  0  0  0  0
 16 11  1  0  0  0  0
 17 18  2  0  0  0  0
 19 18  1  0  0  0  0
 19 20  1  0  0  0  0
 20 21  1  0  0  0  0
 21 24  1  0  0  0  0
 24 22  1  0  0  0  0
 24 23  1  0  0  0  0
 25 24  1  0  0  0  0
 26 27  1  0  0  0  0
 27 30  1  0  0  0  0
 29 28  2  0  0  0  0
 30 31  2  0  0  0  0
 31 29  1  0  0  0  0
 32 34  1  0  0  0  0
 33 30  1  0  0  0  0
 33 32  2  0  0  0  0
 34 28  1  0  0  0  0
M  END
>  <MODEL>
1

>  <REMARK>
 VINA RESULT:      -7.7      0.000      0.000
  Name = 
  8 active torsions:
  status: ('A' for Active; 'I' for Inactive)
    1  A    between atoms: C_5  and  C_26
    2  A    between atoms: C_12  and  O_28
    3  A    between atoms: O_13  and  C_17
    4  A    between atoms: O_13  and  C_33
    5  A    between atoms: C_17  and  C_29
    6  A    between atoms: C_20  and  C_34
    7  A    between atoms: C_26  and  O_28
    8  A    between atoms: C_33  and  C_34
                            x       y       z     vdW  Elec       q    Type
                         _______ _______ _______ _____ _____    ______ ____

>  <TORSDO>
F 8

$$$$
=
 OpenBabel11052414163D

 34 38  0  0  1  0  0  0  0  0999 V2000
  189.1170  177.2400  146.2790 C   0  0  0  0  0  0  0  0  0  0  0  0
  187.0770  178.5000  146.5840 C   0  0  0  0  0  0  0  0  0  0  0  0
  187.5490  177.4490  144.3760 N   0  0  0  0  0  0  0  0  0  0  0  0
  186.0210  178.1270  142.4400 C   0  0  2  0  0  3  0  0  0  0  0  0
  188.6270  178.2670  148.3560 C   0  0  0  0  0  3  0  0  0  0  0  0
  187.4540  178.7470  147.8650 N   0  0  0  0  0  0  0  0  0  0  0  0
  185.7940  179.1390  144.5740 C   0  0  2  0  0  3  0  0  0  0  0  0
  187.9090  177.7210  145.7510 C   0  0  0  0  0  0  0  0  0  0  0  0
  184.7570  178.9960  142.4100 C   0  0  0  0  0  2  0  0  0  0  0  0
  189.4430  177.5170  147.5690 N   0  0  0  0  0  0  0  0  0  0  0  0
  189.7630  176.4980  143.9680 C   0  0  0  0  0  2  0  0  0  0  0  0
  190.0000  176.3350  145.4700 C   0  0  0  0  0  2  0  0  0  0  0  0
  185.7460  179.0050  146.0920 C   0  0  0  0  0  2  0  0  0  0  0  0
  184.5340  179.5440  143.8270 C   0  0  1  0  0  3  0  0  0  0  0  0
  186.2090  177.8450  143.9280 C   0  0  2  0  0  3  0  0  0  0  0  0
  188.2730  176.4000  143.6610 C   0  0  0  0  0  2  0  0  0  0  0  0
  183.1410  178.9630  145.6720 O   0  0  0  0  0  0  0  0  0  0  0  0
  183.2970  178.9390  144.4220 C   0  0  0  0  0  0  0  0  0  0  0  0
  182.3510  178.3220  143.5980 O   0  0  0  0  0  0  0  0  0  0  0  0
  181.0300  178.8270  143.4440 C   0  0  0  0  0  2  0  0  0  0  0  0
  180.8000  179.2860  142.0040 C   0  0  0  0  0  2  0  0  0  0  0  0
  179.1490  178.9450  140.1980 C   0  0  0  0  0  1  0  0  0  0  0  0
  181.1080  177.4560  140.3230 C   0  0  0  0  0  1  0  0  0  0  0  0
  180.0960  178.2370  141.1420 C   0  0  0  0  0  0  0  0  0  0  0  0
  179.3640  177.3570  141.9390 O   0  0  0  0  0  1  0  0  0  0  0  0
  187.1690  178.9410  141.8510 C   0  0  0  0  0  2  0  0  0  0  0  0
  187.2880  178.6770  140.4590 O   0  0  0  0  0  0  0  0  0  0  0  0
  191.0110  176.7740  138.8400 C   0  0  0  0  0  3  0  0  0  0  0  0
  190.7320  177.1470  140.0870 C   0  0  0  0  0  3  0  0  0  0  0  0
  188.4850  178.2870  139.8500 C   0  0  0  0  0  0  0  0  0  0  0  0
  189.4170  177.6220  140.5620 C   0  0  0  0  0  3  0  0  0  0  0  0
  189.3610  178.0410  137.5170 C   0  0  0  0  0  3  0  0  0  0  0  0
  188.6730  178.7060  138.4460 C   0  0  0  0  0  3  0  0  0  0  0  0
  189.9830  176.7070  137.7610 C   0  0  0  0  0  2  0  0  0  0  0  0
  1 10  1  0  0  0  0
  2  6  2  0  0  0  0
  3  8  1  0  0  0  0
  4 26  1  1  0  0  0
  4 15  1  0  0  0  0
  6  5  1  0  0  0  0
  7 13  1  1  0  0  0
  8  1  2  0  0  0  0
  8  2  1  0  0  0  0
  9  4  1  0  0  0  0
  9 14  1  0  0  0  0
 10  5  2  0  0  0  0
 11 12  1  0  0  0  0
 12  1  1  0  0  0  0
 13  2  1  0  0  0  0
 14 18  1  1  0  0  0
 14  7  1  0  0  0  0
 15  3  1  6  0  0  0
 15  7  1  0  0  0  0
 16 11  1  0  0  0  0
 16  3  1  0  0  0  0
 18 17  2  0  0  0  0
 19 18  1  0  0  0  0
 20 19  1  0  0  0  0
 21 20  1  0  0  0  0
 22 24  1  0  0  0  0
 23 24  1  0  0  0  0
 24 25  1  0  0  0  0
 24 21  1  0  0  0  0
 27 26  1  0  0  0  0
 28 29  2  0  0  0  0
 29 31  1  0  0  0  0
 30 27  1  0  0  0  0
 30 31  2  0  0  0  0
 32 34  1  0  0  0  0
 32 33  2  0  0  0  0
 33 30  1  0  0  0  0
 34 28  1  0  0  0  0
M  END
>  <MODEL>
2

>  <REMARK>
 VINA RESULT:      -7.7      4.060      7.847
  Name = 
  8 active torsions:
  status: ('A' for Active; 'I' for Inactive)
    1  A    between atoms: C_5  and  C_26
    2  A    between atoms: C_12  and  O_28
    3  A    between atoms: O_13  and  C_17
    4  A    between atoms: O_13  and  C_33
    5  A    between atoms: C_17  and  C_29
    6  A    between atoms: C_20  and  C_34
    7  A    between atoms: C_26  and  O_28
    8  A    between atoms: C_33  and  C_34
                            x       y       z     vdW  Elec       q    Type
                         _______ _______ _______ _____ _____    ______ ____

>  <TORSDO>
F 8

$$$$
=
 OpenBabel11052414163D

 34 38  0  0  1  0  0  0  0  0999 V2000
  187.6580  177.7960  146.3560 C   0  0  0  0  0  0  0  0  0  0  0  0
  185.6560  178.7310  145.3770 C   0  0  0  0  0  0  0  0  0  0  0  0
  187.3420  177.6370  143.9070 N   0  0  0  0  0  0  0  0  0  0  0  0
  187.0290  177.9450  141.3860 C   0  0  2  0  0  3  0  0  0  0  0  0
  186.0290  178.8550  147.7090 C   0  0  0  0  0  3  0  0  0  0  0  0
  185.2600  179.1110  146.6190 N   0  0  0  0  0  0  0  0  0  0  0  0
  185.5920  179.0360  142.9280 C   0  0  2  0  0  3  0  0  0  0  0  0
  186.8800  178.0460  145.2150 C   0  0  0  0  0  0  0  0  0  0  0  0
  185.8970  178.5980  140.5840 C   0  0  0  0  0  2  0  0  0  0  0  0
  187.2120  178.1980  147.5740 N   0  0  0  0  0  0  0  0  0  0  0  0
  189.5140  177.0290  144.8470 C   0  0  0  0  0  2  0  0  0  0  0  0
  188.9250  176.9960  146.2580 C   0  0  0  0  0  2  0  0  0  0  0  0
  184.7520  178.9870  144.2000 C   0  0  0  0  0  2  0  0  0  0  0  0
  184.8940  179.1880  141.5860 C   0  0  1  0  0  3  0  0  0  0  0  0
  186.4190  177.7880  142.7770 C   0  0  2  0  0  3  0  0  0  0  0  0
  188.4400  176.6760  143.8240 C   0  0  0  0  0  2  0  0  0  0  0  0
  182.5990  178.8730  142.1480 O   0  0  0  0  0  0  0  0  0  0  0  0
  183.6010  178.4310  141.5240 C   0  0  0  0  0  0  0  0  0  0  0  0
  183.5250  177.2290  140.8140 O   0  0  0  0  0  0  0  0  0  0  0  0
  182.5410  176.9970  139.8130 C   0  0  0  0  0  2  0  0  0  0  0  0
  182.9050  177.7390  138.5270 C   0  0  0  0  0  2  0  0  0  0  0  0
  182.8680  176.9590  136.1820 C   0  0  0  0  0  1  0  0  0  0  0  0
  185.0400  177.3110  137.2910 C   0  0  0  0  0  1  0  0  0  0  0  0
  183.6090  176.8520  137.4980 C   0  0  0  0  0  0  0  0  0  0  0  0
  183.6020  175.5200  137.9110 O   0  0  0  0  0  1  0  0  0  0  0  0
  188.2230  178.8950  141.3790 C   0  0  0  0  0  2  0  0  0  0  0  0
  189.4020  178.1910  141.0090 O   0  0  0  0  0  0  0  0  0  0  0  0
  190.0610  176.1940  137.0490 C   0  0  0  0  0  3  0  0  0  0  0  0
  190.7550  176.0700  138.1790 C   0  0  0  0  0  3  0  0  0  0  0  0
  189.6720  177.7770  139.7010 C   0  0  0  0  0  0  0  0  0  0  0  0
  190.3720  176.6460  139.4830 C   0  0  0  0  0  3  0  0  0  0  0  0
  188.8320  178.3010  137.4020 C   0  0  0  0  0  3  0  0  0  0  0  0
  189.2160  178.6770  138.6220 C   0  0  0  0  0  3  0  0  0  0  0  0
  188.7360  176.8740  136.9790 C   0  0  0  0  0  2  0  0  0  0  0  0
  1 10  1  0  0  0  0
  2  6  2  0  0  0  0
  3  8  1  0  0  0  0
  4 26  1  1  0  0  0
  4 15  1  0  0  0  0
  6  5  1  0  0  0  0
  7 13  1  1  0  0  0
  8  2  1  0  0  0  0
  8  1  2  0  0  0  0
  9  4  1  0  0  0  0
  9 14  1  0  0  0  0
 10  5  2  0  0  0  0
 11 12  1  0  0  0  0
 12  1  1  0  0  0  0
 13  2  1  0  0  0  0
 14 18  1  1  0  0  0
 14  7  1  0  0  0  0
 15  7  1  0  0  0  0
 15  3  1  1  0  0  0
 16  3  1  0  0  0  0
 16 11  1  0  0  0  0
 18 17  2  0  0  0  0
 19 18  1  0  0  0  0
 20 19  1  0  0  0  0
 21 20  1  0  0  0  0
 22 24  1  0  0  0  0
 23 24  1  0  0  0  0
 24 25  1  0  0  0  0
 24 21  1  0  0  0  0
 27 26  1  0  0  0  0
 28 29  2  0  0  0  0
 29 31  1  0  0  0  0
 30 27  1  0  0  0  0
 31 30  2  0  0  0  0
 32 33  2  0  0  0  0
 33 30  1  0  0  0  0
 34 28  1  0  0  0  0
 34 32  1  0  0  0  0
M  END
>  <MODEL>
3

>  <REMARK>
 VINA RESULT:      -7.6      3.573      7.449
  Name = 
  8 active torsions:
  status: ('A' for Active; 'I' for Inactive)
    1  A    between atoms: C_5  and  C_26
    2  A    between atoms: C_12  and  O_28
    3  A    between atoms: O_13  and  C_17
    4  A    between atoms: O_13  and  C_33
    5  A    between atoms: C_17  and  C_29
    6  A    between atoms: C_20  and  C_34
    7  A    between atoms: C_26  and  O_28
    8  A    between atoms: C_33  and  C_34
                            x       y       z     vdW  Elec       q    Type
                         _______ _______ _______ _____ _____    ______ ____

>  <TORSDO>
F 8

$$$$
=
 OpenBabel11052414163D

 34 38  0  0  1  0  0  0  0  0999 V2000
  187.6160  177.7950  146.3190 C   0  0  0  0  0  0  0  0  0  0  0  0
  185.6250  178.7360  145.3250 C   0  0  0  0  0  0  0  0  0  0  0  0
  187.3120  177.6260  143.8690 N   0  0  0  0  0  0  0  0  0  0  0  0
  187.0140  177.9240  141.3460 C   0  0  2  0  0  3  0  0  0  0  0  0
  185.9860  178.8690  147.6590 C   0  0  0  0  0  3  0  0  0  0  0  0
  185.2240  179.1250  146.5630 N   0  0  0  0  0  0  0  0  0  0  0  0
  185.5750  179.0300  142.8750 C   0  0  2  0  0  3  0  0  0  0  0  0
  186.8450  178.0440  145.1730 C   0  0  0  0  0  0  0  0  0  0  0  0
  185.8900  178.5790  140.5350 C   0  0  0  0  0  2  0  0  0  0  0  0
  187.1650  178.2050  147.5330 N   0  0  0  0  0  0  0  0  0  0  0  0
  189.4750  177.0100  144.8240 C   0  0  0  0  0  2  0  0  0  0  0  0
  188.8790  176.9870  146.2320 C   0  0  0  0  0  2  0  0  0  0  0  0
  184.7280  178.9920  144.1420 C   0  0  0  0  0  2  0  0  0  0  0  0
  184.8860  179.1800  141.5280 C   0  0  1  0  0  3  0  0  0  0  0  0
  186.3960  177.7760  142.7340 C   0  0  2  0  0  3  0  0  0  0  0  0
  188.4050  176.6590  143.7970 C   0  0  0  0  0  2  0  0  0  0  0  0
  182.5900  178.8710  142.0930 O   0  0  0  0  0  0  0  0  0  0  0  0
  183.5880  178.4300  141.4630 C   0  0  0  0  0  0  0  0  0  0  0  0
  183.5050  177.2340  140.7430 O   0  0  0  0  0  0  0  0  0  0  0  0
  182.5810  177.0510  139.6770 C   0  0  0  0  0  2  0  0  0  0  0  0
  182.8590  178.0480  138.5530 C   0  0  0  0  0  2  0  0  0  0  0  0
  182.2660  180.4460  138.6140 C   0  0  0  0  0  1  0  0  0  0  0  0
  181.2150  178.9970  136.9210 C   0  0  0  0  0  1  0  0  0  0  0  0
  181.7280  179.0560  138.3480 C   0  0  0  0  0  0  0  0  0  0  0  0
  180.6780  178.8030  139.2310 O   0  0  0  0  0  1  0  0  0  0  0  0
  188.2140  178.8660  141.3400 C   0  0  0  0  0  2  0  0  0  0  0  0
  189.3790  178.1680  140.9200 O   0  0  0  0  0  0  0  0  0  0  0  0
  189.9200  176.3100  136.8750 C   0  0  0  0  0  3  0  0  0  0  0  0
  190.6270  176.1230  137.9880 C   0  0  0  0  0  3  0  0  0  0  0  0
  189.6170  177.7990  139.5930 C   0  0  0  0  0  0  0  0  0  0  0  0
  190.2800  176.6580  139.3190 C   0  0  0  0  0  3  0  0  0  0  0  0
  188.7560  178.4360  137.3290 C   0  0  0  0  0  3  0  0  0  0  0  0
  189.1690  178.7520  138.5560 C   0  0  0  0  0  3  0  0  0  0  0  0
  188.6130  177.0290  136.8540 C   0  0  0  0  0  2  0  0  0  0  0  0
  1 10  1  0  0  0  0
  2  6  2  0  0  0  0
  3  8  1  0  0  0  0
  4 26  1  1  0  0  0
  4 15  1  0  0  0  0
  6  5  1  0  0  0  0
  7 13  1  1  0  0  0
  8  2  1  0  0  0  0
  8  1  2  0  0  0  0
  9  4  1  0  0  0  0
  9 14  1  0  0  0  0
 10  5  2  0  0  0  0
 11 12  1  0  0  0  0
 12  1  1  0  0  0  0
 13  2  1  0  0  0  0
 14 18  1  1  0  0  0
 14  7  1  0  0  0  0
 15  7  1  0  0  0  0
 15  3  1  1  0  0  0
 16  3  1  0  0  0  0
 16 11  1  0  0  0  0
 18 17  2  0  0  0  0
 19 18  1  0  0  0  0
 20 19  1  0  0  0  0
 21 20  1  0  0  0  0
 23 24  1  0  0  0  0
 24 21  1  0  0  0  0
 24 22  1  0  0  0  0
 24 25  1  0  0  0  0
 27 26  1  0  0  0  0
 28 29  2  0  0  0  0
 29 31  1  0  0  0  0
 30 27  1  0  0  0  0
 31 30  2  0  0  0  0
 32 33  2  0  0  0  0
 33 30  1  0  0  0  0
 34 28  1  0  0  0  0
 34 32  1  0  0  0  0
M  END
>  <MODEL>
4

>  <REMARK>
 VINA RESULT:      -7.6      3.592      7.419
  Name = 
  8 active torsions:
  status: ('A' for Active; 'I' for Inactive)
    1  A    between atoms: C_5  and  C_26
    2  A    between atoms: C_12  and  O_28
    3  A    between atoms: O_13  and  C_17
    4  A    between atoms: O_13  and  C_33
    5  A    between atoms: C_17  and  C_29
    6  A    between atoms: C_20  and  C_34
    7  A    between atoms: C_26  and  O_28
    8  A    between atoms: C_33  and  C_34
                            x       y       z     vdW  Elec       q    Type
                         _______ _______ _______ _____ _____    ______ ____

>  <TORSDO>
F 8

$$$$
=
 OpenBabel11052414163D

 34 38  0  0  1  0  0  0  0  0999 V2000
  184.9990  178.6610  141.2600 C   0  0  0  0  0  0  0  0  0  0  0  0
  186.5180  178.5110  139.3880 C   0  0  0  0  0  0  0  0  0  0  0  0
  187.3160  177.8920  141.6640 N   0  0  0  0  0  0  0  0  0  0  0  0
  189.8340  177.5280  141.9310 C   0  0  2  0  0  3  0  0  0  0  0  0
  184.2920  179.2470  139.0780 C   0  0  0  0  0  3  0  0  0  0  0  0
  185.5200  178.9510  138.5790 N   0  0  0  0  0  0  0  0  0  0  0  0
  188.9280  178.2570  139.8630 C   0  0  2  0  0  3  0  0  0  0  0  0
  186.2740  178.3450  140.7680 C   0  0  0  0  0  0  0  0  0  0  0  0
  190.9640  177.5050  140.8950 C   0  0  0  0  0  2  0  0  0  0  0  0
  184.0370  179.0950  140.4050 N   0  0  0  0  0  0  0  0  0  0  0  0
  185.8980  178.3920  143.5900 C   0  0  0  0  0  2  0  0  0  0  0  0
  184.6540  178.4210  142.7020 C   0  0  0  0  0  2  0  0  0  0  0  0
  187.8510  178.1450  138.7890 C   0  0  0  0  0  2  0  0  0  0  0  0
  190.3520  177.8450  139.5280 C   0  0  1  0  0  3  0  0  0  0  0  0
  188.5760  177.4320  141.0710 C   0  0  2  0  0  3  0  0  0  0  0  0
  186.9380  177.4450  143.0030 C   0  0  0  0  0  2  0  0  0  0  0  0
  190.3400  175.4940  139.1360 O   0  0  0  0  0  0  0  0  0  0  0  0
  190.4050  176.6450  138.6290 C   0  0  0  0  0  0  0  0  0  0  0  0
  190.5630  176.8090  137.2500 O   0  0  0  0  0  0  0  0  0  0  0  0
  191.1540  175.8100  136.4280 C   0  0  0  0  0  2  0  0  0  0  0  0
  192.6030  176.1760  136.1040 C   0  0  0  0  0  2  0  0  0  0  0  0
  193.0590  174.1750  137.4820 C   0  0  0  0  0  1  0  0  0  0  0  0
  194.9310  175.2790  136.3200 C   0  0  0  0  0  1  0  0  0  0  0  0
  193.6150  175.5130  137.0390 C   0  0  0  0  0  0  0  0  0  0  0  0
  193.8340  176.3040  138.1670 O   0  0  0  0  0  1  0  0  0  0  0  0
  189.9180  178.8470  142.6930 C   0  0  0  0  0  2  0  0  0  0  0  0
  190.8550  178.7350  143.7580 O   0  0  0  0  0  0  0  0  0  0  0  0
  190.9540  176.2350  147.4790 C   0  0  0  0  0  3  0  0  0  0  0  0
  191.7430  176.1800  146.4080 C   0  0  0  0  0  3  0  0  0  0  0  0
  190.6900  177.8630  144.8380 C   0  0  0  0  0  0  0  0  0  0  0  0
  191.7390  177.1490  145.2940 C   0  0  0  0  0  3  0  0  0  0  0  0
  188.9950  177.4750  146.6400 C   0  0  0  0  0  3  0  0  0  0  0  0
  189.3190  177.7340  145.3730 C   0  0  0  0  0  3  0  0  0  0  0  0
  190.0040  177.3570  147.7320 C   0  0  0  0  0  2  0  0  0  0  0  0
  1 12  1  0  0  0  0
  2  8  2  0  0  0  0
  3 16  1  0  0  0  0
  4 26  1  6  0  0  0
  5 10  1  0  0  0  0
  6  5  2  0  0  0  0
  6  2  1  0  0  0  0
  7 13  1  6  0  0  0
  7 15  1  0  0  0  0
  8  1  1  0  0  0  0
  8  3  1  0  0  0  0
  9  4  1  0  0  0  0
 10  1  2  0  0  0  0
 12 11  1  0  0  0  0
 13  2  1  0  0  0  0
 14 18  1  6  0  0  0
 14  7  1  0  0  0  0
 14  9  1  0  0  0  0
 15  3  1  1  0  0  0
 15  4  1  0  0  0  0
 16 11  1  0  0  0  0
 18 17  2  0  0  0  0
 19 18  1  0  0  0  0
 20 19  1  0  0  0  0
 21 20  1  0  0  0  0
 21 24  1  0  0  0  0
 23 24  1  0  0  0  0
 24 22  1  0  0  0  0
 24 25  1  0  0  0  0
 26 27  1  0  0  0  0
 27 30  1  0  0  0  0
 28 34  1  0  0  0  0
 29 28  2  0  0  0  0
 30 31  2  0  0  0  0
 30 33  1  0  0  0  0
 31 29  1  0  0  0  0
 32 34  1  0  0  0  0
 33 32  2  0  0  0  0
M  END
>  <MODEL>
5

>  <REMARK>
 VINA RESULT:      -7.6      3.075      6.805
  Name = 
  8 active torsions:
  status: ('A' for Active; 'I' for Inactive)
    1  A    between atoms: C_5  and  C_26
    2  A    between atoms: C_12  and  O_28
    3  A    between atoms: O_13  and  C_17
    4  A    between atoms: O_13  and  C_33
    5  A    between atoms: C_17  and  C_29
    6  A    between atoms: C_20  and  C_34
    7  A    between atoms: C_26  and  O_28
    8  A    between atoms: C_33  and  C_34
                            x       y       z     vdW  Elec       q    Type
                         _______ _______ _______ _____ _____    ______ ____

>  <TORSDO>
F 8

$$$$
=
 OpenBabel11052414163D

 34 38  0  0  1  0  0  0  0  0999 V2000
  190.4450  176.9480  147.3840 C   0  0  0  0  0  0  0  0  0  0  0  0
  191.4730  176.2360  145.3160 C   0  0  0  0  0  0  0  0  0  0  0  0
  189.4010  177.6150  145.2420 N   0  0  0  0  0  0  0  0  0  0  0  0
  188.2610  177.8400  142.9630 C   0  0  2  0  0  3  0  0  0  0  0  0
  192.4100  175.6270  147.4000 C   0  0  0  0  0  3  0  0  0  0  0  0
  192.4300  175.6030  146.0420 N   0  0  0  0  0  0  0  0  0  0  0  0
  190.1640  176.4490  143.2330 C   0  0  2  0  0  3  0  0  0  0  0  0
  190.4460  176.9410  145.9800 C   0  0  0  0  0  0  0  0  0  0  0  0
  188.6930  177.3670  141.5690 C   0  0  0  0  0  2  0  0  0  0  0  0
  191.4290  176.2990  148.0590 N   0  0  0  0  0  0  0  0  0  0  0  0
  188.1730  178.0160  147.3160 C   0  0  0  0  0  2  0  0  0  0  0  0
  189.4310  177.7530  148.1440 C   0  0  0  0  0  2  0  0  0  0  0  0
  191.5580  176.2300  143.8120 C   0  0  0  0  0  2  0  0  0  0  0  0
  190.0010  176.5790  141.7270 C   0  0  1  0  0  3  0  0  0  0  0  0
  189.5400  177.7020  143.7840 C   0  0  2  0  0  3  0  0  0  0  0  0
  188.5540  178.5730  145.9490 C   0  0  0  0  0  2  0  0  0  0  0  0
  191.9980  177.8770  141.8270 O   0  0  0  0  0  0  0  0  0  0  0  0
  191.1330  177.3310  141.0920 C   0  0  0  0  0  0  0  0  0  0  0  0
  191.1990  177.4540  139.7010 O   0  0  0  0  0  0  0  0  0  0  0  0
  190.7900  176.4120  138.8230 C   0  0  0  0  0  2  0  0  0  0  0  0
  190.5540  176.9620  137.4170 C   0  0  0  0  0  2  0  0  0  0  0  0
  189.0540  178.9250  137.4790 C   0  0  0  0  0  1  0  0  0  0  0  0
  188.7020  177.2050  135.7490 C   0  0  0  0  0  1  0  0  0  0  0  0
  189.1190  177.4400  137.1900 C   0  0  0  0  0  0  0  0  0  0  0  0
  188.2390  176.7770  138.0440 O   0  0  0  0  0  1  0  0  0  0  0  0
  187.1520  176.9150  143.4530 C   0  0  0  0  0  2  0  0  0  0  0  0
  186.2390  177.6390  144.2690 O   0  0  0  0  0  0  0  0  0  0  0  0
  182.3820  178.9290  142.3800 C   0  0  0  0  0  3  0  0  0  0  0  0
  183.5430  178.6290  141.8010 C   0  0  0  0  0  3  0  0  0  0  0  0
  185.0820  178.2480  143.7730 C   0  0  0  0  0  0  0  0  0  0  0  0
  184.7180  178.0590  142.4890 C   0  0  0  0  0  3  0  0  0  0  0  0
  183.0420  179.3500  144.7180 C   0  0  0  0  0  3  0  0  0  0  0  0
  184.3570  179.1350  144.7060 C   0  0  0  0  0  3  0  0  0  0  0  0
  182.0910  178.6410  143.8140 C   0  0  0  0  0  2  0  0  0  0  0  0
  1 10  1  0  0  0  0
  1 12  1  0  0  0  0
  2  8  1  0  0  0  0
  2  6  2  0  0  0  0
  3 16  1  0  0  0  0
  3  8  1  0  0  0  0
  4 26  1  1  0  0  0
  4 15  1  0  0  0  0
  5 10  2  0  0  0  0
  6  5  1  0  0  0  0
  7 15  1  0  0  0  0
  7 13  1  6  0  0  0
  8  1  2  0  0  0  0
  9 14  1  0  0  0  0
  9  4  1  0  0  0  0
 11 12  1  0  0  0  0
 13  2  1  0  0  0  0
 14 18  1  1  0  0  0
 14  7  1  0  0  0  0
 15  3  1  1  0  0  0
 16 11  1  0  0  0  0
 18 17  2  0  0  0  0
 19 18  1  0  0  0  0
 20 19  1  0  0  0  0
 21 20  1  0  0  0  0
 23 24  1  0  0  0  0
 24 21  1  0  0  0  0
 24 22  1  0  0  0  0
 24 25  1  0  0  0  0
 26 27  1  0  0  0  0
 28 34  1  0  0  0  0
 29 28  2  0  0  0  0
 29 31  1  0  0  0  0
 30 27  1  0  0  0  0
 30 33  1  0  0  0  0
 31 30  2  0  0  0  0
 33 32  2  0  0  0  0
 34 32  1  0  0  0  0
M  END
>  <MODEL>
6

>  <REMARK>
 VINA RESULT:      -7.5      3.791      7.679
  Name = 
  8 active torsions:
  status: ('A' for Active; 'I' for Inactive)
    1  A    between atoms: C_5  and  C_26
    2  A    between atoms: C_12  and  O_28
    3  A    between atoms: O_13  and  C_17
    4  A    between atoms: O_13  and  C_33
    5  A    between atoms: C_17  and  C_29
    6  A    between atoms: C_20  and  C_34
    7  A    between atoms: C_26  and  O_28
    8  A    between atoms: C_33  and  C_34
                            x       y       z     vdW  Elec       q    Type
                         _______ _______ _______ _____ _____    ______ ____

>  <TORSDO>
F 8

$$$$
=
 OpenBabel11052414163D

 34 38  0  0  1  0  0  0  0  0999 V2000
  185.0060  178.6150  141.4470 C   0  0  0  0  0  0  0  0  0  0  0  0
  186.4830  178.5350  139.5370 C   0  0  0  0  0  0  0  0  0  0  0  0
  187.3310  177.8320  141.7700 N   0  0  0  0  0  0  0  0  0  0  0  0
  189.8540  177.4590  141.9670 C   0  0  2  0  0  3  0  0  0  0  0  0
  184.2510  179.2820  139.3050 C   0  0  0  0  0  3  0  0  0  0  0  0
  185.4680  179.0050  138.7670 N   0  0  0  0  0  0  0  0  0  0  0  0
  188.9030  178.2640  139.9480 C   0  0  2  0  0  3  0  0  0  0  0  0
  186.2700  178.3180  140.9150 C   0  0  0  0  0  0  0  0  0  0  0  0
  190.9610  177.4740  140.9050 C   0  0  0  0  0  2  0  0  0  0  0  0
  184.0260  179.0810  140.6300 N   0  0  0  0  0  0  0  0  0  0  0  0
  185.9570  178.2610  143.7450 C   0  0  0  0  0  2  0  0  0  0  0  0
  184.6930  178.3220  142.8870 C   0  0  0  0  0  2  0  0  0  0  0  0
  187.8020  178.1910  138.8950 C   0  0  0  0  0  2  0  0  0  0  0  0
  190.3190  177.8640  139.5670 C   0  0  1  0  0  3  0  0  0  0  0  0
  188.5780  177.3950  141.1330 C   0  0  2  0  0  3  0  0  0  0  0  0
  186.9830  177.3360  143.1000 C   0  0  0  0  0  2  0  0  0  0  0  0
  190.5010  175.5370  139.0860 O   0  0  0  0  0  0  0  0  0  0  0  0
  190.3500  176.6990  138.6230 C   0  0  0  0  0  0  0  0  0  0  0  0
  190.2530  176.9100  137.2450 O   0  0  0  0  0  0  0  0  0  0  0  0
  190.2140  175.8370  136.3110 C   0  0  0  0  0  2  0  0  0  0  0  0
  188.8310  175.7390  135.6690 C   0  0  0  0  0  2  0  0  0  0  0  0
  189.0360  173.4940  136.6830 C   0  0  0  0  0  1  0  0  0  0  0  0
  187.0180  174.8320  137.1390 C   0  0  0  0  0  1  0  0  0  0  0  0
  188.0590  174.4870  136.0900 C   0  0  0  0  0  0  0  0  0  0  0  0
  187.4350  173.9010  134.9890 O   0  0  0  0  0  1  0  0  0  0  0  0
  189.9570  178.7490  142.7750 C   0  0  0  0  0  2  0  0  0  0  0  0
  190.9490  178.6120  143.7850 O   0  0  0  0  0  0  0  0  0  0  0  0
  191.1960  176.1110  147.4980 C   0  0  0  0  0  3  0  0  0  0  0  0
  191.8800  175.9980  146.3610 C   0  0  0  0  0  3  0  0  0  0  0  0
  190.8180  177.7540  144.8810 C   0  0  0  0  0  0  0  0  0  0  0  0
  191.8470  176.9650  145.2460 C   0  0  0  0  0  3  0  0  0  0  0  0
  189.2670  177.4920  146.8300 C   0  0  0  0  0  3  0  0  0  0  0  0
  189.4940  177.7270  145.5370 C   0  0  0  0  0  3  0  0  0  0  0  0
  190.3580  177.3000  147.8280 C   0  0  0  0  0  2  0  0  0  0  0  0
  1 12  1  0  0  0  0
  2  8  2  0  0  0  0
  3 16  1  0  0  0  0
  4 26  1  6  0  0  0
  5 10  1  0  0  0  0
  6  5  2  0  0  0  0
  6  2  1  0  0  0  0
  7 13  1  6  0  0  0
  7 15  1  0  0  0  0
  8  1  1  0  0  0  0
  8  3  1  0  0  0  0
  9  4  1  0  0  0  0
 10  1  2  0  0  0  0
 12 11  1  0  0  0  0
 13  2  1  0  0  0  0
 14 18  1  6  0  0  0
 14  7  1  0  0  0  0
 14  9  1  0  0  0  0
 15  3  1  1  0  0  0
 15  4  1  0  0  0  0
 16 11  1  0  0  0  0
 18 17  2  0  0  0  0
 19 18  1  0  0  0  0
 20 19  1  0  0  0  0
 21 24  1  0  0  0  0
 21 20  1  0  0  0  0
 24 22  1  0  0  0  0
 24 23  1  0  0  0  0
 25 24  1  0  0  0  0
 26 27  1  0  0  0  0
 27 30  1  0  0  0  0
 28 34  1  0  0  0  0
 29 28  2  0  0  0  0
 30 31  2  0  0  0  0
 30 33  1  0  0  0  0
 31 29  1  0  0  0  0
 32 34  1  0  0  0  0
 33 32  2  0  0  0  0
M  END
>  <MODEL>
7

>  <REMARK>
 VINA RESULT:      -7.5      3.112      6.118
  Name = 
  8 active torsions:
  status: ('A' for Active; 'I' for Inactive)
    1  A    between atoms: C_5  and  C_26
    2  A    between atoms: C_12  and  O_28
    3  A    between atoms: O_13  and  C_17
    4  A    between atoms: O_13  and  C_33
    5  A    between atoms: C_17  and  C_29
    6  A    between atoms: C_20  and  C_34
    7  A    between atoms: C_26  and  O_28
    8  A    between atoms: C_33  and  C_34
                            x       y       z     vdW  Elec       q    Type
                         _______ _______ _______ _____ _____    ______ ____

>  <TORSDO>
F 8

$$$$
=
 OpenBabel11052414163D

 34 38  0  0  1  0  0  0  0  0999 V2000
  188.8060  176.8190  137.3820 C   0  0  0  0  0  0  0  0  0  0  0  0
  186.4010  177.0580  137.4050 C   0  0  0  0  0  0  0  0  0  0  0  0
  187.7480  178.0450  139.2520 N   0  0  0  0  0  0  0  0  0  0  0  0
  186.4470  178.8990  141.2830 C   0  0  2  0  0  3  0  0  0  0  0  0
  187.4800  175.8910  135.6540 C   0  0  0  0  0  3  0  0  0  0  0  0
  186.3480  176.3590  136.2420 N   0  0  0  0  0  0  0  0  0  0  0  0
  185.3270  177.8060  139.4980 C   0  0  2  0  0  3  0  0  0  0  0  0
  187.6520  177.3160  138.0070 C   0  0  0  0  0  0  0  0  0  0  0  0
  184.9390  179.0280  141.5320 C   0  0  0  0  0  2  0  0  0  0  0  0
  188.6930  176.1270  136.2180 N   0  0  0  0  0  0  0  0  0  0  0  0
  190.1220  177.4870  139.4140 C   0  0  0  0  0  2  0  0  0  0  0  0
  190.1680  177.1360  137.9270 C   0  0  0  0  0  2  0  0  0  0  0  0
  185.1300  177.6050  138.0000 C   0  0  0  0  0  2  0  0  0  0  0  0
  184.2120  178.4420  140.3130 C   0  0  1  0  0  3  0  0  0  0  0  0
  186.5280  178.6700  139.7760 C   0  0  2  0  0  3  0  0  0  0  0  0
  189.0560  178.5480  139.6670 C   0  0  0  0  0  2  0  0  0  0  0  0
  184.1740  180.4970  139.1060 O   0  0  0  0  0  0  0  0  0  0  0  0
  183.5060  179.5320  139.5630 C   0  0  0  0  0  0  0  0  0  0  0  0
  182.1170  179.4920  139.4110 O   0  0  0  0  0  0  0  0  0  0  0  0
  181.2830  178.6870  140.2360 C   0  0  0  0  0  2  0  0  0  0  0  0
  180.2880  179.5600  141.0000 C   0  0  0  0  0  2  0  0  0  0  0  0
  181.4360  179.0070  143.1170 C   0  0  0  0  0  1  0  0  0  0  0  0
  179.2440  180.1280  143.2040 C   0  0  0  0  0  1  0  0  0  0  0  0
  180.0820  179.1140  142.4480 C   0  0  0  0  0  0  0  0  0  0  0  0
  179.4580  177.8670  142.4940 O   0  0  0  0  0  1  0  0  0  0  0  0
  186.9580  177.7050  142.0820 C   0  0  0  0  0  2  0  0  0  0  0  0
  186.3380  177.6750  143.3620 O   0  0  0  0  0  0  0  0  0  0  0  0
  188.1470  177.6820  147.4650 C   0  0  0  0  0  3  0  0  0  0  0  0
  186.9450  178.1010  147.0750 C   0  0  0  0  0  3  0  0  0  0  0  0
  187.0400  177.8440  144.5590 C   0  0  0  0  0  0  0  0  0  0  0  0
  186.3710  177.9150  145.7280 C   0  0  0  0  0  3  0  0  0  0  0  0
  189.4060  177.6180  145.3460 C   0  0  0  0  0  3  0  0  0  0  0  0
  188.5040  178.0050  144.4450 C   0  0  0  0  0  3  0  0  0  0  0  0
  189.0500  176.8780  146.5910 C   0  0  0  0  0  2  0  0  0  0  0  0
  1 12  1  0  0  0  0
  1  8  1  0  0  0  0
  2 13  1  0  0  0  0
  2  8  2  0  0  0  0
  3 16  1  0  0  0  0
  4  9  1  0  0  0  0
  4 26  1  1  0  0  0
  5 10  1  0  0  0  0
  5  6  2  0  0  0  0
  6  2  1  0  0  0  0
  7 13  1  6  0  0  0
  7 15  1  0  0  0  0
  7 14  1  0  0  0  0
  8  3  1  0  0  0  0
 10  1  2  0  0  0  0
 11 16  1  0  0  0  0
 12 11  1  0  0  0  0
 14 18  1  6  0  0  0
 14  9  1  0  0  0  0
 15  3  1  1  0  0  0
 15  4  1  0  0  0  0
 17 18  2  0  0  0  0
 19 18  1  0  0  0  0
 19 20  1  0  0  0  0
 20 21  1  0  0  0  0
 21 24  1  0  0  0  0
 24 25  1  0  0  0  0
 24 22  1  0  0  0  0
 24 23  1  0  0  0  0
 26 27  1  0  0  0  0
 27 30  1  0  0  0  0
 29 28  2  0  0  0  0
 30 31  2  0  0  0  0
 31 29  1  0  0  0  0
 32 34  1  0  0  0  0
 33 30  1  0  0  0  0
 33 32  2  0  0  0  0
 34 28  1  0  0  0  0
M  END
>  <MODEL>
8

>  <REMARK>
 VINA RESULT:      -7.0      2.473      4.289
  Name = 
  8 active torsions:
  status: ('A' for Active; 'I' for Inactive)
    1  A    between atoms: C_5  and  C_26
    2  A    between atoms: C_12  and  O_28
    3  A    between atoms: O_13  and  C_17
    4  A    between atoms: O_13  and  C_33
    5  A    between atoms: C_17  and  C_29
    6  A    between atoms: C_20  and  C_34
    7  A    between atoms: C_26  and  O_28
    8  A    between atoms: C_33  and  C_34
                            x       y       z     vdW  Elec       q    Type
                         _______ _______ _______ _____ _____    ______ ____

>  <TORSDO>
F 8

$$$$
=
 OpenBabel11052414163D

 34 38  0  0  1  0  0  0  0  0999 V2000
  188.6650  177.3660  146.2420 C   0  0  0  0  0  0  0  0  0  0  0  0
  186.5190  178.4410  145.9630 C   0  0  0  0  0  0  0  0  0  0  0  0
  187.6840  177.5000  143.9740 N   0  0  0  0  0  0  0  0  0  0  0  0
  186.7090  178.1060  141.6880 C   0  0  2  0  0  3  0  0  0  0  0  0
  187.5210  178.2850  148.1000 C   0  0  0  0  0  3  0  0  0  0  0  0
  186.4950  178.6790  147.3000 N   0  0  0  0  0  0  0  0  0  0  0  0
  185.8010  179.0310  143.6760 C   0  0  2  0  0  3  0  0  0  0  0  0
  187.6170  177.7600  145.3960 C   0  0  0  0  0  0  0  0  0  0  0  0
  185.4330  178.8660  141.3060 C   0  0  0  0  0  2  0  0  0  0  0  0
  188.5880  177.6300  147.5730 N   0  0  0  0  0  0  0  0  0  0  0  0
  189.9990  176.7510  144.2050 C   0  0  0  0  0  2  0  0  0  0  0  0
  189.8170  176.5630  145.7110 C   0  0  0  0  0  2  0  0  0  0  0  0
  185.3400  178.8470  145.1170 C   0  0  0  0  0  2  0  0  0  0  0  0
  184.7720  179.3500  142.6040 C   0  0  1  0  0  3  0  0  0  0  0  0
  186.4950  177.7960  143.1680 C   0  0  2  0  0  3  0  0  0  0  0  0
  188.6710  176.5380  143.4870 C   0  0  0  0  0  2  0  0  0  0  0  0
  182.8730  178.7610  143.9200 O   0  0  0  0  0  0  0  0  0  0  0  0
  183.4760  178.6260  142.8220 C   0  0  0  0  0  0  0  0  0  0  0  0
  182.9700  177.7820  141.8300 O   0  0  0  0  0  0  0  0  0  0  0  0
  181.8030  178.1010  141.0800 C   0  0  0  0  0  2  0  0  0  0  0  0
  182.1030  178.0550  139.5820 C   0  0  0  0  0  2  0  0  0  0  0  0
  183.1290  180.1320  138.7220 C   0  0  0  0  0  1  0  0  0  0  0  0
  181.2450  179.1290  137.4900 C   0  0  0  0  0  1  0  0  0  0  0  0
  181.8240  179.3790  138.8710 C   0  0  0  0  0  0  0  0  0  0  0  0
  180.9370  180.1580  139.6130 O   0  0  0  0  0  1  0  0  0  0  0  0
  187.8990  179.0310  141.4530 C   0  0  0  0  0  2  0  0  0  0  0  0
  188.2730  179.0030  140.0810 O   0  0  0  0  0  0  0  0  0  0  0  0
  190.1040  175.8330  137.4920 C   0  0  0  0  0  3  0  0  0  0  0  0
  188.8270  176.1930  137.6040 C   0  0  0  0  0  3  0  0  0  0  0  0
  188.8790  177.9000  139.4710 C   0  0  0  0  0  0  0  0  0  0  0  0
  188.3320  177.3570  138.3660 C   0  0  0  0  0  3  0  0  0  0  0  0
  191.1050  176.7560  139.5470 C   0  0  0  0  0  3  0  0  0  0  0  0
  190.0740  177.3530  140.1450 C   0  0  0  0  0  3  0  0  0  0  0  0
  191.2270  176.6300  138.0660 C   0  0  0  0  0  2  0  0  0  0  0  0
  1 10  1  0  0  0  0
  2  6  2  0  0  0  0
  3  8  1  0  0  0  0
  4 26  1  1  0  0  0
  4 15  1  0  0  0  0
  6  5  1  0  0  0  0
  7 13  1  1  0  0  0
  8  2  1  0  0  0  0
  8  1  2  0  0  0  0
  9  4  1  0  0  0  0
  9 14  1  0  0  0  0
 10  5  2  0  0  0  0
 11 12  1  0  0  0  0
 12  1  1  0  0  0  0
 13  2  1  0  0  0  0
 14 18  1  1  0  0  0
 14  7  1  0  0  0  0
 15  7  1  0  0  0  0
 15  3  1  1  0  0  0
 16  3  1  0  0  0  0
 16 11  1  0  0  0  0
 18 17  2  0  0  0  0
 19 18  1  0  0  0  0
 20 19  1  0  0  0  0
 21 20  1  0  0  0  0
 22 24  1  0  0  0  0
 23 24  1  0  0  0  0
 24 21  1  0  0  0  0
 24 25  1  0  0  0  0
 27 26  1  0  0  0  0
 28 29  2  0  0  0  0
 28 34  1  0  0  0  0
 29 31  1  0  0  0  0
 30 27  1  0  0  0  0
 30 33  1  0  0  0  0
 31 30  2  0  0  0  0
 32 33  2  0  0  0  0
 34 32  1  0  0  0  0
M  END
>  <MODEL>
9

>  <REMARK>
 VINA RESULT:      -7.0      3.562      7.431
  Name = 
  8 active torsions:
  status: ('A' for Active; 'I' for Inactive)
    1  A    between atoms: C_5  and  C_26
    2  A    between atoms: C_12  and  O_28
    3  A    between atoms: O_13  and  C_17
    4  A    between atoms: O_13  and  C_33
    5  A    between atoms: C_17  and  C_29
    6  A    between atoms: C_20  and  C_34
    7  A    between atoms: C_26  and  O_28
    8  A    between atoms: C_33  and  C_34
                            x       y       z     vdW  Elec       q    Type
                         _______ _______ _______ _____ _____    ______ ____

>  <TORSDO>
F 8

$$$$
