=
 OpenBabel11052415513D

 34 39  0  0  1  0  0  0  0  0999 V2000
  189.3990  178.2940  143.6440 C   0  0  1  0  0  3  0  0  0  0  0  0
  191.5380  177.2540  140.6690 C   0  0  0  0  0  2  0  0  0  0  0  0
  191.6960  176.7660  143.1770 C   0  0  0  0  0  3  0  0  0  0  0  0
  188.1520  178.0510  145.4520 N   0  0  0  0  0  0  0  0  0  0  0  0
  188.1720  178.2410  144.0620 N   0  0  0  0  0  2  0  0  0  0  0  0
  189.8530  176.9280  146.8160 C   0  0  0  0  0  2  0  0  0  0  0  0
  191.1950  176.2890  146.7450 C   0  0  0  0  0  3  0  0  0  0  0  0
  189.4910  177.7930  145.8570 C   0  0  1  0  0  3  0  0  0  0  0  0
  191.3680  177.0510  144.4450 C   0  0  0  0  0  0  0  0  0  0  0  0
  190.3950  178.1530  144.7380 C   0  0  1  0  0  3  0  0  0  0  0  0
  191.9100  176.3170  145.6030 C   0  0  0  0  0  3  0  0  0  0  0  0
  190.6570  176.4590  139.8250 N   0  0  0  0  0  0  0  0  0  0  0  0
  189.4600  176.8100  139.4600 C   0  0  0  0  0  0  0  0  0  0  0  0
  188.8130  178.0550  139.9490 C   0  0  0  0  0  3  0  0  0  0  0  0
  190.9710  177.4080  142.0390 C   0  0  0  0  0  0  0  0  0  0  0  0
  188.9650  178.6060  141.1580 C   0  0  0  0  0  3  0  0  0  0  0  0
  189.8170  178.0860  142.2480 C   0  0  0  0  0  0  0  0  0  0  0  0
  188.7800  175.9810  138.5610 O   0  0  0  0  0  0  0  0  0  0  0  0
  188.2490  176.4400  137.3230 C   0  0  0  0  0  2  0  0  0  0  0  0
  189.3650  176.9600  136.4360 C   0  0  0  0  0  1  0  0  0  0  0  0
  186.9680  177.5860  146.1630 C   0  0  0  0  0  2  0  0  0  0  0  0
  183.4760  178.9010  145.5060 C   0  0  0  0  0  3  0  0  0  0  0  0
  185.6460  177.8700  144.0570 C   0  0  0  0  0  3  0  0  0  0  0  0
  182.1250  179.0060  142.0570 C   0  0  0  0  0  0  0  0  0  0  0  0
  182.2180  179.1430  143.4500 C   0  0  0  0  0  3  0  0  0  0  0  0
  183.3850  178.7670  144.1180 C   0  0  0  0  0  0  0  0  0  0  0  0
  184.3860  178.1110  142.0020 C   0  0  0  0  0  3  0  0  0  0  0  0
  184.4780  178.2470  143.3890 C   0  0  0  0  0  0  0  0  0  0  0  0
  183.2150  178.4880  141.3390 C   0  0  0  0  0  3  0  0  0  0  0  0
  185.7340  178.0140  145.4470 C   0  0  0  0  0  0  0  0  0  0  0  0
  184.6480  178.5220  146.1680 C   0  0  0  0  0  3  0  0  0  0  0  0
  180.8920  179.4030  141.3580 C   0  0  0  0  0  0  0  0  0  0  0  0
  180.4970  178.7650  140.3460 O   0  0  0  0  0  0  0  0  0  0  0  0
  180.1510  180.4890  141.8100 O   0  0  0  0  0  1  0  0  0  0  0  0
  1 17  1  6  0  0  0
  1  5  1  0  0  0  0
  1 10  1  0  0  0  0
  2 15  1  0  0  0  0
  3  9  2  0  0  0  0
  4  8  1  0  0  0  0
  4 21  1  0  0  0  0
  5  4  1  0  0  0  0
  7  6  1  0  0  0  0
  8  6  1  6  0  0  0
  9 11  1  0  0  0  0
 10  9  1  6  0  0  0
 10  8  1  0  0  0  0
 11  7  2  0  0  0  0
 12  2  1  0  0  0  0
 13 12  2  0  0  0  0
 13 14  1  0  0  0  0
 14 16  2  0  0  0  0
 15 17  2  0  0  0  0
 15  3  1  0  0  0  0
 16 17  1  0  0  0  0
 18 13  1  0  0  0  0
 19 18  1  0  0  0  0
 20 19  1  0  0  0  0
 22 31  1  0  0  0  0
 23 30  1  0  0  0  0
 24 25  2  0  0  0  0
 25 26  1  0  0  0  0
 26 22  2  0  0  0  0
 27 28  1  0  0  0  0
 28 23  2  0  0  0  0
 28 26  1  0  0  0  0
 29 27  2  0  0  0  0
 29 24  1  0  0  0  0
 30 21  1  0  0  0  0
 30 31  2  0  0  0  0
 32 34  1  0  0  0  0
 32 24  1  0  0  0  0
 33 32  2  0  0  0  0
M  END
>  <MODEL>
1

>  <REMARK>
 VINA RESULT:     -10.5      0.000      0.000
  Name = 
  5 active torsions:
  status: ('A' for Active; 'I' for Inactive)
    1  A    between atoms: O_3  and  C_13
    2  A    between atoms: O_3  and  C_25
    3  A    between atoms: C_7  and  C_11
    4  A    between atoms: N_8  and  C_18
    5  A    between atoms: C_18  and  C_30
                            x       y       z     vdW  Elec       q    Type
                         _______ _______ _______ _____ _____    ______ ____

>  <TORSDO>
F 5

$$$$
=
 OpenBabel11052415513D

 34 39  0  0  1  0  0  0  0  0999 V2000
  188.8770  178.1920  141.9660 C   0  0  1  0  0  3  0  0  0  0  0  0
  190.6510  177.0630  138.7900 C   0  0  0  0  0  2  0  0  0  0  0  0
  191.2120  176.8130  141.2750 C   0  0  0  0  0  3  0  0  0  0  0  0
  187.9310  178.0140  143.9540 N   0  0  0  0  0  0  0  0  0  0  0  0
  187.7330  178.0810  142.5670 N   0  0  0  0  0  2  0  0  0  0  0  0
  189.9050  177.1530  145.1280 C   0  0  0  0  0  2  0  0  0  0  0  0
  191.2750  176.6170  144.9030 C   0  0  0  0  0  3  0  0  0  0  0  0
  189.3320  177.8980  144.1710 C   0  0  1  0  0  3  0  0  0  0  0  0
  191.0450  177.1840  142.5530 C   0  0  0  0  0  0  0  0  0  0  0  0
  190.0290  178.2280  142.9040 C   0  0  1  0  0  3  0  0  0  0  0  0
  191.8130  176.6000  143.6680 C   0  0  0  0  0  3  0  0  0  0  0  0
  189.7340  176.1290  138.1520 N   0  0  0  0  0  0  0  0  0  0  0  0
  188.4700  176.3520  137.9460 C   0  0  0  0  0  0  0  0  0  0  0  0
  187.7900  177.5810  138.4310 C   0  0  0  0  0  3  0  0  0  0  0  0
  190.2760  177.2930  140.2140 C   0  0  0  0  0  0  0  0  0  0  0  0
  188.0640  178.2470  139.5570 C   0  0  0  0  0  3  0  0  0  0  0  0
  189.1070  177.8940  140.5430 C   0  0  0  0  0  0  0  0  0  0  0  0
  187.7460  175.3960  137.2250 O   0  0  0  0  0  0  0  0  0  0  0  0
  186.5620  175.6980  136.4960 C   0  0  0  0  0  2  0  0  0  0  0  0
  185.3800  174.9510  137.0850 C   0  0  0  0  0  1  0  0  0  0  0  0
  186.9080  177.5230  144.8690 C   0  0  0  0  0  2  0  0  0  0  0  0
  183.4300  179.0140  145.0430 C   0  0  0  0  0  3  0  0  0  0  0  0
  185.1540  177.9060  143.1270 C   0  0  0  0  0  3  0  0  0  0  0  0
  181.3280  179.2420  141.9990 C   0  0  0  0  0  0  0  0  0  0  0  0
  181.7470  179.3510  143.3340 C   0  0  0  0  0  3  0  0  0  0  0  0
  183.0160  178.9080  143.7130 C   0  0  0  0  0  0  0  0  0  0  0  0
  183.4680  178.2410  141.4190 C   0  0  0  0  0  3  0  0  0  0  0  0
  183.8840  178.3490  142.7480 C   0  0  0  0  0  0  0  0  0  0  0  0
  182.1960  178.6850  141.0470 C   0  0  0  0  0  3  0  0  0  0  0  0
  185.5650  178.0210  144.4590 C   0  0  0  0  0  0  0  0  0  0  0  0
  184.7020  178.5690  145.4150 C   0  0  0  0  0  3  0  0  0  0  0  0
  179.9890  179.7100  141.6060 C   0  0  0  0  0  0  0  0  0  0  0  0
  179.1520  178.9080  141.1140 O   0  0  0  0  0  0  0  0  0  0  0  0
  179.6370  181.0440  141.7740 O   0  0  0  0  0  1  0  0  0  0  0  0
  1 17  1  6  0  0  0
  1  5  1  0  0  0  0
  1 10  1  0  0  0  0
  2 15  1  0  0  0  0
  3  9  2  0  0  0  0
  4  8  1  0  0  0  0
  4 21  1  0  0  0  0
  5  4  1  0  0  0  0
  7  6  1  0  0  0  0
  8  6  1  6  0  0  0
  9 11  1  0  0  0  0
 10  9  1  6  0  0  0
 10  8  1  0  0  0  0
 11  7  2  0  0  0  0
 12  2  1  0  0  0  0
 13 12  2  0  0  0  0
 13 14  1  0  0  0  0
 14 16  2  0  0  0  0
 15 17  2  0  0  0  0
 15  3  1  0  0  0  0
 16 17  1  0  0  0  0
 18 13  1  0  0  0  0
 19 20  1  0  0  0  0
 19 18  1  0  0  0  0
 22 31  1  0  0  0  0
 23 30  1  0  0  0  0
 24 25  2  0  0  0  0
 25 26  1  0  0  0  0
 26 22  2  0  0  0  0
 27 28  1  0  0  0  0
 28 23  2  0  0  0  0
 28 26  1  0  0  0  0
 29 27  2  0  0  0  0
 29 24  1  0  0  0  0
 30 21  1  0  0  0  0
 30 31  2  0  0  0  0
 32 34  1  0  0  0  0
 32 24  1  0  0  0  0
 33 32  2  0  0  0  0
M  END
>  <MODEL>
2

>  <REMARK>
 VINA RESULT:      -9.9      1.176      1.703
  Name = 
  5 active torsions:
  status: ('A' for Active; 'I' for Inactive)
    1  A    between atoms: O_3  and  C_13
    2  A    between atoms: O_3  and  C_25
    3  A    between atoms: C_7  and  C_11
    4  A    between atoms: N_8  and  C_18
    5  A    between atoms: C_18  and  C_30
                            x       y       z     vdW  Elec       q    Type
                         _______ _______ _______ _____ _____    ______ ____

>  <TORSDO>
F 5

$$$$
=
 OpenBabel11052415513D

 34 39  0  0  1  0  0  0  0  0999 V2000
  181.4910  179.5480  139.2960 C   0  0  1  0  0  3  0  0  0  0  0  0
  179.4800  180.7840  136.3060 C   0  0  0  0  0  2  0  0  0  0  0  0
  179.2490  178.7400  137.8290 C   0  0  0  0  0  3  0  0  0  0  0  0
  181.8740  178.8640  141.3620 N   0  0  0  0  0  0  0  0  0  0  0  0
  181.8910  179.9430  140.4650 N   0  0  0  0  0  2  0  0  0  0  0  0
  180.4130  176.8970  141.2810 C   0  0  0  0  0  2  0  0  0  0  0  0
  179.3630  176.2340  140.4590 C   0  0  0  0  0  3  0  0  0  0  0  0
  181.2360  177.7800  140.6980 C   0  0  1  0  0  3  0  0  0  0  0  0
  179.7660  177.8860  138.7250 C   0  0  0  0  0  0  0  0  0  0  0  0
  181.1520  178.1020  139.2530 C   0  0  1  0  0  3  0  0  0  0  0  0
  179.0280  176.7220  139.2490 C   0  0  0  0  0  3  0  0  0  0  0  0
  178.9310  182.0680  136.7200 N   0  0  0  0  0  0  0  0  0  0  0  0
  179.6140  183.0260  137.2720 C   0  0  0  0  0  0  0  0  0  0  0  0
  181.0490  182.8760  137.6280 C   0  0  0  0  0  3  0  0  0  0  0  0
  179.9630  180.0050  137.4820 C   0  0  0  0  0  0  0  0  0  0  0  0
  181.6490  181.7580  138.0480 C   0  0  0  0  0  3  0  0  0  0  0  0
  181.0030  180.4420  138.2330 C   0  0  0  0  0  0  0  0  0  0  0  0
  178.9610  184.2390  137.5160 O   0  0  0  0  0  0  0  0  0  0  0  0
  179.6460  185.4690  137.7230 C   0  0  0  0  0  2  0  0  0  0  0  0
  179.3050  186.0330  139.0890 C   0  0  0  0  0  1  0  0  0  0  0  0
  181.9080  179.0450  142.8070 C   0  0  0  0  0  2  0  0  0  0  0  0
  185.5460  177.9990  142.9560 C   0  0  0  0  0  3  0  0  0  0  0  0
  183.5210  178.8350  144.7080 C   0  0  0  0  0  3  0  0  0  0  0  0
  187.3390  177.8860  146.1970 C   0  0  0  0  0  0  0  0  0  0  0  0
  187.0750  177.7870  144.8220 C   0  0  0  0  0  3  0  0  0  0  0  0
  185.8090  178.1010  144.3240 C   0  0  0  0  0  0  0  0  0  0  0  0
  185.0510  178.6210  146.5750 C   0  0  0  0  0  3  0  0  0  0  0  0
  184.7890  178.5220  145.2070 C   0  0  0  0  0  0  0  0  0  0  0  0
  186.3210  178.3040  147.0670 C   0  0  0  0  0  3  0  0  0  0  0  0
  183.2660  178.7380  143.3360 C   0  0  0  0  0  0  0  0  0  0  0  0
  184.2760  178.3150  142.4630 C   0  0  0  0  0  3  0  0  0  0  0  0
  188.6760  177.5540  146.7160 C   0  0  0  0  0  0  0  0  0  0  0  0
  189.6240  177.3040  145.9250 O   0  0  0  0  0  0  0  0  0  0  0  0
  188.9030  177.5110  148.0870 O   0  0  0  0  0  1  0  0  0  0  0  0
  1 17  1  1  0  0  0
  1  5  1  0  0  0  0
  2 12  1  0  0  0  0
  2 15  1  0  0  0  0
  3  9  2  0  0  0  0
  4 21  1  0  0  0  0
  5  4  1  0  0  0  0
  7  6  1  0  0  0  0
  8  6  1  1  0  0  0
  8  4  1  0  0  0  0
  9 11  1  0  0  0  0
 10  9  1  1  0  0  0
 10  1  1  0  0  0  0
 10  8  1  0  0  0  0
 11  7  2  0  0  0  0
 12 13  2  0  0  0  0
 13 18  1  0  0  0  0
 13 14  1  0  0  0  0
 14 16  2  0  0  0  0
 15  3  1  0  0  0  0
 15 17  2  0  0  0  0
 16 17  1  0  0  0  0
 18 19  1  0  0  0  0
 19 20  1  0  0  0  0
 21 30  1  0  0  0  0
 22 26  1  0  0  0  0
 23 28  1  0  0  0  0
 24 32  1  0  0  0  0
 24 29  1  0  0  0  0
 25 24  2  0  0  0  0
 26 25  1  0  0  0  0
 26 28  2  0  0  0  0
 27 29  2  0  0  0  0
 28 27  1  0  0  0  0
 30 23  2  0  0  0  0
 31 22  2  0  0  0  0
 31 30  1  0  0  0  0
 32 34  1  0  0  0  0
 33 32  2  0  0  0  0
M  END
>  <MODEL>
3

>  <REMARK>
 VINA RESULT:      -9.3      4.725      9.772
  Name = 
  5 active torsions:
  status: ('A' for Active; 'I' for Inactive)
    1  A    between atoms: O_3  and  C_13
    2  A    between atoms: O_3  and  C_25
    3  A    between atoms: C_7  and  C_11
    4  A    between atoms: N_8  and  C_18
    5  A    between atoms: C_18  and  C_30
                            x       y       z     vdW  Elec       q    Type
                         _______ _______ _______ _____ _____    ______ ____

>  <TORSDO>
F 5

$$$$
=
 OpenBabel11052415513D

 34 39  0  0  1  0  0  0  0  0999 V2000
  189.6320  176.0130  137.8030 C   0  0  1  0  0  3  0  0  0  0  0  0
  192.0130  175.0350  134.9950 C   0  0  0  0  0  2  0  0  0  0  0  0
  189.5980  175.8850  135.0080 C   0  0  0  0  0  3  0  0  0  0  0  0
  188.2410  177.2850  138.9550 N   0  0  0  0  0  0  0  0  0  0  0  0
  189.5570  176.8200  138.8160 N   0  0  0  0  0  2  0  0  0  0  0  0
  186.5700  177.5530  137.1800 C   0  0  0  0  0  2  0  0  0  0  0  0
  186.3360  177.3160  135.7290 C   0  0  0  0  0  3  0  0  0  0  0  0
  187.5200  176.8460  137.8100 C   0  0  1  0  0  3  0  0  0  0  0  0
  188.4420  176.1090  135.6500 C   0  0  0  0  0  0  0  0  0  0  0  0
  188.3300  175.8170  137.1150 C   0  0  1  0  0  3  0  0  0  0  0  0
  187.2440  176.6540  134.9860 C   0  0  0  0  0  3  0  0  0  0  0  0
  193.1180  175.9790  135.0860 N   0  0  0  0  0  0  0  0  0  0  0  0
  193.7570  176.2730  136.1800 C   0  0  0  0  0  0  0  0  0  0  0  0
  193.3580  175.7290  137.5040 C   0  0  0  0  0  3  0  0  0  0  0  0
  190.8320  175.5190  135.7660 C   0  0  0  0  0  0  0  0  0  0  0  0
  192.1120  175.4620  137.9090 C   0  0  0  0  0  3  0  0  0  0  0  0
  190.8810  175.6500  137.1140 C   0  0  0  0  0  0  0  0  0  0  0  0
  194.8650  177.1210  136.0820 O   0  0  0  0  0  0  0  0  0  0  0  0
  195.6420  177.2600  134.8980 C   0  0  0  0  0  2  0  0  0  0  0  0
  196.2350  178.6540  134.8230 C   0  0  0  0  0  1  0  0  0  0  0  0
  187.9050  178.4640  139.7430 C   0  0  0  0  0  2  0  0  0  0  0  0
  186.9660  177.7170  143.3370 C   0  0  0  0  0  3  0  0  0  0  0  0
  189.2820  178.1110  141.8030 C   0  0  0  0  0  3  0  0  0  0  0  0
  189.5900  177.3420  145.9270 C   0  0  0  0  0  0  0  0  0  0  0  0
  188.3300  177.4010  145.3140 C   0  0  0  0  0  3  0  0  0  0  0  0
  188.2220  177.6560  143.9450 C   0  0  0  0  0  0  0  0  0  0  0  0
  190.6440  177.7970  143.7820 C   0  0  0  0  0  3  0  0  0  0  0  0
  189.3880  177.8550  143.1720 C   0  0  0  0  0  0  0  0  0  0  0  0
  190.7440  177.5420  145.1520 C   0  0  0  0  0  3  0  0  0  0  0  0
  188.0200  178.1640  141.1980 C   0  0  0  0  0  0  0  0  0  0  0  0
  186.8660  177.9730  141.9660 C   0  0  0  0  0  3  0  0  0  0  0  0
  189.6970  177.0740  147.3700 C   0  0  0  0  0  0  0  0  0  0  0  0
  188.6650  176.8380  148.0530 O   0  0  0  0  0  1  0  0  0  0  0  0
  190.9400  177.0790  147.9930 O   0  0  0  0  0  0  0  0  0  0  0  0
  1 17  1  6  0  0  0
  1  5  1  0  0  0  0
  2 12  1  0  0  0  0
  2 15  1  0  0  0  0
  3  9  2  0  0  0  0
  3 15  1  0  0  0  0
  4 21  1  0  0  0  0
  5  4  1  0  0  0  0
  7  6  1  0  0  0  0
  8  6  1  6  0  0  0
  8  4  1  0  0  0  0
 10  9  1  6  0  0  0
 10  1  1  0  0  0  0
 10  8  1  0  0  0  0
 11  9  1  0  0  0  0
 11  7  2  0  0  0  0
 12 13  2  0  0  0  0
 13 14  1  0  0  0  0
 14 16  2  0  0  0  0
 15 17  2  0  0  0  0
 17 16  1  0  0  0  0
 18 13  1  0  0  0  0
 19 18  1  0  0  0  0
 20 19  1  0  0  0  0
 21 30  1  0  0  0  0
 22 26  1  0  0  0  0
 23 28  1  0  0  0  0
 24 32  1  0  0  0  0
 25 24  1  0  0  0  0
 26 25  2  0  0  0  0
 27 29  1  0  0  0  0
 28 27  2  0  0  0  0
 28 26  1  0  0  0  0
 29 24  2  0  0  0  0
 30 23  2  0  0  0  0
 30 31  1  0  0  0  0
 31 22  2  0  0  0  0
 32 34  2  0  0  0  0
 32 33  1  0  0  0  0
M  END
>  <MODEL>
4

>  <REMARK>
 VINA RESULT:      -9.3      4.103      7.686
  Name = 
  5 active torsions:
  status: ('A' for Active; 'I' for Inactive)
    1  A    between atoms: O_3  and  C_13
    2  A    between atoms: O_3  and  C_25
    3  A    between atoms: C_7  and  C_11
    4  A    between atoms: N_8  and  C_18
    5  A    between atoms: C_18  and  C_30
                            x       y       z     vdW  Elec       q    Type
                         _______ _______ _______ _____ _____    ______ ____

>  <TORSDO>
F 5

$$$$
=
 OpenBabel11052415513D

 34 39  0  0  1  0  0  0  0  0999 V2000
  189.8030  175.9940  137.8290 C   0  0  1  0  0  3  0  0  0  0  0  0
  191.8920  175.4210  134.6960 C   0  0  0  0  0  2  0  0  0  0  0  0
  189.5930  176.4790  135.0810 C   0  0  0  0  0  3  0  0  0  0  0  0
  188.6320  177.1150  139.3300 N   0  0  0  0  0  0  0  0  0  0  0  0
  189.8780  176.5660  138.9910 N   0  0  0  0  0  2  0  0  0  0  0  0
  186.9030  177.9230  137.7910 C   0  0  0  0  0  2  0  0  0  0  0  0
  186.5600  178.0310  136.3460 C   0  0  0  0  0  3  0  0  0  0  0  0
  187.8010  177.0070  138.1810 C   0  0  1  0  0  3  0  0  0  0  0  0
  188.5080  176.6700  135.8460 C   0  0  0  0  0  0  0  0  0  0  0  0
  188.4490  176.0790  137.2230 C   0  0  1  0  0  3  0  0  0  0  0  0
  187.3430  177.4600  135.4100 C   0  0  0  0  0  3  0  0  0  0  0  0
  193.1000  176.2100  134.8930 N   0  0  0  0  0  0  0  0  0  0  0  0
  193.8300  176.1970  135.9690 C   0  0  0  0  0  0  0  0  0  0  0  0
  193.4500  175.4200  137.1780 C   0  0  0  0  0  3  0  0  0  0  0  0
  190.8200  175.8380  135.6440 C   0  0  0  0  0  0  0  0  0  0  0  0
  192.2080  175.1950  137.6180 C   0  0  0  0  0  3  0  0  0  0  0  0
  190.9610  175.6690  136.9810 C   0  0  0  0  0  0  0  0  0  0  0  0
  195.0190  176.9340  135.9630 O   0  0  0  0  0  0  0  0  0  0  0  0
  195.7190  177.2780  134.7730 C   0  0  0  0  0  2  0  0  0  0  0  0
  196.1840  178.7200  134.8390 C   0  0  0  0  0  1  0  0  0  0  0  0
  188.4770  178.1230  140.3720 C   0  0  0  0  0  2  0  0  0  0  0  0
  191.4590  177.1100  142.4770 C   0  0  0  0  0  3  0  0  0  0  0  0
  188.7500  177.7440  142.8310 C   0  0  0  0  0  3  0  0  0  0  0  0
  191.1200  176.6970  146.1440 C   0  0  0  0  0  0  0  0  0  0  0  0
  191.6820  176.7320  144.8590 C   0  0  0  0  0  3  0  0  0  0  0  0
  190.8990  177.0780  143.7560 C   0  0  0  0  0  0  0  0  0  0  0  0
  188.9730  177.3640  145.2130 C   0  0  0  0  0  3  0  0  0  0  0  0
  189.5340  177.3980  143.9340 C   0  0  0  0  0  0  0  0  0  0  0  0
  189.7630  177.0150  146.3120 C   0  0  0  0  0  3  0  0  0  0  0  0
  189.3190  177.7800  141.5520 C   0  0  0  0  0  0  0  0  0  0  0  0
  190.6690  177.4580  141.3770 C   0  0  0  0  0  3  0  0  0  0  0  0
  191.9510  176.3300  147.3020 C   0  0  0  0  0  0  0  0  0  0  0  0
  192.5960  175.2490  147.3080 O   0  0  0  0  0  0  0  0  0  0  0  0
  192.0290  177.1760  148.4030 O   0  0  0  0  0  1  0  0  0  0  0  0
  1 17  1  6  0  0  0
  1  5  1  0  0  0  0
  2 12  1  0  0  0  0
  2 15  1  0  0  0  0
  3 15  1  0  0  0  0
  3  9  2  0  0  0  0
  4 21  1  0  0  0  0
  5  4  1  0  0  0  0
  7  6  1  0  0  0  0
  8  6  1  6  0  0  0
  8  4  1  0  0  0  0
 10  9  1  6  0  0  0
 10  1  1  0  0  0  0
 10  8  1  0  0  0  0
 11  9  1  0  0  0  0
 11  7  2  0  0  0  0
 12 13  2  0  0  0  0
 13 14  1  0  0  0  0
 14 16  2  0  0  0  0
 15 17  2  0  0  0  0
 17 16  1  0  0  0  0
 18 13  1  0  0  0  0
 19 20  1  0  0  0  0
 19 18  1  0  0  0  0
 21 30  1  0  0  0  0
 22 26  1  0  0  0  0
 23 28  1  0  0  0  0
 24 29  1  0  0  0  0
 24 32  1  0  0  0  0
 25 24  2  0  0  0  0
 26 28  2  0  0  0  0
 26 25  1  0  0  0  0
 27 29  2  0  0  0  0
 28 27  1  0  0  0  0
 30 23  2  0  0  0  0
 31 30  1  0  0  0  0
 31 22  2  0  0  0  0
 32 33  2  0  0  0  0
 32 34  1  0  0  0  0
M  END
>  <MODEL>
5

>  <REMARK>
 VINA RESULT:      -9.3      4.960      8.261
  Name = 
  5 active torsions:
  status: ('A' for Active; 'I' for Inactive)
    1  A    between atoms: O_3  and  C_13
    2  A    between atoms: O_3  and  C_25
    3  A    between atoms: C_7  and  C_11
    4  A    between atoms: N_8  and  C_18
    5  A    between atoms: C_18  and  C_30
                            x       y       z     vdW  Elec       q    Type
                         _______ _______ _______ _____ _____    ______ ____

>  <TORSDO>
F 5

$$$$
=
 OpenBabel11052415513D

 34 39  0  0  1  0  0  0  0  0999 V2000
  185.1400  177.9220  137.7440 C   0  0  1  0  0  3  0  0  0  0  0  0
  181.5470  176.7550  138.2300 C   0  0  0  0  0  2  0  0  0  0  0  0
  183.7020  175.5260  137.6000 C   0  0  0  0  0  3  0  0  0  0  0  0
  187.3290  177.9820  138.0390 N   0  0  0  0  0  0  0  0  0  0  0  0
  186.0870  178.5390  138.3810 N   0  0  0  0  0  2  0  0  0  0  0  0
  187.7720  175.6790  137.3250 C   0  0  0  0  0  2  0  0  0  0  0  0
  187.1010  174.3940  136.9880 C   0  0  0  0  0  3  0  0  0  0  0  0
  187.0660  176.8180  137.2660 C   0  0  1  0  0  3  0  0  0  0  0  0
  184.9650  175.5390  137.1490 C   0  0  0  0  0  0  0  0  0  0  0  0
  185.6420  176.8430  136.8540 C   0  0  1  0  0  3  0  0  0  0  0  0
  185.7570  174.3140  136.9350 C   0  0  0  0  0  3  0  0  0  0  0  0
  181.2440  177.0250  139.6290 N   0  0  0  0  0  0  0  0  0  0  0  0
  181.4720  178.1530  140.2350 C   0  0  0  0  0  0  0  0  0  0  0  0
  182.1640  179.2870  139.5700 C   0  0  0  0  0  3  0  0  0  0  0  0
  183.0160  176.7970  137.9830 C   0  0  0  0  0  0  0  0  0  0  0  0
  183.1400  179.1970  138.6610 C   0  0  0  0  0  3  0  0  0  0  0  0
  183.7200  177.9460  138.1290 C   0  0  0  0  0  0  0  0  0  0  0  0
  181.0270  178.2880  141.5540 O   0  0  0  0  0  0  0  0  0  0  0  0
  181.7200  179.0440  142.5400 C   0  0  0  0  0  2  0  0  0  0  0  0
  181.2290  178.6710  143.9260 C   0  0  0  0  0  1  0  0  0  0  0  0
  188.5290  178.1920  138.8400 C   0  0  0  0  0  2  0  0  0  0  0  0
  188.7930  177.3140  142.5160 C   0  0  0  0  0  3  0  0  0  0  0  0
  186.9980  178.5920  140.7790 C   0  0  0  0  0  3  0  0  0  0  0  0
  186.0700  178.2100  144.8630 C   0  0  0  0  0  0  0  0  0  0  0  0
  187.2780  177.7010  144.3660 C   0  0  0  0  0  3  0  0  0  0  0  0
  187.5910  177.8250  143.0110 C   0  0  0  0  0  0  0  0  0  0  0  0
  185.4830  178.9760  142.6300 C   0  0  0  0  0  3  0  0  0  0  0  0
  186.6860  178.4680  142.1350 C   0  0  0  0  0  0  0  0  0  0  0  0
  185.1760  178.8470  143.9880 C   0  0  0  0  0  3  0  0  0  0  0  0
  188.2080  178.0840  140.2910 C   0  0  0  0  0  0  0  0  0  0  0  0
  189.0990  177.4420  141.1570 C   0  0  0  0  0  3  0  0  0  0  0  0
  185.7460  178.0760  146.2930 C   0  0  0  0  0  0  0  0  0  0  0  0
  186.6320  177.7300  147.1180 O   0  0  0  0  0  1  0  0  0  0  0  0
  184.4560  178.3300  146.7450 O   0  0  0  0  0  0  0  0  0  0  0  0
  1 17  1  1  0  0  0
  1  5  1  0  0  0  0
  2 12  1  0  0  0  0
  3 15  1  0  0  0  0
  4  5  1  0  0  0  0
  4 21  1  0  0  0  0
  7  6  1  0  0  0  0
  8  6  1  1  0  0  0
  8  4  1  0  0  0  0
  9  3  2  0  0  0  0
 10  9  1  1  0  0  0
 10  8  1  0  0  0  0
 10  1  1  0  0  0  0
 11  7  2  0  0  0  0
 11  9  1  0  0  0  0
 12 13  2  0  0  0  0
 13 18  1  0  0  0  0
 14 13  1  0  0  0  0
 15 17  2  0  0  0  0
 15  2  1  0  0  0  0
 16 14  2  0  0  0  0
 17 16  1  0  0  0  0
 18 19  1  0  0  0  0
 19 20  1  0  0  0  0
 21 30  1  0  0  0  0
 22 26  1  0  0  0  0
 23 28  1  0  0  0  0
 24 32  1  0  0  0  0
 25 24  1  0  0  0  0
 26 25  2  0  0  0  0
 27 29  1  0  0  0  0
 28 27  2  0  0  0  0
 28 26  1  0  0  0  0
 29 24  2  0  0  0  0
 30 23  2  0  0  0  0
 30 31  1  0  0  0  0
 31 22  2  0  0  0  0
 32 34  2  0  0  0  0
 32 33  1  0  0  0  0
M  END
>  <MODEL>
6

>  <REMARK>
 VINA RESULT:      -9.3      3.408      7.773
  Name = 
  5 active torsions:
  status: ('A' for Active; 'I' for Inactive)
    1  A    between atoms: O_3  and  C_13
    2  A    between atoms: O_3  and  C_25
    3  A    between atoms: C_7  and  C_11
    4  A    between atoms: N_8  and  C_18
    5  A    between atoms: C_18  and  C_30
                            x       y       z     vdW  Elec       q    Type
                         _______ _______ _______ _____ _____    ______ ____

>  <TORSDO>
F 5

$$$$
=
 OpenBabel11052415513D

 34 39  0  0  1  0  0  0  0  0999 V2000
  188.4880  177.7420  138.2190 C   0  0  1  0  0  3  0  0  0  0  0  0
  185.8770  177.1530  135.5090 C   0  0  0  0  0  2  0  0  0  0  0  0
  188.3300  176.4580  135.7380 C   0  0  0  0  0  3  0  0  0  0  0  0
  190.0200  177.2360  139.7280 N   0  0  0  0  0  0  0  0  0  0  0  0
  188.6740  177.5500  139.4880 N   0  0  0  0  0  2  0  0  0  0  0  0
  191.5810  176.1420  138.1860 C   0  0  0  0  0  2  0  0  0  0  0  0
  191.7060  175.6250  136.7950 C   0  0  0  0  0  3  0  0  0  0  0  0
  190.6390  177.0550  138.4600 C   0  0  1  0  0  3  0  0  0  0  0  0
  189.5360  176.6010  136.3050 C   0  0  0  0  0  0  0  0  0  0  0  0
  189.7290  177.5880  137.4170 C   0  0  1  0  0  3  0  0  0  0  0  0
  190.7160  175.8150  135.9010 C   0  0  0  0  0  3  0  0  0  0  0  0
  184.8330  176.3650  136.1500 N   0  0  0  0  0  0  0  0  0  0  0  0
  184.2850  176.6470  137.2950 C   0  0  0  0  0  0  0  0  0  0  0  0
  184.7400  177.7850  138.1350 C   0  0  0  0  0  3  0  0  0  0  0  0
  187.1310  177.1360  136.3150 C   0  0  0  0  0  0  0  0  0  0  0  0
  185.9940  178.2370  138.2470 C   0  0  0  0  0  3  0  0  0  0  0  0
  187.1780  177.6950  137.5490 C   0  0  0  0  0  0  0  0  0  0  0  0
  183.2210  175.8480  137.7250 O   0  0  0  0  0  0  0  0  0  0  0  0
  182.6980  175.8890  139.0480 C   0  0  0  0  0  2  0  0  0  0  0  0
  181.2400  175.4690  139.0460 C   0  0  0  0  0  1  0  0  0  0  0  0
  190.4720  176.6130  140.9660 C   0  0  0  0  0  2  0  0  0  0  0  0
  189.0630  177.0120  144.4600 C   0  0  0  0  0  3  0  0  0  0  0  0
  188.2750  177.4670  141.8060 C   0  0  0  0  0  3  0  0  0  0  0  0
  185.6430  178.3450  144.9670 C   0  0  0  0  0  0  0  0  0  0  0  0
  186.9180  177.8250  145.2370 C   0  0  0  0  0  3  0  0  0  0  0  0
  187.7950  177.5320  144.1910 C   0  0  0  0  0  0  0  0  0  0  0  0
  186.1280  178.2780  142.5840 C   0  0  0  0  0  3  0  0  0  0  0  0
  187.3980  177.7610  142.8540 C   0  0  0  0  0  0  0  0  0  0  0  0
  185.2550  178.5680  143.6370 C   0  0  0  0  0  3  0  0  0  0  0  0
  189.5470  176.9520  142.0830 C   0  0  0  0  0  0  0  0  0  0  0  0
  189.9360  176.7200  143.4070 C   0  0  0  0  0  3  0  0  0  0  0  0
  184.7230  178.6510  146.0750 C   0  0  0  0  0  0  0  0  0  0  0  0
  185.0960  178.5180  147.2700 O   0  0  0  0  0  1  0  0  0  0  0  0
  183.4300  179.0900  145.8100 O   0  0  0  0  0  0  0  0  0  0  0  0
  1 17  1  6  0  0  0
  1  5  1  0  0  0  0
  2 12  1  0  0  0  0
  2 15  1  0  0  0  0
  3  9  2  0  0  0  0
  3 15  1  0  0  0  0
  4 21  1  0  0  0  0
  5  4  1  0  0  0  0
  7  6  1  0  0  0  0
  8  6  1  6  0  0  0
  8  4  1  0  0  0  0
 10  9  1  6  0  0  0
 10  1  1  0  0  0  0
 10  8  1  0  0  0  0
 11  9  1  0  0  0  0
 11  7  2  0  0  0  0
 12 13  2  0  0  0  0
 13 18  1  0  0  0  0
 13 14  1  0  0  0  0
 14 16  2  0  0  0  0
 15 17  2  0  0  0  0
 17 16  1  0  0  0  0
 18 19  1  0  0  0  0
 20 19  1  0  0  0  0
 21 30  1  0  0  0  0
 23 30  2  0  0  0  0
 23 28  1  0  0  0  0
 24 25  1  0  0  0  0
 24 32  1  0  0  0  0
 26 22  1  0  0  0  0
 26 25  2  0  0  0  0
 27 28  2  0  0  0  0
 27 29  1  0  0  0  0
 28 26  1  0  0  0  0
 29 24  2  0  0  0  0
 30 31  1  0  0  0  0
 31 22  2  0  0  0  0
 32 33  1  0  0  0  0
 34 32  2  0  0  0  0
M  END
>  <MODEL>
7

>  <REMARK>
 VINA RESULT:      -9.3      2.950      6.379
  Name = 
  5 active torsions:
  status: ('A' for Active; 'I' for Inactive)
    1  A    between atoms: O_3  and  C_13
    2  A    between atoms: O_3  and  C_25
    3  A    between atoms: C_7  and  C_11
    4  A    between atoms: N_8  and  C_18
    5  A    between atoms: C_18  and  C_30
                            x       y       z     vdW  Elec       q    Type
                         _______ _______ _______ _____ _____    ______ ____

>  <TORSDO>
F 5

$$$$
=
 OpenBabel11052415513D

 34 39  0  0  1  0  0  0  0  0999 V2000
  187.6840  178.1770  138.4870 C   0  0  1  0  0  3  0  0  0  0  0  0
  184.2860  177.6450  136.8490 C   0  0  0  0  0  2  0  0  0  0  0  0
  186.6720  177.0580  136.1300 C   0  0  0  0  0  3  0  0  0  0  0  0
  189.6670  177.6450  139.3040 N   0  0  0  0  0  0  0  0  0  0  0  0
  188.3180  177.9080  139.5870 N   0  0  0  0  0  2  0  0  0  0  0  0
  190.5930  176.7370  137.2230 C   0  0  0  0  0  2  0  0  0  0  0  0
  190.2200  176.3230  135.8420 C   0  0  0  0  0  3  0  0  0  0  0  0
  189.7920  177.5820  137.8880 C   0  0  1  0  0  3  0  0  0  0  0  0
  187.9990  177.2220  136.2400 C   0  0  0  0  0  0  0  0  0  0  0  0
  188.5570  178.1390  137.2860 C   0  0  1  0  0  3  0  0  0  0  0  0
  188.9710  176.5240  135.3780 C   0  0  0  0  0  3  0  0  0  0  0  0
  183.5600  176.7640  137.7540 N   0  0  0  0  0  0  0  0  0  0  0  0
  183.4550  176.9400  139.0380 C   0  0  0  0  0  0  0  0  0  0  0  0
  184.1570  178.0400  139.7500 C   0  0  0  0  0  3  0  0  0  0  0  0
  185.7460  177.6350  137.1510 C   0  0  0  0  0  0  0  0  0  0  0  0
  185.3560  178.5440  139.4440 C   0  0  0  0  0  3  0  0  0  0  0  0
  186.2220  178.1100  138.3270 C   0  0  0  0  0  0  0  0  0  0  0  0
  182.6340  176.0620  139.7530 O   0  0  0  0  0  0  0  0  0  0  0  0
  181.2260  175.9830  139.5700 C   0  0  0  0  0  2  0  0  0  0  0  0
  180.5410  177.1370  140.2770 C   0  0  0  0  0  1  0  0  0  0  0  0
  190.5470  176.9630  140.2440 C   0  0  0  0  0  2  0  0  0  0  0  0
  190.7030  178.0810  143.8600 C   0  0  0  0  0  3  0  0  0  0  0  0
  188.8450  176.9630  142.0790 C   0  0  0  0  0  3  0  0  0  0  0  0
  187.7390  177.7500  146.0600 C   0  0  0  0  0  0  0  0  0  0  0  0
  189.0370  178.0470  145.6190 C   0  0  0  0  0  3  0  0  0  0  0  0
  189.4090  177.7870  144.2980 C   0  0  0  0  0  0  0  0  0  0  0  0
  187.1810  176.9280  143.8400 C   0  0  0  0  0  3  0  0  0  0  0  0
  188.4740  177.2240  143.4010 C   0  0  0  0  0  0  0  0  0  0  0  0
  186.8160  177.1890  145.1630 C   0  0  0  0  0  3  0  0  0  0  0  0
  190.1410  177.2660  141.6450 C   0  0  0  0  0  0  0  0  0  0  0  0
  191.0680  177.8180  142.5370 C   0  0  0  0  0  3  0  0  0  0  0  0
  187.3530  178.0250  147.4540 C   0  0  0  0  0  0  0  0  0  0  0  0
  186.4850  178.9000  147.7150 O   0  0  0  0  0  0  0  0  0  0  0  0
  187.9460  177.3210  148.4960 O   0  0  0  0  0  1  0  0  0  0  0  0
  1 17  1  6  0  0  0
  1  5  1  0  0  0  0
  2 15  1  0  0  0  0
  2 12  1  0  0  0  0
  3  9  2  0  0  0  0
  3 15  1  0  0  0  0
  4  5  1  0  0  0  0
  4 21  1  0  0  0  0
  7  6  1  0  0  0  0
  8  6  1  1  0  0  0
  8  4  1  0  0  0  0
 10  9  1  6  0  0  0
 10  8  1  0  0  0  0
 10  1  1  0  0  0  0
 11  7  2  0  0  0  0
 11  9  1  0  0  0  0
 12 13  2  0  0  0  0
 13 14  1  0  0  0  0
 13 18  1  0  0  0  0
 15 17  2  0  0  0  0
 16 14  2  0  0  0  0
 17 16  1  0  0  0  0
 19 18  1  0  0  0  0
 19 20  1  0  0  0  0
 21 30  1  0  0  0  0
 22 26  1  0  0  0  0
 23 28  1  0  0  0  0
 24 32  1  0  0  0  0
 25 24  1  0  0  0  0
 26 25  2  0  0  0  0
 27 29  1  0  0  0  0
 28 27  2  0  0  0  0
 28 26  1  0  0  0  0
 29 24  2  0  0  0  0
 30 23  2  0  0  0  0
 30 31  1  0  0  0  0
 31 22  2  0  0  0  0
 32 33  2  0  0  0  0
 32 34  1  0  0  0  0
M  END
>  <MODEL>
8

>  <REMARK>
 VINA RESULT:      -9.2      3.271      7.369
  Name = 
  5 active torsions:
  status: ('A' for Active; 'I' for Inactive)
    1  A    between atoms: O_3  and  C_13
    2  A    between atoms: O_3  and  C_25
    3  A    between atoms: C_7  and  C_11
    4  A    between atoms: N_8  and  C_18
    5  A    between atoms: C_18  and  C_30
                            x       y       z     vdW  Elec       q    Type
                         _______ _______ _______ _____ _____    ______ ____

>  <TORSDO>
F 5

$$$$
=
 OpenBabel11052415513D

 34 39  0  0  1  0  0  0  0  0999 V2000
  182.1600  176.3680  139.7090 C   0  0  1  0  0  3  0  0  0  0  0  0
  180.9240  174.6810  136.5250 C   0  0  0  0  0  2  0  0  0  0  0  0
  179.9800  176.5730  137.9680 C   0  0  0  0  0  3  0  0  0  0  0  0
  182.7810  178.0170  141.0410 N   0  0  0  0  0  0  0  0  0  0  0  0
  183.1960  176.9990  140.1700 N   0  0  0  0  0  2  0  0  0  0  0  0
  180.6560  179.2390  140.9850 C   0  0  0  0  0  2  0  0  0  0  0  0
  179.3440  179.3010  140.2840 C   0  0  0  0  0  3  0  0  0  0  0  0
  181.3650  178.1020  140.9410 C   0  0  1  0  0  3  0  0  0  0  0  0
  179.9380  177.2510  139.1240 C   0  0  0  0  0  0  0  0  0  0  0  0
  180.8740  176.8920  140.2380 C   0  0  1  0  0  3  0  0  0  0  0  0
  179.0090  178.3700  139.3690 C   0  0  0  0  0  3  0  0  0  0  0  0
  181.9410  174.9670  135.5230 N   0  0  0  0  0  0  0  0  0  0  0  0
  183.2200  174.8010  135.6920 C   0  0  0  0  0  0  0  0  0  0  0  0
  183.8010  174.3740  136.9910 C   0  0  0  0  0  3  0  0  0  0  0  0
  181.0670  175.5830  137.7030 C   0  0  0  0  0  0  0  0  0  0  0  0
  183.3450  174.6930  138.2070 C   0  0  0  0  0  3  0  0  0  0  0  0
  182.1620  175.5290  138.4990 C   0  0  0  0  0  0  0  0  0  0  0  0
  184.0590  175.0220  134.5950 O   0  0  0  0  0  0  0  0  0  0  0  0
  185.3340  175.6440  134.6980 C   0  0  0  0  0  2  0  0  0  0  0  0
  185.1720  177.1260  134.9780 C   0  0  0  0  0  1  0  0  0  0  0  0
  183.6510  179.1210  141.4270 C   0  0  0  0  0  2  0  0  0  0  0  0
  184.4110  178.7690  145.1220 C   0  0  0  0  0  3  0  0  0  0  0  0
  185.6650  178.2910  142.6580 C   0  0  0  0  0  3  0  0  0  0  0  0
  187.6910  177.4640  146.2510 C   0  0  0  0  0  0  0  0  0  0  0  0
  186.3860  177.9780  146.2810 C   0  0  0  0  0  3  0  0  0  0  0  0
  185.7090  178.2550  145.0910 C   0  0  0  0  0  0  0  0  0  0  0  0
  187.6410  177.5020  143.8190 C   0  0  0  0  0  3  0  0  0  0  0  0
  186.3410  178.0140  143.8500 C   0  0  0  0  0  0  0  0  0  0  0  0
  188.3120  177.2290  145.0140 C   0  0  0  0  0  3  0  0  0  0  0  0
  184.3620  178.8000  142.6960 C   0  0  0  0  0  0  0  0  0  0  0  0
  183.7400  179.0440  143.9260 C   0  0  0  0  0  3  0  0  0  0  0  0
  188.3980  177.1760  147.5090 C   0  0  0  0  0  0  0  0  0  0  0  0
  189.4310  176.4540  147.5090 O   0  0  0  0  0  0  0  0  0  0  0  0
  187.9320  177.6980  148.7100 O   0  0  0  0  0  1  0  0  0  0  0  0
  1 17  1  6  0  0  0
  1  5  1  0  0  0  0
  1 10  1  0  0  0  0
  2 15  1  0  0  0  0
  3  9  2  0  0  0  0
  4 21  1  0  0  0  0
  5  4  1  0  0  0  0
  7  6  1  0  0  0  0
  8  6  1  6  0  0  0
  8  4  1  0  0  0  0
  9 11  1  0  0  0  0
 10  9  1  6  0  0  0
 10  8  1  0  0  0  0
 11  7  2  0  0  0  0
 12 13  2  0  0  0  0
 12  2  1  0  0  0  0
 13 14  1  0  0  0  0
 14 16  2  0  0  0  0
 15  3  1  0  0  0  0
 15 17  2  0  0  0  0
 16 17  1  0  0  0  0
 18 19  1  0  0  0  0
 18 13  1  0  0  0  0
 19 20  1  0  0  0  0
 21 30  1  0  0  0  0
 23 30  2  0  0  0  0
 23 28  1  0  0  0  0
 24 25  1  0  0  0  0
 24 32  1  0  0  0  0
 26 22  1  0  0  0  0
 26 25  2  0  0  0  0
 27 28  2  0  0  0  0
 27 29  1  0  0  0  0
 28 26  1  0  0  0  0
 29 24  2  0  0  0  0
 30 31  1  0  0  0  0
 31 22  2  0  0  0  0
 32 33  2  0  0  0  0
 32 34  1  0  0  0  0
M  END
>  <MODEL>
9

>  <REMARK>
 VINA RESULT:      -9.0      4.461      8.454
  Name = 
  5 active torsions:
  status: ('A' for Active; 'I' for Inactive)
    1  A    between atoms: O_3  and  C_13
    2  A    between atoms: O_3  and  C_25
    3  A    between atoms: C_7  and  C_11
    4  A    between atoms: N_8  and  C_18
    5  A    between atoms: C_18  and  C_30
                            x       y       z     vdW  Elec       q    Type
                         _______ _______ _______ _____ _____    ______ ____

>  <TORSDO>
F 5

$$$$
