=
 OpenBabel11052415263D

 37 40  0  0  1  0  0  0  0  0999 V2000
  189.8280  178.7300  142.8870 C   0  0  0  0  0  2  0  0  0  0  0  0
  186.9040  177.2120  143.1570 C   0  0  0  0  0  0  0  0  0  0  0  0
  191.6670  177.5040  145.8740 C   0  0  0  0  0  2  0  0  0  0  0  0
  189.1480  177.4070  142.4970 C   0  0  2  0  0  3  0  0  0  0  0  0
  191.1000  177.4700  144.6690 C   0  0  1  0  0  3  0  0  0  0  0  0
  187.7690  177.6580  142.1220 N   0  0  0  0  0  0  0  0  0  0  0  0
  191.4210  179.9210  144.3090 C   0  0  0  0  0  1  0  0  0  0  0  0
  190.3170  176.2170  144.4700 C   0  0  2  0  0  0  0  0  0  0  0  0
  190.1700  175.6470  145.8730 C   0  0  0  0  0  2  0  0  0  0  0  0
  191.1710  178.5830  143.6300 C   0  0  2  0  0  0  0  0  0  0  0  0
  191.1270  175.2220  143.6530 C   0  0  0  0  0  1  0  0  0  0  0  0
  185.6500  177.1860  143.0400 O   0  0  0  0  0  0  0  0  0  0  0  0
  189.0070  176.5020  143.7280 C   0  0  1  0  0  3  0  0  0  0  0  0
  191.2930  176.3020  146.6790 C   0  0  1  0  0  3  0  0  0  0  0  0
  187.6360  176.7910  144.3850 C   0  0  1  0  0  3  0  0  0  0  0  0
  192.3830  175.4340  146.7500 O   0  0  0  0  0  0  0  0  0  0  0  0
  192.9970  175.7620  147.8680 O   0  0  0  0  0  1  0  0  0  0  0  0
  192.1800  177.7050  141.5130 C   0  0  0  0  0  2  0  0  0  0  0  0
  192.3070  178.3640  142.6660 C   0  0  0  0  0  3  0  0  0  0  0  0
  187.6260  177.9920  145.3620 C   0  0  2  0  0  3  0  0  0  0  0  0
  187.7120  177.5860  146.6960 O   0  0  0  0  0  0  0  0  0  0  0  0
  188.6760  178.2100  148.7800 C   0  0  0  0  0  1  0  0  0  0  0  0
  188.6140  178.4740  147.2910 C   0  0  0  0  0  2  0  0  0  0  0  0
  186.3820  178.8750  145.1650 C   0  0  0  0  0  2  0  0  0  0  0  0
  185.2950  178.5990  146.1970 C   0  0  1  0  0  3  0  0  0  0  0  0
  185.4140  179.4940  147.2610 O   0  0  0  0  0  1  0  0  0  0  0  0
  183.8160  179.5120  144.4670 C   0  0  0  0  0  2  0  0  0  0  0  0
  183.9590  178.7560  145.5530 C   0  0  0  0  0  3  0  0  0  0  0  0
  187.3550  178.2540  140.8560 C   0  0  0  0  0  2  0  0  0  0  0  0
  188.5520  178.5060  139.9410 C   0  0  0  0  0  2  0  0  0  0  0  0
  187.6460  177.1930  138.0030 C   0  0  0  0  0  3  0  0  0  0  0  0
  188.6880  177.4420  138.9040 C   0  0  0  0  0  0  0  0  0  0  0  0
  189.8470  176.6580  138.8630 C   0  0  0  0  0  3  0  0  0  0  0  0
  191.0860  174.8700  137.8910 F   0  0  0  0  0  0  0  0  0  0  0  0
  188.9250  175.3840  137.0230 C   0  0  0  0  0  3  0  0  0  0  0  0
  189.9660  175.6300  137.9240 C   0  0  0  0  0  0  0  0  0  0  0  0
  187.7670  176.1660  137.0620 C   0  0  0  0  0  3  0  0  0  0  0  0
  1 10  1  0  0  0  0
  2 15  1  0  0  0  0
  3 14  1  0  0  0  0
  4  1  1  1  0  0  0
  4 13  1  0  0  0  0
  5  3  1  1  0  0  0
  6  4  1  0  0  0  0
  6  2  1  0  0  0  0
  8 11  1  6  0  0  0
  8  5  1  0  0  0  0
  8  9  1  0  0  0  0
  9 14  1  0  0  0  0
 10  7  1  1  0  0  0
 10  5  1  0  0  0  0
 12  2  2  0  0  0  0
 13 15  1  0  0  0  0
 13  8  1  0  0  0  0
 14 16  1  0  0  0  0
 15 20  1  0  0  0  0
 16 17  1  0  0  0  0
 18 19  2  0  0  0  0
 19 10  1  0  0  0  0
 20 21  1  0  0  0  0
 21 23  1  0  0  0  0
 23 22  1  0  0  0  0
 24 20  1  0  0  0  0
 24 25  1  0  0  0  0
 25 26  1  0  0  0  0
 27 28  2  0  0  0  0
 28 25  1  0  0  0  0
 29  6  1  0  0  0  0
 30 29  1  0  0  0  0
 31 32  1  0  0  0  0
 32 30  1  0  0  0  0
 33 32  2  0  0  0  0
 34 36  1  0  0  0  0
 35 37  1  0  0  0  0
 35 36  2  0  0  0  0
 36 33  1  0  0  0  0
 37 31  2  0  0  0  0
M  END
>  <MODEL>
1

>  <REMARK>
 VINA RESULT:      -5.9      0.000      0.000
  Name = 
  11 active torsions:
  status: ('A' for Active; 'I' for Inactive)
    1  A    between atoms: C_1  and  O_5
    2  A    between atoms: C_1  and  C_33
    3  A    between atoms: C_1  and  C_36
    4  A    between atoms: O_3  and  C_32
    5  A    between atoms: O_5  and  C_23
    6  A    between atoms: C_6  and  C_31
    7  A    between atoms: N_14  and  C_37
    8  A    between atoms: C_17  and  C_33
    9  A    between atoms: C_17  and  C_34
   10  A    between atoms: C_24  and  C_28
   11  A    between atoms: C_31  and  C_37
                            x       y       z     vdW  Elec       q    Type
                         _______ _______ _______ _____ _____    ______ ____

>  <TORSDO>
F 11

$$$$
=
 OpenBabel11052415263D

 37 40  0  0  1  0  0  0  0  0999 V2000
  189.7520  178.6950  142.9200 C   0  0  0  0  0  2  0  0  0  0  0  0
  186.8570  177.1560  143.3430 C   0  0  0  0  0  0  0  0  0  0  0  0
  191.7540  177.4810  145.8050 C   0  0  0  0  0  2  0  0  0  0  0  0
  189.0620  177.3670  142.5650 C   0  0  2  0  0  3  0  0  0  0  0  0
  191.1250  177.4430  144.6330 C   0  0  1  0  0  3  0  0  0  0  0  0
  187.6640  177.6080  142.2640 N   0  0  0  0  0  0  0  0  0  0  0  0
  191.4090  179.8970  144.2570 C   0  0  0  0  0  1  0  0  0  0  0  0
  190.3410  176.1850  144.4740 C   0  0  2  0  0  0  0  0  0  0  0  0
  190.2720  175.6130  145.8820 C   0  0  0  0  0  2  0  0  0  0  0  0
  191.1330  178.5570  143.5910 C   0  0  2  0  0  0  0  0  0  0  0  0
  191.1140  175.1960  143.6150 C   0  0  0  0  0  1  0  0  0  0  0  0
  185.5990  177.1210  143.2920 O   0  0  0  0  0  0  0  0  0  0  0  0
  188.9920  176.4610  143.8020 C   0  0  1  0  0  3  0  0  0  0  0  0
  191.4320  176.2760  146.6280 C   0  0  1  0  0  3  0  0  0  0  0  0
  187.6560  176.7400  144.5310 C   0  0  1  0  0  3  0  0  0  0  0  0
  192.5300  175.4160  146.6420 O   0  0  0  0  0  0  0  0  0  0  0  0
  193.1390  175.6720  147.7810 O   0  0  0  0  0  1  0  0  0  0  0  0
  192.0390  177.6760  141.4290 C   0  0  0  0  0  2  0  0  0  0  0  0
  192.2190  178.3460  142.5690 C   0  0  0  0  0  3  0  0  0  0  0  0
  187.6880  177.9400  145.5070 C   0  0  2  0  0  3  0  0  0  0  0  0
  187.7920  177.5330  146.8400 O   0  0  0  0  0  0  0  0  0  0  0  0
  188.7390  178.2040  148.9170 C   0  0  0  0  0  1  0  0  0  0  0  0
  188.7260  178.3990  147.4160 C   0  0  0  0  0  2  0  0  0  0  0  0
  186.4600  178.8500  145.3330 C   0  0  0  0  0  2  0  0  0  0  0  0
  185.4290  178.6630  146.4410 C   0  0  1  0  0  3  0  0  0  0  0  0
  185.5660  179.6760  147.3900 O   0  0  0  0  0  1  0  0  0  0  0  0
  183.8310  179.3910  144.7290 C   0  0  0  0  0  2  0  0  0  0  0  0
  184.0610  178.7080  145.8480 C   0  0  0  0  0  3  0  0  0  0  0  0
  187.1790  178.2010  141.0220 C   0  0  0  0  0  2  0  0  0  0  0  0
  186.0180  179.1610  141.2780 C   0  0  0  0  0  2  0  0  0  0  0  0
  184.9140  178.6150  139.0920 C   0  0  0  0  0  3  0  0  0  0  0  0
  184.8140  178.7980  140.4760 C   0  0  0  0  0  0  0  0  0  0  0  0
  183.5690  178.6870  141.1050 C   0  0  0  0  0  3  0  0  0  0  0  0
  181.2230  178.2890  140.9660 F   0  0  0  0  0  0  0  0  0  0  0  0
  182.5290  178.2060  138.9720 C   0  0  0  0  0  3  0  0  0  0  0  0
  182.4280  178.3900  140.3550 C   0  0  0  0  0  0  0  0  0  0  0  0
  183.7720  178.3160  138.3410 C   0  0  0  0  0  3  0  0  0  0  0  0
  1 10  1  0  0  0  0
  2 15  1  0  0  0  0
  3 14  1  0  0  0  0
  4  1  1  1  0  0  0
  4 13  1  0  0  0  0
  5  3  1  1  0  0  0
  6  4  1  0  0  0  0
  6  2  1  0  0  0  0
  8 11  1  6  0  0  0
  8  5  1  0  0  0  0
  8  9  1  0  0  0  0
  9 14  1  0  0  0  0
 10  7  1  1  0  0  0
 10  5  1  0  0  0  0
 12  2  2  0  0  0  0
 13  8  1  0  0  0  0
 13 15  1  0  0  0  0
 14 16  1  0  0  0  0
 15 20  1  0  0  0  0
 16 17  1  0  0  0  0
 18 19  2  0  0  0  0
 19 10  1  0  0  0  0
 20 21  1  0  0  0  0
 21 23  1  0  0  0  0
 23 22  1  0  0  0  0
 24 20  1  0  0  0  0
 24 25  1  0  0  0  0
 25 26  1  0  0  0  0
 27 28  2  0  0  0  0
 28 25  1  0  0  0  0
 29 30  1  0  0  0  0
 29  6  1  0  0  0  0
 31 32  1  0  0  0  0
 32 33  2  0  0  0  0
 32 30  1  0  0  0  0
 35 36  2  0  0  0  0
 36 34  1  0  0  0  0
 36 33  1  0  0  0  0
 37 35  1  0  0  0  0
 37 31  2  0  0  0  0
M  END
>  <MODEL>
2

>  <REMARK>
 VINA RESULT:      -5.7      2.431      3.083
  Name = 
  11 active torsions:
  status: ('A' for Active; 'I' for Inactive)
    1  A    between atoms: C_1  and  O_5
    2  A    between atoms: C_1  and  C_33
    3  A    between atoms: C_1  and  C_36
    4  A    between atoms: O_3  and  C_32
    5  A    between atoms: O_5  and  C_23
    6  A    between atoms: C_6  and  C_31
    7  A    between atoms: N_14  and  C_37
    8  A    between atoms: C_17  and  C_33
    9  A    between atoms: C_17  and  C_34
   10  A    between atoms: C_24  and  C_28
   11  A    between atoms: C_31  and  C_37
                            x       y       z     vdW  Elec       q    Type
                         _______ _______ _______ _____ _____    ______ ____

>  <TORSDO>
F 11

$$$$
=
 OpenBabel11052415263D

 37 40  0  0  1  0  0  0  0  0999 V2000
  182.5590  176.7530  139.2030 C   0  0  0  0  0  2  0  0  0  0  0  0
  182.9190  179.9930  138.6510 C   0  0  0  0  0  0  0  0  0  0  0  0
  179.7790  175.8370  136.9130 C   0  0  0  0  0  2  0  0  0  0  0  0
  183.3060  177.7100  138.2590 C   0  0  2  0  0  3  0  0  0  0  0  0
  181.0060  176.1920  137.2900 C   0  0  1  0  0  3  0  0  0  0  0  0
  183.7390  178.8830  138.9960 N   0  0  0  0  0  0  0  0  0  0  0  0
  180.7580  175.1340  139.5410 C   0  0  0  0  0  1  0  0  0  0  0  0
  181.5620  177.2570  136.4080 C   0  0  2  0  0  0  0  0  0  0  0  0
  180.3500  177.7810  135.6530 C   0  0  0  0  0  2  0  0  0  0  0  0
  181.7480  175.6430  138.5050 C   0  0  2  0  0  0  0  0  0  0  0  0
  182.5080  176.6440  135.3870 C   0  0  0  0  0  1  0  0  0  0  0  0
  183.1550  181.1670  139.0410 O   0  0  0  0  0  0  0  0  0  0  0  0
  182.3360  178.2970  137.2250 C   0  0  1  0  0  3  0  0  0  0  0  0
  179.3130  176.6600  135.7560 C   0  0  1  0  0  3  0  0  0  0  0  0
  181.7600  179.6150  137.7950 C   0  0  1  0  0  3  0  0  0  0  0  0
  179.3440  175.8870  134.5950 O   0  0  0  0  0  0  0  0  0  0  0  0
  178.9330  174.6960  134.9780 O   0  0  0  0  0  1  0  0  0  0  0  0
  183.9200  174.5980  137.8270 C   0  0  0  0  0  2  0  0  0  0  0  0
  182.6270  174.4780  138.1320 C   0  0  0  0  0  3  0  0  0  0  0  0
  180.5370  179.4380  138.7270 C   0  0  2  0  0  3  0  0  0  0  0  0
  179.4050  180.0990  138.2420 O   0  0  0  0  0  0  0  0  0  0  0  0
  179.3820  182.4330  137.7800 C   0  0  0  0  0  1  0  0  0  0  0  0
  179.8950  181.0710  137.3650 C   0  0  0  0  0  2  0  0  0  0  0  0
  180.8410  179.9060  140.1600 C   0  0  0  0  0  2  0  0  0  0  0  0
  180.0700  179.1170  141.2120 C   0  0  1  0  0  3  0  0  0  0  0  0
  179.3160  178.1180  140.5950 O   0  0  0  0  0  1  0  0  0  0  0  0
  181.2280  179.0330  143.3720 C   0  0  0  0  0  2  0  0  0  0  0  0
  181.0370  178.5020  142.1670 C   0  0  0  0  0  3  0  0  0  0  0  0
  184.8650  178.9050  139.9230 C   0  0  0  0  0  2  0  0  0  0  0  0
  184.3910  178.9400  141.3750 C   0  0  0  0  0  2  0  0  0  0  0  0
  186.7450  178.2080  141.8450 C   0  0  0  0  0  3  0  0  0  0  0  0
  185.4550  178.4810  142.3150 C   0  0  0  0  0  0  0  0  0  0  0  0
  185.1470  178.2760  143.6640 C   0  0  0  0  0  3  0  0  0  0  0  0
  185.8230  177.6020  145.8480 F   0  0  0  0  0  0  0  0  0  0  0  0
  187.4140  177.5340  144.0730 C   0  0  0  0  0  3  0  0  0  0  0  0
  186.1250  177.8040  144.5430 C   0  0  0  0  0  0  0  0  0  0  0  0
  187.7250  177.7370  142.7250 C   0  0  0  0  0  3  0  0  0  0  0  0
  2  6  1  0  0  0  0
  2 12  2  0  0  0  0
  4  6  1  0  0  0  0
  4  1  1  1  0  0  0
  5  3  1  1  0  0  0
  5 10  1  0  0  0  0
  6 29  1  0  0  0  0
  8 11  1  6  0  0  0
  8 13  1  0  0  0  0
  8  5  1  0  0  0  0
  9 14  1  0  0  0  0
  9  8  1  0  0  0  0
 10  1  1  0  0  0  0
 10  7  1  1  0  0  0
 13 15  1  0  0  0  0
 13  4  1  0  0  0  0
 14  3  1  0  0  0  0
 15  2  1  0  0  0  0
 15 20  1  0  0  0  0
 16 17  1  0  0  0  0
 16 14  1  0  0  0  0
 18 19  2  0  0  0  0
 19 10  1  0  0  0  0
 20 24  1  0  0  0  0
 21 20  1  0  0  0  0
 23 22  1  0  0  0  0
 23 21  1  0  0  0  0
 24 25  1  0  0  0  0
 25 28  1  0  0  0  0
 26 25  1  0  0  0  0
 28 27  2  0  0  0  0
 29 30  1  0  0  0  0
 30 32  1  0  0  0  0
 31 32  2  0  0  0  0
 31 37  1  0  0  0  0
 32 33  1  0  0  0  0
 33 36  2  0  0  0  0
 35 36  1  0  0  0  0
 36 34  1  0  0  0  0
 37 35  2  0  0  0  0
M  END
>  <MODEL>
3

>  <REMARK>
 VINA RESULT:      -5.5      6.142     10.360
  Name = 
  11 active torsions:
  status: ('A' for Active; 'I' for Inactive)
    1  A    between atoms: C_1  and  O_5
    2  A    between atoms: C_1  and  C_33
    3  A    between atoms: C_1  and  C_36
    4  A    between atoms: O_3  and  C_32
    5  A    between atoms: O_5  and  C_23
    6  A    between atoms: C_6  and  C_31
    7  A    between atoms: N_14  and  C_37
    8  A    between atoms: C_17  and  C_33
    9  A    between atoms: C_17  and  C_34
   10  A    between atoms: C_24  and  C_28
   11  A    between atoms: C_31  and  C_37
                            x       y       z     vdW  Elec       q    Type
                         _______ _______ _______ _____ _____    ______ ____

>  <TORSDO>
F 11

$$$$
=
 OpenBabel11052415263D

 37 40  0  0  1  0  0  0  0  0999 V2000
  190.6580  174.6070  137.4290 C   0  0  0  0  0  2  0  0  0  0  0  0
  192.0680  177.0940  139.0900 C   0  0  0  0  0  0  0  0  0  0  0  0
  187.1910  175.8360  136.9020 C   0  0  0  0  0  2  0  0  0  0  0  0
  191.3960  175.9310  137.1640 C   0  0  2  0  0  3  0  0  0  0  0  0
  188.5100  175.7500  136.7460 C   0  0  1  0  0  3  0  0  0  0  0  0
  192.4520  176.1050  138.1430 N   0  0  0  0  0  0  0  0  0  0  0  0
  188.5630  173.3470  137.4320 C   0  0  0  0  0  1  0  0  0  0  0  0
  189.1420  177.0980  136.6820 C   0  0  2  0  0  0  0  0  0  0  0  0
  188.0630  178.0360  137.2020 C   0  0  0  0  0  2  0  0  0  0  0  0
  189.3090  174.4510  136.6980 C   0  0  2  0  0  0  0  0  0  0  0  0
  189.4170  177.4750  135.2340 C   0  0  0  0  0  1  0  0  0  0  0  0
  192.8490  177.5400  139.9720 O   0  0  0  0  0  0  0  0  0  0  0  0
  190.4680  177.1190  137.4490 C   0  0  1  0  0  3  0  0  0  0  0  0
  186.7560  177.2600  137.0280 C   0  0  1  0  0  3  0  0  0  0  0  0
  190.6530  177.5330  138.9290 C   0  0  1  0  0  3  0  0  0  0  0  0
  186.1310  177.6590  135.8460 O   0  0  0  0  0  0  0  0  0  0  0  0
  184.9480  177.0800  135.8840 O   0  0  0  0  0  1  0  0  0  0  0  0
  189.5900  172.6910  134.9390 C   0  0  0  0  0  2  0  0  0  0  0  0
  189.5070  173.9780  135.2830 C   0  0  0  0  0  3  0  0  0  0  0  0
  189.8020  176.7260  139.9390 C   0  0  2  0  0  3  0  0  0  0  0  0
  188.4600  177.1140  139.9270 O   0  0  0  0  0  0  0  0  0  0  0  0
  187.1350  178.7280  141.0670 C   0  0  0  0  0  1  0  0  0  0  0  0
  188.4560  178.4340  140.3880 C   0  0  0  0  0  2  0  0  0  0  0  0
  190.3630  176.8310  141.3670 C   0  0  0  0  0  2  0  0  0  0  0  0
  189.5870  175.9820  142.3670 C   0  0  1  0  0  3  0  0  0  0  0  0
  190.4210  174.9980  142.9000 O   0  0  0  0  0  1  0  0  0  0  0  0
  189.7650  177.9310  143.8440 C   0  0  0  0  0  2  0  0  0  0  0  0
  189.0770  176.8580  143.4620 C   0  0  0  0  0  3  0  0  0  0  0  0
  193.7210  175.3850  138.1240 C   0  0  0  0  0  2  0  0  0  0  0  0
  194.0800  174.9270  136.7120 C   0  0  0  0  0  2  0  0  0  0  0  0
  193.2440  172.7810  135.7140 C   0  0  0  0  0  3  0  0  0  0  0  0
  194.1030  173.4390  136.6030 C   0  0  0  0  0  0  0  0  0  0  0  0
  194.9540  172.6960  137.4280 C   0  0  0  0  0  3  0  0  0  0  0  0
  195.7720  170.5840  138.1680 F   0  0  0  0  0  0  0  0  0  0  0  0
  194.0950  170.6440  136.4750 C   0  0  0  0  0  3  0  0  0  0  0  0
  194.9510  171.3000  137.3640 C   0  0  0  0  0  0  0  0  0  0  0  0
  193.2430  171.3840  135.6490 C   0  0  0  0  0  3  0  0  0  0  0  0
  2 12  2  0  0  0  0
  3 14  1  0  0  0  0
  4  1  1  1  0  0  0
  4 13  1  0  0  0  0
  4  6  1  0  0  0  0
  5  3  1  1  0  0  0
  6  2  1  0  0  0  0
  8 11  1  6  0  0  0
  8  5  1  0  0  0  0
  8  9  1  0  0  0  0
  8 13  1  0  0  0  0
 10  5  1  0  0  0  0
 10  1  1  0  0  0  0
 10  7  1  1  0  0  0
 13 15  1  0  0  0  0
 14  9  1  0  0  0  0
 15  2  1  0  0  0  0
 15 20  1  0  0  0  0
 16 17  1  0  0  0  0
 16 14  1  0  0  0  0
 18 19  2  0  0  0  0
 19 10  1  0  0  0  0
 20 24  1  0  0  0  0
 21 20  1  0  0  0  0
 21 23  1  0  0  0  0
 23 22  1  0  0  0  0
 24 25  1  0  0  0  0
 25 26  1  0  0  0  0
 25 28  1  0  0  0  0
 28 27  2  0  0  0  0
 29  6  1  0  0  0  0
 30 29  1  0  0  0  0
 31 32  1  0  0  0  0
 32 30  1  0  0  0  0
 32 33  2  0  0  0  0
 35 36  2  0  0  0  0
 36 33  1  0  0  0  0
 36 34  1  0  0  0  0
 37 31  2  0  0  0  0
 37 35  1  0  0  0  0
M  END
>  <MODEL>
4

>  <REMARK>
 VINA RESULT:      -5.5      3.918      8.014
  Name = 
  11 active torsions:
  status: ('A' for Active; 'I' for Inactive)
    1  A    between atoms: C_1  and  O_5
    2  A    between atoms: C_1  and  C_33
    3  A    between atoms: C_1  and  C_36
    4  A    between atoms: O_3  and  C_32
    5  A    between atoms: O_5  and  C_23
    6  A    between atoms: C_6  and  C_31
    7  A    between atoms: N_14  and  C_37
    8  A    between atoms: C_17  and  C_33
    9  A    between atoms: C_17  and  C_34
   10  A    between atoms: C_24  and  C_28
   11  A    between atoms: C_31  and  C_37
                            x       y       z     vdW  Elec       q    Type
                         _______ _______ _______ _____ _____    ______ ____

>  <TORSDO>
F 11

$$$$
=
 OpenBabel11052415263D

 37 40  0  0  1  0  0  0  0  0999 V2000
  187.3210  175.3550  136.3290 C   0  0  0  0  0  2  0  0  0  0  0  0
  188.1520  178.5310  136.7170 C   0  0  0  0  0  0  0  0  0  0  0  0
  183.7910  175.2840  137.4870 C   0  0  0  0  0  2  0  0  0  0  0  0
  187.2680  176.6880  135.5630 C   0  0  2  0  0  3  0  0  0  0  0  0
  184.8290  175.5460  136.6940 C   0  0  1  0  0  3  0  0  0  0  0  0
  188.4660  177.4580  135.8400 N   0  0  0  0  0  0  0  0  0  0  0  0
  186.1390  173.6000  137.5540 C   0  0  0  0  0  1  0  0  0  0  0  0
  184.7640  176.9320  136.1500 C   0  0  2  0  0  0  0  0  0  0  0  0
  183.7280  177.6230  137.0240 C   0  0  0  0  0  2  0  0  0  0  0  0
  185.9840  174.5910  136.4110 C   0  0  2  0  0  0  0  0  0  0  0  0
  184.2210  176.9070  134.7290 C   0  0  0  0  0  1  0  0  0  0  0  0
  188.9750  179.4360  137.0170 O   0  0  0  0  0  0  0  0  0  0  0  0
  186.1530  177.5770  136.1290 C   0  0  1  0  0  3  0  0  0  0  0  0
  182.9120  176.4830  137.6370 C   0  0  1  0  0  3  0  0  0  0  0  0
  186.7600  178.4620  137.2440 C   0  0  1  0  0  3  0  0  0  0  0  0
  181.7440  176.2960  136.8970 O   0  0  0  0  0  0  0  0  0  0  0  0
  181.5470  174.9940  136.9100 O   0  0  0  0  0  1  0  0  0  0  0  0
  184.6780  172.9940  134.9930 C   0  0  0  0  0  2  0  0  0  0  0  0
  185.7390  173.7850  135.1640 C   0  0  0  0  0  3  0  0  0  0  0  0
  186.8260  177.7940  138.6370 C   0  0  2  0  0  3  0  0  0  0  0  0
  186.4940  178.6810  139.6650 O   0  0  0  0  0  0  0  0  0  0  0  0
  184.6770  178.6570  141.2010 C   0  0  0  0  0  1  0  0  0  0  0  0
  185.0990  178.6400  139.7470 C   0  0  0  0  0  2  0  0  0  0  0  0
  188.2100  177.1770  138.9080 C   0  0  0  0  0  2  0  0  0  0  0  0
  188.8840  177.7670  140.1410 C   0  0  1  0  0  3  0  0  0  0  0  0
  188.4580  177.0880  141.2830 O   0  0  0  0  0  1  0  0  0  0  0  0
  191.1120  177.2640  141.0350 C   0  0  0  0  0  2  0  0  0  0  0  0
  190.3630  177.6340  139.9990 C   0  0  0  0  0  3  0  0  0  0  0  0
  189.7780  177.1740  135.2690 C   0  0  0  0  0  2  0  0  0  0  0  0
  190.0720  175.6740  135.2670 C   0  0  0  0  0  2  0  0  0  0  0  0
  191.9300  174.1120  135.9030 C   0  0  0  0  0  3  0  0  0  0  0  0
  191.2960  175.3500  136.0570 C   0  0  0  0  0  0  0  0  0  0  0  0
  191.7830  176.2720  136.9900 C   0  0  0  0  0  3  0  0  0  0  0  0
  193.3690  176.8520  138.6710 F   0  0  0  0  0  0  0  0  0  0  0  0
  193.5370  174.7240  137.6100 C   0  0  0  0  0  3  0  0  0  0  0  0
  192.9030  175.9600  137.7650 C   0  0  0  0  0  0  0  0  0  0  0  0
  193.0520  173.8010  136.6780 C   0  0  0  0  0  3  0  0  0  0  0  0
  1 10  1  0  0  0  0
  2 12  2  0  0  0  0
  2 15  1  0  0  0  0
  3 14  1  0  0  0  0
  4  6  1  0  0  0  0
  4 13  1  0  0  0  0
  4  1  1  1  0  0  0
  5  3  1  1  0  0  0
  6  2  1  0  0  0  0
  8 11  1  6  0  0  0
  8  5  1  0  0  0  0
  8  9  1  0  0  0  0
  9 14  1  0  0  0  0
 10  5  1  0  0  0  0
 10  7  1  1  0  0  0
 13  8  1  0  0  0  0
 13 15  1  0  0  0  0
 15 20  1  0  0  0  0
 16 17  1  0  0  0  0
 16 14  1  0  0  0  0
 18 19  2  0  0  0  0
 19 10  1  0  0  0  0
 20 24  1  0  0  0  0
 20 21  1  0  0  0  0
 21 23  1  0  0  0  0
 23 22  1  0  0  0  0
 24 25  1  0  0  0  0
 25 26  1  0  0  0  0
 28 25  1  0  0  0  0
 28 27  2  0  0  0  0
 29  6  1  0  0  0  0
 30 29  1  0  0  0  0
 30 32  1  0  0  0  0
 31 32  2  0  0  0  0
 31 37  1  0  0  0  0
 32 33  1  0  0  0  0
 33 36  2  0  0  0  0
 35 36  1  0  0  0  0
 36 34  1  0  0  0  0
 37 35  2  0  0  0  0
M  END
>  <MODEL>
5

>  <REMARK>
 VINA RESULT:      -5.2      4.347      8.650
  Name = 
  11 active torsions:
  status: ('A' for Active; 'I' for Inactive)
    1  A    between atoms: C_1  and  O_5
    2  A    between atoms: C_1  and  C_33
    3  A    between atoms: C_1  and  C_36
    4  A    between atoms: O_3  and  C_32
    5  A    between atoms: O_5  and  C_23
    6  A    between atoms: C_6  and  C_31
    7  A    between atoms: N_14  and  C_37
    8  A    between atoms: C_17  and  C_33
    9  A    between atoms: C_17  and  C_34
   10  A    between atoms: C_24  and  C_28
   11  A    between atoms: C_31  and  C_37
                            x       y       z     vdW  Elec       q    Type
                         _______ _______ _______ _____ _____    ______ ____

>  <TORSDO>
F 11

$$$$
=
 OpenBabel11052415263D

 37 40  0  0  1  0  0  0  0  0999 V2000
  183.0330  176.3060  138.6120 C   0  0  0  0  0  2  0  0  0  0  0  0
  185.6020  178.3800  138.4430 C   0  0  0  0  0  0  0  0  0  0  0  0
  180.4210  178.3710  140.2630 C   0  0  0  0  0  2  0  0  0  0  0  0
  183.6110  177.3920  137.6880 C   0  0  2  0  0  3  0  0  0  0  0  0
  181.2390  177.9470  139.3010 C   0  0  1  0  0  3  0  0  0  0  0  0
  185.0590  177.3080  137.6830 N   0  0  0  0  0  0  0  0  0  0  0  0
  181.3220  175.6250  140.2200 C   0  0  0  0  0  1  0  0  0  0  0  0
  181.8820  179.0880  138.5890 C   0  0  2  0  0  0  0  0  0  0  0  0
  181.6320  180.2800  139.5000 C   0  0  0  0  0  2  0  0  0  0  0  0
  181.5490  176.4870  138.9880 C   0  0  2  0  0  0  0  0  0  0  0  0
  181.1600  179.3540  137.2770 C   0  0  0  0  0  1  0  0  0  0  0  0
  186.8360  178.6280  138.4960 O   0  0  0  0  0  0  0  0  0  0  0  0
  183.3520  178.7830  138.2810 C   0  0  1  0  0  3  0  0  0  0  0  0
  180.4470  179.8610  140.3720 C   0  0  1  0  0  3  0  0  0  0  0  0
  184.5620  179.1640  139.1680 C   0  0  1  0  0  3  0  0  0  0  0  0
  179.2680  180.3850  139.8400 O   0  0  0  0  0  0  0  0  0  0  0  0
  179.5500  181.6460  139.5850 O   0  0  0  0  0  1  0  0  0  0  0  0
  180.5950  174.6660  137.5570 C   0  0  0  0  0  2  0  0  0  0  0  0
  180.6440  175.9520  137.9090 C   0  0  0  0  0  3  0  0  0  0  0  0
  184.5010  178.6200  140.6150 C   0  0  2  0  0  3  0  0  0  0  0  0
  183.2570  178.8450  141.2110 O   0  0  0  0  0  0  0  0  0  0  0  0
  182.2090  179.0040  143.3410 C   0  0  0  0  0  1  0  0  0  0  0  0
  183.4610  178.6300  142.5780 C   0  0  0  0  0  2  0  0  0  0  0  0
  185.6150  179.2140  141.4940 C   0  0  0  0  0  2  0  0  0  0  0  0
  186.7610  178.2370  141.7310 C   0  0  1  0  0  3  0  0  0  0  0  0
  187.9710  178.8290  141.3670 O   0  0  0  0  0  1  0  0  0  0  0  0
  187.5530  176.8560  143.5960 C   0  0  0  0  0  2  0  0  0  0  0  0
  186.7950  177.8660  143.1750 C   0  0  0  0  0  3  0  0  0  0  0  0
  185.8240  176.2870  136.9740 C   0  0  0  0  0  2  0  0  0  0  0  0
  185.2620  176.0430  135.5750 C   0  0  0  0  0  2  0  0  0  0  0  0
  183.3640  174.7120  134.6130 C   0  0  0  0  0  3  0  0  0  0  0  0
  184.4220  174.8110  135.5240 C   0  0  0  0  0  0  0  0  0  0  0  0
  184.6650  173.7690  136.4260 C   0  0  0  0  0  3  0  0  0  0  0  0
  184.0890  171.6250  137.2930 F   0  0  0  0  0  0  0  0  0  0  0  0
  182.8000  172.5310  135.5030 C   0  0  0  0  0  3  0  0  0  0  0  0
  183.8560  172.6290  136.4150 C   0  0  0  0  0  0  0  0  0  0  0  0
  182.5560  173.5710  134.6010 C   0  0  0  0  0  3  0  0  0  0  0  0
  1 10  1  0  0  0  0
  2 12  2  0  0  0  0
  2 15  1  0  0  0  0
  3 14  1  0  0  0  0
  4 13  1  0  0  0  0
  4  1  1  1  0  0  0
  5  3  1  1  0  0  0
  6  4  1  0  0  0  0
  6  2  1  0  0  0  0
  8 11  1  6  0  0  0
  8  5  1  0  0  0  0
  8  9  1  0  0  0  0
  9 14  1  0  0  0  0
 10  5  1  0  0  0  0
 10  7  1  1  0  0  0
 13  8  1  0  0  0  0
 13 15  1  0  0  0  0
 15 20  1  0  0  0  0
 16 14  1  0  0  0  0
 17 16  1  0  0  0  0
 18 19  2  0  0  0  0
 19 10  1  0  0  0  0
 20 21  1  0  0  0  0
 20 24  1  0  0  0  0
 21 23  1  0  0  0  0
 23 22  1  0  0  0  0
 24 25  1  0  0  0  0
 25 28  1  0  0  0  0
 26 25  1  0  0  0  0
 28 27  2  0  0  0  0
 29  6  1  0  0  0  0
 30 29  1  0  0  0  0
 31 32  1  0  0  0  0
 32 30  1  0  0  0  0
 32 33  2  0  0  0  0
 35 36  2  0  0  0  0
 36 33  1  0  0  0  0
 36 34  1  0  0  0  0
 37 31  2  0  0  0  0
 37 35  1  0  0  0  0
M  END
>  <MODEL>
6

>  <REMARK>
 VINA RESULT:      -5.2      5.025      8.952
  Name = 
  11 active torsions:
  status: ('A' for Active; 'I' for Inactive)
    1  A    between atoms: C_1  and  O_5
    2  A    between atoms: C_1  and  C_33
    3  A    between atoms: C_1  and  C_36
    4  A    between atoms: O_3  and  C_32
    5  A    between atoms: O_5  and  C_23
    6  A    between atoms: C_6  and  C_31
    7  A    between atoms: N_14  and  C_37
    8  A    between atoms: C_17  and  C_33
    9  A    between atoms: C_17  and  C_34
   10  A    between atoms: C_24  and  C_28
   11  A    between atoms: C_31  and  C_37
                            x       y       z     vdW  Elec       q    Type
                         _______ _______ _______ _____ _____    ______ ____

>  <TORSDO>
F 11

$$$$
=
 OpenBabel11052415263D

 37 40  0  0  1  0  0  0  0  0999 V2000
  190.1280  174.5280  137.2300 C   0  0  0  0  0  2  0  0  0  0  0  0
  192.1690  176.7550  138.5730 C   0  0  0  0  0  0  0  0  0  0  0  0
  187.1200  176.5550  136.4240 C   0  0  0  0  0  2  0  0  0  0  0  0
  191.1950  175.5520  136.8080 C   0  0  2  0  0  3  0  0  0  0  0  0
  188.3660  176.0950  136.3240 C   0  0  1  0  0  3  0  0  0  0  0  0
  192.2650  175.5740  137.7870 N   0  0  0  0  0  0  0  0  0  0  0  0
  187.7700  173.8920  137.3400 C   0  0  0  0  0  1  0  0  0  0  0  0
  189.3390  177.2010  136.0930 C   0  0  2  0  0  0  0  0  0  0  0  0
  188.5570  178.4590  136.4420 C   0  0  0  0  0  2  0  0  0  0  0  0
  188.7830  174.6370  136.4840 C   0  0  2  0  0  0  0  0  0  0  0  0
  189.6970  177.2780  134.6170 C   0  0  0  0  0  1  0  0  0  0  0  0
  193.0470  177.0960  139.4100 O   0  0  0  0  0  0  0  0  0  0  0  0
  190.6250  176.9740  136.8940 C   0  0  1  0  0  3  0  0  0  0  0  0
  187.0880  178.0460  136.3340 C   0  0  1  0  0  3  0  0  0  0  0  0
  190.9250  177.5310  138.3060 C   0  0  1  0  0  3  0  0  0  0  0  0
  186.5870  178.4250  135.0890 O   0  0  0  0  0  0  0  0  0  0  0  0
  185.6930  177.5040  134.7960 O   0  0  0  0  0  1  0  0  0  0  0  0
  189.0360  172.6180  135.0260 C   0  0  0  0  0  2  0  0  0  0  0  0
  188.8360  173.9300  135.1560 C   0  0  0  0  0  3  0  0  0  0  0  0
  189.8940  177.1350  139.3900 C   0  0  2  0  0  3  0  0  0  0  0  0
  189.1950  178.2410  139.8820 O   0  0  0  0  0  0  0  0  0  0  0  0
  187.1120  178.6300  140.9630 C   0  0  0  0  0  1  0  0  0  0  0  0
  187.8530  177.8490  139.9000 C   0  0  0  0  0  2  0  0  0  0  0  0
  190.5540  176.3760  140.5540 C   0  0  0  0  0  2  0  0  0  0  0  0
  190.1840  176.9510  141.9160 C   0  0  1  0  0  3  0  0  0  0  0  0
  189.6560  175.9460  142.7270 O   0  0  0  0  0  1  0  0  0  0  0  0
  191.3050  178.4930  143.4590 C   0  0  0  0  0  2  0  0  0  0  0  0
  191.4050  177.5230  142.5530 C   0  0  0  0  0  3  0  0  0  0  0  0
  193.2910  174.5450  137.9110 C   0  0  0  0  0  2  0  0  0  0  0  0
  193.8470  174.1450  136.5440 C   0  0  0  0  0  2  0  0  0  0  0  0
  195.8570  174.8490  135.2170 C   0  0  0  0  0  3  0  0  0  0  0  0
  195.3060  174.4350  136.4350 C   0  0  0  0  0  0  0  0  0  0  0  0
  196.1350  174.2470  137.5470 C   0  0  0  0  0  3  0  0  0  0  0  0
  198.3110  174.2860  138.5190 F   0  0  0  0  0  0  0  0  0  0  0  0
  198.0590  174.8890  136.2260 C   0  0  0  0  0  3  0  0  0  0  0  0
  197.5100  174.4740  137.4430 C   0  0  0  0  0  0  0  0  0  0  0  0
  197.2330  175.0780  135.1140 C   0  0  0  0  0  3  0  0  0  0  0  0
  2 12  2  0  0  0  0
  4 13  1  0  0  0  0
  4  1  1  1  0  0  0
  4  6  1  0  0  0  0
  5  3  1  1  0  0  0
  5 10  1  0  0  0  0
  6 29  1  0  0  0  0
  6  2  1  0  0  0  0
  8 11  1  6  0  0  0
  8  5  1  0  0  0  0
  8  9  1  0  0  0  0
  8 13  1  0  0  0  0
 10  1  1  0  0  0  0
 10  7  1  1  0  0  0
 13 15  1  0  0  0  0
 14  3  1  0  0  0  0
 14  9  1  0  0  0  0
 15  2  1  0  0  0  0
 15 20  1  0  0  0  0
 16 14  1  0  0  0  0
 17 16  1  0  0  0  0
 18 19  2  0  0  0  0
 19 10  1  0  0  0  0
 20 21  1  0  0  0  0
 20 24  1  0  0  0  0
 21 23  1  0  0  0  0
 23 22  1  0  0  0  0
 24 25  1  0  0  0  0
 25 28  1  0  0  0  0
 25 26  1  0  0  0  0
 28 27  2  0  0  0  0
 30 29  1  0  0  0  0
 31 32  1  0  0  0  0
 32 30  1  0  0  0  0
 32 33  2  0  0  0  0
 35 36  2  0  0  0  0
 36 33  1  0  0  0  0
 36 34  1  0  0  0  0
 37 31  2  0  0  0  0
 37 35  1  0  0  0  0
M  END
>  <MODEL>
7

>  <REMARK>
 VINA RESULT:      -5.1      4.444      8.598
  Name = 
  11 active torsions:
  status: ('A' for Active; 'I' for Inactive)
    1  A    between atoms: C_1  and  O_5
    2  A    between atoms: C_1  and  C_33
    3  A    between atoms: C_1  and  C_36
    4  A    between atoms: O_3  and  C_32
    5  A    between atoms: O_5  and  C_23
    6  A    between atoms: C_6  and  C_31
    7  A    between atoms: N_14  and  C_37
    8  A    between atoms: C_17  and  C_33
    9  A    between atoms: C_17  and  C_34
   10  A    between atoms: C_24  and  C_28
   11  A    between atoms: C_31  and  C_37
                            x       y       z     vdW  Elec       q    Type
                         _______ _______ _______ _____ _____    ______ ____

>  <TORSDO>
F 11

$$$$
=
 OpenBabel11052415263D

 37 40  0  0  1  0  0  0  0  0999 V2000
  188.1880  177.7310  137.0720 C   0  0  0  0  0  2  0  0  0  0  0  0
  190.3480  176.5660  139.2870 C   0  0  0  0  0  0  0  0  0  0  0  0
  187.9280  174.9380  134.6350 C   0  0  0  0  0  2  0  0  0  0  0  0
  188.2160  176.8890  138.3590 C   0  0  2  0  0  3  0  0  0  0  0  0
  187.7600  175.6050  135.7750 C   0  0  1  0  0  3  0  0  0  0  0  0
  189.2130  177.4210  139.2690 N   0  0  0  0  0  0  0  0  0  0  0  0
  187.9150  177.8280  134.6440 C   0  0  0  0  0  1  0  0  0  0  0  0
  187.9890  174.7290  136.9590 C   0  0  2  0  0  0  0  0  0  0  0  0
  188.6950  173.5100  136.3850 C   0  0  0  0  0  2  0  0  0  0  0  0
  187.4380  177.0920  135.8860 C   0  0  2  0  0  0  0  0  0  0  0  0
  186.6560  174.2630  137.5250 C   0  0  0  0  0  1  0  0  0  0  0  0
  191.3080  176.7160  140.0890 O   0  0  0  0  0  0  0  0  0  0  0  0
  188.7470  175.4810  138.0580 C   0  0  1  0  0  3  0  0  0  0  0  0
  188.3550  173.5300  134.8940 C   0  0  1  0  0  3  0  0  0  0  0  0
  190.2810  175.4900  138.2580 C   0  0  1  0  0  3  0  0  0  0  0  0
  187.2850  172.6680  134.6480 O   0  0  0  0  0  0  0  0  0  0  0  0
  187.6690  171.5110  135.1460 O   0  0  0  0  0  1  0  0  0  0  0  0
  185.0550  176.7230  135.2100 C   0  0  0  0  0  2  0  0  0  0  0  0
  185.9540  177.3270  135.9890 C   0  0  0  0  0  3  0  0  0  0  0  0
  191.0920  175.9740  137.0320 C   0  0  2  0  0  3  0  0  0  0  0  0
  191.4070  174.9270  136.1620 O   0  0  0  0  0  0  0  0  0  0  0  0
  192.3100  172.7260  136.2140 C   0  0  0  0  0  1  0  0  0  0  0  0
  191.5810  173.8080  136.9820 C   0  0  0  0  0  2  0  0  0  0  0  0
  192.3770  176.7070  137.4530 C   0  0  0  0  0  2  0  0  0  0  0  0
  193.6410  175.9750  137.0160 C   0  0  1  0  0  3  0  0  0  0  0  0
  194.4480  176.8320  136.2660 O   0  0  0  0  0  1  0  0  0  0  0  0
  195.0230  174.3480  138.2230 C   0  0  0  0  0  2  0  0  0  0  0  0
  194.3820  175.5150  138.2260 C   0  0  0  0  0  3  0  0  0  0  0  0
  189.0430  178.6360  140.0580 C   0  0  0  0  0  2  0  0  0  0  0  0
  187.8250  178.5400  140.9750 C   0  0  0  0  0  2  0  0  0  0  0  0
  189.5600  178.2470  142.7650 C   0  0  0  0  0  3  0  0  0  0  0  0
  188.2150  178.2200  142.3790 C   0  0  0  0  0  0  0  0  0  0  0  0
  187.2320  177.8460  143.3040 C   0  0  0  0  0  3  0  0  0  0  0  0
  186.6400  177.1360  145.5000 F   0  0  0  0  0  0  0  0  0  0  0  0
  188.9370  177.5320  144.9940 C   0  0  0  0  0  3  0  0  0  0  0  0
  187.5920  177.5030  144.6100 C   0  0  0  0  0  0  0  0  0  0  0  0
  189.9200  177.9050  144.0720 C   0  0  0  0  0  3  0  0  0  0  0  0
  2 12  2  0  0  0  0
  3 14  1  0  0  0  0
  4  1  1  6  0  0  0
  4  6  1  0  0  0  0
  5  3  1  6  0  0  0
  5 10  1  0  0  0  0
  5  8  1  0  0  0  0
  6  2  1  0  0  0  0
  6 29  1  0  0  0  0
  8 11  1  1  0  0  0
  8 13  1  0  0  0  0
  9  8  1  0  0  0  0
 10  7  1  6  0  0  0
 10 19  1  0  0  0  0
 10  1  1  0  0  0  0
 13 15  1  0  0  0  0
 13  4  1  0  0  0  0
 14  9  1  0  0  0  0
 15  2  1  0  0  0  0
 16 14  1  0  0  0  0
 16 17  1  0  0  0  0
 18 19  2  0  0  0  0
 20 24  1  0  0  0  0
 20 15  1  0  0  0  0
 21 23  1  0  0  0  0
 21 20  1  0  0  0  0
 22 23  1  0  0  0  0
 25 24  1  0  0  0  0
 25 28  1  0  0  0  0
 26 25  1  0  0  0  0
 27 28  2  0  0  0  0
 29 30  1  0  0  0  0
 30 32  1  0  0  0  0
 31 37  1  0  0  0  0
 32 31  2  0  0  0  0
 32 33  1  0  0  0  0
 33 36  2  0  0  0  0
 36 35  1  0  0  0  0
 36 34  1  0  0  0  0
 37 35  2  0  0  0  0
M  END
>  <MODEL>
8

>  <REMARK>
 VINA RESULT:      -5.1      4.315      9.452
  Name = 
  11 active torsions:
  status: ('A' for Active; 'I' for Inactive)
    1  A    between atoms: C_1  and  O_5
    2  A    between atoms: C_1  and  C_33
    3  A    between atoms: C_1  and  C_36
    4  A    between atoms: O_3  and  C_32
    5  A    between atoms: O_5  and  C_23
    6  A    between atoms: C_6  and  C_31
    7  A    between atoms: N_14  and  C_37
    8  A    between atoms: C_17  and  C_33
    9  A    between atoms: C_17  and  C_34
   10  A    between atoms: C_24  and  C_28
   11  A    between atoms: C_31  and  C_37
                            x       y       z     vdW  Elec       q    Type
                         _______ _______ _______ _____ _____    ______ ____

>  <TORSDO>
F 11

$$$$
=
 OpenBabel11052415263D

 37 40  0  0  1  0  0  0  0  0999 V2000
  185.2030  175.7780  137.3370 C   0  0  0  0  0  2  0  0  0  0  0  0
  184.5070  178.7750  138.5480 C   0  0  0  0  0  0  0  0  0  0  0  0
  181.8440  174.4430  136.4740 C   0  0  0  0  0  2  0  0  0  0  0  0
  184.9890  177.2220  136.8540 C   0  0  2  0  0  3  0  0  0  0  0  0
  182.9380  175.1970  136.3810 C   0  0  1  0  0  3  0  0  0  0  0  0
  185.5530  178.1480  137.8170 N   0  0  0  0  0  0  0  0  0  0  0  0
  184.3680  173.4860  137.5070 C   0  0  0  0  0  1  0  0  0  0  0  0
  182.5970  176.6180  136.0850 C   0  0  2  0  0  0  0  0  0  0  0  0
  181.1090  176.7100  136.3840 C   0  0  0  0  0  2  0  0  0  0  0  0
  184.3660  174.7100  136.6050 C   0  0  2  0  0  0  0  0  0  0  0  0
  182.7860  176.9000  134.6020 C   0  0  0  0  0  1  0  0  0  0  0  0
  184.7040  179.7200  139.3560 O   0  0  0  0  0  0  0  0  0  0  0  0
  183.4950  177.5720  136.8790 C   0  0  1  0  0  3  0  0  0  0  0  0
  180.6070  175.2660  136.3150 C   0  0  1  0  0  3  0  0  0  0  0  0
  183.1670  178.1890  138.2600 C   0  0  1  0  0  3  0  0  0  0  0  0
  180.0490  175.0260  135.0600 O   0  0  0  0  0  0  0  0  0  0  0  0
  179.0560  175.8870  134.9680 O   0  0  0  0  0  1  0  0  0  0  0  0
  184.7640  173.1460  134.6910 C   0  0  0  0  0  2  0  0  0  0  0  0
  185.0170  174.2990  135.3110 C   0  0  0  0  0  3  0  0  0  0  0  0
  182.8650  177.1590  139.3750 C   0  0  2  0  0  3  0  0  0  0  0  0
  181.4930  176.9890  139.5790 O   0  0  0  0  0  0  0  0  0  0  0  0
  179.8540  175.3120  139.9830 C   0  0  0  0  0  1  0  0  0  0  0  0
  181.3290  175.6260  139.8450 C   0  0  0  0  0  2  0  0  0  0  0  0
  183.5460  177.5390  140.7010 C   0  0  0  0  0  2  0  0  0  0  0  0
  182.8160  178.6550  141.4370 C   0  0  1  0  0  3  0  0  0  0  0  0
  181.5290  178.2360  141.7760 O   0  0  0  0  0  1  0  0  0  0  0  0
  184.7710  178.4670  142.9060 C   0  0  0  0  0  2  0  0  0  0  0  0
  183.5750  179.0030  142.6740 C   0  0  0  0  0  3  0  0  0  0  0  0
  186.9810  178.4040  137.9760 C   0  0  0  0  0  2  0  0  0  0  0  0
  187.4960  177.8780  139.3150 C   0  0  0  0  0  2  0  0  0  0  0  0
  189.3640  176.7560  138.0700 C   0  0  0  0  0  3  0  0  0  0  0  0
  188.9110  177.4150  139.2190 C   0  0  0  0  0  0  0  0  0  0  0  0
  189.7760  177.5990  140.3030 C   0  0  0  0  0  3  0  0  0  0  0  0
  191.9240  177.3040  141.2920 F   0  0  0  0  0  0  0  0  0  0  0  0
  191.5430  176.4740  139.0900 C   0  0  0  0  0  3  0  0  0  0  0  0
  191.0910  177.1300  140.2390 C   0  0  0  0  0  0  0  0  0  0  0  0
  190.6800  176.2880  138.0050 C   0  0  0  0  0  3  0  0  0  0  0  0
  2 12  2  0  0  0  0
  4 13  1  0  0  0  0
  4  1  1  1  0  0  0
  4  6  1  0  0  0  0
  5  3  1  1  0  0  0
  5 10  1  0  0  0  0
  6 29  1  0  0  0  0
  6  2  1  0  0  0  0
  8 11  1  6  0  0  0
  8  5  1  0  0  0  0
  8  9  1  0  0  0  0
  8 13  1  0  0  0  0
 10  1  1  0  0  0  0
 10  7  1  1  0  0  0
 13 15  1  0  0  0  0
 14  9  1  0  0  0  0
 14  3  1  0  0  0  0
 15  2  1  0  0  0  0
 15 20  1  0  0  0  0
 16 14  1  0  0  0  0
 17 16  1  0  0  0  0
 18 19  2  0  0  0  0
 19 10  1  0  0  0  0
 20 21  1  0  0  0  0
 20 24  1  0  0  0  0
 21 23  1  0  0  0  0
 23 22  1  0  0  0  0
 24 25  1  0  0  0  0
 25 26  1  0  0  0  0
 25 28  1  0  0  0  0
 28 27  2  0  0  0  0
 29 30  1  0  0  0  0
 31 32  1  0  0  0  0
 32 30  1  0  0  0  0
 32 33  2  0  0  0  0
 35 36  2  0  0  0  0
 36 33  1  0  0  0  0
 36 34  1  0  0  0  0
 37 31  2  0  0  0  0
 37 35  1  0  0  0  0
M  END
>  <MODEL>
9

>  <REMARK>
 VINA RESULT:      -4.8      4.831      9.144
  Name = 
  11 active torsions:
  status: ('A' for Active; 'I' for Inactive)
    1  A    between atoms: C_1  and  O_5
    2  A    between atoms: C_1  and  C_33
    3  A    between atoms: C_1  and  C_36
    4  A    between atoms: O_3  and  C_32
    5  A    between atoms: O_5  and  C_23
    6  A    between atoms: C_6  and  C_31
    7  A    between atoms: N_14  and  C_37
    8  A    between atoms: C_17  and  C_33
    9  A    between atoms: C_17  and  C_34
   10  A    between atoms: C_24  and  C_28
   11  A    between atoms: C_31  and  C_37
                            x       y       z     vdW  Elec       q    Type
                         _______ _______ _______ _____ _____    ______ ____

>  <TORSDO>
F 11

$$$$
