=
 OpenBabel11052415573D

 34 39  0  0  1  0  0  0  0  0999 V2000
  189.2440  176.3060  143.2070 C   0  0  1  0  0  3  0  0  0  0  0  0
  188.4320  178.4720  146.2310 C   0  0  0  0  0  2  0  0  0  0  0  0
  190.5380  178.1260  145.0790 C   0  0  0  0  0  2  0  0  0  0  0  0
  189.7920  177.0130  140.9120 C   0  0  2  0  0  3  0  0  0  0  0  0
  188.7020  176.3900  141.7770 C   0  0  0  0  0  2  0  0  0  0  0  0
  191.4010  175.3490  142.8280 O   0  0  0  0  0  0  0  0  0  0  0  0
  191.9760  174.9230  144.0440 C   0  0  0  0  0  2  0  0  0  0  0  0
  190.8730  177.4930  141.8570 C   0  0  2  0  0  3  0  0  0  0  0  0
  192.2430  177.4420  141.1940 C   0  0  0  0  0  1  0  0  0  0  0  0
  191.4330  177.2020  144.2790 C   0  0  2  0  0  3  0  0  0  0  0  0
  190.7600  176.5830  143.0720 C   0  0  1  0  0  0  0  0  0  0  0  0
  191.8930  176.0260  145.0760 C   0  0  0  0  0  2  0  0  0  0  0  0
  187.3000  177.7770  146.9740 C   0  0  0  0  0  2  0  0  0  0  0  0
  185.9860  177.7680  146.1830 C   0  0  2  0  0  3  0  0  0  0  0  0
  186.1380  177.5490  144.6770 C   0  0  0  0  0  2  0  0  0  0  0  0
  189.1900  177.4840  145.3420 C   0  0  2  0  0  3  0  0  0  0  0  0
  187.2340  176.5480  144.3470 C   0  0  0  0  0  2  0  0  0  0  0  0
  188.4920  177.2440  144.0640 N   0  0  2  0  0  0  0  0  0  0  0  0
  187.2700  177.0730  138.8860 C   0  0  0  0  0  3  0  0  0  0  0  0
  190.1890  178.3580  138.7800 C   0  0  0  0  0  3  0  0  0  0  0  0
  188.7990  174.7140  135.7910 C   0  0  0  0  0  0  0  0  0  0  0  0
  187.5480  174.4120  136.4160 N   0  0  0  0  0  0  0  0  0  0  0  0
  186.8570  175.4210  137.2130 C   0  0  0  0  0  2  0  0  0  0  0  0
  189.2610  173.9760  134.8790 O   0  0  0  0  0  0  0  0  0  0  0  0
  187.7970  176.4090  137.8520 C   0  0  0  0  0  0  0  0  0  0  0  0
  186.8270  173.1990  136.0690 C   0  0  0  0  0  1  0  0  0  0  0  0
  189.1450  176.6590  137.2350 C   0  0  0  0  0  0  0  0  0  0  0  0
  190.1020  177.7110  137.6210 C   0  0  0  0  0  3  0  0  0  0  0  0
  189.5700  175.8680  136.2480 C   0  0  0  0  0  2  0  0  0  0  0  0
  189.3190  178.1250  139.9650 C   0  0  0  0  0  0  0  0  0  0  0  0
  187.8380  178.2320  139.6370 C   0  0  0  0  0  2  0  0  0  0  0  0
  185.2030  179.0110  146.4470 C   0  0  0  0  0  0  0  0  0  0  0  0
  185.6310  179.8540  147.2770 O   0  0  0  0  0  1  0  0  0  0  0  0
  184.0090  179.2470  145.7770 O   0  0  0  0  0  0  0  0  0  0  0  0
  1  5  1  6  0  0  0
  1 18  1  0  0  0  0
  2 13  1  0  0  0  0
  4 30  1  1  0  0  0
  4  5  1  0  0  0  0
  4  8  1  0  0  0  0
  6  7  1  0  0  0  0
  7 12  1  0  0  0  0
  8  9  1  6  0  0  0
  8 11  1  0  0  0  0
 10 12  1  1  0  0  0
 10  3  1  0  0  0  0
 11  6  1  6  0  0  0
 11  1  1  0  0  0  0
 11 10  1  0  0  0  0
 14 32  1  6  0  0  0
 14 13  1  0  0  0  0
 15 14  1  0  0  0  0
 16  3  1  6  0  0  0
 16  2  1  0  0  0  0
 17 15  1  0  0  0  0
 18 17  1  1  0  0  0
 18 16  1  0  0  0  0
 19 31  1  0  0  0  0
 20 30  2  3  0  0  0
 21 29  1  0  0  0  0
 21 22  1  0  0  0  0
 22 23  1  0  0  0  0
 23 25  1  0  0  0  0
 24 21  2  0  0  0  0
 25 19  2  0  0  0  0
 26 22  1  0  0  0  0
 27 28  2  0  0  0  0
 27 25  1  0  0  0  0
 28 20  1  0  0  0  0
 29 27  1  0  0  0  0
 31 30  1  0  0  0  0
 32 33  1  0  0  0  0
 34 32  2  0  0  0  0
M  END
>  <MODEL>
1

>  <REMARK>
 VINA RESULT:      -7.4      0.000      0.000
  Name = 
  2 active torsions:
  status: ('A' for Active; 'I' for Inactive)
    1  A    between atoms: C_3  and  C_25
    2  A    between atoms: C_8  and  C_30
                            x       y       z     vdW  Elec       q    Type
                         _______ _______ _______ _____ _____    ______ ____

>  <TORSDO>
F 2

$$$$
=
 OpenBabel11052415573D

 34 39  0  0  1  0  0  0  0  0999 V2000
  182.8920  175.7030  138.3380 C   0  0  1  0  0  3  0  0  0  0  0  0
  184.1770  176.4150  134.8260 C   0  0  0  0  0  2  0  0  0  0  0  0
  181.9060  176.1370  135.6300 C   0  0  0  0  0  2  0  0  0  0  0  0
  181.6840  177.2080  139.8680 C   0  0  2  0  0  3  0  0  0  0  0  0
  183.0310  176.5400  139.6130 C   0  0  0  0  0  2  0  0  0  0  0  0
  180.8490  174.5390  138.7700 O   0  0  0  0  0  0  0  0  0  0  0  0
  180.6670  173.4940  137.8390 C   0  0  0  0  0  2  0  0  0  0  0  0
  180.8330  176.9480  138.6440 C   0  0  2  0  0  3  0  0  0  0  0  0
  179.3560  176.8780  139.0090 C   0  0  0  0  0  1  0  0  0  0  0  0
  180.9600  175.4850  136.6170 C   0  0  2  0  0  3  0  0  0  0  0  0
  181.3710  175.6470  138.0660 C   0  0  1  0  0  0  0  0  0  0  0  0
  180.8740  174.0060  136.4310 C   0  0  0  0  0  2  0  0  0  0  0  0
  185.5420  175.7490  134.7170 C   0  0  0  0  0  2  0  0  0  0  0  0
  186.5970  176.4030  135.6180 C   0  0  2  0  0  3  0  0  0  0  0  0
  186.0890  176.8490  136.9900 C   0  0  0  0  0  2  0  0  0  0  0  0
  183.3470  175.7810  135.9430 C   0  0  2  0  0  3  0  0  0  0  0  0
  185.0810  175.8750  137.5780 C   0  0  0  0  0  2  0  0  0  0  0  0
  183.7150  176.3070  137.2720 N   0  0  2  0  0  0  0  0  0  0  0  0
  184.2410  179.1870  140.0150 C   0  0  0  0  0  3  0  0  0  0  0  0
  181.5030  179.0290  141.6470 C   0  0  0  0  0  3  0  0  0  0  0  0
  185.8520  177.9820  143.6800 C   0  0  0  0  0  0  0  0  0  0  0  0
  186.6380  178.0000  142.4850 N   0  0  0  0  0  0  0  0  0  0  0  0
  186.1940  178.7570  141.3190 C   0  0  0  0  0  2  0  0  0  0  0  0
  186.3440  177.5880  144.7720 O   0  0  0  0  0  0  0  0  0  0  0  0
  184.6950  178.8770  141.2340 C   0  0  1  0  0  3  0  0  0  0  0  0
  187.9960  177.4830  142.4910 C   0  0  0  0  0  1  0  0  0  0  0  0
  183.8690  178.7720  142.4850 C   0  0  0  0  0  0  0  0  0  0  0  0
  182.4250  179.0450  142.6060 C   0  0  0  0  0  3  0  0  0  0  0  0
  184.4490  178.3840  143.6220 C   0  0  0  0  0  2  0  0  0  0  0  0
  181.7520  178.7030  140.2160 C   0  0  0  0  0  0  0  0  0  0  0  0
  182.8530  179.5530  139.6020 C   0  0  0  0  0  3  0  0  0  0  0  0
  187.2580  177.5420  134.9160 C   0  0  0  0  0  0  0  0  0  0  0  0
  186.5810  178.5530  134.5940 O   0  0  0  0  0  0  0  0  0  0  0  0
  188.6150  177.4980  134.6250 O   0  0  0  0  0  1  0  0  0  0  0  0
  1  5  1  1  0  0  0
  3 16  1  0  0  0  0
  4 30  1  6  0  0  0
  5  4  1  0  0  0  0
  7  6  1  0  0  0  0
  8  9  1  1  0  0  0
  8  4  1  0  0  0  0
 10  3  1  6  0  0  0
 10 11  1  0  0  0  0
 11  1  1  0  0  0  0
 11  8  1  0  0  0  0
 11  6  1  1  0  0  0
 12 10  1  0  0  0  0
 12  7  1  0  0  0  0
 13  2  1  0  0  0  0
 13 14  1  0  0  0  0
 14 32  1  6  0  0  0
 14 15  1  0  0  0  0
 15 17  1  0  0  0  0
 16  2  1  6  0  0  0
 16 18  1  0  0  0  0
 18 17  1  1  0  0  0
 18  1  1  0  0  0  0
 20 28  1  0  0  0  0
 21 24  2  0  0  0  0
 22 26  1  0  0  0  0
 22 21  1  0  0  0  0
 23 22  1  0  0  0  0
 25 19  1  1  0  0  0
 25 23  1  0  0  0  0
 25 27  1  0  0  0  0
 27 28  2  0  0  0  0
 27 29  1  0  0  0  0
 29 21  1  0  0  0  0
 30 20  2  3  0  0  0
 31 19  2  0  0  0  0
 31 30  1  0  0  0  0
 33 32  2  0  0  0  0
 34 32  1  0  0  0  0
M  END
>  <MODEL>
2

>  <REMARK>
 VINA RESULT:      -6.9      4.603      9.949
  Name = 
  2 active torsions:
  status: ('A' for Active; 'I' for Inactive)
    1  A    between atoms: C_3  and  C_25
    2  A    between atoms: C_8  and  C_30
                            x       y       z     vdW  Elec       q    Type
                         _______ _______ _______ _____ _____    ______ ____

>  <TORSDO>
F 2

$$$$
=
 OpenBabel11052415573D

 34 39  0  0  1  0  0  0  0  0999 V2000
  189.7230  174.6950  137.4860 C   0  0  1  0  0  3  0  0  0  0  0  0
  192.4580  174.8950  134.8460 C   0  0  0  0  0  2  0  0  0  0  0  0
  190.0660  174.5900  134.5940 C   0  0  0  0  0  2  0  0  0  0  0  0
  187.9710  176.3440  138.0130 C   0  0  2  0  0  3  0  0  0  0  0  0
  189.2820  175.7450  138.5110 C   0  0  0  0  0  2  0  0  0  0  0  0
  187.6930  173.4730  137.1730 O   0  0  0  0  0  0  0  0  0  0  0  0
  187.9380  172.2740  136.4690 C   0  0  0  0  0  2  0  0  0  0  0  0
  187.7590  175.8180  136.6100 C   0  0  2  0  0  3  0  0  0  0  0  0
  186.2760  175.7010  136.2870 C   0  0  0  0  0  1  0  0  0  0  0  0
  188.7700  174.0460  135.1590 C   0  0  2  0  0  3  0  0  0  0  0  0
  188.4870  174.4810  136.5820 C   0  0  1  0  0  0  0  0  0  0  0  0
  188.7620  172.5540  135.2320 C   0  0  0  0  0  2  0  0  0  0  0  0
  193.7200  174.3240  135.4790 C   0  0  0  0  0  2  0  0  0  0  0  0
  194.2620  175.1970  136.6170 C   0  0  2  0  0  3  0  0  0  0  0  0
  193.1960  175.8310  137.5120 C   0  0  0  0  0  2  0  0  0  0  0  0
  191.2080  174.4000  135.5740 C   0  0  2  0  0  3  0  0  0  0  0  0
  192.0210  174.8990  137.7600 C   0  0  0  0  0  2  0  0  0  0  0  0
  190.9440  175.1690  136.8050 N   0  0  2  0  0  0  0  0  0  0  0  0
  189.3240  178.4110  140.1040 C   0  0  0  0  0  3  0  0  0  0  0  0
  186.5700  178.4230  138.4910 C   0  0  0  0  0  3  0  0  0  0  0  0
  186.7700  177.8780  143.3700 C   0  0  0  0  0  0  0  0  0  0  0  0
  188.1870  177.7290  143.4950 N   0  0  0  0  0  0  0  0  0  0  0  0
  189.0790  178.2690  142.4740 C   0  0  0  0  0  2  0  0  0  0  0  0
  186.0100  177.6850  144.3580 O   0  0  0  0  0  0  0  0  0  0  0  0
  188.4460  178.3200  141.1080 C   0  0  1  0  0  3  0  0  0  0  0  0
  188.7710  177.2690  144.7430 C   0  0  0  0  0  1  0  0  0  0  0  0
  186.9510  178.3910  140.9850 C   0  0  0  0  0  0  0  0  0  0  0  0
  186.1850  178.6280  139.7480 C   0  0  0  0  0  3  0  0  0  0  0  0
  186.1950  178.2150  142.0700 C   0  0  0  0  0  2  0  0  0  0  0  0
  187.8900  177.8770  138.0720 C   0  0  0  0  0  0  0  0  0  0  0  0
  189.0600  178.6550  138.6540 C   0  0  0  0  0  3  0  0  0  0  0  0
  195.1800  176.2470  136.0850 C   0  0  0  0  0  0  0  0  0  0  0  0
  196.4070  175.9980  135.9600 O   0  0  0  0  0  1  0  0  0  0  0  0
  194.6870  177.4930  135.7180 O   0  0  0  0  0  0  0  0  0  0  0  0
  1  5  1  1  0  0  0
  2 13  1  0  0  0  0
  2 16  1  0  0  0  0
  4 30  1  6  0  0  0
  4  5  1  0  0  0  0
  7  6  1  0  0  0  0
  8  9  1  1  0  0  0
  8  4  1  0  0  0  0
 10  3  1  1  0  0  0
 10 12  1  0  0  0  0
 10 11  1  0  0  0  0
 11  8  1  0  0  0  0
 11  6  1  1  0  0  0
 11  1  1  0  0  0  0
 12  7  1  0  0  0  0
 13 14  1  0  0  0  0
 14 32  1  6  0  0  0
 14 15  1  0  0  0  0
 15 17  1  0  0  0  0
 16  3  1  6  0  0  0
 16 18  1  0  0  0  0
 18  1  1  0  0  0  0
 18 17  1  1  0  0  0
 20 28  1  0  0  0  0
 21 22  1  0  0  0  0
 21 24  2  0  0  0  0
 22 26  1  0  0  0  0
 23 22  1  0  0  0  0
 25 19  1  1  0  0  0
 25 23  1  0  0  0  0
 27 25  1  0  0  0  0
 27 29  1  0  0  0  0
 28 27  2  0  0  0  0
 29 21  1  0  0  0  0
 30 20  2  3  0  0  0
 30 31  1  0  0  0  0
 31 19  2  0  0  0  0
 33 32  1  0  0  0  0
 34 32  2  0  0  0  0
M  END
>  <MODEL>
3

>  <REMARK>
 VINA RESULT:      -6.5      2.908      8.999
  Name = 
  2 active torsions:
  status: ('A' for Active; 'I' for Inactive)
    1  A    between atoms: C_3  and  C_25
    2  A    between atoms: C_8  and  C_30
                            x       y       z     vdW  Elec       q    Type
                         _______ _______ _______ _____ _____    ______ ____

>  <TORSDO>
F 2

$$$$
=
 OpenBabel11052415573D

 34 39  0  0  1  0  0  0  0  0999 V2000
  182.1790  179.1590  139.2890 C   0  0  1  0  0  3  0  0  0  0  0  0
  183.7480  178.4170  142.6780 C   0  0  0  0  0  2  0  0  0  0  0  0
  181.4330  178.2880  141.9680 C   0  0  0  0  0  2  0  0  0  0  0  0
  181.2330  177.5790  137.6540 C   0  0  2  0  0  3  0  0  0  0  0  0
  182.4260  178.4870  137.9350 C   0  0  0  0  0  2  0  0  0  0  0  0
  179.9240  179.9060  139.0300 O   0  0  0  0  0  0  0  0  0  0  0  0
  179.5760  180.8030  140.0630 C   0  0  0  0  0  2  0  0  0  0  0  0
  180.4060  177.5450  138.9210 C   0  0  2  0  0  3  0  0  0  0  0  0
  178.9310  177.3390  138.6060 C   0  0  0  0  0  1  0  0  0  0  0  0
  180.3270  178.8150  141.0770 C   0  0  2  0  0  3  0  0  0  0  0  0
  180.6930  178.8730  139.6080 C   0  0  1  0  0  0  0  0  0  0  0  0
  179.9500  180.2210  141.4080 C   0  0  0  0  0  2  0  0  0  0  0  0
  184.9520  179.3400  142.8130 C   0  0  0  0  0  2  0  0  0  0  0  0
  186.0740  179.0040  141.8230 C   0  0  2  0  0  3  0  0  0  0  0  0
  185.6030  178.5860  140.4290 C   0  0  0  0  0  2  0  0  0  0  0  0
  182.7540  178.9630  141.6520 C   0  0  2  0  0  3  0  0  0  0  0  0
  184.3910  179.3780  139.9670 C   0  0  0  0  0  2  0  0  0  0  0  0
  183.1580  178.6460  140.2680 N   0  0  2  0  0  0  0  0  0  0  0  0
  183.9190  175.8340  138.1230 C   0  0  0  0  0  3  0  0  0  0  0  0
  181.8550  176.0610  135.6990 C   0  0  0  0  0  3  0  0  0  0  0  0
  186.4690  177.7240  135.4020 C   0  0  0  0  0  0  0  0  0  0  0  0
  186.8240  177.5690  136.7790 N   0  0  0  0  0  0  0  0  0  0  0  0
  186.1210  176.6050  137.6200 C   0  0  0  0  0  2  0  0  0  0  0  0
  187.2360  178.3230  134.6000 O   0  0  0  0  0  0  0  0  0  0  0  0
  184.7010  176.3680  137.1790 C   0  0  0  0  0  0  0  0  0  0  0  0
  188.0390  178.1750  137.2980 C   0  0  0  0  0  1  0  0  0  0  0  0
  184.3160  176.6140  135.7470 C   0  0  0  0  0  0  0  0  0  0  0  0
  183.0320  176.2640  135.1130 C   0  0  0  0  0  3  0  0  0  0  0  0
  185.1800  177.2210  134.9320 C   0  0  0  0  0  2  0  0  0  0  0  0
  181.5890  176.1680  137.1590 C   0  0  0  0  0  0  0  0  0  0  0  0
  182.5260  175.3100  137.9940 C   0  0  0  0  0  2  0  0  0  0  0  0
  186.9860  177.9680  142.3920 C   0  0  0  0  0  0  0  0  0  0  0  0
  187.9450  177.5360  141.7020 O   0  0  0  0  0  0  0  0  0  0  0  0
  186.7890  177.4850  143.6790 O   0  0  0  0  0  1  0  0  0  0  0  0
  1  5  1  6  0  0  0
  1 11  1  0  0  0  0
  1 18  1  0  0  0  0
  2 13  1  0  0  0  0
  4 30  1  1  0  0  0
  4  5  1  0  0  0  0
  4  8  1  0  0  0  0
  6  7  1  0  0  0  0
  7 12  1  0  0  0  0
  8  9  1  6  0  0  0
  8 11  1  0  0  0  0
 10 12  1  1  0  0  0
 10  3  1  0  0  0  0
 11  6  1  6  0  0  0
 11 10  1  0  0  0  0
 14 32  1  1  0  0  0
 14 13  1  0  0  0  0
 15 14  1  0  0  0  0
 16  3  1  1  0  0  0
 16  2  1  0  0  0  0
 17 15  1  0  0  0  0
 18 17  1  6  0  0  0
 18 16  1  0  0  0  0
 20 30  2  3  0  0  0
 21 22  1  0  0  0  0
 22 26  1  0  0  0  0
 22 23  1  0  0  0  0
 24 21  2  0  0  0  0
 25 23  1  0  0  0  0
 25 19  2  0  0  0  0
 27 25  1  0  0  0  0
 28 20  1  0  0  0  0
 28 27  2  0  0  0  0
 29 21  1  0  0  0  0
 29 27  1  0  0  0  0
 30 31  1  0  0  0  0
 31 19  1  0  0  0  0
 32 34  1  0  0  0  0
 33 32  2  0  0  0  0
M  END
>  <MODEL>
4

>  <REMARK>
 VINA RESULT:      -6.3      5.024      7.913
  Name = 
  2 active torsions:
  status: ('A' for Active; 'I' for Inactive)
    1  A    between atoms: C_3  and  C_25
    2  A    between atoms: C_8  and  C_30
                            x       y       z     vdW  Elec       q    Type
                         _______ _______ _______ _____ _____    ______ ____

>  <TORSDO>
F 2

$$$$
=
 OpenBabel11052415573D

 34 39  0  0  1  0  0  0  0  0999 V2000
  185.7830  179.2220  142.3700 C   0  0  1  0  0  3  0  0  0  0  0  0
  188.6140  176.6780  142.4630 C   0  0  0  0  0  2  0  0  0  0  0  0
  186.7110  176.9500  143.9420 C   0  0  0  0  0  2  0  0  0  0  0  0
  183.4150  178.8660  141.7920 C   0  0  2  0  0  3  0  0  0  0  0  0
  184.7260  179.4610  141.2870 C   0  0  0  0  0  2  0  0  0  0  0  0
  184.6160  179.9490  144.3250 O   0  0  0  0  0  0  0  0  0  0  0  0
  185.5040  180.0770  145.4140 C   0  0  0  0  0  2  0  0  0  0  0  0
  183.7460  178.0940  143.0510 C   0  0  2  0  0  3  0  0  0  0  0  0
  182.5670  178.0870  144.0150 C   0  0  0  0  0  1  0  0  0  0  0  0
  185.7070  177.8800  144.5920 C   0  0  2  0  0  3  0  0  0  0  0  0
  184.9800  178.7830  143.6160 C   0  0  1  0  0  0  0  0  0  0  0  0
  186.3470  178.8290  145.5500 C   0  0  0  0  0  2  0  0  0  0  0  0
  189.8410  177.3690  141.8850 C   0  0  0  0  0  2  0  0  0  0  0  0
  189.6990  177.6840  140.3910 C   0  0  2  0  0  3  0  0  0  0  0  0
  188.3060  178.1440  139.9570 C   0  0  0  0  0  2  0  0  0  0  0  0
  187.5960  177.7020  142.9660 C   0  0  2  0  0  3  0  0  0  0  0  0
  187.6440  179.0400  140.9910 C   0  0  0  0  0  2  0  0  0  0  0  0
  186.7760  178.2510  141.8680 N   0  0  2  0  0  0  0  0  0  0  0  0
  182.8670  179.3870  138.6450 C   0  0  0  0  0  3  0  0  0  0  0  0
  181.1760  177.9750  140.9550 C   0  0  0  0  0  3  0  0  0  0  0  0
  179.8260  182.2420  138.9240 C   0  0  0  0  0  0  0  0  0  0  0  0
  181.0120  182.4820  138.1630 N   0  0  0  0  0  0  0  0  0  0  0  0
  181.8760  181.3740  137.7690 C   0  0  0  0  0  2  0  0  0  0  0  0
  178.9310  183.1240  139.0230 O   0  0  0  0  0  0  0  0  0  0  0  0
  181.8230  180.2180  138.7340 C   0  0  0  0  0  0  0  0  0  0  0  0
  181.2470  183.7830  137.5590 C   0  0  0  0  0  1  0  0  0  0  0  0
  180.6060  180.0210  139.5920 C   0  0  0  0  0  0  0  0  0  0  0  0
  180.3160  178.8540  140.4460 C   0  0  0  0  0  3  0  0  0  0  0  0
  179.6720  180.9730  139.6320 C   0  0  0  0  0  2  0  0  0  0  0  0
  182.6520  178.0080  140.7720 C   0  0  0  0  0  0  0  0  0  0  0  0
  183.0630  178.0630  139.3090 C   0  0  0  0  0  2  0  0  0  0  0  0
  190.1410  176.5240  139.5630 C   0  0  0  0  0  0  0  0  0  0  0  0
  191.2600  175.9920  139.7810 O   0  0  0  0  0  1  0  0  0  0  0  0
  189.3220  176.0220  138.5590 O   0  0  0  0  0  0  0  0  0  0  0  0
  1  5  1  6  0  0  0
  1 11  1  0  0  0  0
  4 30  1  6  0  0  0
  4  8  1  0  0  0  0
  5  4  1  0  0  0  0
  6  7  1  0  0  0  0
  7 12  1  0  0  0  0
  8 11  1  0  0  0  0
  8  9  1  1  0  0  0
 10  3  1  6  0  0  0
 10 12  1  0  0  0  0
 11  6  1  1  0  0  0
 11 10  1  0  0  0  0
 13  2  1  0  0  0  0
 14 32  1  6  0  0  0
 14 13  1  0  0  0  0
 15 14  1  0  0  0  0
 15 17  1  0  0  0  0
 16  2  1  6  0  0  0
 16  3  1  0  0  0  0
 18 17  1  6  0  0  0
 18  1  1  0  0  0  0
 18 16  1  0  0  0  0
 19 25  2  0  0  0  0
 19 31  1  0  0  0  0
 21 24  2  0  0  0  0
 21 29  1  0  0  0  0
 22 21  1  0  0  0  0
 23 22  1  0  0  0  0
 23 25  1  0  0  0  0
 25 27  1  0  0  0  0
 26 22  1  0  0  0  0
 27 29  1  0  0  0  0
 27 28  2  0  0  0  0
 28 20  1  0  0  0  0
 30 20  2  3  0  0  0
 31 30  1  0  0  0  0
 32 33  1  0  0  0  0
 34 32  2  0  0  0  0
M  END
>  <MODEL>
5

>  <REMARK>
 VINA RESULT:      -6.3      5.012      8.001
  Name = 
  2 active torsions:
  status: ('A' for Active; 'I' for Inactive)
    1  A    between atoms: C_3  and  C_25
    2  A    between atoms: C_8  and  C_30
                            x       y       z     vdW  Elec       q    Type
                         _______ _______ _______ _____ _____    ______ ____

>  <TORSDO>
F 2

$$$$
=
 OpenBabel11052415573D

 34 39  0  0  1  0  0  0  0  0999 V2000
  189.1700  175.4420  137.9090 C   0  0  1  0  0  3  0  0  0  0  0  0
  186.4340  177.8990  136.9220 C   0  0  0  0  0  2  0  0  0  0  0  0
  188.6990  178.3090  137.6820 C   0  0  0  0  0  2  0  0  0  0  0  0
  191.2440  174.8860  136.7030 C   0  0  2  0  0  3  0  0  0  0  0  0
  189.8580  174.3640  137.0670 C   0  0  0  0  0  2  0  0  0  0  0  0
  190.8900  175.9670  139.4840 O   0  0  0  0  0  0  0  0  0  0  0  0
  190.3740  176.7490  140.5400 C   0  0  0  0  0  2  0  0  0  0  0  0
  191.2870  176.3370  137.1330 C   0  0  2  0  0  3  0  0  0  0  0  0
  192.7010  176.7510  137.5190 C   0  0  0  0  0  1  0  0  0  0  0  0
  189.8760  177.8640  138.5260 C   0  0  2  0  0  3  0  0  0  0  0  0
  190.2990  176.4290  138.2870 C   0  0  1  0  0  0  0  0  0  0  0  0
  189.5780  177.9110  139.9890 C   0  0  0  0  0  2  0  0  0  0  0  0
  185.1070  177.2420  137.2800 C   0  0  0  0  0  2  0  0  0  0  0  0
  184.8020  176.0090  136.4210 C   0  0  2  0  0  3  0  0  0  0  0  0
  186.0110  175.1290  136.1000 C   0  0  0  0  0  2  0  0  0  0  0  0
  187.5820  177.2850  137.7240 C   0  0  2  0  0  3  0  0  0  0  0  0
  186.9760  175.0230  137.2690 C   0  0  0  0  0  2  0  0  0  0  0  0
  188.0480  176.0130  137.1380 N   0  0  2  0  0  0  0  0  0  0  0  0
  193.4410  172.9150  135.3750 C   0  0  0  0  0  3  0  0  0  0  0  0
  192.4050  175.8440  134.6420 C   0  0  0  0  0  3  0  0  0  0  0  0
  196.9330  174.9960  136.3510 C   0  0  0  0  0  0  0  0  0  0  0  0
  196.7590  173.6200  136.6980 N   0  0  0  0  0  0  0  0  0  0  0  0
  195.7300  172.8170  136.0440 C   0  0  0  0  0  2  0  0  0  0  0  0
  197.9800  175.6180  136.6790 O   0  0  0  0  0  0  0  0  0  0  0  0
  194.5470  173.6340  135.5930 C   0  0  1  0  0  3  0  0  0  0  0  0
  197.7510  172.9350  137.5100 C   0  0  0  0  0  1  0  0  0  0  0  0
  194.7210  175.0990  135.3120 C   0  0  0  0  0  0  0  0  0  0  0  0
  193.7260  175.9960  134.6960 C   0  0  0  0  0  3  0  0  0  0  0  0
  195.8640  175.7000  135.6480 C   0  0  0  0  0  2  0  0  0  0  0  0
  191.6430  174.7090  135.2300 C   0  0  0  0  0  0  0  0  0  0  0  0
  192.1510  173.3540  134.7630 C   0  0  0  0  0  3  0  0  0  0  0  0
  184.1010  176.4030  135.1630 C   0  0  0  0  0  0  0  0  0  0  0  0
  184.3870  177.4940  134.6060 O   0  0  0  0  0  1  0  0  0  0  0  0
  183.1430  175.5700  134.6000 O   0  0  0  0  0  0  0  0  0  0  0  0
  1  5  1  6  0  0  0
  1 11  1  0  0  0  0
  2 13  1  0  0  0  0
  3 16  1  0  0  0  0
  4 30  1  6  0  0  0
  4  5  1  0  0  0  0
  4  8  1  0  0  0  0
  6  7  1  0  0  0  0
  8  9  1  1  0  0  0
  8 11  1  0  0  0  0
 10  3  1  6  0  0  0
 10 12  1  0  0  0  0
 11 10  1  0  0  0  0
 11  6  1  1  0  0  0
 12  7  1  0  0  0  0
 14 32  1  6  0  0  0
 14 13  1  0  0  0  0
 15 14  1  0  0  0  0
 15 17  1  0  0  0  0
 16  2  1  6  0  0  0
 18 17  1  1  0  0  0
 18 16  1  0  0  0  0
 18  1  1  0  0  0  0
 20 28  1  0  0  0  0
 20 30  2  3  0  0  0
 21 24  2  0  0  0  0
 21 22  1  0  0  0  0
 22 26  1  0  0  0  0
 23 22  1  0  0  0  0
 25 19  1  6  0  0  0
 25 23  1  0  0  0  0
 27 25  1  0  0  0  0
 27 29  1  0  0  0  0
 28 27  2  0  0  0  0
 29 21  1  0  0  0  0
 31 30  1  0  0  0  0
 31 19  2  0  0  0  0
 33 32  1  0  0  0  0
 34 32  2  0  0  0  0
M  END
>  <MODEL>
6

>  <REMARK>
 VINA RESULT:      -5.9      4.562      7.821
  Name = 
  2 active torsions:
  status: ('A' for Active; 'I' for Inactive)
    1  A    between atoms: C_3  and  C_25
    2  A    between atoms: C_8  and  C_30
                            x       y       z     vdW  Elec       q    Type
                         _______ _______ _______ _____ _____    ______ ____

>  <TORSDO>
F 2

$$$$
=
 OpenBabel11052415573D

 34 39  0  0  1  0  0  0  0  0999 V2000
  183.7200  176.0430  135.7040 C   0  0  1  0  0  3  0  0  0  0  0  0
  183.8920  172.3310  136.5330 C   0  0  0  0  0  2  0  0  0  0  0  0
  185.2010  174.1840  137.3900 C   0  0  0  0  0  2  0  0  0  0  0  0
  182.8980  177.8940  137.1060 C   0  0  2  0  0  3  0  0  0  0  0  0
  182.5640  177.0290  135.8950 C   0  0  0  0  0  2  0  0  0  0  0  0
  185.6050  177.5050  135.8610 O   0  0  0  0  0  0  0  0  0  0  0  0
  186.7790  176.8470  135.4360 C   0  0  0  0  0  2  0  0  0  0  0  0
  184.1220  177.2820  137.7510 C   0  0  2  0  0  3  0  0  0  0  0  0
  184.9690  178.3440  138.4390 C   0  0  0  0  0  1  0  0  0  0  0  0
  185.8210  175.5440  137.1470 C   0  0  2  0  0  3  0  0  0  0  0  0
  184.8500  176.5780  136.6140 C   0  0  1  0  0  0  0  0  0  0  0  0
  186.9020  175.5030  136.1180 C   0  0  0  0  0  2  0  0  0  0  0  0
  183.4840  171.5830  135.2710 C   0  0  0  0  0  2  0  0  0  0  0  0
  182.0100  171.7950  134.9040 C   0  0  2  0  0  3  0  0  0  0  0  0
  181.4820  173.2110  135.1380 C   0  0  0  0  0  2  0  0  0  0  0  0
  184.3710  173.7450  136.1990 C   0  0  2  0  0  3  0  0  0  0  0  0
  182.5130  174.2760  134.8010 C   0  0  0  0  0  2  0  0  0  0  0  0
  183.2440  174.6780  136.0050 N   0  0  2  0  0  0  0  0  0  0  0  0
  180.1070  179.5000  136.7810 C   0  0  0  0  0  3  0  0  0  0  0  0
  182.0580  178.9850  139.2540 C   0  0  0  0  0  3  0  0  0  0  0  0
  181.4960  183.4190  137.2130 C   0  0  0  0  0  0  0  0  0  0  0  0
  180.7280  183.0170  136.0760 N   0  0  0  0  0  0  0  0  0  0  0  0
  179.9470  181.7850  136.1090 C   0  0  0  0  0  2  0  0  0  0  0  0
  181.9330  184.5970  137.3150 O   0  0  0  0  0  0  0  0  0  0  0  0
  180.5340  180.7430  137.0260 C   0  0  0  0  0  0  0  0  0  0  0  0
  180.5080  183.9390  134.9740 C   0  0  0  0  0  1  0  0  0  0  0  0
  181.4100  181.1690  138.1690 C   0  0  0  0  0  0  0  0  0  0  0  0
  181.9120  180.3070  139.2560 C   0  0  0  0  0  3  0  0  0  0  0  0
  181.8160  182.4380  138.2470 C   0  0  0  0  0  2  0  0  0  0  0  0
  181.7510  178.0850  138.1100 C   0  0  0  0  0  0  0  0  0  0  0  0
  180.3350  178.2610  137.5850 C   0  0  0  0  0  2  0  0  0  0  0  0
  181.1440  170.7980  135.6010 C   0  0  0  0  0  0  0  0  0  0  0  0
  181.0510  169.6280  135.1480 O   0  0  0  0  0  0  0  0  0  0  0  0
  180.4470  171.1520  136.7490 O   0  0  0  0  0  1  0  0  0  0  0  0
  1  5  1  1  0  0  0
  1 18  1  0  0  0  0
  1 11  1  0  0  0  0
  4  8  1  0  0  0  0
  4 30  1  1  0  0  0
  5  4  1  0  0  0  0
  7  6  1  0  0  0  0
  7 12  1  0  0  0  0
  8  9  1  6  0  0  0
 10 12  1  6  0  0  0
 10  3  1  0  0  0  0
 11  6  1  6  0  0  0
 11 10  1  0  0  0  0
 11  8  1  0  0  0  0
 13  2  1  0  0  0  0
 14 15  1  0  0  0  0
 14 13  1  0  0  0  0
 14 32  1  1  0  0  0
 16  2  1  1  0  0  0
 16  3  1  0  0  0  0
 17 15  1  0  0  0  0
 18 17  1  6  0  0  0
 18 16  1  0  0  0  0
 19 25  2  0  0  0  0
 19 31  1  0  0  0  0
 20 28  1  0  0  0  0
 21 24  2  0  0  0  0
 21 29  1  0  0  0  0
 22 23  1  0  0  0  0
 22 21  1  0  0  0  0
 23 25  1  0  0  0  0
 25 27  1  0  0  0  0
 26 22  1  0  0  0  0
 27 29  1  0  0  0  0
 27 28  2  0  0  0  0
 30 20  2  3  0  0  0
 31 30  1  0  0  0  0
 32 34  1  0  0  0  0
 33 32  2  0  0  0  0
M  END
>  <MODEL>
7

>  <REMARK>
 VINA RESULT:      -5.8      6.881     10.558
  Name = 
  2 active torsions:
  status: ('A' for Active; 'I' for Inactive)
    1  A    between atoms: C_3  and  C_25
    2  A    between atoms: C_8  and  C_30
                            x       y       z     vdW  Elec       q    Type
                         _______ _______ _______ _____ _____    ______ ____

>  <TORSDO>
F 2

$$$$
=
 OpenBabel11052415573D

 34 39  0  0  1  0  0  0  0  0999 V2000
  191.0400  174.2020  137.4970 C   0  0  1  0  0  3  0  0  0  0  0  0
  193.5280  174.3090  134.6170 C   0  0  0  0  0  2  0  0  0  0  0  0
  191.1070  174.4470  134.5940 C   0  0  0  0  0  2  0  0  0  0  0  0
  189.6670  176.0320  138.4100 C   0  0  2  0  0  3  0  0  0  0  0  0
  190.8860  175.1570  138.6850 C   0  0  0  0  0  2  0  0  0  0  0  0
  188.8030  173.3940  137.2600 O   0  0  0  0  0  0  0  0  0  0  0  0
  188.7660  172.2820  136.3920 C   0  0  0  0  0  2  0  0  0  0  0  0
  189.2430  175.7500  136.9850 C   0  0  2  0  0  3  0  0  0  0  0  0
  187.7410  175.9300  136.8150 C   0  0  0  0  0  1  0  0  0  0  0  0
  189.7880  174.0550  135.2260 C   0  0  2  0  0  3  0  0  0  0  0  0
  189.7120  174.3270  136.7140 C   0  0  1  0  0  0  0  0  0  0  0  0
  189.5170  172.5900  135.1160 C   0  0  0  0  0  2  0  0  0  0  0  0
  194.7150  173.4510  135.0340 C   0  0  0  0  0  2  0  0  0  0  0  0
  195.5030  174.0520  136.2040 C   0  0  2  0  0  3  0  0  0  0  0  0
  194.6500  174.7240  137.2810 C   0  0  0  0  0  2  0  0  0  0  0  0
  192.2760  173.9330  135.4110 C   0  0  2  0  0  3  0  0  0  0  0  0
  193.3520  173.9770  137.5400 C   0  0  0  0  0  2  0  0  0  0  0  0
  192.2630  174.5560  136.7490 N   0  0  2  0  0  0  0  0  0  0  0  0
  191.6690  177.5310  140.4650 C   0  0  0  0  0  3  0  0  0  0  0  0
  188.7480  178.2100  139.3720 C   0  0  0  0  0  3  0  0  0  0  0  0
  189.5880  176.9270  144.0400 C   0  0  0  0  0  0  0  0  0  0  0  0
  190.9580  176.5430  143.8960 N   0  0  0  0  0  0  0  0  0  0  0  0
  191.7660  177.0820  142.8070 C   0  0  0  0  0  2  0  0  0  0  0  0
  188.9650  176.7110  145.1150 O   0  0  0  0  0  0  0  0  0  0  0  0
  190.9520  177.4320  141.5890 C   0  0  1  0  0  3  0  0  0  0  0  0
  191.6330  175.8180  144.9590 C   0  0  0  0  0  1  0  0  0  0  0  0
  189.4920  177.7520  141.7390 C   0  0  0  0  0  0  0  0  0  0  0  0
  188.6010  178.2850  140.6920 C   0  0  0  0  0  3  0  0  0  0  0  0
  188.8900  177.5370  142.9100 C   0  0  0  0  0  2  0  0  0  0  0  0
  189.8700  177.5330  138.6660 C   0  0  0  0  0  0  0  0  0  0  0  0
  191.2340  178.0240  139.1230 C   0  0  0  0  0  3  0  0  0  0  0  0
  196.5460  174.9980  135.7070 C   0  0  0  0  0  0  0  0  0  0  0  0
  196.6970  176.1120  136.2710 O   0  0  0  0  0  1  0  0  0  0  0  0
  197.3560  174.6520  134.6320 O   0  0  0  0  0  0  0  0  0  0  0  0
  1  5  1  1  0  0  0
  2 13  1  0  0  0  0
  2 16  1  0  0  0  0
  4 30  1  6  0  0  0
  4  5  1  0  0  0  0
  7  6  1  0  0  0  0
  8  9  1  1  0  0  0
  8  4  1  0  0  0  0
 10  3  1  1  0  0  0
 10 11  1  0  0  0  0
 11  8  1  0  0  0  0
 11  6  1  1  0  0  0
 11  1  1  0  0  0  0
 12 10  1  0  0  0  0
 12  7  1  0  0  0  0
 13 14  1  0  0  0  0
 14 32  1  6  0  0  0
 14 15  1  0  0  0  0
 15 17  1  0  0  0  0
 16  3  1  6  0  0  0
 16 18  1  0  0  0  0
 18  1  1  0  0  0  0
 18 17  1  1  0  0  0
 20 28  1  0  0  0  0
 21 24  2  0  0  0  0
 22 21  1  0  0  0  0
 22 26  1  0  0  0  0
 23 22  1  0  0  0  0
 25 19  1  1  0  0  0
 25 27  1  0  0  0  0
 25 23  1  0  0  0  0
 27 29  1  0  0  0  0
 28 27  2  0  0  0  0
 29 21  1  0  0  0  0
 30 31  1  0  0  0  0
 30 20  2  3  0  0  0
 31 19  2  0  0  0  0
 32 33  1  0  0  0  0
 34 32  2  0  0  0  0
M  END
>  <MODEL>
8

>  <REMARK>
 VINA RESULT:      -5.7      3.545      9.494
  Name = 
  2 active torsions:
  status: ('A' for Active; 'I' for Inactive)
    1  A    between atoms: C_3  and  C_25
    2  A    between atoms: C_8  and  C_30
                            x       y       z     vdW  Elec       q    Type
                         _______ _______ _______ _____ _____    ______ ____

>  <TORSDO>
F 2

$$$$
=
 OpenBabel11052415573D

 34 39  0  0  1  0  0  0  0  0999 V2000
  187.0510  176.9100  136.2670 C   0  0  1  0  0  3  0  0  0  0  0  0
  189.0230  173.7060  136.8520 C   0  0  0  0  0  2  0  0  0  0  0  0
  188.7770  175.6660  138.2590 C   0  0  0  0  0  2  0  0  0  0  0  0
  184.9860  177.6680  137.3760 C   0  0  2  0  0  3  0  0  0  0  0  0
  185.5430  177.1020  136.0740 C   0  0  0  0  0  2  0  0  0  0  0  0
  187.6670  179.0150  137.2170 O   0  0  0  0  0  0  0  0  0  0  0  0
  189.0710  179.1650  137.2220 C   0  0  0  0  0  2  0  0  0  0  0  0
  186.1060  177.6000  138.3920 C   0  0  2  0  0  3  0  0  0  0  0  0
  185.9840  178.7200  139.4160 C   0  0  0  0  0  1  0  0  0  0  0  0
  188.5700  177.1630  138.3580 C   0  0  2  0  0  3  0  0  0  0  0  0
  187.3840  177.6760  137.5680 C   0  0  1  0  0  0  0  0  0  0  0  0
  189.7260  177.9350  137.8100 C   0  0  0  0  0  2  0  0  0  0  0  0
  189.4720  173.2140  135.4830 C   0  0  0  0  0  2  0  0  0  0  0  0
  188.3030  172.7530  134.6030 C   0  0  2  0  0  3  0  0  0  0  0  0
  187.0350  173.6020  134.7150 C   0  0  0  0  0  2  0  0  0  0  0  0
  188.7030  175.2010  136.8170 C   0  0  2  0  0  3  0  0  0  0  0  0
  187.3430  175.0830  134.8610 C   0  0  0  0  0  2  0  0  0  0  0  0
  187.3560  175.4650  136.2750 N   0  0  2  0  0  0  0  0  0  0  0  0
  181.9680  177.8190  136.2190 C   0  0  0  0  0  3  0  0  0  0  0  0
  183.1690  177.5380  139.1620 C   0  0  0  0  0  3  0  0  0  0  0  0
  180.8640  181.5970  137.6280 C   0  0  0  0  0  0  0  0  0  0  0  0
  180.7570  181.2530  136.2440 N   0  0  0  0  0  0  0  0  0  0  0  0
  180.7850  179.8550  135.8250 C   0  0  0  0  0  2  0  0  0  0  0  0
  180.5550  182.7510  138.0320 O   0  0  0  0  0  0  0  0  0  0  0  0
  181.5780  178.9790  136.7590 C   0  0  0  0  0  0  0  0  0  0  0  0
  180.3720  182.2550  135.2640 C   0  0  0  0  0  1  0  0  0  0  0  0
  181.7570  179.3910  138.1930 C   0  0  0  0  0  0  0  0  0  0  0  0
  182.3400  178.5740  139.2720 C   0  0  0  0  0  3  0  0  0  0  0  0
  181.3800  180.6120  138.5750 C   0  0  0  0  0  2  0  0  0  0  0  0
  183.7040  176.9940  137.8850 C   0  0  0  0  0  0  0  0  0  0  0  0
  182.6080  176.6470  136.8880 C   0  0  0  0  0  2  0  0  0  0  0  0
  187.9870  171.3170  134.8560 C   0  0  0  0  0  0  0  0  0  0  0  0
  186.8280  170.9880  135.2190 O   0  0  0  0  0  1  0  0  0  0  0  0
  188.9600  170.3400  134.6840 O   0  0  0  0  0  0  0  0  0  0  0  0
  1  5  1  1  0  0  0
  1 18  1  0  0  0  0
  1 11  1  0  0  0  0
  3 10  1  0  0  0  0
  4 30  1  1  0  0  0
  4  8  1  0  0  0  0
  5  4  1  0  0  0  0
  6  7  1  0  0  0  0
  7 12  1  0  0  0  0
  8  9  1  1  0  0  0
 10 12  1  6  0  0  0
 11  6  1  6  0  0  0
 11 10  1  0  0  0  0
 11  8  1  0  0  0  0
 13  2  1  0  0  0  0
 14 15  1  0  0  0  0
 14 32  1  1  0  0  0
 14 13  1  0  0  0  0
 15 17  1  0  0  0  0
 16  2  1  1  0  0  0
 16  3  1  0  0  0  0
 18 17  1  6  0  0  0
 18 16  1  0  0  0  0
 19 25  2  0  0  0  0
 19 31  1  0  0  0  0
 20 28  1  0  0  0  0
 21 24  2  0  0  0  0
 21 29  1  0  0  0  0
 22 21  1  0  0  0  0
 23 22  1  0  0  0  0
 23 25  1  0  0  0  0
 25 27  1  0  0  0  0
 26 22  1  0  0  0  0
 27 29  1  0  0  0  0
 27 28  2  0  0  0  0
 30 20  2  3  0  0  0
 31 30  1  0  0  0  0
 32 33  1  0  0  0  0
 34 32  2  0  0  0  0
M  END
>  <MODEL>
9

>  <REMARK>
 VINA RESULT:      -5.7      5.337      9.338
  Name = 
  2 active torsions:
  status: ('A' for Active; 'I' for Inactive)
    1  A    between atoms: C_3  and  C_25
    2  A    between atoms: C_8  and  C_30
                            x       y       z     vdW  Elec       q    Type
                         _______ _______ _______ _____ _____    ______ ____

>  <TORSDO>
F 2

$$$$
