=
 OpenBabel11052412283D

 30 32  0  0  1  0  0  0  0  0999 V2000
  186.4270  177.5030  145.0950 C   0  0  2  0  0  3  0  0  0  0  0  0
  186.4830  178.2330  143.8280 N   0  0  0  0  0  2  0  0  0  0  0  0
  184.1140  178.8220  144.1950 C   0  0  0  0  0  3  0  0  0  0  0  0
  185.6290  178.3330  146.1070 C   0  0  0  0  0  2  0  0  0  0  0  0
  185.1320  178.2320  143.2480 C   0  0  1  0  0  3  0  0  0  0  0  0
  184.3310  178.8230  145.5170 C   0  0  0  0  0  3  0  0  0  0  0  0
  185.0860  178.9010  141.9400 N   0  0  0  0  0  0  0  0  0  0  0  0
  186.4130  178.9400  141.3340 C   0  0  0  0  0  1  0  0  0  0  0  0
  184.2250  178.1310  141.0520 C   0  0  0  0  0  2  0  0  0  0  0  0
  181.2800  178.4800  137.9070 C   0  0  1  0  0  3  0  0  0  0  0  0
  180.4020  179.0290  139.0350 C   0  0  0  0  0  2  0  0  0  0  0  0
  181.1660  179.3860  136.6980 C   0  0  0  0  0  1  0  0  0  0  0  0
  183.0130  178.9550  140.6400 C   0  0  2  0  0  3  0  0  0  0  0  0
  180.5830  178.2510  140.3030 C   0  0  0  0  0  3  0  0  0  0  0  0
  182.7500  178.3400  138.3120 C   0  0  0  0  0  2  0  0  0  0  0  0
  181.7350  178.2140  140.9900 C   0  0  0  0  0  3  0  0  0  0  0  0
  183.1280  179.4020  139.2420 N   0  0  0  0  0  2  0  0  0  0  0  0
  188.0450  177.9200  146.8170 O   0  0  0  0  0  1  0  0  0  0  0  0
  187.8390  177.2160  145.6260 C   0  0  2  0  0  3  0  0  0  0  0  0
  190.9270  179.7070  143.9010 O   0  0  0  0  0  1  0  0  0  0  0  0
  189.0010  176.6850  143.4030 C   0  0  0  0  0  2  0  0  0  0  0  0
  190.3150  177.8150  145.2520 C   0  0  1  0  0  3  0  0  0  0  0  0
  191.3860  177.5480  142.9550 C   0  0  0  0  0  2  0  0  0  0  0  0
  191.2950  178.4000  144.2270 C   0  0  1  0  0  3  0  0  0  0  0  0
  188.9210  177.6230  144.6120 C   0  0  2  0  0  3  0  0  0  0  0  0
  189.8750  176.9490  141.1870 N   0  0  0  0  0  2  0  0  0  0  0  0
  190.0230  177.1930  142.4350 C   0  0  0  0  0  0  0  0  0  0  0  0
  190.8860  176.5220  145.8400 C   0  0  0  0  0  2  0  0  0  0  0  0
  192.4150  175.7040  147.6330 C   0  0  0  0  0  1  0  0  0  0  0  0
  191.3360  176.7100  147.2800 C   0  0  0  0  0  2  0  0  0  0  0  0
  1 19  1  1  0  0  0
  1  4  1  0  0  0  0
  2  1  1  0  0  0  0
  3  6  2  0  0  0  0
  5  7  1  6  0  0  0
  5  2  1  0  0  0  0
  5  3  1  0  0  0  0
  6  4  1  0  0  0  0
  8  7  1  0  0  0  0
  9  7  1  0  0  0  0
 10 12  1  6  0  0  0
 10 15  1  0  0  0  0
 10 11  1  0  0  0  0
 11 14  1  0  0  0  0
 13 16  1  0  0  0  0
 13  9  1  6  0  0  0
 14 16  2  0  0  0  0
 15 17  1  0  0  0  0
 17 13  1  0  0  0  0
 19 18  1  1  0  0  0
 21 25  1  0  0  0  0
 22 28  1  6  0  0  0
 23 24  1  0  0  0  0
 24 20  1  6  0  0  0
 24 22  1  0  0  0  0
 25 22  1  0  0  0  0
 25 19  1  1  0  0  0
 26 27  2  0  0  0  0
 27 23  1  0  0  0  0
 27 21  1  0  0  0  0
 28 30  1  0  0  0  0
 30 29  1  0  0  0  0
M  END
>  <MODEL>
1

>  <REMARK>
 VINA RESULT:      -8.6      0.000      0.000
  Name = 
  7 active torsions:
  status: ('A' for Active; 'I' for Inactive)
    1  A    between atoms: C_3  and  N_11
    2  A    between atoms: C_3  and  C_19
    3  A    between atoms: C_4  and  C_8
    4  A    between atoms: C_4  and  C_23
    5  A    between atoms: C_7  and  C_30
    6  A    between atoms: N_11  and  C_25
    7  A    between atoms: C_13  and  C_30
                            x       y       z     vdW  Elec       q    Type
                         _______ _______ _______ _____ _____    ______ ____

>  <TORSDO>
F 7

$$$$
=
 OpenBabel11052412283D

 30 32  0  0  1  0  0  0  0  0999 V2000
  186.0910  177.6970  144.6560 C   0  0  2  0  0  3  0  0  0  0  0  0
  186.4060  178.4900  143.4660 N   0  0  0  0  0  2  0  0  0  0  0  0
  184.0180  179.1080  143.3860 C   0  0  0  0  0  3  0  0  0  0  0  0
  185.1150  178.4910  145.5320 C   0  0  0  0  0  2  0  0  0  0  0  0
  185.1980  178.5460  142.6300 C   0  0  1  0  0  3  0  0  0  0  0  0
  183.9660  179.0370  144.7230 C   0  0  0  0  0  3  0  0  0  0  0  0
  185.4200  179.2810  141.3760 N   0  0  0  0  0  0  0  0  0  0  0  0
  186.4350  178.6190  140.5640 C   0  0  0  0  0  1  0  0  0  0  0  0
  184.1820  179.2810  140.6100 C   0  0  0  0  0  2  0  0  0  0  0  0
  181.2800  176.6840  138.7320 C   0  0  1  0  0  3  0  0  0  0  0  0
  182.4160  176.4330  137.7350 C   0  0  0  0  0  2  0  0  0  0  0  0
  180.6700  175.3590  139.1380 C   0  0  0  0  0  1  0  0  0  0  0  0
  184.0830  178.0230  139.7590 C   0  0  2  0  0  3  0  0  0  0  0  0
  183.1490  177.6980  137.4050 C   0  0  0  0  0  3  0  0  0  0  0  0
  181.7420  177.4450  139.9780 C   0  0  0  0  0  2  0  0  0  0  0  0
  183.8650  178.3940  138.3030 C   0  0  0  0  0  3  0  0  0  0  0  0
  183.1120  177.0750  140.3270 N   0  0  0  0  0  2  0  0  0  0  0  0
  187.4580  178.1790  146.5670 O   0  0  0  0  0  1  0  0  0  0  0  0
  187.3660  177.3550  145.4400 C   0  0  2  0  0  3  0  0  0  0  0  0
  190.8490  179.4010  143.8930 O   0  0  0  0  0  1  0  0  0  0  0  0
  188.8570  176.3960  143.5890 C   0  0  0  0  0  2  0  0  0  0  0  0
  189.9000  177.8040  145.4190 C   0  0  1  0  0  3  0  0  0  0  0  0
  191.3310  177.0940  143.4330 C   0  0  0  0  0  2  0  0  0  0  0  0
  191.0760  178.1650  144.5010 C   0  0  1  0  0  3  0  0  0  0  0  0
  188.6280  177.5400  144.5820 C   0  0  2  0  0  3  0  0  0  0  0  0
  190.1130  176.2280  141.5530 N   0  0  0  0  0  2  0  0  0  0  0  0
  190.0590  176.6900  142.7460 C   0  0  0  0  0  0  0  0  0  0  0  0
  190.2830  176.6240  146.3150 C   0  0  0  0  0  2  0  0  0  0  0  0
  192.2540  175.5920  147.4420 C   0  0  0  0  0  1  0  0  0  0  0  0
  191.5640  176.8950  147.0860 C   0  0  0  0  0  2  0  0  0  0  0  0
  1 19  1  1  0  0  0
  1  4  1  0  0  0  0
  2  1  1  0  0  0  0
  3  6  2  0  0  0  0
  5  7  1  6  0  0  0
  5  3  1  0  0  0  0
  5  2  1  0  0  0  0
  6  4  1  0  0  0  0
  8  7  1  0  0  0  0
  9  7  1  0  0  0  0
 10 12  1  1  0  0  0
 10 15  1  0  0  0  0
 11 10  1  0  0  0  0
 13 17  1  0  0  0  0
 13  9  1  1  0  0  0
 14 11  1  0  0  0  0
 14 16  2  0  0  0  0
 15 17  1  0  0  0  0
 16 13  1  0  0  0  0
 19 18  1  1  0  0  0
 21 25  1  0  0  0  0
 22 28  1  6  0  0  0
 23 24  1  0  0  0  0
 24 20  1  6  0  0  0
 24 22  1  0  0  0  0
 25 22  1  0  0  0  0
 25 19  1  1  0  0  0
 26 27  2  0  0  0  0
 27 23  1  0  0  0  0
 27 21  1  0  0  0  0
 28 30  1  0  0  0  0
 30 29  1  0  0  0  0
M  END
>  <MODEL>
2

>  <REMARK>
 VINA RESULT:      -8.3      1.148      1.728
  Name = 
  7 active torsions:
  status: ('A' for Active; 'I' for Inactive)
    1  A    between atoms: C_3  and  N_11
    2  A    between atoms: C_3  and  C_19
    3  A    between atoms: C_4  and  C_8
    4  A    between atoms: C_4  and  C_23
    5  A    between atoms: C_7  and  C_30
    6  A    between atoms: N_11  and  C_25
    7  A    between atoms: C_13  and  C_30
                            x       y       z     vdW  Elec       q    Type
                         _______ _______ _______ _____ _____    ______ ____

>  <TORSDO>
F 7

$$$$
=
 OpenBabel11052412283D

 30 32  0  0  1  0  0  0  0  0999 V2000
  185.9740  177.7000  144.4790 C   0  0  2  0  0  3  0  0  0  0  0  0
  186.3670  178.0970  143.1250 N   0  0  0  0  0  2  0  0  0  0  0  0
  184.0330  178.8260  142.7860 C   0  0  0  0  0  3  0  0  0  0  0  0
  185.0470  178.7750  145.0580 C   0  0  0  0  0  2  0  0  0  0  0  0
  185.1800  177.9930  142.2640 C   0  0  1  0  0  3  0  0  0  0  0  0
  183.9550  179.1430  144.0860 C   0  0  0  0  0  3  0  0  0  0  0  0
  185.4770  178.3230  140.8630 N   0  0  0  0  0  0  0  0  0  0  0  0
  184.6300  179.4180  140.4010 C   0  0  0  0  0  1  0  0  0  0  0  0
  186.8590  178.7750  140.7730 C   0  0  0  0  0  2  0  0  0  0  0  0
  187.7510  178.4500  136.5550 C   0  0  1  0  0  3  0  0  0  0  0  0
  189.0460  177.8080  137.0620 C   0  0  0  0  0  2  0  0  0  0  0  0
  187.1730  177.6000  135.4430 C   0  0  0  0  0  1  0  0  0  0  0  0
  187.6350  177.9190  139.7810 C   0  0  2  0  0  3  0  0  0  0  0  0
  189.5890  178.5310  138.2570 C   0  0  0  0  0  3  0  0  0  0  0  0
  186.7080  178.6350  137.6610 C   0  0  0  0  0  2  0  0  0  0  0  0
  188.9550  178.5850  139.4390 C   0  0  0  0  0  3  0  0  0  0  0  0
  186.7930  177.5460  138.6330 N   0  0  0  0  0  2  0  0  0  0  0  0
  187.2070  178.4800  146.3830 O   0  0  0  0  0  1  0  0  0  0  0  0
  187.2070  177.5110  145.3740 C   0  0  2  0  0  3  0  0  0  0  0  0
  190.8200  179.3930  143.9210 O   0  0  0  0  0  1  0  0  0  0  0  0
  188.7570  176.4340  143.6400 C   0  0  0  0  0  2  0  0  0  0  0  0
  189.7520  177.8890  145.4620 C   0  0  1  0  0  3  0  0  0  0  0  0
  191.2550  177.0560  143.5800 C   0  0  0  0  0  2  0  0  0  0  0  0
  190.9800  178.1780  144.5890 C   0  0  1  0  0  3  0  0  0  0  0  0
  188.5140  177.6250  144.5730 C   0  0  2  0  0  3  0  0  0  0  0  0
  190.1050  176.1460  141.6780 N   0  0  0  0  0  2  0  0  0  0  0  0
  190.0060  176.6590  142.8470 C   0  0  0  0  0  0  0  0  0  0  0  0
  190.0550  176.7370  146.4230 C   0  0  0  0  0  2  0  0  0  0  0  0
  192.1560  175.6450  147.2070 C   0  0  0  0  0  1  0  0  0  0  0  0
  191.3730  176.9430  147.1500 C   0  0  0  0  0  2  0  0  0  0  0  0
  1  4  1  0  0  0  0
  1 19  1  1  0  0  0
  2  1  1  0  0  0  0
  3  6  2  0  0  0  0
  5  7  1  6  0  0  0
  5  3  1  0  0  0  0
  5  2  1  0  0  0  0
  6  4  1  0  0  0  0
  8  7  1  0  0  0  0
  9  7  1  0  0  0  0
 10 12  1  6  0  0  0
 10 11  1  0  0  0  0
 10 15  1  0  0  0  0
 11 14  1  0  0  0  0
 13  9  1  1  0  0  0
 14 16  2  0  0  0  0
 15 17  1  0  0  0  0
 16 13  1  0  0  0  0
 17 13  1  0  0  0  0
 19 18  1  1  0  0  0
 21 25  1  0  0  0  0
 22 28  1  6  0  0  0
 23 24  1  0  0  0  0
 24 20  1  6  0  0  0
 24 22  1  0  0  0  0
 25 19  1  1  0  0  0
 25 22  1  0  0  0  0
 26 27  2  0  0  0  0
 27 23  1  0  0  0  0
 27 21  1  0  0  0  0
 28 30  1  0  0  0  0
 30 29  1  0  0  0  0
M  END
>  <MODEL>
3

>  <REMARK>
 VINA RESULT:      -8.1      2.303      3.601
  Name = 
  7 active torsions:
  status: ('A' for Active; 'I' for Inactive)
    1  A    between atoms: C_3  and  N_11
    2  A    between atoms: C_3  and  C_19
    3  A    between atoms: C_4  and  C_8
    4  A    between atoms: C_4  and  C_23
    5  A    between atoms: C_7  and  C_30
    6  A    between atoms: N_11  and  C_25
    7  A    between atoms: C_13  and  C_30
                            x       y       z     vdW  Elec       q    Type
                         _______ _______ _______ _____ _____    ______ ____

>  <TORSDO>
F 7

$$$$
=
 OpenBabel11052412283D

 30 32  0  0  1  0  0  0  0  0999 V2000
  185.8230  177.7580  143.3720 C   0  0  2  0  0  3  0  0  0  0  0  0
  186.5630  178.3750  142.2700 N   0  0  0  0  0  2  0  0  0  0  0  0
  184.3810  178.8130  141.2020 C   0  0  0  0  0  3  0  0  0  0  0  0
  184.5860  178.6110  143.6730 C   0  0  0  0  0  2  0  0  0  0  0  0
  185.7610  178.2200  141.0470 C   0  0  1  0  0  3  0  0  0  0  0  0
  183.8270  178.9470  142.4150 C   0  0  0  0  0  3  0  0  0  0  0  0
  186.4400  178.7640  139.8620 N   0  0  0  0  0  0  0  0  0  0  0  0
  187.8290  178.3220  139.8160 C   0  0  0  0  0  1  0  0  0  0  0  0
  185.7800  178.2510  138.6700 C   0  0  0  0  0  2  0  0  0  0  0  0
  186.0470  175.9350  135.0290 C   0  0  1  0  0  3  0  0  0  0  0  0
  187.3820  176.6700  134.8710 C   0  0  0  0  0  2  0  0  0  0  0  0
  186.2540  174.4590  134.7610 C   0  0  0  0  0  1  0  0  0  0  0  0
  186.7990  177.6290  137.7240 C   0  0  2  0  0  3  0  0  0  0  0  0
  187.2670  178.1120  135.2620 C   0  0  0  0  0  3  0  0  0  0  0  0
  185.4240  176.1270  136.4140 C   0  0  0  0  0  2  0  0  0  0  0  0
  186.9960  178.5210  136.5120 C   0  0  0  0  0  3  0  0  0  0  0  0
  186.4650  176.2250  137.4360 N   0  0  0  0  0  2  0  0  0  0  0  0
  186.4520  178.6940  145.4890 O   0  0  0  0  0  1  0  0  0  0  0  0
  186.7060  177.6270  144.6210 C   0  0  2  0  0  3  0  0  0  0  0  0
  190.6800  179.2690  144.1440 O   0  0  0  0  0  1  0  0  0  0  0  0
  188.6620  176.3140  143.6110 C   0  0  0  0  0  2  0  0  0  0  0  0
  189.1150  177.9960  145.4510 C   0  0  1  0  0  3  0  0  0  0  0  0
  191.0840  176.9040  144.2560 C   0  0  0  0  0  2  0  0  0  0  0  0
  190.5660  178.1550  144.9770 C   0  0  1  0  0  3  0  0  0  0  0  0
  188.2010  177.6220  144.2610 C   0  0  2  0  0  3  0  0  0  0  0  0
  190.5340  175.7520  142.2220 N   0  0  0  0  0  2  0  0  0  0  0  0
  190.1050  176.4200  143.2270 C   0  0  0  0  0  0  0  0  0  0  0  0
  189.0490  176.9830  146.5970 C   0  0  0  0  0  2  0  0  0  0  0  0
  188.1300  178.2170  148.5600 C   0  0  0  0  0  1  0  0  0  0  0  0
  189.3790  177.6250  147.9340 C   0  0  0  0  0  2  0  0  0  0  0  0
  1  4  1  0  0  0  0
  1 19  1  1  0  0  0
  2  1  1  0  0  0  0
  3  6  2  0  0  0  0
  5  7  1  6  0  0  0
  5  3  1  0  0  0  0
  5  2  1  0  0  0  0
  6  4  1  0  0  0  0
  8  7  1  0  0  0  0
  9  7  1  0  0  0  0
 10 12  1  1  0  0  0
 10 15  1  0  0  0  0
 11 10  1  0  0  0  0
 11 14  1  0  0  0  0
 13  9  1  1  0  0  0
 14 16  2  0  0  0  0
 15 17  1  0  0  0  0
 16 13  1  0  0  0  0
 17 13  1  0  0  0  0
 19 18  1  1  0  0  0
 21 25  1  0  0  0  0
 22 28  1  1  0  0  0
 23 24  1  0  0  0  0
 24 20  1  6  0  0  0
 24 22  1  0  0  0  0
 25 19  1  1  0  0  0
 25 22  1  0  0  0  0
 26 27  2  0  0  0  0
 27 21  1  0  0  0  0
 27 23  1  0  0  0  0
 28 30  1  0  0  0  0
 30 29  1  0  0  0  0
M  END
>  <MODEL>
4

>  <REMARK>
 VINA RESULT:      -7.9      2.987      3.891
  Name = 
  7 active torsions:
  status: ('A' for Active; 'I' for Inactive)
    1  A    between atoms: C_3  and  N_11
    2  A    between atoms: C_3  and  C_19
    3  A    between atoms: C_4  and  C_8
    4  A    between atoms: C_4  and  C_23
    5  A    between atoms: C_7  and  C_30
    6  A    between atoms: N_11  and  C_25
    7  A    between atoms: C_13  and  C_30
                            x       y       z     vdW  Elec       q    Type
                         _______ _______ _______ _____ _____    ______ ____

>  <TORSDO>
F 7

$$$$
=
 OpenBabel11052412283D

 30 32  0  0  1  0  0  0  0  0999 V2000
  184.5240  179.0260  142.5550 C   0  0  2  0  0  3  0  0  0  0  0  0
  185.5760  178.2500  143.2130 N   0  0  0  0  0  2  0  0  0  0  0  0
  184.6090  178.9770  145.3640 C   0  0  0  0  0  3  0  0  0  0  0  0
  183.2090  178.8140  143.3130 C   0  0  0  0  0  2  0  0  0  0  0  0
  185.8520  178.8780  144.5130 C   0  0  1  0  0  3  0  0  0  0  0  0
  183.3930  178.9940  144.7990 C   0  0  0  0  0  3  0  0  0  0  0  0
  186.9370  178.2030  145.2400 N   0  0  0  0  0  0  0  0  0  0  0  0
  186.5390  177.9230  146.6150 C   0  0  0  0  0  1  0  0  0  0  0  0
  187.2040  176.9240  144.5960 C   0  0  0  0  0  2  0  0  0  0  0  0
  190.2900  177.8760  141.7230 C   0  0  1  0  0  3  0  0  0  0  0  0
  191.1960  177.8550  142.9570 C   0  0  0  0  0  2  0  0  0  0  0  0
  190.9420  177.0820  140.6100 C   0  0  0  0  0  1  0  0  0  0  0  0
  188.6970  176.7540  144.3490 C   0  0  2  0  0  3  0  0  0  0  0  0
  190.5390  178.5070  144.1350 C   0  0  0  0  0  3  0  0  0  0  0  0
  188.8910  177.3220  142.0030 C   0  0  0  0  0  2  0  0  0  0  0  0
  189.4350  178.0240  144.7280 C   0  0  0  0  0  3  0  0  0  0  0  0
  188.9540  176.2470  142.9920 N   0  0  0  0  0  2  0  0  0  0  0  0
  184.7050  179.6860  140.2550 O   0  0  0  0  0  1  0  0  0  0  0  0
  184.3720  178.6100  141.0850 C   0  0  2  0  0  3  0  0  0  0  0  0
  180.0540  178.6430  141.3360 O   0  0  0  0  0  1  0  0  0  0  0  0
  182.8780  176.9110  139.8810 C   0  0  0  0  0  2  0  0  0  0  0  0
  182.0600  179.2900  140.1810 C   0  0  1  0  0  3  0  0  0  0  0  0
  180.4630  177.5390  139.2420 C   0  0  0  0  0  2  0  0  0  0  0  0
  180.6020  178.8260  140.0650 C   0  0  1  0  0  3  0  0  0  0  0  0
  182.9370  178.1600  140.7660 C   0  0  2  0  0  3  0  0  0  0  0  0
  181.1800  175.2620  139.4960 N   0  0  0  0  0  2  0  0  0  0  0  0
  181.4520  176.4990  139.6810 C   0  0  0  0  0  0  0  0  0  0  0  0
  182.5570  179.7900  138.8220 C   0  0  0  0  0  2  0  0  0  0  0  0
  181.0480  180.9480  137.2080 C   0  0  0  0  0  1  0  0  0  0  0  0
  181.9160  181.1150  138.4410 C   0  0  0  0  0  2  0  0  0  0  0  0
  1 19  1  6  0  0  0
  1  2  1  0  0  0  0
  1  4  1  0  0  0  0
  2  5  1  0  0  0  0
  4  6  1  0  0  0  0
  5  7  1  1  0  0  0
  5  3  1  0  0  0  0
  6  3  2  0  0  0  0
  7  8  1  0  0  0  0
  9  7  1  0  0  0  0
 10 12  1  6  0  0  0
 10 15  1  0  0  0  0
 10 11  1  0  0  0  0
 11 14  1  0  0  0  0
 13  9  1  6  0  0  0
 13 16  1  0  0  0  0
 14 16  2  0  0  0  0
 15 17  1  0  0  0  0
 17 13  1  0  0  0  0
 19 18  1  6  0  0  0
 21 25  1  0  0  0  0
 22 28  1  6  0  0  0
 22 25  1  0  0  0  0
 23 27  1  0  0  0  0
 23 24  1  0  0  0  0
 24 22  1  0  0  0  0
 24 20  1  1  0  0  0
 25 19  1  6  0  0  0
 26 27  2  0  0  0  0
 27 21  1  0  0  0  0
 29 30  1  0  0  0  0
 30 28  1  0  0  0  0
M  END
>  <MODEL>
5

>  <REMARK>
 VINA RESULT:      -7.6      2.693      8.597
  Name = 
  7 active torsions:
  status: ('A' for Active; 'I' for Inactive)
    1  A    between atoms: C_3  and  N_11
    2  A    between atoms: C_3  and  C_19
    3  A    between atoms: C_4  and  C_8
    4  A    between atoms: C_4  and  C_23
    5  A    between atoms: C_7  and  C_30
    6  A    between atoms: N_11  and  C_25
    7  A    between atoms: C_13  and  C_30
                            x       y       z     vdW  Elec       q    Type
                         _______ _______ _______ _____ _____    ______ ____

>  <TORSDO>
F 7

$$$$
=
 OpenBabel11052412283D

 30 32  0  0  1  0  0  0  0  0999 V2000
  190.9690  176.4490  137.9180 C   0  0  2  0  0  3  0  0  0  0  0  0
  190.7700  176.0160  139.3020 N   0  0  0  0  0  2  0  0  0  0  0  0
  189.2210  177.9200  139.5540 C   0  0  0  0  0  3  0  0  0  0  0  0
  189.6150  176.8690  137.3340 C   0  0  0  0  0  2  0  0  0  0  0  0
  190.4320  177.2030  140.1010 C   0  0  1  0  0  3  0  0  0  0  0  0
  188.8770  177.7970  138.2640 C   0  0  0  0  0  3  0  0  0  0  0  0
  190.2600  176.8860  141.5260 N   0  0  0  0  0  0  0  0  0  0  0  0
  191.5090  177.0860  142.2520 C   0  0  0  0  0  1  0  0  0  0  0  0
  189.2780  177.8010  142.0910 C   0  0  0  0  0  2  0  0  0  0  0  0
  187.9160  177.8780  146.1940 C   0  0  1  0  0  3  0  0  0  0  0  0
  186.6560  177.2430  145.5990 C   0  0  0  0  0  2  0  0  0  0  0  0
  188.3290  177.1080  147.4310 C   0  0  0  0  0  1  0  0  0  0  0  0
  188.3590  177.0640  143.0570 C   0  0  2  0  0  3  0  0  0  0  0  0
  186.2810  177.8780  144.2950 C   0  0  0  0  0  3  0  0  0  0  0  0
  189.0810  177.9270  145.2010 C   0  0  0  0  0  2  0  0  0  0  0  0
  187.0410  177.8060  143.1910 C   0  0  0  0  0  3  0  0  0  0  0  0
  189.0520  176.7620  144.3190 N   0  0  0  0  0  2  0  0  0  0  0  0
  191.3630  174.0930  137.6940 O   0  0  0  0  0  1  0  0  0  0  0  0
  191.5950  175.3270  137.0770 C   0  0  2  0  0  3  0  0  0  0  0  0
  195.7880  174.8800  138.0430 O   0  0  0  0  0  1  0  0  0  0  0  0
  193.4730  176.4990  135.7830 C   0  0  0  0  0  2  0  0  0  0  0  0
  193.8830  174.1920  136.7490 C   0  0  1  0  0  3  0  0  0  0  0  0
  195.8320  175.4680  135.7150 C   0  0  0  0  0  2  0  0  0  0  0  0
  195.3950  174.4490  136.7750 C   0  0  1  0  0  3  0  0  0  0  0  0
  193.1110  175.5220  136.9070 C   0  0  2  0  0  3  0  0  0  0  0  0
  195.4310  177.8030  135.3210 N   0  0  0  0  0  2  0  0  0  0  0  0
  194.9570  176.6880  135.7350 C   0  0  0  0  0  0  0  0  0  0  0  0
  193.5060  173.4290  135.4770 C   0  0  0  0  0  2  0  0  0  0  0  0
  193.5540  171.0130  136.0940 C   0  0  0  0  0  1  0  0  0  0  0  0
  194.2750  172.1240  135.3550 C   0  0  0  0  0  2  0  0  0  0  0  0
  1 19  1  6  0  0  0
  1  2  1  0  0  0  0
  2  5  1  0  0  0  0
  3  5  1  0  0  0  0
  4  1  1  0  0  0  0
  4  6  1  0  0  0  0
  5  7  1  1  0  0  0
  6  3  2  0  0  0  0
  7  9  1  0  0  0  0
  7  8  1  0  0  0  0
 10 12  1  1  0  0  0
 11 10  1  0  0  0  0
 13  9  1  6  0  0  0
 13 16  1  0  0  0  0
 13 17  1  0  0  0  0
 14 11  1  0  0  0  0
 15 10  1  0  0  0  0
 16 14  2  0  0  0  0
 17 15  1  0  0  0  0
 19 18  1  1  0  0  0
 21 25  1  0  0  0  0
 22 28  1  6  0  0  0
 22 24  1  0  0  0  0
 22 25  1  0  0  0  0
 23 27  1  0  0  0  0
 23 24  1  0  0  0  0
 24 20  1  1  0  0  0
 25 19  1  6  0  0  0
 26 27  2  0  0  0  0
 27 21  1  0  0  0  0
 30 28  1  0  0  0  0
 30 29  1  0  0  0  0
M  END
>  <MODEL>
6

>  <REMARK>
 VINA RESULT:      -7.6      5.715      8.940
  Name = 
  7 active torsions:
  status: ('A' for Active; 'I' for Inactive)
    1  A    between atoms: C_3  and  N_11
    2  A    between atoms: C_3  and  C_19
    3  A    between atoms: C_4  and  C_8
    4  A    between atoms: C_4  and  C_23
    5  A    between atoms: C_7  and  C_30
    6  A    between atoms: N_11  and  C_25
    7  A    between atoms: C_13  and  C_30
                            x       y       z     vdW  Elec       q    Type
                         _______ _______ _______ _____ _____    ______ ____

>  <TORSDO>
F 7

$$$$
=
 OpenBabel11052412283D

 30 32  0  0  1  0  0  0  0  0999 V2000
  185.8640  178.5680  143.1810 C   0  0  2  0  0  3  0  0  0  0  0  0
  184.5260  178.0210  142.9490 N   0  0  0  0  0  2  0  0  0  0  0  0
  184.6150  179.0600  140.7110 C   0  0  0  0  0  3  0  0  0  0  0  0
  186.6950  178.3960  141.9040 C   0  0  0  0  0  2  0  0  0  0  0  0
  183.8380  178.9050  141.9970 C   0  0  1  0  0  3  0  0  0  0  0  0
  185.9410  178.8680  140.6870 C   0  0  0  0  0  3  0  0  0  0  0  0
  182.4590  178.4720  141.7310 N   0  0  0  0  0  0  0  0  0  0  0  0
  181.5510  178.9910  142.7480 C   0  0  0  0  0  1  0  0  0  0  0  0
  182.0360  179.0210  140.4500 C   0  0  0  0  0  2  0  0  0  0  0  0
  182.7500  176.8240  136.7950 C   0  0  1  0  0  3  0  0  0  0  0  0
  181.9590  175.7260  137.5120 C   0  0  0  0  0  2  0  0  0  0  0  0
  182.2260  176.9770  135.3830 C   0  0  0  0  0  1  0  0  0  0  0  0
  181.4310  177.9300  139.5770 C   0  0  2  0  0  3  0  0  0  0  0  0
  182.3390  175.6260  138.9580 C   0  0  0  0  0  3  0  0  0  0  0  0
  182.6870  178.1710  137.5200 C   0  0  0  0  0  2  0  0  0  0  0  0
  182.1170  176.6030  139.8510 C   0  0  0  0  0  3  0  0  0  0  0  0
  181.3870  178.3450  138.1660 N   0  0  0  0  0  2  0  0  0  0  0  0
  186.3090  178.5980  145.5380 O   0  0  0  0  0  1  0  0  0  0  0  0
  186.5440  177.8700  144.3670 C   0  0  2  0  0  3  0  0  0  0  0  0
  190.6600  179.1940  144.2340 O   0  0  0  0  0  1  0  0  0  0  0  0
  188.4800  176.3780  143.5930 C   0  0  0  0  0  2  0  0  0  0  0  0
  188.8840  178.0900  145.4190 C   0  0  1  0  0  3  0  0  0  0  0  0
  190.8680  176.8120  144.4560 C   0  0  0  0  0  2  0  0  0  0  0  0
  190.3810  178.1230  145.0850 C   0  0  1  0  0  3  0  0  0  0  0  0
  188.0620  177.7410  144.1570 C   0  0  2  0  0  3  0  0  0  0  0  0
  190.4280  175.6280  142.4130 N   0  0  0  0  0  2  0  0  0  0  0  0
  189.9570  176.3630  143.3500 C   0  0  0  0  0  0  0  0  0  0  0  0
  188.6310  177.1280  146.5820 C   0  0  0  0  0  2  0  0  0  0  0  0
  187.9340  177.9340  148.8370 C   0  0  0  0  0  1  0  0  0  0  0  0
  189.1080  177.7070  147.9040 C   0  0  0  0  0  2  0  0  0  0  0  0
  1 19  1  1  0  0  0
  2  1  1  0  0  0  0
  3  5  1  0  0  0  0
  4  1  1  0  0  0  0
  5  7  1  6  0  0  0
  5  2  1  0  0  0  0
  6  3  2  0  0  0  0
  6  4  1  0  0  0  0
  7  8  1  0  0  0  0
  9  7  1  0  0  0  0
 10 12  1  6  0  0  0
 10 11  1  0  0  0  0
 10 15  1  0  0  0  0
 11 14  1  0  0  0  0
 13 16  1  0  0  0  0
 13  9  1  1  0  0  0
 14 16  2  0  0  0  0
 15 17  1  0  0  0  0
 17 13  1  0  0  0  0
 19 18  1  1  0  0  0
 21 25  1  0  0  0  0
 22 28  1  1  0  0  0
 23 24  1  0  0  0  0
 24 20  1  6  0  0  0
 24 22  1  0  0  0  0
 25 19  1  1  0  0  0
 25 22  1  0  0  0  0
 26 27  2  0  0  0  0
 27 21  1  0  0  0  0
 27 23  1  0  0  0  0
 28 30  1  0  0  0  0
 30 29  1  0  0  0  0
M  END
>  <MODEL>
7

>  <REMARK>
 VINA RESULT:      -7.6      1.763      2.755
  Name = 
  7 active torsions:
  status: ('A' for Active; 'I' for Inactive)
    1  A    between atoms: C_3  and  N_11
    2  A    between atoms: C_3  and  C_19
    3  A    between atoms: C_4  and  C_8
    4  A    between atoms: C_4  and  C_23
    5  A    between atoms: C_7  and  C_30
    6  A    between atoms: N_11  and  C_25
    7  A    between atoms: C_13  and  C_30
                            x       y       z     vdW  Elec       q    Type
                         _______ _______ _______ _____ _____    ______ ____

>  <TORSDO>
F 7

$$$$
=
 OpenBabel11052412283D

 30 32  0  0  1  0  0  0  0  0999 V2000
  186.7880  177.8660  137.7890 C   0  0  2  0  0  3  0  0  0  0  0  0
  187.4440  177.8370  139.0980 N   0  0  0  0  0  2  0  0  0  0  0  0
  189.5970  177.8820  137.8930 C   0  0  0  0  0  3  0  0  0  0  0  0
  187.5380  178.8500  136.8840 C   0  0  0  0  0  2  0  0  0  0  0  0
  188.7510  177.1860  138.9320 C   0  0  1  0  0  3  0  0  0  0  0  0
  189.0260  178.6110  136.9230 C   0  0  0  0  0  3  0  0  0  0  0  0
  189.4770  177.0590  140.2040 N   0  0  0  0  0  0  0  0  0  0  0  0
  190.8610  177.4930  140.0530 C   0  0  0  0  0  1  0  0  0  0  0  0
  188.8520  177.9330  141.1870 C   0  0  0  0  0  2  0  0  0  0  0  0
  188.8770  177.8770  145.5100 C   0  0  1  0  0  3  0  0  0  0  0  0
  187.5380  177.1570  145.3300 C   0  0  0  0  0  2  0  0  0  0  0  0
  189.7160  177.1280  146.5250 C   0  0  0  0  0  1  0  0  0  0  0  0
  188.3430  177.1240  142.3720 C   0  0  2  0  0  3  0  0  0  0  0  0
  186.7230  177.7740  144.2340 C   0  0  0  0  0  3  0  0  0  0  0  0
  189.6560  178.0190  144.1990 C   0  0  0  0  0  2  0  0  0  0  0  0
  187.0920  177.7660  142.9430 C   0  0  0  0  0  3  0  0  0  0  0  0
  189.4230  176.8620  143.3370 N   0  0  0  0  0  2  0  0  0  0  0  0
  185.1650  179.1490  139.0040 O   0  0  0  0  0  1  0  0  0  0  0  0
  185.3130  178.2720  137.9230 C   0  0  2  0  0  3  0  0  0  0  0  0
  182.2450  175.9010  139.8400 O   0  0  0  0  0  1  0  0  0  0  0  0
  184.7420  175.8740  137.2220 C   0  0  0  0  0  2  0  0  0  0  0  0
  182.8990  177.3910  138.0710 C   0  0  1  0  0  3  0  0  0  0  0  0
  182.3830  174.9310  137.6470 C   0  0  0  0  0  2  0  0  0  0  0  0
  182.0590  176.1750  138.4850 C   0  0  1  0  0  3  0  0  0  0  0  0
  184.4050  177.0510  138.1430 C   0  0  2  0  0  3  0  0  0  0  0  0
  184.3040  173.5200  137.3550 N   0  0  0  0  0  2  0  0  0  0  0  0
  183.8640  174.7070  137.5510 C   0  0  0  0  0  0  0  0  0  0  0  0
  182.4610  177.8810  136.6890 C   0  0  0  0  0  2  0  0  0  0  0  0
  181.5820  179.8150  137.9950 C   0  0  0  0  0  1  0  0  0  0  0  0
  181.3630  178.9280  136.7850 C   0  0  0  0  0  2  0  0  0  0  0  0
  1 19  1  1  0  0  0
  1  2  1  0  0  0  0
  3  5  1  0  0  0  0
  4  6  1  0  0  0  0
  4  1  1  0  0  0  0
  5  2  1  0  0  0  0
  5  7  1  1  0  0  0
  6  3  2  0  0  0  0
  7  9  1  0  0  0  0
  8  7  1  0  0  0  0
 10 12  1  1  0  0  0
 11 10  1  0  0  0  0
 13  9  1  6  0  0  0
 13 16  1  0  0  0  0
 13 17  1  0  0  0  0
 14 11  1  0  0  0  0
 15 10  1  0  0  0  0
 16 14  2  0  0  0  0
 17 15  1  0  0  0  0
 19 18  1  1  0  0  0
 21 27  1  0  0  0  0
 21 25  1  0  0  0  0
 22 28  1  6  0  0  0
 22 25  1  0  0  0  0
 22 24  1  0  0  0  0
 23 24  1  0  0  0  0
 24 20  1  1  0  0  0
 25 19  1  6  0  0  0
 26 27  2  0  0  0  0
 27 23  1  0  0  0  0
 28 30  1  0  0  0  0
 30 29  1  0  0  0  0
M  END
>  <MODEL>
8

>  <REMARK>
 VINA RESULT:      -7.6      3.553      9.166
  Name = 
  7 active torsions:
  status: ('A' for Active; 'I' for Inactive)
    1  A    between atoms: C_3  and  N_11
    2  A    between atoms: C_3  and  C_19
    3  A    between atoms: C_4  and  C_8
    4  A    between atoms: C_4  and  C_23
    5  A    between atoms: C_7  and  C_30
    6  A    between atoms: N_11  and  C_25
    7  A    between atoms: C_13  and  C_30
                            x       y       z     vdW  Elec       q    Type
                         _______ _______ _______ _____ _____    ______ ____

>  <TORSDO>
F 7

$$$$
=
 OpenBabel11052412283D

 30 32  0  0  1  0  0  0  0  0999 V2000
  182.9170  179.0020  141.8990 C   0  0  2  0  0  3  0  0  0  0  0  0
  184.0560  178.1100  142.1250 N   0  0  0  0  0  2  0  0  0  0  0  0
  184.0280  178.8590  144.4770 C   0  0  0  0  0  3  0  0  0  0  0  0
  181.9610  178.8920  143.0920 C   0  0  0  0  0  2  0  0  0  0  0  0
  184.8530  178.6690  143.2260 C   0  0  1  0  0  3  0  0  0  0  0  0
  182.6980  179.0080  144.4020 C   0  0  0  0  0  3  0  0  0  0  0  0
  186.0570  177.8720  143.5030 N   0  0  0  0  0  0  0  0  0  0  0  0
  186.9630  177.8920  142.3600 C   0  0  0  0  0  1  0  0  0  0  0  0
  186.7630  178.4700  144.6280 C   0  0  0  0  0  2  0  0  0  0  0  0
  190.6060  177.3650  146.2710 C   0  0  1  0  0  3  0  0  0  0  0  0
  189.7510  176.6980  147.3530 C   0  0  0  0  0  2  0  0  0  0  0  0
  191.6810  176.3990  145.8170 C   0  0  0  0  0  1  0  0  0  0  0  0
  187.4350  177.3920  145.4680 C   0  0  2  0  0  3  0  0  0  0  0  0
  188.5850  177.5550  147.7410 C   0  0  0  0  0  3  0  0  0  0  0  0
  189.7830  177.8280  145.0660 C   0  0  0  0  0  2  0  0  0  0  0  0
  187.5830  177.8650  146.9020 C   0  0  0  0  0  3  0  0  0  0  0  0
  188.6690  176.9130  144.8240 N   0  0  0  0  0  2  0  0  0  0  0  0
  181.1540  177.7490  140.8610 O   0  0  0  0  0  1  0  0  0  0  0  0
  182.1930  178.6470  140.5920 C   0  0  2  0  0  3  0  0  0  0  0  0
  183.8180  175.5180  138.0860 O   0  0  0  0  0  1  0  0  0  0  0  0
  184.3010  178.9380  139.1630 C   0  0  0  0  0  2  0  0  0  0  0  0
  182.4220  177.4620  138.3190 C   0  0  1  0  0  3  0  0  0  0  0  0
  184.6240  177.5220  137.0360 C   0  0  0  0  0  2  0  0  0  0  0  0
  183.4040  176.6820  137.4340 C   0  0  1  0  0  3  0  0  0  0  0  0
  183.1480  178.0140  139.5670 C   0  0  2  0  0  3  0  0  0  0  0  0
  186.4620  178.5310  138.2080 N   0  0  0  0  0  2  0  0  0  0  0  0
  185.2190  178.2210  138.2240 C   0  0  0  0  0  0  0  0  0  0  0  0
  181.7340  178.5530  137.4950 C   0  0  0  0  0  2  0  0  0  0  0  0
  181.4050  178.6720  135.0260 C   0  0  0  0  0  1  0  0  0  0  0  0
  180.9870  177.9740  136.3060 C   0  0  0  0  0  2  0  0  0  0  0  0
  1 19  1  6  0  0  0
  1  2  1  0  0  0  0
  1  4  1  0  0  0  0
  2  5  1  0  0  0  0
  4  6  1  0  0  0  0
  5  7  1  1  0  0  0
  5  3  1  0  0  0  0
  6  3  2  0  0  0  0
  7  9  1  0  0  0  0
  8  7  1  0  0  0  0
 10 12  1  6  0  0  0
 10 11  1  0  0  0  0
 11 14  1  0  0  0  0
 13  9  1  6  0  0  0
 13 16  1  0  0  0  0
 15 10  1  0  0  0  0
 16 14  2  0  0  0  0
 17 15  1  0  0  0  0
 17 13  1  0  0  0  0
 19 18  1  1  0  0  0
 21 25  1  0  0  0  0
 22 28  1  6  0  0  0
 22 25  1  0  0  0  0
 23 24  1  0  0  0  0
 23 27  1  0  0  0  0
 24 20  1  1  0  0  0
 24 22  1  0  0  0  0
 25 19  1  1  0  0  0
 26 27  2  0  0  0  0
 27 21  1  0  0  0  0
 29 30  1  0  0  0  0
 30 28  1  0  0  0  0
M  END
>  <MODEL>
9

>  <REMARK>
 VINA RESULT:      -7.4      2.982      8.942
  Name = 
  7 active torsions:
  status: ('A' for Active; 'I' for Inactive)
    1  A    between atoms: C_3  and  N_11
    2  A    between atoms: C_3  and  C_19
    3  A    between atoms: C_4  and  C_8
    4  A    between atoms: C_4  and  C_23
    5  A    between atoms: C_7  and  C_30
    6  A    between atoms: N_11  and  C_25
    7  A    between atoms: C_13  and  C_30
                            x       y       z     vdW  Elec       q    Type
                         _______ _______ _______ _____ _____    ______ ____

>  <TORSDO>
F 7

$$$$
