=
 OpenBabel11052412343D

 30 35  0  0  1  0  0  0  0  0999 V2000
  188.5210  178.0940  139.8470 C   0  0  1  0  0  3  0  0  0  0  0  0
  188.9230  177.7370  137.3260 C   0  0  0  0  0  0  0  0  0  0  0  0
  184.7250  178.5140  137.9260 C   0  0  0  0  0  3  0  0  0  0  0  0
  187.3930  178.3750  140.8620 C   0  0  1  0  0  3  0  0  0  0  0  0
  189.3430  176.9790  140.3170 N   0  0  0  0  0  2  0  0  0  0  0  0
  189.9330  177.8680  144.2450 S   0  0  0  0  0  0  0  0  0  0  0  0
  186.2150  178.8080  144.1990 C   0  0  0  0  0  2  0  0  0  0  0  0
  189.3640  178.1780  142.5330 C   0  0  1  0  0  3  0  0  0  0  0  0
  190.5380  176.1140  142.2330 C   0  0  0  0  0  3  0  0  0  0  0  0
  184.5610  179.3770  141.5330 O   0  0  0  0  0  0  0  0  0  0  0  0
  184.6270  179.3540  139.1330 C   0  0  0  0  0  0  0  0  0  0  0  0
  189.7790  177.0350  141.6740 C   0  0  0  0  0  0  0  0  0  0  0  0
  187.8640  178.5160  142.3250 C   0  0  2  0  0  3  0  0  0  0  0  0
  188.3810  177.4190  136.0080 C   0  0  0  0  0  3  0  0  0  0  0  0
  184.0490  178.1920  142.0690 C   0  0  0  0  0  2  0  0  0  0  0  0
  184.7600  178.5390  144.4730 C   0  0  0  0  0  3  0  0  0  0  0  0
  191.7500  175.8270  144.3160 C   0  0  0  0  0  2  0  0  0  0  0  0
  190.1380  178.0350  137.4660 O   0  0  0  0  0  0  0  0  0  0  0  0
  185.6310  177.5490  137.8180 C   0  0  0  0  0  0  0  0  0  0  0  0
  187.1730  176.8580  135.9020 C   0  0  0  0  0  3  0  0  0  0  0  0
  190.7740  176.4090  143.6360 C   0  0  0  0  0  0  0  0  0  0  0  0
  187.9500  177.8320  138.4540 C   0  0  1  0  0  3  0  0  0  0  0  0
  186.6040  179.4690  140.4810 O   0  0  0  0  0  0  0  0  0  0  0  0
  183.9610  180.4220  139.0790 O   0  0  0  0  0  0  0  0  0  0  0  0
  185.3010  178.9580  140.4190 C   0  0  1  0  0  3  0  0  0  0  0  0
  183.8120  178.3070  143.5480 C   0  0  0  0  0  3  0  0  0  0  0  0
  187.1780  176.4750  143.8110 C   0  0  0  0  0  1  0  0  0  0  0  0
  186.3400  176.4020  137.0870 C   0  0  1  0  0  3  0  0  0  0  0  0
  186.8290  176.7870  138.3910 C   0  0  2  0  0  3  0  0  0  0  0  0
  186.8210  177.8280  143.2130 C   0  0  1  0  0  3  0  0  0  0  0  0
  1  5  1  1  0  0  0
  1  4  1  0  0  0  0
  2 18  2  0  0  0  0
  2 22  1  0  0  0  0
  3 11  1  0  0  0  0
  4 23  1  6  0  0  0
  4 13  1  0  0  0  0
  5 12  1  0  0  0  0
  7 16  1  0  0  0  0
  8 12  1  6  0  0  0
  8  6  1  0  0  0  0
  9 21  1  0  0  0  0
 10 15  1  0  0  0  0
 11 25  1  0  0  0  0
 12  9  2  0  0  0  0
 13  8  1  0  0  0  0
 13 30  1  0  0  0  0
 14  2  1  0  0  0  0
 15 26  1  0  0  0  0
 19  3  2  0  0  0  0
 19 29  1  0  0  0  0
 20 14  2  0  0  0  0
 20 28  1  0  0  0  0
 21  6  1  0  0  0  0
 21 17  2  0  0  0  0
 22  1  1  0  0  0  0
 24 11  2  0  0  0  0
 25 23  1  0  0  0  0
 25 10  1  0  0  0  0
 26 16  2  0  0  0  0
 28 19  1  0  0  0  0
 28 29  1  0  0  0  0
 29 22  1  0  0  0  0
 30 27  1  0  0  0  0
 30  7  1  0  0  0  0
M  END
>  <MODEL>
1

>  <REMARK>
 VINA RESULT:      -8.5      0.000      0.000
  Name = 
  0 active torsions:
  status: ('A' for Active; 'I' for Inactive)
                            x       y       z     vdW  Elec       q    Type
                         _______ _______ _______ _____ _____    ______ ____

>  <TORSDO>
F 0

$$$$
=
 OpenBabel11052412343D

 30 35  0  0  1  0  0  0  0  0999 V2000
  190.5360  177.3820  140.0410 C   0  0  1  0  0  3  0  0  0  0  0  0
  191.9760  176.4180  138.1320 C   0  0  0  0  0  0  0  0  0  0  0  0
  188.0170  177.1600  136.5940 C   0  0  0  0  0  3  0  0  0  0  0  0
  189.1030  177.8660  140.3460 C   0  0  1  0  0  3  0  0  0  0  0  0
  190.9770  176.4540  141.0810 N   0  0  0  0  0  2  0  0  0  0  0  0
  189.8480  178.3240  144.5160 S   0  0  0  0  0  0  0  0  0  0  0  0
  186.6160  179.0790  142.5950 C   0  0  0  0  0  2  0  0  0  0  0  0
  190.1160  178.1710  142.7120 C   0  0  1  0  0  3  0  0  0  0  0  0
  191.1360  176.1450  143.4740 C   0  0  0  0  0  3  0  0  0  0  0  0
  186.3520  178.8940  139.4230 O   0  0  0  0  0  0  0  0  0  0  0  0
  187.4650  178.2710  137.3880 C   0  0  0  0  0  0  0  0  0  0  0  0
  190.7750  176.8650  142.4320 C   0  0  0  0  0  0  0  0  0  0  0  0
  188.8930  178.3880  141.7830 C   0  0  2  0  0  3  0  0  0  0  0  0
  192.0450  175.7580  136.8320 C   0  0  0  0  0  3  0  0  0  0  0  0
  185.5650  177.8640  139.9440 C   0  0  0  0  0  2  0  0  0  0  0  0
  185.1720  178.8310  142.2490 C   0  0  0  0  0  3  0  0  0  0  0  0
  191.2820  176.4380  145.8790 C   0  0  0  0  0  2  0  0  0  0  0  0
  193.0250  176.7880  138.7220 O   0  0  0  0  0  0  0  0  0  0  0  0
  188.8000  176.2330  137.1370 C   0  0  0  0  0  0  0  0  0  0  0  0
  190.9670  175.1430  136.3380 C   0  0  0  0  0  3  0  0  0  0  0  0
  190.7540  176.7920  144.7180 C   0  0  0  0  0  0  0  0  0  0  0  0
  190.6170  176.7570  138.6490 C   0  0  1  0  0  3  0  0  0  0  0  0
  188.6500  178.7980  139.4020 O   0  0  0  0  0  0  0  0  0  0  0  0
  186.9770  179.2650  136.7860 O   0  0  0  0  0  0  0  0  0  0  0  0
  187.4720  178.2380  138.8920 C   0  0  1  0  0  3  0  0  0  0  0  0
  184.7120  178.3380  141.0850 C   0  0  0  0  0  3  0  0  0  0  0  0
  187.4640  176.7620  143.2530 C   0  0  0  0  0  1  0  0  0  0  0  0
  189.6650  174.9680  137.0990 C   0  0  1  0  0  3  0  0  0  0  0  0
  189.5590  175.6870  138.3490 C   0  0  2  0  0  3  0  0  0  0  0  0
  187.5150  177.9060  142.2510 C   0  0  1  0  0  3  0  0  0  0  0  0
  1  4  1  0  0  0  0
  1  5  1  1  0  0  0
  2 22  1  0  0  0  0
  2 18  2  0  0  0  0
  3 19  2  0  0  0  0
  3 11  1  0  0  0  0
  4 23  1  6  0  0  0
  4 13  1  0  0  0  0
  5 12  1  0  0  0  0
  6 21  1  0  0  0  0
  8 12  1  1  0  0  0
  8  6  1  0  0  0  0
  9 21  1  0  0  0  0
 10 15  1  0  0  0  0
 11 25  1  0  0  0  0
 12  9  2  0  0  0  0
 13 30  1  0  0  0  0
 13  8  1  0  0  0  0
 14  2  1  0  0  0  0
 15 26  1  0  0  0  0
 16  7  1  0  0  0  0
 19 29  1  0  0  0  0
 20 14  2  0  0  0  0
 20 28  1  0  0  0  0
 21 17  2  0  0  0  0
 22  1  1  0  0  0  0
 24 11  2  0  0  0  0
 25 23  1  0  0  0  0
 25 10  1  0  0  0  0
 26 16  2  0  0  0  0
 28 19  1  0  0  0  0
 28 29  1  0  0  0  0
 29 22  1  0  0  0  0
 30  7  1  0  0  0  0
 30 27  1  0  0  0  0
M  END
>  <MODEL>
2

>  <REMARK>
 VINA RESULT:      -8.4      1.954      2.639
  Name = 
  0 active torsions:
  status: ('A' for Active; 'I' for Inactive)
                            x       y       z     vdW  Elec       q    Type
                         _______ _______ _______ _____ _____    ______ ____

>  <TORSDO>
F 0

$$$$
=
 OpenBabel11052412343D

 30 35  0  0  1  0  0  0  0  0999 V2000
  188.1080  177.3540  142.3040 C   0  0  1  0  0  3  0  0  0  0  0  0
  190.4760  177.0050  141.3470 C   0  0  0  0  0  0  0  0  0  0  0  0
  190.7970  177.4260  145.6250 C   0  0  0  0  0  3  0  0  0  0  0  0
  187.3670  177.5970  143.6350 C   0  0  1  0  0  3  0  0  0  0  0  0
  187.6510  178.3150  141.3000 N   0  0  0  0  0  2  0  0  0  0  0  0
  183.6060  178.2520  141.7440 S   0  0  0  0  0  0  0  0  0  0  0  0
  184.3970  178.2530  145.4960 C   0  0  0  0  0  2  0  0  0  0  0  0
  185.3240  177.6980  142.0440 C   0  0  1  0  0  3  0  0  0  0  0  0
  185.6810  179.2880  140.2920 C   0  0  0  0  0  3  0  0  0  0  0  0
  187.2470  177.4950  146.7090 O   0  0  0  0  0  0  0  0  0  0  0  0
  189.5250  176.9400  146.1870 C   0  0  0  0  0  0  0  0  0  0  0  0
  186.2410  178.4740  141.1630 C   0  0  0  0  0  0  0  0  0  0  0  0
  185.8320  177.6930  143.5090 C   0  0  2  0  0  3  0  0  0  0  0  0
  191.9210  177.1280  141.5150 C   0  0  0  0  0  3  0  0  0  0  0  0
  187.0670  178.8590  146.9510 C   0  0  0  0  0  2  0  0  0  0  0  0
  184.5400  178.9220  146.8380 C   0  0  0  0  0  3  0  0  0  0  0  0
  183.4460  179.7530  139.4650 C   0  0  0  0  0  2  0  0  0  0  0  0
  189.9920  176.4640  140.3180 O   0  0  0  0  0  0  0  0  0  0  0  0
  190.8460  178.0910  144.4760 C   0  0  0  0  0  0  0  0  0  0  0  0
  192.4150  177.9230  142.4680 C   0  0  0  0  0  3  0  0  0  0  0  0
  184.2330  179.2820  140.4200 C   0  0  0  0  0  0  0  0  0  0  0  0
  189.6210  177.4130  142.5010 C   0  0  1  0  0  3  0  0  0  0  0  0
  187.7340  176.6690  144.6180 O   0  0  0  0  0  0  0  0  0  0  0  0
  189.5540  176.0820  147.1090 O   0  0  0  0  0  0  0  0  0  0  0  0
  188.2020  177.4500  145.6830 C   0  0  1  0  0  3  0  0  0  0  0  0
  185.6950  179.1530  147.4860 C   0  0  0  0  0  3  0  0  0  0  0  0
  184.9370  180.1280  143.8490 C   0  0  0  0  0  1  0  0  0  0  0  0
  191.5690  178.8300  143.3430 C   0  0  1  0  0  3  0  0  0  0  0  0
  190.1380  178.6540  143.2410 C   0  0  2  0  0  3  0  0  0  0  0  0
  185.3590  178.8000  144.4590 C   0  0  1  0  0  3  0  0  0  0  0  0
  1  5  1  6  0  0  0
  1 22  1  0  0  0  0
  1  4  1  0  0  0  0
  2 14  1  0  0  0  0
  2 22  1  0  0  0  0
  3 11  1  0  0  0  0
  4 23  1  1  0  0  0
  6  8  1  0  0  0  0
  7 16  1  0  0  0  0
  8 12  1  6  0  0  0
  8 13  1  0  0  0  0
  9 21  1  0  0  0  0
  9 12  2  0  0  0  0
 10 15  1  0  0  0  0
 11 24  2  0  0  0  0
 12  5  1  0  0  0  0
 13  4  1  0  0  0  0
 13 30  1  0  0  0  0
 14 20  2  0  0  0  0
 15 26  1  0  0  0  0
 16 26  2  0  0  0  0
 17 21  2  0  0  0  0
 18  2  2  0  0  0  0
 19  3  2  0  0  0  0
 20 28  1  0  0  0  0
 21  6  1  0  0  0  0
 22 29  1  0  0  0  0
 23 25  1  0  0  0  0
 25 11  1  0  0  0  0
 25 10  1  0  0  0  0
 27 30  1  0  0  0  0
 28 19  1  0  0  0  0
 29 28  1  0  0  0  0
 29 19  1  0  0  0  0
 30  7  1  0  0  0  0
M  END
>  <MODEL>
3

>  <REMARK>
 VINA RESULT:      -7.5      3.297      6.160
  Name = 
  0 active torsions:
  status: ('A' for Active; 'I' for Inactive)
                            x       y       z     vdW  Elec       q    Type
                         _______ _______ _______ _____ _____    ______ ____

>  <TORSDO>
F 0

$$$$
=
 OpenBabel11052412343D

 30 35  0  0  1  0  0  0  0  0999 V2000
  186.2570  178.9240  140.6860 C   0  0  1  0  0  3  0  0  0  0  0  0
  184.1900  179.3800  139.2140 C   0  0  0  0  0  0  0  0  0  0  0  0
  182.8640  178.8740  143.2850 C   0  0  0  0  0  3  0  0  0  0  0  0
  186.6580  178.6240  142.1450 C   0  0  1  0  0  3  0  0  0  0  0  0
  186.9070  177.9700  139.7880 N   0  0  0  0  0  2  0  0  0  0  0  0
  190.7360  177.8780  141.1650 S   0  0  0  0  0  0  0  0  0  0  0  0
  189.0880  177.8210  144.6270 C   0  0  0  0  0  2  0  0  0  0  0  0
  189.0120  178.4870  141.0730 C   0  0  1  0  0  3  0  0  0  0  0  0
  189.0290  176.9500  139.2380 C   0  0  0  0  0  3  0  0  0  0  0  0
  186.0570  178.6530  145.1650 O   0  0  0  0  0  0  0  0  0  0  0  0
  183.9830  179.3010  144.1430 C   0  0  0  0  0  0  0  0  0  0  0  0
  188.3050  177.7640  139.9790 C   0  0  0  0  0  0  0  0  0  0  0  0
  188.1760  178.4770  142.3790 C   0  0  2  0  0  3  0  0  0  0  0  0
  182.7430  179.3050  139.0370 C   0  0  0  0  0  3  0  0  0  0  0  0
  186.1360  177.2780  145.4000 C   0  0  0  0  0  2  0  0  0  0  0  0
  188.6160  177.1280  145.8780 C   0  0  0  0  0  3  0  0  0  0  0  0
  191.3800  176.4250  138.9420 C   0  0  0  0  0  2  0  0  0  0  0  0
  184.9170  179.9260  138.3430 O   0  0  0  0  0  0  0  0  0  0  0  0
  183.0650  178.2370  142.1370 C   0  0  0  0  0  0  0  0  0  0  0  0
  182.0160  178.5070  139.8240 C   0  0  0  0  0  3  0  0  0  0  0  0
  190.4060  176.9020  139.7000 C   0  0  0  0  0  0  0  0  0  0  0  0
  184.7380  178.9150  140.5230 C   0  0  1  0  0  3  0  0  0  0  0  0
  186.0990  179.5430  143.0440 O   0  0  0  0  0  0  0  0  0  0  0  0
  183.7640  180.1390  145.0580 O   0  0  0  0  0  0  0  0  0  0  0  0
  185.3720  178.7550  143.9460 C   0  0  1  0  0  3  0  0  0  0  0  0
  187.3350  176.9240  146.2320 C   0  0  0  0  0  3  0  0  0  0  0  0
  188.8950  176.0050  142.8430 C   0  0  0  0  0  1  0  0  0  0  0  0
  182.6070  177.5510  140.8450 C   0  0  1  0  0  3  0  0  0  0  0  0
  184.0260  177.6770  141.0850 C   0  0  2  0  0  3  0  0  0  0  0  0
  188.3800  177.3320  143.3780 C   0  0  1  0  0  3  0  0  0  0  0  0
  1  5  1  6  0  0  0
  1  4  1  0  0  0  0
  2 22  1  0  0  0  0
  3 11  1  0  0  0  0
  4 13  1  0  0  0  0
  4 23  1  1  0  0  0
  5 12  1  0  0  0  0
  7 16  1  0  0  0  0
  8 12  1  6  0  0  0
  8  6  1  0  0  0  0
  8 13  1  0  0  0  0
  9 21  1  0  0  0  0
  9 12  2  0  0  0  0
 10 15  1  0  0  0  0
 11 24  2  0  0  0  0
 13 30  1  0  0  0  0
 14  2  1  0  0  0  0
 14 20  2  0  0  0  0
 15 26  1  0  0  0  0
 16 26  2  0  0  0  0
 17 21  2  0  0  0  0
 18  2  2  0  0  0  0
 19  3  2  0  0  0  0
 20 28  1  0  0  0  0
 21  6  1  0  0  0  0
 22  1  1  0  0  0  0
 22 29  1  0  0  0  0
 23 25  1  0  0  0  0
 25 11  1  0  0  0  0
 25 10  1  0  0  0  0
 27 30  1  0  0  0  0
 28 29  1  0  0  0  0
 28 19  1  0  0  0  0
 29 19  1  0  0  0  0
 30  7  1  0  0  0  0
M  END
>  <MODEL>
4

>  <REMARK>
 VINA RESULT:      -7.2      2.273      4.201
  Name = 
  0 active torsions:
  status: ('A' for Active; 'I' for Inactive)
                            x       y       z     vdW  Elec       q    Type
                         _______ _______ _______ _____ _____    ______ ____

>  <TORSDO>
F 0

$$$$
=
 OpenBabel11052412343D

 30 35  0  0  1  0  0  0  0  0999 V2000
  184.7820  179.0300  142.3430 C   0  0  1  0  0  3  0  0  0  0  0  0
  184.8950  178.9820  144.9190 C   0  0  0  0  0  0  0  0  0  0  0  0
  188.7670  177.8780  143.3770 C   0  0  0  0  0  3  0  0  0  0  0  0
  185.6440  178.7640  141.0920 C   0  0  1  0  0  3  0  0  0  0  0  0
  183.4940  178.3510  142.2100 N   0  0  0  0  0  2  0  0  0  0  0  0
  182.3780  179.2430  138.3980 S   0  0  0  0  0  0  0  0  0  0  0  0
  186.0490  178.5170  137.5580 C   0  0  0  0  0  2  0  0  0  0  0  0
  183.4210  179.3520  139.8990 C   0  0  1  0  0  3  0  0  0  0  0  0
  181.6260  177.9970  140.7160 C   0  0  0  0  0  3  0  0  0  0  0  0
  188.3850  178.4390  139.7270 O   0  0  0  0  0  0  0  0  0  0  0  0
  188.9000  178.5460  142.0700 C   0  0  0  0  0  0  0  0  0  0  0  0
  182.8020  178.5300  140.9750 C   0  0  0  0  0  0  0  0  0  0  0  0
  184.9300  179.0300  139.7500 C   0  0  2  0  0  3  0  0  0  0  0  0
  185.5650  178.5180  146.1300 C   0  0  0  0  0  3  0  0  0  0  0  0
  188.2290  177.1280  139.2690 C   0  0  0  0  0  2  0  0  0  0  0  0
  187.1580  177.6440  137.0350 C   0  0  0  0  0  3  0  0  0  0  0  0
  179.9350  178.1650  138.9820 C   0  0  0  0  0  2  0  0  0  0  0  0
  183.9080  179.7610  144.9870 O   0  0  0  0  0  0  0  0  0  0  0  0
  187.6050  177.3940  143.8010 C   0  0  0  0  0  0  0  0  0  0  0  0
  186.4300  177.5030  146.0660 C   0  0  0  0  0  3  0  0  0  0  0  0
  181.1960  178.3050  139.3630 C   0  0  0  0  0  0  0  0  0  0  0  0
  185.5180  178.6080  143.6140 C   0  0  1  0  0  3  0  0  0  0  0  0
  186.8740  179.4340  141.1480 O   0  0  0  0  0  0  0  0  0  0  0  0
  189.9310  179.2320  141.8390 O   0  0  0  0  0  0  0  0  0  0  0  0
  187.8330  178.4210  141.0160 C   0  0  1  0  0  3  0  0  0  0  0  0
  188.1260  177.0710  137.7720 C   0  0  0  0  0  3  0  0  0  0  0  0
  184.3530  176.8310  138.4550 C   0  0  0  0  0  1  0  0  0  0  0  0
  186.6950  176.6880  144.8130 C   0  0  1  0  0  3  0  0  0  0  0  0
  186.1020  177.1890  143.5940 C   0  0  2  0  0  3  0  0  0  0  0  0
  185.3580  177.9280  138.7730 C   0  0  1  0  0  3  0  0  0  0  0  0
  1  5  1  6  0  0  0
  1 22  1  0  0  0  0
  2 18  2  0  0  0  0
  2 14  1  0  0  0  0
  3 19  2  0  0  0  0
  4 23  1  1  0  0  0
  4  1  1  0  0  0  0
  6 21  1  0  0  0  0
  7 30  1  0  0  0  0
  8  6  1  6  0  0  0
  8 12  1  0  0  0  0
  9 12  2  0  0  0  0
 10 25  1  0  0  0  0
 11  3  1  0  0  0  0
 12  5  1  0  0  0  0
 13  8  1  0  0  0  0
 13  4  1  0  0  0  0
 15 10  1  0  0  0  0
 16  7  1  0  0  0  0
 16 26  2  0  0  0  0
 17 21  2  0  0  0  0
 19 28  1  0  0  0  0
 20 14  2  0  0  0  0
 21  9  1  0  0  0  0
 22  2  1  0  0  0  0
 24 11  2  0  0  0  0
 25 23  1  0  0  0  0
 25 11  1  0  0  0  0
 26 15  1  0  0  0  0
 27 30  1  0  0  0  0
 28 20  1  0  0  0  0
 29 22  1  0  0  0  0
 29 19  1  0  0  0  0
 29 28  1  0  0  0  0
 30 13  1  0  0  0  0
M  END
>  <MODEL>
5

>  <REMARK>
 VINA RESULT:      -7.2      2.825      7.257
  Name = 
  0 active torsions:
  status: ('A' for Active; 'I' for Inactive)
                            x       y       z     vdW  Elec       q    Type
                         _______ _______ _______ _____ _____    ______ ____

>  <TORSDO>
F 0

$$$$
=
 OpenBabel11052412343D

 30 35  0  0  1  0  0  0  0  0999 V2000
  184.8620  179.0340  143.6840 C   0  0  1  0  0  3  0  0  0  0  0  0
  186.5730  178.6280  145.5700 C   0  0  0  0  0  0  0  0  0  0  0  0
  188.4850  177.7650  141.8030 C   0  0  0  0  0  3  0  0  0  0  0  0
  184.7120  178.9480  142.1510 C   0  0  1  0  0  3  0  0  0  0  0  0
  183.7270  178.3760  144.3300 N   0  0  0  0  0  2  0  0  0  0  0  0
  180.5350  179.7850  142.2340 S   0  0  0  0  0  0  0  0  0  0  0  0
  182.7690  179.1980  139.1720 C   0  0  0  0  0  2  0  0  0  0  0  0
  182.2960  179.6890  142.7240 C   0  0  1  0  0  3  0  0  0  0  0  0
  181.3140  178.2260  144.3430 C   0  0  0  0  0  3  0  0  0  0  0  0
  185.9320  178.8270  139.3270 O   0  0  0  0  0  0  0  0  0  0  0  0
  187.8190  178.6090  140.7960 C   0  0  0  0  0  0  0  0  0  0  0  0
  182.4300  178.7220  143.8490 C   0  0  0  0  0  0  0  0  0  0  0  0
  183.3370  179.3960  141.6120 C   0  0  2  0  0  3  0  0  0  0  0  0
  187.8140  178.0030  146.0150 C   0  0  0  0  0  3  0  0  0  0  0  0
  185.4100  177.5920  138.9330 C   0  0  0  0  0  2  0  0  0  0  0  0
  183.2180  178.4110  137.9690 C   0  0  0  0  0  3  0  0  0  0  0  0
  178.9310  178.6280  144.1190 C   0  0  0  0  0  2  0  0  0  0  0  0
  185.9230  179.3870  146.3370 O   0  0  0  0  0  0  0  0  0  0  0  0
  187.8160  177.2220  142.8150 C   0  0  0  0  0  0  0  0  0  0  0  0
  188.3530  177.0100  145.3020 C   0  0  0  0  0  3  0  0  0  0  0  0
  180.1540  178.7180  143.6200 C   0  0  0  0  0  0  0  0  0  0  0  0
  186.1960  178.4430  144.1370 C   0  0  1  0  0  3  0  0  0  0  0  0
  185.7520  179.6090  141.4830 O   0  0  0  0  0  0  0  0  0  0  0  0
  188.5260  179.3240  140.0370 O   0  0  0  0  0  0  0  0  0  0  0  0
  186.3200  178.6280  140.6590 C   0  0  1  0  0  3  0  0  0  0  0  0
  184.3790  177.7440  137.8510 C   0  0  0  0  0  3  0  0  0  0  0  0
  181.8850  177.3980  140.7520 C   0  0  0  0  0  1  0  0  0  0  0  0
  187.6940  176.3780  144.0890 C   0  0  1  0  0  3  0  0  0  0  0  0
  186.5110  177.0420  143.5930 C   0  0  2  0  0  3  0  0  0  0  0  0
  182.9540  178.4430  140.4740 C   0  0  1  0  0  3  0  0  0  0  0  0
  1 22  1  0  0  0  0
  1  5  1  1  0  0  0
  2 14  1  0  0  0  0
  2 18  2  0  0  0  0
  3 19  2  0  0  0  0
  4 23  1  6  0  0  0
  4  1  1  0  0  0  0
  6 21  1  0  0  0  0
  7 30  1  0  0  0  0
  8  6  1  6  0  0  0
  8 12  1  0  0  0  0
 10 25  1  0  0  0  0
 11  3  1  0  0  0  0
 12  5  1  0  0  0  0
 12  9  2  0  0  0  0
 13  4  1  0  0  0  0
 13  8  1  0  0  0  0
 15 10  1  0  0  0  0
 16  7  1  0  0  0  0
 19 29  1  0  0  0  0
 19 28  1  0  0  0  0
 20 14  2  0  0  0  0
 21 17  2  0  0  0  0
 21  9  1  0  0  0  0
 22  2  1  0  0  0  0
 24 11  2  0  0  0  0
 25 11  1  0  0  0  0
 25 23  1  0  0  0  0
 26 16  2  0  0  0  0
 26 15  1  0  0  0  0
 28 20  1  0  0  0  0
 29 28  1  0  0  0  0
 29 22  1  0  0  0  0
 30 27  1  0  0  0  0
 30 13  1  0  0  0  0
M  END
>  <MODEL>
6

>  <REMARK>
 VINA RESULT:      -7.1      3.018      7.012
  Name = 
  0 active torsions:
  status: ('A' for Active; 'I' for Inactive)
                            x       y       z     vdW  Elec       q    Type
                         _______ _______ _______ _____ _____    ______ ____

>  <TORSDO>
F 0

$$$$
=
 OpenBabel11052412343D

 30 35  0  0  1  0  0  0  0  0999 V2000
  186.2640  178.7030  141.4140 C   0  0  1  0  0  3  0  0  0  0  0  0
  185.2250  178.9970  143.7550 C   0  0  0  0  0  0  0  0  0  0  0  0
  189.3390  177.8040  144.2430 C   0  0  0  0  0  3  0  0  0  0  0  0
  187.5800  178.2990  140.7190 C   0  0  1  0  0  3  0  0  0  0  0  0
  185.1440  177.9790  140.8130 N   0  0  0  0  0  2  0  0  0  0  0  0
  185.8590  178.3320  136.8210 S   0  0  0  0  0  0  0  0  0  0  0  0
  189.4970  177.6010  137.7940 C   0  0  0  0  0  2  0  0  0  0  0  0
  186.1350  178.6660  138.6000 C   0  0  1  0  0  3  0  0  0  0  0  0
  184.1180  177.3820  138.7070 C   0  0  0  0  0  3  0  0  0  0  0  0
  190.6290  177.8710  140.7630 O   0  0  0  0  0  0  0  0  0  0  0  0
  190.0580  178.2980  143.0560 C   0  0  0  0  0  0  0  0  0  0  0  0
  185.0760  177.9750  139.3880 C   0  0  0  0  0  0  0  0  0  0  0  0
  187.5430  178.3670  139.1780 C   0  0  2  0  0  3  0  0  0  0  0  0
  185.2740  178.7150  145.1860 C   0  0  0  0  0  3  0  0  0  0  0  0
  190.6460  176.5070  140.4570 C   0  0  0  0  0  2  0  0  0  0  0  0
  190.6920  176.6970  137.9340 C   0  0  0  0  0  3  0  0  0  0  0  0
  183.3750  177.2760  136.3980 C   0  0  0  0  0  2  0  0  0  0  0  0
  184.3370  179.7520  143.2780 O   0  0  0  0  0  0  0  0  0  0  0  0
  188.0930  177.3490  144.1680 C   0  0  0  0  0  0  0  0  0  0  0  0
  186.0430  177.7230  145.6440 C   0  0  0  0  0  3  0  0  0  0  0  0
  184.3410  177.4980  137.2750 C   0  0  0  0  0  0  0  0  0  0  0  0
  186.3470  178.4730  142.9210 C   0  0  1  0  0  3  0  0  0  0  0  0
  188.6810  179.0030  141.2260 O   0  0  0  0  0  0  0  0  0  0  0  0
  191.1080  178.9750  143.2180 O   0  0  0  0  0  0  0  0  0  0  0  0
  189.5640  178.0070  141.6650 C   0  0  1  0  0  3  0  0  0  0  0  0
  191.2140  176.2510  139.0910 C   0  0  0  0  0  3  0  0  0  0  0  0
  187.5220  176.0030  138.0580 C   0  0  0  0  0  1  0  0  0  0  0  0
  186.8060  176.7580  144.7540 C   0  0  1  0  0  3  0  0  0  0  0  0
  186.8300  177.0790  143.3460 C   0  0  2  0  0  3  0  0  0  0  0  0
  188.3200  177.1590  138.6430 C   0  0  1  0  0  3  0  0  0  0  0  0
  1  5  1  6  0  0  0
  1 22  1  0  0  0  0
  2 14  1  0  0  0  0
  4 23  1  1  0  0  0
  4  1  1  0  0  0  0
  6 21  1  0  0  0  0
  7 16  1  0  0  0  0
  7 30  1  0  0  0  0
  8  6  1  6  0  0  0
  8 13  1  0  0  0  0
  8 12  1  0  0  0  0
  9 12  2  0  0  0  0
 10 25  1  0  0  0  0
 11 24  2  0  0  0  0
 11  3  1  0  0  0  0
 12  5  1  0  0  0  0
 13  4  1  0  0  0  0
 14 20  2  0  0  0  0
 15 10  1  0  0  0  0
 16 26  2  0  0  0  0
 17 21  2  0  0  0  0
 18  2  2  0  0  0  0
 19  3  2  0  0  0  0
 19 28  1  0  0  0  0
 21  9  1  0  0  0  0
 22 29  1  0  0  0  0
 22  2  1  0  0  0  0
 23 25  1  0  0  0  0
 25 11  1  0  0  0  0
 26 15  1  0  0  0  0
 27 30  1  0  0  0  0
 28 20  1  0  0  0  0
 29 19  1  0  0  0  0
 29 28  1  0  0  0  0
 30 13  1  0  0  0  0
M  END
>  <MODEL>
7

>  <REMARK>
 VINA RESULT:      -7.0      2.499      7.004
  Name = 
  0 active torsions:
  status: ('A' for Active; 'I' for Inactive)
                            x       y       z     vdW  Elec       q    Type
                         _______ _______ _______ _____ _____    ______ ____

>  <TORSDO>
F 0

$$$$
=
 OpenBabel11052412343D

 30 35  0  0  1  0  0  0  0  0999 V2000
  185.7470  178.8000  141.9480 C   0  0  1  0  0  3  0  0  0  0  0  0
  186.4000  178.6740  144.4390 C   0  0  0  0  0  0  0  0  0  0  0  0
  189.6430  177.0480  142.1100 C   0  0  0  0  0  3  0  0  0  0  0  0
  186.2720  178.4400  140.5430 C   0  0  1  0  0  3  0  0  0  0  0  0
  184.3730  178.3230  142.1010 N   0  0  0  0  0  2  0  0  0  0  0  0
  182.6140  179.4610  138.6110 S   0  0  0  0  0  0  0  0  0  0  0  0
  185.8700  178.2230  137.0060 C   0  0  0  0  0  2  0  0  0  0  0  0
  183.9580  179.3800  139.8510 C   0  0  1  0  0  3  0  0  0  0  0  0
  182.1980  178.2840  141.0460 C   0  0  0  0  0  3  0  0  0  0  0  0
  188.5770  177.7480  138.6230 O   0  0  0  0  0  0  0  0  0  0  0  0
  189.5910  177.7210  140.8000 C   0  0  0  0  0  0  0  0  0  0  0  0
  183.4690  178.6320  141.0420 C   0  0  0  0  0  0  0  0  0  0  0  0
  185.3360  178.8420  139.3840 C   0  0  2  0  0  3  0  0  0  0  0  0
  187.2360  178.0870  145.4820 C   0  0  0  0  0  3  0  0  0  0  0  0
  188.1330  176.4860  138.2200 C   0  0  0  0  0  2  0  0  0  0  0  0
  186.6990  177.2080  136.2640 C   0  0  0  0  0  3  0  0  0  0  0  0
  180.2200  178.7420  139.7150 C   0  0  0  0  0  2  0  0  0  0  0  0
  185.5780  179.5890  144.7120 O   0  0  0  0  0  0  0  0  0  0  0  0
  188.5390  176.7310  142.7770 C   0  0  0  0  0  0  0  0  0  0  0  0
  187.9070  176.9570  145.2410 C   0  0  0  0  0  3  0  0  0  0  0  0
  181.5390  178.6860  139.8150 C   0  0  0  0  0  0  0  0  0  0  0  0
  186.6670  178.2440  143.0340 C   0  0  1  0  0  3  0  0  0  0  0  0
  187.5710  178.9200  140.3280 O   0  0  0  0  0  0  0  0  0  0  0  0
  190.6400  178.2520  140.3470 O   0  0  0  0  0  0  0  0  0  0  0  0
  188.3170  177.7800  140.0010 C   0  0  1  0  0  3  0  0  0  0  0  0
  187.7050  176.4810  136.7800 C   0  0  0  0  0  3  0  0  0  0  0  0
  184.1730  176.7840  138.2610 C   0  0  0  0  0  1  0  0  0  0  0  0
  187.7720  176.1430  143.9670 C   0  0  1  0  0  3  0  0  0  0  0  0
  187.0140  176.7560  142.9010 C   0  0  2  0  0  3  0  0  0  0  0  0
  185.3750  177.7130  138.3470 C   0  0  1  0  0  3  0  0  0  0  0  0
  1  5  1  1  0  0  0
  1 22  1  0  0  0  0
  2 18  2  0  0  0  0
  2 14  1  0  0  0  0
  3 19  2  0  0  0  0
  4 23  1  6  0  0  0
  4  1  1  0  0  0  0
  6 21  1  0  0  0  0
  7 30  1  0  0  0  0
  8  6  1  6  0  0  0
  8 12  1  0  0  0  0
 10 25  1  0  0  0  0
 11  3  1  0  0  0  0
 12  9  2  0  0  0  0
 12  5  1  0  0  0  0
 13  8  1  0  0  0  0
 13  4  1  0  0  0  0
 15 10  1  0  0  0  0
 16 26  2  0  0  0  0
 16  7  1  0  0  0  0
 17 21  2  0  0  0  0
 19 29  1  0  0  0  0
 19 28  1  0  0  0  0
 20 14  2  0  0  0  0
 21  9  1  0  0  0  0
 22  2  1  0  0  0  0
 24 11  2  0  0  0  0
 25 23  1  0  0  0  0
 25 11  1  0  0  0  0
 26 15  1  0  0  0  0
 27 30  1  0  0  0  0
 28 20  1  0  0  0  0
 29 22  1  0  0  0  0
 29 28  1  0  0  0  0
 30 13  1  0  0  0  0
M  END
>  <MODEL>
8

>  <REMARK>
 VINA RESULT:      -6.5      2.613      6.984
  Name = 
  0 active torsions:
  status: ('A' for Active; 'I' for Inactive)
                            x       y       z     vdW  Elec       q    Type
                         _______ _______ _______ _____ _____    ______ ____

>  <TORSDO>
F 0

$$$$
=
 OpenBabel11052412343D

 30 35  0  0  1  0  0  0  0  0999 V2000
  187.7860  178.2630  139.4380 C   0  0  1  0  0  3  0  0  0  0  0  0
  187.1090  178.8090  141.8650 C   0  0  0  0  0  0  0  0  0  0  0  0
  191.0510  177.0650  141.9220 C   0  0  0  0  0  3  0  0  0  0  0  0
  188.9340  177.6430  138.6150 C   0  0  1  0  0  3  0  0  0  0  0  0
  186.5100  177.6790  139.0260 N   0  0  0  0  0  2  0  0  0  0  0  0
  186.7430  177.7410  134.9620 S   0  0  0  0  0  0  0  0  0  0  0  0
  190.3420  176.5450  135.5290 C   0  0  0  0  0  2  0  0  0  0  0  0
  187.2890  178.1140  136.6690 C   0  0  1  0  0  3  0  0  0  0  0  0
  185.1480  177.1370  137.1030 C   0  0  0  0  0  3  0  0  0  0  0  0
  191.8760  176.7870  138.3140 O   0  0  0  0  0  0  0  0  0  0  0  0
  191.6710  177.3960  140.6270 C   0  0  0  0  0  0  0  0  0  0  0  0
  186.2580  177.6190  137.6230 C   0  0  0  0  0  0  0  0  0  0  0  0
  188.7060  177.6450  137.0890 C   0  0  2  0  0  3  0  0  0  0  0  0
  187.3040  178.5890  143.2940 C   0  0  0  0  0  3  0  0  0  0  0  0
  191.6690  175.4220  138.0960 C   0  0  0  0  0  2  0  0  0  0  0  0
  191.4120  175.4860  135.5790 C   0  0  0  0  0  3  0  0  0  0  0  0
  184.1040  177.0320  134.9140 C   0  0  0  0  0  2  0  0  0  0  0  0
  186.2780  179.6600  141.4520 O   0  0  0  0  0  0  0  0  0  0  0  0
  189.7560  176.7900  142.0290 C   0  0  0  0  0  0  0  0  0  0  0  0
  187.9850  177.5200  143.7170 C   0  0  0  0  0  3  0  0  0  0  0  0
  185.1970  177.1550  135.6500 C   0  0  0  0  0  0  0  0  0  0  0  0
  188.0320  178.0920  140.9360 C   0  0  1  0  0  3  0  0  0  0  0  0
  190.1760  178.2050  138.9380 O   0  0  0  0  0  0  0  0  0  0  0  0
  192.8150  177.9230  140.6170 O   0  0  0  0  0  0  0  0  0  0  0  0
  190.9650  177.1150  139.3280 C   0  0  1  0  0  3  0  0  0  0  0  0
  192.0140  175.0250  136.6890 C   0  0  0  0  0  3  0  0  0  0  0  0
  188.2200  175.2580  136.1330 C   0  0  0  0  0  1  0  0  0  0  0  0
  188.4880  176.4160  142.8050 C   0  0  1  0  0  3  0  0  0  0  0  0
  188.3720  176.6650  141.3860 C   0  0  2  0  0  3  0  0  0  0  0  0
  189.2360  176.3140  136.5410 C   0  0  1  0  0  3  0  0  0  0  0  0
  1  5  1  6  0  0  0
  1 22  1  0  0  0  0
  2 14  1  0  0  0  0
  3 19  2  0  0  0  0
  4 23  1  6  0  0  0
  4  1  1  0  0  0  0
  6 21  1  0  0  0  0
  7 16  1  0  0  0  0
  7 30  1  0  0  0  0
  8  6  1  6  0  0  0
  8 13  1  0  0  0  0
  8 12  1  0  0  0  0
  9 12  2  0  0  0  0
 10 25  1  0  0  0  0
 11  3  1  0  0  0  0
 12  5  1  0  0  0  0
 13  4  1  0  0  0  0
 14 20  2  0  0  0  0
 15 10  1  0  0  0  0
 16 26  2  0  0  0  0
 17 21  2  0  0  0  0
 18  2  2  0  0  0  0
 19 28  1  0  0  0  0
 21  9  1  0  0  0  0
 22 29  1  0  0  0  0
 22  2  1  0  0  0  0
 23 25  1  0  0  0  0
 24 11  2  0  0  0  0
 25 11  1  0  0  0  0
 26 15  1  0  0  0  0
 27 30  1  0  0  0  0
 28 20  1  0  0  0  0
 29 19  1  0  0  0  0
 29 28  1  0  0  0  0
 30 13  1  0  0  0  0
M  END
>  <MODEL>
9

>  <REMARK>
 VINA RESULT:      -6.2      2.759      7.426
  Name = 
  0 active torsions:
  status: ('A' for Active; 'I' for Inactive)
                            x       y       z     vdW  Elec       q    Type
                         _______ _______ _______ _____ _____    ______ ____

>  <TORSDO>
F 0

$$$$
