=
 OpenBabel11052417033D

 32 32  0  0  1  0  0  0  0  0999 V2000
  187.4780  177.9630  141.2780 C   0  0  2  0  0  3  0  0  0  0  0  0
  186.2510  178.8380  141.6350 C   0  0  2  0  0  3  0  0  0  0  0  0
  184.9420  178.2540  145.0000 C   0  0  0  0  0  3  0  0  0  0  0  0
  185.0390  178.2080  143.7010 C   0  0  0  0  0  0  0  0  0  0  0  0
  185.1370  178.1620  142.3980 C   0  0  0  0  0  3  0  0  0  0  0  0
  185.9500  178.9600  145.7820 C   0  0  0  0  0  3  0  0  0  0  0  0
  185.8960  178.9420  147.1040 C   0  0  0  0  0  2  0  0  0  0  0  0
  185.7700  179.6190  140.5590 O   0  0  0  0  0  0  0  0  0  0  0  0
  184.5580  179.0680  140.1080 C   0  0  0  0  0  1  0  0  0  0  0  0
  188.5030  177.8810  142.4190 C   0  0  0  0  0  2  0  0  0  0  0  0
  189.1420  176.5010  142.5760 C   0  0  1  0  0  3  0  0  0  0  0  0
  190.0590  176.2980  141.5430 O   0  0  0  0  0  0  0  0  0  0  0  0
  191.1020  177.1830  141.8130 C   0  0  0  0  0  1  0  0  0  0  0  0
  189.7980  176.4000  143.8060 O   0  0  0  0  0  0  0  0  0  0  0  0
  188.9090  176.9600  144.7260 C   0  0  0  0  0  2  0  0  0  0  0  0
  191.1600  177.6800  145.4680 C   0  0  0  0  0  2  0  0  0  0  0  0
  189.5500  177.0000  147.1370 C   0  0  1  0  0  3  0  0  0  0  0  0
  190.9220  176.4840  147.3740 C   0  0  0  0  0  3  0  0  0  0  0  0
  191.7540  176.8540  146.4800 N   0  0  0  0  0  0  0  0  0  0  0  0
  189.1960  178.0000  148.2200 C   0  0  0  0  0  1  0  0  0  0  0  0
  189.6720  177.7200  145.7990 C   0  0  2  0  0  3  0  0  0  0  0  0
  188.1390  178.4280  139.9860 C   0  0  0  0  0  2  0  0  0  0  0  0
  188.0650  177.4190  139.0230 O   0  0  0  0  0  0  0  0  0  0  0  0
  187.8030  178.0880  137.8250 C   0  0  0  0  0  2  0  0  0  0  0  0
  187.5100  177.0840  136.7250 C   0  0  2  0  0  3  0  0  0  0  0  0
  186.8110  177.7890  135.5800 C   0  0  0  0  0  1  0  0  0  0  0  0
  186.6620  176.0200  137.2430 N   0  0  0  0  0  2  0  0  0  0  0  0
  186.9700  174.6350  137.0700 C   0  0  0  0  0  0  0  0  0  0  0  0
  188.0300  174.2880  136.4790 O   0  0  0  0  0  0  0  0  0  0  0  0
  186.0870  173.6760  137.5670 O   0  0  0  0  0  0  0  0  0  0  0  0
  185.3310  172.8360  136.7080 C   0  0  0  0  0  2  0  0  0  0  0  0
  184.0340  173.5250  136.3430 C   0  0  0  0  0  1  0  0  0  0  0  0
  1 22  1  6  0  0  0
  1  2  1  0  0  0  0
  1 10  1  0  0  0  0
  2  5  1  6  0  0  0
  3  6  1  0  0  0  0
  4  3  2  0  0  0  0
  5  4  2  0  0  0  0
  6  7  2  0  0  0  0
  8  2  1  0  0  0  0
  9  8  1  0  0  0  0
 11 10  1  6  0  0  0
 11 14  1  0  0  0  0
 12 13  1  0  0  0  0
 12 11  1  0  0  0  0
 14 15  1  0  0  0  0
 16 21  1  0  0  0  0
 16 19  1  0  0  0  0
 17 18  1  0  0  0  0
 17 20  1  1  0  0  0
 19 18  2  0  0  0  0
 21 15  1  6  0  0  0
 21 17  1  0  0  0  0
 23 22  1  0  0  0  0
 24 23  1  0  0  0  0
 25 26  1  6  0  0  0
 25 27  1  0  0  0  0
 25 24  1  0  0  0  0
 28 27  1  0  0  0  0
 28 30  1  0  0  0  0
 29 28  2  0  0  0  0
 31 30  1  0  0  0  0
 32 31  1  0  0  0  0
M  END
>  <MODEL>
1

>  <REMARK>
 VINA RESULT:      -6.4      0.000      0.000
  Name = 
  17 active torsions:
  status: ('A' for Active; 'I' for Inactive)
    1  A    between atoms: C_1  and  O_20
    2  A    between atoms: C_2  and  C_9
    3  A    between atoms: C_2  and  O_23
    4  A    between atoms: O_3  and  C_14
    5  A    between atoms: C_4  and  C_5
    6  A    between atoms: O_6  and  C_31
    7  A    between atoms: C_8  and  O_23
    8  A    between atoms: C_8  and  C_28
    9  A    between atoms: C_9  and  N_10
   10  A    between atoms: C_13  and  C_28
   11  A    between atoms: C_13  and  C_31
   12  A    between atoms: C_14  and  C_26
   13  A    between atoms: C_14  and  C_28
   14  A    between atoms: O_16  and  C_27
   15  A    between atoms: O_16  and  C_31
   16  A    between atoms: C_19  and  O_20
   17  A    between atoms: C_27  and  C_32
                            x       y       z     vdW  Elec       q    Type
                         _______ _______ _______ _____ _____    ______ ____

>  <TORSDO>
F 17

$$$$
=
 OpenBabel11052417033D

 32 32  0  0  1  0  0  0  0  0999 V2000
  185.2530  178.4600  143.2130 C   0  0  2  0  0  3  0  0  0  0  0  0
  186.0910  178.1330  144.4730 C   0  0  2  0  0  3  0  0  0  0  0  0
  189.6400  177.3230  144.1270 C   0  0  0  0  0  3  0  0  0  0  0  0
  188.3540  177.1520  144.2430 C   0  0  0  0  0  0  0  0  0  0  0  0
  187.0630  176.9820  144.3590 C   0  0  0  0  0  3  0  0  0  0  0  0
  190.1960  178.6700  144.0770 C   0  0  0  0  0  3  0  0  0  0  0  0
  191.5070  178.8450  144.0120 C   0  0  0  0  0  2  0  0  0  0  0  0
  185.3360  178.0830  145.6680 O   0  0  0  0  0  0  0  0  0  0  0  0
  186.0100  178.8170  146.6580 C   0  0  0  0  0  1  0  0  0  0  0  0
  186.0720  179.1610  142.1190 C   0  0  0  0  0  2  0  0  0  0  0  0
  185.6910  178.7420  140.6990 C   0  0  1  0  0  3  0  0  0  0  0  0
  184.8160  179.6860  140.1590 O   0  0  0  0  0  0  0  0  0  0  0  0
  184.3560  179.1090  138.9750 C   0  0  0  0  0  1  0  0  0  0  0  0
  186.8280  178.6480  139.8920 O   0  0  0  0  0  0  0  0  0  0  0  0
  187.8500  178.2710  140.7660 C   0  0  0  0  0  2  0  0  0  0  0  0
  188.9750  178.5660  138.5790 C   0  0  0  0  0  2  0  0  0  0  0  0
  189.9570  177.0610  140.1960 C   0  0  1  0  0  3  0  0  0  0  0  0
  189.9610  176.5420  138.8050 C   0  0  0  0  0  3  0  0  0  0  0  0
  189.4360  177.3510  137.9700 N   0  0  0  0  0  0  0  0  0  0  0  0
  191.3820  177.3340  140.6330 C   0  0  0  0  0  1  0  0  0  0  0  0
  189.2000  178.3790  140.0760 C   0  0  2  0  0  3  0  0  0  0  0  0
  184.0100  179.2690  143.5630 C   0  0  0  0  0  2  0  0  0  0  0  0
  182.8940  178.7320  142.9170 O   0  0  0  0  0  0  0  0  0  0  0  0
  181.8310  178.9590  143.7940 C   0  0  0  0  0  2  0  0  0  0  0  0
  180.5530  179.1930  143.0100 C   0  0  2  0  0  3  0  0  0  0  0  0
  179.3720  179.1570  143.9590 C   0  0  0  0  0  1  0  0  0  0  0  0
  180.4040  178.1610  141.9940 N   0  0  0  0  0  2  0  0  0  0  0  0
  180.5410  178.4280  140.5970 C   0  0  0  0  0  0  0  0  0  0  0  0
  180.8370  179.5880  140.1970 O   0  0  0  0  0  0  0  0  0  0  0  0
  180.3480  177.3900  139.6850 O   0  0  0  0  0  0  0  0  0  0  0  0
  181.3830  176.9540  138.8160 C   0  0  0  0  0  2  0  0  0  0  0  0
  182.1820  175.8600  139.4920 C   0  0  0  0  0  1  0  0  0  0  0  0
  1 10  1  6  0  0  0
  1 22  1  0  0  0  0
  1  2  1  0  0  0  0
  2  5  1  6  0  0  0
  2  8  1  0  0  0  0
  3  4  2  0  0  0  0
  4  5  2  0  0  0  0
  6  3  1  0  0  0  0
  7  6  2  0  0  0  0
  8  9  1  0  0  0  0
 11 10  1  1  0  0  0
 12 11  1  0  0  0  0
 13 12  1  0  0  0  0
 14 11  1  0  0  0  0
 14 15  1  0  0  0  0
 16 21  1  0  0  0  0
 17 20  1  6  0  0  0
 18 17  1  0  0  0  0
 19 16  1  0  0  0  0
 19 18  2  0  0  0  0
 21 17  1  0  0  0  0
 21 15  1  1  0  0  0
 23 22  1  0  0  0  0
 23 24  1  0  0  0  0
 25 24  1  0  0  0  0
 25 26  1  1  0  0  0
 27 25  1  0  0  0  0
 28 27  1  0  0  0  0
 29 28  2  0  0  0  0
 30 28  1  0  0  0  0
 31 32  1  0  0  0  0
 31 30  1  0  0  0  0
M  END
>  <MODEL>
2

>  <REMARK>
 VINA RESULT:      -6.4      3.275      6.669
  Name = 
  17 active torsions:
  status: ('A' for Active; 'I' for Inactive)
    1  A    between atoms: C_1  and  O_20
    2  A    between atoms: C_2  and  C_9
    3  A    between atoms: C_2  and  O_23
    4  A    between atoms: O_3  and  C_14
    5  A    between atoms: C_4  and  C_5
    6  A    between atoms: O_6  and  C_31
    7  A    between atoms: C_8  and  O_23
    8  A    between atoms: C_8  and  C_28
    9  A    between atoms: C_9  and  N_10
   10  A    between atoms: C_13  and  C_28
   11  A    between atoms: C_13  and  C_31
   12  A    between atoms: C_14  and  C_26
   13  A    between atoms: C_14  and  C_28
   14  A    between atoms: O_16  and  C_27
   15  A    between atoms: O_16  and  C_31
   16  A    between atoms: C_19  and  O_20
   17  A    between atoms: C_27  and  C_32
                            x       y       z     vdW  Elec       q    Type
                         _______ _______ _______ _____ _____    ______ ____

>  <TORSDO>
F 17

$$$$
=
 OpenBabel11052417033D

 32 32  0  0  1  0  0  0  0  0999 V2000
  189.3560  177.8680  142.0870 C   0  0  2  0  0  3  0  0  0  0  0  0
  189.5460  177.8500  143.6230 C   0  0  2  0  0  3  0  0  0  0  0  0
  188.3800  177.3450  147.0530 C   0  0  0  0  0  3  0  0  0  0  0  0
  188.3460  177.4680  145.7560 C   0  0  0  0  0  0  0  0  0  0  0  0
  188.3120  177.5910  144.4550 C   0  0  0  0  0  3  0  0  0  0  0  0
  189.6520  177.4320  147.7600 C   0  0  0  0  0  3  0  0  0  0  0  0
  190.7060  176.7670  147.3150 C   0  0  0  0  0  2  0  0  0  0  0  0
  190.3130  178.9290  144.1200 O   0  0  0  0  0  0  0  0  0  0  0  0
  191.6630  178.5420  144.1630 C   0  0  0  0  0  1  0  0  0  0  0  0
  187.9040  177.6010  141.6640 C   0  0  0  0  0  2  0  0  0  0  0  0
  187.3200  178.6780  140.7490 C   0  0  1  0  0  3  0  0  0  0  0  0
  187.5720  178.3390  139.4180 O   0  0  0  0  0  0  0  0  0  0  0  0
  186.3110  178.2600  138.8260 C   0  0  0  0  0  1  0  0  0  0  0  0
  185.9410  178.7960  140.9450 O   0  0  0  0  0  0  0  0  0  0  0  0
  185.8150  179.4090  142.1940 C   0  0  0  0  0  2  0  0  0  0  0  0
  183.6480  178.2290  142.4200 C   0  0  0  0  0  2  0  0  0  0  0  0
  184.5670  179.3500  144.3540 C   0  0  1  0  0  3  0  0  0  0  0  0
  183.1060  179.5460  144.1770 C   0  0  0  0  0  3  0  0  0  0  0  0
  182.6440  178.9490  143.1500 N   0  0  0  0  0  0  0  0  0  0  0  0
  184.8140  178.5160  145.5960 C   0  0  0  0  0  1  0  0  0  0  0  0
  184.9650  178.5510  143.1180 C   0  0  2  0  0  3  0  0  0  0  0  0
  190.3100  176.9030  141.3940 C   0  0  0  0  0  2  0  0  0  0  0  0
  190.7230  177.4360  140.1710 O   0  0  0  0  0  0  0  0  0  0  0  0
  190.4820  176.4230  139.2410 C   0  0  0  0  0  2  0  0  0  0  0  0
  191.0550  176.8130  137.8910 C   0  0  2  0  0  3  0  0  0  0  0  0
  189.9720  176.6950  136.8370 C   0  0  0  0  0  1  0  0  0  0  0  0
  192.1680  175.9360  137.5570 N   0  0  0  0  0  2  0  0  0  0  0  0
  193.4900  176.1420  138.0600 C   0  0  0  0  0  0  0  0  0  0  0  0
  193.7270  177.0930  138.8550 O   0  0  0  0  0  0  0  0  0  0  0  0
  194.5090  175.2750  137.6650 O   0  0  0  0  0  0  0  0  0  0  0  0
  194.4920  173.8960  138.0000 C   0  0  0  0  0  2  0  0  0  0  0  0
  195.8300  173.5020  138.5880 C   0  0  0  0  0  1  0  0  0  0  0  0
  1 22  1  6  0  0  0
  1  2  1  0  0  0  0
  2  8  1  0  0  0  0
  2  5  1  1  0  0  0
  3  6  1  0  0  0  0
  4  3  2  0  0  0  0
  5  4  2  0  0  0  0
  7  6  2  0  0  0  0
  8  9  1  0  0  0  0
 10  1  1  0  0  0  0
 11 14  1  0  0  0  0
 11 10  1  1  0  0  0
 12 11  1  0  0  0  0
 13 12  1  0  0  0  0
 14 15  1  0  0  0  0
 16 21  1  0  0  0  0
 16 19  1  0  0  0  0
 17 20  1  1  0  0  0
 18 17  1  0  0  0  0
 19 18  2  0  0  0  0
 21 15  1  6  0  0  0
 21 17  1  0  0  0  0
 23 22  1  0  0  0  0
 24 23  1  0  0  0  0
 25 26  1  6  0  0  0
 25 24  1  0  0  0  0
 27 25  1  0  0  0  0
 27 28  1  0  0  0  0
 28 29  2  0  0  0  0
 30 31  1  0  0  0  0
 30 28  1  0  0  0  0
 31 32  1  0  0  0  0
M  END
>  <MODEL>
3

>  <REMARK>
 VINA RESULT:      -6.4      3.148      5.993
  Name = 
  17 active torsions:
  status: ('A' for Active; 'I' for Inactive)
    1  A    between atoms: C_1  and  O_20
    2  A    between atoms: C_2  and  C_9
    3  A    between atoms: C_2  and  O_23
    4  A    between atoms: O_3  and  C_14
    5  A    between atoms: C_4  and  C_5
    6  A    between atoms: O_6  and  C_31
    7  A    between atoms: C_8  and  O_23
    8  A    between atoms: C_8  and  C_28
    9  A    between atoms: C_9  and  N_10
   10  A    between atoms: C_13  and  C_28
   11  A    between atoms: C_13  and  C_31
   12  A    between atoms: C_14  and  C_26
   13  A    between atoms: C_14  and  C_28
   14  A    between atoms: O_16  and  C_27
   15  A    between atoms: O_16  and  C_31
   16  A    between atoms: C_19  and  O_20
   17  A    between atoms: C_27  and  C_32
                            x       y       z     vdW  Elec       q    Type
                         _______ _______ _______ _____ _____    ______ ____

>  <TORSDO>
F 17

$$$$
=
 OpenBabel11052417033D

 32 32  0  0  1  0  0  0  0  0999 V2000
  186.7980  178.1870  140.5060 C   0  0  2  0  0  3  0  0  0  0  0  0
  185.5490  178.9910  140.9390 C   0  0  2  0  0  3  0  0  0  0  0  0
  184.4010  178.4090  144.3630 C   0  0  0  0  0  3  0  0  0  0  0  0
  184.4590  178.3300  143.0630 C   0  0  0  0  0  0  0  0  0  0  0  0
  184.5180  178.2520  141.7600 C   0  0  0  0  0  3  0  0  0  0  0  0
  185.3740  179.2170  145.0890 C   0  0  0  0  0  3  0  0  0  0  0  0
  185.8250  178.8130  146.2660 C   0  0  0  0  0  2  0  0  0  0  0  0
  184.9650  179.7500  139.8980 O   0  0  0  0  0  0  0  0  0  0  0  0
  183.6430  179.3130  139.7090 C   0  0  0  0  0  1  0  0  0  0  0  0
  188.0700  178.6120  141.2560 C   0  0  0  0  0  2  0  0  0  0  0  0
  188.5550  177.5860  142.2800 C   0  0  1  0  0  3  0  0  0  0  0  0
  189.9410  177.4470  142.1730 O   0  0  0  0  0  0  0  0  0  0  0  0
  190.1350  176.7060  141.0070 C   0  0  0  0  0  1  0  0  0  0  0  0
  188.2280  177.9910  143.5760 O   0  0  0  0  0  0  0  0  0  0  0  0
  188.8890  177.0820  144.4060 C   0  0  0  0  0  2  0  0  0  0  0  0
  191.0950  177.8510  145.2290 C   0  0  0  0  0  2  0  0  0  0  0  0
  189.4820  177.0270  146.8300 C   0  0  1  0  0  3  0  0  0  0  0  0
  190.8690  176.5540  147.0690 C   0  0  0  0  0  3  0  0  0  0  0  0
  191.7020  176.9990  146.2120 N   0  0  0  0  0  0  0  0  0  0  0  0
  189.0690  177.9580  147.9520 C   0  0  0  0  0  1  0  0  0  0  0  0
  189.6000  177.8170  145.5300 C   0  0  2  0  0  3  0  0  0  0  0  0
  187.0100  178.2510  138.9990 C   0  0  0  0  0  2  0  0  0  0  0  0
  188.3410  178.5680  138.7170 O   0  0  0  0  0  0  0  0  0  0  0  0
  188.3560  178.8610  137.3520 C   0  0  0  0  0  2  0  0  0  0  0  0
  189.0970  177.7740  136.5970 C   0  0  2  0  0  3  0  0  0  0  0  0
  188.0970  176.7720  136.0550 C   0  0  0  0  0  1  0  0  0  0  0  0
  190.0330  177.1060  137.4890 N   0  0  0  0  0  2  0  0  0  0  0  0
  191.1250  176.3160  137.0110 C   0  0  0  0  0  0  0  0  0  0  0  0
  191.3330  176.2020  135.7720 O   0  0  0  0  0  0  0  0  0  0  0  0
  191.9570  175.6800  137.9340 O   0  0  0  0  0  0  0  0  0  0  0  0
  193.2880  176.1160  138.1670 C   0  0  0  0  0  2  0  0  0  0  0  0
  193.3100  177.0570  139.3520 C   0  0  0  0  0  1  0  0  0  0  0  0
  1 22  1  6  0  0  0
  1  2  1  0  0  0  0
  1 10  1  0  0  0  0
  2  5  1  6  0  0  0
  3  6  1  0  0  0  0
  4  3  2  0  0  0  0
  5  4  2  0  0  0  0
  6  7  2  0  0  0  0
  8  2  1  0  0  0  0
  9  8  1  0  0  0  0
 11 10  1  6  0  0  0
 11 14  1  0  0  0  0
 12 11  1  0  0  0  0
 13 12  1  0  0  0  0
 14 15  1  0  0  0  0
 16 21  1  0  0  0  0
 16 19  1  0  0  0  0
 17 18  1  0  0  0  0
 17 20  1  1  0  0  0
 19 18  2  0  0  0  0
 21 15  1  6  0  0  0
 21 17  1  0  0  0  0
 23 22  1  0  0  0  0
 24 23  1  0  0  0  0
 25 26  1  1  0  0  0
 25 24  1  0  0  0  0
 25 27  1  0  0  0  0
 28 27  1  0  0  0  0
 28 30  1  0  0  0  0
 29 28  2  0  0  0  0
 30 31  1  0  0  0  0
 31 32  1  0  0  0  0
M  END
>  <MODEL>
4

>  <REMARK>
 VINA RESULT:      -6.2      2.096      3.073
  Name = 
  17 active torsions:
  status: ('A' for Active; 'I' for Inactive)
    1  A    between atoms: C_1  and  O_20
    2  A    between atoms: C_2  and  C_9
    3  A    between atoms: C_2  and  O_23
    4  A    between atoms: O_3  and  C_14
    5  A    between atoms: C_4  and  C_5
    6  A    between atoms: O_6  and  C_31
    7  A    between atoms: C_8  and  O_23
    8  A    between atoms: C_8  and  C_28
    9  A    between atoms: C_9  and  N_10
   10  A    between atoms: C_13  and  C_28
   11  A    between atoms: C_13  and  C_31
   12  A    between atoms: C_14  and  C_26
   13  A    between atoms: C_14  and  C_28
   14  A    between atoms: O_16  and  C_27
   15  A    between atoms: O_16  and  C_31
   16  A    between atoms: C_19  and  O_20
   17  A    between atoms: C_27  and  C_32
                            x       y       z     vdW  Elec       q    Type
                         _______ _______ _______ _____ _____    ______ ____

>  <TORSDO>
F 17

$$$$
=
 OpenBabel11052417033D

 32 32  0  0  1  0  0  0  0  0999 V2000
  185.4120  178.2130  142.0060 C   0  0  2  0  0  3  0  0  0  0  0  0
  184.3450  178.8320  141.0710 C   0  0  2  0  0  3  0  0  0  0  0  0
  180.7820  178.0330  141.2720 C   0  0  0  0  0  3  0  0  0  0  0  0
  182.0310  177.9650  140.9070 C   0  0  0  0  0  0  0  0  0  0  0  0
  183.2840  177.8970  140.5410 C   0  0  0  0  0  3  0  0  0  0  0  0
  180.3610  179.0280  142.2520 C   0  0  0  0  0  3  0  0  0  0  0  0
  180.9730  179.1060  143.4230 C   0  0  0  0  0  2  0  0  0  0  0  0
  184.8790  179.6660  140.0620 O   0  0  0  0  0  0  0  0  0  0  0  0
  184.7580  179.0120  138.8240 C   0  0  0  0  0  1  0  0  0  0  0  0
  184.9250  178.0750  143.4560 C   0  0  0  0  0  2  0  0  0  0  0  0
  186.0020  178.3690  144.5000 C   0  0  1  0  0  3  0  0  0  0  0  0
  185.5140  179.3040  145.4160 O   0  0  0  0  0  0  0  0  0  0  0  0
  184.8810  178.5420  146.3970 C   0  0  0  0  0  1  0  0  0  0  0  0
  186.3650  177.2020  145.1760 O   0  0  0  0  0  0  0  0  0  0  0  0
  187.7160  177.0230  144.8700 C   0  0  0  0  0  2  0  0  0  0  0  0
  190.0090  177.8720  145.2670 C   0  0  0  0  0  2  0  0  0  0  0  0
  188.6870  177.1690  147.1640 C   0  0  1  0  0  3  0  0  0  0  0  0
  190.1030  176.7270  147.2160 C   0  0  0  0  0  3  0  0  0  0  0  0
  190.7800  177.1070  146.2040 N   0  0  0  0  0  0  0  0  0  0  0  0
  188.4380  178.1850  148.2610 C   0  0  0  0  0  1  0  0  0  0  0  0
  188.5820  177.8520  145.8040 C   0  0  2  0  0  3  0  0  0  0  0  0
  186.7240  178.9840  141.9440 C   0  0  0  0  0  2  0  0  0  0  0  0
  187.5630  178.4230  140.9780 O   0  0  0  0  0  0  0  0  0  0  0  0
  188.3640  177.5220  141.6830 C   0  0  0  0  0  2  0  0  0  0  0  0
  189.5420  177.0960  140.8250 C   0  0  2  0  0  3  0  0  0  0  0  0
  190.8280  177.3280  141.5930 C   0  0  0  0  0  1  0  0  0  0  0  0
  189.5560  177.8680  139.5910 N   0  0  0  0  0  2  0  0  0  0  0  0
  189.7360  177.2660  138.3070 C   0  0  0  0  0  0  0  0  0  0  0  0
  189.8570  176.0150  138.2020 O   0  0  0  0  0  0  0  0  0  0  0  0
  189.7720  178.0810  137.1750 O   0  0  0  0  0  0  0  0  0  0  0  0
  188.8950  177.8770  136.0770 C   0  0  0  0  0  2  0  0  0  0  0  0
  187.4730  178.1650  136.5060 C   0  0  0  0  0  1  0  0  0  0  0  0
  1 22  1  1  0  0  0
  1 10  1  0  0  0  0
  2  5  1  6  0  0  0
  2  1  1  0  0  0  0
  3  6  1  0  0  0  0
  4  3  2  0  0  0  0
  5  4  2  0  0  0  0
  6  7  2  0  0  0  0
  8  2  1  0  0  0  0
  9  8  1  0  0  0  0
 11 10  1  6  0  0  0
 11 14  1  0  0  0  0
 11 12  1  0  0  0  0
 12 13  1  0  0  0  0
 15 14  1  0  0  0  0
 16 21  1  0  0  0  0
 16 19  1  0  0  0  0
 17 18  1  0  0  0  0
 17 20  1  1  0  0  0
 19 18  2  0  0  0  0
 21 15  1  6  0  0  0
 21 17  1  0  0  0  0
 23 24  1  0  0  0  0
 23 22  1  0  0  0  0
 25 26  1  1  0  0  0
 25 24  1  0  0  0  0
 27 25  1  0  0  0  0
 28 27  1  0  0  0  0
 29 28  2  0  0  0  0
 30 28  1  0  0  0  0
 31 32  1  0  0  0  0
 31 30  1  0  0  0  0
M  END
>  <MODEL>
5

>  <REMARK>
 VINA RESULT:      -6.2      2.391      4.164
  Name = 
  17 active torsions:
  status: ('A' for Active; 'I' for Inactive)
    1  A    between atoms: C_1  and  O_20
    2  A    between atoms: C_2  and  C_9
    3  A    between atoms: C_2  and  O_23
    4  A    between atoms: O_3  and  C_14
    5  A    between atoms: C_4  and  C_5
    6  A    between atoms: O_6  and  C_31
    7  A    between atoms: C_8  and  O_23
    8  A    between atoms: C_8  and  C_28
    9  A    between atoms: C_9  and  N_10
   10  A    between atoms: C_13  and  C_28
   11  A    between atoms: C_13  and  C_31
   12  A    between atoms: C_14  and  C_26
   13  A    between atoms: C_14  and  C_28
   14  A    between atoms: O_16  and  C_27
   15  A    between atoms: O_16  and  C_31
   16  A    between atoms: C_19  and  O_20
   17  A    between atoms: C_27  and  C_32
                            x       y       z     vdW  Elec       q    Type
                         _______ _______ _______ _____ _____    ______ ____

>  <TORSDO>
F 17

$$$$
=
 OpenBabel11052417033D

 32 32  0  0  1  0  0  0  0  0999 V2000
  185.8170  178.0950  142.9290 C   0  0  2  0  0  3  0  0  0  0  0  0
  186.7680  177.5430  144.0180 C   0  0  2  0  0  3  0  0  0  0  0  0
  188.2400  177.5770  147.3670 C   0  0  0  0  0  3  0  0  0  0  0  0
  187.4070  177.8250  146.3950 C   0  0  0  0  0  0  0  0  0  0  0  0
  186.5730  178.0720  145.4200 C   0  0  0  0  0  3  0  0  0  0  0  0
  189.4070  176.7360  147.1310 C   0  0  0  0  0  3  0  0  0  0  0  0
  190.3630  177.1420  146.3100 C   0  0  0  0  0  2  0  0  0  0  0  0
  188.1290  177.5220  143.6360 O   0  0  0  0  0  0  0  0  0  0  0  0
  188.4600  176.2240  143.2130 C   0  0  0  0  0  1  0  0  0  0  0  0
  186.5550  178.8930  141.8430 C   0  0  0  0  0  2  0  0  0  0  0  0
  186.0650  178.6030  140.4250 C   0  0  1  0  0  3  0  0  0  0  0  0
  185.0080  179.4610  140.1170 O   0  0  0  0  0  0  0  0  0  0  0  0
  184.0690  178.6540  139.4750 C   0  0  0  0  0  1  0  0  0  0  0  0
  187.0970  178.7880  139.5000 O   0  0  0  0  0  0  0  0  0  0  0  0
  188.2480  178.3640  140.1690 C   0  0  0  0  0  2  0  0  0  0  0  0
  190.2310  176.8950  139.9520 C   0  0  0  0  0  2  0  0  0  0  0  0
  188.7910  177.1920  138.0330 C   0  0  1  0  0  3  0  0  0  0  0  0
  190.2410  177.2260  137.7140 C   0  0  0  0  0  3  0  0  0  0  0  0
  190.9800  177.0700  138.7410 N   0  0  0  0  0  0  0  0  0  0  0  0
  188.1720  175.9510  137.4220 C   0  0  0  0  0  1  0  0  0  0  0  0
  188.7700  177.0760  139.5540 C   0  0  2  0  0  3  0  0  0  0  0  0
  184.6900  178.9200  143.5380 C   0  0  0  0  0  2  0  0  0  0  0  0
  183.4590  178.4900  143.0350 O   0  0  0  0  0  0  0  0  0  0  0  0
  182.5270  178.8690  144.0030 C   0  0  0  0  0  2  0  0  0  0  0  0
  181.1900  179.1640  143.3470 C   0  0  2  0  0  3  0  0  0  0  0  0
  180.1490  178.2010  143.8820 C   0  0  0  0  0  1  0  0  0  0  0  0
  181.3070  179.0150  141.9040 N   0  0  0  0  0  2  0  0  0  0  0  0
  180.6230  179.8670  140.9820 C   0  0  0  0  0  0  0  0  0  0  0  0
  179.9090  180.8180  141.4050 O   0  0  0  0  0  0  0  0  0  0  0  0
  180.7610  179.6350  139.6130 O   0  0  0  0  0  0  0  0  0  0  0  0
  179.7540  178.9770  138.8590 C   0  0  0  0  0  2  0  0  0  0  0  0
  180.0720  177.5000  138.7730 C   0  0  0  0  0  1  0  0  0  0  0  0
  1 10  1  6  0  0  0
  1 22  1  0  0  0  0
  1  2  1  0  0  0  0
  2  5  1  1  0  0  0
  4  3  2  0  0  0  0
  5  4  2  0  0  0  0
  6  3  1  0  0  0  0
  7  6  2  0  0  0  0
  8  2  1  0  0  0  0
  9  8  1  0  0  0  0
 11 10  1  1  0  0  0
 12 11  1  0  0  0  0
 13 12  1  0  0  0  0
 14 15  1  0  0  0  0
 14 11  1  0  0  0  0
 17 20  1  6  0  0  0
 17 21  1  0  0  0  0
 18 17  1  0  0  0  0
 18 19  2  0  0  0  0
 19 16  1  0  0  0  0
 21 16  1  0  0  0  0
 21 15  1  1  0  0  0
 23 22  1  0  0  0  0
 23 24  1  0  0  0  0
 25 26  1  1  0  0  0
 25 24  1  0  0  0  0
 27 25  1  0  0  0  0
 28 29  2  0  0  0  0
 28 27  1  0  0  0  0
 30 28  1  0  0  0  0
 31 30  1  0  0  0  0
 32 31  1  0  0  0  0
M  END
>  <MODEL>
6

>  <REMARK>
 VINA RESULT:      -6.1      3.117      6.937
  Name = 
  17 active torsions:
  status: ('A' for Active; 'I' for Inactive)
    1  A    between atoms: C_1  and  O_20
    2  A    between atoms: C_2  and  C_9
    3  A    between atoms: C_2  and  O_23
    4  A    between atoms: O_3  and  C_14
    5  A    between atoms: C_4  and  C_5
    6  A    between atoms: O_6  and  C_31
    7  A    between atoms: C_8  and  O_23
    8  A    between atoms: C_8  and  C_28
    9  A    between atoms: C_9  and  N_10
   10  A    between atoms: C_13  and  C_28
   11  A    between atoms: C_13  and  C_31
   12  A    between atoms: C_14  and  C_26
   13  A    between atoms: C_14  and  C_28
   14  A    between atoms: O_16  and  C_27
   15  A    between atoms: O_16  and  C_31
   16  A    between atoms: C_19  and  O_20
   17  A    between atoms: C_27  and  C_32
                            x       y       z     vdW  Elec       q    Type
                         _______ _______ _______ _____ _____    ______ ____

>  <TORSDO>
F 17

$$$$
=
 OpenBabel11052417033D

 32 32  0  0  1  0  0  0  0  0999 V2000
  189.3020  176.8840  143.0320 C   0  0  2  0  0  3  0  0  0  0  0  0
  190.4970  177.4810  143.8150 C   0  0  2  0  0  3  0  0  0  0  0  0
  189.7430  176.9530  147.3550 C   0  0  0  0  0  3  0  0  0  0  0  0
  190.3420  176.8400  146.2030 C   0  0  0  0  0  0  0  0  0  0  0  0
  190.9420  176.7290  145.0470 C   0  0  0  0  0  3  0  0  0  0  0  0
  188.6050  177.8530  147.5010 C   0  0  0  0  0  3  0  0  0  0  0  0
  187.9300  177.8890  148.6390 C   0  0  0  0  0  2  0  0  0  0  0  0
  190.3970  178.8730  144.0420 O   0  0  0  0  0  0  0  0  0  0  0  0
  191.6830  179.4350  143.9750 C   0  0  0  0  0  1  0  0  0  0  0  0
  189.6940  176.4000  141.6270 C   0  0  0  0  0  2  0  0  0  0  0  0
  189.8310  177.5260  140.6020 C   0  0  1  0  0  3  0  0  0  0  0  0
  190.9720  177.3080  139.8280 O   0  0  0  0  0  0  0  0  0  0  0  0
  192.0390  177.5020  140.7050 C   0  0  0  0  0  1  0  0  0  0  0  0
  188.7080  177.5740  139.7710 O   0  0  0  0  0  0  0  0  0  0  0  0
  189.0580  178.4710  138.7590 C   0  0  0  0  0  2  0  0  0  0  0  0
  187.4450  178.6420  136.8870 C   0  0  0  0  0  2  0  0  0  0  0  0
  188.2340  176.4530  137.5430 C   0  0  1  0  0  3  0  0  0  0  0  0
  186.7780  176.5120  137.2570 C   0  0  0  0  0  3  0  0  0  0  0  0
  186.3840  177.6760  136.9150 N   0  0  0  0  0  0  0  0  0  0  0  0
  188.9190  175.6090  136.4870 C   0  0  0  0  0  1  0  0  0  0  0  0
  188.6780  177.9050  137.4010 C   0  0  2  0  0  3  0  0  0  0  0  0
  188.1350  177.8600  142.9640 C   0  0  0  0  0  2  0  0  0  0  0  0
  187.3740  177.7760  144.1330 O   0  0  0  0  0  0  0  0  0  0  0  0
  186.0810  177.4810  143.6960 C   0  0  0  0  0  2  0  0  0  0  0  0
  185.2660  178.7570  143.5920 C   0  0  2  0  0  3  0  0  0  0  0  0
  184.5580  179.0060  144.9100 C   0  0  0  0  0  1  0  0  0  0  0  0
  184.2880  178.6300  142.5210 N   0  0  0  0  0  2  0  0  0  0  0  0
  184.5710  179.0020  141.1710 C   0  0  0  0  0  0  0  0  0  0  0  0
  185.7160  179.4280  140.8550 O   0  0  0  0  0  0  0  0  0  0  0  0
  183.5670  178.8820  140.2090 O   0  0  0  0  0  0  0  0  0  0  0  0
  183.5440  177.8070  139.2810 C   0  0  0  0  0  2  0  0  0  0  0  0
  182.6900  176.6850  139.8300 C   0  0  0  0  0  1  0  0  0  0  0  0
  1 10  1  6  0  0  0
  1  2  1  0  0  0  0
  2  8  1  0  0  0  0
  2  5  1  1  0  0  0
  3  6  1  0  0  0  0
  4  3  2  0  0  0  0
  5  4  2  0  0  0  0
  6  7  2  0  0  0  0
  9  8  1  0  0  0  0
 11 10  1  1  0  0  0
 12 11  1  0  0  0  0
 12 13  1  0  0  0  0
 14 11  1  0  0  0  0
 15 14  1  0  0  0  0
 16 19  1  0  0  0  0
 16 21  1  0  0  0  0
 17 20  1  6  0  0  0
 18 17  1  0  0  0  0
 19 18  2  0  0  0  0
 21 17  1  0  0  0  0
 21 15  1  1  0  0  0
 22  1  1  0  0  0  0
 22 23  1  0  0  0  0
 24 23  1  0  0  0  0
 25 24  1  0  0  0  0
 25 26  1  1  0  0  0
 27 25  1  0  0  0  0
 28 27  1  0  0  0  0
 29 28  2  0  0  0  0
 30 28  1  0  0  0  0
 31 32  1  0  0  0  0
 31 30  1  0  0  0  0
M  END
>  <MODEL>
7

>  <REMARK>
 VINA RESULT:      -5.9      2.585      6.675
  Name = 
  17 active torsions:
  status: ('A' for Active; 'I' for Inactive)
    1  A    between atoms: C_1  and  O_20
    2  A    between atoms: C_2  and  C_9
    3  A    between atoms: C_2  and  O_23
    4  A    between atoms: O_3  and  C_14
    5  A    between atoms: C_4  and  C_5
    6  A    between atoms: O_6  and  C_31
    7  A    between atoms: C_8  and  O_23
    8  A    between atoms: C_8  and  C_28
    9  A    between atoms: C_9  and  N_10
   10  A    between atoms: C_13  and  C_28
   11  A    between atoms: C_13  and  C_31
   12  A    between atoms: C_14  and  C_26
   13  A    between atoms: C_14  and  C_28
   14  A    between atoms: O_16  and  C_27
   15  A    between atoms: O_16  and  C_31
   16  A    between atoms: C_19  and  O_20
   17  A    between atoms: C_27  and  C_32
                            x       y       z     vdW  Elec       q    Type
                         _______ _______ _______ _____ _____    ______ ____

>  <TORSDO>
F 17

$$$$
=
 OpenBabel11052417033D

 32 32  0  0  1  0  0  0  0  0999 V2000
  185.0960  178.4300  141.6220 C   0  0  2  0  0  3  0  0  0  0  0  0
  184.0260  179.0300  140.6790 C   0  0  2  0  0  3  0  0  0  0  0  0
  180.3760  179.0480  140.4470 C   0  0  0  0  0  3  0  0  0  0  0  0
  181.6000  178.6040  140.4100 C   0  0  0  0  0  0  0  0  0  0  0  0
  182.8290  178.1600  140.3730 C   0  0  0  0  0  3  0  0  0  0  0  0
  180.1120  180.4330  140.8200 C   0  0  0  0  0  3  0  0  0  0  0  0
  179.1900  180.7120  141.7270 C   0  0  0  0  0  2  0  0  0  0  0  0
  184.5570  179.6400  139.5200 O   0  0  0  0  0  0  0  0  0  0  0  0
  184.7490  178.6540  138.5380 C   0  0  0  0  0  1  0  0  0  0  0  0
  184.5280  178.0350  142.9940 C   0  0  0  0  0  2  0  0  0  0  0  0
  184.4710  179.1900  143.9930 C   0  0  1  0  0  3  0  0  0  0  0  0
  183.2970  179.9190  143.7890 O   0  0  0  0  0  0  0  0  0  0  0  0
  182.2680  179.0060  144.0180 C   0  0  0  0  0  1  0  0  0  0  0  0
  184.4960  178.7080  145.3050 O   0  0  0  0  0  0  0  0  0  0  0  0
  185.7830  178.9990  145.7620 C   0  0  0  0  0  2  0  0  0  0  0  0
  187.1740  177.6590  147.3140 C   0  0  0  0  0  2  0  0  0  0  0  0
  187.8060  177.7620  144.9840 C   0  0  1  0  0  3  0  0  0  0  0  0
  188.9470  177.8790  145.9270 C   0  0  0  0  0  3  0  0  0  0  0  0
  188.5890  177.8250  147.1500 N   0  0  0  0  0  0  0  0  0  0  0  0
  187.9130  176.4520  144.2270 C   0  0  0  0  0  1  0  0  0  0  0  0
  186.5920  177.7200  145.9060 C   0  0  2  0  0  3  0  0  0  0  0  0
  186.2910  179.3630  141.7770 C   0  0  0  0  0  2  0  0  0  0  0  0
  187.4730  178.6200  141.8290 O   0  0  0  0  0  0  0  0  0  0  0  0
  187.8180  178.4050  140.4930 C   0  0  0  0  0  2  0  0  0  0  0  0
  189.2770  177.9980  140.3940 C   0  0  2  0  0  3  0  0  0  0  0  0
  189.3870  176.7340  139.5650 C   0  0  0  0  0  1  0  0  0  0  0  0
  189.8140  177.7650  141.7270 N   0  0  0  0  0  2  0  0  0  0  0  0
  191.2000  177.5130  141.9670 C   0  0  0  0  0  0  0  0  0  0  0  0
  192.0230  177.5200  141.0100 O   0  0  0  0  0  0  0  0  0  0  0  0
  191.6290  177.2640  143.2710 O   0  0  0  0  0  0  0  0  0  0  0  0
  191.6560  175.9530  143.8140 C   0  0  0  0  0  2  0  0  0  0  0  0
  191.6790  176.0320  145.3250 C   0  0  0  0  0  1  0  0  0  0  0  0
  1 22  1  1  0  0  0
  1 10  1  0  0  0  0
  2  5  1  6  0  0  0
  2  1  1  0  0  0  0
  3  6  1  0  0  0  0
  4  3  2  0  0  0  0
  5  4  2  0  0  0  0
  6  7  2  0  0  0  0
  8  2  1  0  0  0  0
  9  8  1  0  0  0  0
 11 10  1  6  0  0  0
 11 14  1  0  0  0  0
 12 11  1  0  0  0  0
 12 13  1  0  0  0  0
 14 15  1  0  0  0  0
 17 20  1  1  0  0  0
 17 21  1  0  0  0  0
 17 18  1  0  0  0  0
 18 19  2  0  0  0  0
 19 16  1  0  0  0  0
 21 15  1  1  0  0  0
 21 16  1  0  0  0  0
 22 23  1  0  0  0  0
 24 23  1  0  0  0  0
 25 26  1  6  0  0  0
 25 24  1  0  0  0  0
 25 27  1  0  0  0  0
 27 28  1  0  0  0  0
 28 30  1  0  0  0  0
 29 28  2  0  0  0  0
 30 31  1  0  0  0  0
 31 32  1  0  0  0  0
M  END
>  <MODEL>
8

>  <REMARK>
 VINA RESULT:      -5.8      3.100      5.786
  Name = 
  17 active torsions:
  status: ('A' for Active; 'I' for Inactive)
    1  A    between atoms: C_1  and  O_20
    2  A    between atoms: C_2  and  C_9
    3  A    between atoms: C_2  and  O_23
    4  A    between atoms: O_3  and  C_14
    5  A    between atoms: C_4  and  C_5
    6  A    between atoms: O_6  and  C_31
    7  A    between atoms: C_8  and  O_23
    8  A    between atoms: C_8  and  C_28
    9  A    between atoms: C_9  and  N_10
   10  A    between atoms: C_13  and  C_28
   11  A    between atoms: C_13  and  C_31
   12  A    between atoms: C_14  and  C_26
   13  A    between atoms: C_14  and  C_28
   14  A    between atoms: O_16  and  C_27
   15  A    between atoms: O_16  and  C_31
   16  A    between atoms: C_19  and  O_20
   17  A    between atoms: C_27  and  C_32
                            x       y       z     vdW  Elec       q    Type
                         _______ _______ _______ _____ _____    ______ ____

>  <TORSDO>
F 17

$$$$
=
 OpenBabel11052417033D

 32 32  0  0  1  0  0  0  0  0999 V2000
  188.1970  177.3770  142.4760 C   0  0  2  0  0  3  0  0  0  0  0  0
  188.1680  177.6310  144.0030 C   0  0  2  0  0  3  0  0  0  0  0  0
  189.5460  177.0510  147.3410 C   0  0  0  0  0  3  0  0  0  0  0  0
  189.5020  177.2190  146.0490 C   0  0  0  0  0  0  0  0  0  0  0  0
  189.4560  177.3870  144.7540 C   0  0  0  0  0  3  0  0  0  0  0  0
  188.3210  177.1190  148.1280 C   0  0  0  0  0  3  0  0  0  0  0  0
  187.7960  178.2940  148.4380 C   0  0  0  0  0  2  0  0  0  0  0  0
  187.0490  177.0670  144.6580 O   0  0  0  0  0  0  0  0  0  0  0  0
  186.1620  178.0990  145.0070 C   0  0  0  0  0  1  0  0  0  0  0  0
  189.5420  176.8160  141.9910 C   0  0  0  0  0  2  0  0  0  0  0  0
  190.0740  177.4950  140.7290 C   0  0  1  0  0  3  0  0  0  0  0  0
  191.4700  177.4990  140.7620 O   0  0  0  0  0  0  0  0  0  0  0  0
  191.7960  177.2450  142.0940 C   0  0  0  0  0  1  0  0  0  0  0  0
  189.6390  176.8200  139.5860 O   0  0  0  0  0  0  0  0  0  0  0  0
  190.3590  177.4000  138.5390 C   0  0  0  0  0  2  0  0  0  0  0  0
  189.0550  178.9870  137.1540 C   0  0  0  0  0  2  0  0  0  0  0  0
  188.1780  176.7630  137.5060 C   0  0  1  0  0  3  0  0  0  0  0  0
  187.1600  177.8390  137.6080 C   0  0  0  0  0  3  0  0  0  0  0  0
  187.6450  179.0030  137.4210 N   0  0  0  0  0  0  0  0  0  0  0  0
  187.8940  175.9180  136.2800 C   0  0  0  0  0  1  0  0  0  0  0  0
  189.4800  177.5300  137.3050 C   0  0  2  0  0  3  0  0  0  0  0  0
  187.8160  178.6290  141.6950 C   0  0  0  0  0  2  0  0  0  0  0  0
  186.7230  178.3610  140.8680 O   0  0  0  0  0  0  0  0  0  0  0  0
  185.6490  179.0170  141.4730 C   0  0  0  0  0  2  0  0  0  0  0  0
  184.3540  178.6460  140.7740 C   0  0  2  0  0  3  0  0  0  0  0  0
  184.2720  179.3820  139.4520 C   0  0  0  0  0  1  0  0  0  0  0  0
  183.2210  179.0070  141.6140 N   0  0  0  0  0  2  0  0  0  0  0  0
  181.9090  178.4780  141.4090 C   0  0  0  0  0  0  0  0  0  0  0  0
  181.6990  177.6350  140.4940 O   0  0  0  0  0  0  0  0  0  0  0  0
  180.8690  178.9020  142.2370 O   0  0  0  0  0  0  0  0  0  0  0  0
  179.5960  179.2550  141.7180 C   0  0  0  0  0  2  0  0  0  0  0  0
  179.3440  180.7280  141.9590 C   0  0  0  0  0  1  0  0  0  0  0  0
  1 22  1  6  0  0  0
  1  2  1  0  0  0  0
  2  8  1  0  0  0  0
  2  5  1  1  0  0  0
  3  6  1  0  0  0  0
  4  3  2  0  0  0  0
  5  4  2  0  0  0  0
  6  7  2  0  0  0  0
  8  9  1  0  0  0  0
 10  1  1  0  0  0  0
 11 12  1  0  0  0  0
 11 10  1  1  0  0  0
 12 13  1  0  0  0  0
 14 11  1  0  0  0  0
 15 14  1  0  0  0  0
 16 21  1  0  0  0  0
 16 19  1  0  0  0  0
 17 20  1  6  0  0  0
 17 18  1  0  0  0  0
 19 18  2  0  0  0  0
 21 17  1  0  0  0  0
 21 15  1  1  0  0  0
 23 24  1  0  0  0  0
 23 22  1  0  0  0  0
 25 26  1  6  0  0  0
 25 24  1  0  0  0  0
 25 27  1  0  0  0  0
 28 27  1  0  0  0  0
 28 30  1  0  0  0  0
 29 28  2  0  0  0  0
 31 32  1  0  0  0  0
 31 30  1  0  0  0  0
M  END
>  <MODEL>
9

>  <REMARK>
 VINA RESULT:      -5.8      2.783      6.543
  Name = 
  17 active torsions:
  status: ('A' for Active; 'I' for Inactive)
    1  A    between atoms: C_1  and  O_20
    2  A    between atoms: C_2  and  C_9
    3  A    between atoms: C_2  and  O_23
    4  A    between atoms: O_3  and  C_14
    5  A    between atoms: C_4  and  C_5
    6  A    between atoms: O_6  and  C_31
    7  A    between atoms: C_8  and  O_23
    8  A    between atoms: C_8  and  C_28
    9  A    between atoms: C_9  and  N_10
   10  A    between atoms: C_13  and  C_28
   11  A    between atoms: C_13  and  C_31
   12  A    between atoms: C_14  and  C_26
   13  A    between atoms: C_14  and  C_28
   14  A    between atoms: O_16  and  C_27
   15  A    between atoms: O_16  and  C_31
   16  A    between atoms: C_19  and  O_20
   17  A    between atoms: C_27  and  C_32
                            x       y       z     vdW  Elec       q    Type
                         _______ _______ _______ _____ _____    ______ ____

>  <TORSDO>
F 17

$$$$
