=
 OpenBabel11052413173D

 31 34  0  0  1  0  0  0  0  0999 V2000
  188.4730  177.7430  143.9290 C   0  0  0  0  0  0  0  0  0  0  0  0
  189.0730  177.3960  145.1560 C   0  0  0  0  0  0  0  0  0  0  0  0
  188.9460  177.0280  147.4920 C   0  0  0  0  0  3  0  0  0  0  0  0
  187.0420  178.0760  143.7960 C   0  0  0  0  0  0  0  0  0  0  0  0
  184.9280  178.5370  144.0180 C   0  0  0  0  0  0  0  0  0  0  0  0
  188.3570  177.3590  146.3130 N   0  0  0  0  0  2  0  0  0  0  0  0
  188.6680  178.2300  141.4220 C   0  0  1  0  0  3  0  0  0  0  0  0
  191.1790  177.1160  144.0350 N   0  0  0  0  0  0  0  0  0  0  0  0
  190.2700  176.7210  147.5320 N   0  0  0  0  0  0  0  0  0  0  0  0
  187.1500  177.9830  141.2810 C   0  0  0  0  0  2  0  0  0  0  0  0
  189.2550  177.7500  142.7470 C   0  0  0  0  0  0  0  0  0  0  0  0
  186.0760  178.2860  144.7640 C   0  0  0  0  0  3  0  0  0  0  0  0
  192.2540  176.4380  146.4730 O   0  0  0  0  0  0  0  0  0  0  0  0
  186.4400  178.2110  142.5750 C   0  0  0  0  0  0  0  0  0  0  0  0
  185.1700  178.4790  142.7250 O   0  0  0  0  0  0  0  0  0  0  0  0
  190.6210  177.4500  142.8420 C   0  0  0  0  0  3  0  0  0  0  0  0
  190.4450  177.0770  145.1800 C   0  0  0  0  0  0  0  0  0  0  0  0
  191.0300  176.7360  146.4060 C   0  0  0  0  0  0  0  0  0  0  0  0
  189.6100  177.7410  136.4930 C   0  0  0  0  0  1  0  0  0  0  0  0
  188.4390  179.0330  138.6910 O   0  0  0  0  0  0  0  0  0  0  0  0
  189.1820  178.0460  138.9440 C   0  0  0  0  0  0  0  0  0  0  0  0
  189.8510  177.3560  137.8780 N   0  0  0  0  0  0  0  0  0  0  0  0
  189.3630  177.6160  140.2970 N   0  0  0  0  0  2  0  0  0  0  0  0
  192.0130  176.6530  138.8000 C   0  0  0  0  0  1  0  0  0  0  0  0
  190.6990  176.2060  138.1760 C   0  0  2  0  0  3  0  0  0  0  0  0
  190.9350  175.4530  136.9910 O   0  0  0  0  0  0  0  0  0  0  0  0
  190.8100  174.0620  136.9520 C   0  0  0  0  0  0  0  0  0  0  0  0
  189.8070  173.4890  137.4560 O   0  0  0  0  0  0  0  0  0  0  0  0
  191.8750  173.2450  136.3050 C   0  0  0  0  0  1  0  0  0  0  0  0
  183.6060  178.8260  144.5730 C   0  0  0  0  0  3  0  0  0  0  0  0
  183.4530  179.0060  145.8110 O   0  0  0  0  0  0  0  0  0  0  0  0
  1  2  1  0  0  0  0
  2 17  2  0  0  0  0
  2  6  1  0  0  0  0
  3  9  2  0  0  0  0
  4  1  1  0  0  0  0
  4 12  1  0  0  0  0
  5 30  1  0  0  0  0
  5 12  2  0  0  0  0
  6  3  1  0  0  0  0
  7 23  1  6  0  0  0
  7 11  1  0  0  0  0
  8 17  1  0  0  0  0
 10  7  1  0  0  0  0
 10 14  1  0  0  0  0
 11 16  1  0  0  0  0
 11  1  2  0  0  0  0
 14 15  1  0  0  0  0
 14  4  2  0  0  0  0
 15  5  1  0  0  0  0
 16  8  2  0  0  0  0
 17 18  1  0  0  0  0
 18 13  2  0  0  0  0
 18  9  1  0  0  0  0
 19 22  1  0  0  0  0
 20 21  2  0  0  0  0
 21 23  1  0  0  0  0
 22 25  1  0  0  0  0
 22 21  1  0  0  0  0
 25 24  1  6  0  0  0
 26 25  1  0  0  0  0
 27 26  1  0  0  0  0
 27 28  2  0  0  0  0
 29 27  1  0  0  0  0
 30 31  2  0  0  0  0
M  END
>  <MODEL>
1

>  <REMARK>
 VINA RESULT:      -9.2      0.000      0.000
  Name = 
  5 active torsions:
  status: ('A' for Active; 'I' for Inactive)
    1  A    between atoms: C_1  and  O_24
    2  A    between atoms: C_2  and  C_13
    3  A    between atoms: C_15  and  N_23
    4  A    between atoms: C_19  and  N_22
    5  A    between atoms: C_19  and  O_24
                            x       y       z     vdW  Elec       q    Type
                         _______ _______ _______ _____ _____    ______ ____

>  <TORSDO>
F 5

$$$$
=
 OpenBabel11052413173D

 31 34  0  0  1  0  0  0  0  0999 V2000
  188.2580  177.4840  144.9050 C   0  0  0  0  0  0  0  0  0  0  0  0
  187.1770  177.9590  145.6740 C   0  0  0  0  0  0  0  0  0  0  0  0
  186.2140  178.5360  147.7590 C   0  0  0  0  0  3  0  0  0  0  0  0
  189.5560  177.0990  145.4900 C   0  0  0  0  0  0  0  0  0  0  0  0
  191.2800  176.6000  146.7190 C   0  0  0  0  0  0  0  0  0  0  0  0
  187.2640  178.0810  147.0260 N   0  0  0  0  0  2  0  0  0  0  0  0
  189.2330  176.7740  142.6450 C   0  0  1  0  0  3  0  0  0  0  0  0
  185.8720  178.1950  143.6710 N   0  0  0  0  0  0  0  0  0  0  0  0
  185.0520  178.8830  147.1450 N   0  0  0  0  0  0  0  0  0  0  0  0
  190.6510  176.9640  143.2260 C   0  0  0  0  0  2  0  0  0  0  0  0
  188.1260  177.3910  143.4980 C   0  0  0  0  0  0  0  0  0  0  0  0
  189.9360  176.9500  146.8120 C   0  0  0  0  0  3  0  0  0  0  0  0
  183.8250  179.1240  145.2550 O   0  0  0  0  0  0  0  0  0  0  0  0
  190.6520  176.8350  144.7130 C   0  0  0  0  0  0  0  0  0  0  0  0
  191.6800  176.5460  145.4670 O   0  0  0  0  0  0  0  0  0  0  0  0
  186.9010  177.7370  142.9120 C   0  0  0  0  0  3  0  0  0  0  0  0
  185.9800  178.3180  145.0220 C   0  0  0  0  0  0  0  0  0  0  0  0
  184.9120  178.7870  145.7970 C   0  0  0  0  0  0  0  0  0  0  0  0
  190.9140  176.9940  137.8970 C   0  0  0  0  0  1  0  0  0  0  0  0
  190.8320  175.8610  140.4630 O   0  0  0  0  0  0  0  0  0  0  0  0
  190.0440  176.8210  140.2410 C   0  0  0  0  0  0  0  0  0  0  0  0
  189.9960  177.4290  138.9430 N   0  0  0  0  0  0  0  0  0  0  0  0
  189.1940  177.3020  141.2870 N   0  0  0  0  0  2  0  0  0  0  0  0
  187.6660  178.1820  139.0800 C   0  0  0  0  0  1  0  0  0  0  0  0
  189.0920  178.5480  138.6970 C   0  0  2  0  0  3  0  0  0  0  0  0
  189.1610  178.9410  137.3300 O   0  0  0  0  0  0  0  0  0  0  0  0
  188.0510  178.8990  136.4830 C   0  0  0  0  0  0  0  0  0  0  0  0
  187.1800  179.8090  136.5130 O   0  0  0  0  0  0  0  0  0  0  0  0
  187.8950  177.7640  135.5300 C   0  0  0  0  0  1  0  0  0  0  0  0
  192.1610  176.3240  147.8540 C   0  0  0  0  0  3  0  0  0  0  0  0
  193.0830  175.4710  147.7610 O   0  0  0  0  0  0  0  0  0  0  0  0
  1  4  1  0  0  0  0
  1  2  1  0  0  0  0
  2  6  1  0  0  0  0
  4 12  1  0  0  0  0
  5 12  2  0  0  0  0
  5 30  1  0  0  0  0
  6  3  1  0  0  0  0
  7 23  1  6  0  0  0
  7 10  1  0  0  0  0
  7 11  1  0  0  0  0
  8 17  1  0  0  0  0
  9  3  2  0  0  0  0
 10 14  1  0  0  0  0
 11  1  2  0  0  0  0
 13 18  2  0  0  0  0
 14 15  1  0  0  0  0
 14  4  2  0  0  0  0
 15  5  1  0  0  0  0
 16 11  1  0  0  0  0
 16  8  2  0  0  0  0
 17  2  2  0  0  0  0
 17 18  1  0  0  0  0
 18  9  1  0  0  0  0
 19 22  1  0  0  0  0
 21 20  2  0  0  0  0
 21 23  1  0  0  0  0
 22 21  1  0  0  0  0
 25 22  1  0  0  0  0
 25 24  1  6  0  0  0
 26 25  1  0  0  0  0
 27 28  2  0  0  0  0
 27 26  1  0  0  0  0
 29 27  1  0  0  0  0
 31 30  2  0  0  0  0
M  END
>  <MODEL>
2

>  <REMARK>
 VINA RESULT:      -9.1      1.965      5.108
  Name = 
  5 active torsions:
  status: ('A' for Active; 'I' for Inactive)
    1  A    between atoms: C_1  and  O_24
    2  A    between atoms: C_2  and  C_13
    3  A    between atoms: C_15  and  N_23
    4  A    between atoms: C_19  and  N_22
    5  A    between atoms: C_19  and  O_24
                            x       y       z     vdW  Elec       q    Type
                         _______ _______ _______ _____ _____    ______ ____

>  <TORSDO>
F 5

$$$$
=
 OpenBabel11052413173D

 31 34  0  0  1  0  0  0  0  0999 V2000
  187.4930  178.0660  142.7140 C   0  0  0  0  0  0  0  0  0  0  0  0
  188.4950  177.7820  141.7640 C   0  0  0  0  0  0  0  0  0  0  0  0
  190.6470  176.9680  141.2050 C   0  0  0  0  0  3  0  0  0  0  0  0
  187.6440  177.7840  144.1550 C   0  0  0  0  0  0  0  0  0  0  0  0
  188.2580  177.2630  146.1750 C   0  0  0  0  0  0  0  0  0  0  0  0
  189.6860  177.2330  142.1280 N   0  0  0  0  0  0  0  0  0  0  0  0
  185.2000  179.0470  143.2960 C   0  0  1  0  0  3  0  0  0  0  0  0
  187.0700  178.6280  140.0260 N   0  0  0  0  0  0  0  0  0  0  0  0
  190.4290  177.2440  139.8930 N   0  0  0  0  0  2  0  0  0  0  0  0
  185.2020  178.2150  144.5980 C   0  0  0  0  0  2  0  0  0  0  0  0
  186.2620  178.6210  142.2860 C   0  0  0  0  0  0  0  0  0  0  0  0
  188.7530  177.3850  144.8800 C   0  0  0  0  0  3  0  0  0  0  0  0
  189.0790  178.0250  138.2480 O   0  0  0  0  0  0  0  0  0  0  0  0
  186.5930  177.8780  145.0260 C   0  0  0  0  0  0  0  0  0  0  0  0
  186.9760  177.5540  146.2320 O   0  0  0  0  0  0  0  0  0  0  0  0
  186.0920  178.9110  140.9250 C   0  0  0  0  0  3  0  0  0  0  0  0
  188.2520  178.0720  140.4070 C   0  0  0  0  0  0  0  0  0  0  0  0
  189.2560  177.7870  139.4730 C   0  0  0  0  0  0  0  0  0  0  0  0
  180.1790  178.7190  143.6110 C   0  0  0  0  0  1  0  0  0  0  0  0
  182.7340  179.0030  144.7350 O   0  0  0  0  0  0  0  0  0  0  0  0
  182.6710  178.9520  143.4760 C   0  0  0  0  0  0  0  0  0  0  0  0
  181.3980  178.8480  142.8220 N   0  0  0  0  0  0  0  0  0  0  0  0
  183.8710  179.0030  142.6990 N   0  0  0  0  0  2  0  0  0  0  0  0
  180.3780  179.8260  140.8170 C   0  0  0  0  0  1  0  0  0  0  0  0
  181.3330  178.7770  141.3660 C   0  0  2  0  0  3  0  0  0  0  0  0
  180.9350  177.4720  140.9580 O   0  0  0  0  0  0  0  0  0  0  0  0
  181.6460  176.7360  140.0070 C   0  0  0  0  0  0  0  0  0  0  0  0
  181.1200  175.7450  139.4320 O   0  0  0  0  0  0  0  0  0  0  0  0
  183.0430  177.1260  139.6680 C   0  0  0  0  0  1  0  0  0  0  0  0
  189.0410  176.8600  147.3430 C   0  0  0  0  0  3  0  0  0  0  0  0
  190.2940  176.7500  147.2720 O   0  0  0  0  0  0  0  0  0  0  0  0
  1  4  1  0  0  0  0
  2  6  1  0  0  0  0
  2  1  2  0  0  0  0
  3  6  2  0  0  0  0
  4 12  1  0  0  0  0
  4 14  2  0  0  0  0
  5 15  1  0  0  0  0
  5 30  1  0  0  0  0
  7 23  1  6  0  0  0
  7 10  1  0  0  0  0
  8 17  2  0  0  0  0
  8 16  1  0  0  0  0
  9  3  1  0  0  0  0
 10 14  1  0  0  0  0
 11  1  1  0  0  0  0
 11  7  1  0  0  0  0
 12  5  2  0  0  0  0
 13 18  2  0  0  0  0
 14 15  1  0  0  0  0
 16 11  2  0  0  0  0
 17  2  1  0  0  0  0
 18  9  1  0  0  0  0
 18 17  1  0  0  0  0
 21 20  2  0  0  0  0
 22 21  1  0  0  0  0
 22 19  1  0  0  0  0
 23 21  1  0  0  0  0
 25 24  1  1  0  0  0
 25 22  1  0  0  0  0
 26 25  1  0  0  0  0
 27 26  1  0  0  0  0
 28 27  2  0  0  0  0
 29 27  1  0  0  0  0
 31 30  2  0  0  0  0
M  END
>  <MODEL>
3

>  <REMARK>
 VINA RESULT:      -8.7      3.149      7.217
  Name = 
  5 active torsions:
  status: ('A' for Active; 'I' for Inactive)
    1  A    between atoms: C_1  and  O_24
    2  A    between atoms: C_2  and  C_13
    3  A    between atoms: C_15  and  N_23
    4  A    between atoms: C_19  and  N_22
    5  A    between atoms: C_19  and  O_24
                            x       y       z     vdW  Elec       q    Type
                         _______ _______ _______ _____ _____    ______ ____

>  <TORSDO>
F 5

$$$$
=
 OpenBabel11052413173D

 31 34  0  0  1  0  0  0  0  0999 V2000
  186.5230  177.9090  142.0940 C   0  0  0  0  0  0  0  0  0  0  0  0
  186.8060  178.1580  140.7360 C   0  0  0  0  0  0  0  0  0  0  0  0
  186.1760  178.9850  138.6080 C   0  0  0  0  0  3  0  0  0  0  0  0
  185.2450  178.2760  142.7330 C   0  0  0  0  0  0  0  0  0  0  0  0
  183.2450  178.9270  143.2870 C   0  0  0  0  0  0  0  0  0  0  0  0
  185.8960  178.7530  139.9170 N   0  0  0  0  0  0  0  0  0  0  0  0
  187.1980  176.9140  144.3550 C   0  0  1  0  0  3  0  0  0  0  0  0
  188.9820  177.1830  141.0210 N   0  0  0  0  0  0  0  0  0  0  0  0
  187.3830  178.6280  138.0940 N   0  0  0  0  0  2  0  0  0  0  0  0
  186.1500  177.8200  145.0380 C   0  0  0  0  0  2  0  0  0  0  0  0
  187.5080  177.3040  142.9120 C   0  0  0  0  0  0  0  0  0  0  0  0
  184.0650  178.7410  142.1790 C   0  0  0  0  0  3  0  0  0  0  0  0
  189.4440  177.7250  138.3660 O   0  0  0  0  0  0  0  0  0  0  0  0
  185.0670  178.2110  144.0880 C   0  0  0  0  0  0  0  0  0  0  0  0
  183.8650  178.6120  144.4050 O   0  0  0  0  0  0  0  0  0  0  0  0
  188.7290  176.9310  142.3330 C   0  0  0  0  0  3  0  0  0  0  0  0
  188.0620  177.7850  140.2190 C   0  0  0  0  0  0  0  0  0  0  0  0
  188.3310  178.0370  138.8690 C   0  0  0  0  0  0  0  0  0  0  0  0
  189.8630  178.1860  148.4430 C   0  0  0  0  0  1  0  0  0  0  0  0
  187.4810  178.0370  146.9660 O   0  0  0  0  0  0  0  0  0  0  0  0
  188.5020  177.5040  146.4510 C   0  0  0  0  0  0  0  0  0  0  0  0
  189.7490  177.5010  147.1610 N   0  0  0  0  0  0  0  0  0  0  0  0
  188.4150  176.8950  145.1590 N   0  0  0  0  0  2  0  0  0  0  0  0
  191.7880  176.2130  147.6090 C   0  0  0  0  0  1  0  0  0  0  0  0
  190.9290  176.8930  146.5540 C   0  0  2  0  0  3  0  0  0  0  0  0
  191.6800  177.8790  145.8520 O   0  0  0  0  0  0  0  0  0  0  0  0
  191.5500  178.0800  144.4770 C   0  0  0  0  0  0  0  0  0  0  0  0
  191.8770  177.1780  143.6580 O   0  0  0  0  0  0  0  0  0  0  0  0
  191.0190  179.3760  143.9690 C   0  0  0  0  0  1  0  0  0  0  0  0
  181.8650  179.4130  143.2450 C   0  0  0  0  0  3  0  0  0  0  0  0
  181.1760  179.3020  142.1970 O   0  0  0  0  0  0  0  0  0  0  0  0
  1  4  1  0  0  0  0
  1 11  1  0  0  0  0
  2  1  2  0  0  0  0
  3  6  2  0  0  0  0
  4 14  2  0  0  0  0
  5 15  1  0  0  0  0
  6  2  1  0  0  0  0
  7 10  1  0  0  0  0
  7 23  1  1  0  0  0
  8 16  1  0  0  0  0
  9  3  1  0  0  0  0
  9 18  1  0  0  0  0
 11  7  1  0  0  0  0
 12  4  1  0  0  0  0
 12  5  2  0  0  0  0
 13 18  2  0  0  0  0
 14 15  1  0  0  0  0
 14 10  1  0  0  0  0
 16 11  2  0  0  0  0
 17  2  1  0  0  0  0
 17  8  2  0  0  0  0
 18 17  1  0  0  0  0
 21 20  2  0  0  0  0
 21 22  1  0  0  0  0
 22 19  1  0  0  0  0
 23 21  1  0  0  0  0
 25 22  1  0  0  0  0
 25 24  1  1  0  0  0
 26 25  1  0  0  0  0
 27 26  1  0  0  0  0
 28 27  2  0  0  0  0
 29 27  1  0  0  0  0
 30  5  1  0  0  0  0
 31 30  2  0  0  0  0
M  END
>  <MODEL>
4

>  <REMARK>
 VINA RESULT:      -8.2      2.417      6.688
  Name = 
  5 active torsions:
  status: ('A' for Active; 'I' for Inactive)
    1  A    between atoms: C_1  and  O_24
    2  A    between atoms: C_2  and  C_13
    3  A    between atoms: C_15  and  N_23
    4  A    between atoms: C_19  and  N_22
    5  A    between atoms: C_19  and  O_24
                            x       y       z     vdW  Elec       q    Type
                         _______ _______ _______ _____ _____    ______ ____

>  <TORSDO>
F 5

$$$$
=
 OpenBabel11052413173D

 31 34  0  0  1  0  0  0  0  0999 V2000
  187.6290  178.0090  142.8020 C   0  0  0  0  0  0  0  0  0  0  0  0
  188.7630  177.6790  142.0330 C   0  0  0  0  0  0  0  0  0  0  0  0
  190.9870  176.8830  141.8600 C   0  0  0  0  0  3  0  0  0  0  0  0
  187.5710  177.8470  144.2670 C   0  0  0  0  0  0  0  0  0  0  0  0
  187.8910  177.5040  146.3900 C   0  0  0  0  0  0  0  0  0  0  0  0
  189.8970  177.1940  142.6090 N   0  0  0  0  0  0  0  0  0  0  0  0
  185.2600  178.9690  142.9630 C   0  0  1  0  0  3  0  0  0  0  0  0
  187.5950  178.3440  140.0430 N   0  0  0  0  0  0  0  0  0  0  0  0
  190.9590  177.0490  140.5120 N   0  0  0  0  0  2  0  0  0  0  0  0
  185.0850  178.2420  144.3150 C   0  0  0  0  0  2  0  0  0  0  0  0
  186.4650  178.4930  142.1550 C   0  0  0  0  0  0  0  0  0  0  0  0
  188.5680  177.5370  145.1750 C   0  0  0  0  0  3  0  0  0  0  0  0
  189.8520  177.6590  138.6300 O   0  0  0  0  0  0  0  0  0  0  0  0
  186.4020  177.9800  144.9650 C   0  0  0  0  0  0  0  0  0  0  0  0
  186.6100  177.7630  146.2370 O   0  0  0  0  0  0  0  0  0  0  0  0
  186.4910  178.6700  140.7650 C   0  0  0  0  0  3  0  0  0  0  0  0
  188.7170  177.8530  140.6360 C   0  0  0  0  0  0  0  0  0  0  0  0
  189.8510  177.5240  139.8840 C   0  0  0  0  0  0  0  0  0  0  0  0
  180.2420  178.6760  142.5650 C   0  0  0  0  0  1  0  0  0  0  0  0
  182.6070  179.1180  144.0090 O   0  0  0  0  0  0  0  0  0  0  0  0
  182.7300  178.8940  142.7740 C   0  0  0  0  0  0  0  0  0  0  0  0
  181.5670  178.6990  141.9570 N   0  0  0  0  0  0  0  0  0  0  0  0
  184.0330  178.8400  142.1850 N   0  0  0  0  0  2  0  0  0  0  0  0
  181.5810  176.9390  140.2480 C   0  0  0  0  0  1  0  0  0  0  0  0
  181.7170  178.4270  140.5310 C   0  0  2  0  0  3  0  0  0  0  0  0
  182.9740  178.9140  140.0710 O   0  0  0  0  0  0  0  0  0  0  0  0
  183.0790  179.9100  139.0970 C   0  0  0  0  0  0  0  0  0  0  0  0
  184.1730  180.5040  138.8970 O   0  0  0  0  0  0  0  0  0  0  0  0
  181.8850  180.2750  138.2850 C   0  0  0  0  0  1  0  0  0  0  0  0
  188.5010  177.2180  147.6890 C   0  0  0  0  0  3  0  0  0  0  0  0
  187.9040  177.5110  148.7590 O   0  0  0  0  0  0  0  0  0  0  0  0
  1  4  1  0  0  0  0
  2  6  1  0  0  0  0
  2  1  2  0  0  0  0
  3  6  2  0  0  0  0
  4 14  2  0  0  0  0
  4 12  1  0  0  0  0
  5 30  1  0  0  0  0
  7 23  1  6  0  0  0
  7 10  1  0  0  0  0
  8 17  2  0  0  0  0
  8 16  1  0  0  0  0
  9  3  1  0  0  0  0
 10 14  1  0  0  0  0
 11  1  1  0  0  0  0
 11  7  1  0  0  0  0
 12  5  2  0  0  0  0
 13 18  2  0  0  0  0
 14 15  1  0  0  0  0
 15  5  1  0  0  0  0
 16 11  2  0  0  0  0
 17  2  1  0  0  0  0
 18  9  1  0  0  0  0
 18 17  1  0  0  0  0
 21 20  2  0  0  0  0
 22 19  1  0  0  0  0
 22 21  1  0  0  0  0
 23 21  1  0  0  0  0
 25 24  1  1  0  0  0
 25 22  1  0  0  0  0
 26 25  1  0  0  0  0
 27 26  1  0  0  0  0
 28 27  2  0  0  0  0
 29 27  1  0  0  0  0
 30 31  2  0  0  0  0
M  END
>  <MODEL>
5

>  <REMARK>
 VINA RESULT:      -8.2      3.266      6.813
  Name = 
  5 active torsions:
  status: ('A' for Active; 'I' for Inactive)
    1  A    between atoms: C_1  and  O_24
    2  A    between atoms: C_2  and  C_13
    3  A    between atoms: C_15  and  N_23
    4  A    between atoms: C_19  and  N_22
    5  A    between atoms: C_19  and  O_24
                            x       y       z     vdW  Elec       q    Type
                         _______ _______ _______ _____ _____    ______ ____

>  <TORSDO>
F 5

$$$$
=
 OpenBabel11052413173D

 31 34  0  0  1  0  0  0  0  0999 V2000
  185.6170  178.4010  142.6720 C   0  0  0  0  0  0  0  0  0  0  0  0
  186.0120  178.3350  144.0230 C   0  0  0  0  0  0  0  0  0  0  0  0
  187.6910  178.1480  145.6830 C   0  0  0  0  0  3  0  0  0  0  0  0
  186.5720  178.3610  141.5490 C   0  0  0  0  0  0  0  0  0  0  0  0
  188.2660  178.2310  140.1920 C   0  0  0  0  0  0  0  0  0  0  0  0
  187.3210  178.2160  144.3770 N   0  0  0  0  0  2  0  0  0  0  0  0
  183.7680  178.5030  140.9030 C   0  0  1  0  0  3  0  0  0  0  0  0
  183.7120  178.5090  144.6930 N   0  0  0  0  0  0  0  0  0  0  0  0
  186.7510  178.2050  146.6630 N   0  0  0  0  0  0  0  0  0  0  0  0
  184.8030  179.0340  139.8870 C   0  0  0  0  0  2  0  0  0  0  0  0
  184.2440  178.5430  142.3530 C   0  0  0  0  0  0  0  0  0  0  0  0
  187.9300  178.0940  141.5350 C   0  0  0  0  0  3  0  0  0  0  0  0
  184.5830  178.3880  147.2980 O   0  0  0  0  0  0  0  0  0  0  0  0
  186.1900  178.6280  140.2620 C   0  0  0  0  0  0  0  0  0  0  0  0
  187.2200  178.5540  139.4620 O   0  0  0  0  0  0  0  0  0  0  0  0
  183.3090  178.5720  143.3970 C   0  0  0  0  0  3  0  0  0  0  0  0
  185.0260  178.3980  145.0280 C   0  0  0  0  0  0  0  0  0  0  0  0
  185.4310  178.3300  146.3670 C   0  0  0  0  0  0  0  0  0  0  0  0
  178.9400  178.8510  139.4890 C   0  0  0  0  0  1  0  0  0  0  0  0
  181.2960  177.4080  139.9810 O   0  0  0  0  0  0  0  0  0  0  0  0
  181.3190  178.6400  140.2510 C   0  0  0  0  0  0  0  0  0  0  0  0
  180.1420  179.4400  140.0670 N   0  0  0  0  0  0  0  0  0  0  0  0
  182.5190  179.2400  140.7480 N   0  0  0  0  0  2  0  0  0  0  0  0
  179.0470  181.2480  141.3120 C   0  0  0  0  0  1  0  0  0  0  0  0
  180.1790  180.8670  140.3690 C   0  0  2  0  0  3  0  0  0  0  0  0
  180.1070  181.6240  139.1650 O   0  0  0  0  0  0  0  0  0  0  0  0
  181.1020  181.5690  138.1860 C   0  0  0  0  0  0  0  0  0  0  0  0
  182.2430  182.0620  138.3960 O   0  0  0  0  0  0  0  0  0  0  0  0
  180.8110  180.9180  136.8770 C   0  0  0  0  0  1  0  0  0  0  0  0
  189.6070  178.0480  139.6340 C   0  0  0  0  0  3  0  0  0  0  0  0
  190.5170  177.5010  140.3120 O   0  0  0  0  0  0  0  0  0  0  0  0
  1  2  1  0  0  0  0
  2  6  1  0  0  0  0
  2 17  2  0  0  0  0
  3  9  2  0  0  0  0
  4  1  1  0  0  0  0
  5 12  2  0  0  0  0
  6  3  1  0  0  0  0
  7 23  1  1  0  0  0
  7 11  1  0  0  0  0
  8 17  1  0  0  0  0
 10 14  1  0  0  0  0
 10  7  1  0  0  0  0
 11  1  2  0  0  0  0
 11 16  1  0  0  0  0
 12  4  1  0  0  0  0
 14  4  2  0  0  0  0
 15  5  1  0  0  0  0
 15 14  1  0  0  0  0
 16  8  2  0  0  0  0
 17 18  1  0  0  0  0
 18  9  1  0  0  0  0
 18 13  2  0  0  0  0
 19 22  1  0  0  0  0
 20 21  2  0  0  0  0
 21 23  1  0  0  0  0
 22 21  1  0  0  0  0
 22 25  1  0  0  0  0
 25 24  1  1  0  0  0
 26 25  1  0  0  0  0
 27 28  2  0  0  0  0
 27 26  1  0  0  0  0
 29 27  1  0  0  0  0
 30  5  1  0  0  0  0
 30 31  2  0  0  0  0
M  END
>  <MODEL>
6

>  <REMARK>
 VINA RESULT:      -8.0      4.409      7.854
  Name = 
  5 active torsions:
  status: ('A' for Active; 'I' for Inactive)
    1  A    between atoms: C_1  and  O_24
    2  A    between atoms: C_2  and  C_13
    3  A    between atoms: C_15  and  N_23
    4  A    between atoms: C_19  and  N_22
    5  A    between atoms: C_19  and  O_24
                            x       y       z     vdW  Elec       q    Type
                         _______ _______ _______ _____ _____    ______ ____

>  <TORSDO>
F 5

$$$$
=
 OpenBabel11052413173D

 31 34  0  0  1  0  0  0  0  0999 V2000
  188.3020  177.2030  144.9050 C   0  0  0  0  0  0  0  0  0  0  0  0
  187.1830  177.8200  145.5000 C   0  0  0  0  0  0  0  0  0  0  0  0
  186.1180  178.8250  147.3610 C   0  0  0  0  0  3  0  0  0  0  0  0
  189.5700  176.9700  145.6210 C   0  0  0  0  0  0  0  0  0  0  0  0
  191.2320  176.7710  147.0100 C   0  0  0  0  0  0  0  0  0  0  0  0
  187.2040  178.2340  146.7960 N   0  0  0  0  0  0  0  0  0  0  0  0
  189.3870  176.0310  142.9030 C   0  0  1  0  0  3  0  0  0  0  0  0
  185.9770  177.6000  143.4340 N   0  0  0  0  0  0  0  0  0  0  0  0
  184.9880  179.0160  146.6320 N   0  0  0  0  0  2  0  0  0  0  0  0
  190.7750  176.3590  143.4950 C   0  0  0  0  0  2  0  0  0  0  0  0
  188.2390  176.8050  143.5470 C   0  0  0  0  0  0  0  0  0  0  0  0
  189.8850  177.1170  146.9600 C   0  0  0  0  0  3  0  0  0  0  0  0
  183.8540  178.8260  144.6780 O   0  0  0  0  0  0  0  0  0  0  0  0
  190.7030  176.5570  144.9740 C   0  0  0  0  0  0  0  0  0  0  0  0
  191.6930  176.4500  145.8200 O   0  0  0  0  0  0  0  0  0  0  0  0
  187.0440  177.0010  142.8420 C   0  0  0  0  0  3  0  0  0  0  0  0
  186.0190  178.0150  144.7290 C   0  0  0  0  0  0  0  0  0  0  0  0
  184.9140  178.6280  145.3320 C   0  0  0  0  0  0  0  0  0  0  0  0
  189.0990  179.0030  138.8400 C   0  0  0  0  0  1  0  0  0  0  0  0
  189.2470  178.5730  141.6090 O   0  0  0  0  0  0  0  0  0  0  0  0
  189.3100  177.5510  140.8720 C   0  0  0  0  0  0  0  0  0  0  0  0
  189.2820  177.6890  139.4440 N   0  0  0  0  0  0  0  0  0  0  0  0
  189.4140  176.2510  141.4620 N   0  0  0  0  0  2  0  0  0  0  0  0
  190.7820  176.1560  138.2550 C   0  0  0  0  0  1  0  0  0  0  0  0
  189.3410  176.5010  138.5980 C   0  0  2  0  0  3  0  0  0  0  0  0
  188.5770  176.7060  137.4140 O   0  0  0  0  0  0  0  0  0  0  0  0
  187.3820  176.0260  137.1680 C   0  0  0  0  0  0  0  0  0  0  0  0
  186.2750  176.6270  137.2160 O   0  0  0  0  0  0  0  0  0  0  0  0
  187.4160  174.5720  136.8440 C   0  0  0  0  0  1  0  0  0  0  0  0
  192.0570  176.7590  148.2180 C   0  0  0  0  0  3  0  0  0  0  0  0
  193.0490  175.9890  148.3120 O   0  0  0  0  0  0  0  0  0  0  0  0
  1  2  1  0  0  0  0
  1  4  1  0  0  0  0
  2  6  1  0  0  0  0
  4 12  1  0  0  0  0
  5 30  1  0  0  0  0
  6  3  2  0  0  0  0
  7 23  1  6  0  0  0
  7 10  1  0  0  0  0
  7 11  1  0  0  0  0
  8 17  1  0  0  0  0
  9  3  1  0  0  0  0
 10 14  1  0  0  0  0
 11  1  2  0  0  0  0
 12  5  2  0  0  0  0
 13 18  2  0  0  0  0
 14  4  2  0  0  0  0
 14 15  1  0  0  0  0
 15  5  1  0  0  0  0
 16  8  2  0  0  0  0
 16 11  1  0  0  0  0
 17 18  1  0  0  0  0
 17  2  2  0  0  0  0
 18  9  1  0  0  0  0
 19 22  1  0  0  0  0
 21 23  1  0  0  0  0
 21 20  2  0  0  0  0
 22 21  1  0  0  0  0
 25 24  1  6  0  0  0
 25 22  1  0  0  0  0
 26 25  1  0  0  0  0
 27 28  2  0  0  0  0
 27 26  1  0  0  0  0
 29 27  1  0  0  0  0
 30 31  2  0  0  0  0
M  END
>  <MODEL>
7

>  <REMARK>
 VINA RESULT:      -7.9      1.972      4.844
  Name = 
  5 active torsions:
  status: ('A' for Active; 'I' for Inactive)
    1  A    between atoms: C_1  and  O_24
    2  A    between atoms: C_2  and  C_13
    3  A    between atoms: C_15  and  N_23
    4  A    between atoms: C_19  and  N_22
    5  A    between atoms: C_19  and  O_24
                            x       y       z     vdW  Elec       q    Type
                         _______ _______ _______ _____ _____    ______ ____

>  <TORSDO>
F 5

$$$$
=
 OpenBabel11052413173D

 31 34  0  0  1  0  0  0  0  0999 V2000
  187.4590  177.7160  143.9510 C   0  0  0  0  0  0  0  0  0  0  0  0
  186.2630  178.1650  144.5470 C   0  0  0  0  0  0  0  0  0  0  0  0
  185.0060  178.7830  146.4560 C   0  0  0  0  0  3  0  0  0  0  0  0
  188.6860  177.4330  144.7190 C   0  0  0  0  0  0  0  0  0  0  0  0
  190.2550  177.0910  146.1860 C   0  0  0  0  0  0  0  0  0  0  0  0
  186.1650  178.3550  145.8910 N   0  0  0  0  0  0  0  0  0  0  0  0
  188.7580  176.9580  141.8780 C   0  0  1  0  0  3  0  0  0  0  0  0
  185.2240  178.2330  142.3830 N   0  0  0  0  0  0  0  0  0  0  0  0
  183.9200  179.0350  145.6790 N   0  0  0  0  0  2  0  0  0  0  0  0
  190.0760  177.2540  142.6260 C   0  0  0  0  0  2  0  0  0  0  0  0
  187.5190  177.5500  142.5460 C   0  0  0  0  0  0  0  0  0  0  0  0
  188.8960  177.3690  146.0850 C   0  0  0  0  0  3  0  0  0  0  0  0
  182.9420  179.1180  143.6360 O   0  0  0  0  0  0  0  0  0  0  0  0
  189.8870  177.1960  144.1060 C   0  0  0  0  0  0  0  0  0  0  0  0
  190.8190  177.0000  145.0000 O   0  0  0  0  0  0  0  0  0  0  0  0
  186.3660  177.7990  141.7880 C   0  0  0  0  0  3  0  0  0  0  0  0
  185.1470  178.4250  143.7280 C   0  0  0  0  0  0  0  0  0  0  0  0
  183.9640  178.8680  144.3320 C   0  0  0  0  0  0  0  0  0  0  0  0
  191.0540  177.0720  137.3910 C   0  0  0  0  0  1  0  0  0  0  0  0
  190.6930  176.0560  139.9810 O   0  0  0  0  0  0  0  0  0  0  0  0
  189.8850  176.9490  139.6050 C   0  0  0  0  0  0  0  0  0  0  0  0
  189.9770  177.4910  138.2790 N   0  0  0  0  0  0  0  0  0  0  0  0
  188.8720  177.4190  140.4990 N   0  0  0  0  0  2  0  0  0  0  0  0
  187.6540  178.2680  138.4030 C   0  0  0  0  0  1  0  0  0  0  0  0
  189.0480  178.5330  137.8540 C   0  0  2  0  0  3  0  0  0  0  0  0
  189.0220  178.6150  136.4330 O   0  0  0  0  0  0  0  0  0  0  0  0
  188.0630  177.9540  135.6630 C   0  0  0  0  0  0  0  0  0  0  0  0
  186.9910  178.5290  135.3330 O   0  0  0  0  0  0  0  0  0  0  0  0
  188.3100  176.5510  135.2240 C   0  0  0  0  0  1  0  0  0  0  0  0
  190.9920  176.9190  147.4380 C   0  0  0  0  0  3  0  0  0  0  0  0
  191.8640  176.0170  147.5540 O   0  0  0  0  0  0  0  0  0  0  0  0
  1  2  1  0  0  0  0
  1  4  1  0  0  0  0
  2  6  1  0  0  0  0
  4 12  1  0  0  0  0
  5 30  1  0  0  0  0
  6  3  2  0  0  0  0
  7 23  1  6  0  0  0
  7 11  1  0  0  0  0
  7 10  1  0  0  0  0
  8 17  1  0  0  0  0
  9  3  1  0  0  0  0
 10 14  1  0  0  0  0
 11  1  2  0  0  0  0
 12  5  2  0  0  0  0
 13 18  2  0  0  0  0
 14  4  2  0  0  0  0
 14 15  1  0  0  0  0
 15  5  1  0  0  0  0
 16  8  2  0  0  0  0
 16 11  1  0  0  0  0
 17 18  1  0  0  0  0
 17  2  2  0  0  0  0
 18  9  1  0  0  0  0
 19 22  1  0  0  0  0
 21 20  2  0  0  0  0
 21 23  1  0  0  0  0
 22 21  1  0  0  0  0
 25 22  1  0  0  0  0
 25 24  1  6  0  0  0
 26 25  1  0  0  0  0
 27 26  1  0  0  0  0
 28 27  2  0  0  0  0
 29 27  1  0  0  0  0
 30 31  2  0  0  0  0
M  END
>  <MODEL>
8

>  <REMARK>
 VINA RESULT:      -7.8      2.074      4.944
  Name = 
  5 active torsions:
  status: ('A' for Active; 'I' for Inactive)
    1  A    between atoms: C_1  and  O_24
    2  A    between atoms: C_2  and  C_13
    3  A    between atoms: C_15  and  N_23
    4  A    between atoms: C_19  and  N_22
    5  A    between atoms: C_19  and  O_24
                            x       y       z     vdW  Elec       q    Type
                         _______ _______ _______ _____ _____    ______ ____

>  <TORSDO>
F 5

$$$$
=
 OpenBabel11052413173D

 31 34  0  0  1  0  0  0  0  0999 V2000
  186.3930  178.4110  141.8830 C   0  0  0  0  0  0  0  0  0  0  0  0
  187.7540  178.0800  141.7270 C   0  0  0  0  0  0  0  0  0  0  0  0
  189.8650  177.5130  142.6400 C   0  0  0  0  0  3  0  0  0  0  0  0
  185.7290  178.4980  143.1980 C   0  0  0  0  0  0  0  0  0  0  0  0
  185.1340  178.5610  145.2890 C   0  0  0  0  0  0  0  0  0  0  0  0
  188.5520  177.8270  142.8000 N   0  0  0  0  0  0  0  0  0  0  0  0
  184.1510  179.1210  140.8680 C   0  0  1  0  0  3  0  0  0  0  0  0
  187.5150  178.2630  139.3450 N   0  0  0  0  0  0  0  0  0  0  0  0
  190.4020  177.4410  141.3930 N   0  0  0  0  0  2  0  0  0  0  0  0
  183.4430  178.6230  142.1480 C   0  0  0  0  0  2  0  0  0  0  0  0
  185.5970  178.6490  140.7360 C   0  0  0  0  0  0  0  0  0  0  0  0
  186.2590  178.4580  144.4750 C   0  0  0  0  0  3  0  0  0  0  0  0
  190.1740  177.5950  139.1440 O   0  0  0  0  0  0  0  0  0  0  0  0
  184.3710  178.6200  143.3170 C   0  0  0  0  0  0  0  0  0  0  0  0
  184.0300  178.6480  144.5780 O   0  0  0  0  0  0  0  0  0  0  0  0
  186.2010  178.5870  139.4720 C   0  0  0  0  0  3  0  0  0  0  0  0
  188.2960  178.0060  140.4290 C   0  0  0  0  0  0  0  0  0  0  0  0
  189.6490  177.6780  140.2870 C   0  0  0  0  0  0  0  0  0  0  0  0
  181.1800  180.1720  136.9330 C   0  0  0  0  0  1  0  0  0  0  0  0
  182.8480  180.9110  139.0650 O   0  0  0  0  0  0  0  0  0  0  0  0
  182.7150  179.6750  138.8510 C   0  0  0  0  0  0  0  0  0  0  0  0
  181.9110  179.2150  137.7550 N   0  0  0  0  0  0  0  0  0  0  0  0
  183.3700  178.7290  139.7010 N   0  0  0  0  0  2  0  0  0  0  0  0
  181.8410  177.4660  136.0360 C   0  0  0  0  0  1  0  0  0  0  0  0
  181.7510  177.7840  137.5210 C   0  0  2  0  0  3  0  0  0  0  0  0
  180.5090  177.3380  138.0570 O   0  0  0  0  0  0  0  0  0  0  0  0
  180.4130  176.2290  138.9000 C   0  0  0  0  0  0  0  0  0  0  0  0
  179.2910  175.7290  139.1850 O   0  0  0  0  0  0  0  0  0  0  0  0
  181.6520  175.6280  139.4710 C   0  0  0  0  0  1  0  0  0  0  0  0
  185.1480  178.5690  146.7520 C   0  0  0  0  0  3  0  0  0  0  0  0
  185.6800  179.5200  147.3850 O   0  0  0  0  0  0  0  0  0  0  0  0
  1  4  1  0  0  0  0
  2  1  1  0  0  0  0
  2  6  1  0  0  0  0
  3  6  2  0  0  0  0
  4 14  2  0  0  0  0
  4 12  1  0  0  0  0
  5 30  1  0  0  0  0
  7 23  1  6  0  0  0
  7 10  1  0  0  0  0
  8 16  2  0  0  0  0
  8 17  1  0  0  0  0
  9  3  1  0  0  0  0
 10 14  1  0  0  0  0
 11  7  1  0  0  0  0
 11  1  2  0  0  0  0
 12  5  2  0  0  0  0
 13 18  2  0  0  0  0
 14 15  1  0  0  0  0
 15  5  1  0  0  0  0
 16 11  1  0  0  0  0
 17  2  2  0  0  0  0
 18 17  1  0  0  0  0
 18  9  1  0  0  0  0
 19 22  1  0  0  0  0
 21 20  2  0  0  0  0
 21 23  1  0  0  0  0
 22 21  1  0  0  0  0
 25 24  1  6  0  0  0
 25 22  1  0  0  0  0
 25 26  1  0  0  0  0
 26 27  1  0  0  0  0
 27 28  2  0  0  0  0
 27 29  1  0  0  0  0
 30 31  2  0  0  0  0
M  END
>  <MODEL>
9

>  <REMARK>
 VINA RESULT:      -7.8      4.272      6.482
  Name = 
  5 active torsions:
  status: ('A' for Active; 'I' for Inactive)
    1  A    between atoms: C_1  and  O_24
    2  A    between atoms: C_2  and  C_13
    3  A    between atoms: C_15  and  N_23
    4  A    between atoms: C_19  and  N_22
    5  A    between atoms: C_19  and  O_24
                            x       y       z     vdW  Elec       q    Type
                         _______ _______ _______ _____ _____    ______ ____

>  <TORSDO>
F 5

$$$$
