=
 OpenBabel11052413043D

 31 36  0  0  1  0  0  0  0  0999 V2000
  190.6680  176.8820  146.2320 C   0  0  0  0  0  0  0  0  0  0  0  0
  188.0610  177.4040  143.5860 C   0  0  0  0  0  0  0  0  0  0  0  0
  186.8000  177.6520  144.3510 C   0  0  0  0  0  0  0  0  0  0  0  0
  186.4930  178.2710  146.7260 C   0  0  0  0  0  3  0  0  0  0  0  0
  189.3340  177.0220  144.2640 C   0  0  0  0  0  0  0  0  0  0  0  0
  191.7280  176.3360  145.5060 C   0  0  0  0  0  3  0  0  0  0  0  0
  186.6650  177.1510  145.7580 C   0  0  0  0  0  2  0  0  0  0  0  0
  189.3370  177.3640  141.4430 C   0  0  2  0  0  3  0  0  0  0  0  0
  190.8000  177.0920  147.6330 N   0  0  0  0  0  1  0  0  0  0  0  0
  185.8420  178.4940  142.3550 O   0  0  0  0  0  0  0  0  0  0  0  0
  185.4360  179.0800  146.7020 C   0  0  0  0  0  3  0  0  0  0  0  0
  190.2180  176.2630  142.0350 C   0  0  0  0  0  2  0  0  0  0  0  0
  188.0570  177.5330  142.2370 C   0  0  0  0  0  0  0  0  0  0  0  0
  189.5080  177.2090  145.6020 N   0  0  0  0  0  0  0  0  0  0  0  0
  184.3690  179.0290  145.6850 C   0  0  0  0  0  3  0  0  0  0  0  0
  190.3930  176.4930  143.5020 C   0  0  0  0  0  0  0  0  0  0  0  0
  191.5860  176.1400  144.1330 C   0  0  0  0  0  3  0  0  0  0  0  0
  186.7670  177.8080  141.5160 C   0  0  0  0  0  2  0  0  0  0  0  0
  185.7590  178.2420  143.7280 C   0  0  0  0  0  0  0  0  0  0  0  0
  184.5110  178.6580  144.4070 C   0  0  0  0  0  3  0  0  0  0  0  0
  189.0710  177.0810  140.0980 O   0  0  0  0  0  0  0  0  0  0  0  0
  190.5920  175.3720  136.0570 C   0  0  0  0  0  0  0  0  0  0  0  0
  190.8750  175.7000  138.4980 C   0  0  0  0  0  2  0  0  0  0  0  0
  188.7220  178.4720  137.2800 C   0  0  0  0  0  2  0  0  0  0  0  0
  189.0510  178.9970  138.6730 C   0  0  0  0  0  2  0  0  0  0  0  0
  190.8290  174.6640  134.8870 O   0  0  0  0  0  1  0  0  0  0  0  0
  189.9090  177.9370  139.3730 C   0  0  2  0  0  3  0  0  0  0  0  0
  191.1820  174.9920  137.2000 C   0  0  0  0  0  3  0  0  0  0  0  0
  189.6940  177.3760  137.0830 C   0  0  0  0  0  0  0  0  0  0  0  0
  190.6070  177.1910  138.2390 C   0  0  2  0  0  3  0  0  0  0  0  0
  189.6940  176.5460  136.0380 C   0  0  0  0  0  3  0  0  0  0  0  0
  1  9  1  0  0  0  0
  2  5  1  0  0  0  0
  2  3  1  0  0  0  0
  3  7  1  0  0  0  0
  5 14  2  0  0  0  0
  6  1  2  0  0  0  0
  7  4  1  0  0  0  0
  8 21  1  6  0  0  0
  8 12  1  0  0  0  0
  8 13  1  0  0  0  0
 10 19  1  0  0  0  0
 11  4  2  0  0  0  0
 12 16  1  0  0  0  0
 13  2  2  0  0  0  0
 14  1  1  0  0  0  0
 15 11  1  0  0  0  0
 16 17  2  0  0  0  0
 16  5  1  0  0  0  0
 17  6  1  0  0  0  0
 18 13  1  0  0  0  0
 18 10  1  0  0  0  0
 19  3  2  0  0  0  0
 19 20  1  0  0  0  0
 20 15  2  0  0  0  0
 22 28  2  0  0  0  0
 24 25  1  0  0  0  0
 25 27  1  0  0  0  0
 26 22  1  0  0  0  0
 27 21  1  6  0  0  0
 28 23  1  0  0  0  0
 29 24  1  0  0  0  0
 29 30  1  0  0  0  0
 30 23  1  1  0  0  0
 30 27  1  0  0  0  0
 31 22  1  0  0  0  0
 31 29  2  0  0  0  0
M  END
>  <MODEL>
1

>  <REMARK>
 VINA RESULT:     -10.7      0.000      0.000
  Name = 
  2 active torsions:
  status: ('A' for Active; 'I' for Inactive)
    1  A    between atoms: C_9  and  O_23
    2  A    between atoms: C_15  and  O_23
                            x       y       z     vdW  Elec       q    Type
                         _______ _______ _______ _____ _____    ______ ____

>  <TORSDO>
F 2

$$$$
=
 OpenBabel11052413043D

 31 36  0  0  1  0  0  0  0  0999 V2000
  190.7050  176.9950  144.5760 C   0  0  0  0  0  0  0  0  0  0  0  0
  187.5880  178.0080  142.7530 C   0  0  0  0  0  0  0  0  0  0  0  0
  186.5170  177.9650  143.7970 C   0  0  0  0  0  0  0  0  0  0  0  0
  186.7190  177.9270  146.2620 C   0  0  0  0  0  3  0  0  0  0  0  0
  188.9800  177.5500  143.0310 C   0  0  0  0  0  0  0  0  0  0  0  0
  191.5920  176.7280  143.5310 C   0  0  0  0  0  3  0  0  0  0  0  0
  186.6910  177.1090  145.0160 C   0  0  0  0  0  2  0  0  0  0  0  0
  188.3750  178.6090  140.4640 C   0  0  2  0  0  3  0  0  0  0  0  0
  191.1320  176.8440  145.9240 N   0  0  0  0  0  1  0  0  0  0  0  0
  185.1450  179.2280  142.3360 O   0  0  0  0  0  0  0  0  0  0  0  0
  185.6730  178.6420  146.6700 C   0  0  0  0  0  3  0  0  0  0  0  0
  189.3740  177.4540  140.5490 C   0  0  0  0  0  2  0  0  0  0  0  0
  187.2930  178.4810  141.5180 C   0  0  0  0  0  0  0  0  0  0  0  0
  189.4340  177.3960  144.3060 N   0  0  0  0  0  0  0  0  0  0  0  0
  184.4130  178.7840  145.9160 C   0  0  0  0  0  3  0  0  0  0  0  0
  189.8570  177.3080  141.9560 C   0  0  0  0  0  0  0  0  0  0  0  0
  191.1600  176.8840  142.2140 C   0  0  0  0  0  3  0  0  0  0  0  0
  185.8760  178.8470  141.1740 C   0  0  0  0  0  2  0  0  0  0  0  0
  185.3610  178.6250  143.5800 C   0  0  0  0  0  0  0  0  0  0  0  0
  184.2820  178.7670  144.5840 C   0  0  0  0  0  3  0  0  0  0  0  0
  187.8300  178.6670  139.1760 O   0  0  0  0  0  0  0  0  0  0  0  0
  185.2440  177.1460  135.6310 C   0  0  0  0  0  0  0  0  0  0  0  0
  185.8290  177.1080  138.0400 C   0  0  0  0  0  2  0  0  0  0  0  0
  188.8540  178.2540  136.2130 C   0  0  0  0  0  2  0  0  0  0  0  0
  189.4700  177.9820  137.5820 C   0  0  0  0  0  2  0  0  0  0  0  0
  184.3420  176.9580  134.5940 O   0  0  0  0  0  1  0  0  0  0  0  0
  188.3370  177.5400  138.5150 C   0  0  2  0  0  3  0  0  0  0  0  0
  184.8920  176.8360  136.8880 C   0  0  0  0  0  3  0  0  0  0  0  0
  187.5330  177.5970  136.2890 C   0  0  0  0  0  0  0  0  0  0  0  0
  187.2880  176.9270  137.5920 C   0  0  2  0  0  3  0  0  0  0  0  0
  186.5910  177.6840  135.3470 C   0  0  0  0  0  3  0  0  0  0  0  0
  1  9  1  0  0  0  0
  2  5  1  0  0  0  0
  2  3  1  0  0  0  0
  3  7  1  0  0  0  0
  4 11  2  0  0  0  0
  5 14  2  0  0  0  0
  6  1  2  0  0  0  0
  7  4  1  0  0  0  0
  8 21  1  6  0  0  0
  8 12  1  0  0  0  0
  8 13  1  0  0  0  0
 10 19  1  0  0  0  0
 12 16  1  0  0  0  0
 13  2  2  0  0  0  0
 14  1  1  0  0  0  0
 15 11  1  0  0  0  0
 16 17  2  0  0  0  0
 16  5  1  0  0  0  0
 17  6  1  0  0  0  0
 18 13  1  0  0  0  0
 18 10  1  0  0  0  0
 19  3  2  0  0  0  0
 19 20  1  0  0  0  0
 20 15  2  0  0  0  0
 22 28  2  0  0  0  0
 24 29  1  0  0  0  0
 24 25  1  0  0  0  0
 25 27  1  0  0  0  0
 26 22  1  0  0  0  0
 27 21  1  6  0  0  0
 28 23  1  0  0  0  0
 29 30  1  0  0  0  0
 30 23  1  1  0  0  0
 30 27  1  0  0  0  0
 31 22  1  0  0  0  0
 31 29  2  0  0  0  0
M  END
>  <MODEL>
2

>  <REMARK>
 VINA RESULT:     -10.4      2.117      2.711
  Name = 
  2 active torsions:
  status: ('A' for Active; 'I' for Inactive)
    1  A    between atoms: C_9  and  O_23
    2  A    between atoms: C_15  and  O_23
                            x       y       z     vdW  Elec       q    Type
                         _______ _______ _______ _____ _____    ______ ____

>  <TORSDO>
F 2

$$$$
=
 OpenBabel11052413043D

 31 36  0  0  1  0  0  0  0  0999 V2000
  190.4190  176.8240  145.9120 C   0  0  0  0  0  0  0  0  0  0  0  0
  187.9130  177.8580  143.3200 C   0  0  0  0  0  0  0  0  0  0  0  0
  186.6090  177.8810  144.0530 C   0  0  0  0  0  0  0  0  0  0  0  0
  186.1700  177.9260  146.4870 C   0  0  0  0  0  3  0  0  0  0  0  0
  189.1700  177.3710  143.9590 C   0  0  0  0  0  0  0  0  0  0  0  0
  191.5340  176.4950  145.1380 C   0  0  0  0  0  3  0  0  0  0  0  0
  186.4330  177.0660  145.2990 C   0  0  0  0  0  2  0  0  0  0  0  0
  189.2830  178.3540  141.2960 C   0  0  2  0  0  3  0  0  0  0  0  0
  190.4790  176.7100  147.3280 N   0  0  0  0  0  1  0  0  0  0  0  0
  185.7050  179.1290  142.2540 O   0  0  0  0  0  0  0  0  0  0  0  0
  185.0810  178.6840  146.5920 C   0  0  0  0  0  3  0  0  0  0  0  0
  190.1840  177.1750  141.6660 C   0  0  0  0  0  2  0  0  0  0  0  0
  187.9630  178.2940  142.0380 C   0  0  0  0  0  0  0  0  0  0  0  0
  189.2750  177.2500  145.3130 N   0  0  0  0  0  0  0  0  0  0  0  0
  184.0630  178.8340  145.5350 C   0  0  0  0  0  3  0  0  0  0  0  0
  190.2840  177.0670  143.1550 C   0  0  0  0  0  0  0  0  0  0  0  0
  191.4610  176.6150  143.7510 C   0  0  0  0  0  3  0  0  0  0  0  0
  186.6960  178.6860  141.3310 C   0  0  0  0  0  2  0  0  0  0  0  0
  185.5720  178.5650  143.5270 C   0  0  0  0  0  0  0  0  0  0  0  0
  184.2780  178.7730  144.2150 C   0  0  0  0  0  3  0  0  0  0  0  0
  189.0900  178.3800  139.9100 O   0  0  0  0  0  0  0  0  0  0  0  0
  187.0860  177.3760  135.8420 C   0  0  0  0  0  0  0  0  0  0  0  0
  186.9750  177.5400  138.3130 C   0  0  0  0  0  2  0  0  0  0  0  0
  190.5530  177.0910  137.4210 C   0  0  0  0  0  2  0  0  0  0  0  0
  190.6330  176.8480  138.9250 C   0  0  0  0  0  2  0  0  0  0  0  0
  186.4810  177.3700  134.5940 O   0  0  0  0  0  1  0  0  0  0  0  0
  189.2250  177.0490  139.4970 C   0  0  2  0  0  3  0  0  0  0  0  0
  186.3330  177.4520  136.9500 C   0  0  0  0  0  3  0  0  0  0  0  0
  189.1060  177.0180  137.1330 C   0  0  0  0  0  0  0  0  0  0  0  0
  188.2840  176.7350  138.3370 C   0  0  2  0  0  3  0  0  0  0  0  0
  188.5580  177.2940  135.9480 C   0  0  0  0  0  3  0  0  0  0  0  0
  1  9  1  0  0  0  0
  2  5  1  0  0  0  0
  2  3  1  0  0  0  0
  3  7  1  0  0  0  0
  4 11  2  0  0  0  0
  5 14  2  0  0  0  0
  6  1  2  0  0  0  0
  7  4  1  0  0  0  0
  8 21  1  6  0  0  0
  8 12  1  0  0  0  0
  8 13  1  0  0  0  0
 10 19  1  0  0  0  0
 12 16  1  0  0  0  0
 13  2  2  0  0  0  0
 14  1  1  0  0  0  0
 15 11  1  0  0  0  0
 16 17  2  0  0  0  0
 16  5  1  0  0  0  0
 17  6  1  0  0  0  0
 18 13  1  0  0  0  0
 18 10  1  0  0  0  0
 19  3  2  0  0  0  0
 19 20  1  0  0  0  0
 20 15  2  0  0  0  0
 22 31  1  0  0  0  0
 22 28  2  0  0  0  0
 24 25  1  0  0  0  0
 25 27  1  0  0  0  0
 26 22  1  0  0  0  0
 27 21  1  6  0  0  0
 28 23  1  0  0  0  0
 29 24  1  0  0  0  0
 29 30  1  0  0  0  0
 30 23  1  1  0  0  0
 30 27  1  0  0  0  0
 31 29  2  0  0  0  0
M  END
>  <MODEL>
3

>  <REMARK>
 VINA RESULT:      -9.9      1.415      1.983
  Name = 
  2 active torsions:
  status: ('A' for Active; 'I' for Inactive)
    1  A    between atoms: C_9  and  O_23
    2  A    between atoms: C_15  and  O_23
                            x       y       z     vdW  Elec       q    Type
                         _______ _______ _______ _____ _____    ______ ____

>  <TORSDO>
F 2

$$$$
=
 OpenBabel11052413043D

 31 36  0  0  1  0  0  0  0  0999 V2000
  190.1380  177.1220  146.2880 C   0  0  0  0  0  0  0  0  0  0  0  0
  188.2340  177.7810  143.1250 C   0  0  0  0  0  0  0  0  0  0  0  0
  186.8070  177.8670  143.5620 C   0  0  0  0  0  0  0  0  0  0  0  0
  185.8680  178.1970  145.8270 C   0  0  0  0  0  3  0  0  0  0  0  0
  189.3270  177.4020  144.0670 C   0  0  0  0  0  0  0  0  0  0  0  0
  191.3880  176.7250  145.8100 C   0  0  0  0  0  3  0  0  0  0  0  0
  186.3700  177.2050  144.8350 C   0  0  0  0  0  2  0  0  0  0  0  0
  190.0000  178.0560  141.3850 C   0  0  2  0  0  3  0  0  0  0  0  0
  189.9010  177.1820  147.6900 N   0  0  0  0  0  1  0  0  0  0  0  0
  186.3040  178.8680  141.4750 O   0  0  0  0  0  0  0  0  0  0  0  0
  184.7850  178.9400  145.6090 C   0  0  0  0  0  3  0  0  0  0  0  0
  190.7970  176.9510  142.0770 C   0  0  0  0  0  2  0  0  0  0  0  0
  188.5530  178.0600  141.8380 C   0  0  0  0  0  0  0  0  0  0  0  0
  189.1470  177.4490  145.4170 N   0  0  0  0  0  0  0  0  0  0  0  0
  184.0110  178.9400  144.3530 C   0  0  0  0  0  3  0  0  0  0  0  0
  190.5840  177.0250  143.5550 C   0  0  0  0  0  0  0  0  0  0  0  0
  191.6080  176.6750  144.4340 C   0  0  0  0  0  3  0  0  0  0  0  0
  187.4640  178.3360  140.8400 C   0  0  0  0  0  2  0  0  0  0  0  0
  185.9060  178.4600  142.7520 C   0  0  0  0  0  0  0  0  0  0  0  0
  184.4970  178.7230  143.1250 C   0  0  0  0  0  3  0  0  0  0  0  0
  190.1000  177.9100  139.9960 O   0  0  0  0  0  0  0  0  0  0  0  0
  189.1060  175.9700  135.8950 C   0  0  0  0  0  0  0  0  0  0  0  0
  188.5590  176.3580  138.2820 C   0  0  0  0  0  2  0  0  0  0  0  0
  192.2280  176.8160  137.9290 C   0  0  0  0  0  2  0  0  0  0  0  0
  192.1220  176.7650  139.4490 C   0  0  0  0  0  2  0  0  0  0  0  0
  188.7330  175.6670  134.5940 O   0  0  0  0  0  1  0  0  0  0  0  0
  190.6370  176.6310  139.8020 C   0  0  2  0  0  3  0  0  0  0  0  0
  188.1900  175.9530  136.8750 C   0  0  0  0  0  3  0  0  0  0  0  0
  190.9150  176.3190  137.4720 C   0  0  0  0  0  0  0  0  0  0  0  0
  190.0080  175.9500  138.5890 C   0  0  2  0  0  3  0  0  0  0  0  0
  190.5130  176.3070  136.1990 C   0  0  0  0  0  3  0  0  0  0  0  0
  1  9  1  0  0  0  0
  2  3  1  0  0  0  0
  2  5  1  0  0  0  0
  3  7  1  0  0  0  0
  5 14  1  0  0  0  0
  6  1  1  0  0  0  0
  7  4  1  0  0  0  0
  8 21  1  6  0  0  0
  8 13  1  0  0  0  0
  8 12  1  0  0  0  0
 10 19  1  0  0  0  0
 11  4  2  0  0  0  0
 12 16  1  0  0  0  0
 13  2  2  0  0  0  0
 14  1  2  0  0  0  0
 15 11  1  0  0  0  0
 16  5  2  0  0  0  0
 16 17  1  0  0  0  0
 17  6  2  0  0  0  0
 18 10  1  0  0  0  0
 18 13  1  0  0  0  0
 19 20  1  0  0  0  0
 19  3  2  0  0  0  0
 20 15  2  0  0  0  0
 22 31  1  0  0  0  0
 22 28  2  0  0  0  0
 24 25  1  0  0  0  0
 25 27  1  0  0  0  0
 26 22  1  0  0  0  0
 27 21  1  6  0  0  0
 28 23  1  0  0  0  0
 29 24  1  0  0  0  0
 29 30  1  0  0  0  0
 30 23  1  6  0  0  0
 30 27  1  0  0  0  0
 31 29  2  0  0  0  0
M  END
>  <MODEL>
4

>  <REMARK>
 VINA RESULT:      -9.8      1.199      1.615
  Name = 
  2 active torsions:
  status: ('A' for Active; 'I' for Inactive)
    1  A    between atoms: C_9  and  O_23
    2  A    between atoms: C_15  and  O_23
                            x       y       z     vdW  Elec       q    Type
                         _______ _______ _______ _____ _____    ______ ____

>  <TORSDO>
F 2

$$$$
=
 OpenBabel11052413043D

 31 36  0  0  1  0  0  0  0  0999 V2000
  190.2190  177.7370  140.6050 C   0  0  0  0  0  0  0  0  0  0  0  0
  186.9850  178.0150  142.4850 C   0  0  0  0  0  0  0  0  0  0  0  0
  187.3160  177.5410  143.8640 C   0  0  0  0  0  0  0  0  0  0  0  0
  189.5220  177.2710  144.9520 C   0  0  0  0  0  3  0  0  0  0  0  0
  187.9730  177.9490  141.3690 C   0  0  0  0  0  0  0  0  0  0  0  0
  189.8070  177.8630  139.2770 C   0  0  0  0  0  3  0  0  0  0  0  0
  188.4900  176.6340  144.0860 C   0  0  0  0  0  2  0  0  0  0  0  0
  185.4170  179.0840  140.8670 C   0  0  2  0  0  3  0  0  0  0  0  0
  191.5970  177.5580  140.9060 N   0  0  0  0  0  1  0  0  0  0  0  0
  185.2900  178.5180  144.6070 O   0  0  0  0  0  0  0  0  0  0  0  0
  189.2850  177.6000  146.2200 C   0  0  0  0  0  3  0  0  0  0  0  0
  186.0720  178.2660  139.7540 C   0  0  0  0  0  2  0  0  0  0  0  0
  185.7560  178.5250  142.2350 C   0  0  0  0  0  0  0  0  0  0  0  0
  189.3040  177.7830  141.6100 N   0  0  0  0  0  0  0  0  0  0  0  0
  187.9770  177.4610  146.8890 C   0  0  0  0  0  3  0  0  0  0  0  0
  187.5300  178.1000  140.0410 C   0  0  0  0  0  0  0  0  0  0  0  0
  188.4530  178.0430  138.9970 C   0  0  0  0  0  3  0  0  0  0  0  0
  184.7030  178.5040  143.3080 C   0  0  0  0  0  2  0  0  0  0  0  0
  186.4920  177.8600  144.8840 C   0  0  0  0  0  0  0  0  0  0  0  0
  186.7760  177.5640  146.3070 C   0  0  0  0  0  3  0  0  0  0  0  0
  184.0330  179.1340  140.6630 O   0  0  0  0  0  0  0  0  0  0  0  0
  180.3700  176.6370  139.2780 C   0  0  0  0  0  0  0  0  0  0  0  0
  182.7700  176.7850  139.8830 C   0  0  0  0  0  2  0  0  0  0  0  0
  181.7320  180.1690  138.7570 C   0  0  0  0  0  2  0  0  0  0  0  0
  183.2450  180.3570  138.7700 C   0  0  0  0  0  2  0  0  0  0  0  0
  179.1890  175.9220  139.1460 O   0  0  0  0  0  1  0  0  0  0  0  0
  183.8660  179.0500  139.2740 C   0  0  2  0  0  3  0  0  0  0  0  0
  181.4940  176.0100  139.6560 C   0  0  0  0  0  3  0  0  0  0  0  0
  181.5620  178.7050  138.8520 C   0  0  0  0  0  0  0  0  0  0  0  0
  182.8520  177.9700  138.9080 C   0  0  2  0  0  3  0  0  0  0  0  0
  180.3870  178.0880  138.9970 C   0  0  0  0  0  3  0  0  0  0  0  0
  1  9  1  0  0  0  0
  1 14  1  0  0  0  0
  2  3  1  0  0  0  0
  3  7  1  0  0  0  0
  3 19  2  0  0  0  0
  4 11  2  0  0  0  0
  5 14  2  0  0  0  0
  5  2  1  0  0  0  0
  6  1  2  0  0  0  0
  7  4  1  0  0  0  0
  8 21  1  6  0  0  0
  8 13  1  0  0  0  0
 10 19  1  0  0  0  0
 11 15  1  0  0  0  0
 12 16  1  0  0  0  0
 12  8  1  0  0  0  0
 13  2  2  0  0  0  0
 13 18  1  0  0  0  0
 16  5  1  0  0  0  0
 17  6  1  0  0  0  0
 17 16  2  0  0  0  0
 18 10  1  0  0  0  0
 19 20  1  0  0  0  0
 20 15  2  0  0  0  0
 22 28  2  0  0  0  0
 24 25  1  0  0  0  0
 24 29  1  0  0  0  0
 25 27  1  0  0  0  0
 26 22  1  0  0  0  0
 27 21  1  1  0  0  0
 28 23  1  0  0  0  0
 29 30  1  0  0  0  0
 29 31  2  0  0  0  0
 30 27  1  0  0  0  0
 30 23  1  1  0  0  0
 31 22  1  0  0  0  0
M  END
>  <MODEL>
5

>  <REMARK>
 VINA RESULT:      -9.7      3.716      6.159
  Name = 
  2 active torsions:
  status: ('A' for Active; 'I' for Inactive)
    1  A    between atoms: C_9  and  O_23
    2  A    between atoms: C_15  and  O_23
                            x       y       z     vdW  Elec       q    Type
                         _______ _______ _______ _____ _____    ______ ____

>  <TORSDO>
F 2

$$$$
=
 OpenBabel11052413043D

 31 36  0  0  1  0  0  0  0  0999 V2000
  180.0650  178.5530  142.1320 C   0  0  0  0  0  0  0  0  0  0  0  0
  183.8000  178.5870  141.7830 C   0  0  0  0  0  0  0  0  0  0  0  0
  184.0430  178.1850  140.3630 C   0  0  0  0  0  0  0  0  0  0  0  0
  182.4820  178.1510  138.4440 C   0  0  0  0  0  3  0  0  0  0  0  0
  182.4340  178.5800  142.3820 C   0  0  0  0  0  0  0  0  0  0  0  0
  179.8920  178.6030  143.5160 C   0  0  0  0  0  3  0  0  0  0  0  0
  183.0080  177.3970  139.6170 C   0  0  0  0  0  2  0  0  0  0  0  0
  184.6190  179.4600  143.9710 C   0  0  2  0  0  3  0  0  0  0  0  0
  178.9310  178.5100  141.2750 N   0  0  0  0  0  1  0  0  0  0  0  0
  186.2580  178.9930  140.5920 O   0  0  0  0  0  0  0  0  0  0  0  0
  183.2510  178.4930  137.4130 C   0  0  0  0  0  3  0  0  0  0  0  0
  183.5020  178.6740  144.6570 C   0  0  0  0  0  2  0  0  0  0  0  0
  184.8450  178.9750  142.5520 C   0  0  0  0  0  0  0  0  0  0  0  0
  181.3170  178.5440  141.6010 N   0  0  0  0  0  0  0  0  0  0  0  0
  184.7040  178.2530  137.3380 C   0  0  0  0  0  3  0  0  0  0  0  0
  182.2900  178.6510  143.7810 C   0  0  0  0  0  0  0  0  0  0  0  0
  181.0140  178.6490  144.3430 C   0  0  0  0  0  3  0  0  0  0  0  0
  186.2450  178.8880  142.0130 C   0  0  0  0  0  2  0  0  0  0  0  0
  185.2380  178.4560  139.7990 C   0  0  0  0  0  0  0  0  0  0  0  0
  185.5550  178.2290  138.3710 C   0  0  0  0  0  3  0  0  0  0  0  0
  185.7900  179.3770  144.7330 O   0  0  0  0  0  0  0  0  0  0  0  0
  189.7450  177.1580  145.7330 C   0  0  0  0  0  0  0  0  0  0  0  0
  187.7870  177.5050  144.2530 C   0  0  0  0  0  2  0  0  0  0  0  0
  186.7930  178.6520  147.6430 C   0  0  0  0  0  2  0  0  0  0  0  0
  185.4240  178.6270  146.9700 C   0  0  0  0  0  2  0  0  0  0  0  0
  191.0540  176.7490  145.9470 O   0  0  0  0  0  1  0  0  0  0  0  0
  185.6390  178.2200  145.5080 C   0  0  2  0  0  3  0  0  0  0  0  0
  189.1810  176.9940  144.5270 C   0  0  0  0  0  3  0  0  0  0  0  0
  187.6530  177.8980  146.7090 C   0  0  0  0  0  0  0  0  0  0  0  0
  186.9230  177.3940  145.5180 C   0  0  2  0  0  3  0  0  0  0  0  0
  188.9760  177.7690  146.8370 C   0  0  0  0  0  3  0  0  0  0  0  0
  1  6  1  0  0  0  0
  2  5  1  0  0  0  0
  2 13  2  0  0  0  0
  3  2  1  0  0  0  0
  4  7  1  0  0  0  0
  5 16  2  0  0  0  0
  6 17  2  0  0  0  0
  7  3  1  0  0  0  0
  8 12  1  0  0  0  0
  8 21  1  1  0  0  0
  9  1  1  0  0  0  0
 10 18  1  0  0  0  0
 11  4  2  0  0  0  0
 13  8  1  0  0  0  0
 14  1  2  0  0  0  0
 14  5  1  0  0  0  0
 15 11  1  0  0  0  0
 15 20  2  0  0  0  0
 16 17  1  0  0  0  0
 16 12  1  0  0  0  0
 18 13  1  0  0  0  0
 19  3  2  0  0  0  0
 19 10  1  0  0  0  0
 20 19  1  0  0  0  0
 22 26  1  0  0  0  0
 22 31  1  0  0  0  0
 23 28  1  0  0  0  0
 25 24  1  0  0  0  0
 27 21  1  6  0  0  0
 27 30  1  0  0  0  0
 27 25  1  0  0  0  0
 28 22  2  0  0  0  0
 29 31  2  0  0  0  0
 29 24  1  0  0  0  0
 30 23  1  6  0  0  0
 30 29  1  0  0  0  0
M  END
>  <MODEL>
6

>  <REMARK>
 VINA RESULT:      -9.6      4.329      8.422
  Name = 
  2 active torsions:
  status: ('A' for Active; 'I' for Inactive)
    1  A    between atoms: C_9  and  O_23
    2  A    between atoms: C_15  and  O_23
                            x       y       z     vdW  Elec       q    Type
                         _______ _______ _______ _____ _____    ______ ____

>  <TORSDO>
F 2

$$$$
=
 OpenBabel11052413043D

 31 36  0  0  1  0  0  0  0  0999 V2000
  185.2460  178.3170  145.1820 C   0  0  0  0  0  0  0  0  0  0  0  0
  188.6780  177.8130  143.7550 C   0  0  0  0  0  0  0  0  0  0  0  0
  189.5580  177.6520  144.9540 C   0  0  0  0  0  0  0  0  0  0  0  0
  188.9530  177.1370  147.2970 C   0  0  0  0  0  3  0  0  0  0  0  0
  187.2330  178.1630  143.8780 C   0  0  0  0  0  0  0  0  0  0  0  0
  184.5280  178.7860  144.0800 C   0  0  0  0  0  3  0  0  0  0  0  0
  189.1330  178.2110  146.2780 C   0  0  0  0  0  2  0  0  0  0  0  0
  188.3160  177.7150  141.2890 C   0  0  2  0  0  3  0  0  0  0  0  0
  184.5960  178.1540  146.4360 N   0  0  0  0  0  1  0  0  0  0  0  0
  191.2280  176.7790  143.5180 O   0  0  0  0  0  0  0  0  0  0  0  0
  189.9610  176.3760  147.7170 C   0  0  0  0  0  3  0  0  0  0  0  0
  187.2460  178.7960  141.4440 C   0  0  0  0  0  2  0  0  0  0  0  0
  189.2000  177.6330  142.5180 C   0  0  0  0  0  0  0  0  0  0  0  0
  186.5670  178.0190  145.0580 N   0  0  0  0  0  0  0  0  0  0  0  0
  191.3340  176.4370  147.1820 C   0  0  0  0  0  3  0  0  0  0  0  0
  186.5310  178.6140  142.7440 C   0  0  0  0  0  0  0  0  0  0  0  0
  185.1780  178.9370  142.8560 C   0  0  0  0  0  3  0  0  0  0  0  0
  190.6750  177.3900  142.3560 C   0  0  0  0  0  2  0  0  0  0  0  0
  190.7740  177.0860  144.8050 C   0  0  0  0  0  0  0  0  0  0  0  0
  191.6800  176.7530  145.9270 C   0  0  0  0  0  3  0  0  0  0  0  0
  189.0670  177.9580  140.1340 O   0  0  0  0  0  0  0  0  0  0  0  0
  187.3140  178.2060  135.8400 C   0  0  0  0  0  0  0  0  0  0  0  0
  187.0080  177.8300  138.2720 C   0  0  0  0  0  2  0  0  0  0  0  0
  190.5560  177.0470  137.4970 C   0  0  0  0  0  2  0  0  0  0  0  0
  190.4670  176.4650  138.9040 C   0  0  0  0  0  2  0  0  0  0  0  0
  186.8280  178.5720  134.5940 O   0  0  0  0  0  1  0  0  0  0  0  0
  189.0550  176.7470  139.4290 C   0  0  2  0  0  3  0  0  0  0  0  0
  186.4840  178.1480  136.8920 C   0  0  0  0  0  3  0  0  0  0  0  0
  189.1440  177.2630  137.1210 C   0  0  0  0  0  0  0  0  0  0  0  0
  188.1870  176.8490  138.1780 C   0  0  2  0  0  3  0  0  0  0  0  0
  188.7460  177.8770  136.0040 C   0  0  0  0  0  3  0  0  0  0  0  0
  1  9  1  0  0  0  0
  2  5  1  0  0  0  0
  2  3  1  0  0  0  0
  3  7  1  0  0  0  0
  4 11  2  0  0  0  0
  5 14  2  0  0  0  0
  6  1  2  0  0  0  0
  7  4  1  0  0  0  0
  8 21  1  6  0  0  0
  8 12  1  0  0  0  0
  8 13  1  0  0  0  0
 10 19  1  0  0  0  0
 12 16  1  0  0  0  0
 13  2  2  0  0  0  0
 14  1  1  0  0  0  0
 15 11  1  0  0  0  0
 16 17  2  0  0  0  0
 16  5  1  0  0  0  0
 17  6  1  0  0  0  0
 18 13  1  0  0  0  0
 18 10  1  0  0  0  0
 19  3  2  0  0  0  0
 19 20  1  0  0  0  0
 20 15  2  0  0  0  0
 22 31  1  0  0  0  0
 22 28  2  0  0  0  0
 24 25  1  0  0  0  0
 25 27  1  0  0  0  0
 26 22  1  0  0  0  0
 27 21  1  6  0  0  0
 28 23  1  0  0  0  0
 29 24  1  0  0  0  0
 29 30  1  0  0  0  0
 30 23  1  1  0  0  0
 30 27  1  0  0  0  0
 31 29  2  0  0  0  0
M  END
>  <MODEL>
7

>  <REMARK>
 VINA RESULT:      -9.6      2.081      4.435
  Name = 
  2 active torsions:
  status: ('A' for Active; 'I' for Inactive)
    1  A    between atoms: C_9  and  O_23
    2  A    between atoms: C_15  and  O_23
                            x       y       z     vdW  Elec       q    Type
                         _______ _______ _______ _____ _____    ______ ____

>  <TORSDO>
F 2

$$$$
=
 OpenBabel11052413043D

 31 36  0  0  1  0  0  0  0  0999 V2000
  187.6540  178.0100  137.6930 C   0  0  0  0  0  0  0  0  0  0  0  0
  185.8150  178.5600  140.9160 C   0  0  0  0  0  0  0  0  0  0  0  0
  184.4180  178.8880  140.4940 C   0  0  0  0  0  0  0  0  0  0  0  0
  183.3000  178.5230  138.3170 C   0  0  0  0  0  3  0  0  0  0  0  0
  186.9180  178.3900  139.9260 C   0  0  0  0  0  0  0  0  0  0  0  0
  188.9890  178.0380  138.1000 C   0  0  0  0  0  3  0  0  0  0  0  0
  184.1560  179.4380  139.1240 C   0  0  0  0  0  2  0  0  0  0  0  0
  187.4820  177.9990  142.6840 C   0  0  2  0  0  3  0  0  0  0  0  0
  187.3330  177.8030  136.3230 N   0  0  0  0  0  1  0  0  0  0  0  0
  183.7270  178.4720  142.7220 O   0  0  0  0  0  0  0  0  0  0  0  0
  182.0460  178.2330  138.6570 C   0  0  0  0  0  3  0  0  0  0  0  0
  188.5610  178.6430  141.8140 C   0  0  0  0  0  2  0  0  0  0  0  0
  186.0930  178.4070  142.2320 C   0  0  0  0  0  0  0  0  0  0  0  0
  186.6590  178.1840  138.6040 N   0  0  0  0  0  0  0  0  0  0  0  0
  181.3860  178.7000  139.8900 C   0  0  0  0  0  3  0  0  0  0  0  0
  188.2550  178.4010  140.3700 C   0  0  0  0  0  0  0  0  0  0  0  0
  189.2880  178.2380  139.4470 C   0  0  0  0  0  3  0  0  0  0  0  0
  185.0300  178.6800  143.2590 C   0  0  0  0  0  2  0  0  0  0  0  0
  183.4170  178.7740  141.3910 C   0  0  0  0  0  0  0  0  0  0  0  0
  181.9830  178.9410  141.0640 C   0  0  0  0  0  3  0  0  0  0  0  0
  187.7010  178.3300  144.0260 O   0  0  0  0  0  0  0  0  0  0  0  0
  191.0540  177.0700  146.9810 C   0  0  0  0  0  0  0  0  0  0  0  0
  190.0320  176.9880  144.7240 C   0  0  0  0  0  2  0  0  0  0  0  0
  187.3030  177.7840  147.1150 C   0  0  0  0  0  2  0  0  0  0  0  0
  186.4720  177.4580  145.8790 C   0  0  0  0  0  2  0  0  0  0  0  0
  192.1500  176.9720  147.8270 O   0  0  0  0  0  1  0  0  0  0  0  0
  187.4480  177.1500  144.7380 C   0  0  2  0  0  3  0  0  0  0  0  0
  191.1930  176.8100  145.6730 C   0  0  0  0  0  3  0  0  0  0  0  0
  188.6480  177.2750  146.7750 C   0  0  0  0  0  0  0  0  0  0  0  0
  188.7120  176.6460  145.4320 C   0  0  2  0  0  3  0  0  0  0  0  0
  189.7360  177.4550  147.5270 C   0  0  0  0  0  3  0  0  0  0  0  0
  1  6  2  0  0  0  0
  1 14  1  0  0  0  0
  2 13  2  0  0  0  0
  3  2  1  0  0  0  0
  3 19  2  0  0  0  0
  4 11  2  0  0  0  0
  4  7  1  0  0  0  0
  5 16  1  0  0  0  0
  5  2  1  0  0  0  0
  6 17  1  0  0  0  0
  7  3  1  0  0  0  0
  8 21  1  1  0  0  0
  9  1  1  0  0  0  0
 10 18  1  0  0  0  0
 11 15  1  0  0  0  0
 12  8  1  0  0  0  0
 13  8  1  0  0  0  0
 13 18  1  0  0  0  0
 14  5  2  0  0  0  0
 15 20  2  0  0  0  0
 16 12  1  0  0  0  0
 17 16  2  0  0  0  0
 19 10  1  0  0  0  0
 20 19  1  0  0  0  0
 22 31  1  0  0  0  0
 22 26  1  0  0  0  0
 23 28  1  0  0  0  0
 25 24  1  0  0  0  0
 27 21  1  1  0  0  0
 27 30  1  0  0  0  0
 27 25  1  0  0  0  0
 28 22  2  0  0  0  0
 29 24  1  0  0  0  0
 29 31  2  0  0  0  0
 30 23  1  6  0  0  0
 30 29  1  0  0  0  0
M  END
>  <MODEL>
8

>  <REMARK>
 VINA RESULT:      -9.6      3.560      7.372
  Name = 
  2 active torsions:
  status: ('A' for Active; 'I' for Inactive)
    1  A    between atoms: C_9  and  O_23
    2  A    between atoms: C_15  and  O_23
                            x       y       z     vdW  Elec       q    Type
                         _______ _______ _______ _____ _____    ______ ____

>  <TORSDO>
F 2

$$$$
=
 OpenBabel11052413043D

 31 36  0  0  1  0  0  0  0  0999 V2000
  182.5160  178.1120  138.1800 C   0  0  0  0  0  0  0  0  0  0  0  0
  185.9830  178.2580  139.6060 C   0  0  0  0  0  0  0  0  0  0  0  0
  186.8690  177.8770  138.4630 C   0  0  0  0  0  0  0  0  0  0  0  0
  186.3800  177.8150  136.0390 C   0  0  0  0  0  3  0  0  0  0  0  0
  184.4950  178.2050  139.5020 C   0  0  0  0  0  0  0  0  0  0  0  0
  181.7180  178.1430  139.3250 C   0  0  0  0  0  3  0  0  0  0  0  0
  186.3240  177.0660  137.3260 C   0  0  0  0  0  2  0  0  0  0  0  0
  185.6650  179.1340  141.9190 C   0  0  2  0  0  3  0  0  0  0  0  0
  181.9110  178.0440  136.8950 N   0  0  0  0  0  1  0  0  0  0  0  0
  188.7000  178.7470  139.6910 O   0  0  0  0  0  0  0  0  0  0  0  0
  187.5290  178.1900  135.4810 C   0  0  0  0  0  3  0  0  0  0  0  0
  184.3810  178.3090  142.0120 C   0  0  0  0  0  2  0  0  0  0  0  0
  186.5380  178.6690  140.7710 C   0  0  0  0  0  0  0  0  0  0  0  0
  183.8710  178.1440  138.2920 N   0  0  0  0  0  0  0  0  0  0  0  0
  188.8570  177.9930  136.0910 C   0  0  0  0  0  3  0  0  0  0  0  0
  183.7160  178.2590  140.6740 C   0  0  0  0  0  0  0  0  0  0  0  0
  182.3260  178.2140  140.5780 C   0  0  0  0  0  3  0  0  0  0  0  0
  188.0310  178.6280  140.9440 C   0  0  0  0  0  2  0  0  0  0  0  0
  188.1810  178.1880  138.5180 C   0  0  0  0  0  0  0  0  0  0  0  0
  189.1320  177.9840  137.4010 C   0  0  0  0  0  3  0  0  0  0  0  0
  186.3500  179.0780  143.1380 O   0  0  0  0  0  0  0  0  0  0  0  0
  189.0160  177.1280  146.4030 C   0  0  0  0  0  0  0  0  0  0  0  0
  188.1930  177.2160  144.0660 C   0  0  0  0  0  2  0  0  0  0  0  0
  185.5790  178.7820  146.1900 C   0  0  0  0  0  2  0  0  0  0  0  0
  184.7940  178.6280  144.8920 C   0  0  0  0  0  2  0  0  0  0  0  0
  189.9780  176.7890  147.3440 O   0  0  0  0  0  1  0  0  0  0  0  0
  185.7460  178.0330  143.8480 C   0  0  2  0  0  3  0  0  0  0  0  0
  189.1880  176.7860  145.1170 C   0  0  0  0  0  3  0  0  0  0  0  0
  186.7690  177.9330  145.9810 C   0  0  0  0  0  0  0  0  0  0  0  0
  186.7760  177.2530  144.6610 C   0  0  2  0  0  3  0  0  0  0  0  0
  187.8030  177.8600  146.8220 C   0  0  0  0  0  3  0  0  0  0  0  0
  1 14  2  0  0  0  0
  1  6  1  0  0  0  0
  2 13  2  0  0  0  0
  3 19  2  0  0  0  0
  3  2  1  0  0  0  0
  4  7  1  0  0  0  0
  5  2  1  0  0  0  0
  5 16  2  0  0  0  0
  6 17  2  0  0  0  0
  7  3  1  0  0  0  0
  8 12  1  0  0  0  0
  8 21  1  1  0  0  0
  9  1  1  0  0  0  0
 10 18  1  0  0  0  0
 11  4  2  0  0  0  0
 11 15  1  0  0  0  0
 13 18  1  0  0  0  0
 13  8  1  0  0  0  0
 14  5  1  0  0  0  0
 15 20  2  0  0  0  0
 16 12  1  0  0  0  0
 17 16  1  0  0  0  0
 19 10  1  0  0  0  0
 20 19  1  0  0  0  0
 22 31  1  0  0  0  0
 22 26  1  0  0  0  0
 23 28  1  0  0  0  0
 25 24  1  0  0  0  0
 27 21  1  1  0  0  0
 27 30  1  0  0  0  0
 27 25  1  0  0  0  0
 28 22  2  0  0  0  0
 29 24  1  0  0  0  0
 29 31  2  0  0  0  0
 30 23  1  6  0  0  0
 30 29  1  0  0  0  0
M  END
>  <MODEL>
9

>  <REMARK>
 VINA RESULT:      -9.5      3.685      8.582
  Name = 
  2 active torsions:
  status: ('A' for Active; 'I' for Inactive)
    1  A    between atoms: C_9  and  O_23
    2  A    between atoms: C_15  and  O_23
                            x       y       z     vdW  Elec       q    Type
                         _______ _______ _______ _____ _____    ______ ____

>  <TORSDO>
F 2

$$$$
