=
 OpenBabel11052416543D

 32 36  0  0  1  0  0  0  0  0999 V2000
  188.7310  177.3780  146.9700 C   0  0  0  0  0  3  0  0  0  0  0  0
  186.2470  178.2750  142.4070 C   0  0  0  0  0  0  0  0  0  0  0  0
  181.6510  178.8490  143.9060 C   0  0  0  0  0  3  0  0  0  0  0  0
  181.2580  179.0540  142.5820 C   0  0  0  0  0  3  0  0  0  0  0  0
  188.0740  177.8130  143.9340 N   0  0  0  0  0  0  0  0  0  0  0  0
  185.7340  178.1060  144.7390 C   0  0  0  0  0  3  0  0  0  0  0  0
  187.4510  177.6560  146.3200 C   0  0  0  0  0  3  0  0  0  0  0  0
  182.9920  178.6040  144.2080 C   0  0  0  0  0  3  0  0  0  0  0  0
  185.3210  178.3090  143.4770 C   0  0  0  0  0  0  0  0  0  0  0  0
  183.9620  178.5600  143.1880 C   0  0  0  0  0  0  0  0  0  0  0  0
  184.5230  178.7310  140.8250 C   0  0  0  0  0  0  0  0  0  0  0  0
  190.2610  177.3400  145.0210 C   0  0  0  0  0  3  0  0  0  0  0  0
  187.1470  177.8430  145.0400 C   0  0  0  0  0  0  0  0  0  0  0  0
  189.4850  177.5800  143.9690 C   0  0  0  0  0  3  0  0  0  0  0  0
  189.9450  177.2370  146.4510 C   0  0  0  0  0  0  0  0  0  0  0  0
  182.2060  179.0140  141.5590 C   0  0  0  0  0  3  0  0  0  0  0  0
  183.5580  178.7720  141.8470 C   0  0  0  0  0  0  0  0  0  0  0  0
  187.5480  178.0410  142.6190 C   0  0  0  0  0  3  0  0  0  0  0  0
  185.8220  178.4850  141.1340 N   0  0  0  0  0  0  0  0  0  0  0  0
  192.0450  175.9930  147.2640 C   0  0  0  0  0  0  0  0  0  0  0  0
  190.9980  176.9650  147.3880 N   0  0  0  0  0  2  0  0  0  0  0  0
  192.1300  175.2470  146.2540 O   0  0  0  0  0  0  0  0  0  0  0  0
  193.0050  175.8680  148.3050 N   0  0  0  0  0  1  0  0  0  0  0  0
  184.1550  178.9670  139.3910 C   0  0  0  0  0  2  0  0  0  0  0  0
  185.2960  177.4370  137.7540 C   0  0  0  0  0  0  0  0  0  0  0  0
  183.3600  176.6120  138.5420 C   0  0  0  0  0  0  0  0  0  0  0  0
  183.7770  175.6870  137.6930 C   0  0  0  0  0  3  0  0  0  0  0  0
  185.0800  176.1180  137.0910 C   0  0  0  0  0  3  0  0  0  0  0  0
  182.1000  176.5120  139.3270 C   0  0  0  0  0  1  0  0  0  0  0  0
  184.3080  177.7090  138.5910 C   0  0  2  0  0  3  0  0  0  0  0  0
  186.4220  178.2950  137.4920 C   0  0  0  0  0  0  0  0  0  0  0  0
  187.3260  178.9860  137.2800 N   0  0  0  0  0  0  0  0  0  0  0  0
  2 18  2  0  0  0  0
  2  9  1  0  0  0  0
  3  8  1  0  0  0  0
  4  3  2  0  0  0  0
  5 14  1  0  0  0  0
  5 13  1  0  0  0  0
  6 13  1  0  0  0  0
  7  1  1  0  0  0  0
  9  6  2  0  0  0  0
 10  9  1  0  0  0  0
 10  8  2  0  0  0  0
 11 19  2  0  0  0  0
 11 17  1  0  0  0  0
 12 15  1  0  0  0  0
 13  7  2  0  0  0  0
 14 12  2  0  0  0  0
 15  1  2  0  0  0  0
 15 21  1  0  0  0  0
 16 17  2  0  0  0  0
 16  4  1  0  0  0  0
 17 10  1  0  0  0  0
 18  5  1  0  0  0  0
 19  2  1  0  0  0  0
 20 21  1  0  0  0  0
 20 23  1  0  0  0  0
 22 20  2  0  0  0  0
 24 11  1  0  0  0  0
 25 30  1  0  0  0  0
 26 30  1  0  0  0  0
 26 29  1  0  0  0  0
 27 26  2  0  0  0  0
 28 27  1  0  0  0  0
 28 25  2  0  0  0  0
 30 24  1  6  0  0  0
 31 25  1  0  0  0  0
 32 31  3  0  0  0  0
M  END
>  <MODEL>
1

>  <REMARK>
 VINA RESULT:     -10.5      0.000      0.000
  Name = 
  4 active torsions:
  status: ('A' for Active; 'I' for Inactive)
    1  A    between atoms: C_6  and  C_7
    2  A    between atoms: N_10  and  C_24
    3  A    between atoms: C_16  and  C_27
    4  A    between atoms: C_27  and  C_32
                            x       y       z     vdW  Elec       q    Type
                         _______ _______ _______ _____ _____    ______ ____

>  <TORSDO>
F 4

$$$$
=
 OpenBabel11052416543D

 32 36  0  0  1  0  0  0  0  0999 V2000
  188.7050  177.3910  146.8270 C   0  0  0  0  0  3  0  0  0  0  0  0
  186.2540  178.3040  142.2490 C   0  0  0  0  0  0  0  0  0  0  0  0
  181.6460  178.8580  143.7160 C   0  0  0  0  0  3  0  0  0  0  0  0
  181.2620  179.0690  142.3910 C   0  0  0  0  0  3  0  0  0  0  0  0
  188.0710  177.8390  143.7890 N   0  0  0  0  0  0  0  0  0  0  0  0
  185.7240  178.1220  144.5760 C   0  0  0  0  0  3  0  0  0  0  0  0
  187.4300  177.6680  146.1690 C   0  0  0  0  0  3  0  0  0  0  0  0
  182.9850  178.6150  144.0270 C   0  0  0  0  0  3  0  0  0  0  0  0
  185.3200  178.3310  143.3120 C   0  0  0  0  0  0  0  0  0  0  0  0
  183.9620  178.5800  143.0150 C   0  0  0  0  0  0  0  0  0  0  0  0
  184.5410  178.7640  140.6570 C   0  0  0  0  0  0  0  0  0  0  0  0
  190.2510  177.3670  144.8900 C   0  0  0  0  0  3  0  0  0  0  0  0
  187.1360  177.8620  144.8870 C   0  0  0  0  0  0  0  0  0  0  0  0
  189.4820  177.6110  143.8330 C   0  0  0  0  0  3  0  0  0  0  0  0
  189.9240  177.2560  146.3170 C   0  0  0  0  0  0  0  0  0  0  0  0
  182.2190  179.0370  141.3740 C   0  0  0  0  0  3  0  0  0  0  0  0
  183.5690  178.7970  141.6710 C   0  0  0  0  0  0  0  0  0  0  0  0
  187.5550  178.0730  142.4700 C   0  0  0  0  0  3  0  0  0  0  0  0
  185.8390  178.5190  140.9740 N   0  0  0  0  0  0  0  0  0  0  0  0
  192.0200  176.0110  147.1410 C   0  0  0  0  0  0  0  0  0  0  0  0
  190.9710  176.9810  147.2600 N   0  0  0  0  0  2  0  0  0  0  0  0
  192.1130  175.2680  146.1290 O   0  0  0  0  0  0  0  0  0  0  0  0
  192.9720  175.8840  148.1880 N   0  0  0  0  0  1  0  0  0  0  0  0
  184.1840  179.0060  139.2220 C   0  0  0  0  0  2  0  0  0  0  0  0
  183.7320  176.7230  138.2680 C   0  0  0  0  0  0  0  0  0  0  0  0
  185.7130  177.5770  137.6350 C   0  0  0  0  0  0  0  0  0  0  0  0
  185.6820  176.3850  137.0600 C   0  0  0  0  0  3  0  0  0  0  0  0
  184.3930  175.7020  137.4040 C   0  0  0  0  0  3  0  0  0  0  0  0
  186.8440  178.5340  137.5040 C   0  0  0  0  0  1  0  0  0  0  0  0
  184.4920  177.8000  138.3880 C   0  0  2  0  0  3  0  0  0  0  0  0
  182.4490  176.5400  138.8940 C   0  0  0  0  0  0  0  0  0  0  0  0
  181.4160  176.3940  139.3970 N   0  0  0  0  0  0  0  0  0  0  0  0
  2 18  2  0  0  0  0
  2  9  1  0  0  0  0
  3  8  1  0  0  0  0
  4  3  2  0  0  0  0
  5 14  1  0  0  0  0
  5 13  1  0  0  0  0
  6 13  1  0  0  0  0
  7  1  1  0  0  0  0
  9  6  2  0  0  0  0
 10  9  1  0  0  0  0
 10  8  2  0  0  0  0
 11 19  2  0  0  0  0
 11 17  1  0  0  0  0
 12 15  1  0  0  0  0
 13  7  2  0  0  0  0
 14 12  2  0  0  0  0
 15  1  2  0  0  0  0
 15 21  1  0  0  0  0
 16 17  2  0  0  0  0
 16  4  1  0  0  0  0
 17 10  1  0  0  0  0
 18  5  1  0  0  0  0
 19  2  1  0  0  0  0
 20 21  1  0  0  0  0
 20 23  1  0  0  0  0
 22 20  2  0  0  0  0
 24 11  1  0  0  0  0
 25 30  1  0  0  0  0
 25 31  1  0  0  0  0
 26 30  1  0  0  0  0
 27 28  1  0  0  0  0
 27 26  2  0  0  0  0
 28 25  2  0  0  0  0
 29 26  1  0  0  0  0
 30 24  1  1  0  0  0
 31 32  3  0  0  0  0
M  END
>  <MODEL>
2

>  <REMARK>
 VINA RESULT:     -10.0      0.958      1.882
  Name = 
  4 active torsions:
  status: ('A' for Active; 'I' for Inactive)
    1  A    between atoms: C_6  and  C_7
    2  A    between atoms: N_10  and  C_24
    3  A    between atoms: C_16  and  C_27
    4  A    between atoms: C_27  and  C_32
                            x       y       z     vdW  Elec       q    Type
                         _______ _______ _______ _____ _____    ______ ____

>  <TORSDO>
F 4

$$$$
=
 OpenBabel11052416543D

 32 36  0  0  0  0  0  0  0  0999 V2000
  191.7960  176.7930  144.1800 C   0  0  0  0  0  3  0  0  0  0  0  0
  188.5850  177.8120  140.1230 C   0  0  0  0  0  0  0  0  0  0  0  0
  191.2470  176.2350  136.3650 C   0  0  0  0  0  3  0  0  0  0  0  0
  190.2210  176.6080  135.4970 C   0  0  0  0  0  3  0  0  0  0  0  0
  189.3650  177.7020  142.4180 N   0  0  0  0  0  0  0  0  0  0  0  0
  190.7540  176.8790  140.5200 C   0  0  0  0  0  3  0  0  0  0  0  0
  191.6130  176.7240  142.7310 C   0  0  0  0  0  3  0  0  0  0  0  0
  191.1090  176.4350  137.7400 C   0  0  0  0  0  3  0  0  0  0  0  0
  189.7850  177.2240  139.6550 C   0  0  0  0  0  0  0  0  0  0  0  0
  189.9390  177.0120  138.2680 C   0  0  0  0  0  0  0  0  0  0  0  0
  187.7260  177.9620  137.9050 C   0  0  0  0  0  0  0  0  0  0  0  0
  189.6570  177.8280  144.8850 C   0  0  0  0  0  3  0  0  0  0  0  0
  190.5960  177.1010  141.9630 C   0  0  0  0  0  0  0  0  0  0  0  0
  188.9770  178.0160  143.7580 C   0  0  0  0  0  3  0  0  0  0  0  0
  190.9880  177.2550  145.1260 C   0  0  0  0  0  0  0  0  0  0  0  0
  189.0530  177.1810  136.0030 C   0  0  0  0  0  3  0  0  0  0  0  0
  188.8980  177.3860  137.3830 C   0  0  0  0  0  0  0  0  0  0  0  0
  188.3830  178.0390  141.4280 C   0  0  0  0  0  3  0  0  0  0  0  0
  187.6090  178.1560  139.2440 N   0  0  0  0  0  0  0  0  0  0  0  0
  192.1540  176.0630  147.0850 C   0  0  0  0  0  0  0  0  0  0  0  0
  191.4850  177.1720  146.4700 N   0  0  0  0  0  2  0  0  0  0  0  0
  192.3750  174.9980  146.4520 O   0  0  0  0  0  0  0  0  0  0  0  0
  192.5760  176.1680  148.4390 N   0  0  0  0  0  1  0  0  0  0  0  0
  186.5860  178.3580  137.0160 C   0  0  0  0  0  2  0  0  0  0  0  0
  184.3590  177.8970  138.0900 C   0  0  0  0  0  0  0  0  0  0  0  0
  185.1340  176.1750  136.8700 C   0  0  0  0  0  0  0  0  0  0  0  0
  183.9900  175.7270  137.3610 C   0  0  0  0  0  3  0  0  0  0  0  0
  183.3600  176.7950  138.2030 C   0  0  0  0  0  2  0  0  0  0  0  0
  186.0260  175.3800  135.9830 C   0  0  0  0  0  1  0  0  0  0  0  0
  185.3700  177.5360  137.3160 C   0  0  0  0  0  0  0  0  0  0  0  0
  184.2360  179.1680  138.7540 C   0  0  0  0  0  0  0  0  0  0  0  0
  184.1390  180.1910  139.2870 N   0  0  0  0  0  0  0  0  0  0  0  0
  1 15  2  0  0  0  0
  2 18  2  0  0  0  0
  3  8  1  0  0  0  0
  4 16  1  0  0  0  0
  4  3  2  0  0  0  0
  5 14  1  0  0  0  0
  6 13  1  0  0  0  0
  7  1  1  0  0  0  0
  8 10  2  0  0  0  0
  9  2  1  0  0  0  0
  9  6  2  0  0  0  0
 10  9  1  0  0  0  0
 11 19  2  0  0  0  0
 12 15  1  0  0  0  0
 13  5  1  0  0  0  0
 13  7  2  0  0  0  0
 14 12  2  0  0  0  0
 15 21  1  0  0  0  0
 16 17  2  0  0  0  0
 17 11  1  0  0  0  0
 17 10  1  0  0  0  0
 18  5  1  0  0  0  0
 19  2  1  0  0  0  0
 20 23  1  0  0  0  0
 21 20  1  0  0  0  0
 22 20  2  0  0  0  0
 24 30  1  0  0  0  0
 24 11  1  0  0  0  0
 25 28  1  0  0  0  0
 25 31  1  0  0  0  0
 26 30  1  0  0  0  0
 26 27  2  0  0  0  0
 27 28  1  0  0  0  0
 29 26  1  0  0  0  0
 30 25  2  0  0  0  0
 31 32  3  0  0  0  0
M  END
>  <MODEL>
3

>  <REMARK>
 VINA RESULT:      -8.9      2.567      5.231
  Name = 
  4 active torsions:
  status: ('A' for Active; 'I' for Inactive)
    1  A    between atoms: C_6  and  C_7
    2  A    between atoms: N_10  and  C_24
    3  A    between atoms: C_16  and  C_27
    4  A    between atoms: C_27  and  C_32
                            x       y       z     vdW  Elec       q    Type
                         _______ _______ _______ _____ _____    ______ ____

>  <TORSDO>
F 4

$$$$
=
 OpenBabel11052416543D

 32 36  0  0  0  0  0  0  0  0999 V2000
  191.7650  176.7740  144.2460 C   0  0  0  0  0  3  0  0  0  0  0  0
  188.4310  177.8360  140.3010 C   0  0  0  0  0  0  0  0  0  0  0  0
  191.0180  176.3960  136.4370 C   0  0  0  0  0  3  0  0  0  0  0  0
  189.9630  176.7720  135.6060 C   0  0  0  0  0  3  0  0  0  0  0  0
  189.2740  177.6830  142.5710 N   0  0  0  0  0  0  0  0  0  0  0  0
  190.6250  176.9310  140.6170 C   0  0  0  0  0  3  0  0  0  0  0  0
  191.5450  176.7370  142.8010 C   0  0  0  0  0  3  0  0  0  0  0  0
  190.9130  176.5600  137.8190 C   0  0  0  0  0  3  0  0  0  0  0  0
  189.6280  177.2800  139.7880 C   0  0  0  0  0  0  0  0  0  0  0  0
  189.7480  177.1040  138.3920 C   0  0  0  0  0  0  0  0  0  0  0  0
  187.5110  178.0240  138.1100 C   0  0  0  0  0  0  0  0  0  0  0  0
  189.6280  177.7540  145.0320 C   0  0  0  0  0  3  0  0  0  0  0  0
  190.5010  177.1150  142.0690 C   0  0  0  0  0  0  0  0  0  0  0  0
  188.9160  177.9570  143.9290 C   0  0  0  0  0  3  0  0  0  0  0  0
  190.9740  177.1990  145.2240 C   0  0  0  0  0  0  0  0  0  0  0  0
  188.8000  177.3130  136.1560 C   0  0  0  0  0  3  0  0  0  0  0  0
  188.6780  177.4820  137.5440 C   0  0  0  0  0  0  0  0  0  0  0  0
  188.2600  178.0280  141.6160 C   0  0  0  0  0  3  0  0  0  0  0  0
  187.4260  178.1840  139.4560 N   0  0  0  0  0  0  0  0  0  0  0  0
  192.2210  175.9840  147.1190 C   0  0  0  0  0  0  0  0  0  0  0  0
  191.5090  177.0910  146.5520 N   0  0  0  0  0  2  0  0  0  0  0  0
  192.4520  174.9430  146.4500 O   0  0  0  0  0  0  0  0  0  0  0  0
  192.6760  176.0630  148.4630 N   0  0  0  0  0  1  0  0  0  0  0  0
  186.3420  178.4230  137.2620 C   0  0  0  0  0  2  0  0  0  0  0  0
  184.7420  176.4830  137.3060 C   0  0  0  0  0  0  0  0  0  0  0  0
  184.0560  178.2310  138.5410 C   0  0  0  0  0  0  0  0  0  0  0  0
  183.0800  177.3470  138.6730 C   0  0  0  0  0  3  0  0  0  0  0  0
  183.4190  176.1140  137.8910 C   0  0  0  0  0  2  0  0  0  0  0  0
  184.0560  179.5710  139.1880 C   0  0  0  0  0  1  0  0  0  0  0  0
  185.1040  177.6960  137.6920 C   0  0  0  0  0  0  0  0  0  0  0  0
  185.5000  175.6300  136.4290 C   0  0  0  0  0  0  0  0  0  0  0  0
  186.1110  174.9440  135.7240 N   0  0  0  0  0  0  0  0  0  0  0  0
  1 15  2  0  0  0  0
  2 18  2  0  0  0  0
  3  8  1  0  0  0  0
  4 16  1  0  0  0  0
  4  3  2  0  0  0  0
  5 14  1  0  0  0  0
  6 13  1  0  0  0  0
  7  1  1  0  0  0  0
  8 10  2  0  0  0  0
  9  2  1  0  0  0  0
  9  6  2  0  0  0  0
 10  9  1  0  0  0  0
 11 19  2  0  0  0  0
 12 15  1  0  0  0  0
 13  5  1  0  0  0  0
 13  7  2  0  0  0  0
 14 12  2  0  0  0  0
 15 21  1  0  0  0  0
 16 17  2  0  0  0  0
 17 11  1  0  0  0  0
 17 10  1  0  0  0  0
 18  5  1  0  0  0  0
 19  2  1  0  0  0  0
 20 23  1  0  0  0  0
 21 20  1  0  0  0  0
 22 20  2  0  0  0  0
 24 30  1  0  0  0  0
 24 11  1  0  0  0  0
 25 30  2  0  0  0  0
 25 28  1  0  0  0  0
 26 27  2  0  0  0  0
 26 29  1  0  0  0  0
 28 27  1  0  0  0  0
 30 26  1  0  0  0  0
 31 25  1  0  0  0  0
 32 31  3  0  0  0  0
M  END
>  <MODEL>
4

>  <REMARK>
 VINA RESULT:      -8.7      2.381      5.055
  Name = 
  4 active torsions:
  status: ('A' for Active; 'I' for Inactive)
    1  A    between atoms: C_6  and  C_7
    2  A    between atoms: N_10  and  C_24
    3  A    between atoms: C_16  and  C_27
    4  A    between atoms: C_27  and  C_32
                            x       y       z     vdW  Elec       q    Type
                         _______ _______ _______ _____ _____    ______ ____

>  <TORSDO>
F 4

$$$$
=
 OpenBabel11052416543D

 32 36  0  0  1  0  0  0  0  0999 V2000
  182.9610  178.5720  141.4830 C   0  0  0  0  0  3  0  0  0  0  0  0
  187.8400  178.2880  143.4620 C   0  0  0  0  0  0  0  0  0  0  0  0
  186.9260  177.8420  148.2220 C   0  0  0  0  0  3  0  0  0  0  0  0
  188.2990  177.7950  148.4690 C   0  0  0  0  0  3  0  0  0  0  0  0
  186.0800  178.4850  141.8040 N   0  0  0  0  0  0  0  0  0  0  0  0
  185.5740  178.2530  144.2320 C   0  0  0  0  0  3  0  0  0  0  0  0
  183.7730  178.4380  142.6910 C   0  0  0  0  0  3  0  0  0  0  0  0
  186.4540  177.9750  146.9150 C   0  0  0  0  0  3  0  0  0  0  0  0
  186.8880  178.2020  144.5060 C   0  0  0  0  0  0  0  0  0  0  0  0
  187.3500  178.0630  145.8330 C   0  0  0  0  0  0  0  0  0  0  0  0
  189.6410  178.0970  145.0110 C   0  0  0  0  0  0  0  0  0  0  0  0
  184.7140  178.7140  139.7370 C   0  0  0  0  0  3  0  0  0  0  0  0
  185.0920  178.3990  142.8520 C   0  0  0  0  0  0  0  0  0  0  0  0
  185.8650  178.6280  140.3970 C   0  0  0  0  0  3  0  0  0  0  0  0
  183.3240  178.6920  140.2110 C   0  0  0  0  0  0  0  0  0  0  0  0
  189.2010  177.8810  147.4070 C   0  0  0  0  0  3  0  0  0  0  0  0
  188.7420  178.0120  146.0880 C   0  0  0  0  0  0  0  0  0  0  0  0
  187.4620  178.4220  142.1840 C   0  0  0  0  0  3  0  0  0  0  0  0
  189.1670  178.2340  143.7450 N   0  0  0  0  0  0  0  0  0  0  0  0
  181.8380  179.9800  138.5530 C   0  0  0  0  0  0  0  0  0  0  0  0
  182.2540  178.8050  139.2620 N   0  0  0  0  0  2  0  0  0  0  0  0
  182.4180  181.0850  138.7180 O   0  0  0  0  0  0  0  0  0  0  0  0
  180.7470  179.8950  137.6450 N   0  0  0  0  0  1  0  0  0  0  0  0
  191.1240  178.0290  145.2210 C   0  0  0  0  0  2  0  0  0  0  0  0
  191.6800  175.8840  144.0330 C   0  0  0  0  0  0  0  0  0  0  0  0
  191.9990  175.7790  146.2550 C   0  0  0  0  0  0  0  0  0  0  0  0
  192.3160  174.5660  145.8320 C   0  0  0  0  0  3  0  0  0  0  0  0
  192.1480  174.5010  144.3430 C   0  0  0  0  0  3  0  0  0  0  0  0
  192.0560  176.2030  147.6800 C   0  0  0  0  0  1  0  0  0  0  0  0
  191.6060  176.6130  145.1340 C   0  0  2  0  0  3  0  0  0  0  0  0
  191.3420  176.3420  142.7110 C   0  0  0  0  0  0  0  0  0  0  0  0
  191.0710  176.7110  141.6470 N   0  0  0  0  0  0  0  0  0  0  0  0
  1  7  1  0  0  0  0
  2 19  1  0  0  0  0
  2  9  1  0  0  0  0
  3  4  1  0  0  0  0
  5 18  1  0  0  0  0
  5 13  1  0  0  0  0
  6  9  2  0  0  0  0
  7 13  2  0  0  0  0
  8  3  2  0  0  0  0
  9 10  1  0  0  0  0
 10 17  2  0  0  0  0
 10  8  1  0  0  0  0
 11 24  1  0  0  0  0
 11 17  1  0  0  0  0
 12 15  1  0  0  0  0
 12 14  2  0  0  0  0
 13  6  1  0  0  0  0
 14  5  1  0  0  0  0
 15  1  2  0  0  0  0
 16  4  2  0  0  0  0
 17 16  1  0  0  0  0
 18  2  2  0  0  0  0
 19 11  2  0  0  0  0
 20 22  2  0  0  0  0
 20 21  1  0  0  0  0
 21 15  1  0  0  0  0
 23 20  1  0  0  0  0
 25 28  2  0  0  0  0
 25 30  1  0  0  0  0
 26 29  1  0  0  0  0
 27 26  2  0  0  0  0
 28 27  1  0  0  0  0
 30 24  1  1  0  0  0
 30 26  1  0  0  0  0
 31 25  1  0  0  0  0
 32 31  3  0  0  0  0
M  END
>  <MODEL>
5

>  <REMARK>
 VINA RESULT:      -8.6      3.321      8.602
  Name = 
  4 active torsions:
  status: ('A' for Active; 'I' for Inactive)
    1  A    between atoms: C_6  and  C_7
    2  A    between atoms: N_10  and  C_24
    3  A    between atoms: C_16  and  C_27
    4  A    between atoms: C_27  and  C_32
                            x       y       z     vdW  Elec       q    Type
                         _______ _______ _______ _____ _____    ______ ____

>  <TORSDO>
F 4

$$$$
=
 OpenBabel11052416543D

 32 36  0  0  1  0  0  0  0  0999 V2000
  189.5670  177.5000  146.2930 C   0  0  0  0  0  3  0  0  0  0  0  0
  188.1620  177.9570  141.2310 C   0  0  0  0  0  0  0  0  0  0  0  0
  183.3720  178.7260  141.6250 C   0  0  0  0  0  3  0  0  0  0  0  0
  183.2820  178.8000  140.2340 C   0  0  0  0  0  3  0  0  0  0  0  0
  189.5990  177.6330  143.1590 N   0  0  0  0  0  0  0  0  0  0  0  0
  187.1510  178.0300  143.3990 C   0  0  0  0  0  3  0  0  0  0  0  0
  188.4680  177.7240  145.3550 C   0  0  0  0  0  3  0  0  0  0  0  0
  184.6060  178.4990  142.2350 C   0  0  0  0  0  3  0  0  0  0  0  0
  187.0280  178.1090  142.0640 C   0  0  0  0  0  0  0  0  0  0  0  0
  185.7720  178.3430  141.4620 C   0  0  0  0  0  0  0  0  0  0  0  0
  186.8380  178.2690  139.2740 C   0  0  0  0  0  0  0  0  0  0  0  0
  191.4820  177.2510  144.7390 C   0  0  0  0  0  3  0  0  0  0  0  0
  188.4560  177.7850  144.0270 C   0  0  0  0  0  0  0  0  0  0  0  0
  190.9600  177.3910  143.5240 C   0  0  0  0  0  3  0  0  0  0  0  0
  190.8600  177.2960  146.0680 C   0  0  0  0  0  0  0  0  0  0  0  0
  184.4280  178.6480  139.4520 C   0  0  0  0  0  3  0  0  0  0  0  0
  185.6760  178.4220  140.0510 C   0  0  0  0  0  0  0  0  0  0  0  0
  189.3790  177.7330  141.7440 C   0  0  0  0  0  3  0  0  0  0  0  0
  188.0310  178.0420  139.8820 N   0  0  0  0  0  0  0  0  0  0  0  0
  192.4210  175.9390  147.5990 C   0  0  0  0  0  0  0  0  0  0  0  0
  191.6760  177.1090  147.2340 N   0  0  0  0  0  2  0  0  0  0  0  0
  192.4190  174.9100  146.8750 O   0  0  0  0  0  0  0  0  0  0  0  0
  193.1760  175.9430  148.8030 N   0  0  0  0  0  1  0  0  0  0  0  0
  186.7970  178.3630  137.7790 C   0  0  0  0  0  2  0  0  0  0  0  0
  187.9300  176.3270  136.8310 C   0  0  0  0  0  0  0  0  0  0  0  0
  185.6860  176.2170  136.7500 C   0  0  0  0  0  0  0  0  0  0  0  0
  186.0800  175.0840  136.1890 C   0  0  0  0  0  3  0  0  0  0  0  0
  187.5780  175.0290  136.1830 C   0  0  0  0  0  3  0  0  0  0  0  0
  184.2600  176.6030  136.9280 C   0  0  0  0  0  1  0  0  0  0  0  0
  186.8380  176.9980  137.1610 C   0  0  2  0  0  3  0  0  0  0  0  0
  189.2790  176.7810  137.0450 C   0  0  0  0  0  0  0  0  0  0  0  0
  190.3650  177.1440  137.2160 N   0  0  0  0  0  0  0  0  0  0  0  0
  2 18  2  0  0  0  0
  2  9  1  0  0  0  0
  3  8  1  0  0  0  0
  4  3  2  0  0  0  0
  5 14  1  0  0  0  0
  5 13  1  0  0  0  0
  6 13  1  0  0  0  0
  7  1  1  0  0  0  0
  9  6  2  0  0  0  0
 10  9  1  0  0  0  0
 10  8  2  0  0  0  0
 11 19  2  0  0  0  0
 11 17  1  0  0  0  0
 12 15  1  0  0  0  0
 13  7  2  0  0  0  0
 14 12  2  0  0  0  0
 15  1  2  0  0  0  0
 15 21  1  0  0  0  0
 16 17  2  0  0  0  0
 16  4  1  0  0  0  0
 17 10  1  0  0  0  0
 18  5  1  0  0  0  0
 19  2  1  0  0  0  0
 20 23  1  0  0  0  0
 21 20  1  0  0  0  0
 22 20  2  0  0  0  0
 24 11  1  0  0  0  0
 25 31  1  0  0  0  0
 25 30  1  0  0  0  0
 26 29  1  0  0  0  0
 26 30  1  0  0  0  0
 27 26  2  0  0  0  0
 28 27  1  0  0  0  0
 28 25  2  0  0  0  0
 30 24  1  6  0  0  0
 31 32  3  0  0  0  0
M  END
>  <MODEL>
6

>  <REMARK>
 VINA RESULT:      -8.4      1.596      2.390
  Name = 
  4 active torsions:
  status: ('A' for Active; 'I' for Inactive)
    1  A    between atoms: C_6  and  C_7
    2  A    between atoms: N_10  and  C_24
    3  A    between atoms: C_16  and  C_27
    4  A    between atoms: C_27  and  C_32
                            x       y       z     vdW  Elec       q    Type
                         _______ _______ _______ _____ _____    ______ ____

>  <TORSDO>
F 4

$$$$
=
 OpenBabel11052416543D

 32 36  0  0  0  0  0  0  0  0999 V2000
  191.7680  177.0970  143.9390 C   0  0  0  0  0  3  0  0  0  0  0  0
  187.5220  178.1730  141.0030 C   0  0  0  0  0  0  0  0  0  0  0  0
  189.2950  177.6230  136.5030 C   0  0  0  0  0  3  0  0  0  0  0  0
  188.0420  177.9490  135.9830 C   0  0  0  0  0  3  0  0  0  0  0  0
  188.8740  177.8510  142.9920 N   0  0  0  0  0  0  0  0  0  0  0  0
  189.8150  177.5550  140.7040 C   0  0  0  0  0  3  0  0  0  0  0  0
  191.2270  177.2150  142.5850 C   0  0  0  0  0  3  0  0  0  0  0  0
  189.4930  177.5920  137.8850 C   0  0  0  0  0  3  0  0  0  0  0  0
  188.6220  177.8630  140.1680 C   0  0  0  0  0  0  0  0  0  0  0  0
  188.4380  177.8860  138.7690 C   0  0  0  0  0  0  0  0  0  0  0  0
  186.1090  178.5090  139.1140 C   0  0  0  0  0  0  0  0  0  0  0  0
  189.7750  177.6550  145.3030 C   0  0  0  0  0  3  0  0  0  0  0  0
  190.0090  177.5320  142.1590 C   0  0  0  0  0  0  0  0  0  0  0  0
  188.8100  177.8960  144.4200 C   0  0  0  0  0  3  0  0  0  0  0  0
  191.1810  177.2760  145.1170 C   0  0  0  0  0  0  0  0  0  0  0  0
  186.9840  178.2450  136.8450 C   0  0  0  0  0  3  0  0  0  0  0  0
  187.1660  178.2150  138.2360 C   0  0  0  0  0  0  0  0  0  0  0  0
  187.6370  178.1680  142.3380 C   0  0  0  0  0  3  0  0  0  0  0  0
  186.3180  178.4810  140.4550 N   0  0  0  0  0  0  0  0  0  0  0  0
  191.8720  176.0740  147.2840 C   0  0  0  0  0  0  0  0  0  0  0  0
  192.0150  177.0760  146.2680 N   0  0  0  0  0  2  0  0  0  0  0  0
  190.9380  175.2310  147.2460 O   0  0  0  0  0  0  0  0  0  0  0  0
  192.8030  176.0340  148.3570 N   0  0  0  0  0  1  0  0  0  0  0  0
  184.7390  178.8430  138.6050 C   0  0  0  0  0  2  0  0  0  0  0  0
  183.1080  177.3510  139.8030 C   0  0  0  0  0  0  0  0  0  0  0  0
  183.6280  176.6260  137.7390 C   0  0  0  0  0  0  0  0  0  0  0  0
  182.7960  175.7050  138.1990 C   0  0  0  0  0  3  0  0  0  0  0  0
  182.3650  176.0750  139.5860 C   0  0  0  0  0  2  0  0  0  0  0  0
  184.2510  176.5840  136.3890 C   0  0  0  0  0  1  0  0  0  0  0  0
  183.8230  177.6640  138.7350 C   0  0  0  0  0  0  0  0  0  0  0  0
  183.0570  178.1150  141.0210 C   0  0  0  0  0  0  0  0  0  0  0  0
  183.0190  178.7300  142.0010 N   0  0  0  0  0  0  0  0  0  0  0  0
  1 15  2  0  0  0  0
  2 18  2  0  0  0  0
  3  8  1  0  0  0  0
  4  3  2  0  0  0  0
  4 16  1  0  0  0  0
  5 14  1  0  0  0  0
  6 13  1  0  0  0  0
  7  1  1  0  0  0  0
  8 10  2  0  0  0  0
  9  6  2  0  0  0  0
  9  2  1  0  0  0  0
 10  9  1  0  0  0  0
 11 19  2  0  0  0  0
 13  7  2  0  0  0  0
 13  5  1  0  0  0  0
 14 12  2  0  0  0  0
 15 12  1  0  0  0  0
 15 21  1  0  0  0  0
 16 17  2  0  0  0  0
 17 10  1  0  0  0  0
 17 11  1  0  0  0  0
 18  5  1  0  0  0  0
 19  2  1  0  0  0  0
 20 23  1  0  0  0  0
 21 20  1  0  0  0  0
 22 20  2  0  0  0  0
 24 30  1  0  0  0  0
 24 11  1  0  0  0  0
 25 31  1  0  0  0  0
 26 27  2  0  0  0  0
 26 30  1  0  0  0  0
 27 28  1  0  0  0  0
 28 25  1  0  0  0  0
 29 26  1  0  0  0  0
 30 25  2  0  0  0  0
 31 32  3  0  0  0  0
M  END
>  <MODEL>
7

>  <REMARK>
 VINA RESULT:      -8.4      1.763      4.486
  Name = 
  4 active torsions:
  status: ('A' for Active; 'I' for Inactive)
    1  A    between atoms: C_6  and  C_7
    2  A    between atoms: N_10  and  C_24
    3  A    between atoms: C_16  and  C_27
    4  A    between atoms: C_27  and  C_32
                            x       y       z     vdW  Elec       q    Type
                         _______ _______ _______ _____ _____    ______ ____

>  <TORSDO>
F 4

$$$$
=
 OpenBabel11052416543D

 32 36  0  0  1  0  0  0  0  0999 V2000
  183.5970  178.6310  144.1080 C   0  0  0  0  0  3  0  0  0  0  0  0
  186.9710  178.2800  140.0710 C   0  0  0  0  0  0  0  0  0  0  0  0
  191.1590  177.3880  142.3870 C   0  0  0  0  0  3  0  0  0  0  0  0
  191.8170  177.3500  141.1580 C   0  0  0  0  0  3  0  0  0  0  0  0
  184.8670  178.5850  141.2400 N   0  0  0  0  0  0  0  0  0  0  0  0
  186.9910  178.1250  142.4590 C   0  0  0  0  0  3  0  0  0  0  0  0
  184.9840  178.4070  143.7020 C   0  0  0  0  0  3  0  0  0  0  0  0
  189.7840  177.6280  142.4390 C   0  0  0  0  0  3  0  0  0  0  0  0
  187.6560  178.0790  141.2930 C   0  0  0  0  0  0  0  0  0  0  0  0
  189.0460  177.8320  141.2580 C   0  0  0  0  0  0  0  0  0  0  0  0
  188.9850  177.9920  138.8290 C   0  0  0  0  0  0  0  0  0  0  0  0
  182.5020  178.9680  141.9090 C   0  0  0  0  0  3  0  0  0  0  0  0
  185.5460  178.3830  142.4970 C   0  0  0  0  0  0  0  0  0  0  0  0
  183.4790  178.8490  141.0160 C   0  0  0  0  0  3  0  0  0  0  0  0
  182.5160  178.8720  143.3750 C   0  0  0  0  0  0  0  0  0  0  0  0
  191.1000  177.5510  139.9770 C   0  0  0  0  0  3  0  0  0  0  0  0
  189.7180  177.7900  140.0120 C   0  0  0  0  0  0  0  0  0  0  0  0
  185.6540  178.5190  140.0410 C   0  0  0  0  0  3  0  0  0  0  0  0
  187.6490  178.2300  138.8950 N   0  0  0  0  0  0  0  0  0  0  0  0
  180.0410  178.3820  143.8780 C   0  0  0  0  0  0  0  0  0  0  0  0
  181.2920  179.0460  144.1040 N   0  0  0  0  0  2  0  0  0  0  0  0
  179.9070  177.5330  142.9580 O   0  0  0  0  0  0  0  0  0  0  0  0
  178.9310  178.6890  144.7110 N   0  0  0  0  0  1  0  0  0  0  0  0
  189.6420  177.9380  137.4830 C   0  0  0  0  0  2  0  0  0  0  0  0
  189.4750  175.5970  136.5790 C   0  0  0  0  0  0  0  0  0  0  0  0
  187.9480  176.9980  135.7100 C   0  0  0  0  0  0  0  0  0  0  0  0
  187.7120  175.8500  135.0950 C   0  0  0  0  0  3  0  0  0  0  0  0
  188.6740  174.8140  135.5940 C   0  0  0  0  0  3  0  0  0  0  0  0
  187.1760  178.2460  135.4630 C   0  0  0  0  0  1  0  0  0  0  0  0
  189.0460  176.8470  136.6460 C   0  0  2  0  0  3  0  0  0  0  0  0
  190.5750  175.0570  137.3340 C   0  0  0  0  0  0  0  0  0  0  0  0
  191.4590  174.6210  137.9420 N   0  0  0  0  0  0  0  0  0  0  0  0
  2  9  1  0  0  0  0
  3  8  1  0  0  0  0
  4  3  2  0  0  0  0
  5 13  1  0  0  0  0
  6 13  1  0  0  0  0
  7  1  1  0  0  0  0
  9  6  2  0  0  0  0
 10  9  1  0  0  0  0
 10  8  2  0  0  0  0
 11 19  2  0  0  0  0
 11 17  1  0  0  0  0
 12 15  1  0  0  0  0
 13  7  2  0  0  0  0
 14  5  1  0  0  0  0
 14 12  2  0  0  0  0
 15 21  1  0  0  0  0
 15  1  2  0  0  0  0
 16 17  2  0  0  0  0
 16  4  1  0  0  0  0
 17 10  1  0  0  0  0
 18  2  2  0  0  0  0
 18  5  1  0  0  0  0
 19  2  1  0  0  0  0
 20 21  1  0  0  0  0
 20 23  1  0  0  0  0
 22 20  2  0  0  0  0
 24 11  1  0  0  0  0
 25 30  1  0  0  0  0
 25 31  1  0  0  0  0
 26 30  1  0  0  0  0
 27 28  1  0  0  0  0
 27 26  2  0  0  0  0
 28 25  2  0  0  0  0
 29 26  1  0  0  0  0
 30 24  1  6  0  0  0
 31 32  3  0  0  0  0
M  END
>  <MODEL>
8

>  <REMARK>
 VINA RESULT:      -8.4      4.140      7.208
  Name = 
  4 active torsions:
  status: ('A' for Active; 'I' for Inactive)
    1  A    between atoms: C_6  and  C_7
    2  A    between atoms: N_10  and  C_24
    3  A    between atoms: C_16  and  C_27
    4  A    between atoms: C_27  and  C_32
                            x       y       z     vdW  Elec       q    Type
                         _______ _______ _______ _____ _____    ______ ____

>  <TORSDO>
F 4

$$$$
=
 OpenBabel11052416543D

 32 36  0  0  0  0  0  0  0  0999 V2000
  181.9770  178.6180  142.6480 C   0  0  0  0  0  3  0  0  0  0  0  0
  187.1350  178.3220  143.7020 C   0  0  0  0  0  0  0  0  0  0  0  0
  187.1190  178.1900  148.5690 C   0  0  0  0  0  3  0  0  0  0  0  0
  188.5130  178.1200  148.5590 C   0  0  0  0  0  3  0  0  0  0  0  0
  185.0990  178.4650  142.3900 N   0  0  0  0  0  0  0  0  0  0  0  0
  185.0520  178.3940  144.8800 C   0  0  0  0  0  3  0  0  0  0  0  0
  182.9990  178.5350  143.6910 C   0  0  0  0  0  3  0  0  0  0  0  0
  186.4130  178.2560  147.3660 C   0  0  0  0  0  3  0  0  0  0  0  0
  186.3930  178.3240  144.9080 C   0  0  0  0  0  0  0  0  0  0  0  0
  187.0920  178.2540  146.1330 C   0  0  0  0  0  0  0  0  0  0  0  0
  189.1910  178.1760  144.9000 C   0  0  0  0  0  0  0  0  0  0  0  0
  183.3760  178.6060  140.6020 C   0  0  0  0  0  3  0  0  0  0  0  0
  184.3240  178.4690  143.6070 C   0  0  0  0  0  0  0  0  0  0  0  0
  184.6280  178.5280  141.0410 C   0  0  0  0  0  3  0  0  0  0  0  0
  182.0990  178.6500  141.3260 C   0  0  0  0  0  0  0  0  0  0  0  0
  189.2030  178.1170  147.3450 C   0  0  0  0  0  3  0  0  0  0  0  0
  188.5070  178.1810  146.1280 C   0  0  0  0  0  0  0  0  0  0  0  0
  186.5270  178.3880  142.5110 C   0  0  0  0  0  3  0  0  0  0  0  0
  188.4900  178.2480  143.7380 N   0  0  0  0  0  0  0  0  0  0  0  0
  180.2020  177.6790  139.8840 C   0  0  0  0  0  0  0  0  0  0  0  0
  180.8720  178.7350  140.5860 N   0  0  0  0  0  2  0  0  0  0  0  0
  180.6700  176.5110  139.8580 O   0  0  0  0  0  0  0  0  0  0  0  0
  178.9870  177.9580  139.2030 N   0  0  0  0  0  1  0  0  0  0  0  0
  190.6850  178.0800  144.8360 C   0  0  0  0  0  2  0  0  0  0  0  0
  191.7230  175.9070  145.5580 C   0  0  0  0  0  0  0  0  0  0  0  0
  191.0140  175.8890  143.4250 C   0  0  0  0  0  0  0  0  0  0  0  0
  191.5420  174.6880  143.5940 C   0  0  0  0  0  3  0  0  0  0  0  0
  192.0570  174.5650  144.9970 C   0  0  0  0  0  2  0  0  0  0  0  0
  190.4010  176.3560  142.1520 C   0  0  0  0  0  1  0  0  0  0  0  0
  191.1170  176.6570  144.6520 C   0  0  0  0  0  0  0  0  0  0  0  0
  192.0410  176.3200  146.9000 C   0  0  0  0  0  0  0  0  0  0  0  0
  192.2990  176.6520  147.9780 N   0  0  0  0  0  0  0  0  0  0  0  0
  1  7  1  0  0  0  0
  2 19  1  0  0  0  0
  2  9  1  0  0  0  0
  4  3  1  0  0  0  0
  5 18  1  0  0  0  0
  5 13  1  0  0  0  0
  6  9  2  0  0  0  0
  8  3  2  0  0  0  0
  9 10  1  0  0  0  0
 10  8  1  0  0  0  0
 11 17  1  0  0  0  0
 12 14  2  0  0  0  0
 12 15  1  0  0  0  0
 13  7  2  0  0  0  0
 13  6  1  0  0  0  0
 14  5  1  0  0  0  0
 15  1  2  0  0  0  0
 16  4  2  0  0  0  0
 17 10  2  0  0  0  0
 17 16  1  0  0  0  0
 18  2  2  0  0  0  0
 19 11  2  0  0  0  0
 20 21  1  0  0  0  0
 21 15  1  0  0  0  0
 22 20  2  0  0  0  0
 23 20  1  0  0  0  0
 24 11  1  0  0  0  0
 25 31  1  0  0  0  0
 26 27  2  0  0  0  0
 26 30  1  0  0  0  0
 27 28  1  0  0  0  0
 28 25  1  0  0  0  0
 29 26  1  0  0  0  0
 30 24  1  0  0  0  0
 30 25  2  0  0  0  0
 31 32  3  0  0  0  0
M  END
>  <MODEL>
9

>  <REMARK>
 VINA RESULT:      -8.2      3.131      8.628
  Name = 
  4 active torsions:
  status: ('A' for Active; 'I' for Inactive)
    1  A    between atoms: C_6  and  C_7
    2  A    between atoms: N_10  and  C_24
    3  A    between atoms: C_16  and  C_27
    4  A    between atoms: C_27  and  C_32
                            x       y       z     vdW  Elec       q    Type
                         _______ _______ _______ _____ _____    ______ ____

>  <TORSDO>
F 4

$$$$
