=
 OpenBabel11052414323D

 32 35  0  0  1  0  0  0  0  0999 V2000
  180.7370  178.1900  140.2160 N   0  0  0  0  0  0  0  0  0  0  0  0
  180.5560  181.8890  136.4830 S   0  0  0  0  0  0  0  0  0  0  0  0
  179.9400  179.2710  139.6180 C   0  0  1  0  0  3  0  0  0  0  0  0
  179.4370  183.2670  138.3510 C   0  0  0  0  0  2  0  0  0  0  0  0
  179.8970  181.9760  138.9650 C   0  0  1  0  0  3  0  0  0  0  0  0
  179.7470  180.4500  140.6160 C   0  0  1  0  0  3  0  0  0  0  0  0
  179.0770  181.5420  140.0150 O   0  0  0  0  0  0  0  0  0  0  0  0
  179.7800  181.0130  137.8440 C   0  0  2  0  0  3  0  0  0  0  0  0
  180.0840  183.4480  137.1100 O   0  0  0  0  0  0  0  0  0  0  0  0
  180.5030  179.7490  138.2590 C   0  0  0  0  0  2  0  0  0  0  0  0
  178.9310  179.9950  141.8200 C   0  0  0  0  0  2  0  0  0  0  0  0
  179.7010  180.1820  143.1160 C   0  0  0  0  0  2  0  0  0  0  0  0
  179.5610  178.9520  143.9910 C   0  0  0  0  0  1  0  0  0  0  0  0
  179.8780  176.6730  140.1020 S   0  0  0  0  0  0  0  0  0  0  0  0
  178.9310  176.6450  138.5960 C   0  0  0  0  0  1  0  0  0  0  0  0
  178.9310  176.5290  141.2600 O   0  0  0  0  0  0  0  0  0  0  0  0
  180.8400  175.5170  140.0920 O   0  0  0  0  0  0  0  0  0  0  0  0
  182.1410  178.1870  139.7440 C   0  0  1  0  0  3  0  0  0  0  0  0
  185.3450  178.9640  141.6410 C   0  0  0  0  0  3  0  0  0  0  0  0
  183.5930  178.4960  143.2430 C   0  0  0  0  0  3  0  0  0  0  0  0
  183.1120  178.4130  140.8640 C   0  0  0  0  0  0  0  0  0  0  0  0
  184.9280  178.8200  142.9710 C   0  0  0  0  0  0  0  0  0  0  0  0
  182.6930  178.2870  142.1950 C   0  0  0  0  0  3  0  0  0  0  0  0
  184.4490  178.7540  140.5890 C   0  0  0  0  0  0  0  0  0  0  0  0
  185.0270  178.9490  138.9410 Cl  0  0  0  0  0  0  0  0  0  0  0  0
  185.8800  179.0960  144.0950 C   0  0  0  0  0  3  0  0  0  0  0  0
  186.2520  177.8050  144.8070 C   0  0  0  0  0  2  0  0  0  0  0  0
  185.2440  178.7420  145.4290 C   0  0  0  0  0  2  0  0  0  0  0  0
  182.5520  177.0790  138.8070 C   0  0  0  0  0  0  0  0  0  0  0  0
  182.2570  177.1920  137.4170 N   0  0  0  0  0  2  0  0  0  0  0  0
  183.1590  176.0630  139.2410 O   0  0  0  0  0  0  0  0  0  0  0  0
  182.6100  176.2130  136.5510 O   0  0  0  0  0  1  0  0  0  0  0  0
  2  9  1  0  0  0  0
  2  8  1  0  0  0  0
  3  1  1  1  0  0  0
  3  6  1  0  0  0  0
  5  4  1  6  0  0  0
  5  7  1  0  0  0  0
  6 11  1  1  0  0  0
  7  6  1  0  0  0  0
  8 10  1  1  0  0  0
  8  5  1  0  0  0  0
  9  4  1  0  0  0  0
 10  3  1  0  0  0  0
 11 12  1  0  0  0  0
 12 13  1  0  0  0  0
 14  1  1  0  0  0  0
 14 16  2  0  0  0  0
 15 14  1  0  0  0  0
 17 14  2  0  0  0  0
 18 29  1  1  0  0  0
 18  1  1  0  0  0  0
 18 21  1  0  0  0  0
 19 22  1  0  0  0  0
 21 23  2  0  0  0  0
 22 20  2  0  0  0  0
 22 26  1  0  0  0  0
 23 20  1  0  0  0  0
 24 21  1  0  0  0  0
 24 19  2  0  0  0  0
 25 24  1  0  0  0  0
 26 27  1  0  0  0  0
 26 28  1  0  0  0  0
 27 28  1  0  0  0  0
 29 31  2  0  0  0  0
 30 29  1  0  0  0  0
 32 30  1  0  0  0  0
M  END
>  <MODEL>
1

>  <REMARK>
 VINA RESULT:      -5.7      0.000      0.000
  Name = 
  8 active torsions:
  status: ('A' for Active; 'I' for Inactive)
    1  A    between atoms: C_1  and  C_27
    2  A    between atoms: S_2  and  N_5
    3  A    between atoms: N_5  and  C_10
    4  A    between atoms: N_5  and  C_27
    5  A    between atoms: C_6  and  C_13
    6  A    between atoms: C_6  and  C_25
    7  A    between atoms: C_7  and  C_19
    8  A    between atoms: C_16  and  C_27
                            x       y       z     vdW  Elec       q    Type
                         _______ _______ _______ _____ _____    ______ ____

>  <TORSDO>
F 8

$$$$
=
 OpenBabel11052414323D

 32 35  0  0  1  0  0  0  0  0999 V2000
  182.3550  177.7010  138.4180 N   0  0  0  0  0  0  0  0  0  0  0  0
  183.8640  178.6260  143.3700 S   0  0  0  0  0  0  0  0  0  0  0  0
  183.4740  177.6670  139.3710 C   0  0  1  0  0  3  0  0  0  0  0  0
  185.9990  179.4960  142.2180 C   0  0  0  0  0  2  0  0  0  0  0  0
  185.0090  179.1760  141.1360 C   0  0  1  0  0  3  0  0  0  0  0  0
  184.5810  178.6890  138.9780 C   0  0  1  0  0  3  0  0  0  0  0  0
  185.6110  178.7450  139.9460 O   0  0  0  0  0  0  0  0  0  0  0  0
  184.2370  178.0490  141.7120 C   0  0  2  0  0  3  0  0  0  0  0  0
  185.3260  179.5760  143.4560 O   0  0  0  0  0  0  0  0  0  0  0  0
  183.0180  177.8450  140.8380 C   0  0  0  0  0  2  0  0  0  0  0  0
  185.2050  178.3040  137.6420 C   0  0  0  0  0  2  0  0  0  0  0  0
  186.6560  177.8860  137.8060 C   0  0  0  0  0  2  0  0  0  0  0  0
  187.5240  178.5900  136.7810 C   0  0  0  0  0  1  0  0  0  0  0  0
  182.0600  176.1020  137.7790 S   0  0  0  0  0  0  0  0  0  0  0  0
  183.5770  175.4390  137.1300 C   0  0  0  0  0  1  0  0  0  0  0  0
  181.0560  176.1720  136.6620 O   0  0  0  0  0  0  0  0  0  0  0  0
  181.5510  175.1850  138.8570 O   0  0  0  0  0  0  0  0  0  0  0  0
  181.1760  178.4260  138.9480 C   0  0  1  0  0  3  0  0  0  0  0  0
  179.8590  181.8170  137.8390 C   0  0  0  0  0  3  0  0  0  0  0  0
  180.6850  180.6370  135.8960 C   0  0  0  0  0  3  0  0  0  0  0  0
  180.7980  179.5920  138.0850 C   0  0  0  0  0  0  0  0  0  0  0  0
  180.0800  181.7680  136.4570 C   0  0  0  0  0  0  0  0  0  0  0  0
  181.0350  179.5530  136.7050 C   0  0  0  0  0  3  0  0  0  0  0  0
  180.2050  180.7350  138.6530 C   0  0  0  0  0  0  0  0  0  0  0  0
  179.9050  180.8510  140.3800 Cl  0  0  0  0  0  0  0  0  0  0  0  0
  179.7540  182.9520  135.5970 C   0  0  0  0  0  3  0  0  0  0  0  0
  180.9710  183.8500  135.4450 C   0  0  0  0  0  2  0  0  0  0  0  0
  179.8660  184.2370  136.4000 C   0  0  0  0  0  2  0  0  0  0  0  0
  179.9960  177.5950  139.3850 C   0  0  0  0  0  0  0  0  0  0  0  0
  179.9820  177.0340  140.6960 N   0  0  0  0  0  2  0  0  0  0  0  0
  179.0220  177.4030  138.6080 O   0  0  0  0  0  0  0  0  0  0  0  0
  178.9390  176.2820  141.1180 O   0  0  0  0  0  1  0  0  0  0  0  0
  1 18  1  0  0  0  0
  2  9  1  0  0  0  0
  3  1  1  6  0  0  0
  3 10  1  0  0  0  0
  4  9  1  0  0  0  0
  5  8  1  0  0  0  0
  5  4  1  1  0  0  0
  6 11  1  6  0  0  0
  6  3  1  0  0  0  0
  6  7  1  0  0  0  0
  7  5  1  0  0  0  0
  8 10  1  6  0  0  0
  8  2  1  0  0  0  0
 11 12  1  0  0  0  0
 13 12  1  0  0  0  0
 14  1  1  0  0  0  0
 14 17  2  0  0  0  0
 15 14  1  0  0  0  0
 16 14  2  0  0  0  0
 18 29  1  6  0  0  0
 19 24  1  0  0  0  0
 20 22  1  0  0  0  0
 20 23  2  0  0  0  0
 21 24  2  0  0  0  0
 21 18  1  0  0  0  0
 22 19  2  0  0  0  0
 23 21  1  0  0  0  0
 24 25  1  0  0  0  0
 26 28  1  0  0  0  0
 26 22  1  0  0  0  0
 27 26  1  0  0  0  0
 27 28  1  0  0  0  0
 29 30  1  0  0  0  0
 30 32  1  0  0  0  0
 31 29  2  0  0  0  0
M  END
>  <MODEL>
2

>  <REMARK>
 VINA RESULT:      -5.4      2.834      6.940
  Name = 
  8 active torsions:
  status: ('A' for Active; 'I' for Inactive)
    1  A    between atoms: C_1  and  C_27
    2  A    between atoms: S_2  and  N_5
    3  A    between atoms: N_5  and  C_10
    4  A    between atoms: N_5  and  C_27
    5  A    between atoms: C_6  and  C_13
    6  A    between atoms: C_6  and  C_25
    7  A    between atoms: C_7  and  C_19
    8  A    between atoms: C_16  and  C_27
                            x       y       z     vdW  Elec       q    Type
                         _______ _______ _______ _____ _____    ______ ____

>  <TORSDO>
F 8

$$$$
=
 OpenBabel11052414323D

 32 35  0  0  1  0  0  0  0  0999 V2000
  181.9080  178.6680  139.6390 N   0  0  0  0  0  0  0  0  0  0  0  0
  179.1230  174.2240  139.2590 S   0  0  0  0  0  0  0  0  0  0  0  0
  181.4430  177.6020  138.7400 C   0  0  1  0  0  3  0  0  0  0  0  0
  181.0380  173.5360  137.6790 C   0  0  0  0  0  2  0  0  0  0  0  0
  181.4150  174.8560  138.2860 C   0  0  1  0  0  3  0  0  0  0  0  0
  182.6340  176.7510  138.2100 C   0  0  1  0  0  3  0  0  0  0  0  0
  182.1900  175.6540  137.4330 O   0  0  0  0  0  0  0  0  0  0  0  0
  180.1040  175.5160  138.4910 C   0  0  2  0  0  3  0  0  0  0  0  0
  179.9950  172.9580  138.4340 O   0  0  0  0  0  0  0  0  0  0  0  0
  180.3400  176.7230  139.3740 C   0  0  0  0  0  2  0  0  0  0  0  0
  183.5510  177.6060  137.3450 C   0  0  0  0  0  2  0  0  0  0  0  0
  185.0150  177.3100  137.6250 C   0  0  0  0  0  2  0  0  0  0  0  0
  185.5820  178.3300  138.5920 C   0  0  0  0  0  1  0  0  0  0  0  0
  181.8180  180.2170  138.8360 S   0  0  0  0  0  0  0  0  0  0  0  0
  181.1610  179.9930  137.1980 C   0  0  0  0  0  1  0  0  0  0  0  0
  183.1910  180.8170  138.7180 O   0  0  0  0  0  0  0  0  0  0  0  0
  180.9210  181.1570  139.5940 O   0  0  0  0  0  0  0  0  0  0  0  0
  181.2940  178.5890  140.9850 C   0  0  1  0  0  3  0  0  0  0  0  0
  182.8860  178.7660  144.4350 C   0  0  0  0  0  3  0  0  0  0  0  0
  184.5910  179.2000  142.7750 C   0  0  0  0  0  3  0  0  0  0  0  0
  182.3080  178.7530  142.0780 C   0  0  0  0  0  0  0  0  0  0  0  0
  184.2140  179.0770  144.1180 C   0  0  0  0  0  0  0  0  0  0  0  0
  183.6420  179.0450  141.7620 C   0  0  0  0  0  3  0  0  0  0  0  0
  181.9320  178.6140  143.4260 C   0  0  0  0  0  0  0  0  0  0  0  0
  180.2800  178.2240  143.8820 Cl  0  0  0  0  0  0  0  0  0  0  0  0
  185.2430  179.1890  145.2020 C   0  0  0  0  0  3  0  0  0  0  0  0
  185.9360  177.8530  145.4180 C   0  0  0  0  0  2  0  0  0  0  0  0
  184.8680  178.3100  146.3830 C   0  0  0  0  0  2  0  0  0  0  0  0
  180.0310  179.3800  141.2150 C   0  0  0  0  0  0  0  0  0  0  0  0
  180.0890  180.5870  141.9720 N   0  0  0  0  0  2  0  0  0  0  0  0
  178.9330  178.9900  140.7360 O   0  0  0  0  0  0  0  0  0  0  0  0
  178.9730  181.3190  142.1980 O   0  0  0  0  0  1  0  0  0  0  0  0
  1 18  1  0  0  0  0
  3 10  1  0  0  0  0
  3  1  1  1  0  0  0
  4  9  1  0  0  0  0
  5  4  1  6  0  0  0
  5  8  1  0  0  0  0
  6 11  1  6  0  0  0
  6  3  1  0  0  0  0
  7  6  1  0  0  0  0
  7  5  1  0  0  0  0
  8  2  1  0  0  0  0
  8 10  1  1  0  0  0
  9  2  1  0  0  0  0
 11 12  1  0  0  0  0
 12 13  1  0  0  0  0
 14 17  2  0  0  0  0
 14  1  1  0  0  0  0
 15 14  1  0  0  0  0
 16 14  2  0  0  0  0
 18 29  1  6  0  0  0
 18 21  1  0  0  0  0
 20 22  2  0  0  0  0
 21 24  1  0  0  0  0
 22 19  1  0  0  0  0
 22 26  1  0  0  0  0
 23 21  2  0  0  0  0
 23 20  1  0  0  0  0
 24 25  1  0  0  0  0
 24 19  2  0  0  0  0
 26 27  1  0  0  0  0
 26 28  1  0  0  0  0
 27 28  1  0  0  0  0
 29 30  1  0  0  0  0
 30 32  1  0  0  0  0
 31 29  2  0  0  0  0
M  END
>  <MODEL>
3

>  <REMARK>
 VINA RESULT:      -5.2      2.383      5.571
  Name = 
  8 active torsions:
  status: ('A' for Active; 'I' for Inactive)
    1  A    between atoms: C_1  and  C_27
    2  A    between atoms: S_2  and  N_5
    3  A    between atoms: N_5  and  C_10
    4  A    between atoms: N_5  and  C_27
    5  A    between atoms: C_6  and  C_13
    6  A    between atoms: C_6  and  C_25
    7  A    between atoms: C_7  and  C_19
    8  A    between atoms: C_16  and  C_27
                            x       y       z     vdW  Elec       q    Type
                         _______ _______ _______ _____ _____    ______ ____

>  <TORSDO>
F 8

$$$$
=
 OpenBabel11052414323D

 32 35  0  0  1  0  0  0  0  0999 V2000
  188.5020  176.2360  137.4790 N   0  0  0  0  0  0  0  0  0  0  0  0
  183.2910  176.1770  136.7700 S   0  0  0  0  0  0  0  0  0  0  0  0
  187.3720  175.5390  136.8470 C   0  0  1  0  0  3  0  0  0  0  0  0
  183.6100  173.6310  137.0110 C   0  0  0  0  0  2  0  0  0  0  0  0
  184.9350  174.2740  137.3010 C   0  0  1  0  0  3  0  0  0  0  0  0
  187.1780  174.1160  137.4500 C   0  0  1  0  0  3  0  0  0  0  0  0
  186.0270  173.4790  136.9290 O   0  0  0  0  0  0  0  0  0  0  0  0
  184.9140  175.4830  136.4430 C   0  0  2  0  0  3  0  0  0  0  0  0
  182.5940  174.6080  137.0810 O   0  0  0  0  0  0  0  0  0  0  0  0
  186.0650  176.3640  136.8800 C   0  0  0  0  0  2  0  0  0  0  0  0
  188.3870  173.2420  137.1400 C   0  0  0  0  0  2  0  0  0  0  0  0
  187.9710  171.9000  136.5640 C   0  0  0  0  0  2  0  0  0  0  0  0
  188.6180  171.6870  135.2100 C   0  0  0  0  0  1  0  0  0  0  0  0
  189.7440  176.5670  136.2950 S   0  0  0  0  0  0  0  0  0  0  0  0
  190.1400  175.0680  135.4230 C   0  0  0  0  0  1  0  0  0  0  0  0
  190.9880  177.0600  136.9790 O   0  0  0  0  0  0  0  0  0  0  0  0
  189.2730  177.5950  135.3040 O   0  0  0  0  0  0  0  0  0  0  0  0
  188.0710  177.3800  138.3160 C   0  0  1  0  0  3  0  0  0  0  0  0
  188.4290  177.7630  142.0840 C   0  0  0  0  0  3  0  0  0  0  0  0
  190.3620  176.5790  141.2410 C   0  0  0  0  0  3  0  0  0  0  0  0
  188.6190  177.2950  139.7090 C   0  0  0  0  0  0  0  0  0  0  0  0
  189.6640  177.1450  142.3150 C   0  0  0  0  0  0  0  0  0  0  0  0
  189.8460  176.6600  139.9460 C   0  0  0  0  0  3  0  0  0  0  0  0
  187.9090  177.8500  140.7890 C   0  0  0  0  0  0  0  0  0  0  0  0
  186.3540  178.6370  140.5580 Cl  0  0  0  0  0  0  0  0  0  0  0  0
  190.1910  177.0100  143.7120 C   0  0  0  0  0  3  0  0  0  0  0  0
  191.1850  178.1210  144.0140 C   0  0  0  0  0  2  0  0  0  0  0  0
  191.6850  176.7330  143.6900 C   0  0  0  0  0  2  0  0  0  0  0  0
  188.1780  178.7570  137.7110 C   0  0  0  0  0  0  0  0  0  0  0  0
  187.1200  179.2450  136.8910 N   0  0  0  0  0  2  0  0  0  0  0  0
  189.1870  179.4790  137.9330 O   0  0  0  0  0  0  0  0  0  0  0  0
  187.1870  180.4760  136.3300 O   0  0  0  0  0  1  0  0  0  0  0  0
  1 18  1  0  0  0  0
  2  9  1  0  0  0  0
  3 10  1  0  0  0  0
  3  6  1  0  0  0  0
  3  1  1  1  0  0  0
  4  9  1  0  0  0  0
  5  4  1  6  0  0  0
  6 11  1  6  0  0  0
  7  5  1  0  0  0  0
  7  6  1  0  0  0  0
  8  2  1  0  0  0  0
  8 10  1  1  0  0  0
  8  5  1  0  0  0  0
 12 11  1  0  0  0  0
 13 12  1  0  0  0  0
 14 16  2  0  0  0  0
 14  1  1  0  0  0  0
 15 14  1  0  0  0  0
 17 14  2  0  0  0  0
 18 29  1  6  0  0  0
 18 21  1  0  0  0  0
 19 22  1  0  0  0  0
 20 22  2  0  0  0  0
 21 23  2  0  0  0  0
 21 24  1  0  0  0  0
 22 26  1  0  0  0  0
 23 20  1  0  0  0  0
 24 19  2  0  0  0  0
 25 24  1  0  0  0  0
 26 27  1  0  0  0  0
 28 26  1  0  0  0  0
 28 27  1  0  0  0  0
 29 31  2  0  0  0  0
 30 29  1  0  0  0  0
 32 30  1  0  0  0  0
M  END
>  <MODEL>
4

>  <REMARK>
 VINA RESULT:      -5.0      6.119      8.573
  Name = 
  8 active torsions:
  status: ('A' for Active; 'I' for Inactive)
    1  A    between atoms: C_1  and  C_27
    2  A    between atoms: S_2  and  N_5
    3  A    between atoms: N_5  and  C_10
    4  A    between atoms: N_5  and  C_27
    5  A    between atoms: C_6  and  C_13
    6  A    between atoms: C_6  and  C_25
    7  A    between atoms: C_7  and  C_19
    8  A    between atoms: C_16  and  C_27
                            x       y       z     vdW  Elec       q    Type
                         _______ _______ _______ _____ _____    ______ ____

>  <TORSDO>
F 8

$$$$
=
 OpenBabel11052414323D

 32 35  0  0  1  0  0  0  0  0999 V2000
  187.5010  177.3400  137.4380 N   0  0  0  0  0  0  0  0  0  0  0  0
  191.1970  177.0980  141.1710 S   0  0  0  0  0  0  0  0  0  0  0  0
  188.0290  177.9580  138.6630 C   0  0  1  0  0  3  0  0  0  0  0  0
  189.2410  177.7780  142.7030 C   0  0  0  0  0  2  0  0  0  0  0  0
  188.6700  177.5290  141.3370 C   0  0  1  0  0  3  0  0  0  0  0  0
  187.0150  177.8390  139.8380 C   0  0  1  0  0  3  0  0  0  0  0  0
  187.5570  178.3310  141.0500 O   0  0  0  0  0  0  0  0  0  0  0  0
  189.7800  177.9180  140.4350 C   0  0  2  0  0  3  0  0  0  0  0  0
  190.5300  177.2090  142.7790 O   0  0  0  0  0  0  0  0  0  0  0  0
  189.4280  177.4220  139.0490 C   0  0  0  0  0  2  0  0  0  0  0  0
  185.7510  178.6300  139.5270 C   0  0  0  0  0  2  0  0  0  0  0  0
  185.0020  179.0030  140.7950 C   0  0  0  0  0  2  0  0  0  0  0  0
  183.7650  178.1400  140.9470 C   0  0  0  0  0  1  0  0  0  0  0  0
  187.6360  178.4500  136.0950 S   0  0  0  0  0  0  0  0  0  0  0  0
  186.6200  177.8760  134.7530 C   0  0  0  0  0  1  0  0  0  0  0  0
  189.0610  178.5100  135.6200 O   0  0  0  0  0  0  0  0  0  0  0  0
  187.1810  179.8260  136.4960 O   0  0  0  0  0  0  0  0  0  0  0  0
  188.0250  175.9720  137.2160 C   0  0  1  0  0  3  0  0  0  0  0  0
  186.2200  172.6240  137.1920 C   0  0  0  0  0  3  0  0  0  0  0  0
  184.5690  174.3920  137.2020 C   0  0  0  0  0  3  0  0  0  0  0  0
  186.9330  174.9450  137.2070 C   0  0  0  0  0  0  0  0  0  0  0  0
  184.8780  173.0270  137.1760 C   0  0  0  0  0  0  0  0  0  0  0  0
  185.5900  175.3450  137.2100 C   0  0  0  0  0  3  0  0  0  0  0  0
  187.2460  173.5730  137.1980 C   0  0  0  0  0  0  0  0  0  0  0  0
  188.9110  173.0110  137.2180 Cl  0  0  0  0  0  0  0  0  0  0  0  0
  183.7830  172.0050  137.2210 C   0  0  0  0  0  3  0  0  0  0  0  0
  183.4410  171.5290  135.8180 C   0  0  0  0  0  2  0  0  0  0  0  0
  182.5430  172.5250  136.5130 C   0  0  0  0  0  2  0  0  0  0  0  0
  189.0300  175.7900  136.1060 C   0  0  0  0  0  0  0  0  0  0  0  0
  190.4170  175.9630  136.3830 N   0  0  0  0  0  2  0  0  0  0  0  0
  188.6540  175.4790  134.9440 O   0  0  0  0  0  0  0  0  0  0  0  0
  191.3440  175.8100  135.4080 O   0  0  0  0  0  1  0  0  0  0  0  0
  2  9  1  0  0  0  0
  3  1  1  6  0  0  0
  3 10  1  0  0  0  0
  3  6  1  0  0  0  0
  4  9  1  0  0  0  0
  5  4  1  1  0  0  0
  6 11  1  6  0  0  0
  6  7  1  0  0  0  0
  7  5  1  0  0  0  0
  8 10  1  6  0  0  0
  8  2  1  0  0  0  0
  8  5  1  0  0  0  0
 11 12  1  0  0  0  0
 12 13  1  0  0  0  0
 14 17  2  0  0  0  0
 14  1  1  0  0  0  0
 15 14  1  0  0  0  0
 16 14  2  0  0  0  0
 18 29  1  6  0  0  0
 18  1  1  0  0  0  0
 19 24  1  0  0  0  0
 20 23  2  0  0  0  0
 21 23  1  0  0  0  0
 21 18  1  0  0  0  0
 22 19  2  0  0  0  0
 22 20  1  0  0  0  0
 22 26  1  0  0  0  0
 24 21  2  0  0  0  0
 24 25  1  0  0  0  0
 27 28  1  0  0  0  0
 27 26  1  0  0  0  0
 28 26  1  0  0  0  0
 29 30  1  0  0  0  0
 31 29  2  0  0  0  0
 32 30  1  0  0  0  0
M  END
>  <MODEL>
5

>  <REMARK>
 VINA RESULT:      -4.8      5.872      8.921
  Name = 
  8 active torsions:
  status: ('A' for Active; 'I' for Inactive)
    1  A    between atoms: C_1  and  C_27
    2  A    between atoms: S_2  and  N_5
    3  A    between atoms: N_5  and  C_10
    4  A    between atoms: N_5  and  C_27
    5  A    between atoms: C_6  and  C_13
    6  A    between atoms: C_6  and  C_25
    7  A    between atoms: C_7  and  C_19
    8  A    between atoms: C_16  and  C_27
                            x       y       z     vdW  Elec       q    Type
                         _______ _______ _______ _____ _____    ______ ____

>  <TORSDO>
F 8

$$$$
=
 OpenBabel11052414323D

 32 35  0  0  1  0  0  0  0  0999 V2000
  181.6330  177.9340  138.6270 N   0  0  0  0  0  0  0  0  0  0  0  0
  181.0940  181.3720  134.6850 S   0  0  0  0  0  0  0  0  0  0  0  0
  180.8720  179.0840  138.1170 C   0  0  1  0  0  3  0  0  0  0  0  0
  180.6350  183.0210  136.6110 C   0  0  0  0  0  2  0  0  0  0  0  0
  181.0460  181.7170  137.2300 C   0  0  1  0  0  3  0  0  0  0  0  0
  181.0780  180.3400  139.0140 C   0  0  1  0  0  3  0  0  0  0  0  0
  180.4410  181.4810  138.4730 O   0  0  0  0  0  0  0  0  0  0  0  0
  180.5430  180.7140  136.2610 C   0  0  2  0  0  3  0  0  0  0  0  0
  180.9950  183.0210  135.2460 O   0  0  0  0  0  0  0  0  0  0  0  0
  181.1650  179.3830  136.6280 C   0  0  0  0  0  2  0  0  0  0  0  0
  180.5100  180.0930  140.4060 C   0  0  0  0  0  2  0  0  0  0  0  0
  179.3970  181.0740  140.7350 C   0  0  0  0  0  2  0  0  0  0  0  0
  178.9310  180.8800  142.1640 C   0  0  0  0  0  1  0  0  0  0  0  0
  180.7550  176.4520  138.3310 S   0  0  0  0  0  0  0  0  0  0  0  0
  179.1060  176.6050  138.9800 C   0  0  0  0  0  1  0  0  0  0  0  0
  181.4340  175.3040  139.0250 O   0  0  0  0  0  0  0  0  0  0  0  0
  180.6710  176.1700  136.8560 O   0  0  0  0  0  0  0  0  0  0  0  0
  183.0520  177.9530  138.2030 C   0  0  1  0  0  3  0  0  0  0  0  0
  186.1990  178.6260  140.2300 C   0  0  0  0  0  3  0  0  0  0  0  0
  184.3710  178.2030  141.7580 C   0  0  0  0  0  3  0  0  0  0  0  0
  183.9840  178.1450  139.3610 C   0  0  0  0  0  0  0  0  0  0  0  0
  185.7260  178.4880  141.5410 C   0  0  0  0  0  0  0  0  0  0  0  0
  183.5080  178.0260  140.6740 C   0  0  0  0  0  3  0  0  0  0  0  0
  185.3400  178.4470  139.1420 C   0  0  0  0  0  0  0  0  0  0  0  0
  185.9890  178.6320  137.5190 Cl  0  0  0  0  0  0  0  0  0  0  0  0
  186.6400  178.7310  142.7040 C   0  0  0  0  0  3  0  0  0  0  0  0
  186.9160  177.4320  143.4440 C   0  0  0  0  0  2  0  0  0  0  0  0
  185.9280  178.4240  144.0110 C   0  0  0  0  0  2  0  0  0  0  0  0
  183.5000  176.8790  137.2430 C   0  0  0  0  0  0  0  0  0  0  0  0
  183.9750  175.6370  137.7560 N   0  0  0  0  0  2  0  0  0  0  0  0
  183.4480  177.0680  135.9980 O   0  0  0  0  0  0  0  0  0  0  0  0
  184.3870  174.6540  136.9210 O   0  0  0  0  0  1  0  0  0  0  0  0
  2  9  1  0  0  0  0
  2  8  1  0  0  0  0
  3  1  1  1  0  0  0
  3  6  1  0  0  0  0
  5  4  1  6  0  0  0
  5  7  1  0  0  0  0
  6 11  1  1  0  0  0
  7  6  1  0  0  0  0
  8 10  1  1  0  0  0
  8  5  1  0  0  0  0
  9  4  1  0  0  0  0
 10  3  1  0  0  0  0
 11 12  1  0  0  0  0
 12 13  1  0  0  0  0
 14  1  1  0  0  0  0
 14 15  1  0  0  0  0
 14 16  2  0  0  0  0
 17 14  2  0  0  0  0
 18 29  1  1  0  0  0
 18  1  1  0  0  0  0
 18 21  1  0  0  0  0
 19 22  1  0  0  0  0
 21 23  2  0  0  0  0
 22 20  2  0  0  0  0
 22 26  1  0  0  0  0
 23 20  1  0  0  0  0
 24 21  1  0  0  0  0
 24 19  2  0  0  0  0
 25 24  1  0  0  0  0
 26 27  1  0  0  0  0
 26 28  1  0  0  0  0
 27 28  1  0  0  0  0
 29 30  1  0  0  0  0
 31 29  2  0  0  0  0
 32 30  1  0  0  0  0
M  END
>  <MODEL>
6

>  <REMARK>
 VINA RESULT:      -4.6      1.657      2.113
  Name = 
  8 active torsions:
  status: ('A' for Active; 'I' for Inactive)
    1  A    between atoms: C_1  and  C_27
    2  A    between atoms: S_2  and  N_5
    3  A    between atoms: N_5  and  C_10
    4  A    between atoms: N_5  and  C_27
    5  A    between atoms: C_6  and  C_13
    6  A    between atoms: C_6  and  C_25
    7  A    between atoms: C_7  and  C_19
    8  A    between atoms: C_16  and  C_27
                            x       y       z     vdW  Elec       q    Type
                         _______ _______ _______ _____ _____    ______ ____

>  <TORSDO>
F 8

$$$$
=
 OpenBabel11052414323D

 32 35  0  0  1  0  0  0  0  0999 V2000
  183.7710  177.0400  138.5540 N   0  0  0  0  0  0  0  0  0  0  0  0
  178.9440  175.0800  137.8340 S   0  0  0  0  0  0  0  0  0  0  0  0
  182.9480  176.0970  137.7830 C   0  0  1  0  0  3  0  0  0  0  0  0
  180.2350  172.8730  137.5180 C   0  0  0  0  0  2  0  0  0  0  0  0
  181.2310  173.9130  137.9440 C   0  0  1  0  0  3  0  0  0  0  0  0
  183.3660  174.6240  138.0610 C   0  0  1  0  0  3  0  0  0  0  0  0
  182.5100  173.7040  137.4110 O   0  0  0  0  0  0  0  0  0  0  0  0
  180.6760  175.1610  137.3690 C   0  0  2  0  0  3  0  0  0  0  0  0
  178.9310  173.3360  137.7950 O   0  0  0  0  0  0  0  0  0  0  0  0
  181.4310  176.3170  137.9910 C   0  0  0  0  0  2  0  0  0  0  0  0
  184.7880  174.3770  137.5730 C   0  0  0  0  0  2  0  0  0  0  0  0
  185.1390  172.8990  137.6040 C   0  0  0  0  0  2  0  0  0  0  0  0
  185.6680  172.4570  136.2540 C   0  0  0  0  0  1  0  0  0  0  0  0
  185.0740  177.6520  137.5650 S   0  0  0  0  0  0  0  0  0  0  0  0
  184.6360  177.4900  135.8490 C   0  0  0  0  0  1  0  0  0  0  0  0
  186.3250  176.8570  137.8130 O   0  0  0  0  0  0  0  0  0  0  0  0
  185.3320  179.1030  137.8650 O   0  0  0  0  0  0  0  0  0  0  0  0
  182.9600  178.0510  139.2720 C   0  0  1  0  0  3  0  0  0  0  0  0
  183.2410  178.8330  142.9840 C   0  0  0  0  0  3  0  0  0  0  0  0
  185.4590  178.8590  142.0190 C   0  0  0  0  0  3  0  0  0  0  0  0
  183.5350  178.3830  140.6170 C   0  0  0  0  0  0  0  0  0  0  0  0
  184.6210  179.0190  143.1300 C   0  0  0  0  0  0  0  0  0  0  0  0
  184.9180  178.5500  140.7690 C   0  0  0  0  0  3  0  0  0  0  0  0
  182.6940  178.5270  141.7350 C   0  0  0  0  0  0  0  0  0  0  0  0
  180.9540  178.3050  141.6110 Cl  0  0  0  0  0  0  0  0  0  0  0  0
  185.2070  179.2970  144.4810 C   0  0  0  0  0  3  0  0  0  0  0  0
  185.6860  178.0080  145.1290 C   0  0  0  0  0  2  0  0  0  0  0  0
  184.3800  178.6280  145.5660 C   0  0  0  0  0  2  0  0  0  0  0  0
  182.5210  179.2640  138.4910 C   0  0  0  0  0  0  0  0  0  0  0  0
  182.7430  180.5640  139.0330 N   0  0  0  0  0  2  0  0  0  0  0  0
  181.9710  179.1380  137.3650 O   0  0  0  0  0  0  0  0  0  0  0  0
  182.3590  181.6730  138.3590 O   0  0  0  0  0  1  0  0  0  0  0  0
  1 18  1  0  0  0  0
  3 10  1  0  0  0  0
  3  6  1  0  0  0  0
  3  1  1  1  0  0  0
  4  9  1  0  0  0  0
  5  4  1  6  0  0  0
  6 11  1  6  0  0  0
  7  5  1  0  0  0  0
  7  6  1  0  0  0  0
  8  2  1  0  0  0  0
  8  5  1  0  0  0  0
  8 10  1  1  0  0  0
  9  2  1  0  0  0  0
 11 12  1  0  0  0  0
 13 12  1  0  0  0  0
 14 16  2  0  0  0  0
 14 17  2  0  0  0  0
 14  1  1  0  0  0  0
 15 14  1  0  0  0  0
 18 29  1  6  0  0  0
 18 21  1  0  0  0  0
 19 22  1  0  0  0  0
 20 22  2  0  0  0  0
 21 23  2  0  0  0  0
 21 24  1  0  0  0  0
 22 26  1  0  0  0  0
 23 20  1  0  0  0  0
 24 19  2  0  0  0  0
 25 24  1  0  0  0  0
 26 27  1  0  0  0  0
 26 28  1  0  0  0  0
 27 28  1  0  0  0  0
 29 30  1  0  0  0  0
 31 29  2  0  0  0  0
 32 30  1  0  0  0  0
M  END
>  <MODEL>
7

>  <REMARK>
 VINA RESULT:      -4.5      3.043      6.078
  Name = 
  8 active torsions:
  status: ('A' for Active; 'I' for Inactive)
    1  A    between atoms: C_1  and  C_27
    2  A    between atoms: S_2  and  N_5
    3  A    between atoms: N_5  and  C_10
    4  A    between atoms: N_5  and  C_27
    5  A    between atoms: C_6  and  C_13
    6  A    between atoms: C_6  and  C_25
    7  A    between atoms: C_7  and  C_19
    8  A    between atoms: C_16  and  C_27
                            x       y       z     vdW  Elec       q    Type
                         _______ _______ _______ _____ _____    ______ ____

>  <TORSDO>
F 8

$$$$
=
 OpenBabel11052414323D

 32 35  0  0  1  0  0  0  0  0999 V2000
  182.7150  177.7030  137.9620 N   0  0  0  0  0  0  0  0  0  0  0  0
  187.6070  177.4220  136.0530 S   0  0  0  0  0  0  0  0  0  0  0  0
  184.0530  178.3140  137.9600 C   0  0  1  0  0  3  0  0  0  0  0  0
  188.2410  178.1120  138.4540 C   0  0  0  0  0  2  0  0  0  0  0  0
  186.7590  177.8720  138.4370 C   0  0  1  0  0  3  0  0  0  0  0  0
  184.7280  178.1990  139.3580 C   0  0  1  0  0  3  0  0  0  0  0  0
  186.0580  178.6830  139.3390 O   0  0  0  0  0  0  0  0  0  0  0  0
  186.3750  178.2550  137.0570 C   0  0  2  0  0  3  0  0  0  0  0  0
  188.8190  177.5330  137.3040 O   0  0  0  0  0  0  0  0  0  0  0  0
  184.9590  177.7660  136.8330 C   0  0  0  0  0  2  0  0  0  0  0  0
  183.9450  179.0000  140.3900 C   0  0  0  0  0  2  0  0  0  0  0  0
  183.9410  178.3110  141.7440 C   0  0  0  0  0  2  0  0  0  0  0  0
  184.9290  178.9820  142.6770 C   0  0  0  0  0  1  0  0  0  0  0  0
  182.8290  176.0050  138.3590 S   0  0  0  0  0  0  0  0  0  0  0  0
  181.5700  175.1100  137.4780 C   0  0  0  0  0  1  0  0  0  0  0  0
  182.6100  175.8060  139.8330 O   0  0  0  0  0  0  0  0  0  0  0  0
  184.1750  175.4580  137.9720 O   0  0  0  0  0  0  0  0  0  0  0  0
  181.7270  178.4940  138.7320 C   0  0  1  0  0  3  0  0  0  0  0  0
  180.6650  180.9160  135.9980 C   0  0  0  0  0  3  0  0  0  0  0  0
  180.9230  182.1480  138.0630 C   0  0  0  0  0  3  0  0  0  0  0  0
  181.3390  179.7560  138.0210 C   0  0  0  0  0  0  0  0  0  0  0  0
  180.6280  182.1310  136.6940 C   0  0  0  0  0  0  0  0  0  0  0  0
  181.2830  180.9690  138.7210 C   0  0  0  0  0  3  0  0  0  0  0  0
  181.0270  179.7340  136.6490 C   0  0  0  0  0  0  0  0  0  0  0  0
  181.0570  178.2390  135.7250 Cl  0  0  0  0  0  0  0  0  0  0  0  0
  180.1890  183.3860  136.0020 C   0  0  0  0  0  3  0  0  0  0  0  0
  181.1810  184.5100  136.2600 C   0  0  0  0  0  2  0  0  0  0  0  0
  179.8750  184.4700  137.0190 C   0  0  0  0  0  2  0  0  0  0  0  0
  180.5530  177.7500  139.3170 C   0  0  0  0  0  0  0  0  0  0  0  0
  180.4550  177.5980  140.7310 N   0  0  0  0  0  2  0  0  0  0  0  0
  179.6590  177.2720  138.5690 O   0  0  0  0  0  0  0  0  0  0  0  0
  179.4160  176.9330  141.2870 O   0  0  0  0  0  1  0  0  0  0  0  0
  1 14  1  0  0  0  0
  1 18  1  0  0  0  0
  2  8  1  0  0  0  0
  2  9  1  0  0  0  0
  3  1  1  1  0  0  0
  3  6  1  0  0  0  0
  5  4  1  6  0  0  0
  5  7  1  0  0  0  0
  6 11  1  1  0  0  0
  7  6  1  0  0  0  0
  8 10  1  6  0  0  0
  8  5  1  0  0  0  0
  9  4  1  0  0  0  0
 10  3  1  0  0  0  0
 11 12  1  0  0  0  0
 12 13  1  0  0  0  0
 14 16  2  0  0  0  0
 15 14  1  0  0  0  0
 17 14  2  0  0  0  0
 18 29  1  6  0  0  0
 19 24  2  0  0  0  0
 19 22  1  0  0  0  0
 20 23  1  0  0  0  0
 21 23  2  0  0  0  0
 21 18  1  0  0  0  0
 22 20  2  0  0  0  0
 24 21  1  0  0  0  0
 25 24  1  0  0  0  0
 26 27  1  0  0  0  0
 26 22  1  0  0  0  0
 26 28  1  0  0  0  0
 27 28  1  0  0  0  0
 29 30  1  0  0  0  0
 30 32  1  0  0  0  0
 31 29  2  0  0  0  0
M  END
>  <MODEL>
8

>  <REMARK>
 VINA RESULT:      -4.3      2.977      6.626
  Name = 
  8 active torsions:
  status: ('A' for Active; 'I' for Inactive)
    1  A    between atoms: C_1  and  C_27
    2  A    between atoms: S_2  and  N_5
    3  A    between atoms: N_5  and  C_10
    4  A    between atoms: N_5  and  C_27
    5  A    between atoms: C_6  and  C_13
    6  A    between atoms: C_6  and  C_25
    7  A    between atoms: C_7  and  C_19
    8  A    between atoms: C_16  and  C_27
                            x       y       z     vdW  Elec       q    Type
                         _______ _______ _______ _____ _____    ______ ____

>  <TORSDO>
F 8

$$$$
=
 OpenBabel11052414323D

 32 35  0  0  1  0  0  0  0  0999 V2000
  181.1490  176.7050  138.7260 N   0  0  0  0  0  0  0  0  0  0  0  0
  179.6930  181.0280  136.1080 S   0  0  0  0  0  0  0  0  0  0  0  0
  180.7580  178.1180  138.8400 C   0  0  1  0  0  3  0  0  0  0  0  0
  181.1980  182.1970  137.8430 C   0  0  0  0  0  2  0  0  0  0  0  0
  181.3550  180.7170  138.0440 C   0  0  1  0  0  3  0  0  0  0  0  0
  181.9370  178.9880  139.3670 C   0  0  1  0  0  3  0  0  0  0  0  0
  181.6090  180.3650  139.3760 O   0  0  0  0  0  0  0  0  0  0  0  0
  180.0260  180.1850  137.6580 C   0  0  2  0  0  3  0  0  0  0  0  0
  180.6090  182.4350  136.5830 O   0  0  0  0  0  0  0  0  0  0  0  0
  180.1630  178.6830  137.5300 C   0  0  0  0  0  2  0  0  0  0  0  0
  182.3030  178.5770  140.7880 C   0  0  0  0  0  2  0  0  0  0  0  0
  183.7670  178.1840  140.8930 C   0  0  0  0  0  2  0  0  0  0  0  0
  184.6020  179.0120  139.9370 C   0  0  0  0  0  1  0  0  0  0  0  0
  180.0290  175.6960  139.6110 S   0  0  0  0  0  0  0  0  0  0  0  0
  179.3070  176.6410  140.9330 C   0  0  0  0  0  1  0  0  0  0  0  0
  180.7540  174.5230  140.2060 O   0  0  0  0  0  0  0  0  0  0  0  0
  178.9310  175.2050  138.7090 O   0  0  0  0  0  0  0  0  0  0  0  0
  181.4330  176.3020  137.3280 C   0  0  1  0  0  3  0  0  0  0  0  0
  184.5910  177.2380  135.4260 C   0  0  0  0  0  3  0  0  0  0  0  0
  185.2270  176.2440  137.5370 C   0  0  0  0  0  3  0  0  0  0  0  0
  182.8780  176.4850  136.9720 C   0  0  0  0  0  0  0  0  0  0  0  0
  185.5900  176.8110  136.3090 C   0  0  0  0  0  0  0  0  0  0  0  0
  183.8790  176.0760  137.8630 C   0  0  0  0  0  3  0  0  0  0  0  0
  183.2400  177.0700  135.7460 C   0  0  0  0  0  0  0  0  0  0  0  0
  182.0290  177.6250  134.5990 Cl  0  0  0  0  0  0  0  0  0  0  0  0
  187.0350  177.0400  135.9820 C   0  0  0  0  0  3  0  0  0  0  0  0
  187.5040  178.3700  136.5510 C   0  0  0  0  0  2  0  0  0  0  0  0
  187.1890  178.2520  135.0790 C   0  0  0  0  0  2  0  0  0  0  0  0
  180.8610  174.9880  136.8590 C   0  0  0  0  0  0  0  0  0  0  0  0
  179.7180  174.9860  136.0080 N   0  0  0  0  0  2  0  0  0  0  0  0
  181.3900  173.8970  137.2060 O   0  0  0  0  0  0  0  0  0  0  0  0
  179.1790  173.8230  135.5720 O   0  0  0  0  0  1  0  0  0  0  0  0
  1 14  1  0  0  0  0
  2  9  1  0  0  0  0
  2  8  1  0  0  0  0
  3  1  1  6  0  0  0
  3  6  1  0  0  0  0
  5  4  1  1  0  0  0
  5  7  1  0  0  0  0
  6  7  1  0  0  0  0
  6 11  1  1  0  0  0
  8 10  1  6  0  0  0
  8  5  1  0  0  0  0
  9  4  1  0  0  0  0
 10  3  1  0  0  0  0
 11 12  1  0  0  0  0
 13 12  1  0  0  0  0
 14 16  2  0  0  0  0
 14 15  1  0  0  0  0
 17 14  2  0  0  0  0
 18 29  1  1  0  0  0
 18  1  1  0  0  0  0
 19 24  2  0  0  0  0
 19 22  1  0  0  0  0
 20 23  1  0  0  0  0
 21 18  1  0  0  0  0
 21 23  2  0  0  0  0
 22 20  2  0  0  0  0
 24 21  1  0  0  0  0
 25 24  1  0  0  0  0
 26 22  1  0  0  0  0
 26 27  1  0  0  0  0
 28 26  1  0  0  0  0
 28 27  1  0  0  0  0
 29 31  2  0  0  0  0
 30 29  1  0  0  0  0
 32 30  1  0  0  0  0
M  END
>  <MODEL>
9

>  <REMARK>
 VINA RESULT:      -4.2      2.911      4.648
  Name = 
  8 active torsions:
  status: ('A' for Active; 'I' for Inactive)
    1  A    between atoms: C_1  and  C_27
    2  A    between atoms: S_2  and  N_5
    3  A    between atoms: N_5  and  C_10
    4  A    between atoms: N_5  and  C_27
    5  A    between atoms: C_6  and  C_13
    6  A    between atoms: C_6  and  C_25
    7  A    between atoms: C_7  and  C_19
    8  A    between atoms: C_16  and  C_27
                            x       y       z     vdW  Elec       q    Type
                         _______ _______ _______ _____ _____    ______ ____

>  <TORSDO>
F 8

$$$$
