=
 OpenBabel11052416523D

 32 36  0  0  1  0  0  0  0  0999 V2000
  191.3270  176.0720  137.5020 C   0  0  1  0  0  3  0  0  0  0  0  0
  188.1500  176.9240  138.9220 C   0  0  2  0  0  3  0  0  0  0  0  0
  191.2780  176.2080  143.1990 C   0  0  0  0  0  2  0  0  0  0  0  0
  190.1990  175.2950  142.5890 C   0  0  0  0  0  2  0  0  0  0  0  0
  188.9940  177.0020  137.6550 C   0  0  1  0  0  0  0  0  0  0  0  0
  190.8710  177.9670  138.9350 O   0  0  0  0  0  0  0  0  0  0  0  0
  192.7940  176.4270  137.3600 C   0  0  0  0  0  1  0  0  0  0  0  0
  191.6010  177.4080  142.3420 C   0  0  0  0  0  3  0  0  0  0  0  0
  190.2450  177.6690  140.1390 C   0  0  0  0  0  0  0  0  0  0  0  0
  190.9640  177.6110  141.2220 C   0  0  0  0  0  0  0  0  0  0  0  0
  187.9470  177.5450  141.3070 C   0  0  2  0  0  3  0  0  0  0  0  0
  189.4030  174.9000  136.3500 C   0  0  1  0  0  3  0  0  0  0  0  0
  190.4920  177.3420  137.7140 C   0  0  1  0  0  3  0  0  0  0  0  0
  188.5130  176.1320  136.5010 C   0  0  0  0  0  2  0  0  0  0  0  0
  190.8760  175.3140  136.2530 C   0  0  0  0  0  2  0  0  0  0  0  0
  188.7710  175.7320  142.9310 C   0  0  0  0  0  2  0  0  0  0  0  0
  188.5160  177.2170  142.6920 C   0  0  0  0  0  2  0  0  0  0  0  0
  188.0490  178.1300  137.9830 C   0  0  0  0  0  2  0  0  0  0  0  0
  188.8430  177.3130  140.1550 N   0  0  0  0  0  0  0  0  0  0  0  0
  189.1960  174.0110  137.4450 O   0  0  0  0  0  0  0  0  0  0  0  0
  188.1660  173.0670  137.4750 C   0  0  0  0  0  0  0  0  0  0  0  0
  186.7310  173.4730  137.4470 C   0  0  0  0  0  1  0  0  0  0  0  0
  188.4550  171.8440  137.5340 O   0  0  0  0  0  0  0  0  0  0  0  0
  187.3420  178.9540  141.2790 C   0  0  0  0  0  2  0  0  0  0  0  0
  185.4890  179.0010  142.9650 C   0  0  0  0  0  3  0  0  0  0  0  0
  184.1310  178.9880  143.2950 C   0  0  0  0  0  0  0  0  0  0  0  0
  183.5600  178.9390  140.9430 C   0  0  0  0  0  3  0  0  0  0  0  0
  183.1670  178.9570  142.2840 C   0  0  0  0  0  3  0  0  0  0  0  0
  184.9190  178.9480  140.6130 C   0  0  0  0  0  3  0  0  0  0  0  0
  185.8870  178.9780  141.6240 C   0  0  0  0  0  0  0  0  0  0  0  0
  183.7290  179.0000  144.6730 C   0  0  0  0  0  0  0  0  0  0  0  0
  183.4040  179.0090  145.7850 N   0  0  0  0  0  0  0  0  0  0  0  0
  1  7  1  6  0  0  0
  1 13  1  0  0  0  0
  2 18  1  6  0  0  0
  2 19  1  0  0  0  0
  4 16  1  0  0  0  0
  4  3  1  0  0  0  0
  5 14  1  6  0  0  0
  5 13  1  0  0  0  0
  5 18  1  0  0  0  0
  5  2  1  0  0  0  0
  6  9  1  0  0  0  0
  8  3  1  0  0  0  0
  9 19  1  0  0  0  0
  9 10  2  0  0  0  0
 10  8  2  0  0  0  0
 11 24  1  1  0  0  0
 11 17  1  0  0  0  0
 12 14  1  0  0  0  0
 12 20  1  1  0  0  0
 13  6  1  1  0  0  0
 15 12  1  0  0  0  0
 15  1  1  0  0  0  0
 17 16  1  0  0  0  0
 19 11  1  0  0  0  0
 20 21  1  0  0  0  0
 21 23  2  0  0  0  0
 22 21  1  0  0  0  0
 24 30  1  0  0  0  0
 25 26  1  0  0  0  0
 26 31  1  0  0  0  0
 27 28  1  0  0  0  0
 28 26  2  0  0  0  0
 29 27  2  0  0  0  0
 29 30  1  0  0  0  0
 30 25  2  0  0  0  0
 31 32  3  0  0  0  0
M  END
>  <MODEL>
1

>  <REMARK>
 VINA RESULT:      -5.9      0.000      0.000
  Name = 
  5 active torsions:
  status: ('A' for Active; 'I' for Inactive)
    1  A    between atoms: C_1  and  O_17
    2  A    between atoms: C_7  and  C_22
    3  A    between atoms: C_16  and  C_27
    4  A    between atoms: O_17  and  C_19
    5  A    between atoms: C_27  and  C_32
                            x       y       z     vdW  Elec       q    Type
                         _______ _______ _______ _____ _____    ______ ____

>  <TORSDO>
F 5

$$$$
=
 OpenBabel11052416523D

 32 36  0  0  1  0  0  0  0  0999 V2000
  190.6160  176.3400  137.4880 C   0  0  1  0  0  3  0  0  0  0  0  0
  187.5470  177.0920  139.1770 C   0  0  2  0  0  3  0  0  0  0  0  0
  191.0160  176.3210  143.1720 C   0  0  0  0  0  2  0  0  0  0  0  0
  189.9080  175.4030  142.6230 C   0  0  0  0  0  2  0  0  0  0  0  0
  188.2870  177.2200  137.8500 C   0  0  1  0  0  0  0  0  0  0  0  0
  190.2430  178.1870  139.0050 O   0  0  0  0  0  0  0  0  0  0  0  0
  192.0610  176.7270  137.2410 C   0  0  0  0  0  1  0  0  0  0  0  0
  191.2500  177.5490  142.3280 C   0  0  0  0  0  3  0  0  0  0  0  0
  189.7190  177.8440  140.2460 C   0  0  0  0  0  0  0  0  0  0  0  0
  190.5230  177.7710  141.2670 C   0  0  0  0  0  0  0  0  0  0  0  0
  187.5230  177.6440  141.5870 C   0  0  2  0  0  3  0  0  0  0  0  0
  188.6270  175.1630  136.4580 C   0  0  1  0  0  3  0  0  0  0  0  0
  189.7800  177.5870  137.8010 C   0  0  1  0  0  3  0  0  0  0  0  0
  187.7310  176.3730  136.7130 C   0  0  0  0  0  2  0  0  0  0  0  0
  190.0810  175.6070  136.2570 C   0  0  0  0  0  2  0  0  0  0  0  0
  188.5050  175.8030  143.0880 C   0  0  0  0  0  2  0  0  0  0  0  0
  188.2060  177.2900  142.9130 C   0  0  0  0  0  2  0  0  0  0  0  0
  187.3520  178.3210  138.2840 C   0  0  0  0  0  2  0  0  0  0  0  0
  188.3290  177.4610  140.3620 N   0  0  0  0  0  0  0  0  0  0  0  0
  188.5220  174.2410  137.5400 O   0  0  0  0  0  0  0  0  0  0  0  0
  187.7240  173.0960  137.4890 C   0  0  0  0  0  0  0  0  0  0  0  0
  186.2340  173.1790  137.4970 C   0  0  0  0  0  1  0  0  0  0  0  0
  188.2730  171.9650  137.4430 O   0  0  0  0  0  0  0  0  0  0  0  0
  186.8940  179.0410  141.6470 C   0  0  0  0  0  2  0  0  0  0  0  0
  184.4370  178.6610  141.3350 C   0  0  0  0  0  3  0  0  0  0  0  0
  183.1220  178.6860  141.8090 C   0  0  0  0  0  0  0  0  0  0  0  0
  183.9150  179.4530  143.9650 C   0  0  0  0  0  3  0  0  0  0  0  0
  182.8620  179.0820  143.1240 C   0  0  0  0  0  3  0  0  0  0  0  0
  185.2300  179.4300  143.4900 C   0  0  0  0  0  3  0  0  0  0  0  0
  185.4940  179.0350  142.1730 C   0  0  0  0  0  0  0  0  0  0  0  0
  182.0420  178.3130  140.9430 C   0  0  0  0  0  0  0  0  0  0  0  0
  181.1690  178.0120  140.2430 N   0  0  0  0  0  0  0  0  0  0  0  0
  1  7  1  6  0  0  0
  1 13  1  0  0  0  0
  2 18  1  6  0  0  0
  2 19  1  0  0  0  0
  4 16  1  0  0  0  0
  4  3  1  0  0  0  0
  5 14  1  6  0  0  0
  5 18  1  0  0  0  0
  5  2  1  0  0  0  0
  6  9  1  0  0  0  0
  8  3  1  0  0  0  0
  9 19  1  0  0  0  0
  9 10  2  0  0  0  0
 10  8  2  0  0  0  0
 11 24  1  1  0  0  0
 11 17  1  0  0  0  0
 12 14  1  0  0  0  0
 12 20  1  1  0  0  0
 13  5  1  0  0  0  0
 13  6  1  1  0  0  0
 15 12  1  0  0  0  0
 15  1  1  0  0  0  0
 17 16  1  0  0  0  0
 19 11  1  0  0  0  0
 21 22  1  0  0  0  0
 21 20  1  0  0  0  0
 23 21  2  0  0  0  0
 24 30  1  0  0  0  0
 25 26  2  0  0  0  0
 25 30  1  0  0  0  0
 26 28  1  0  0  0  0
 28 27  2  0  0  0  0
 29 27  1  0  0  0  0
 30 29  2  0  0  0  0
 31 26  1  0  0  0  0
 32 31  3  0  0  0  0
M  END
>  <MODEL>
2

>  <REMARK>
 VINA RESULT:      -5.6      1.277      1.674
  Name = 
  5 active torsions:
  status: ('A' for Active; 'I' for Inactive)
    1  A    between atoms: C_1  and  O_17
    2  A    between atoms: C_7  and  C_22
    3  A    between atoms: C_16  and  C_27
    4  A    between atoms: O_17  and  C_19
    5  A    between atoms: C_27  and  C_32
                            x       y       z     vdW  Elec       q    Type
                         _______ _______ _______ _____ _____    ______ ____

>  <TORSDO>
F 5

$$$$
=
 OpenBabel11052416523D

 32 36  0  0  1  0  0  0  0  0999 V2000
  179.9870  178.1220  138.0670 C   0  0  1  0  0  3  0  0  0  0  0  0
  183.4230  178.0580  139.0790 C   0  0  2  0  0  3  0  0  0  0  0  0
  183.2650  174.6310  134.9780 C   0  0  0  0  0  2  0  0  0  0  0  0
  183.3330  174.3690  136.4940 C   0  0  0  0  0  2  0  0  0  0  0  0
  182.1350  178.8720  139.1400 C   0  0  1  0  0  0  0  0  0  0  0  0
  181.8870  178.7070  136.6890 O   0  0  0  0  0  0  0  0  0  0  0  0
  178.9910  178.4060  136.9590 C   0  0  0  0  0  1  0  0  0  0  0  0
  183.0390  176.0820  134.6300 C   0  0  0  0  0  3  0  0  0  0  0  0
  182.8920  177.7510  136.6200 C   0  0  0  0  0  0  0  0  0  0  0  0
  182.9550  176.9820  135.5710 C   0  0  0  0  0  0  0  0  0  0  0  0
  185.1560  177.0430  137.6370 C   0  0  2  0  0  3  0  0  0  0  0  0
  180.2570  178.0490  140.5820 C   0  0  1  0  0  3  0  0  0  0  0  0
  181.2240  179.0150  137.9100 C   0  0  1  0  0  3  0  0  0  0  0  0
  181.4840  178.9550  140.5140 C   0  0  0  0  0  2  0  0  0  0  0  0
  179.3060  178.3490  139.4170 C   0  0  0  0  0  2  0  0  0  0  0  0
  184.7320  174.5690  137.0810 C   0  0  0  0  0  2  0  0  0  0  0  0
  185.3870  175.8830  136.6620 C   0  0  0  0  0  2  0  0  0  0  0  0
  183.4600  179.5890  139.0650 C   0  0  0  0  0  2  0  0  0  0  0  0
  183.7700  177.5420  137.7510 N   0  0  0  0  0  0  0  0  0  0  0  0
  180.6580  176.6810  140.5700 O   0  0  0  0  0  0  0  0  0  0  0  0
  179.7490  175.6210  140.5860 C   0  0  0  0  0  0  0  0  0  0  0  0
  179.7160  174.6010  139.4960 C   0  0  0  0  0  1  0  0  0  0  0  0
  178.9310  175.5260  141.5370 O   0  0  0  0  0  0  0  0  0  0  0  0
  186.1490  178.1820  137.3830 C   0  0  0  0  0  2  0  0  0  0  0  0
  187.5850  178.0640  139.4330 C   0  0  0  0  0  3  0  0  0  0  0  0
  188.8270  177.8990  140.0520 C   0  0  0  0  0  0  0  0  0  0  0  0
  189.8550  177.5300  137.8910 C   0  0  0  0  0  3  0  0  0  0  0  0
  189.9620  177.6320  139.2810 C   0  0  0  0  0  3  0  0  0  0  0  0
  188.6130  177.6990  137.2710 C   0  0  0  0  0  3  0  0  0  0  0  0
  187.4750  177.9680  138.0410 C   0  0  0  0  0  0  0  0  0  0  0  0
  188.9360  178.0110  141.4790 C   0  0  0  0  0  0  0  0  0  0  0  0
  189.0250  178.1010  142.6300 N   0  0  0  0  0  0  0  0  0  0  0  0
  1  7  1  6  0  0  0
  1 15  1  0  0  0  0
  2 18  1  6  0  0  0
  2  5  1  0  0  0  0
  3  4  1  0  0  0  0
  4 16  1  0  0  0  0
  5 18  1  6  0  0  0
  5 14  1  0  0  0  0
  8  3  1  0  0  0  0
  8 10  2  0  0  0  0
  9  6  1  0  0  0  0
  9 19  1  0  0  0  0
 10  9  2  0  0  0  0
 11 24  1  6  0  0  0
 11 19  1  0  0  0  0
 12 20  1  6  0  0  0
 13  6  1  6  0  0  0
 13  1  1  0  0  0  0
 13  5  1  0  0  0  0
 14 12  1  0  0  0  0
 15 12  1  0  0  0  0
 17 16  1  0  0  0  0
 17 11  1  0  0  0  0
 19  2  1  0  0  0  0
 20 21  1  0  0  0  0
 21 23  2  0  0  0  0
 22 21  1  0  0  0  0
 24 30  1  0  0  0  0
 25 26  1  0  0  0  0
 26 31  1  0  0  0  0
 27 28  1  0  0  0  0
 28 26  2  0  0  0  0
 29 27  2  0  0  0  0
 29 30  1  0  0  0  0
 30 25  2  0  0  0  0
 31 32  3  0  0  0  0
M  END
>  <MODEL>
3

>  <REMARK>
 VINA RESULT:      -5.6      4.529      8.410
  Name = 
  5 active torsions:
  status: ('A' for Active; 'I' for Inactive)
    1  A    between atoms: C_1  and  O_17
    2  A    between atoms: C_7  and  C_22
    3  A    between atoms: C_16  and  C_27
    4  A    between atoms: O_17  and  C_19
    5  A    between atoms: C_27  and  C_32
                            x       y       z     vdW  Elec       q    Type
                         _______ _______ _______ _____ _____    ______ ____

>  <TORSDO>
F 5

$$$$
=
 OpenBabel11052416523D

 32 36  0  0  1  0  0  0  0  0999 V2000
  188.5150  178.1290  137.9660 C   0  0  1  0  0  3  0  0  0  0  0  0
  190.6940  175.3030  137.6450 C   0  0  2  0  0  3  0  0  0  0  0  0
  185.9700  173.4330  135.9800 C   0  0  0  0  0  2  0  0  0  0  0  0
  186.7120  173.2230  137.3130 C   0  0  0  0  0  2  0  0  0  0  0  0
  190.6550  176.8240  137.7510 C   0  0  1  0  0  0  0  0  0  0  0  0
  189.0020  176.9330  135.9200 O   0  0  0  0  0  0  0  0  0  0  0  0
  187.5850  179.1040  137.2710 C   0  0  0  0  0  1  0  0  0  0  0  0
  186.6180  174.4660  135.0900 C   0  0  0  0  0  3  0  0  0  0  0  0
  188.8070  175.5580  135.9720 C   0  0  0  0  0  0  0  0  0  0  0  0
  187.7200  175.0590  135.4600 C   0  0  0  0  0  0  0  0  0  0  0  0
  190.0080  173.3060  136.3590 C   0  0  2  0  0  3  0  0  0  0  0  0
  190.0590  177.8640  139.9520 C   0  0  1  0  0  3  0  0  0  0  0  0
  189.6010  177.6490  136.9940 C   0  0  1  0  0  3  0  0  0  0  0  0
  191.2000  177.3980  139.0510 C   0  0  0  0  0  2  0  0  0  0  0  0
  189.1280  178.8130  139.1890 C   0  0  0  0  0  2  0  0  0  0  0  0
  187.8510  172.2040  137.2180 C   0  0  0  0  0  2  0  0  0  0  0  0
  188.7840  172.4420  136.0340 C   0  0  0  0  0  2  0  0  0  0  0  0
  191.7140  176.1690  136.9000 C   0  0  0  0  0  2  0  0  0  0  0  0
  189.7450  174.7220  136.6900 N   0  0  0  0  0  0  0  0  0  0  0  0
  189.3400  176.7380  140.4510 O   0  0  0  0  0  0  0  0  0  0  0  0
  189.3270  176.3800  141.8010 C   0  0  0  0  0  0  0  0  0  0  0  0
  188.2070  176.7740  142.7050 C   0  0  0  0  0  1  0  0  0  0  0  0
  190.2870  175.7150  142.2700 O   0  0  0  0  0  0  0  0  0  0  0  0
  191.0830  173.1680  135.2760 C   0  0  0  0  0  2  0  0  0  0  0  0
  193.1690  172.9520  136.6490 C   0  0  0  0  0  3  0  0  0  0  0  0
  194.3060  172.2440  137.0480 C   0  0  0  0  0  0  0  0  0  0  0  0
  193.6630  170.4020  135.6140 C   0  0  0  0  0  3  0  0  0  0  0  0
  194.5530  170.9690  136.5310 C   0  0  0  0  0  3  0  0  0  0  0  0
  192.5270  171.1120  135.2120 C   0  0  0  0  0  3  0  0  0  0  0  0
  192.2780  172.3890  135.7270 C   0  0  0  0  0  0  0  0  0  0  0  0
  195.2220  172.8300  137.9840 C   0  0  0  0  0  0  0  0  0  0  0  0
  195.9620  173.3030  138.7390 N   0  0  0  0  0  0  0  0  0  0  0  0
  1  7  1  6  0  0  0
  1 15  1  0  0  0  0
  2 18  1  6  0  0  0
  2  5  1  0  0  0  0
  3  4  1  0  0  0  0
  5 18  1  6  0  0  0
  5 14  1  0  0  0  0
  6  9  1  0  0  0  0
  8 10  2  0  0  0  0
  8  3  1  0  0  0  0
  9 19  1  0  0  0  0
 10  9  2  0  0  0  0
 11 24  1  6  0  0  0
 11 19  1  0  0  0  0
 12 20  1  6  0  0  0
 13  6  1  6  0  0  0
 13  5  1  0  0  0  0
 13  1  1  0  0  0  0
 14 12  1  0  0  0  0
 15 12  1  0  0  0  0
 16  4  1  0  0  0  0
 17 11  1  0  0  0  0
 17 16  1  0  0  0  0
 19  2  1  0  0  0  0
 20 21  1  0  0  0  0
 21 23  2  0  0  0  0
 21 22  1  0  0  0  0
 24 30  1  0  0  0  0
 25 26  1  0  0  0  0
 26 31  1  0  0  0  0
 27 28  1  0  0  0  0
 28 26  2  0  0  0  0
 29 27  2  0  0  0  0
 29 30  1  0  0  0  0
 30 25  2  0  0  0  0
 31 32  3  0  0  0  0
M  END
>  <MODEL>
4

>  <REMARK>
 VINA RESULT:      -5.6      3.533      8.506
  Name = 
  5 active torsions:
  status: ('A' for Active; 'I' for Inactive)
    1  A    between atoms: C_1  and  O_17
    2  A    between atoms: C_7  and  C_22
    3  A    between atoms: C_16  and  C_27
    4  A    between atoms: O_17  and  C_19
    5  A    between atoms: C_27  and  C_32
                            x       y       z     vdW  Elec       q    Type
                         _______ _______ _______ _____ _____    ______ ____

>  <TORSDO>
F 5

$$$$
=
 OpenBabel11052416523D

 32 36  0  0  1  0  0  0  0  0999 V2000
  182.6980  178.8580  138.5880 C   0  0  1  0  0  3  0  0  0  0  0  0
  185.5770  177.8790  140.4830 C   0  0  2  0  0  3  0  0  0  0  0  0
  186.9780  176.8040  135.4370 C   0  0  0  0  0  2  0  0  0  0  0  0
  186.5320  175.8610  136.5700 C   0  0  0  0  0  2  0  0  0  0  0  0
  184.3150  178.7340  140.5120 C   0  0  1  0  0  0  0  0  0  0  0  0
  184.9300  179.7610  138.3530 O   0  0  0  0  0  0  0  0  0  0  0  0
  182.1330  179.7530  137.5030 C   0  0  0  0  0  1  0  0  0  0  0  0
  186.8270  178.2660  135.7790 C   0  0  0  0  0  3  0  0  0  0  0  0
  185.9370  178.8220  138.1580 C   0  0  0  0  0  0  0  0  0  0  0  0
  186.3880  178.6280  136.9530 C   0  0  0  0  0  0  0  0  0  0  0  0
  187.7400  177.4320  139.3730 C   0  0  2  0  0  3  0  0  0  0  0  0
  182.0910  177.5910  140.6920 C   0  0  1  0  0  3  0  0  0  0  0  0
  183.8760  179.5510  139.2860 C   0  0  1  0  0  3  0  0  0  0  0  0
  183.2290  178.2540  141.4660 C   0  0  0  0  0  2  0  0  0  0  0  0
  181.5860  178.5200  139.5820 C   0  0  0  0  0  2  0  0  0  0  0  0
  187.6350  175.5790  137.5930 C   0  0  0  0  0  2  0  0  0  0  0  0
  188.3390  176.8380  138.0920 C   0  0  0  0  0  2  0  0  0  0  0  0
  185.5540  179.2220  141.2200 C   0  0  0  0  0  2  0  0  0  0  0  0
  186.3810  177.9990  139.2620 N   0  0  0  0  0  0  0  0  0  0  0  0
  182.5280  176.3460  140.1530 O   0  0  0  0  0  0  0  0  0  0  0  0
  181.7150  175.5340  139.3580 C   0  0  0  0  0  0  0  0  0  0  0  0
  182.1010  175.1650  137.9650 C   0  0  0  0  0  1  0  0  0  0  0  0
  180.6260  175.1090  139.8240 O   0  0  0  0  0  0  0  0  0  0  0  0
  188.7130  178.4170  140.0310 C   0  0  0  0  0  2  0  0  0  0  0  0
  188.6440  177.9030  142.4820 C   0  0  0  0  0  3  0  0  0  0  0  0
  189.2440  177.4320  143.6540 C   0  0  0  0  0  0  0  0  0  0  0  0
  191.2530  176.9010  142.4110 C   0  0  0  0  0  3  0  0  0  0  0  0
  190.5480  176.9320  143.6180 C   0  0  0  0  0  3  0  0  0  0  0  0
  190.6540  177.3740  141.2400 C   0  0  0  0  0  3  0  0  0  0  0  0
  189.3480  177.8780  141.2730 C   0  0  0  0  0  0  0  0  0  0  0  0
  188.5220  177.4710  144.8930 C   0  0  0  0  0  0  0  0  0  0  0  0
  187.9390  177.5030  145.8940 N   0  0  0  0  0  0  0  0  0  0  0  0
  1  7  1  6  0  0  0
  1 13  1  0  0  0  0
  1 15  1  0  0  0  0
  2  5  1  0  0  0  0
  2 18  1  1  0  0  0
  3  8  1  0  0  0  0
  3  4  1  0  0  0  0
  4 16  1  0  0  0  0
  5 18  1  1  0  0  0
  5 14  1  0  0  0  0
  8 10  2  0  0  0  0
  9  6  1  0  0  0  0
  9 19  1  0  0  0  0
 10  9  2  0  0  0  0
 11 24  1  6  0  0  0
 12 20  1  6  0  0  0
 12 14  1  0  0  0  0
 13  6  1  6  0  0  0
 13  5  1  0  0  0  0
 15 12  1  0  0  0  0
 16 17  1  0  0  0  0
 17 11  1  0  0  0  0
 19 11  1  0  0  0  0
 19  2  1  0  0  0  0
 21 23  2  0  0  0  0
 21 20  1  0  0  0  0
 22 21  1  0  0  0  0
 24 30  1  0  0  0  0
 25 26  1  0  0  0  0
 26 31  1  0  0  0  0
 27 28  1  0  0  0  0
 28 26  2  0  0  0  0
 29 30  1  0  0  0  0
 29 27  2  0  0  0  0
 30 25  2  0  0  0  0
 31 32  3  0  0  0  0
M  END
>  <MODEL>
5

>  <REMARK>
 VINA RESULT:      -5.2      3.179      6.620
  Name = 
  5 active torsions:
  status: ('A' for Active; 'I' for Inactive)
    1  A    between atoms: C_1  and  O_17
    2  A    between atoms: C_7  and  C_22
    3  A    between atoms: C_16  and  C_27
    4  A    between atoms: O_17  and  C_19
    5  A    between atoms: C_27  and  C_32
                            x       y       z     vdW  Elec       q    Type
                         _______ _______ _______ _____ _____    ______ ____

>  <TORSDO>
F 5

$$$$
=
 OpenBabel11052416523D

 32 36  0  0  1  0  0  0  0  0999 V2000
  186.9980  177.9660  139.1830 C   0  0  1  0  0  3  0  0  0  0  0  0
  189.8120  176.1430  137.9180 C   0  0  2  0  0  3  0  0  0  0  0  0
  185.6420  173.0520  136.6360 C   0  0  0  0  0  2  0  0  0  0  0  0
  186.6850  172.9040  137.7590 C   0  0  0  0  0  2  0  0  0  0  0  0
  189.3340  177.5230  138.3580 C   0  0  1  0  0  0  0  0  0  0  0  0
  187.3680  177.3420  136.8750 O   0  0  0  0  0  0  0  0  0  0  0  0
  185.6870  178.6600  138.8710 C   0  0  0  0  0  1  0  0  0  0  0  0
  185.7320  174.3690  135.9050 C   0  0  0  0  0  3  0  0  0  0  0  0
  187.6200  175.9940  136.6530 C   0  0  0  0  0  0  0  0  0  0  0  0
  186.6530  175.2380  136.2200 C   0  0  0  0  0  0  0  0  0  0  0  0
  189.5050  174.2580  136.3480 C   0  0  2  0  0  3  0  0  0  0  0  0
  188.9450  177.9400  140.7990 C   0  0  1  0  0  3  0  0  0  0  0  0
  187.9390  178.0440  137.9730 C   0  0  1  0  0  3  0  0  0  0  0  0
  189.9480  178.0400  139.6520 C   0  0  0  0  0  2  0  0  0  0  0  0
  187.6250  178.6200  140.4160 C   0  0  0  0  0  2  0  0  0  0  0  0
  188.0310  172.3640  137.2680 C   0  0  0  0  0  2  0  0  0  0  0  0
  188.5640  173.0890  136.0350 C   0  0  0  0  0  2  0  0  0  0  0  0
  190.3290  177.4110  137.2300 C   0  0  0  0  0  2  0  0  0  0  0  0
  188.9010  175.4280  137.0170 N   0  0  0  0  0  0  0  0  0  0  0  0
  188.7320  176.5740  141.1440 O   0  0  0  0  0  0  0  0  0  0  0  0
  188.9450  176.0710  142.4300 C   0  0  0  0  0  0  0  0  0  0  0  0
  190.2950  175.6250  142.8830 C   0  0  0  0  0  1  0  0  0  0  0  0
  187.9740  175.9850  143.2250 O   0  0  0  0  0  0  0  0  0  0  0  0
  190.3080  174.6660  135.1070 C   0  0  0  0  0  2  0  0  0  0  0  0
  192.5800  175.7090  135.2760 C   0  0  0  0  0  3  0  0  0  0  0  0
  193.9670  175.6100  135.4200 C   0  0  0  0  0  0  0  0  0  0  0  0
  193.7740  173.2050  135.6210 C   0  0  0  0  0  3  0  0  0  0  0  0
  194.5640  174.3580  135.5920 C   0  0  0  0  0  3  0  0  0  0  0  0
  192.3870  173.3040  135.4740 C   0  0  0  0  0  3  0  0  0  0  0  0
  191.7870  174.5560  135.2990 C   0  0  0  0  0  0  0  0  0  0  0  0
  194.7770  176.7940  135.3830 C   0  0  0  0  0  0  0  0  0  0  0  0
  195.4300  177.7500  135.3530 N   0  0  0  0  0  0  0  0  0  0  0  0
  1  7  1  6  0  0  0
  1 15  1  0  0  0  0
  2 18  1  6  0  0  0
  2  5  1  0  0  0  0
  3  4  1  0  0  0  0
  5 18  1  6  0  0  0
  5 14  1  0  0  0  0
  8 10  2  0  0  0  0
  8  3  1  0  0  0  0
  9  6  1  0  0  0  0
  9 19  1  0  0  0  0
 10  9  2  0  0  0  0
 11 24  1  6  0  0  0
 11 19  1  0  0  0  0
 12 20  1  6  0  0  0
 13  6  1  6  0  0  0
 13  5  1  0  0  0  0
 13  1  1  0  0  0  0
 14 12  1  0  0  0  0
 15 12  1  0  0  0  0
 16  4  1  0  0  0  0
 17 11  1  0  0  0  0
 17 16  1  0  0  0  0
 19  2  1  0  0  0  0
 20 21  1  0  0  0  0
 21 22  1  0  0  0  0
 21 23  2  0  0  0  0
 24 30  1  0  0  0  0
 25 30  2  0  0  0  0
 25 26  1  0  0  0  0
 26 28  2  0  0  0  0
 28 27  1  0  0  0  0
 29 27  2  0  0  0  0
 30 29  1  0  0  0  0
 31 26  1  0  0  0  0
 32 31  3  0  0  0  0
M  END
>  <MODEL>
6

>  <REMARK>
 VINA RESULT:      -5.2      3.172      8.265
  Name = 
  5 active torsions:
  status: ('A' for Active; 'I' for Inactive)
    1  A    between atoms: C_1  and  O_17
    2  A    between atoms: C_7  and  C_22
    3  A    between atoms: C_16  and  C_27
    4  A    between atoms: O_17  and  C_19
    5  A    between atoms: C_27  and  C_32
                            x       y       z     vdW  Elec       q    Type
                         _______ _______ _______ _____ _____    ______ ____

>  <TORSDO>
F 5

$$$$
=
 OpenBabel11052416523D

 32 36  0  0  1  0  0  0  0  0999 V2000
  179.7900  175.2580  136.3470 C   0  0  1  0  0  3  0  0  0  0  0  0
  182.0060  176.2520  138.9810 C   0  0  2  0  0  3  0  0  0  0  0  0
  185.0400  176.6140  134.5940 C   0  0  0  0  0  2  0  0  0  0  0  0
  185.0110  175.5430  135.7000 C   0  0  0  0  0  2  0  0  0  0  0  0
  180.5380  176.0930  138.5990 C   0  0  1  0  0  0  0  0  0  0  0  0
  180.9090  177.3940  136.5340 O   0  0  0  0  0  0  0  0  0  0  0  0
  179.1000  175.6390  135.0520 C   0  0  0  0  0  1  0  0  0  0  0  0
  183.9150  177.6150  134.6980 C   0  0  0  0  0  3  0  0  0  0  0  0
  182.2870  177.3350  136.7060 C   0  0  0  0  0  0  0  0  0  0  0  0
  183.0560  177.5430  135.6780 C   0  0  0  0  0  0  0  0  0  0  0  0
  184.1590  177.3620  138.4830 C   0  0  2  0  0  3  0  0  0  0  0  0
  179.5920  173.7810  138.3910 C   0  0  1  0  0  3  0  0  0  0  0  0
  180.0270  176.5040  137.2090 C   0  0  1  0  0  3  0  0  0  0  0  0
  179.7980  174.9750  139.3210 C   0  0  0  0  0  2  0  0  0  0  0  0
  178.9310  174.2290  137.0830 C   0  0  0  0  0  2  0  0  0  0  0  0
  185.7220  175.9790  136.9840 C   0  0  0  0  0  2  0  0  0  0  0  0
  185.3080  177.3650  137.4690 C   0  0  0  0  0  2  0  0  0  0  0  0
  180.9460  177.2220  139.5120 C   0  0  0  0  0  2  0  0  0  0  0  0
  182.8390  176.9280  137.9800 N   0  0  0  0  0  0  0  0  0  0  0  0
  180.8400  173.1400  138.1370 O   0  0  0  0  0  0  0  0  0  0  0  0
  180.9500  171.9490  137.4140 C   0  0  0  0  0  0  0  0  0  0  0  0
  182.2280  171.5480  136.7550 C   0  0  0  0  0  1  0  0  0  0  0  0
  179.9460  171.1980  137.3100 O   0  0  0  0  0  0  0  0  0  0  0  0
  184.0710  178.7030  139.2210 C   0  0  0  0  0  2  0  0  0  0  0  0
  185.8250  178.4220  140.9880 C   0  0  0  0  0  3  0  0  0  0  0  0
  186.2090  178.3030  142.3270 C   0  0  0  0  0  0  0  0  0  0  0  0
  183.9020  178.5760  143.0120 C   0  0  0  0  0  3  0  0  0  0  0  0
  185.2480  178.3800  143.3380 C   0  0  0  0  0  3  0  0  0  0  0  0
  183.5180  178.6920  141.6720 C   0  0  0  0  0  3  0  0  0  0  0  0
  184.4790  178.6140  140.6570 C   0  0  0  0  0  0  0  0  0  0  0  0
  187.5890  178.0940  142.6600 C   0  0  0  0  0  0  0  0  0  0  0  0
  188.7030  177.9260  142.9290 N   0  0  0  0  0  0  0  0  0  0  0  0
  1  7  1  6  0  0  0
  1 15  1  0  0  0  0
  1 13  1  0  0  0  0
  2 18  1  1  0  0  0
  3  8  1  0  0  0  0
  3  4  1  0  0  0  0
  4 16  1  0  0  0  0
  5  2  1  0  0  0  0
  5 14  1  1  0  0  0
  5 18  1  0  0  0  0
  6  9  1  0  0  0  0
  8 10  2  0  0  0  0
  9 19  1  0  0  0  0
 10  9  2  0  0  0  0
 11 24  1  6  0  0  0
 12 20  1  6  0  0  0
 12 14  1  0  0  0  0
 13  6  1  6  0  0  0
 13  5  1  0  0  0  0
 15 12  1  0  0  0  0
 16 17  1  0  0  0  0
 17 11  1  0  0  0  0
 19 11  1  0  0  0  0
 19  2  1  0  0  0  0
 21 20  1  0  0  0  0
 22 21  1  0  0  0  0
 23 21  2  0  0  0  0
 24 30  1  0  0  0  0
 25 26  1  0  0  0  0
 26 31  1  0  0  0  0
 26 28  2  0  0  0  0
 27 28  1  0  0  0  0
 29 27  2  0  0  0  0
 30 25  2  0  0  0  0
 30 29  1  0  0  0  0
 31 32  3  0  0  0  0
M  END
>  <MODEL>
7

>  <REMARK>
 VINA RESULT:      -5.1      4.981      7.867
  Name = 
  5 active torsions:
  status: ('A' for Active; 'I' for Inactive)
    1  A    between atoms: C_1  and  O_17
    2  A    between atoms: C_7  and  C_22
    3  A    between atoms: C_16  and  C_27
    4  A    between atoms: O_17  and  C_19
    5  A    between atoms: C_27  and  C_32
                            x       y       z     vdW  Elec       q    Type
                         _______ _______ _______ _____ _____    ______ ____

>  <TORSDO>
F 5

$$$$
=
 OpenBabel11052416523D

 32 36  0  0  1  0  0  0  0  0999 V2000
  179.6110  180.8180  139.7880 C   0  0  1  0  0  3  0  0  0  0  0  0
  181.3950  179.3440  137.0520 C   0  0  2  0  0  3  0  0  0  0  0  0
  184.5250  178.3430  141.2700 C   0  0  0  0  0  2  0  0  0  0  0  0
  184.6680  179.3880  140.1480 C   0  0  0  0  0  2  0  0  0  0  0  0
  180.0230  179.8260  137.5130 C   0  0  1  0  0  0  0  0  0  0  0  0
  180.2180  178.4850  139.5770 O   0  0  0  0  0  0  0  0  0  0  0  0
  178.9310  180.6050  141.1260 C   0  0  0  0  0  1  0  0  0  0  0  0
  183.2030  177.6150  141.2460 C   0  0  0  0  0  3  0  0  0  0  0  0
  181.5620  178.2380  139.3270 C   0  0  0  0  0  0  0  0  0  0  0  0
  182.3260  177.8690  140.3140 C   0  0  0  0  0  0  0  0  0  0  0  0
  183.2750  177.7880  137.4490 C   0  0  2  0  0  3  0  0  0  0  0  0
  179.6240  182.2910  137.7310 C   0  0  1  0  0  3  0  0  0  0  0  0
  179.5160  179.5450  138.9370 C   0  0  1  0  0  3  0  0  0  0  0  0
  179.5070  181.0760  136.8130 C   0  0  0  0  0  2  0  0  0  0  0  0
  178.9580  182.0070  139.0820 C   0  0  0  0  0  2  0  0  0  0  0  0
  185.1900  178.7990  138.8340 C   0  0  0  0  0  2  0  0  0  0  0  0
  184.4530  177.5350  138.3980 C   0  0  0  0  0  2  0  0  0  0  0  0
  180.1180  178.6300  136.5990 C   0  0  0  0  0  2  0  0  0  0  0  0
  182.1150  178.5050  138.0170 N   0  0  0  0  0  0  0  0  0  0  0  0
  180.9950  182.6410  137.9040 O   0  0  0  0  0  0  0  0  0  0  0  0
  181.5670  183.7810  137.3330 C   0  0  0  0  0  0  0  0  0  0  0  0
  180.8970  184.5230  136.2250 C   0  0  0  0  0  1  0  0  0  0  0  0
  182.6800  184.1890  137.7570 O   0  0  0  0  0  0  0  0  0  0  0  0
  182.8500  176.4960  136.7420 C   0  0  0  0  0  2  0  0  0  0  0  0
  185.1030  175.5570  136.1700 C   0  0  0  0  0  3  0  0  0  0  0  0
  186.0530  174.5330  136.2190 C   0  0  0  0  0  0  0  0  0  0  0  0
  184.5590  173.2140  137.5950 C   0  0  0  0  0  3  0  0  0  0  0  0
  185.7810  173.3620  136.9310 C   0  0  0  0  0  3  0  0  0  0  0  0
  183.6080  174.2370  137.5430 C   0  0  0  0  0  3  0  0  0  0  0  0
  183.8770  175.4110  136.8290 C   0  0  0  0  0  0  0  0  0  0  0  0
  187.3030  174.6840  135.5310 C   0  0  0  0  0  0  0  0  0  0  0  0
  188.3130  174.8050  134.9760 N   0  0  0  0  0  0  0  0  0  0  0  0
  1  7  1  1  0  0  0
  2 18  1  6  0  0  0
  2  5  1  0  0  0  0
  2 19  1  0  0  0  0
  4  3  1  0  0  0  0
  5 18  1  6  0  0  0
  5 13  1  0  0  0  0
  8  3  1  0  0  0  0
  9  6  1  0  0  0  0
  9 10  2  0  0  0  0
 10  8  2  0  0  0  0
 11 24  1  1  0  0  0
 11 19  1  0  0  0  0
 11 17  1  0  0  0  0
 12 20  1  1  0  0  0
 12 15  1  0  0  0  0
 13  6  1  1  0  0  0
 13  1  1  0  0  0  0
 14  5  1  0  0  0  0
 14 12  1  0  0  0  0
 15  1  1  0  0  0  0
 16  4  1  0  0  0  0
 17 16  1  0  0  0  0
 19  9  1  0  0  0  0
 21 23  2  0  0  0  0
 21 20  1  0  0  0  0
 22 21  1  0  0  0  0
 24 30  1  0  0  0  0
 25 26  2  0  0  0  0
 25 30  1  0  0  0  0
 26 28  1  0  0  0  0
 28 27  2  0  0  0  0
 29 27  1  0  0  0  0
 30 29  2  0  0  0  0
 31 26  1  0  0  0  0
 32 31  3  0  0  0  0
M  END
>  <MODEL>
8

>  <REMARK>
 VINA RESULT:      -4.9      5.256      9.786
  Name = 
  5 active torsions:
  status: ('A' for Active; 'I' for Inactive)
    1  A    between atoms: C_1  and  O_17
    2  A    between atoms: C_7  and  C_22
    3  A    between atoms: C_16  and  C_27
    4  A    between atoms: O_17  and  C_19
    5  A    between atoms: C_27  and  C_32
                            x       y       z     vdW  Elec       q    Type
                         _______ _______ _______ _____ _____    ______ ____

>  <TORSDO>
F 5

$$$$
=
 OpenBabel11052416523D

 32 36  0  0  1  0  0  0  0  0999 V2000
  179.5370  181.3880  139.5170 C   0  0  1  0  0  3  0  0  0  0  0  0
  180.7450  178.9720  137.1630 C   0  0  2  0  0  3  0  0  0  0  0  0
  184.2970  178.7150  141.1510 C   0  0  0  0  0  2  0  0  0  0  0  0
  184.4000  179.3780  139.7650 C   0  0  0  0  0  2  0  0  0  0  0  0
  179.5140  179.7590  137.5990 C   0  0  1  0  0  0  0  0  0  0  0  0
  179.8400  179.0240  139.9330 O   0  0  0  0  0  0  0  0  0  0  0  0
  179.0290  181.6530  140.9210 C   0  0  0  0  0  1  0  0  0  0  0  0
  182.9110  178.2130  141.4730 C   0  0  0  0  0  3  0  0  0  0  0  0
  181.1000  178.5210  139.6320 C   0  0  0  0  0  0  0  0  0  0  0  0
  181.9470  178.3290  140.6010 C   0  0  0  0  0  0  0  0  0  0  0  0
  182.4730  177.3240  137.8030 C   0  0  2  0  0  3  0  0  0  0  0  0
  179.4310  182.2210  137.1300 C   0  0  1  0  0  3  0  0  0  0  0  0
  179.1810  179.9590  139.0870 C   0  0  1  0  0  3  0  0  0  0  0  0
  179.0510  180.8320  136.6220 C   0  0  0  0  0  2  0  0  0  0  0  0
  178.9310  182.4210  138.5660 C   0  0  0  0  0  2  0  0  0  0  0  0
  184.6640  178.3810  138.6340 C   0  0  0  0  0  2  0  0  0  0  0  0
  183.7350  177.1700  138.6600 C   0  0  0  0  0  2  0  0  0  0  0  0
  179.3450  178.3580  137.0680 C   0  0  0  0  0  2  0  0  0  0  0  0
  181.4920  178.3340  138.2520 N   0  0  0  0  0  0  0  0  0  0  0  0
  180.8440  182.3980  137.0550 O   0  0  0  0  0  0  0  0  0  0  0  0
  181.4570  183.6520  137.1080 C   0  0  0  0  0  0  0  0  0  0  0  0
  181.1160  184.7330  136.1380 C   0  0  0  0  0  1  0  0  0  0  0  0
  182.3250  183.8750  137.9920 O   0  0  0  0  0  0  0  0  0  0  0  0
  181.8110  175.9650  137.5480 C   0  0  0  0  0  2  0  0  0  0  0  0
  182.6220  173.6970  136.8590 C   0  0  0  0  0  3  0  0  0  0  0  0
  183.3940  172.8670  136.0410 C   0  0  0  0  0  0  0  0  0  0  0  0
  184.1420  174.7990  134.7870 C   0  0  0  0  0  3  0  0  0  0  0  0
  184.1540  173.4180  135.0060 C   0  0  0  0  0  3  0  0  0  0  0  0
  183.3710  175.6290  135.6070 C   0  0  0  0  0  3  0  0  0  0  0  0
  182.6110  175.0800  136.6460 C   0  0  0  0  0  0  0  0  0  0  0  0
  183.4110  171.4500  136.2710 C   0  0  0  0  0  0  0  0  0  0  0  0
  183.4250  170.3070  136.4560 N   0  0  0  0  0  0  0  0  0  0  0  0
  1  7  1  1  0  0  0
  2 18  1  6  0  0  0
  2  5  1  0  0  0  0
  2 19  1  0  0  0  0
  3  8  1  0  0  0  0
  4  3  1  0  0  0  0
  5 14  1  6  0  0  0
  5 13  1  0  0  0  0
  9  6  1  0  0  0  0
  9 10  2  0  0  0  0
 10  8  2  0  0  0  0
 11 24  1  1  0  0  0
 11 19  1  0  0  0  0
 11 17  1  0  0  0  0
 12 20  1  1  0  0  0
 12 15  1  0  0  0  0
 13  1  1  0  0  0  0
 13  6  1  1  0  0  0
 14 12  1  0  0  0  0
 15  1  1  0  0  0  0
 16 17  1  0  0  0  0
 16  4  1  0  0  0  0
 18  5  1  0  0  0  0
 19  9  1  0  0  0  0
 20 21  1  0  0  0  0
 21 23  2  0  0  0  0
 22 21  1  0  0  0  0
 26 31  1  0  0  0  0
 26 25  2  0  0  0  0
 27 28  2  0  0  0  0
 27 29  1  0  0  0  0
 28 26  1  0  0  0  0
 29 30  2  0  0  0  0
 30 25  1  0  0  0  0
 30 24  1  0  0  0  0
 31 32  3  0  0  0  0
M  END
>  <MODEL>
9

>  <REMARK>
 VINA RESULT:      -4.8      6.048     10.128
  Name = 
  5 active torsions:
  status: ('A' for Active; 'I' for Inactive)
    1  A    between atoms: C_1  and  O_17
    2  A    between atoms: C_7  and  C_22
    3  A    between atoms: C_16  and  C_27
    4  A    between atoms: O_17  and  C_19
    5  A    between atoms: C_27  and  C_32
                            x       y       z     vdW  Elec       q    Type
                         _______ _______ _______ _____ _____    ______ ____

>  <TORSDO>
F 5

$$$$
