=
 OpenBabel11052415163D

 37 46  0  0  1  0  0  0  0  0999 V2000
  187.5590  177.3160  136.9070 C   0  0  2  0  0  3  0  0  0  0  0  0
  183.2650  173.4480  136.1670 O   0  0  0  0  0  0  0  0  0  0  0  0
  186.9650  177.7380  143.4490 C   0  0  0  0  0  2  0  0  0  0  0  0
  184.0090  179.0830  139.1200 C   0  0  1  0  0  3  0  0  0  0  0  0
  187.1920  178.2370  135.7680 C   0  0  0  0  0  2  0  0  0  0  0  0
  183.5830  174.0980  137.3900 C   0  0  1  0  0  3  0  0  0  0  0  0
  185.0590  174.4870  137.4840 C   0  0  0  0  0  2  0  0  0  0  0  0
  182.5560  175.1400  137.9130 C   0  0  2  0  0  3  0  0  0  0  0  0
  183.8500  178.3640  141.5330 C   0  0  0  0  0  2  0  0  0  0  0  0
  184.9390  178.3760  138.1100 C   0  0  2  0  0  3  0  0  0  0  0  0
  188.6280  177.4990  139.2950 C   0  0  2  0  0  3  0  0  0  0  0  0
  184.7100  179.0680  140.4850 C   0  0  1  0  0  3  0  0  0  0  0  0
  184.5500  176.8680  138.0170 C   0  0  2  0  0  3  0  0  0  0  0  0
  180.1740  175.6420  137.7420 F   0  0  0  0  0  0  0  0  0  0  0  0
  184.6870  177.5900  142.5550 C   0  0  0  0  0  2  0  0  0  0  0  0
  186.9900  177.2950  134.5940 C   0  0  0  0  0  2  0  0  0  0  0  0
  181.2080  174.6670  135.7920 C   0  0  0  0  0  2  0  0  0  0  0  0
  181.1780  174.7900  137.3190 C   0  0  1  0  0  3  0  0  0  0  0  0
  185.9840  178.3040  140.2380 C   0  0  2  0  0  3  0  0  0  0  0  0
  188.3590  177.8060  140.7930 C   0  0  0  0  0  2  0  0  0  0  0  0
  182.0580  177.6920  137.5340 C   0  0  0  0  0  2  0  0  0  0  0  0
  188.7320  178.7880  138.5040 C   0  0  0  0  0  2  0  0  0  0  0  0
  187.1620  178.7240  141.0890 C   0  0  2  0  0  3  0  0  0  0  0  0
  186.8710  175.8780  135.1660 C   0  0  2  0  0  3  0  0  0  0  0  0
  185.3210  175.9280  137.0570 C   0  0  1  0  0  3  0  0  0  0  0  0
  186.2710  178.5930  138.8040 C   0  0  1  0  0  3  0  0  0  0  0  0
  185.6570  178.4900  143.3150 C   0  0  2  0  0  3  0  0  0  0  0  0
  183.0510  176.6000  137.7140 C   0  0  2  0  0  0  0  0  0  0  0  0
  186.9310  178.9980  142.6010 C   0  0  1  0  0  3  0  0  0  0  0  0
  186.8100  176.0260  136.6790 C   0  0  2  0  0  3  0  0  0  0  0  0
  182.6260  174.3520  135.2970 C   0  0  0  0  0  2  0  0  0  0  0  0
  187.5170  177.8930  138.3040 C   0  0  1  0  0  0  0  0  0  0  0  0
  182.7160  177.1060  136.4390 O   0  0  0  0  0  0  0  0  0  0  0  0
  188.0810  175.0430  134.7770 C   0  0  0  0  0  2  0  0  0  0  0  0
  188.3040  173.9340  135.7880 C   0  0  0  0  0  1  0  0  0  0  0  0
  182.3850  180.7770  138.6720 O   0  0  0  0  0  1  0  0  0  0  0  0
  183.7550  180.5150  138.6760 C   0  0  0  0  0  2  0  0  0  0  0  0
  1  5  1  6  0  0  0
  1 32  1  0  0  0  0
  2  6  1  0  0  0  0
  4 37  1  6  0  0  0
  4 12  1  0  0  0  0
  6  7  1  6  0  0  0
  6  8  1  0  0  0  0
  9 15  1  0  0  0  0
 10 26  1  0  0  0  0
 10  4  1  0  0  0  0
 11 20  1  0  0  0  0
 12  9  1  0  0  0  0
 13 10  1  0  0  0  0
 15 27  1  0  0  0  0
 16 24  1  0  0  0  0
 16  5  1  0  0  0  0
 17 18  1  0  0  0  0
 18 14  1  0  0  0  0
 18  8  1  0  0  0  0
 19 12  1  0  0  0  0
 19 23  1  0  0  0  0
 20 23  1  0  0  0  0
 21 28  1  0  0  0  0
 22 11  1  0  0  0  0
 23 29  1  0  0  0  0
 24 30  1  0  0  0  0
 25  7  1  0  0  0  0
 25 13  1  0  0  0  0
 26 19  1  0  0  0  0
 27  3  1  0  0  0  0
 28  8  1  0  0  0  0
 28 13  1  0  0  0  0
 29 27  1  0  0  0  0
 29  3  1  0  0  0  0
 30  1  1  0  0  0  0
 30 25  1  0  0  0  0
 31 17  1  0  0  0  0
 31  2  1  0  0  0  0
 32 22  1  0  0  0  0
 32 26  1  0  0  0  0
 32 11  1  0  0  0  0
 33 21  1  0  0  0  0
 33 28  1  0  0  0  0
 34 24  1  0  0  0  0
 34 35  1  0  0  0  0
 36 37  1  0  0  0  0
M  END
>  <MODEL>
1

>  <REMARK>
 VINA RESULT:      -5.8      0.000      0.000
  Name = 
  2 active torsions:
  status: ('A' for Active; 'I' for Inactive)
    1  A    between atoms: C_4  and  C_28
    2  A    between atoms: C_11  and  C_26
                            x       y       z     vdW  Elec       q    Type
                         _______ _______ _______ _____ _____    ______ ____

>  <TORSDO>
F 2

$$$$
=
 OpenBabel11052415163D

 37 46  0  0  1  0  0  0  0  0999 V2000
  186.6700  176.6040  136.6340 C   0  0  2  0  0  3  0  0  0  0  0  0
  184.6420  171.1450  136.4440 O   0  0  0  0  0  0  0  0  0  0  0  0
  182.6870  178.6340  141.4670 C   0  0  0  0  0  2  0  0  0  0  0  0
  182.1620  177.0500  136.3190 C   0  0  1  0  0  3  0  0  0  0  0  0
  186.7080  176.8520  135.1460 C   0  0  0  0  0  2  0  0  0  0  0  0
  184.0880  172.2010  137.2170 C   0  0  1  0  0  3  0  0  0  0  0  0
  185.1280  173.2500  137.6130 C   0  0  0  0  0  2  0  0  0  0  0  0
  182.6970  172.7340  136.7730 C   0  0  2  0  0  3  0  0  0  0  0  0
  180.9830  177.1030  138.5490 C   0  0  0  0  0  2  0  0  0  0  0  0
  183.6330  176.6010  136.1750 C   0  0  2  0  0  3  0  0  0  0  0  0
  186.2500  177.9780  138.8290 C   0  0  2  0  0  3  0  0  0  0  0  0
  182.0270  177.7780  137.6630 C   0  0  1  0  0  3  0  0  0  0  0  0
  183.7820  175.1410  136.7030 C   0  0  2  0  0  3  0  0  0  0  0  0
  180.7180  171.9700  135.5680 F   0  0  0  0  0  0  0  0  0  0  0  0
  181.3460  177.1650  140.0350 C   0  0  0  0  0  2  0  0  0  0  0  0
  187.4120  175.6240  134.5940 C   0  0  0  0  0  2  0  0  0  0  0  0
  182.8340  171.0680  134.8380 C   0  0  0  0  0  2  0  0  0  0  0  0
  181.9860  171.6140  135.9910 C   0  0  1  0  0  3  0  0  0  0  0  0
  183.3980  177.6750  138.2780 C   0  0  2  0  0  3  0  0  0  0  0  0
  185.1720  178.5530  139.7870 C   0  0  0  0  0  2  0  0  0  0  0  0
  181.7860  174.4980  135.0520 C   0  0  0  0  0  2  0  0  0  0  0  0
  186.3880  178.8570  137.6010 C   0  0  0  0  0  2  0  0  0  0  0  0
  183.7960  178.8360  139.1620 C   0  0  2  0  0  3  0  0  0  0  0  0
  187.4110  174.5660  135.7030 C   0  0  2  0  0  3  0  0  0  0  0  0
  185.1630  174.4390  136.6590 C   0  0  1  0  0  3  0  0  0  0  0  0
  184.2930  177.6210  137.0870 C   0  0  1  0  0  3  0  0  0  0  0  0
  181.4900  178.5970  140.5400 C   0  0  2  0  0  3  0  0  0  0  0  0
  182.7990  174.1180  136.0730 C   0  0  2  0  0  0  0  0  0  0  0  0
  182.7510  179.4070  140.1600 C   0  0  1  0  0  3  0  0  0  0  0  0
  186.5370  175.1130  136.8220 C   0  0  2  0  0  3  0  0  0  0  0  0
  184.3250  171.3300  135.0850 C   0  0  0  0  0  2  0  0  0  0  0  0
  185.7550  177.4810  137.4580 C   0  0  1  0  0  0  0  0  0  0  0  0
  183.0470  173.9960  134.6880 O   0  0  0  0  0  0  0  0  0  0  0  0
  188.8230  174.3310  136.2170 C   0  0  0  0  0  2  0  0  0  0  0  0
  188.9410  172.9420  136.8170 C   0  0  0  0  0  1  0  0  0  0  0  0
  181.3820  179.2160  135.6820 O   0  0  0  0  0  1  0  0  0  0  0  0
  181.7910  177.9820  135.1760 C   0  0  0  0  0  2  0  0  0  0  0  0
  1  5  1  6  0  0  0
  1 30  1  0  0  0  0
  1 32  1  0  0  0  0
  2  6  1  0  0  0  0
  4 37  1  6  0  0  0
  4 12  1  0  0  0  0
  6  7  1  6  0  0  0
  8  6  1  0  0  0  0
  9 15  1  0  0  0  0
 10  4  1  0  0  0  0
 10 13  1  0  0  0  0
 10 26  1  0  0  0  0
 11 20  1  0  0  0  0
 12 19  1  0  0  0  0
 12  9  1  0  0  0  0
 14 18  1  0  0  0  0
 15 27  1  0  0  0  0
 16  5  1  0  0  0  0
 16 24  1  0  0  0  0
 17 31  1  0  0  0  0
 17 18  1  0  0  0  0
 18  8  1  0  0  0  0
 19 23  1  0  0  0  0
 21 28  1  0  0  0  0
 22 11  1  0  0  0  0
 23 20  1  0  0  0  0
 23 29  1  0  0  0  0
 24 34  1  0  0  0  0
 24 30  1  0  0  0  0
 25 13  1  0  0  0  0
 25 30  1  0  0  0  0
 25  7  1  0  0  0  0
 26 32  1  0  0  0  0
 26 19  1  0  0  0  0
 27  3  1  0  0  0  0
 28 13  1  0  0  0  0
 28  8  1  0  0  0  0
 29 27  1  0  0  0  0
 29  3  1  0  0  0  0
 31  2  1  0  0  0  0
 32 22  1  0  0  0  0
 32 11  1  0  0  0  0
 33 21  1  0  0  0  0
 33 28  1  0  0  0  0
 34 35  1  0  0  0  0
 37 36  1  0  0  0  0
M  END
>  <MODEL>
2

>  <REMARK>
 VINA RESULT:      -5.4      2.001      3.233
  Name = 
  2 active torsions:
  status: ('A' for Active; 'I' for Inactive)
    1  A    between atoms: C_4  and  C_28
    2  A    between atoms: C_11  and  C_26
                            x       y       z     vdW  Elec       q    Type
                         _______ _______ _______ _____ _____    ______ ____

>  <TORSDO>
F 2

$$$$
=
 OpenBabel11052415163D

 37 46  0  0  1  0  0  0  0  0999 V2000
  183.1460  174.9390  136.9340 C   0  0  2  0  0  3  0  0  0  0  0  0
  188.1220  177.1750  134.8890 O   0  0  0  0  0  0  0  0  0  0  0  0
  179.9280  180.6700  137.2890 C   0  0  0  0  0  2  0  0  0  0  0  0
  184.1400  178.3460  139.7680 C   0  0  1  0  0  3  0  0  0  0  0  0
  183.7530  174.0220  137.9690 C   0  0  0  0  0  2  0  0  0  0  0  0
  187.0040  177.9300  135.3340 C   0  0  1  0  0  3  0  0  0  0  0  0
  185.6810  177.1810  135.1660 C   0  0  0  0  0  2  0  0  0  0  0  0
  187.1850  178.7310  136.6540 C   0  0  2  0  0  3  0  0  0  0  0  0
  183.1860  180.5720  139.0610 C   0  0  0  0  0  2  0  0  0  0  0  0
  184.1910  177.1320  138.8140 C   0  0  2  0  0  3  0  0  0  0  0  0
  180.9620  176.3600  136.6310 C   0  0  2  0  0  3  0  0  0  0  0  0
  182.8600  179.1320  139.4500 C   0  0  1  0  0  3  0  0  0  0  0  0
  185.0260  177.5030  137.5490 C   0  0  2  0  0  3  0  0  0  0  0  0
  188.9690  179.7380  137.9800 F   0  0  0  0  0  0  0  0  0  0  0  0
  182.2290  181.1230  138.0000 C   0  0  0  0  0  2  0  0  0  0  0  0
  184.8480  173.2940  137.2070 C   0  0  0  0  0  2  0  0  0  0  0  0
  189.5330  177.7250  136.7750 C   0  0  0  0  0  2  0  0  0  0  0  0
  188.6900  179.0030  136.8430 C   0  0  1  0  0  3  0  0  0  0  0  0
  182.2490  178.3900  138.2910 C   0  0  2  0  0  3  0  0  0  0  0  0
  180.2620  177.7070  136.9560 C   0  0  0  0  0  2  0  0  0  0  0  0
  186.9610  178.2530  139.2270 C   0  0  0  0  0  2  0  0  0  0  0  0
  180.8980  175.4310  137.8270 C   0  0  0  0  0  2  0  0  0  0  0  0
  180.7370  178.4250  138.2300 C   0  0  2  0  0  3  0  0  0  0  0  0
  185.0830  174.0690  135.9050 C   0  0  2  0  0  3  0  0  0  0  0  0
  185.2480  176.4510  136.4330 C   0  0  1  0  0  3  0  0  0  0  0  0
  182.7100  176.9890  138.5130 C   0  0  1  0  0  3  0  0  0  0  0  0
  180.7760  181.1120  138.4630 C   0  0  2  0  0  3  0  0  0  0  0  0
  186.4410  178.0680  137.8460 C   0  0  2  0  0  0  0  0  0  0  0  0
  180.0100  179.7690  138.5090 C   0  0  1  0  0  3  0  0  0  0  0  0
  184.2640  175.3470  136.0080 C   0  0  2  0  0  3  0  0  0  0  0  0
  188.8010  176.6280  135.9940 C   0  0  0  0  0  2  0  0  0  0  0  0
  182.2360  176.0380  137.4340 C   0  0  1  0  0  0  0  0  0  0  0  0
  187.2300  177.0890  138.4870 O   0  0  0  0  0  0  0  0  0  0  0  0
  184.6210  173.2520  134.7090 C   0  0  0  0  0  2  0  0  0  0  0  0
  184.5760  171.7770  135.0630 C   0  0  0  0  0  1  0  0  0  0  0  0
  184.5990  178.8750  142.0510 O   0  0  0  0  0  1  0  0  0  0  0  0
  184.1190  177.8700  141.2110 C   0  0  0  0  0  2  0  0  0  0  0  0
  1 32  1  0  0  0  0
  1  5  1  1  0  0  0
  2  6  1  0  0  0  0
  2 31  1  0  0  0  0
  3 27  1  0  0  0  0
  3 29  1  0  0  0  0
  4 37  1  1  0  0  0
  6  7  1  1  0  0  0
  6  8  1  0  0  0  0
  7 25  1  0  0  0  0
  8 18  1  0  0  0  0
  8 28  1  0  0  0  0
  9 12  1  0  0  0  0
 10  4  1  0  0  0  0
 11 20  1  0  0  0  0
 11 32  1  0  0  0  0
 11 22  1  0  0  0  0
 12  4  1  0  0  0  0
 13 28  1  0  0  0  0
 13 10  1  0  0  0  0
 15 27  1  0  0  0  0
 15  9  1  0  0  0  0
 16  5  1  0  0  0  0
 17 18  1  0  0  0  0
 18 14  1  0  0  0  0
 19 26  1  0  0  0  0
 19 12  1  0  0  0  0
 20 23  1  0  0  0  0
 23 19  1  0  0  0  0
 23 29  1  0  0  0  0
 24 30  1  0  0  0  0
 24 16  1  0  0  0  0
 25 13  1  0  0  0  0
 26 10  1  0  0  0  0
 27 29  1  0  0  0  0
 28 33  1  0  0  0  0
 28 21  1  0  0  0  0
 30 25  1  0  0  0  0
 30  1  1  0  0  0  0
 31 17  1  0  0  0  0
 32 22  1  0  0  0  0
 32 26  1  0  0  0  0
 33 21  1  0  0  0  0
 34 35  1  0  0  0  0
 34 24  1  0  0  0  0
 37 36  1  0  0  0  0
M  END
>  <MODEL>
3

>  <REMARK>
 VINA RESULT:      -5.2      2.677      5.827
  Name = 
  2 active torsions:
  status: ('A' for Active; 'I' for Inactive)
    1  A    between atoms: C_4  and  C_28
    2  A    between atoms: C_11  and  C_26
                            x       y       z     vdW  Elec       q    Type
                         _______ _______ _______ _____ _____    ______ ____

>  <TORSDO>
F 2

$$$$
=
 OpenBabel11052415163D

 37 46  0  0  1  0  0  0  0  0999 V2000
  188.4630  176.8750  136.7440 C   0  0  2  0  0  3  0  0  0  0  0  0
  186.9700  171.2630  136.2770 O   0  0  0  0  0  0  0  0  0  0  0  0
  184.2320  178.2970  141.5830 C   0  0  0  0  0  2  0  0  0  0  0  0
  183.9380  176.9050  136.3610 C   0  0  1  0  0  3  0  0  0  0  0  0
  188.5000  177.1920  135.2690 C   0  0  0  0  0  2  0  0  0  0  0  0
  186.3060  172.2250  137.0840 C   0  0  1  0  0  3  0  0  0  0  0  0
  187.2340  173.3490  137.5460 C   0  0  0  0  0  2  0  0  0  0  0  0
  184.8770  172.6430  136.6370 C   0  0  2  0  0  3  0  0  0  0  0  0
  182.7260  176.7450  138.5680 C   0  0  0  0  0  2  0  0  0  0  0  0
  185.4470  176.6050  136.2270 C   0  0  2  0  0  3  0  0  0  0  0  0
  187.8810  178.1030  138.9870 C   0  0  2  0  0  3  0  0  0  0  0  0
  183.7140  177.5560  137.7320 C   0  0  1  0  0  3  0  0  0  0  0  0
  185.7270  175.1430  136.6930 C   0  0  2  0  0  3  0  0  0  0  0  0
  182.9990  171.7500  135.3620 F   0  0  0  0  0  0  0  0  0  0  0  0
  183.0590  176.7740  140.0620 C   0  0  0  0  0  2  0  0  0  0  0  0
  189.3270  176.0630  134.6770 C   0  0  0  0  0  2  0  0  0  0  0  0
  185.2020  171.0870  134.6350 C   0  0  0  0  0  2  0  0  0  0  0  0
  184.2880  171.4970  135.7930 C   0  0  1  0  0  3  0  0  0  0  0  0
  185.0790  177.5550  138.3690 C   0  0  2  0  0  3  0  0  0  0  0  0
  186.7390  178.5290  139.9490 C   0  0  0  0  0  2  0  0  0  0  0  0
  183.8270  174.3880  134.9780 C   0  0  0  0  0  2  0  0  0  0  0  0
  187.9520  179.0460  137.8020 C   0  0  0  0  0  2  0  0  0  0  0  0
  185.3510  178.7080  139.3110 C   0  0  2  0  0  3  0  0  0  0  0  0
  189.4090  174.9610  135.7390 C   0  0  2  0  0  3  0  0  0  0  0  0
  187.1700  174.5780  136.6450 C   0  0  1  0  0  3  0  0  0  0  0  0
  185.9940  177.6400  137.1940 C   0  0  1  0  0  3  0  0  0  0  0  0
  183.0580  178.1890  140.6320 C   0  0  2  0  0  3  0  0  0  0  0  0
  184.8570  174.0610  136.0000 C   0  0  2  0  0  0  0  0  0  0  0  0
  184.2420  179.1310  140.3120 C   0  0  1  0  0  3  0  0  0  0  0  0
  188.4710  175.3710  136.8640 C   0  0  2  0  0  3  0  0  0  0  0  0
  186.6570  171.4780  134.9220 C   0  0  0  0  0  2  0  0  0  0  0  0
  187.4560  177.6230  137.5870 C   0  0  1  0  0  0  0  0  0  0  0  0
  185.1360  174.0260  134.6160 O   0  0  0  0  0  0  0  0  0  0  0  0
  190.8300  174.8380  136.2690 C   0  0  0  0  0  2  0  0  0  0  0  0
  191.7920  175.6010  135.3790 C   0  0  0  0  0  1  0  0  0  0  0  0
  182.1580  177.6200  134.9390 O   0  0  0  0  0  1  0  0  0  0  0  0
  183.4970  177.8480  135.2540 C   0  0  0  0  0  2  0  0  0  0  0  0
  1  5  1  6  0  0  0
  1 30  1  0  0  0  0
  1 32  1  0  0  0  0
  2  6  1  0  0  0  0
  4 37  1  6  0  0  0
  4 12  1  0  0  0  0
  6  7  1  6  0  0  0
  8  6  1  0  0  0  0
  9 15  1  0  0  0  0
 10  4  1  0  0  0  0
 10 13  1  0  0  0  0
 10 26  1  0  0  0  0
 11 20  1  0  0  0  0
 12 19  1  0  0  0  0
 12  9  1  0  0  0  0
 14 18  1  0  0  0  0
 15 27  1  0  0  0  0
 16  5  1  0  0  0  0
 16 24  1  0  0  0  0
 17 31  1  0  0  0  0
 17 18  1  0  0  0  0
 18  8  1  0  0  0  0
 19 23  1  0  0  0  0
 21 28  1  0  0  0  0
 22 11  1  0  0  0  0
 23 20  1  0  0  0  0
 23 29  1  0  0  0  0
 24 34  1  0  0  0  0
 24 30  1  0  0  0  0
 25 13  1  0  0  0  0
 25 30  1  0  0  0  0
 25  7  1  0  0  0  0
 26 32  1  0  0  0  0
 26 19  1  0  0  0  0
 27  3  1  0  0  0  0
 28  8  1  0  0  0  0
 28 13  1  0  0  0  0
 29 27  1  0  0  0  0
 29  3  1  0  0  0  0
 31  2  1  0  0  0  0
 32 22  1  0  0  0  0
 32 11  1  0  0  0  0
 33 21  1  0  0  0  0
 33 28  1  0  0  0  0
 35 34  1  0  0  0  0
 36 37  1  0  0  0  0
M  END
>  <MODEL>
4

>  <REMARK>
 VINA RESULT:      -4.7      2.192      3.369
  Name = 
  2 active torsions:
  status: ('A' for Active; 'I' for Inactive)
    1  A    between atoms: C_4  and  C_28
    2  A    between atoms: C_11  and  C_26
                            x       y       z     vdW  Elec       q    Type
                         _______ _______ _______ _____ _____    ______ ____

>  <TORSDO>
F 2

$$$$
=
 OpenBabel11052415163D

 37 46  0  0  1  0  0  0  0  0999 V2000
  184.0020  173.3600  136.6400 C   0  0  2  0  0  3  0  0  0  0  0  0
  188.3780  176.6310  134.6150 O   0  0  0  0  0  0  0  0  0  0  0  0
  179.1990  177.5180  134.9110 C   0  0  0  0  0  2  0  0  0  0  0  0
  183.3060  177.4730  138.4360 C   0  0  1  0  0  3  0  0  0  0  0  0
  184.6290  172.9890  137.9620 C   0  0  0  0  0  2  0  0  0  0  0  0
  187.0170  177.0330  134.6850 C   0  0  1  0  0  3  0  0  0  0  0  0
  186.0480  175.8520  134.5940 C   0  0  0  0  0  2  0  0  0  0  0  0
  186.6690  178.1380  135.7210 C   0  0  2  0  0  3  0  0  0  0  0  0
  181.8910  178.9890  136.9980 C   0  0  0  0  0  2  0  0  0  0  0  0
  183.9190  176.1620  137.8960 C   0  0  2  0  0  3  0  0  0  0  0  0
  181.6030  173.8150  135.6800 C   0  0  2  0  0  3  0  0  0  0  0  0
  181.9440  177.6640  137.7550 C   0  0  1  0  0  3  0  0  0  0  0  0
  184.8460  176.4870  136.6840 C   0  0  2  0  0  3  0  0  0  0  0  0
  187.7470  179.9890  136.8880 F   0  0  0  0  0  0  0  0  0  0  0  0
  181.0550  178.9010  135.7180 C   0  0  0  0  0  2  0  0  0  0  0  0
  186.0260  172.5290  137.5810 C   0  0  0  0  0  2  0  0  0  0  0  0
  189.1320  178.0740  136.4050 C   0  0  0  0  0  2  0  0  0  0  0  0
  187.9470  178.9530  135.9950 C   0  0  1  0  0  3  0  0  0  0  0  0
  181.8400  176.5000  136.8040 C   0  0  2  0  0  3  0  0  0  0  0  0
  180.4770  174.8690  135.5090 C   0  0  0  0  0  2  0  0  0  0  0  0
  186.0700  178.2430  138.2770 C   0  0  0  0  0  2  0  0  0  0  0  0
  181.5760  173.2370  137.0810 C   0  0  0  0  0  2  0  0  0  0  0  0
  180.4370  175.9910  136.5600 C   0  0  2  0  0  3  0  0  0  0  0  0
  186.2810  173.0010  136.1450 C   0  0  2  0  0  3  0  0  0  0  0  0
  185.6030  175.3440  135.9610 C   0  0  1  0  0  3  0  0  0  0  0  0
  182.6470  175.4450  137.4810 C   0  0  1  0  0  3  0  0  0  0  0  0
  179.6100  178.4950  135.9930 C   0  0  2  0  0  3  0  0  0  0  0  0
  185.9300  177.5630  136.9620 C   0  0  2  0  0  0  0  0  0  0  0  0
  179.2950  177.0220  136.3450 C   0  0  1  0  0  3  0  0  0  0  0  0
  185.1110  173.8980  135.7700 C   0  0  2  0  0  3  0  0  0  0  0  0
  188.9450  176.6360  135.9030 C   0  0  0  0  0  2  0  0  0  0  0  0
  182.7190  174.1600  136.6840 C   0  0  1  0  0  0  0  0  0  0  0  0
  186.8270  177.1040  137.9510 O   0  0  0  0  0  0  0  0  0  0  0  0
  186.3470  171.8130  135.1980 C   0  0  0  0  0  2  0  0  0  0  0  0
  187.5690  170.9650  135.5000 C   0  0  0  0  0  1  0  0  0  0  0  0
  183.3160  178.6360  140.5220 O   0  0  0  0  0  1  0  0  0  0  0  0
  183.1310  177.3810  139.9430 C   0  0  0  0  0  2  0  0  0  0  0  0
  1 32  1  0  0  0  0
  1  5  1  1  0  0  0
  2  6  1  0  0  0  0
  2 31  1  0  0  0  0
  3 27  1  0  0  0  0
  3 29  1  0  0  0  0
  4 37  1  1  0  0  0
  6  7  1  1  0  0  0
  6  8  1  0  0  0  0
  7 25  1  0  0  0  0
  8 18  1  0  0  0  0
  8 28  1  0  0  0  0
  9 12  1  0  0  0  0
 10  4  1  0  0  0  0
 11 32  1  0  0  0  0
 11 22  1  0  0  0  0
 12  4  1  0  0  0  0
 13 28  1  0  0  0  0
 13 10  1  0  0  0  0
 15 27  1  0  0  0  0
 15  9  1  0  0  0  0
 16  5  1  0  0  0  0
 18 17  1  0  0  0  0
 18 14  1  0  0  0  0
 19 26  1  0  0  0  0
 19 12  1  0  0  0  0
 20 11  1  0  0  0  0
 20 23  1  0  0  0  0
 23 19  1  0  0  0  0
 24 16  1  0  0  0  0
 25 13  1  0  0  0  0
 26 10  1  0  0  0  0
 27 29  1  0  0  0  0
 28 33  1  0  0  0  0
 28 21  1  0  0  0  0
 29 23  1  0  0  0  0
 30 25  1  0  0  0  0
 30 24  1  0  0  0  0
 30  1  1  0  0  0  0
 31 17  1  0  0  0  0
 32 22  1  0  0  0  0
 32 26  1  0  0  0  0
 33 21  1  0  0  0  0
 34 35  1  0  0  0  0
 34 24  1  0  0  0  0
 37 36  1  0  0  0  0
M  END
>  <MODEL>
5

>  <REMARK>
 VINA RESULT:      -4.7      2.854      6.255
  Name = 
  2 active torsions:
  status: ('A' for Active; 'I' for Inactive)
    1  A    between atoms: C_4  and  C_28
    2  A    between atoms: C_11  and  C_26
                            x       y       z     vdW  Elec       q    Type
                         _______ _______ _______ _____ _____    ______ ____

>  <TORSDO>
F 2

$$$$
=
 OpenBabel11052415163D

 37 46  0  0  1  0  0  0  0  0999 V2000
  183.2400  176.2630  136.4580 C   0  0  2  0  0  3  0  0  0  0  0  0
  187.1780  178.2770  140.2500 O   0  0  0  0  0  0  0  0  0  0  0  0
  180.4110  182.0870  135.2690 C   0  0  0  0  0  2  0  0  0  0  0  0
  180.8350  178.6830  139.4550 C   0  0  1  0  0  3  0  0  0  0  0  0
  182.8180  175.0430  137.2410 C   0  0  0  0  0  2  0  0  0  0  0  0
  186.1130  179.0340  139.6930 C   0  0  1  0  0  3  0  0  0  0  0  0
  185.6910  178.5300  138.3110 C   0  0  0  0  0  2  0  0  0  0  0  0
  184.9680  179.4440  140.6610 C   0  0  2  0  0  3  0  0  0  0  0  0
  180.6010  181.1210  138.8460 C   0  0  0  0  0  2  0  0  0  0  0  0
  181.8530  177.7540  138.7570 C   0  0  2  0  0  3  0  0  0  0  0  0
  182.1570  177.9860  134.8030 C   0  0  2  0  0  3  0  0  0  0  0  0
  180.3260  179.6840  138.4080 C   0  0  1  0  0  3  0  0  0  0  0  0
  183.2920  178.3210  138.9580 C   0  0  2  0  0  3  0  0  0  0  0  0
  184.6100  179.8420  143.0420 F   0  0  0  0  0  0  0  0  0  0  0  0
  180.9220  182.0420  137.6660 C   0  0  0  0  0  2  0  0  0  0  0  0
  184.1350  174.3960  137.6360 C   0  0  0  0  0  2  0  0  0  0  0  0
  186.2240  178.1440  142.4690 C   0  0  0  0  0  2  0  0  0  0  0  0
  185.5390  179.4610  142.0920 C   0  0  1  0  0  3  0  0  0  0  0  0
  181.1040  179.3450  137.1640 C   0  0  2  0  0  3  0  0  0  0  0  0
  181.3170  179.2870  134.6850 C   0  0  0  0  0  2  0  0  0  0  0  0
  182.7530  178.3640  141.5710 C   0  0  0  0  0  2  0  0  0  0  0  0
  181.2560  176.8010  135.0900 C   0  0  0  0  0  2  0  0  0  0  0  0
  180.3760  179.5910  135.8610 C   0  0  2  0  0  3  0  0  0  0  0  0
  185.2360  175.4370  137.4070 C   0  0  2  0  0  3  0  0  0  0  0  0
  184.5100  177.5660  138.3670 C   0  0  1  0  0  3  0  0  0  0  0  0
  181.3680  177.8860  137.3240 C   0  0  1  0  0  3  0  0  0  0  0  0
  179.7860  182.1030  136.6480 C   0  0  2  0  0  3  0  0  0  0  0  0
  183.6810  178.6040  140.4340 C   0  0  2  0  0  0  0  0  0  0  0  0
  179.5600  180.9030  135.6990 C   0  0  1  0  0  3  0  0  0  0  0  0
  184.5330  176.7430  137.0670 C   0  0  2  0  0  3  0  0  0  0  0  0
  186.6770  177.3840  141.2160 C   0  0  0  0  0  2  0  0  0  0  0  0
  182.1820  177.3090  136.1860 C   0  0  1  0  0  0  0  0  0  0  0  0
  183.6940  177.4000  141.1710 O   0  0  0  0  0  0  0  0  0  0  0  0
  186.1350  175.0170  136.2550 C   0  0  0  0  0  2  0  0  0  0  0  0
  186.9130  176.2100  135.7310 C   0  0  0  0  0  1  0  0  0  0  0  0
  180.1080  176.5700  140.2970 O   0  0  0  0  0  1  0  0  0  0  0  0
  179.6780  177.8650  140.0050 C   0  0  0  0  0  2  0  0  0  0  0  0
  1 30  1  0  0  0  0
  1  5  1  1  0  0  0
  2 31  1  0  0  0  0
  3 29  1  0  0  0  0
  3 27  1  0  0  0  0
  4 37  1  6  0  0  0
  5 16  1  0  0  0  0
  6  7  1  6  0  0  0
  6  2  1  0  0  0  0
  6  8  1  0  0  0  0
  7 25  1  0  0  0  0
  8 18  1  0  0  0  0
 10 13  1  0  0  0  0
 10  4  1  0  0  0  0
 11 22  1  0  0  0  0
 11 32  1  0  0  0  0
 12  9  1  0  0  0  0
 12  4  1  0  0  0  0
 13 28  1  0  0  0  0
 15  9  1  0  0  0  0
 18 17  1  0  0  0  0
 18 14  1  0  0  0  0
 19 26  1  0  0  0  0
 19 12  1  0  0  0  0
 20 11  1  0  0  0  0
 20 23  1  0  0  0  0
 22 32  1  0  0  0  0
 23 19  1  0  0  0  0
 24 16  1  0  0  0  0
 25 13  1  0  0  0  0
 26 10  1  0  0  0  0
 27 15  1  0  0  0  0
 28  8  1  0  0  0  0
 28 33  1  0  0  0  0
 28 21  1  0  0  0  0
 29 23  1  0  0  0  0
 29 27  1  0  0  0  0
 30 24  1  0  0  0  0
 30 25  1  0  0  0  0
 31 17  1  0  0  0  0
 32  1  1  0  0  0  0
 32 26  1  0  0  0  0
 33 21  1  0  0  0  0
 34 24  1  0  0  0  0
 35 34  1  0  0  0  0
 37 36  1  0  0  0  0
M  END
>  <MODEL>
6

>  <REMARK>
 VINA RESULT:      -4.4      2.904      6.314
  Name = 
  2 active torsions:
  status: ('A' for Active; 'I' for Inactive)
    1  A    between atoms: C_4  and  C_28
    2  A    between atoms: C_11  and  C_26
                            x       y       z     vdW  Elec       q    Type
                         _______ _______ _______ _____ _____    ______ ____

>  <TORSDO>
F 2

$$$$
=
 OpenBabel11052415163D

 37 46  0  0  1  0  0  0  0  0999 V2000
  182.7080  179.5140  140.4260 C   0  0  2  0  0  3  0  0  0  0  0  0
  179.0740  175.1770  141.8150 O   0  0  0  0  0  0  0  0  0  0  0  0
  179.0900  181.8540  135.4490 C   0  0  0  0  0  2  0  0  0  0  0  0
  181.9150  177.3610  136.5060 C   0  0  1  0  0  3  0  0  0  0  0  0
  183.9920  178.7240  140.4950 C   0  0  0  0  0  2  0  0  0  0  0  0
  178.9470  176.0230  140.6810 C   0  0  1  0  0  3  0  0  0  0  0  0
  179.5600  177.4060  140.9060 C   0  0  0  0  0  2  0  0  0  0  0  0
  179.1970  175.3700  139.2930 C   0  0  2  0  0  3  0  0  0  0  0  0
  179.9170  178.2430  135.2430 C   0  0  0  0  0  2  0  0  0  0  0  0
  182.1830  177.7270  137.9830 C   0  0  2  0  0  3  0  0  0  0  0  0
  181.7280  181.5250  139.0560 C   0  0  2  0  0  3  0  0  0  0  0  0
  181.2840  178.5860  135.8310 C   0  0  1  0  0  3  0  0  0  0  0  0
  180.9710  177.2770  138.8550 C   0  0  2  0  0  3  0  0  0  0  0  0
  179.0970  173.1750  138.2330 F   0  0  0  0  0  0  0  0  0  0  0  0
  178.9310  179.4110  135.3320 C   0  0  0  0  0  2  0  0  0  0  0  0
  183.8940  177.9920  141.8230 C   0  0  0  0  0  2  0  0  0  0  0  0
  179.7280  173.2140  140.5610 C   0  0  0  0  0  2  0  0  0  0  0  0
  178.9310  173.8580  139.4230 C   0  0  1  0  0  3  0  0  0  0  0  0
  181.1500  179.5930  136.9430 C   0  0  2  0  0  3  0  0  0  0  0  0
  181.0300  181.9500  137.7360 C   0  0  0  0  0  2  0  0  0  0  0  0
  181.2730  174.8590  137.7660 C   0  0  0  0  0  2  0  0  0  0  0  0
  183.2130  181.3240  138.8260 C   0  0  0  0  0  2  0  0  0  0  0  0
  181.2740  181.0400  136.5210 C   0  0  2  0  0  3  0  0  0  0  0  0
  182.4330  178.0780  142.2780 C   0  0  2  0  0  3  0  0  0  0  0  0
  180.9900  177.5130  140.3870 C   0  0  1  0  0  3  0  0  0  0  0  0
  182.2780  179.2370  137.8510 C   0  0  1  0  0  3  0  0  0  0  0  0
  179.4270  180.6510  134.5940 C   0  0  2  0  0  3  0  0  0  0  0  0
  180.5680  175.7870  138.6900 C   0  0  2  0  0  0  0  0  0  0  0  0
  180.5510  181.5040  135.2260 C   0  0  1  0  0  3  0  0  0  0  0  0
  181.6540  178.6900  141.1230 C   0  0  2  0  0  3  0  0  0  0  0  0
  180.1220  174.2590  141.6130 C   0  0  0  0  0  2  0  0  0  0  0  0
  182.3340  180.1100  139.0870 C   0  0  1  0  0  0  0  0  0  0  0  0
  181.6180  174.9490  139.1260 O   0  0  0  0  0  0  0  0  0  0  0  0
  182.3110  178.9620  143.5100 C   0  0  0  0  0  2  0  0  0  0  0  0
  183.4960  178.7470  144.4330 C   0  0  0  0  0  1  0  0  0  0  0  0
  184.1630  176.5960  136.7650 O   0  0  0  0  0  1  0  0  0  0  0  0
  183.2210  176.9970  135.8180 C   0  0  0  0  0  2  0  0  0  0  0  0
  1  5  1  6  0  0  0
  1 30  1  0  0  0  0
  4 37  1  6  0  0  0
  4 10  1  0  0  0  0
  5 16  1  0  0  0  0
  6  7  1  1  0  0  0
  6  2  1  0  0  0  0
  8 18  1  0  0  0  0
  8  6  1  0  0  0  0
  9 15  1  0  0  0  0
  9 12  1  0  0  0  0
 10 13  1  0  0  0  0
 11 32  1  0  0  0  0
 12  4  1  0  0  0  0
 12 19  1  0  0  0  0
 13 25  1  0  0  0  0
 14 18  1  0  0  0  0
 16 24  1  0  0  0  0
 17 31  1  0  0  0  0
 18 17  1  0  0  0  0
 19 26  1  0  0  0  0
 20 11  1  0  0  0  0
 21 28  1  0  0  0  0
 21 33  1  0  0  0  0
 22 11  1  0  0  0  0
 22 32  1  0  0  0  0
 23 19  1  0  0  0  0
 23 20  1  0  0  0  0
 24 34  1  0  0  0  0
 25  7  1  0  0  0  0
 25 30  1  0  0  0  0
 26 10  1  0  0  0  0
 26 32  1  0  0  0  0
 27 29  1  0  0  0  0
 27 15  1  0  0  0  0
 27  3  1  0  0  0  0
 28 13  1  0  0  0  0
 28 33  1  0  0  0  0
 28  8  1  0  0  0  0
 29  3  1  0  0  0  0
 29 23  1  0  0  0  0
 30 24  1  0  0  0  0
 31  2  1  0  0  0  0
 32  1  1  0  0  0  0
 34 35  1  0  0  0  0
 37 36  1  0  0  0  0
M  END
>  <MODEL>
7

>  <REMARK>
 VINA RESULT:      -4.4      3.253      6.907
  Name = 
  2 active torsions:
  status: ('A' for Active; 'I' for Inactive)
    1  A    between atoms: C_4  and  C_28
    2  A    between atoms: C_11  and  C_26
                            x       y       z     vdW  Elec       q    Type
                         _______ _______ _______ _____ _____    ______ ____

>  <TORSDO>
F 2

$$$$
=
 OpenBabel11052415163D

 37 46  0  0  1  0  0  0  0  0999 V2000
  180.8640  179.5260  137.9090 C   0  0  2  0  0  3  0  0  0  0  0  0
  182.7720  179.1020  143.3980 O   0  0  0  0  0  0  0  0  0  0  0  0
  181.8920  173.2140  136.3490 C   0  0  0  0  0  2  0  0  0  0  0  0
  184.9260  177.5240  137.5750 C   0  0  1  0  0  3  0  0  0  0  0  0
  181.5700  180.8130  137.5540 C   0  0  0  0  0  2  0  0  0  0  0  0
  182.8570  178.0770  142.4170 C   0  0  1  0  0  3  0  0  0  0  0  0
  181.7480  178.1710  141.3680 C   0  0  0  0  0  2  0  0  0  0  0  0
  184.2790  177.7290  141.8950 C   0  0  2  0  0  3  0  0  0  0  0  0
  184.8380  175.0070  137.7170 C   0  0  0  0  0  2  0  0  0  0  0  0
  183.7260  178.4140  137.9680 C   0  0  2  0  0  3  0  0  0  0  0  0
  180.1220  177.3160  136.7080 C   0  0  2  0  0  3  0  0  0  0  0  0
  184.3670  176.2400  136.9490 C   0  0  1  0  0  3  0  0  0  0  0  0
  183.3490  178.1440  139.4580 C   0  0  2  0  0  3  0  0  0  0  0  0
  186.6030  177.8460  142.6290 F   0  0  0  0  0  0  0  0  0  0  0  0
  183.7830  173.8980  137.7510 C   0  0  0  0  0  2  0  0  0  0  0  0
  181.2460  181.7340  138.7180 C   0  0  0  0  0  2  0  0  0  0  0  0
  185.1400  179.5970  143.4130 C   0  0  0  0  0  2  0  0  0  0  0  0
  185.2970  178.1370  142.9770 C   0  0  1  0  0  3  0  0  0  0  0  0
  182.8730  176.3970  137.0550 C   0  0  2  0  0  3  0  0  0  0  0  0
  180.5740  175.9080  136.2350 C   0  0  0  0  0  2  0  0  0  0  0  0
  185.9080  178.6280  140.0400 C   0  0  0  0  0  2  0  0  0  0  0  0
  180.6050  178.3770  135.7400 C   0  0  0  0  0  2  0  0  0  0  0  0
  182.0750  175.7420  135.9490 C   0  0  2  0  0  3  0  0  0  0  0  0
  180.7060  180.8560  139.8520 C   0  0  2  0  0  3  0  0  0  0  0  0
  182.1810  178.9220  140.1130 C   0  0  1  0  0  3  0  0  0  0  0  0
  182.6900  177.8760  136.9980 C   0  0  1  0  0  3  0  0  0  0  0  0
  183.3920  173.4220  136.3550 C   0  0  2  0  0  3  0  0  0  0  0  0
  184.5260  178.2790  140.4620 C   0  0  2  0  0  0  0  0  0  0  0  0
  182.4790  174.3160  135.4830 C   0  0  1  0  0  3  0  0  0  0  0  0
  180.9010  179.4120  139.4130 C   0  0  2  0  0  3  0  0  0  0  0  0
  183.7220  180.1050  143.1250 C   0  0  0  0  0  2  0  0  0  0  0  0
  181.2390  178.2920  137.1200 C   0  0  1  0  0  0  0  0  0  0  0  0
  185.0010  179.6080  140.4770 O   0  0  0  0  0  0  0  0  0  0  0  0
  179.2280  181.1320  140.0820 C   0  0  0  0  0  2  0  0  0  0  0  0
  178.9320  181.2170  141.5680 C   0  0  0  0  0  1  0  0  0  0  0  0
  187.1470  177.9420  136.8020 O   0  0  0  0  0  1  0  0  0  0  0  0
  185.8070  178.2550  136.5750 C   0  0  0  0  0  2  0  0  0  0  0  0
  1  5  1  6  0  0  0
  1 30  1  0  0  0  0
  3 27  1  0  0  0  0
  4 37  1  6  0  0  0
  4 10  1  0  0  0  0
  5 16  1  0  0  0  0
  6  7  1  6  0  0  0
  6  2  1  0  0  0  0
  8  6  1  0  0  0  0
  8 18  1  0  0  0  0
  9 15  1  0  0  0  0
 10 13  1  0  0  0  0
 11 32  1  0  0  0  0
 12 19  1  0  0  0  0
 12  4  1  0  0  0  0
 12  9  1  0  0  0  0
 13 25  1  0  0  0  0
 13 28  1  0  0  0  0
 14 18  1  0  0  0  0
 16 24  1  0  0  0  0
 18 17  1  0  0  0  0
 20 11  1  0  0  0  0
 21 28  1  0  0  0  0
 21 33  1  0  0  0  0
 22 11  1  0  0  0  0
 22 32  1  0  0  0  0
 23 20  1  0  0  0  0
 23 19  1  0  0  0  0
 24 34  1  0  0  0  0
 25  7  1  0  0  0  0
 26 19  1  0  0  0  0
 26 32  1  0  0  0  0
 26 10  1  0  0  0  0
 27 15  1  0  0  0  0
 28 33  1  0  0  0  0
 28  8  1  0  0  0  0
 29 23  1  0  0  0  0
 29  3  1  0  0  0  0
 29 27  1  0  0  0  0
 30 24  1  0  0  0  0
 30 25  1  0  0  0  0
 31  2  1  0  0  0  0
 31 17  1  0  0  0  0
 32  1  1  0  0  0  0
 34 35  1  0  0  0  0
 37 36  1  0  0  0  0
M  END
>  <MODEL>
8

>  <REMARK>
 VINA RESULT:      -4.3      2.694      7.384
  Name = 
  2 active torsions:
  status: ('A' for Active; 'I' for Inactive)
    1  A    between atoms: C_4  and  C_28
    2  A    between atoms: C_11  and  C_26
                            x       y       z     vdW  Elec       q    Type
                         _______ _______ _______ _____ _____    ______ ____

>  <TORSDO>
F 2

$$$$
=
 OpenBabel11052415163D

 37 46  0  0  1  0  0  0  0  0999 V2000
  185.5380  177.9980  139.1130 C   0  0  2  0  0  3  0  0  0  0  0  0
  182.5280  174.1150  135.9810 O   0  0  0  0  0  0  0  0  0  0  0  0
  181.4510  178.0120  144.2740 C   0  0  0  0  0  2  0  0  0  0  0  0
  181.2770  179.5710  139.0940 C   0  0  1  0  0  3  0  0  0  0  0  0
  185.8090  178.9810  138.0000 C   0  0  0  0  0  2  0  0  0  0  0  0
  182.0970  174.6940  137.2040 C   0  0  1  0  0  3  0  0  0  0  0  0
  183.2630  175.1000  138.1080 C   0  0  0  0  0  2  0  0  0  0  0  0
  180.9040  175.6860  137.1240 C   0  0  2  0  0  3  0  0  0  0  0  0
  179.8610  178.7040  140.9940 C   0  0  0  0  0  2  0  0  0  0  0  0
  182.6400  178.9410  138.7290 C   0  0  2  0  0  3  0  0  0  0  0  0
  185.1210  178.0530  141.7020 C   0  0  2  0  0  3  0  0  0  0  0  0
  181.1190  179.4840  140.6180 C   0  0  1  0  0  3  0  0  0  0  0  0
  182.4350  177.4360  138.3750 C   0  0  2  0  0  3  0  0  0  0  0  0
  178.9810  176.1590  135.6980 F   0  0  0  0  0  0  0  0  0  0  0  0
  180.0400  177.8830  142.2740 C   0  0  0  0  0  2  0  0  0  0  0  0
  186.3250  178.1090  136.8670 C   0  0  0  0  0  2  0  0  0  0  0  0
  180.9560  175.3210  134.5940 C   0  0  0  0  0  2  0  0  0  0  0  0
  180.0920  175.3510  135.8580 C   0  0  1  0  0  3  0  0  0  0  0  0
  182.3560  178.7570  141.0770 C   0  0  2  0  0  3  0  0  0  0  0  0
  184.0640  178.2630  142.8190 C   0  0  0  0  0  2  0  0  0  0  0  0
  180.5750  178.2480  136.6420 C   0  0  0  0  0  2  0  0  0  0  0  0
  185.5790  179.3890  141.1520 C   0  0  0  0  0  2  0  0  0  0  0  0
  182.8580  179.1430  142.4510 C   0  0  2  0  0  3  0  0  0  0  0  0
  185.9790  176.6580  137.2210 C   0  0  2  0  0  3  0  0  0  0  0  0
  183.6480  176.5680  137.9550 C   0  0  1  0  0  3  0  0  0  0  0  0
  183.3660  179.1370  140.0480 C   0  0  1  0  0  3  0  0  0  0  0  0
  180.3950  178.7500  143.4780 C   0  0  2  0  0  3  0  0  0  0  0  0
  181.3590  177.1630  137.2900 C   0  0  2  0  0  0  0  0  0  0  0  0
  181.8270  179.3210  143.5990 C   0  0  1  0  0  3  0  0  0  0  0  0
  185.0950  176.7130  138.4580 C   0  0  2  0  0  3  0  0  0  0  0  0
  182.4260  175.0590  134.9420 C   0  0  0  0  0  2  0  0  0  0  0  0
  184.7140  178.4890  140.2820 C   0  0  1  0  0  0  0  0  0  0  0  0
  181.7500  177.7400  136.0620 O   0  0  0  0  0  0  0  0  0  0  0  0
  187.2430  175.8680  137.5220 C   0  0  0  0  0  2  0  0  0  0  0  0
  188.3110  176.1670  136.4870 C   0  0  0  0  0  1  0  0  0  0  0  0
  180.2870  181.7260  139.3810 O   0  0  0  0  0  1  0  0  0  0  0  0
  181.2410  181.0230  138.6450 C   0  0  0  0  0  2  0  0  0  0  0  0
  1  5  1  6  0  0  0
  1 32  1  0  0  0  0
  2  6  1  0  0  0  0
  4 37  1  1  0  0  0
  4 12  1  0  0  0  0
  6  7  1  6  0  0  0
  8  6  1  0  0  0  0
  8 28  1  0  0  0  0
  9 15  1  0  0  0  0
 10  4  1  0  0  0  0
 10 26  1  0  0  0  0
 11 20  1  0  0  0  0
 12  9  1  0  0  0  0
 12 19  1  0  0  0  0
 13 10  1  0  0  0  0
 14 18  1  0  0  0  0
 15 27  1  0  0  0  0
 16 24  1  0  0  0  0
 16  5  1  0  0  0  0
 17 31  1  0  0  0  0
 17 18  1  0  0  0  0
 18  8  1  0  0  0  0
 19 23  1  0  0  0  0
 21 28  1  0  0  0  0
 22 11  1  0  0  0  0
 23 20  1  0  0  0  0
 23 29  1  0  0  0  0
 24 34  1  0  0  0  0
 24 30  1  0  0  0  0
 25  7  1  0  0  0  0
 25 13  1  0  0  0  0
 25 30  1  0  0  0  0
 26 32  1  0  0  0  0
 26 19  1  0  0  0  0
 27 29  1  0  0  0  0
 27  3  1  0  0  0  0
 28 13  1  0  0  0  0
 29  3  1  0  0  0  0
 30  1  1  0  0  0  0
 31  2  1  0  0  0  0
 32 22  1  0  0  0  0
 32 11  1  0  0  0  0
 33 21  1  0  0  0  0
 33 28  1  0  0  0  0
 35 34  1  0  0  0  0
 37 36  1  0  0  0  0
M  END
>  <MODEL>
9

>  <REMARK>
 VINA RESULT:      -4.3      1.943      3.158
  Name = 
  2 active torsions:
  status: ('A' for Active; 'I' for Inactive)
    1  A    between atoms: C_4  and  C_28
    2  A    between atoms: C_11  and  C_26
                            x       y       z     vdW  Elec       q    Type
                         _______ _______ _______ _____ _____    ______ ____

>  <TORSDO>
F 2

$$$$
