=
 OpenBabel11052412403D

 25 29  0  0  1  0  0  0  0  0999 V2000
  189.2910  177.0170  144.1910 C   0  0  0  0  0  0  0  0  0  0  0  0
  188.5340  177.4280  145.2930 C   0  0  0  0  0  0  0  0  0  0  0  0
  191.2700  176.7310  145.5600 C   0  0  0  0  0  3  0  0  0  0  0  0
  188.8870  176.7900  142.7690 C   0  0  2  0  0  3  0  0  0  0  0  0
  189.7300  177.5260  140.1210 C   0  0  0  0  0  3  0  0  0  0  0  0
  190.5380  177.1600  146.6790 C   0  0  0  0  0  3  0  0  0  0  0  0
  190.1510  176.3610  142.1540 N   0  0  0  0  0  0  0  0  0  0  0  0
  190.4280  176.5910  140.7700 C   0  0  0  0  0  3  0  0  0  0  0  0
  188.4410  177.9280  147.6770 C   0  0  0  0  0  0  0  0  0  0  0  0
  189.0280  178.0180  148.8980 F   0  0  0  0  0  0  0  0  0  0  0  0
  187.1810  177.7580  145.1720 C   0  0  0  0  0  3  0  0  0  0  0  0
  188.7290  178.3380  140.8460 C   0  0  0  0  0  3  0  0  0  0  0  0
  190.6150  176.6640  144.3330 C   0  0  0  0  0  0  0  0  0  0  0  0
  191.1800  176.2590  143.1000 N   0  0  0  0  0  2  0  0  0  0  0  0
  187.0900  178.2590  147.5420 C   0  0  0  0  0  3  0  0  0  0  0  0
  188.3670  178.0360  142.0990 C   0  0  0  0  0  3  0  0  0  0  0  0
  186.4580  178.1680  146.2970 C   0  0  0  0  0  0  0  0  0  0  0  0
  189.1750  177.5080  146.5580 C   0  0  0  0  0  0  0  0  0  0  0  0
  185.0230  178.5430  146.1600 C   0  0  0  0  0  2  0  0  0  0  0  0
  184.5310  178.2330  144.7590 C   0  0  2  0  0  3  0  0  0  0  0  0
  184.7150  179.4630  143.8900 C   0  0  2  0  0  3  0  0  0  0  0  0
  183.3430  179.1130  144.4350 C   0  0  0  0  0  2  0  0  0  0  0  0
  184.8150  179.0560  142.4570 C   0  0  0  0  0  0  0  0  0  0  0  0
  184.2590  177.8570  142.0290 O   0  0  0  0  0  1  0  0  0  0  0  0
  185.4420  179.7790  141.6370 O   0  0  0  0  0  0  0  0  0  0  0  0
  1 13  2  0  0  0  0
  1  2  1  0  0  0  0
  2 18  1  0  0  0  0
  3  6  2  0  0  0  0
  4 16  1  6  0  0  0
  4  1  1  0  0  0  0
  5  8  2  0  0  0  0
  5 12  1  0  0  0  0
  7  4  1  0  0  0  0
  7 14  1  0  0  0  0
  8  7  1  0  0  0  0
  9 10  1  0  0  0  0
 11  2  2  0  0  0  0
 11 17  1  0  0  0  0
 12 16  2  0  0  0  0
 13  3  1  0  0  0  0
 14 13  1  0  0  0  0
 15  9  1  0  0  0  0
 17 15  2  0  0  0  0
 18  6  1  0  0  0  0
 18  9  2  0  0  0  0
 19 17  1  0  0  0  0
 20 19  1  1  0  0  0
 21 23  1  6  0  0  0
 21 22  1  0  0  0  0
 21 20  1  0  0  0  0
 22 20  1  0  0  0  0
 24 23  1  0  0  0  0
 25 23  2  0  0  0  0
M  END
>  <MODEL>
1

>  <REMARK>
 VINA RESULT:     -11.1      0.000      0.000
  Name = 
  3 active torsions:
  status: ('A' for Active; 'I' for Inactive)
    1  A    between atoms: C_2  and  C_21
    2  A    between atoms: C_6  and  C_15
    3  A    between atoms: C_6  and  C_23
                            x       y       z     vdW  Elec       q    Type
                         _______ _______ _______ _____ _____    ______ ____

>  <TORSDO>
F 3

$$$$
=
 OpenBabel11052412403D

 25 29  0  0  1  0  0  0  0  0999 V2000
  186.7730  178.4450  142.3560 C   0  0  0  0  0  0  0  0  0  0  0  0
  186.0700  178.4430  143.5650 C   0  0  0  0  0  0  0  0  0  0  0  0
  184.7410  178.8120  141.0870 C   0  0  0  0  0  3  0  0  0  0  0  0
  188.2410  178.3410  142.0900 C   0  0  2  0  0  3  0  0  0  0  0  0
  190.0560  176.8290  140.4530 C   0  0  0  0  0  3  0  0  0  0  0  0
  184.0090  178.7950  142.2850 C   0  0  0  0  0  3  0  0  0  0  0  0
  188.2940  178.4200  140.6230 N   0  0  0  0  0  0  0  0  0  0  0  0
  189.3440  177.7990  139.8760 C   0  0  0  0  0  3  0  0  0  0  0  0
  183.9290  178.6060  144.7220 C   0  0  0  0  0  0  0  0  0  0  0  0
  182.5810  178.7620  144.7140 F   0  0  0  0  0  0  0  0  0  0  0  0
  186.7190  178.2780  144.7920 C   0  0  0  0  0  3  0  0  0  0  0  0
  189.7210  176.3780  141.8210 C   0  0  0  0  0  3  0  0  0  0  0  0
  186.1220  178.6420  141.1580 C   0  0  0  0  0  0  0  0  0  0  0  0
  187.0240  178.6280  140.0680 N   0  0  0  0  0  2  0  0  0  0  0  0
  184.5910  178.4350  145.9420 C   0  0  0  0  0  3  0  0  0  0  0  0
  188.8370  177.0450  142.5740 C   0  0  0  0  0  3  0  0  0  0  0  0
  185.9810  178.2790  145.9800 C   0  0  0  0  0  0  0  0  0  0  0  0
  184.6600  178.6140  143.5250 C   0  0  0  0  0  0  0  0  0  0  0  0
  186.6720  178.0770  147.2840 C   0  0  0  0  0  2  0  0  0  0  0  0
  188.1700  178.2520  147.1150 C   0  0  2  0  0  3  0  0  0  0  0  0
  188.8650  176.9740  147.5460 C   0  0  2  0  0  3  0  0  0  0  0  0
  188.8420  178.1790  148.4690 C   0  0  0  0  0  2  0  0  0  0  0  0
  190.1940  176.8720  146.8720 C   0  0  0  0  0  0  0  0  0  0  0  0
  190.4110  177.5030  145.6530 O   0  0  0  0  0  0  0  0  0  0  0  0
  191.1110  176.1780  147.3860 O   0  0  0  0  0  1  0  0  0  0  0  0
  1  2  1  0  0  0  0
  2 11  1  0  0  0  0
  3 13  1  0  0  0  0
  3  6  2  0  0  0  0
  4  1  1  0  0  0  0
  4 16  1  6  0  0  0
  5 12  1  0  0  0  0
  6 18  1  0  0  0  0
  7  4  1  0  0  0  0
  8  5  2  0  0  0  0
  8  7  1  0  0  0  0
  9 15  2  0  0  0  0
 10  9  1  0  0  0  0
 11 17  2  0  0  0  0
 12 16  2  0  0  0  0
 13  1  2  0  0  0  0
 14  7  1  0  0  0  0
 14 13  1  0  0  0  0
 15 17  1  0  0  0  0
 17 19  1  0  0  0  0
 18  2  2  0  0  0  0
 18  9  1  0  0  0  0
 20 19  1  1  0  0  0
 20 21  1  0  0  0  0
 20 22  1  0  0  0  0
 21 23  1  6  0  0  0
 21 22  1  0  0  0  0
 23 25  1  0  0  0  0
 24 23  2  0  0  0  0
M  END
>  <MODEL>
2

>  <REMARK>
 VINA RESULT:     -10.4      3.053      5.153
  Name = 
  3 active torsions:
  status: ('A' for Active; 'I' for Inactive)
    1  A    between atoms: C_2  and  C_21
    2  A    between atoms: C_6  and  C_15
    3  A    between atoms: C_6  and  C_23
                            x       y       z     vdW  Elec       q    Type
                         _______ _______ _______ _____ _____    ______ ____

>  <TORSDO>
F 3

$$$$
=
 OpenBabel11052412403D

 25 29  0  0  1  0  0  0  0  0999 V2000
  187.9190  177.2810  143.8170 C   0  0  0  0  0  0  0  0  0  0  0  0
  186.6850  177.7770  144.2480 C   0  0  0  0  0  0  0  0  0  0  0  0
  188.8050  177.3090  146.0720 C   0  0  0  0  0  3  0  0  0  0  0  0
  188.3670  176.8470  142.4570 C   0  0  2  0  0  3  0  0  0  0  0  0
  190.5450  177.2940  140.6360 C   0  0  0  0  0  3  0  0  0  0  0  0
  187.5810  177.8270  146.5290 C   0  0  0  0  0  3  0  0  0  0  0  0
  189.7540  176.4310  142.7080 N   0  0  0  0  0  0  0  0  0  0  0  0
  190.7540  176.5000  141.6880 C   0  0  0  0  0  3  0  0  0  0  0  0
  185.2940  178.5690  146.0870 C   0  0  0  0  0  0  0  0  0  0  0  0
  185.1080  178.8550  147.4010 F   0  0  0  0  0  0  0  0  0  0  0  0
  185.6300  177.9950  143.3570 C   0  0  0  0  0  3  0  0  0  0  0  0
  189.3220  178.1220  140.5640 C   0  0  0  0  0  3  0  0  0  0  0  0
  188.9380  177.0410  144.7120 C   0  0  0  0  0  0  0  0  0  0  0  0
  190.0860  176.5220  144.0670 N   0  0  0  0  0  2  0  0  0  0  0  0
  184.2480  178.7870  145.1850 C   0  0  0  0  0  3  0  0  0  0  0  0
  188.3220  177.9580  141.4410 C   0  0  0  0  0  3  0  0  0  0  0  0
  184.4110  178.4940  143.8260 C   0  0  0  0  0  0  0  0  0  0  0  0
  186.5180  178.0620  145.6300 C   0  0  0  0  0  0  0  0  0  0  0  0
  183.2960  178.7500  142.8710 C   0  0  0  0  0  2  0  0  0  0  0  0
  183.8080  178.6980  141.4430 C   0  0  2  0  0  3  0  0  0  0  0  0
  182.6500  178.9560  140.4980 C   0  0  2  0  0  3  0  0  0  0  0  0
  183.1560  177.5420  140.7160 C   0  0  0  0  0  2  0  0  0  0  0  0
  183.1670  179.4900  139.2020 C   0  0  0  0  0  0  0  0  0  0  0  0
  184.3870  180.1530  139.1560 O   0  0  0  0  0  1  0  0  0  0  0  0
  182.4790  179.3780  138.1530 O   0  0  0  0  0  0  0  0  0  0  0  0
  1  2  2  0  0  0  0
  1 13  1  0  0  0  0
  2 18  1  0  0  0  0
  3  6  1  0  0  0  0
  4 16  1  6  0  0  0
  4  7  1  0  0  0  0
  4  1  1  0  0  0  0
  5  8  2  0  0  0  0
  7 14  1  0  0  0  0
  8  7  1  0  0  0  0
  9 10  1  0  0  0  0
 11 17  2  0  0  0  0
 11  2  1  0  0  0  0
 12  5  1  0  0  0  0
 12 16  2  0  0  0  0
 13  3  2  0  0  0  0
 14 13  1  0  0  0  0
 15  9  2  0  0  0  0
 17 15  1  0  0  0  0
 18  9  1  0  0  0  0
 18  6  2  0  0  0  0
 19 17  1  0  0  0  0
 20 19  1  1  0  0  0
 21 23  1  6  0  0  0
 21 22  1  0  0  0  0
 21 20  1  0  0  0  0
 22 20  1  0  0  0  0
 24 23  1  0  0  0  0
 25 23  2  0  0  0  0
M  END
>  <MODEL>
3

>  <REMARK>
 VINA RESULT:     -10.2      1.966      2.878
  Name = 
  3 active torsions:
  status: ('A' for Active; 'I' for Inactive)
    1  A    between atoms: C_2  and  C_21
    2  A    between atoms: C_6  and  C_15
    3  A    between atoms: C_6  and  C_23
                            x       y       z     vdW  Elec       q    Type
                         _______ _______ _______ _____ _____    ______ ____

>  <TORSDO>
F 3

$$$$
=
 OpenBabel11052412403D

 25 29  0  0  1  0  0  0  0  0999 V2000
  187.4600  178.2360  145.7170 C   0  0  0  0  0  0  0  0  0  0  0  0
  188.7440  177.6850  145.6540 C   0  0  0  0  0  0  0  0  0  0  0  0
  187.3670  177.9360  148.1200 C   0  0  0  0  0  3  0  0  0  0  0  0
  186.6100  178.8360  144.6420 C   0  0  2  0  0  3  0  0  0  0  0  0
  183.9350  178.6280  143.6110 C   0  0  0  0  0  3  0  0  0  0  0  0
  188.6470  177.3600  148.0810 C   0  0  0  0  0  3  0  0  0  0  0  0
  185.4040  179.2260  145.3860 N   0  0  0  0  0  0  0  0  0  0  0  0
  184.1210  179.2880  144.7560 C   0  0  0  0  0  3  0  0  0  0  0  0
  190.6250  176.6650  146.8220 C   0  0  0  0  0  0  0  0  0  0  0  0
  191.2200  176.2190  147.9580 F   0  0  0  0  0  0  0  0  0  0  0  0
  189.4350  177.5720  144.4440 C   0  0  0  0  0  3  0  0  0  0  0  0
  185.0280  177.8090  143.0420 C   0  0  0  0  0  3  0  0  0  0  0  0
  186.8050  178.3700  146.9220 C   0  0  0  0  0  0  0  0  0  0  0  0
  185.5340  178.9710  146.7580 N   0  0  0  0  0  2  0  0  0  0  0  0
  191.3040  176.5540  145.6050 C   0  0  0  0  0  3  0  0  0  0  0  0
  186.2660  177.8580  143.5490 C   0  0  0  0  0  3  0  0  0  0  0  0
  190.7160  177.0120  144.4210 C   0  0  0  0  0  0  0  0  0  0  0  0
  189.3430  177.2310  146.8600 C   0  0  0  0  0  0  0  0  0  0  0  0
  191.4410  176.8700  143.1270 C   0  0  0  0  0  2  0  0  0  0  0  0
  190.7750  177.7160  142.0580 C   0  0  2  0  0  3  0  0  0  0  0  0
  190.1640  176.7990  141.0150 C   0  0  2  0  0  3  0  0  0  0  0  0
  191.4790  177.5030  140.7350 C   0  0  0  0  0  2  0  0  0  0  0  0
  189.0470  177.5040  140.3170 C   0  0  0  0  0  0  0  0  0  0  0  0
  188.3780  178.5470  140.9440 O   0  0  0  0  0  1  0  0  0  0  0  0
  188.6800  177.1270  139.1720 O   0  0  0  0  0  0  0  0  0  0  0  0
  1 13  1  0  0  0  0
  2  1  2  0  0  0  0
  2 18  1  0  0  0  0
  4 16  1  6  0  0  0
  4  7  1  0  0  0  0
  4  1  1  0  0  0  0
  5  8  2  0  0  0  0
  6  3  1  0  0  0  0
  7 14  1  0  0  0  0
  8  7  1  0  0  0  0
  9 18  1  0  0  0  0
  9 10  1  0  0  0  0
 11  2  1  0  0  0  0
 12 16  2  0  0  0  0
 12  5  1  0  0  0  0
 13  3  2  0  0  0  0
 14 13  1  0  0  0  0
 15  9  2  0  0  0  0
 17 11  2  0  0  0  0
 17 15  1  0  0  0  0
 18  6  2  0  0  0  0
 19 17  1  0  0  0  0
 20 19  1  1  0  0  0
 21 23  1  6  0  0  0
 21 20  1  0  0  0  0
 22 21  1  0  0  0  0
 22 20  1  0  0  0  0
 23 24  1  0  0  0  0
 25 23  2  0  0  0  0
M  END
>  <MODEL>
4

>  <REMARK>
 VINA RESULT:      -9.9      2.483      5.161
  Name = 
  3 active torsions:
  status: ('A' for Active; 'I' for Inactive)
    1  A    between atoms: C_2  and  C_21
    2  A    between atoms: C_6  and  C_15
    3  A    between atoms: C_6  and  C_23
                            x       y       z     vdW  Elec       q    Type
                         _______ _______ _______ _____ _____    ______ ____

>  <TORSDO>
F 3

$$$$
=
 OpenBabel11052412403D

 25 29  0  0  1  0  0  0  0  0999 V2000
  187.5820  177.7180  145.1440 C   0  0  0  0  0  0  0  0  0  0  0  0
  186.3670  178.0630  144.5440 C   0  0  0  0  0  0  0  0  0  0  0  0
  186.6920  178.1270  147.3600 C   0  0  0  0  0  3  0  0  0  0  0  0
  188.8530  177.2120  144.5370 C   0  0  2  0  0  3  0  0  0  0  0  0
  191.6690  177.7870  144.5850 C   0  0  0  0  0  3  0  0  0  0  0  0
  185.4660  178.4980  146.7820 C   0  0  0  0  0  3  0  0  0  0  0  0
  189.7120  177.0440  145.7180 N   0  0  0  0  0  0  0  0  0  0  0  0
  191.1350  177.1540  145.6310 C   0  0  0  0  0  3  0  0  0  0  0  0
  184.0670  178.8280  144.8050 C   0  0  0  0  0  0  0  0  0  0  0  0
  183.0250  179.2240  145.5790 F   0  0  0  0  0  0  0  0  0  0  0  0
  186.1940  178.0180  143.1570 C   0  0  0  0  0  3  0  0  0  0  0  0
  190.7910  178.4040  143.5670 C   0  0  0  0  0  3  0  0  0  0  0  0
  187.7260  177.7360  146.5140 C   0  0  0  0  0  0  0  0  0  0  0  0
  189.0250  177.3320  146.9050 N   0  0  0  0  0  2  0  0  0  0  0  0
  183.9080  178.7830  143.4160 C   0  0  0  0  0  3  0  0  0  0  0  0
  189.4700  178.1860  143.5670 C   0  0  0  0  0  3  0  0  0  0  0  0
  184.9640  178.3730  142.5940 C   0  0  0  0  0  0  0  0  0  0  0  0
  185.2930  178.4670  145.3810 C   0  0  0  0  0  0  0  0  0  0  0  0
  184.7900  178.3490  141.1150 C   0  0  0  0  0  2  0  0  0  0  0  0
  183.3450  178.6340  140.7530 C   0  0  2  0  0  3  0  0  0  0  0  0
  182.7520  177.4010  140.0960 C   0  0  2  0  0  3  0  0  0  0  0  0
  183.1830  178.5840  139.2490 C   0  0  0  0  0  2  0  0  0  0  0  0
  181.2670  177.4060  140.2640 C   0  0  0  0  0  0  0  0  0  0  0  0
  180.6840  178.1050  141.3140 O   0  0  0  0  0  1  0  0  0  0  0  0
  180.5400  176.7420  139.4780 O   0  0  0  0  0  0  0  0  0  0  0  0
  1 13  1  0  0  0  0
  2  1  2  0  0  0  0
  2 18  1  0  0  0  0
  4 16  1  6  0  0  0
  4  1  1  0  0  0  0
  4  7  1  0  0  0  0
  5  8  2  0  0  0  0
  6  3  1  0  0  0  0
  7 14  1  0  0  0  0
  8  7  1  0  0  0  0
  9 18  1  0  0  0  0
  9 10  1  0  0  0  0
 11  2  1  0  0  0  0
 12 16  2  0  0  0  0
 12  5  1  0  0  0  0
 13 14  1  0  0  0  0
 13  3  2  0  0  0  0
 15  9  2  0  0  0  0
 17 11  2  0  0  0  0
 17 15  1  0  0  0  0
 18  6  2  0  0  0  0
 19 17  1  0  0  0  0
 20 19  1  6  0  0  0
 21 23  1  1  0  0  0
 21 20  1  0  0  0  0
 22 21  1  0  0  0  0
 22 20  1  0  0  0  0
 23 24  1  0  0  0  0
 25 23  2  0  0  0  0
M  END
>  <MODEL>
5

>  <REMARK>
 VINA RESULT:      -9.7      2.723      4.404
  Name = 
  3 active torsions:
  status: ('A' for Active; 'I' for Inactive)
    1  A    between atoms: C_2  and  C_21
    2  A    between atoms: C_6  and  C_15
    3  A    between atoms: C_6  and  C_23
                            x       y       z     vdW  Elec       q    Type
                         _______ _______ _______ _____ _____    ______ ____

>  <TORSDO>
F 3

$$$$
=
 OpenBabel11052412403D

 25 29  0  0  1  0  0  0  0  0999 V2000
  185.3490  178.5150  143.9920 C   0  0  0  0  0  0  0  0  0  0  0  0
  186.6520  178.0370  143.8210 C   0  0  0  0  0  0  0  0  0  0  0  0
  185.4410  178.1300  146.3830 C   0  0  0  0  0  3  0  0  0  0  0  0
  184.3940  179.1020  143.0010 C   0  0  2  0  0  3  0  0  0  0  0  0
  181.6680  178.7800  142.1490 C   0  0  0  0  0  3  0  0  0  0  0  0
  186.7440  177.6270  146.2350 C   0  0  0  0  0  3  0  0  0  0  0  0
  183.2240  179.3990  143.8400 N   0  0  0  0  0  0  0  0  0  0  0  0
  181.9000  179.4110  143.3020 C   0  0  0  0  0  3  0  0  0  0  0  0
  188.6620  177.0850  144.8190 C   0  0  0  0  0  0  0  0  0  0  0  0
  189.3580  176.6350  145.8940 F   0  0  0  0  0  0  0  0  0  0  0  0
  187.2620  178.0030  142.5630 C   0  0  0  0  0  3  0  0  0  0  0  0
  182.7600  178.0420  141.4770 C   0  0  0  0  0  3  0  0  0  0  0  0
  184.7740  178.5720  145.2430 C   0  0  0  0  0  0  0  0  0  0  0  0
  183.4650  179.1060  145.1890 N   0  0  0  0  0  2  0  0  0  0  0  0
  189.2590  177.0520  143.5550 C   0  0  0  0  0  3  0  0  0  0  0  0
  184.0270  178.1430  141.8990 C   0  0  0  0  0  3  0  0  0  0  0  0
  188.5660  177.5160  142.4310 C   0  0  0  0  0  0  0  0  0  0  0  0
  187.3570  177.5780  144.9650 C   0  0  0  0  0  0  0  0  0  0  0  0
  189.2040  177.4570  141.0860 C   0  0  0  0  0  2  0  0  0  0  0  0
  188.4380  178.3240  140.1050 C   0  0  2  0  0  3  0  0  0  0  0  0
  188.1020  177.4970  138.8780 C   0  0  2  0  0  3  0  0  0  0  0  0
  189.2490  178.4890  138.8380 C   0  0  0  0  0  2  0  0  0  0  0  0
  186.9040  178.0720  138.1960 C   0  0  0  0  0  0  0  0  0  0  0  0
  186.7670  177.9690  136.8170 O   0  0  0  0  0  0  0  0  0  0  0  0
  186.0320  178.6890  138.8630 O   0  0  0  0  0  1  0  0  0  0  0  0
  1 13  1  0  0  0  0
  2  1  2  0  0  0  0
  2 18  1  0  0  0  0
  4 16  1  6  0  0  0
  4  7  1  0  0  0  0
  4  1  1  0  0  0  0
  5  8  2  0  0  0  0
  6  3  1  0  0  0  0
  7 14  1  0  0  0  0
  8  7  1  0  0  0  0
  9 18  1  0  0  0  0
  9 10  1  0  0  0  0
 11  2  1  0  0  0  0
 12 16  2  0  0  0  0
 12  5  1  0  0  0  0
 13  3  2  0  0  0  0
 14 13  1  0  0  0  0
 15  9  2  0  0  0  0
 17 11  2  0  0  0  0
 17 15  1  0  0  0  0
 18  6  2  0  0  0  0
 19 17  1  0  0  0  0
 20 19  1  1  0  0  0
 21 23  1  6  0  0  0
 21 20  1  0  0  0  0
 22 21  1  0  0  0  0
 22 20  1  0  0  0  0
 23 25  1  0  0  0  0
 24 23  2  0  0  0  0
M  END
>  <MODEL>
6

>  <REMARK>
 VINA RESULT:      -9.7      2.944      5.704
  Name = 
  3 active torsions:
  status: ('A' for Active; 'I' for Inactive)
    1  A    between atoms: C_2  and  C_21
    2  A    between atoms: C_6  and  C_15
    3  A    between atoms: C_6  and  C_23
                            x       y       z     vdW  Elec       q    Type
                         _______ _______ _______ _____ _____    ______ ____

>  <TORSDO>
F 3

$$$$
=
 OpenBabel11052412403D

 25 29  0  0  1  0  0  0  0  0999 V2000
  187.6680  177.6700  145.2810 C   0  0  0  0  0  0  0  0  0  0  0  0
  186.8580  178.1660  144.2550 C   0  0  0  0  0  0  0  0  0  0  0  0
  186.0380  178.2840  146.9670 C   0  0  0  0  0  3  0  0  0  0  0  0
  188.9850  176.9640  145.2200 C   0  0  2  0  0  3  0  0  0  0  0  0
  191.5990  177.1260  146.4040 C   0  0  0  0  0  3  0  0  0  0  0  0
  185.2140  178.8070  145.9560 C   0  0  0  0  0  3  0  0  0  0  0  0
  189.2670  176.7150  146.6410 N   0  0  0  0  0  0  0  0  0  0  0  0
  190.6050  176.6150  147.1340 C   0  0  0  0  0  3  0  0  0  0  0  0
  184.7850  179.2660  143.5930 C   0  0  0  0  0  0  0  0  0  0  0  0
  183.5910  179.8360  143.8970 F   0  0  0  0  0  0  0  0  0  0  0  0
  187.2480  178.0960  142.9140 C   0  0  0  0  0  3  0  0  0  0  0  0
  191.3020  177.8260  145.1360 C   0  0  0  0  0  3  0  0  0  0  0  0
  187.2540  177.7160  146.5950 C   0  0  0  0  0  0  0  0  0  0  0  0
  188.2140  177.1420  147.4620 N   0  0  0  0  0  2  0  0  0  0  0  0
  185.1880  179.1940  142.2570 C   0  0  0  0  0  3  0  0  0  0  0  0
  190.0740  177.8020  144.6030 C   0  0  0  0  0  3  0  0  0  0  0  0
  186.4110  178.6060  141.9150 C   0  0  0  0  0  0  0  0  0  0  0  0
  185.6110  178.7520  144.6030 C   0  0  0  0  0  0  0  0  0  0  0  0
  186.8410  178.5540  140.4900 C   0  0  0  0  0  2  0  0  0  0  0  0
  187.9280  177.5110  140.3070 C   0  0  2  0  0  3  0  0  0  0  0  0
  189.2470  178.2170  140.0520 C   0  0  2  0  0  3  0  0  0  0  0  0
  188.4780  177.5970  138.9000 C   0  0  0  0  0  2  0  0  0  0  0  0
  190.3790  177.3270  140.4490 C   0  0  0  0  0  0  0  0  0  0  0  0
  190.1860  176.3310  141.3990 O   0  0  0  0  0  1  0  0  0  0  0  0
  191.5240  177.5030  139.9550 O   0  0  0  0  0  0  0  0  0  0  0  0
  1 13  1  0  0  0  0
  2 18  1  0  0  0  0
  2  1  2  0  0  0  0
  4 16  1  1  0  0  0
  4  1  1  0  0  0  0
  4  7  1  0  0  0  0
  5  8  2  0  0  0  0
  6  3  1  0  0  0  0
  7  8  1  0  0  0  0
  7 14  1  0  0  0  0
  9 10  1  0  0  0  0
  9 18  1  0  0  0  0
 11  2  1  0  0  0  0
 12  5  1  0  0  0  0
 13  3  2  0  0  0  0
 13 14  1  0  0  0  0
 15  9  2  0  0  0  0
 16 12  2  0  0  0  0
 17 15  1  0  0  0  0
 17 11  2  0  0  0  0
 18  6  2  0  0  0  0
 19 17  1  0  0  0  0
 20 19  1  6  0  0  0
 21 20  1  0  0  0  0
 21 23  1  1  0  0  0
 22 21  1  0  0  0  0
 22 20  1  0  0  0  0
 23 24  1  0  0  0  0
 25 23  2  0  0  0  0
M  END
>  <MODEL>
7

>  <REMARK>
 VINA RESULT:      -9.3      2.875      5.339
  Name = 
  3 active torsions:
  status: ('A' for Active; 'I' for Inactive)
    1  A    between atoms: C_2  and  C_21
    2  A    between atoms: C_6  and  C_15
    3  A    between atoms: C_6  and  C_23
                            x       y       z     vdW  Elec       q    Type
                         _______ _______ _______ _____ _____    ______ ____

>  <TORSDO>
F 3

$$$$
=
 OpenBabel11052412403D

 25 29  0  0  1  0  0  0  0  0999 V2000
  187.5280  177.6600  145.5370 C   0  0  0  0  0  0  0  0  0  0  0  0
  186.6240  178.1090  144.5690 C   0  0  0  0  0  0  0  0  0  0  0  0
  186.1240  178.4740  147.3360 C   0  0  0  0  0  3  0  0  0  0  0  0
  188.8050  176.8940  145.3880 C   0  0  2  0  0  3  0  0  0  0  0  0
  191.5410  177.0320  146.2570 C   0  0  0  0  0  3  0  0  0  0  0  0
  185.2090  178.9530  146.3840 C   0  0  0  0  0  3  0  0  0  0  0  0
  189.2380  176.7440  146.7840 N   0  0  0  0  0  0  0  0  0  0  0  0
  190.6200  176.6240  147.1320 C   0  0  0  0  0  3  0  0  0  0  0  0
  184.5290  179.2440  144.0540 C   0  0  0  0  0  0  0  0  0  0  0  0
  183.3980  179.8880  144.4400 F   0  0  0  0  0  0  0  0  0  0  0  0
  186.8560  177.9180  143.2030 C   0  0  0  0  0  3  0  0  0  0  0  0
  191.1250  177.6440  144.9760 C   0  0  0  0  0  3  0  0  0  0  0  0
  187.2690  177.8260  146.8790 C   0  0  0  0  0  0  0  0  0  0  0  0
  188.3010  177.2800  147.6790 N   0  0  0  0  0  2  0  0  0  0  0  0
  184.7740  179.0510  142.6910 C   0  0  0  0  0  3  0  0  0  0  0  0
  189.8440  177.6330  144.5860 C   0  0  0  0  0  3  0  0  0  0  0  0
  185.9290  178.3840  142.2650 C   0  0  0  0  0  0  0  0  0  0  0  0
  185.4470  178.7750  145.0040 C   0  0  0  0  0  0  0  0  0  0  0  0
  186.1900  178.2020  140.8100 C   0  0  0  0  0  2  0  0  0  0  0  0
  187.6300  178.5560  140.4880 C   0  0  2  0  0  3  0  0  0  0  0  0
  188.0910  177.7180  139.3110 C   0  0  2  0  0  3  0  0  0  0  0  0
  188.5100  177.3480  140.7210 C   0  0  0  0  0  2  0  0  0  0  0  0
  189.2120  178.4100  138.6080 C   0  0  0  0  0  0  0  0  0  0  0  0
  190.4450  177.7840  138.4720 O   0  0  0  0  0  1  0  0  0  0  0  0
  189.0570  179.5810  138.1710 O   0  0  0  0  0  0  0  0  0  0  0  0
  1 13  1  0  0  0  0
  2 18  1  0  0  0  0
  2  1  2  0  0  0  0
  4 16  1  6  0  0  0
  4  1  1  0  0  0  0
  4  7  1  0  0  0  0
  5  8  2  0  0  0  0
  6  3  1  0  0  0  0
  7  8  1  0  0  0  0
  7 14  1  0  0  0  0
  9 10  1  0  0  0  0
  9 18  1  0  0  0  0
 11  2  1  0  0  0  0
 12  5  1  0  0  0  0
 13  3  2  0  0  0  0
 13 14  1  0  0  0  0
 15  9  2  0  0  0  0
 16 12  2  0  0  0  0
 17 15  1  0  0  0  0
 17 11  2  0  0  0  0
 18  6  2  0  0  0  0
 19 17  1  0  0  0  0
 20 22  1  0  0  0  0
 20 19  1  1  0  0  0
 21 23  1  6  0  0  0
 21 20  1  0  0  0  0
 21 22  1  0  0  0  0
 24 23  1  0  0  0  0
 25 23  2  0  0  0  0
M  END
>  <MODEL>
8

>  <REMARK>
 VINA RESULT:      -9.2      2.789      5.167
  Name = 
  3 active torsions:
  status: ('A' for Active; 'I' for Inactive)
    1  A    between atoms: C_2  and  C_21
    2  A    between atoms: C_6  and  C_15
    3  A    between atoms: C_6  and  C_23
                            x       y       z     vdW  Elec       q    Type
                         _______ _______ _______ _____ _____    ______ ____

>  <TORSDO>
F 3

$$$$
=
 OpenBabel11052412403D

 25 29  0  0  1  0  0  0  0  0999 V2000
  187.3950  177.7990  143.1700 C   0  0  0  0  0  0  0  0  0  0  0  0
  188.7710  177.5620  143.0930 C   0  0  0  0  0  0  0  0  0  0  0  0
  187.3070  178.5010  140.8520 C   0  0  0  0  0  3  0  0  0  0  0  0
  186.4350  177.5750  144.2960 C   0  0  2  0  0  3  0  0  0  0  0  0
  184.3990  179.0020  145.7390 C   0  0  0  0  0  3  0  0  0  0  0  0
  188.6930  178.2890  140.7530 C   0  0  0  0  0  3  0  0  0  0  0  0
  185.1630  178.0200  143.7100 N   0  0  0  0  0  0  0  0  0  0  0  0
  184.1080  178.5480  144.5180 C   0  0  0  0  0  3  0  0  0  0  0  0
  190.8120  177.6000  141.7600 C   0  0  0  0  0  0  0  0  0  0  0  0
  191.4700  177.8430  140.5980 F   0  0  0  0  0  0  0  0  0  0  0  0
  189.4960  177.0830  144.1880 C   0  0  0  0  0  3  0  0  0  0  0  0
  185.8000  179.0030  146.2140 C   0  0  0  0  0  3  0  0  0  0  0  0
  186.6890  178.2400  142.0720 C   0  0  0  0  0  0  0  0  0  0  0  0
  185.3130  178.3920  142.3660 N   0  0  0  0  0  2  0  0  0  0  0  0
  191.5260  177.1260  142.8640 C   0  0  0  0  0  3  0  0  0  0  0  0
  186.7670  178.3870  145.5220 C   0  0  0  0  0  3  0  0  0  0  0  0
  190.8710  176.8610  144.0720 C   0  0  0  0  0  0  0  0  0  0  0  0
  189.4310  177.8200  141.8610 C   0  0  0  0  0  0  0  0  0  0  0  0
  191.6470  176.3750  145.2480 C   0  0  0  0  0  2  0  0  0  0  0  0
  190.7270  176.1840  146.4390 C   0  0  2  0  0  3  0  0  0  0  0  0
  190.6190  177.4970  147.1920 C   0  0  2  0  0  3  0  0  0  0  0  0
  191.5090  176.3870  147.7180 C   0  0  0  0  0  2  0  0  0  0  0  0
  189.3380  177.5340  147.9600 C   0  0  0  0  0  0  0  0  0  0  0  0
  188.3890  176.5340  147.7860 O   0  0  0  0  0  0  0  0  0  0  0  0
  189.0950  178.4940  148.7380 O   0  0  0  0  0  1  0  0  0  0  0  0
  1  4  1  0  0  0  0
  2  1  1  0  0  0  0
  2 11  1  0  0  0  0
  3 13  1  0  0  0  0
  4 16  1  1  0  0  0
  5 12  1  0  0  0  0
  6  3  2  0  0  0  0
  6 18  1  0  0  0  0
  7  4  1  0  0  0  0
  7  8  1  0  0  0  0
  8  5  2  0  0  0  0
  9 18  1  0  0  0  0
  9 15  2  0  0  0  0
 10  9  1  0  0  0  0
 13 14  1  0  0  0  0
 13  1  2  0  0  0  0
 14  7  1  0  0  0  0
 15 17  1  0  0  0  0
 16 12  2  0  0  0  0
 17 11  2  0  0  0  0
 17 19  1  0  0  0  0
 18  2  2  0  0  0  0
 20 19  1  6  0  0  0
 20 21  1  0  0  0  0
 20 22  1  0  0  0  0
 21 22  1  0  0  0  0
 21 23  1  1  0  0  0
 23 25  1  0  0  0  0
 24 23  2  0  0  0  0
M  END
>  <MODEL>
9

>  <REMARK>
 VINA RESULT:      -9.2      3.327      6.255
  Name = 
  3 active torsions:
  status: ('A' for Active; 'I' for Inactive)
    1  A    between atoms: C_2  and  C_21
    2  A    between atoms: C_6  and  C_15
    3  A    between atoms: C_6  and  C_23
                            x       y       z     vdW  Elec       q    Type
                         _______ _______ _______ _____ _____    ______ ____

>  <TORSDO>
F 3

$$$$
