=
 OpenBabel11052412463D

 25 28  0  0  0  0  0  0  0  0999 V2000
  187.1610  177.8810  145.6560 C   0  0  0  0  0  0  0  0  0  0  0  0
  188.4360  177.4330  145.3160 C   0  0  0  0  0  0  0  0  0  0  0  0
  187.7190  177.9320  147.9560 C   0  0  0  0  0  3  0  0  0  0  0  0
  186.0720  178.1560  144.8640 C   0  0  0  0  0  0  0  0  0  0  0  0
  183.5880  178.8590  143.8640 C   0  0  0  0  0  3  0  0  0  0  0  0
  188.9760  177.4940  147.6600 N   0  0  0  0  0  0  0  0  0  0  0  0
  185.0710  178.5660  145.7210 C   0  0  0  0  0  0  0  0  0  0  0  0
  183.8120  178.9270  145.2510 C   0  0  0  0  0  3  0  0  0  0  0  0
  190.6650  176.7830  146.0430 N   0  0  0  0  0  0  0  0  0  0  0  0
  191.6640  176.5610  147.0740 C   0  0  0  0  0  1  0  0  0  0  0  0
  188.8250  177.1700  143.9610 N   0  0  0  0  0  0  0  0  0  0  0  0
  184.6140  178.4380  142.9880 C   0  0  0  0  0  3  0  0  0  0  0  0
  186.8370  178.1160  146.9440 N   0  0  0  0  0  0  0  0  0  0  0  0
  185.5560  178.5400  147.0220 C   0  0  0  0  0  3  0  0  0  0  0  0
  190.9920  176.5400  144.6980 N   0  0  0  0  0  2  0  0  0  0  0  0
  185.8790  178.0780  143.4860 C   0  0  0  0  0  3  0  0  0  0  0  0
  190.0230  176.7510  143.6610 C   0  0  0  0  0  0  0  0  0  0  0  0
  189.3480  177.2430  146.3660 C   0  0  0  0  0  0  0  0  0  0  0  0
  190.3990  176.4880  142.2680 C   0  0  0  0  0  3  0  0  0  0  0  0
  189.9740  177.2450  141.2620 C   0  0  0  0  0  3  0  0  0  0  0  0
  190.3700  176.9470  139.8550 C   0  0  0  0  0  2  0  0  0  0  0  0
  189.1670  176.9680  138.9200 C   0  0  0  0  0  2  0  0  0  0  0  0
  188.4950  178.2990  138.9360 C   0  0  0  0  0  0  0  0  0  0  0  0
  187.2420  178.4360  139.5180 O   0  0  0  0  0  1  0  0  0  0  0  0
  189.0540  179.2950  138.4090 O   0  0  0  0  0  0  0  0  0  0  0  0
  1 13  1  0  0  0  0
  2  1  1  0  0  0  0
  2 18  2  0  0  0  0
  4  1  2  0  0  0  0
  4  7  1  0  0  0  0
  5  8  2  0  0  0  0
  6  3  2  0  0  0  0
  7 14  2  0  0  0  0
  8  7  1  0  0  0  0
  9 18  1  0  0  0  0
  9 10  1  0  0  0  0
 11  2  1  0  0  0  0
 12 16  2  0  0  0  0
 12  5  1  0  0  0  0
 13 14  1  0  0  0  0
 13  3  1  0  0  0  0
 15  9  1  0  0  0  0
 16  4  1  0  0  0  0
 17 11  2  0  0  0  0
 17 15  1  0  0  0  0
 18  6  1  0  0  0  0
 19 17  1  0  0  0  0
 20 19  2  0  0  0  0
 21 20  1  0  0  0  0
 22 23  1  0  0  0  0
 22 21  1  0  0  0  0
 23 24  1  0  0  0  0
 25 23  2  0  0  0  0
M  END
>  <MODEL>
1

>  <REMARK>
 VINA RESULT:     -10.0      0.000      0.000
  Name = 
  4 active torsions:
  status: ('A' for Active; 'I' for Inactive)
    1  A    between atoms: C_2  and  C_25
    2  A    between atoms: C_6  and  C_23
    3  A    between atoms: C_15  and  C_21
    4  A    between atoms: C_21  and  C_25
                            x       y       z     vdW  Elec       q    Type
                         _______ _______ _______ _____ _____    ______ ____

>  <TORSDO>
F 4

$$$$
=
 OpenBabel11052412463D

 25 28  0  0  0  0  0  0  0  0999 V2000
  187.1340  177.8780  145.4960 C   0  0  0  0  0  0  0  0  0  0  0  0
  188.3910  177.4320  145.0940 C   0  0  0  0  0  0  0  0  0  0  0  0
  187.7930  177.8990  147.7700 C   0  0  0  0  0  3  0  0  0  0  0  0
  186.0100  178.1640  144.7560 C   0  0  0  0  0  0  0  0  0  0  0  0
  183.4870  178.8850  143.8760 C   0  0  0  0  0  3  0  0  0  0  0  0
  189.0340  177.4620  147.4120 N   0  0  0  0  0  0  0  0  0  0  0  0
  185.0500  178.5660  145.6620 C   0  0  0  0  0  0  0  0  0  0  0  0
  183.7720  178.9350  145.2530 C   0  0  0  0  0  3  0  0  0  0  0  0
  190.6480  176.7690  145.7130 N   0  0  0  0  0  0  0  0  0  0  0  0
  191.6920  176.5320  146.6960 C   0  0  0  0  0  1  0  0  0  0  0  0
  188.7180  177.1850  143.7200 N   0  0  0  0  0  0  0  0  0  0  0  0
  184.4720  178.4730  142.9510 C   0  0  0  0  0  3  0  0  0  0  0  0
  186.8680  178.0970  146.8000 N   0  0  0  0  0  0  0  0  0  0  0  0
  185.5920  178.5220  146.9390 C   0  0  0  0  0  3  0  0  0  0  0  0
  190.9150  176.5430  144.3520 N   0  0  0  0  0  2  0  0  0  0  0  0
  185.7570  178.1050  143.3870 C   0  0  0  0  0  3  0  0  0  0  0  0
  189.9010  176.7680  143.3620 C   0  0  0  0  0  0  0  0  0  0  0  0
  189.3480  177.2270  146.1000 C   0  0  0  0  0  0  0  0  0  0  0  0
  190.2140  176.5210  141.9500 C   0  0  0  0  0  3  0  0  0  0  0  0
  189.6140  177.1800  140.9640 C   0  0  0  0  0  3  0  0  0  0  0  0
  189.9520  176.9010  139.5370 C   0  0  0  0  0  2  0  0  0  0  0  0
  191.4510  177.0050  139.2880 C   0  0  0  0  0  2  0  0  0  0  0  0
  191.9140  175.9550  138.3350 C   0  0  0  0  0  0  0  0  0  0  0  0
  191.1480  174.8150  138.1330 O   0  0  0  0  0  1  0  0  0  0  0  0
  193.0060  176.0940  137.7250 O   0  0  0  0  0  0  0  0  0  0  0  0
  1 13  1  0  0  0  0
  2  1  1  0  0  0  0
  2 18  2  0  0  0  0
  4  1  2  0  0  0  0
  4  7  1  0  0  0  0
  5  8  2  0  0  0  0
  6  3  2  0  0  0  0
  7 14  2  0  0  0  0
  8  7  1  0  0  0  0
  9 18  1  0  0  0  0
  9 10  1  0  0  0  0
 11  2  1  0  0  0  0
 12 16  2  0  0  0  0
 12  5  1  0  0  0  0
 13 14  1  0  0  0  0
 13  3  1  0  0  0  0
 15  9  1  0  0  0  0
 16  4  1  0  0  0  0
 17 11  2  0  0  0  0
 17 15  1  0  0  0  0
 18  6  1  0  0  0  0
 19 17  1  0  0  0  0
 20 19  2  0  0  0  0
 21 20  1  0  0  0  0
 22 21  1  0  0  0  0
 23 22  1  0  0  0  0
 24 23  1  0  0  0  0
 25 23  2  0  0  0  0
M  END
>  <MODEL>
2

>  <REMARK>
 VINA RESULT:      -9.4      1.572      1.801
  Name = 
  4 active torsions:
  status: ('A' for Active; 'I' for Inactive)
    1  A    between atoms: C_2  and  C_25
    2  A    between atoms: C_6  and  C_23
    3  A    between atoms: C_15  and  C_21
    4  A    between atoms: C_21  and  C_25
                            x       y       z     vdW  Elec       q    Type
                         _______ _______ _______ _____ _____    ______ ____

>  <TORSDO>
F 4

$$$$
=
 OpenBabel11052412463D

 25 28  0  0  0  0  0  0  0  0999 V2000
  189.1960  177.5580  143.8070 C   0  0  0  0  0  0  0  0  0  0  0  0
  188.5630  177.8820  142.6090 C   0  0  0  0  0  0  0  0  0  0  0  0
  191.2400  177.1320  142.6920 C   0  0  0  0  0  3  0  0  0  0  0  0
  188.7100  177.5330  145.0930 C   0  0  0  0  0  0  0  0  0  0  0  0
  188.3650  177.2860  147.8280 C   0  0  0  0  0  3  0  0  0  0  0  0
  190.6530  177.4420  141.5010 N   0  0  0  0  0  0  0  0  0  0  0  0
  189.7650  177.1410  145.8910 C   0  0  0  0  0  0  0  0  0  0  0  0
  189.6260  177.0080  147.2700 C   0  0  0  0  0  3  0  0  0  0  0  0
  188.7100  178.1410  140.1940 N   0  0  0  0  0  0  0  0  0  0  0  0
  189.4440  178.0940  138.9410 C   0  0  0  0  0  1  0  0  0  0  0  0
  187.1840  178.2700  142.5440 N   0  0  0  0  0  0  0  0  0  0  0  0
  187.2860  177.6860  147.0090 C   0  0  0  0  0  3  0  0  0  0  0  0
  190.4950  177.1980  143.8220 N   0  0  0  0  0  0  0  0  0  0  0  0
  190.8800  176.9330  145.0900 C   0  0  0  0  0  3  0  0  0  0  0  0
  187.3550  178.5150  140.1890 N   0  0  0  0  0  2  0  0  0  0  0  0
  187.4500  177.8140  145.6180 C   0  0  0  0  0  3  0  0  0  0  0  0
  186.6090  178.5690  141.4130 C   0  0  0  0  0  0  0  0  0  0  0  0
  189.3370  177.8130  141.4390 C   0  0  0  0  0  0  0  0  0  0  0  0
  185.1960  178.9630  141.3710 C   0  0  0  0  0  3  0  0  0  0  0  0
  184.2460  178.2690  141.9880 C   0  0  0  0  0  3  0  0  0  0  0  0
  182.8170  178.6930  141.9210 C   0  0  0  0  0  2  0  0  0  0  0  0
  182.2620  179.0040  143.3050 C   0  0  0  0  0  2  0  0  0  0  0  0
  180.7850  179.2070  143.2610 C   0  0  0  0  0  0  0  0  0  0  0  0
  180.2660  180.4440  142.9030 O   0  0  0  0  0  0  0  0  0  0  0  0
  180.0090  178.2640  143.5630 O   0  0  0  0  0  1  0  0  0  0  0  0
  1 13  1  0  0  0  0
  1  4  2  0  0  0  0
  2  1  1  0  0  0  0
  3 13  1  0  0  0  0
  4 16  1  0  0  0  0
  4  7  1  0  0  0  0
  6  3  2  0  0  0  0
  7  8  1  0  0  0  0
  8  5  2  0  0  0  0
  9 18  1  0  0  0  0
 10  9  1  0  0  0  0
 11  2  1  0  0  0  0
 12  5  1  0  0  0  0
 13 14  1  0  0  0  0
 14  7  2  0  0  0  0
 15  9  1  0  0  0  0
 15 17  1  0  0  0  0
 16 12  2  0  0  0  0
 17 11  2  0  0  0  0
 18  6  1  0  0  0  0
 18  2  2  0  0  0  0
 19 17  1  0  0  0  0
 19 20  2  0  0  0  0
 21 20  1  0  0  0  0
 21 22  1  0  0  0  0
 23 22  1  0  0  0  0
 23 25  1  0  0  0  0
 24 23  2  0  0  0  0
M  END
>  <MODEL>
3

>  <REMARK>
 VINA RESULT:      -9.2      3.165      6.190
  Name = 
  4 active torsions:
  status: ('A' for Active; 'I' for Inactive)
    1  A    between atoms: C_2  and  C_25
    2  A    between atoms: C_6  and  C_23
    3  A    between atoms: C_15  and  C_21
    4  A    between atoms: C_21  and  C_25
                            x       y       z     vdW  Elec       q    Type
                         _______ _______ _______ _____ _____    ______ ____

>  <TORSDO>
F 4

$$$$
=
 OpenBabel11052412463D

 25 28  0  0  0  0  0  0  0  0999 V2000
  185.9460  178.5050  142.2520 C   0  0  0  0  0  0  0  0  0  0  0  0
  187.2290  178.2580  141.7660 C   0  0  0  0  0  0  0  0  0  0  0  0
  185.1130  178.8610  140.0650 C   0  0  0  0  0  3  0  0  0  0  0  0
  185.4670  178.5120  143.5400 C   0  0  0  0  0  0  0  0  0  0  0  0
  183.9160  178.6800  145.8270 C   0  0  0  0  0  3  0  0  0  0  0  0
  186.3560  178.6240  139.5550 N   0  0  0  0  0  0  0  0  0  0  0  0
  184.1250  178.8180  143.4450 C   0  0  0  0  0  0  0  0  0  0  0  0
  183.3170  178.9110  144.5750 C   0  0  0  0  0  3  0  0  0  0  0  0
  188.7180  178.0750  139.8510 N   0  0  0  0  0  0  0  0  0  0  0  0
  188.9850  178.1270  138.4240 C   0  0  0  0  0  1  0  0  0  0  0  0
  188.3320  177.9460  142.6270 N   0  0  0  0  0  0  0  0  0  0  0  0
  185.2910  178.3670  145.9220 C   0  0  0  0  0  3  0  0  0  0  0  0
  184.9360  178.7960  141.4070 N   0  0  0  0  0  0  0  0  0  0  0  0
  183.7980  178.9950  142.1080 C   0  0  0  0  0  3  0  0  0  0  0  0
  189.7640  177.7740  140.7410 N   0  0  0  0  0  2  0  0  0  0  0  0
  186.0870  178.2790  144.7660 C   0  0  0  0  0  3  0  0  0  0  0  0
  189.5260  177.7170  142.1550 C   0  0  0  0  0  0  0  0  0  0  0  0
  187.4100  178.3260  140.3760 C   0  0  0  0  0  0  0  0  0  0  0  0
  190.6410  177.4000  143.0540 C   0  0  0  0  0  3  0  0  0  0  0  0
  190.4830  177.2850  144.3680 C   0  0  0  0  0  3  0  0  0  0  0  0
  191.6390  176.9670  145.2560 C   0  0  0  0  0  2  0  0  0  0  0  0
  191.2000  176.8020  146.7060 C   0  0  0  0  0  2  0  0  0  0  0  0
  192.2270  176.0680  147.5010 C   0  0  0  0  0  0  0  0  0  0  0  0
  192.7230  176.6220  148.6730 O   0  0  0  0  0  1  0  0  0  0  0  0
  192.6580  174.9550  147.1010 O   0  0  0  0  0  0  0  0  0  0  0  0
  1  4  2  0  0  0  0
  2  1  1  0  0  0  0
  2 11  1  0  0  0  0
  3 13  1  0  0  0  0
  4 16  1  0  0  0  0
  5 12  1  0  0  0  0
  6  3  2  0  0  0  0
  6 18  1  0  0  0  0
  7  4  1  0  0  0  0
  7  8  1  0  0  0  0
  8  5  2  0  0  0  0
  9 18  1  0  0  0  0
  9 15  1  0  0  0  0
 10  9  1  0  0  0  0
 13 14  1  0  0  0  0
 13  1  1  0  0  0  0
 14  7  2  0  0  0  0
 15 17  1  0  0  0  0
 16 12  2  0  0  0  0
 17 11  2  0  0  0  0
 17 19  1  0  0  0  0
 18  2  2  0  0  0  0
 19 20  2  0  0  0  0
 20 21  1  0  0  0  0
 21 22  1  0  0  0  0
 22 23  1  0  0  0  0
 23 24  1  0  0  0  0
 25 23  2  0  0  0  0
M  END
>  <MODEL>
4

>  <REMARK>
 VINA RESULT:      -8.9      3.638      5.918
  Name = 
  4 active torsions:
  status: ('A' for Active; 'I' for Inactive)
    1  A    between atoms: C_2  and  C_25
    2  A    between atoms: C_6  and  C_23
    3  A    between atoms: C_15  and  C_21
    4  A    between atoms: C_21  and  C_25
                            x       y       z     vdW  Elec       q    Type
                         _______ _______ _______ _____ _____    ______ ____

>  <TORSDO>
F 4

$$$$
=
 OpenBabel11052412463D

 25 28  0  0  0  0  0  0  0  0999 V2000
  188.1240  177.7090  144.2560 C   0  0  0  0  0  0  0  0  0  0  0  0
  187.8910  177.9410  142.9020 C   0  0  0  0  0  0  0  0  0  0  0  0
  185.8830  178.2420  144.8030 C   0  0  0  0  0  3  0  0  0  0  0  0
  189.2700  177.3210  144.9100 C   0  0  0  0  0  0  0  0  0  0  0  0
  191.1770  176.5790  146.7740 C   0  0  0  0  0  3  0  0  0  0  0  0
  185.6200  178.4770  143.4850 N   0  0  0  0  0  0  0  0  0  0  0  0
  188.9370  177.2440  146.2470 C   0  0  0  0  0  0  0  0  0  0  0  0
  189.8720  176.8740  147.2100 C   0  0  0  0  0  3  0  0  0  0  0  0
  186.3290  178.5770  141.1490 N   0  0  0  0  0  0  0  0  0  0  0  0
  185.0130  178.9880  140.6910 C   0  0  0  0  0  1  0  0  0  0  0  0
  188.9130  177.7910  141.9070 N   0  0  0  0  0  0  0  0  0  0  0  0
  191.5150  176.6590  145.4050 C   0  0  0  0  0  3  0  0  0  0  0  0
  187.1340  177.8620  145.1590 N   0  0  0  0  0  0  0  0  0  0  0  0
  187.6000  177.5830  146.3970 C   0  0  0  0  0  3  0  0  0  0  0  0
  187.3680  178.4160  140.2160 N   0  0  0  0  0  2  0  0  0  0  0  0
  190.5540  177.0350  144.4500 C   0  0  0  0  0  3  0  0  0  0  0  0
  188.6770  178.0120  140.6440 C   0  0  0  0  0  0  0  0  0  0  0  0
  186.5950  178.3340  142.5350 C   0  0  0  0  0  0  0  0  0  0  0  0
  189.7370  177.8540  139.6430 C   0  0  0  0  0  3  0  0  0  0  0  0
  189.6300  177.0090  138.6230 C   0  0  0  0  0  3  0  0  0  0  0  0
  190.7300  176.8670  137.6240 C   0  0  0  0  0  2  0  0  0  0  0  0
  191.7970  175.8910  138.1030 C   0  0  0  0  0  2  0  0  0  0  0  0
  193.1370  176.5430  138.1640 C   0  0  0  0  0  0  0  0  0  0  0  0
  193.9230  176.6200  137.0220 O   0  0  0  0  0  0  0  0  0  0  0  0
  193.5630  177.0090  139.2520 O   0  0  0  0  0  1  0  0  0  0  0  0
  1  4  2  0  0  0  0
  1 13  1  0  0  0  0
  2  1  1  0  0  0  0
  3 13  1  0  0  0  0
  4  7  1  0  0  0  0
  5  8  2  0  0  0  0
  6  3  2  0  0  0  0
  7 14  2  0  0  0  0
  7  8  1  0  0  0  0
  9 18  1  0  0  0  0
 10  9  1  0  0  0  0
 11  2  1  0  0  0  0
 12  5  1  0  0  0  0
 13 14  1  0  0  0  0
 15 17  1  0  0  0  0
 15  9  1  0  0  0  0
 16  4  1  0  0  0  0
 16 12  2  0  0  0  0
 17 11  2  0  0  0  0
 18  2  2  0  0  0  0
 18  6  1  0  0  0  0
 19 17  1  0  0  0  0
 20 19  2  0  0  0  0
 21 22  1  0  0  0  0
 21 20  1  0  0  0  0
 22 23  1  0  0  0  0
 23 25  1  0  0  0  0
 24 23  2  0  0  0  0
M  END
>  <MODEL>
5

>  <REMARK>
 VINA RESULT:      -8.9      2.517      5.042
  Name = 
  4 active torsions:
  status: ('A' for Active; 'I' for Inactive)
    1  A    between atoms: C_2  and  C_25
    2  A    between atoms: C_6  and  C_23
    3  A    between atoms: C_15  and  C_21
    4  A    between atoms: C_21  and  C_25
                            x       y       z     vdW  Elec       q    Type
                         _______ _______ _______ _____ _____    ______ ____

>  <TORSDO>
F 4

$$$$
=
 OpenBabel11052412463D

 25 28  0  0  0  0  0  0  0  0999 V2000
  187.4520  177.8780  145.6980 C   0  0  0  0  0  0  0  0  0  0  0  0
  186.5930  178.2160  144.6550 C   0  0  0  0  0  0  0  0  0  0  0  0
  185.7660  178.2910  147.3090 C   0  0  0  0  0  3  0  0  0  0  0  0
  188.7650  177.4720  145.6760 C   0  0  0  0  0  0  0  0  0  0  0  0
  191.3270  176.6350  146.3050 C   0  0  0  0  0  3  0  0  0  0  0  0
  184.8990  178.6280  146.3120 N   0  0  0  0  0  0  0  0  0  0  0  0
  189.1230  177.2710  146.9930 C   0  0  0  0  0  0  0  0  0  0  0  0
  190.4030  176.8500  147.3440 C   0  0  0  0  0  3  0  0  0  0  0  0
  184.3840  178.9500  143.9450 N   0  0  0  0  0  0  0  0  0  0  0  0
  183.0170  179.3560  144.2220 C   0  0  0  0  0  1  0  0  0  0  0  0
  187.0000  178.1850  143.2800 N   0  0  0  0  0  0  0  0  0  0  0  0
  190.9580  176.8420  144.9570 C   0  0  0  0  0  3  0  0  0  0  0  0
  187.0280  177.9220  146.9780 N   0  0  0  0  0  0  0  0  0  0  0  0
  188.0320  177.5540  147.8030 C   0  0  0  0  0  3  0  0  0  0  0  0
  184.8360  178.9020  142.6150 N   0  0  0  0  0  2  0  0  0  0  0  0
  189.6590  177.2670  144.6270 C   0  0  0  0  0  3  0  0  0  0  0  0
  186.1820  178.5050  142.3160 C   0  0  0  0  0  0  0  0  0  0  0  0
  185.2870  178.5980  145.0000 C   0  0  0  0  0  0  0  0  0  0  0  0
  186.6200  178.4660  140.9160 C   0  0  0  0  0  3  0  0  0  0  0  0
  187.8860  178.2530  140.5740 C   0  0  0  0  0  3  0  0  0  0  0  0
  188.3000  178.2250  139.1400 C   0  0  0  0  0  2  0  0  0  0  0  0
  189.8050  178.0330  138.9980 C   0  0  0  0  0  2  0  0  0  0  0  0
  190.2070  176.6420  139.3560 C   0  0  0  0  0  0  0  0  0  0  0  0
  190.1310  175.6320  138.4060 O   0  0  0  0  0  0  0  0  0  0  0  0
  190.6000  176.3790  140.5220 O   0  0  0  0  0  1  0  0  0  0  0  0
  1 13  1  0  0  0  0
  2 18  2  0  0  0  0
  2  1  1  0  0  0  0
  4  1  2  0  0  0  0
  4  7  1  0  0  0  0
  5  8  2  0  0  0  0
  6  3  2  0  0  0  0
  7  8  1  0  0  0  0
  7 14  2  0  0  0  0
  9 10  1  0  0  0  0
  9 18  1  0  0  0  0
 11  2  1  0  0  0  0
 12  5  1  0  0  0  0
 13  3  1  0  0  0  0
 13 14  1  0  0  0  0
 15  9  1  0  0  0  0
 16 12  2  0  0  0  0
 16  4  1  0  0  0  0
 17 15  1  0  0  0  0
 17 11  2  0  0  0  0
 18  6  1  0  0  0  0
 19 17  1  0  0  0  0
 20 19  2  0  0  0  0
 21 20  1  0  0  0  0
 22 21  1  0  0  0  0
 22 23  1  0  0  0  0
 23 25  1  0  0  0  0
 24 23  2  0  0  0  0
M  END
>  <MODEL>
6

>  <REMARK>
 VINA RESULT:      -8.8      2.004      4.710
  Name = 
  4 active torsions:
  status: ('A' for Active; 'I' for Inactive)
    1  A    between atoms: C_2  and  C_25
    2  A    between atoms: C_6  and  C_23
    3  A    between atoms: C_15  and  C_21
    4  A    between atoms: C_21  and  C_25
                            x       y       z     vdW  Elec       q    Type
                         _______ _______ _______ _____ _____    ______ ____

>  <TORSDO>
F 4

$$$$
=
 OpenBabel11052412463D

 25 28  0  0  0  0  0  0  0  0999 V2000
  186.5100  178.1640  144.2220 C   0  0  0  0  0  0  0  0  0  0  0  0
  186.5860  178.3050  142.8380 C   0  0  0  0  0  0  0  0  0  0  0  0
  184.2050  178.7040  144.2190 C   0  0  0  0  0  3  0  0  0  0  0  0
  187.4800  177.8320  145.1380 C   0  0  0  0  0  0  0  0  0  0  0  0
  188.9210  177.2340  147.4250 C   0  0  0  0  0  3  0  0  0  0  0  0
  184.2430  178.8500  142.8640 N   0  0  0  0  0  0  0  0  0  0  0  0
  186.8570  177.8370  146.3690 C   0  0  0  0  0  0  0  0  0  0  0  0
  187.5520  177.5410  147.5390 C   0  0  0  0  0  3  0  0  0  0  0  0
  185.4560  178.8090  140.7430 N   0  0  0  0  0  0  0  0  0  0  0  0
  184.2760  179.1730  139.9770 C   0  0  0  0  0  1  0  0  0  0  0  0
  187.8040  178.1040  142.1070 N   0  0  0  0  0  0  0  0  0  0  0  0
  189.5560  177.2300  146.1630 C   0  0  0  0  0  3  0  0  0  0  0  0
  185.3440  178.3630  144.8690 N   0  0  0  0  0  0  0  0  0  0  0  0
  185.5210  178.1700  146.1950 C   0  0  0  0  0  3  0  0  0  0  0  0
  186.6760  178.6000  140.0770 N   0  0  0  0  0  2  0  0  0  0  0  0
  188.8330  177.5320  144.9950 C   0  0  0  0  0  3  0  0  0  0  0  0
  187.8550  178.2390  140.8110 C   0  0  0  0  0  0  0  0  0  0  0  0
  185.4050  178.6580  142.1660 C   0  0  0  0  0  0  0  0  0  0  0  0
  189.1120  178.0300  140.0840 C   0  0  0  0  0  3  0  0  0  0  0  0
  190.1320  177.3590  140.6080 C   0  0  0  0  0  3  0  0  0  0  0  0
  191.4000  177.1670  139.8440 C   0  0  0  0  0  2  0  0  0  0  0  0
  191.1540  176.4380  138.5300 C   0  0  0  0  0  2  0  0  0  0  0  0
  192.4250  175.8940  137.9690 C   0  0  0  0  0  0  0  0  0  0  0  0
  193.4780  176.7510  137.6810 O   0  0  0  0  0  0  0  0  0  0  0  0
  192.5370  174.6620  137.7400 O   0  0  0  0  0  1  0  0  0  0  0  0
  1 13  1  0  0  0  0
  1  4  2  0  0  0  0
  2  1  1  0  0  0  0
  3 13  1  0  0  0  0
  4  7  1  0  0  0  0
  5  8  2  0  0  0  0
  6  3  2  0  0  0  0
  7  8  1  0  0  0  0
  9 18  1  0  0  0  0
 10  9  1  0  0  0  0
 11  2  1  0  0  0  0
 12  5  1  0  0  0  0
 13 14  1  0  0  0  0
 14  7  2  0  0  0  0
 15  9  1  0  0  0  0
 15 17  1  0  0  0  0
 16  4  1  0  0  0  0
 16 12  2  0  0  0  0
 17 11  2  0  0  0  0
 18  2  2  0  0  0  0
 18  6  1  0  0  0  0
 19 20  2  0  0  0  0
 19 17  1  0  0  0  0
 21 20  1  0  0  0  0
 22 21  1  0  0  0  0
 23 22  1  0  0  0  0
 24 23  2  0  0  0  0
 25 23  1  0  0  0  0
M  END
>  <MODEL>
7

>  <REMARK>
 VINA RESULT:      -8.8      2.670      4.899
  Name = 
  4 active torsions:
  status: ('A' for Active; 'I' for Inactive)
    1  A    between atoms: C_2  and  C_25
    2  A    between atoms: C_6  and  C_23
    3  A    between atoms: C_15  and  C_21
    4  A    between atoms: C_21  and  C_25
                            x       y       z     vdW  Elec       q    Type
                         _______ _______ _______ _____ _____    ______ ____

>  <TORSDO>
F 4

$$$$
=
 OpenBabel11052412463D

 25 28  0  0  0  0  0  0  0  0999 V2000
  188.0850  177.5850  145.6040 C   0  0  0  0  0  0  0  0  0  0  0  0
  187.4050  177.9060  144.4320 C   0  0  0  0  0  0  0  0  0  0  0  0
  186.1550  177.9880  146.9150 C   0  0  0  0  0  3  0  0  0  0  0  0
  189.3890  177.1930  145.8000 C   0  0  0  0  0  0  0  0  0  0  0  0
  191.8220  176.3900  146.8460 C   0  0  0  0  0  3  0  0  0  0  0  0
  185.4590  178.3090  145.7870 N   0  0  0  0  0  0  0  0  0  0  0  0
  189.5290  177.0050  147.1600 C   0  0  0  0  0  0  0  0  0  0  0  0
  190.7390  176.6010  147.7190 C   0  0  0  0  0  3  0  0  0  0  0  0
  185.3350  178.6100  143.3650 N   0  0  0  0  0  0  0  0  0  0  0  0
  183.9370  179.0020  143.4120 C   0  0  0  0  0  1  0  0  0  0  0  0
  188.0320  177.8710  143.1420 N   0  0  0  0  0  0  0  0  0  0  0  0
  191.6760  176.5850  145.4540 C   0  0  0  0  0  3  0  0  0  0  0  0
  187.4580  177.6320  146.7970 N   0  0  0  0  0  0  0  0  0  0  0  0
  188.3170  177.2800  147.7780 C   0  0  0  0  0  3  0  0  0  0  0  0
  185.9980  178.5580  142.1270 N   0  0  0  0  0  2  0  0  0  0  0  0
  190.4440  176.9930  144.9130 C   0  0  0  0  0  3  0  0  0  0  0  0
  187.3790  178.1750  142.0550 C   0  0  0  0  0  0  0  0  0  0  0  0
  186.0560  178.2750  144.5560 C   0  0  0  0  0  0  0  0  0  0  0  0
  188.0400  178.1320  140.7460 C   0  0  0  0  0  3  0  0  0  0  0  0
  189.2230  177.5550  140.5660 C   0  0  0  0  0  3  0  0  0  0  0  0
  189.8720  177.5330  139.2230 C   0  0  0  0  0  2  0  0  0  0  0  0
  188.8440  177.3800  138.1090 C   0  0  0  0  0  2  0  0  0  0  0  0
  188.9260  178.5090  137.1380 C   0  0  0  0  0  0  0  0  0  0  0  0
  188.8800  178.2560  135.7740 O   0  0  0  0  0  0  0  0  0  0  0  0
  189.0550  179.6900  137.5540 O   0  0  0  0  0  1  0  0  0  0  0  0
  1  4  2  0  0  0  0
  1 13  1  0  0  0  0
  2 18  2  0  0  0  0
  2  1  1  0  0  0  0
  4  7  1  0  0  0  0
  5  8  2  0  0  0  0
  6  3  2  0  0  0  0
  7  8  1  0  0  0  0
  7 14  2  0  0  0  0
  9 10  1  0  0  0  0
  9 18  1  0  0  0  0
 11  2  1  0  0  0  0
 12  5  1  0  0  0  0
 13  3  1  0  0  0  0
 13 14  1  0  0  0  0
 15  9  1  0  0  0  0
 16 12  2  0  0  0  0
 16  4  1  0  0  0  0
 17 15  1  0  0  0  0
 17 11  2  0  0  0  0
 18  6  1  0  0  0  0
 19 17  1  0  0  0  0
 20 19  2  0  0  0  0
 21 20  1  0  0  0  0
 22 21  1  0  0  0  0
 23 25  1  0  0  0  0
 23 22  1  0  0  0  0
 24 23  2  0  0  0  0
M  END
>  <MODEL>
8

>  <REMARK>
 VINA RESULT:      -8.7      1.642      4.531
  Name = 
  4 active torsions:
  status: ('A' for Active; 'I' for Inactive)
    1  A    between atoms: C_2  and  C_25
    2  A    between atoms: C_6  and  C_23
    3  A    between atoms: C_15  and  C_21
    4  A    between atoms: C_21  and  C_25
                            x       y       z     vdW  Elec       q    Type
                         _______ _______ _______ _____ _____    ______ ____

>  <TORSDO>
F 4

$$$$
=
 OpenBabel11052412463D

 25 28  0  0  0  0  0  0  0  0999 V2000
  189.7060  177.5090  142.6030 C   0  0  0  0  0  0  0  0  0  0  0  0
  188.6950  177.8880  141.7230 C   0  0  0  0  0  0  0  0  0  0  0  0
  191.2170  177.1440  140.8180 C   0  0  0  0  0  3  0  0  0  0  0  0
  189.7060  177.4200  143.9750 C   0  0  0  0  0  0  0  0  0  0  0  0
  190.3490  177.0410  146.6410 C   0  0  0  0  0  3  0  0  0  0  0  0
  190.2510  177.5090  139.9270 N   0  0  0  0  0  0  0  0  0  0  0  0
  190.9700  176.9940  144.3280 C   0  0  0  0  0  0  0  0  0  0  0  0
  191.3260  176.7940  145.6590 C   0  0  0  0  0  3  0  0  0  0  0  0
  187.9810  178.2650  139.4270 N   0  0  0  0  0  0  0  0  0  0  0  0
  188.2230  178.2800  137.9950 C   0  0  0  0  0  1  0  0  0  0  0  0
  187.3880  178.2750  142.1690 N   0  0  0  0  0  0  0  0  0  0  0  0
  189.0550  177.4770  146.2760 C   0  0  0  0  0  3  0  0  0  0  0  0
  190.9210  177.1520  142.1400 N   0  0  0  0  0  0  0  0  0  0  0  0
  191.7260  176.8280  143.1760 C   0  0  0  0  0  3  0  0  0  0  0  0
  186.7180  178.6350  139.9200 N   0  0  0  0  0  2  0  0  0  0  0  0
  188.7180  177.6720  144.9250 C   0  0  0  0  0  3  0  0  0  0  0  0
  186.4540  178.6270  141.3300 C   0  0  0  0  0  0  0  0  0  0  0  0
  189.0030  177.8790  140.3530 C   0  0  0  0  0  0  0  0  0  0  0  0
  185.1240  179.0190  141.8090 C   0  0  0  0  0  3  0  0  0  0  0  0
  184.5660  178.4700  142.8830 C   0  0  0  0  0  3  0  0  0  0  0  0
  183.2080  178.8860  143.3410 C   0  0  0  0  0  2  0  0  0  0  0  0
  183.0610  178.7460  144.8510 C   0  0  0  0  0  2  0  0  0  0  0  0
  184.3680  178.9490  145.5410 C   0  0  0  0  0  0  0  0  0  0  0  0
  184.8400  177.9910  146.4280 O   0  0  0  0  0  1  0  0  0  0  0  0
  185.0350  179.9950  145.3330 O   0  0  0  0  0  0  0  0  0  0  0  0
  1  4  2  0  0  0  0
  2 11  1  0  0  0  0
  2  1  1  0  0  0  0
  3 13  1  0  0  0  0
  4  7  1  0  0  0  0
  4 16  1  0  0  0  0
  6 18  1  0  0  0  0
  6  3  2  0  0  0  0
  7  8  1  0  0  0  0
  8  5  2  0  0  0  0
  9 15  1  0  0  0  0
  9 18  1  0  0  0  0
 10  9  1  0  0  0  0
 12  5  1  0  0  0  0
 13  1  1  0  0  0  0
 13 14  1  0  0  0  0
 14  7  2  0  0  0  0
 15 17  1  0  0  0  0
 16 12  2  0  0  0  0
 17 19  1  0  0  0  0
 17 11  2  0  0  0  0
 18  2  2  0  0  0  0
 19 20  2  0  0  0  0
 20 21  1  0  0  0  0
 21 22  1  0  0  0  0
 22 23  1  0  0  0  0
 23 24  1  0  0  0  0
 25 23  2  0  0  0  0
M  END
>  <MODEL>
9

>  <REMARK>
 VINA RESULT:      -8.7      2.983      6.678
  Name = 
  4 active torsions:
  status: ('A' for Active; 'I' for Inactive)
    1  A    between atoms: C_2  and  C_25
    2  A    between atoms: C_6  and  C_23
    3  A    between atoms: C_15  and  C_21
    4  A    between atoms: C_21  and  C_25
                            x       y       z     vdW  Elec       q    Type
                         _______ _______ _______ _____ _____    ______ ____

>  <TORSDO>
F 4

$$$$
