=
 OpenBabel11052414293D

 32 38  0  0  1  0  0  0  0  0999 V2000
  182.1450  174.6720  136.9160 C   0  0  1  0  0  3  0  0  0  0  0  0
  182.9540  177.3350  140.5450 C   0  0  0  0  0  3  0  0  0  0  0  0
  180.9810  175.6900  136.8070 C   0  0  1  0  0  3  0  0  0  0  0  0
  180.6600  172.8020  137.6850 C   0  0  2  0  0  3  0  0  0  0  0  0
  179.5290  178.3090  139.7410 C   0  0  0  0  0  2  0  0  0  0  0  0
  179.6180  175.2130  137.4120 C   0  0  1  0  0  3  0  0  0  0  0  0
  179.4650  176.1220  141.0950 C   0  0  0  0  0  2  0  0  0  0  0  0
  179.9720  175.5100  139.7810 C   0  0  2  0  0  0  0  0  0  0  0  0
  179.5950  173.8200  138.0890 C   0  0  2  0  0  3  0  0  0  0  0  0
  183.7890  179.1530  139.2060 C   0  0  0  0  0  3  0  0  0  0  0  0
  182.2540  177.5220  138.2060 C   0  0  0  0  0  0  0  0  0  0  0  0
  179.6200  174.0470  139.6160 C   0  0  0  0  0  2  0  0  0  0  0  0
  181.6300  173.2620  136.6050 C   0  0  2  0  0  3  0  0  0  0  0  0
  183.7320  178.4880  140.4280 C   0  0  0  0  0  0  0  0  0  0  0  0
  183.0480  178.6850  138.1220 C   0  0  0  0  0  3  0  0  0  0  0  0
  182.2020  176.8550  139.4680 C   0  0  0  0  0  0  0  0  0  0  0  0
  181.5120  175.5510  139.7070 C   0  0  0  0  0  2  0  0  0  0  0  0
  180.0430  178.0520  137.2530 C   0  0  0  0  0  2  0  0  0  0  0  0
  180.0330  171.6170  137.2940 O   0  0  0  0  0  1  0  0  0  0  0  0
  181.3160  177.2200  137.0220 C   0  0  2  0  0  0  0  0  0  0  0  0
  179.2290  176.0710  138.5870 C   0  0  1  0  0  3  0  0  0  0  0  0
  182.7690  172.2510  136.5460 C   0  0  0  0  0  1  0  0  0  0  0  0
  178.9310  177.5650  140.9440 C   0  0  0  0  0  2  0  0  0  0  0  0
  179.1970  177.5850  138.4290 C   0  0  1  0  0  3  0  0  0  0  0  0
  185.6580  179.7000  141.1110 O   0  0  0  0  0  0  0  0  0  0  0  0
  185.9150  178.3870  141.5400 C   0  0  0  0  0  2  0  0  0  0  0  0
  184.5520  178.9670  141.5840 C   0  0  2  0  0  3  0  0  0  0  0  0
  183.5510  175.0960  135.8250 S   0  0  0  0  0  0  0  0  0  0  0  0
  184.6990  175.1980  137.2260 C   0  0  0  0  0  1  0  0  0  0  0  0
  182.0180  177.8850  135.4460 S   0  0  0  0  0  0  0  0  0  0  0  0
  180.5350  178.8020  134.9160 C   0  0  0  0  0  2  0  0  0  0  0  0
  180.9150  180.2310  134.5940 C   0  0  0  0  0  1  0  0  0  0  0  0
  1 28  1  6  0  0  0
  3  1  1  0  0  0  0
  3 20  1  0  0  0  0
  3  6  1  0  0  0  0
  4  9  1  0  0  0  0
  5 23  1  0  0  0  0
  6  9  1  0  0  0  0
  6 21  1  0  0  0  0
  8  7  1  0  0  0  0
  9 12  1  0  0  0  0
 10 14  2  0  0  0  0
 11 16  1  0  0  0  0
 12  8  1  0  0  0  0
 13  1  1  0  0  0  0
 13  4  1  0  0  0  0
 14  2  1  0  0  0  0
 14 27  1  0  0  0  0
 15 11  2  0  0  0  0
 15 10  1  0  0  0  0
 16 17  1  0  0  0  0
 16  2  2  0  0  0  0
 17  8  1  0  0  0  0
 18 24  1  0  0  0  0
 19  4  1  0  0  0  0
 20 18  1  0  0  0  0
 20 11  1  0  0  0  0
 21  8  1  0  0  0  0
 22 13  1  0  0  0  0
 23  7  1  0  0  0  0
 24 21  1  0  0  0  0
 24  5  1  0  0  0  0
 25 26  1  0  0  0  0
 25 27  1  0  0  0  0
 26 27  1  0  0  0  0
 28 29  1  0  0  0  0
 30 20  1  0  0  0  0
 31 30  1  0  0  0  0
 32 31  1  0  0  0  0
M  END
>  <MODEL>
1

>  <REMARK>
 VINA RESULT:      -5.0      0.000      0.000
  Name = 
  4 active torsions:
  status: ('A' for Active; 'I' for Inactive)
    1  A    between atoms: S_1  and  C_4
    2  A    between atoms: S_1  and  C_27
    3  A    between atoms: C_2  and  S_14
    4  A    between atoms: C_19  and  C_26
                            x       y       z     vdW  Elec       q    Type
                         _______ _______ _______ _____ _____    ______ ____

>  <TORSDO>
F 4

$$$$
=
 OpenBabel11052414293D

 32 38  0  0  1  0  0  0  0  0999 V2000
  181.9840  178.3880  141.2960 C   0  0  1  0  0  3  0  0  0  0  0  0
  181.3470  174.8480  138.4700 C   0  0  0  0  0  3  0  0  0  0  0  0
  181.7040  179.1190  139.9580 C   0  0  1  0  0  3  0  0  0  0  0  0
  184.4340  178.9260  141.2700 C   0  0  2  0  0  3  0  0  0  0  0  0
  181.8070  177.5580  136.0680 C   0  0  0  0  0  2  0  0  0  0  0  0
  182.9760  179.5720  139.1660 C   0  0  1  0  0  3  0  0  0  0  0  0
  184.1210  176.7710  136.8720 C   0  0  0  0  0  2  0  0  0  0  0  0
  183.7210  177.5080  138.1580 C   0  0  2  0  0  0  0  0  0  0  0  0
  184.3530  179.2010  139.7690 C   0  0  2  0  0  3  0  0  0  0  0  0
  178.9630  175.1660  138.3770 C   0  0  0  0  0  3  0  0  0  0  0  0
  180.4130  177.0640  138.9340 C   0  0  0  0  0  0  0  0  0  0  0  0
  184.9000  177.9980  138.9720 C   0  0  0  0  0  2  0  0  0  0  0  0
  183.1290  179.0870  142.0370 C   0  0  2  0  0  3  0  0  0  0  0  0
  180.0710  174.3320  138.2450 C   0  0  0  0  0  0  0  0  0  0  0  0
  179.1380  176.5110  138.6980 C   0  0  0  0  0  3  0  0  0  0  0  0
  181.5390  176.1970  138.7890 C   0  0  0  0  0  0  0  0  0  0  0  0
  182.9470  176.5780  139.1150 C   0  0  0  0  0  2  0  0  0  0  0  0
  180.5780  179.1540  137.6360 C   0  0  0  0  0  2  0  0  0  0  0  0
  185.4240  179.7370  141.8300 O   0  0  0  0  0  1  0  0  0  0  0  0
  180.5060  178.5960  139.0690 C   0  0  2  0  0  0  0  0  0  0  0  0
  183.0720  178.8420  137.8520 C   0  0  1  0  0  3  0  0  0  0  0  0
  183.3350  178.5000  143.4290 C   0  0  0  0  0  1  0  0  0  0  0  0
  183.2130  177.0920  135.6630 C   0  0  0  0  0  2  0  0  0  0  0  0
  181.8770  178.8400  136.9080 C   0  0  1  0  0  3  0  0  0  0  0  0
  181.0830  172.3480  137.4190 O   0  0  0  0  0  0  0  0  0  0  0  0
  180.0690  172.6230  136.4870 C   0  0  0  0  0  2  0  0  0  0  0  0
  179.8860  172.8800  137.9350 C   0  0  2  0  0  3  0  0  0  0  0  0
  180.5000  178.2830  142.3610 S   0  0  0  0  0  0  0  0  0  0  0  0
  180.4980  180.0720  142.6570 C   0  0  0  0  0  1  0  0  0  0  0  0
  178.9330  179.2880  139.7520 S   0  0  0  0  0  0  0  0  0  0  0  0
  178.9310  180.8280  138.7770 C   0  0  0  0  0  2  0  0  0  0  0  0
  179.2930  181.9920  139.6740 C   0  0  0  0  0  1  0  0  0  0  0  0
  1 13  1  0  0  0  0
  1 28  1  1  0  0  0
  2 16  1  0  0  0  0
  3  1  1  0  0  0  0
  4 19  1  0  0  0  0
  4 13  1  0  0  0  0
  5 24  1  0  0  0  0
  6  9  1  0  0  0  0
  6  3  1  0  0  0  0
  7  8  1  0  0  0  0
  8 12  1  0  0  0  0
  8 17  1  0  0  0  0
  9  4  1  0  0  0  0
 10 15  2  0  0  0  0
 11 20  1  0  0  0  0
 12  9  1  0  0  0  0
 13 22  1  0  0  0  0
 14 10  1  0  0  0  0
 14  2  2  0  0  0  0
 15 11  1  0  0  0  0
 16 11  2  0  0  0  0
 16 17  1  0  0  0  0
 18 20  1  0  0  0  0
 20 30  1  0  0  0  0
 20  3  1  0  0  0  0
 21  8  1  0  0  0  0
 21  6  1  0  0  0  0
 23  5  1  0  0  0  0
 23  7  1  0  0  0  0
 24 18  1  0  0  0  0
 24 21  1  0  0  0  0
 25 27  1  0  0  0  0
 26 25  1  0  0  0  0
 26 27  1  0  0  0  0
 27 14  1  0  0  0  0
 28 29  1  0  0  0  0
 31 32  1  0  0  0  0
 31 30  1  0  0  0  0
M  END
>  <MODEL>
2

>  <REMARK>
 VINA RESULT:      -4.8      2.251      6.314
  Name = 
  4 active torsions:
  status: ('A' for Active; 'I' for Inactive)
    1  A    between atoms: S_1  and  C_4
    2  A    between atoms: S_1  and  C_27
    3  A    between atoms: C_2  and  S_14
    4  A    between atoms: C_19  and  C_26
                            x       y       z     vdW  Elec       q    Type
                         _______ _______ _______ _____ _____    ______ ____

>  <TORSDO>
F 4

$$$$
=
 OpenBabel11052414293D

 32 38  0  0  1  0  0  0  0  0999 V2000
  181.9930  177.9830  140.3120 C   0  0  1  0  0  3  0  0  0  0  0  0
  181.5580  174.1060  137.9250 C   0  0  0  0  0  3  0  0  0  0  0  0
  181.7030  178.5350  138.8920 C   0  0  1  0  0  3  0  0  0  0  0  0
  184.4170  178.6250  140.2480 C   0  0  2  0  0  3  0  0  0  0  0  0
  181.9390  176.5270  135.2200 C   0  0  0  0  0  2  0  0  0  0  0  0
  182.9660  178.9480  138.0660 C   0  0  1  0  0  3  0  0  0  0  0  0
  184.2710  175.9480  136.1390 C   0  0  0  0  0  2  0  0  0  0  0  0
  183.8180  176.8150  137.3220 C   0  0  2  0  0  0  0  0  0  0  0  0
  184.3490  178.7150  138.7250 C   0  0  2  0  0  3  0  0  0  0  0  0
  179.1640  174.3010  137.7680 C   0  0  0  0  0  3  0  0  0  0  0  0
  180.5200  176.3160  138.1080 C   0  0  0  0  0  0  0  0  0  0  0  0
  184.9600  177.4510  138.0840 C   0  0  0  0  0  2  0  0  0  0  0  0
  183.0930  178.8180  140.9760 C   0  0  2  0  0  3  0  0  0  0  0  0
  180.3090  173.5090  137.7500 C   0  0  0  0  0  0  0  0  0  0  0  0
  179.2740  175.6820  137.9270 C   0  0  0  0  0  3  0  0  0  0  0  0
  181.6850  175.4900  138.0820 C   0  0  0  0  0  0  0  0  0  0  0  0
  183.0700  175.9710  138.3750 C   0  0  0  0  0  2  0  0  0  0  0  0
  180.6150  178.2420  136.5710 C   0  0  0  0  0  2  0  0  0  0  0  0
  185.3610  179.5410  140.7180 O   0  0  0  0  0  1  0  0  0  0  0  0
  180.5440  177.8560  138.0590 C   0  0  2  0  0  0  0  0  0  0  0  0
  183.1160  178.0710  136.8500 C   0  0  1  0  0  3  0  0  0  0  0  0
  183.3020  178.4110  142.4300 C   0  0  0  0  0  1  0  0  0  0  0  0
  183.3700  176.0800  134.8890 C   0  0  0  0  0  2  0  0  0  0  0  0
  181.9380  177.9020  135.9000 C   0  0  1  0  0  3  0  0  0  0  0  0
  181.3500  171.5100  136.9970 O   0  0  0  0  0  0  0  0  0  0  0  0
  180.2070  171.6210  136.1880 C   0  0  0  0  0  2  0  0  0  0  0  0
  180.1930  172.0240  137.6140 C   0  0  2  0  0  3  0  0  0  0  0  0
  180.4970  177.9390  141.3650 S   0  0  0  0  0  0  0  0  0  0  0  0
  180.4560  179.7470  141.5060 C   0  0  0  0  0  1  0  0  0  0  0  0
  178.9310  178.5530  138.6360 S   0  0  0  0  0  0  0  0  0  0  0  0
  178.9310  180.0240  137.5600 C   0  0  0  0  0  2  0  0  0  0  0  0
  179.2400  181.2530  138.3870 C   0  0  0  0  0  1  0  0  0  0  0  0
  1 13  1  0  0  0  0
  1 28  1  1  0  0  0
  2 16  1  0  0  0  0
  3  1  1  0  0  0  0
  4 19  1  0  0  0  0
  4 13  1  0  0  0  0
  5 24  1  0  0  0  0
  6  9  1  0  0  0  0
  6  3  1  0  0  0  0
  7  8  1  0  0  0  0
  8 12  1  0  0  0  0
  8 17  1  0  0  0  0
  9  4  1  0  0  0  0
 10 15  2  0  0  0  0
 12  9  1  0  0  0  0
 13 22  1  0  0  0  0
 14 10  1  0  0  0  0
 14  2  2  0  0  0  0
 15 11  1  0  0  0  0
 16 11  2  0  0  0  0
 16 17  1  0  0  0  0
 18 20  1  0  0  0  0
 20 11  1  0  0  0  0
 20 30  1  0  0  0  0
 20  3  1  0  0  0  0
 21  8  1  0  0  0  0
 21  6  1  0  0  0  0
 23  5  1  0  0  0  0
 23  7  1  0  0  0  0
 24 18  1  0  0  0  0
 24 21  1  0  0  0  0
 25 27  1  0  0  0  0
 26 25  1  0  0  0  0
 26 27  1  0  0  0  0
 27 14  1  0  0  0  0
 28 29  1  0  0  0  0
 31 32  1  0  0  0  0
 31 30  1  0  0  0  0
M  END
>  <MODEL>
3

>  <REMARK>
 VINA RESULT:      -4.3      2.096      6.183
  Name = 
  4 active torsions:
  status: ('A' for Active; 'I' for Inactive)
    1  A    between atoms: S_1  and  C_4
    2  A    between atoms: S_1  and  C_27
    3  A    between atoms: C_2  and  S_14
    4  A    between atoms: C_19  and  C_26
                            x       y       z     vdW  Elec       q    Type
                         _______ _______ _______ _____ _____    ______ ____

>  <TORSDO>
F 4

$$$$
=
 OpenBabel11052414293D

 32 38  0  0  1  0  0  0  0  0999 V2000
  183.9520  177.9870  138.2970 C   0  0  1  0  0  3  0  0  0  0  0  0
  180.8460  174.7720  139.2660 C   0  0  0  0  0  3  0  0  0  0  0  0
  183.1000  177.9920  137.0010 C   0  0  1  0  0  3  0  0  0  0  0  0
  185.8980  176.8350  137.2130 C   0  0  2  0  0  3  0  0  0  0  0  0
  180.3870  175.0910  135.6590 C   0  0  0  0  0  2  0  0  0  0  0  0
  183.6740  177.1370  135.8230 C   0  0  1  0  0  3  0  0  0  0  0  0
  182.4120  173.5660  136.0980 C   0  0  0  0  0  2  0  0  0  0  0  0
  183.0910  174.8890  136.4820 C   0  0  2  0  0  0  0  0  0  0  0  0
  184.9810  176.3510  136.0910 C   0  0  2  0  0  3  0  0  0  0  0  0
  179.0900  176.3760  139.6350 C   0  0  0  0  0  3  0  0  0  0  0  0
  180.9900  176.9750  138.2060 C   0  0  0  0  0  0  0  0  0  0  0  0
  184.5950  174.8720  136.3130 C   0  0  0  0  0  2  0  0  0  0  0  0
  185.4380  178.0920  137.9390 C   0  0  2  0  0  3  0  0  0  0  0  0
  179.6260  175.1090  139.8530 C   0  0  0  0  0  0  0  0  0  0  0  0
  179.7550  177.2830  138.8120 C   0  0  0  0  0  3  0  0  0  0  0  0
  181.5240  175.6700  138.4340 C   0  0  0  0  0  0  0  0  0  0  0  0
  182.8710  175.2140  137.9740 C   0  0  0  0  0  2  0  0  0  0  0  0
  180.8370  177.5990  135.8260 C   0  0  0  0  0  2  0  0  0  0  0  0
  187.1850  177.0190  136.7030 O   0  0  0  0  0  1  0  0  0  0  0  0
  181.5270  177.9620  137.1530 C   0  0  2  0  0  0  0  0  0  0  0  0
  182.7520  175.9900  135.4990 C   0  0  1  0  0  3  0  0  0  0  0  0
  186.3030  178.2490  139.1850 C   0  0  0  0  0  1  0  0  0  0  0  0
  181.0690  173.7500  135.3540 C   0  0  0  0  0  2  0  0  0  0  0  0
  181.2780  176.2670  135.2370 C   0  0  1  0  0  3  0  0  0  0  0  0
  178.9310  174.6500  142.0780 O   0  0  0  0  0  0  0  0  0  0  0  0
  179.8620  173.6360  141.7990 C   0  0  0  0  0  2  0  0  0  0  0  0
  178.9320  174.1450  140.7630 C   0  0  2  0  0  3  0  0  0  0  0  0
  183.4750  179.3230  139.4540 S   0  0  0  0  0  0  0  0  0  0  0  0
  183.1340  178.1420  140.7880 C   0  0  0  0  0  1  0  0  0  0  0  0
  180.9480  179.6810  137.5140 S   0  0  0  0  0  0  0  0  0  0  0  0
  180.8240  180.2390  135.7830 C   0  0  0  0  0  2  0  0  0  0  0  0
  180.4050  181.6920  135.7510 C   0  0  0  0  0  1  0  0  0  0  0  0
  1 28  1  1  0  0  0
  2 14  1  0  0  0  0
  3 20  1  0  0  0  0
  3  1  1  0  0  0  0
  4 13  1  0  0  0  0
  6  9  1  0  0  0  0
  6  3  1  0  0  0  0
  7  8  1  0  0  0  0
  8 17  1  0  0  0  0
  9 12  1  0  0  0  0
  9  4  1  0  0  0  0
 10 14  2  0  0  0  0
 11 16  1  0  0  0  0
 11 15  2  0  0  0  0
 12  8  1  0  0  0  0
 13  1  1  0  0  0  0
 13 22  1  0  0  0  0
 14 27  1  0  0  0  0
 15 10  1  0  0  0  0
 16  2  2  0  0  0  0
 17 16  1  0  0  0  0
 18 20  1  0  0  0  0
 19  4  1  0  0  0  0
 20 30  1  0  0  0  0
 20 11  1  0  0  0  0
 21  6  1  0  0  0  0
 21  8  1  0  0  0  0
 23  5  1  0  0  0  0
 23  7  1  0  0  0  0
 24 21  1  0  0  0  0
 24  5  1  0  0  0  0
 24 18  1  0  0  0  0
 26 25  1  0  0  0  0
 27 26  1  0  0  0  0
 27 25  1  0  0  0  0
 28 29  1  0  0  0  0
 31 30  1  0  0  0  0
 32 31  1  0  0  0  0
M  END
>  <MODEL>
4

>  <REMARK>
 VINA RESULT:      -4.2      2.234      5.232
  Name = 
  4 active torsions:
  status: ('A' for Active; 'I' for Inactive)
    1  A    between atoms: S_1  and  C_4
    2  A    between atoms: S_1  and  C_27
    3  A    between atoms: C_2  and  S_14
    4  A    between atoms: C_19  and  C_26
                            x       y       z     vdW  Elec       q    Type
                         _______ _______ _______ _____ _____    ______ ____

>  <TORSDO>
F 4

$$$$
=
 OpenBabel11052414293D

 32 38  0  0  1  0  0  0  0  0999 V2000
  183.4760  173.6380  136.7960 C   0  0  1  0  0  3  0  0  0  0  0  0
  182.7060  177.2280  139.5240 C   0  0  0  0  0  3  0  0  0  0  0  0
  183.2810  174.7710  135.7550 C   0  0  1  0  0  3  0  0  0  0  0  0
  181.2510  172.5840  136.3130 C   0  0  2  0  0  3  0  0  0  0  0  0
  181.5800  178.5610  136.3180 C   0  0  0  0  0  2  0  0  0  0  0  0
  181.8440  174.8770  135.1450 C   0  0  1  0  0  3  0  0  0  0  0  0
  179.6930  177.1270  137.3200 C   0  0  0  0  0  2  0  0  0  0  0  0
  180.6110  175.9650  136.9120 C   0  0  2  0  0  0  0  0  0  0  0  0
  180.7760  173.8890  135.6770 C   0  0  2  0  0  3  0  0  0  0  0  0
  184.8920  178.1640  139.1500 C   0  0  0  0  0  3  0  0  0  0  0  0
  183.9180  176.6630  137.4730 C   0  0  0  0  0  0  0  0  0  0  0  0
  179.8730  174.6680  136.6590 C   0  0  0  0  0  2  0  0  0  0  0  0
  182.7590  172.3700  136.3200 C   0  0  2  0  0  3  0  0  0  0  0  0
  183.7550  178.0440  139.9470 C   0  0  0  0  0  0  0  0  0  0  0  0
  184.9590  177.4980  137.9280 C   0  0  0  0  0  3  0  0  0  0  0  0
  182.7570  176.5550  138.2990 C   0  0  0  0  0  0  0  0  0  0  0  0
  181.6150  175.6290  138.0350 C   0  0  0  0  0  2  0  0  0  0  0  0
  183.4370  177.2700  135.1320 C   0  0  0  0  0  2  0  0  0  0  0  0
  180.6170  171.5120  135.6820 O   0  0  0  0  0  1  0  0  0  0  0  0
  184.0040  176.1510  136.0230 C   0  0  2  0  0  0  0  0  0  0  0  0
  181.1970  176.1810  135.5330 C   0  0  1  0  0  3  0  0  0  0  0  0
  183.0530  171.1860  137.2340 C   0  0  0  0  0  1  0  0  0  0  0  0
  180.0940  178.4840  136.6960 C   0  0  0  0  0  2  0  0  0  0  0  0
  181.9380  177.4870  135.2820 C   0  0  1  0  0  3  0  0  0  0  0  0
  184.9040  179.4090  141.5170 O   0  0  0  0  0  0  0  0  0  0  0  0
  184.7220  178.1920  142.1950 C   0  0  0  0  0  2  0  0  0  0  0  0
  183.6930  178.7300  141.2740 C   0  0  2  0  0  3  0  0  0  0  0  0
  185.2400  173.2900  137.1310 S   0  0  0  0  0  0  0  0  0  0  0  0
  185.4690  172.5150  135.5080 C   0  0  0  0  0  1  0  0  0  0  0  0
  185.7680  175.9930  135.4890 S   0  0  0  0  0  0  0  0  0  0  0  0
  185.8700  177.5770  134.5950 C   0  0  0  0  0  2  0  0  0  0  0  0
  187.1760  178.2620  134.9310 C   0  0  0  0  0  1  0  0  0  0  0  0
  1 28  1  6  0  0  0
  2 14  1  0  0  0  0
  3 20  1  0  0  0  0
  3  1  1  0  0  0  0
  4 13  1  0  0  0  0
  5 23  1  0  0  0  0
  6 21  1  0  0  0  0
  6  9  1  0  0  0  0
  6  3  1  0  0  0  0
  8  7  1  0  0  0  0
  8 17  1  0  0  0  0
  9  4  1  0  0  0  0
  9 12  1  0  0  0  0
 10 14  2  0  0  0  0
 11 15  2  0  0  0  0
 11 16  1  0  0  0  0
 12  8  1  0  0  0  0
 13  1  1  0  0  0  0
 13 22  1  0  0  0  0
 14 27  1  0  0  0  0
 15 10  1  0  0  0  0
 16  2  2  0  0  0  0
 17 16  1  0  0  0  0
 18 24  1  0  0  0  0
 18 20  1  0  0  0  0
 19  4  1  0  0  0  0
 20 11  1  0  0  0  0
 21  8  1  0  0  0  0
 23  7  1  0  0  0  0
 24 21  1  0  0  0  0
 24  5  1  0  0  0  0
 25 26  1  0  0  0  0
 27 25  1  0  0  0  0
 27 26  1  0  0  0  0
 29 28  1  0  0  0  0
 30 20  1  0  0  0  0
 31 32  1  0  0  0  0
 31 30  1  0  0  0  0
M  END
>  <MODEL>
5

>  <REMARK>
 VINA RESULT:      -4.0      1.944      3.028
  Name = 
  4 active torsions:
  status: ('A' for Active; 'I' for Inactive)
    1  A    between atoms: S_1  and  C_4
    2  A    between atoms: S_1  and  C_27
    3  A    between atoms: C_2  and  S_14
    4  A    between atoms: C_19  and  C_26
                            x       y       z     vdW  Elec       q    Type
                         _______ _______ _______ _____ _____    ______ ____

>  <TORSDO>
F 4

$$$$
=
 OpenBabel11052414293D

 32 38  0  0  1  0  0  0  0  0999 V2000
  180.9740  174.8610  136.9280 C   0  0  1  0  0  3  0  0  0  0  0  0
  185.2500  176.3570  137.5550 C   0  0  0  0  0  3  0  0  0  0  0  0
  180.7360  176.3820  137.1090 C   0  0  1  0  0  3  0  0  0  0  0  0
  180.0530  174.2790  139.1880 C   0  0  2  0  0  3  0  0  0  0  0  0
  183.3450  179.2540  138.6960 C   0  0  0  0  0  2  0  0  0  0  0  0
  180.3270  176.8270  138.5520 C   0  0  1  0  0  3  0  0  0  0  0  0
  183.4430  177.5310  140.6050 C   0  0  0  0  0  2  0  0  0  0  0  0
  182.4360  176.7750  139.7260 C   0  0  2  0  0  0  0  0  0  0  0  0
  180.2560  175.7250  139.6380 C   0  0  2  0  0  3  0  0  0  0  0  0
  185.3920  177.3140  135.3510 C   0  0  0  0  0  3  0  0  0  0  0  0
  183.1940  177.0020  136.3920 C   0  0  0  0  0  0  0  0  0  0  0  0
  181.5300  175.8440  140.5030 C   0  0  0  0  0  2  0  0  0  0  0  0
  179.8980  174.0760  137.6870 C   0  0  2  0  0  3  0  0  0  0  0  0
  186.0230  176.7900  136.4770 C   0  0  0  0  0  0  0  0  0  0  0  0
  184.0030  177.4330  135.3220 C   0  0  0  0  0  3  0  0  0  0  0  0
  183.8560  176.4730  137.5420 C   0  0  0  0  0  0  0  0  0  0  0  0
  183.1580  175.8620  138.7140 C   0  0  0  0  0  2  0  0  0  0  0  0
  181.5910  178.8080  136.8950 C   0  0  0  0  0  2  0  0  0  0  0  0
  178.9530  173.7420  139.8610 O   0  0  0  0  0  1  0  0  0  0  0  0
  181.7000  177.3750  136.3440 C   0  0  2  0  0  0  0  0  0  0  0  0
  181.3880  177.7090  139.1570 C   0  0  1  0  0  3  0  0  0  0  0  0
  179.9980  172.5800  137.4100 C   0  0  0  0  0  1  0  0  0  0  0  0
  183.6600  179.0010  140.1780 C   0  0  0  0  0  2  0  0  0  0  0  0
  181.8790  178.9260  138.3850 C   0  0  1  0  0  3  0  0  0  0  0  0
  187.9890  176.8170  137.8100 O   0  0  0  0  0  0  0  0  0  0  0  0
  188.1700  177.8880  136.9190 C   0  0  0  0  0  2  0  0  0  0  0  0
  187.5100  176.6300  136.4990 C   0  0  2  0  0  3  0  0  0  0  0  0
  181.0110  174.3610  135.1680 S   0  0  0  0  0  0  0  0  0  0  0  0
  182.7050  173.7290  135.3100 C   0  0  0  0  0  1  0  0  0  0  0  0
  181.1170  177.5130  134.5940 S   0  0  0  0  0  0  0  0  0  0  0  0
  179.3530  177.7700  134.9690 C   0  0  0  0  0  2  0  0  0  0  0  0
  178.9680  179.1940  134.6300 C   0  0  0  0  0  1  0  0  0  0  0  0
  1 28  1  6  0  0  0
  1  3  1  0  0  0  0
  1 13  1  0  0  0  0
  3  6  1  0  0  0  0
  4  9  1  0  0  0  0
  4 19  1  0  0  0  0
  5 23  1  0  0  0  0
  6 21  1  0  0  0  0
  6  9  1  0  0  0  0
  8 12  1  0  0  0  0
  8  7  1  0  0  0  0
  9 12  1  0  0  0  0
 10 14  1  0  0  0  0
 11 16  2  0  0  0  0
 13  4  1  0  0  0  0
 14 27  1  0  0  0  0
 14  2  2  0  0  0  0
 15 10  2  0  0  0  0
 15 11  1  0  0  0  0
 16  2  1  0  0  0  0
 16 17  1  0  0  0  0
 17  8  1  0  0  0  0
 18 24  1  0  0  0  0
 20 11  1  0  0  0  0
 20 18  1  0  0  0  0
 20  3  1  0  0  0  0
 21  8  1  0  0  0  0
 22 13  1  0  0  0  0
 23  7  1  0  0  0  0
 24  5  1  0  0  0  0
 24 21  1  0  0  0  0
 26 25  1  0  0  0  0
 27 26  1  0  0  0  0
 27 25  1  0  0  0  0
 28 29  1  0  0  0  0
 30 31  1  0  0  0  0
 30 20  1  0  0  0  0
 32 31  1  0  0  0  0
M  END
>  <MODEL>
6

>  <REMARK>
 VINA RESULT:      -3.9      2.014      3.265
  Name = 
  4 active torsions:
  status: ('A' for Active; 'I' for Inactive)
    1  A    between atoms: S_1  and  C_4
    2  A    between atoms: S_1  and  C_27
    3  A    between atoms: C_2  and  S_14
    4  A    between atoms: C_19  and  C_26
                            x       y       z     vdW  Elec       q    Type
                         _______ _______ _______ _____ _____    ______ ____

>  <TORSDO>
F 4

$$$$
=
 OpenBabel11052414293D

 32 38  0  0  1  0  0  0  0  0999 V2000
  187.3400  173.8270  136.5270 C   0  0  1  0  0  3  0  0  0  0  0  0
  188.7410  176.9970  139.5130 C   0  0  0  0  0  3  0  0  0  0  0  0
  188.0170  174.8530  135.5810 C   0  0  1  0  0  3  0  0  0  0  0  0
  185.0170  174.4540  135.8160 C   0  0  2  0  0  3  0  0  0  0  0  0
  189.0560  178.8360  136.3760 C   0  0  0  0  0  2  0  0  0  0  0  0
  187.0460  175.8710  134.8960 C   0  0  1  0  0  3  0  0  0  0  0  0
  186.5970  178.9100  137.1280 C   0  0  0  0  0  2  0  0  0  0  0  0
  186.6060  177.4430  136.6750 C   0  0  2  0  0  0  0  0  0  0  0  0
  185.5460  175.7790  135.2720 C   0  0  2  0  0  3  0  0  0  0  0  0
  191.0480  176.3290  139.3580 C   0  0  0  0  0  3  0  0  0  0  0  0
  189.5250  175.8480  137.4970 C   0  0  0  0  0  0  0  0  0  0  0  0
  185.2450  176.9250  136.2620 C   0  0  0  0  0  2  0  0  0  0  0  0
  186.0360  173.3250  135.8970 C   0  0  2  0  0  3  0  0  0  0  0  0
  190.0190  176.9400  140.0700 C   0  0  0  0  0  0  0  0  0  0  0  0
  190.8050  175.8100  138.0870 C   0  0  0  0  0  3  0  0  0  0  0  0
  188.4810  176.4830  138.2370 C   0  0  0  0  0  0  0  0  0  0  0  0
  187.0460  176.5100  137.8220 C   0  0  0  0  0  2  0  0  0  0  0  0
  189.7850  176.6920  135.1950 C   0  0  0  0  0  2  0  0  0  0  0  0
  183.9170  174.0540  135.0540 O   0  0  0  0  0  1  0  0  0  0  0  0
  189.4180  175.4430  136.0150 C   0  0  2  0  0  0  0  0  0  0  0  0
  187.3360  177.2750  135.3590 C   0  0  1  0  0  3  0  0  0  0  0  0
  185.4160  172.2000  136.7170 C   0  0  0  0  0  1  0  0  0  0  0  0
  187.8290  179.7150  136.6540 C   0  0  0  0  0  2  0  0  0  0  0  0
  188.7580  177.8130  135.2720 C   0  0  1  0  0  3  0  0  0  0  0  0
  191.4830  176.9550  141.9410 O   0  0  0  0  0  0  0  0  0  0  0  0
  190.3090  176.3640  142.4350 C   0  0  0  0  0  2  0  0  0  0  0  0
  190.2670  177.4680  141.4470 C   0  0  2  0  0  3  0  0  0  0  0  0
  188.4370  172.4220  136.9370 S   0  0  0  0  0  0  0  0  0  0  0  0
  188.3050  171.7380  135.2630 C   0  0  0  0  0  1  0  0  0  0  0  0
  190.7250  174.2090  135.5780 S   0  0  0  0  0  0  0  0  0  0  0  0
  191.7700  175.3350  134.5990 C   0  0  0  0  0  2  0  0  0  0  0  0
  193.1710  175.3470  135.1710 C   0  0  0  0  0  1  0  0  0  0  0  0
  1 28  1  6  0  0  0
  2 14  1  0  0  0  0
  3 20  1  0  0  0  0
  3  1  1  0  0  0  0
  4 13  1  0  0  0  0
  5 23  1  0  0  0  0
  6  9  1  0  0  0  0
  6 21  1  0  0  0  0
  6  3  1  0  0  0  0
  8  7  1  0  0  0  0
  8 17  1  0  0  0  0
  9  4  1  0  0  0  0
  9 12  1  0  0  0  0
 10 14  2  0  0  0  0
 11 15  2  0  0  0  0
 11 16  1  0  0  0  0
 12  8  1  0  0  0  0
 13  1  1  0  0  0  0
 13 22  1  0  0  0  0
 14 27  1  0  0  0  0
 15 10  1  0  0  0  0
 16  2  2  0  0  0  0
 17 16  1  0  0  0  0
 18 24  1  0  0  0  0
 18 20  1  0  0  0  0
 19  4  1  0  0  0  0
 20 11  1  0  0  0  0
 21  8  1  0  0  0  0
 23  7  1  0  0  0  0
 24 21  1  0  0  0  0
 24  5  1  0  0  0  0
 25 26  1  0  0  0  0
 27 25  1  0  0  0  0
 27 26  1  0  0  0  0
 29 28  1  0  0  0  0
 30 20  1  0  0  0  0
 31 32  1  0  0  0  0
 31 30  1  0  0  0  0
M  END
>  <MODEL>
7

>  <REMARK>
 VINA RESULT:      -3.7      5.371      7.719
  Name = 
  4 active torsions:
  status: ('A' for Active; 'I' for Inactive)
    1  A    between atoms: S_1  and  C_4
    2  A    between atoms: S_1  and  C_27
    3  A    between atoms: C_2  and  S_14
    4  A    between atoms: C_19  and  C_26
                            x       y       z     vdW  Elec       q    Type
                         _______ _______ _______ _____ _____    ______ ____

>  <TORSDO>
F 4

$$$$
=
 OpenBabel11052414293D

 32 38  0  0  1  0  0  0  0  0999 V2000
  184.5570  177.8200  137.7280 C   0  0  1  0  0  3  0  0  0  0  0  0
  180.8680  180.2400  136.5220 C   0  0  0  0  0  3  0  0  0  0  0  0
  183.4170  176.9160  138.2620 C   0  0  1  0  0  3  0  0  0  0  0  0
  185.2380  178.5970  140.0140 C   0  0  2  0  0  3  0  0  0  0  0  0
  179.3950  177.9060  138.9110 C   0  0  0  0  0  2  0  0  0  0  0  0
  183.0830  177.0900  139.7810 C   0  0  1  0  0  3  0  0  0  0  0  0
  180.4940  179.8330  140.2150 C   0  0  0  0  0  2  0  0  0  0  0  0
  181.7930  179.1310  139.7960 C   0  0  2  0  0  0  0  0  0  0  0  0
  183.8780  178.1660  140.5600 C   0  0  2  0  0  3  0  0  0  0  0  0
  180.3050  178.7520  134.7160 C   0  0  0  0  0  3  0  0  0  0  0  0
  181.6400  177.9170  136.5950 C   0  0  0  0  0  0  0  0  0  0  0  0
  182.9550  179.3920  140.7310 C   0  0  0  0  0  2  0  0  0  0  0  0
  185.6960  177.8770  138.7530 C   0  0  2  0  0  3  0  0  0  0  0  0
  180.2300  180.0130  135.3020 C   0  0  0  0  0  0  0  0  0  0  0  0
  180.9830  177.7210  135.3630 C   0  0  0  0  0  3  0  0  0  0  0  0
  181.5500  179.2150  137.1860 C   0  0  0  0  0  0  0  0  0  0  0  0
  182.2790  179.6350  138.4210 C   0  0  0  0  0  2  0  0  0  0  0  0
  180.9820  176.0780  138.0990 C   0  0  0  0  0  2  0  0  0  0  0  0
  186.1980  178.4600  141.0190 O   0  0  0  0  0  1  0  0  0  0  0  0
  182.1720  176.6660  137.3210 C   0  0  2  0  0  0  0  0  0  0  0  0
  181.6870  177.6290  139.9590 C   0  0  1  0  0  3  0  0  0  0  0  0
  186.9040  178.6270  138.2050 C   0  0  0  0  0  1  0  0  0  0  0  0
  179.2260  178.9750  140.0000 C   0  0  0  0  0  2  0  0  0  0  0  0
  180.5220  176.9290  139.2740 C   0  0  1  0  0  3  0  0  0  0  0  0
  180.1470  182.3570  134.9170 O   0  0  0  0  0  0  0  0  0  0  0  0
  178.9320  182.0760  135.5640 C   0  0  0  0  0  2  0  0  0  0  0  0
  179.5330  181.1310  134.5940 C   0  0  2  0  0  3  0  0  0  0  0  0
  185.1860  177.2690  136.1000 S   0  0  0  0  0  0  0  0  0  0  0  0
  186.0290  175.8390  136.8320 C   0  0  0  0  0  1  0  0  0  0  0  0
  182.6200  175.3470  136.1040 S   0  0  0  0  0  0  0  0  0  0  0  0
  182.3870  173.9290  137.2240 C   0  0  0  0  0  2  0  0  0  0  0  0
  183.6020  173.0290  137.1570 C   0  0  0  0  0  1  0  0  0  0  0  0
  1 28  1  6  0  0  0
  1  3  1  0  0  0  0
  1 13  1  0  0  0  0
  2 16  1  0  0  0  0
  3  6  1  0  0  0  0
  4  9  1  0  0  0  0
  4 19  1  0  0  0  0
  5 24  1  0  0  0  0
  5 23  1  0  0  0  0
  6 21  1  0  0  0  0
  6  9  1  0  0  0  0
  8 21  1  0  0  0  0
  8  7  1  0  0  0  0
  8 12  1  0  0  0  0
  9 12  1  0  0  0  0
 10 14  1  0  0  0  0
 10 15  2  0  0  0  0
 11 16  2  0  0  0  0
 11 20  1  0  0  0  0
 13  4  1  0  0  0  0
 14  2  2  0  0  0  0
 15 11  1  0  0  0  0
 16 17  1  0  0  0  0
 17  8  1  0  0  0  0
 18 24  1  0  0  0  0
 20 18  1  0  0  0  0
 20  3  1  0  0  0  0
 22 13  1  0  0  0  0
 23  7  1  0  0  0  0
 24 21  1  0  0  0  0
 25 26  1  0  0  0  0
 27 25  1  0  0  0  0
 27 14  1  0  0  0  0
 27 26  1  0  0  0  0
 28 29  1  0  0  0  0
 30 31  1  0  0  0  0
 30 20  1  0  0  0  0
 32 31  1  0  0  0  0
M  END
>  <MODEL>
8

>  <REMARK>
 VINA RESULT:      -3.5      2.336      5.491
  Name = 
  4 active torsions:
  status: ('A' for Active; 'I' for Inactive)
    1  A    between atoms: S_1  and  C_4
    2  A    between atoms: S_1  and  C_27
    3  A    between atoms: C_2  and  S_14
    4  A    between atoms: C_19  and  C_26
                            x       y       z     vdW  Elec       q    Type
                         _______ _______ _______ _____ _____    ______ ____

>  <TORSDO>
F 4

$$$$
=
 OpenBabel11052414293D

 32 38  0  0  1  0  0  0  0  0999 V2000
  182.9890  177.2880  139.3660 C   0  0  1  0  0  3  0  0  0  0  0  0
  183.9510  173.3320  137.2810 C   0  0  0  0  0  3  0  0  0  0  0  0
  183.0250  177.7320  137.8810 C   0  0  1  0  0  3  0  0  0  0  0  0
  185.1760  178.3840  139.9210 C   0  0  2  0  0  3  0  0  0  0  0  0
  184.6550  175.7020  134.5950 C   0  0  0  0  0  2  0  0  0  0  0  0
  184.3780  178.3570  137.4040 C   0  0  1  0  0  3  0  0  0  0  0  0
  186.6910  175.6120  136.1660 C   0  0  0  0  0  2  0  0  0  0  0  0
  185.7710  176.4080  137.1020 C   0  0  2  0  0  0  0  0  0  0  0  0
  185.5320  178.4160  138.4360 C   0  0  2  0  0  3  0  0  0  0  0  0
  181.7070  173.0570  136.4540 C   0  0  0  0  0  3  0  0  0  0  0  0
  182.5290  175.3050  136.9880 C   0  0  0  0  0  0  0  0  0  0  0  0
  186.5160  177.2750  138.0950 C   0  0  0  0  0  2  0  0  0  0  0  0
  183.6880  178.3390  140.2370 C   0  0  2  0  0  3  0  0  0  0  0  0
  182.9310  172.5000  136.8180 C   0  0  0  0  0  0  0  0  0  0  0  0
  181.5200  174.4360  136.5220 C   0  0  0  0  0  3  0  0  0  0  0  0
  183.7800  174.7190  137.3520 C   0  0  0  0  0  0  0  0  0  0  0  0
  184.9150  175.4670  137.9750 C   0  0  0  0  0  2  0  0  0  0  0  0
  182.7170  177.1670  135.3820 C   0  0  0  0  0  2  0  0  0  0  0  0
  185.7680  179.4790  140.5550 O   0  0  0  0  0  1  0  0  0  0  0  0
  182.2930  176.8180  136.8200 C   0  0  2  0  0  0  0  0  0  0  0  0
  185.0230  177.4910  136.3530 C   0  0  1  0  0  3  0  0  0  0  0  0
  183.5400  178.0220  141.7210 C   0  0  0  0  0  1  0  0  0  0  0  0
  186.1770  175.5310  134.7100 C   0  0  0  0  0  2  0  0  0  0  0  0
  184.2160  177.0700  135.1330 C   0  0  1  0  0  3  0  0  0  0  0  0
  184.2500  170.7050  135.9940 O   0  0  0  0  0  0  0  0  0  0  0  0
  182.9950  170.5050  135.3950 C   0  0  0  0  0  2  0  0  0  0  0  0
  183.1230  171.0170  136.7790 C   0  0  2  0  0  3  0  0  0  0  0  0
  181.2870  176.9860  139.9660 S   0  0  0  0  0  0  0  0  0  0  0  0
  180.9460  178.7620  140.1070 C   0  0  0  0  0  1  0  0  0  0  0  0
  180.4850  177.2060  136.8700 S   0  0  0  0  0  0  0  0  0  0  0  0
  180.5500  178.6860  135.8090 C   0  0  0  0  0  2  0  0  0  0  0  0
  180.4980  179.9280  136.6720 C   0  0  0  0  0  1  0  0  0  0  0  0
  1 28  1  1  0  0  0
  1 13  1  0  0  0  0
  2 16  1  0  0  0  0
  3  1  1  0  0  0  0
  4 13  1  0  0  0  0
  4 19  1  0  0  0  0
  5 23  1  0  0  0  0
  5 24  1  0  0  0  0
  6  3  1  0  0  0  0
  6  9  1  0  0  0  0
  7  8  1  0  0  0  0
  8 17  1  0  0  0  0
  8 12  1  0  0  0  0
  9  4  1  0  0  0  0
 10 15  2  0  0  0  0
 10 14  1  0  0  0  0
 11 16  2  0  0  0  0
 12  9  1  0  0  0  0
 13 22  1  0  0  0  0
 14  2  2  0  0  0  0
 15 11  1  0  0  0  0
 16 17  1  0  0  0  0
 18 20  1  0  0  0  0
 20 30  1  0  0  0  0
 20 11  1  0  0  0  0
 20  3  1  0  0  0  0
 21  8  1  0  0  0  0
 21  6  1  0  0  0  0
 23  7  1  0  0  0  0
 24 18  1  0  0  0  0
 24 21  1  0  0  0  0
 25 27  1  0  0  0  0
 26 25  1  0  0  0  0
 26 27  1  0  0  0  0
 27 14  1  0  0  0  0
 28 29  1  0  0  0  0
 31 32  1  0  0  0  0
 31 30  1  0  0  0  0
M  END
>  <MODEL>
9

>  <REMARK>
 VINA RESULT:      -3.4      2.136      6.519
  Name = 
  4 active torsions:
  status: ('A' for Active; 'I' for Inactive)
    1  A    between atoms: S_1  and  C_4
    2  A    between atoms: S_1  and  C_27
    3  A    between atoms: C_2  and  S_14
    4  A    between atoms: C_19  and  C_26
                            x       y       z     vdW  Elec       q    Type
                         _______ _______ _______ _____ _____    ______ ____

>  <TORSDO>
F 4

$$$$
