=
 OpenBabel11052413233D

 28 31  0  0  1  0  0  0  0  0999 V2000
  189.8480  177.7170  144.8220 C   0  0  1  0  0  3  0  0  0  0  0  0
  192.1040  175.8140  146.6920 C   0  0  0  0  0  2  0  0  0  0  0  0
  190.7890  176.9050  145.5880 N   0  0  0  0  0  0  0  0  0  0  0  0
  191.7530  175.8320  145.2710 C   0  0  0  0  0  0  0  0  0  0  0  0
  191.1830  176.8300  146.9390 N   0  0  0  0  0  2  0  0  0  0  0  0
  192.1120  175.2110  144.2380 O   0  0  0  0  0  0  0  0  0  0  0  0
  190.4500  178.1720  143.4930 C   0  0  2  0  0  3  0  0  0  0  0  0
  191.1990  179.3390  143.6580 O   0  0  0  0  0  1  0  0  0  0  0  0
  189.3670  178.3940  142.4490 C   0  0  0  0  0  2  0  0  0  0  0  0
  189.6850  177.6430  141.1970 C   0  0  0  0  0  0  0  0  0  0  0  0
  189.5750  176.7470  139.2150 N   0  0  0  0  0  0  0  0  0  0  0  0
  190.7540  176.8370  141.0410 N   0  0  0  0  0  0  0  0  0  0  0  0
  187.6440  178.2760  139.7570 C   0  0  0  0  0  1  0  0  0  0  0  0
  188.9310  177.5820  140.0460 C   0  0  0  0  0  0  0  0  0  0  0  0
  189.1750  176.3570  137.8740 C   0  0  0  0  0  1  0  0  0  0  0  0
  190.6640  176.3090  139.8270 N   0  0  0  0  0  0  0  0  0  0  0  0
  188.5500  176.9630  144.5790 C   0  0  0  0  0  2  0  0  0  0  0  0
  186.0190  177.7360  143.2790 C   0  0  0  0  0  2  0  0  0  0  0  0
  185.2260  178.5890  145.5380 C   0  0  0  0  0  0  0  0  0  0  0  0
  187.4400  177.5840  145.3670 C   0  0  0  0  0  0  0  0  0  0  0  0
  183.6770  178.5210  143.5550 C   0  0  1  0  0  3  0  0  0  0  0  0
  186.2450  178.0060  144.7480 C   0  0  0  0  0  0  0  0  0  0  0  0
  186.6160  178.3640  147.5090 C   0  0  0  0  0  3  0  0  0  0  0  0
  183.9620  179.1280  144.9240 C   0  0  0  0  0  2  0  0  0  0  0  0
  185.4270  178.7760  146.9070 C   0  0  0  0  0  3  0  0  0  0  0  0
  182.6410  179.2100  142.9530 F   0  0  0  0  0  0  0  0  0  0  0  0
  184.9220  178.6140  142.6870 C   0  0  0  0  0  2  0  0  0  0  0  0
  187.6180  177.7710  146.7420 C   0  0  0  0  0  3  0  0  0  0  0  0
  1 17  1  6  0  0  0
  1  3  1  0  0  0  0
  2  5  1  0  0  0  0
  3  5  1  0  0  0  0
  4  3  1  0  0  0  0
  4  2  1  0  0  0  0
  6  4  2  0  0  0  0
  7  8  1  1  0  0  0
  7  1  1  0  0  0  0
  9  7  1  0  0  0  0
 10  9  1  0  0  0  0
 11 16  1  0  0  0  0
 11 14  1  0  0  0  0
 12 10  1  0  0  0  0
 13 14  1  0  0  0  0
 14 10  2  0  0  0  0
 15 11  1  0  0  0  0
 16 12  2  0  0  0  0
 17 20  1  0  0  0  0
 18 22  1  0  0  0  0
 19 25  1  0  0  0  0
 20 28  2  0  0  0  0
 21 26  1  6  0  0  0
 21 24  1  0  0  0  0
 22 20  1  0  0  0  0
 22 19  2  0  0  0  0
 24 19  1  0  0  0  0
 25 23  2  0  0  0  0
 27 18  1  0  0  0  0
 27 21  1  0  0  0  0
 28 23  1  0  0  0  0
M  END
>  <MODEL>
1

>  <REMARK>
 VINA RESULT:      -9.7      0.000      0.000
  Name = 
  6 active torsions:
  status: ('A' for Active; 'I' for Inactive)
    1  A    between atoms: C_1  and  C_2
    2  A    between atoms: C_1  and  C_27
    3  A    between atoms: C_2  and  C_3
    4  A    between atoms: C_10  and  C_17
    5  A    between atoms: N_16  and  C_27
    6  A    between atoms: C_17  and  C_27
                            x       y       z     vdW  Elec       q    Type
                         _______ _______ _______ _____ _____    ______ ____

>  <TORSDO>
F 6

$$$$
=
 OpenBabel11052413233D

 28 31  0  0  1  0  0  0  0  0999 V2000
  188.9700  177.6380  142.4110 C   0  0  1  0  0  3  0  0  0  0  0  0
  191.9440  178.4350  144.0630 C   0  0  0  0  0  2  0  0  0  0  0  0
  190.2120  177.9510  143.1130 N   0  0  0  0  0  0  0  0  0  0  0  0
  191.2990  177.1640  143.7280 C   0  0  0  0  0  0  0  0  0  0  0  0
  190.8950  179.1320  143.4670 N   0  0  0  0  0  2  0  0  0  0  0  0
  191.5560  175.9440  143.8910 O   0  0  0  0  0  0  0  0  0  0  0  0
  189.2390  177.0830  141.0130 C   0  0  2  0  0  3  0  0  0  0  0  0
  190.3830  176.2830  141.0030 O   0  0  0  0  0  1  0  0  0  0  0  0
  189.3810  178.2060  139.9970 C   0  0  0  0  0  2  0  0  0  0  0  0
  188.2580  178.1670  139.0120 C   0  0  0  0  0  0  0  0  0  0  0  0
  187.0920  178.0020  137.1800 N   0  0  0  0  0  0  0  0  0  0  0  0
  186.9880  178.5280  139.2880 N   0  0  0  0  0  0  0  0  0  0  0  0
  189.5300  177.4140  136.9020 C   0  0  0  0  0  1  0  0  0  0  0  0
  188.3300  177.8420  137.6750 C   0  0  0  0  0  0  0  0  0  0  0  0
  186.6570  177.7820  135.8110 C   0  0  0  0  0  1  0  0  0  0  0  0
  186.3020  178.4130  138.1580 N   0  0  0  0  0  0  0  0  0  0  0  0
  188.1260  176.6580  143.2110 C   0  0  0  0  0  2  0  0  0  0  0  0
  188.6890  177.1340  146.0650 C   0  0  0  0  0  2  0  0  0  0  0  0
  186.4360  178.2990  146.2230 C   0  0  0  0  0  0  0  0  0  0  0  0
  187.1550  177.4010  144.0730 C   0  0  0  0  0  0  0  0  0  0  0  0
  188.0370  178.2950  148.1650 C   0  0  1  0  0  3  0  0  0  0  0  0
  187.3870  177.5900  145.4510 C   0  0  0  0  0  0  0  0  0  0  0  0
  185.0380  178.5680  144.2620 C   0  0  0  0  0  3  0  0  0  0  0  0
  186.5920  178.4660  147.7090 C   0  0  0  0  0  2  0  0  0  0  0  0
  185.2640  178.7680  145.6240 C   0  0  0  0  0  3  0  0  0  0  0  0
  188.0810  178.2370  149.5440 F   0  0  0  0  0  0  0  0  0  0  0  0
  188.6060  177.0100  147.5830 C   0  0  0  0  0  2  0  0  0  0  0  0
  185.9790  177.8870  143.4900 C   0  0  0  0  0  3  0  0  0  0  0  0
  1  3  1  0  0  0  0
  1 17  1  1  0  0  0
  3  5  1  0  0  0  0
  3  4  1  0  0  0  0
  4  6  2  0  0  0  0
  4  2  1  0  0  0  0
  5  2  1  0  0  0  0
  7  8  1  1  0  0  0
  7  1  1  0  0  0  0
  9  7  1  0  0  0  0
 10 12  1  0  0  0  0
 10  9  1  0  0  0  0
 11 14  1  0  0  0  0
 11 16  1  0  0  0  0
 13 14  1  0  0  0  0
 14 10  2  0  0  0  0
 15 11  1  0  0  0  0
 16 12  2  0  0  0  0
 17 20  1  0  0  0  0
 18 27  1  0  0  0  0
 19 24  1  0  0  0  0
 20 22  1  0  0  0  0
 21 26  1  1  0  0  0
 22 18  1  0  0  0  0
 22 19  2  0  0  0  0
 23 25  2  0  0  0  0
 24 21  1  0  0  0  0
 25 19  1  0  0  0  0
 27 21  1  0  0  0  0
 28 20  2  0  0  0  0
 28 23  1  0  0  0  0
M  END
>  <MODEL>
2

>  <REMARK>
 VINA RESULT:      -9.2      2.537      3.779
  Name = 
  6 active torsions:
  status: ('A' for Active; 'I' for Inactive)
    1  A    between atoms: C_1  and  C_2
    2  A    between atoms: C_1  and  C_27
    3  A    between atoms: C_2  and  C_3
    4  A    between atoms: C_10  and  C_17
    5  A    between atoms: N_16  and  C_27
    6  A    between atoms: C_17  and  C_27
                            x       y       z     vdW  Elec       q    Type
                         _______ _______ _______ _____ _____    ______ ____

>  <TORSDO>
F 6

$$$$
=
 OpenBabel11052413233D

 28 31  0  0  1  0  0  0  0  0999 V2000
  188.8540  177.7490  143.0570 C   0  0  1  0  0  3  0  0  0  0  0  0
  191.9720  178.6770  144.3320 C   0  0  0  0  0  2  0  0  0  0  0  0
  190.1560  178.1190  143.6040 N   0  0  0  0  0  0  0  0  0  0  0  0
  191.2800  177.3910  144.2270 C   0  0  0  0  0  0  0  0  0  0  0  0
  190.8860  179.3170  143.7370 N   0  0  0  0  0  2  0  0  0  0  0  0
  191.5300  176.1970  144.5300 O   0  0  0  0  0  0  0  0  0  0  0  0
  188.9700  177.2360  141.6230 C   0  0  2  0  0  3  0  0  0  0  0  0
  190.0860  176.4100  141.4770 O   0  0  0  0  0  1  0  0  0  0  0  0
  189.0440  178.3880  140.6330 C   0  0  0  0  0  2  0  0  0  0  0  0
  187.9590  178.2720  139.6120 C   0  0  0  0  0  0  0  0  0  0  0  0
  186.8640  177.9780  137.7520 N   0  0  0  0  0  0  0  0  0  0  0  0
  186.6750  178.6300  139.8190 N   0  0  0  0  0  0  0  0  0  0  0  0
  189.3180  177.4110  137.6000 C   0  0  0  0  0  1  0  0  0  0  0  0
  188.0850  177.8680  138.3020 C   0  0  0  0  0  0  0  0  0  0  0  0
  186.4840  177.6680  136.3850 C   0  0  0  0  0  1  0  0  0  0  0  0
  186.0330  178.4370  138.6740 N   0  0  0  0  0  0  0  0  0  0  0  0
  188.1720  176.7100  143.9320 C   0  0  0  0  0  2  0  0  0  0  0  0
  185.5220  177.7450  143.1550 C   0  0  0  0  0  2  0  0  0  0  0  0
  185.2380  178.5550  145.5470 C   0  0  0  0  0  0  0  0  0  0  0  0
  187.2850  177.3820  144.9330 C   0  0  0  0  0  0  0  0  0  0  0  0
  183.3490  178.7040  143.8900 C   0  0  1  0  0  3  0  0  0  0  0  0
  186.0380  177.9280  144.5630 C   0  0  0  0  0  0  0  0  0  0  0  0
  186.9440  178.1270  147.2150 C   0  0  0  0  0  3  0  0  0  0  0  0
  183.9360  179.2220  145.1990 C   0  0  0  0  0  2  0  0  0  0  0  0
  185.7040  178.6610  146.8600 C   0  0  0  0  0  3  0  0  0  0  0  0
  182.2860  179.5020  143.5150 F   0  0  0  0  0  0  0  0  0  0  0  0
  184.4160  178.7350  142.8070 C   0  0  0  0  0  2  0  0  0  0  0  0
  187.7300  177.4910  146.2550 C   0  0  0  0  0  3  0  0  0  0  0  0
  1  3  1  0  0  0  0
  1 17  1  1  0  0  0
  3  5  1  0  0  0  0
  3  4  1  0  0  0  0
  4  2  1  0  0  0  0
  4  6  2  0  0  0  0
  5  2  1  0  0  0  0
  7  8  1  1  0  0  0
  7  1  1  0  0  0  0
  9  7  1  0  0  0  0
 10 12  1  0  0  0  0
 10  9  1  0  0  0  0
 11 14  1  0  0  0  0
 11 16  1  0  0  0  0
 13 14  1  0  0  0  0
 14 10  2  0  0  0  0
 15 11  1  0  0  0  0
 16 12  2  0  0  0  0
 17 20  1  0  0  0  0
 18 22  1  0  0  0  0
 19 25  1  0  0  0  0
 20 28  2  0  0  0  0
 21 26  1  6  0  0  0
 21 24  1  0  0  0  0
 22 20  1  0  0  0  0
 22 19  2  0  0  0  0
 24 19  1  0  0  0  0
 25 23  2  0  0  0  0
 27 18  1  0  0  0  0
 27 21  1  0  0  0  0
 28 23  1  0  0  0  0
M  END
>  <MODEL>
3

>  <REMARK>
 VINA RESULT:      -9.2      1.839      2.403
  Name = 
  6 active torsions:
  status: ('A' for Active; 'I' for Inactive)
    1  A    between atoms: C_1  and  C_2
    2  A    between atoms: C_1  and  C_27
    3  A    between atoms: C_2  and  C_3
    4  A    between atoms: C_10  and  C_17
    5  A    between atoms: N_16  and  C_27
    6  A    between atoms: C_17  and  C_27
                            x       y       z     vdW  Elec       q    Type
                         _______ _______ _______ _____ _____    ______ ____

>  <TORSDO>
F 6

$$$$
=
 OpenBabel11052413233D

 28 31  0  0  1  0  0  0  0  0999 V2000
  188.0050  177.9510  142.0300 C   0  0  1  0  0  3  0  0  0  0  0  0
  189.8390  177.4280  139.1030 C   0  0  0  0  0  2  0  0  0  0  0  0
  188.7520  177.7330  140.7950 N   0  0  0  0  0  0  0  0  0  0  0  0
  188.5450  178.0590  139.3700 C   0  0  0  0  0  0  0  0  0  0  0  0
  189.9880  177.1460  140.4600 N   0  0  0  0  0  2  0  0  0  0  0  0
  187.6540  178.6270  138.6890 O   0  0  0  0  0  0  0  0  0  0  0  0
  186.5650  178.3780  141.7490 C   0  0  2  0  0  3  0  0  0  0  0  0
  186.4680  179.7660  141.6360 O   0  0  0  0  0  1  0  0  0  0  0  0
  185.6240  177.8780  142.8340 C   0  0  0  0  0  2  0  0  0  0  0  0
  184.2170  178.2830  142.5350 C   0  0  0  0  0  0  0  0  0  0  0  0
  182.1450  178.9270  142.7220 N   0  0  0  0  0  0  0  0  0  0  0  0
  183.6320  178.1740  141.3250 N   0  0  0  0  0  0  0  0  0  0  0  0
  183.4430  179.0030  144.8840 C   0  0  0  0  0  1  0  0  0  0  0  0
  183.2750  178.7510  143.4250 C   0  0  0  0  0  0  0  0  0  0  0  0
  180.8660  179.4060  143.2180 C   0  0  0  0  0  1  0  0  0  0  0  0
  182.3760  178.5750  141.4670 N   0  0  0  0  0  0  0  0  0  0  0  0
  188.0220  176.7070  142.9040 C   0  0  0  0  0  2  0  0  0  0  0  0
  187.2580  177.3800  145.6710 C   0  0  0  0  0  2  0  0  0  0  0  0
  189.7280  177.3390  146.2670 C   0  0  0  0  0  0  0  0  0  0  0  0
  189.0570  176.8460  143.9750 C   0  0  0  0  0  0  0  0  0  0  0  0
  187.9660  177.6110  148.0430 C   0  0  1  0  0  3  0  0  0  0  0  0
  188.7110  177.2190  145.2910 C   0  0  0  0  0  0  0  0  0  0  0  0
  191.3970  176.7660  144.6060 C   0  0  0  0  0  3  0  0  0  0  0  0
  189.4300  177.8060  147.6650 C   0  0  0  0  0  2  0  0  0  0  0  0
  191.0620  177.1250  145.9120 C   0  0  0  0  0  3  0  0  0  0  0  0
  187.7090  178.2560  149.2370 F   0  0  0  0  0  0  0  0  0  0  0  0
  187.0770  178.1880  146.9520 C   0  0  0  0  0  2  0  0  0  0  0  0
  190.3980  176.6280  143.6420 C   0  0  0  0  0  3  0  0  0  0  0  0
  1 17  1  6  0  0  0
  2  4  1  0  0  0  0
  2  5  1  0  0  0  0
  3  1  1  0  0  0  0
  4  3  1  0  0  0  0
  5  3  1  0  0  0  0
  6  4  2  0  0  0  0
  7  8  1  1  0  0  0
  7  1  1  0  0  0  0
  7  9  1  0  0  0  0
 10  9  1  0  0  0  0
 10 14  2  0  0  0  0
 11 15  1  0  0  0  0
 11 14  1  0  0  0  0
 12 16  2  0  0  0  0
 12 10  1  0  0  0  0
 14 13  1  0  0  0  0
 16 11  1  0  0  0  0
 17 20  1  0  0  0  0
 18 27  1  0  0  0  0
 19 24  1  0  0  0  0
 20 22  1  0  0  0  0
 21 26  1  1  0  0  0
 22 18  1  0  0  0  0
 22 19  2  0  0  0  0
 23 25  2  0  0  0  0
 24 21  1  0  0  0  0
 25 19  1  0  0  0  0
 27 21  1  0  0  0  0
 28 20  2  0  0  0  0
 28 23  1  0  0  0  0
M  END
>  <MODEL>
4

>  <REMARK>
 VINA RESULT:      -9.1      3.525      6.123
  Name = 
  6 active torsions:
  status: ('A' for Active; 'I' for Inactive)
    1  A    between atoms: C_1  and  C_2
    2  A    between atoms: C_1  and  C_27
    3  A    between atoms: C_2  and  C_3
    4  A    between atoms: C_10  and  C_17
    5  A    between atoms: N_16  and  C_27
    6  A    between atoms: C_17  and  C_27
                            x       y       z     vdW  Elec       q    Type
                         _______ _______ _______ _____ _____    ______ ____

>  <TORSDO>
F 6

$$$$
=
 OpenBabel11052413233D

 28 31  0  0  1  0  0  0  0  0999 V2000
  188.2530  178.0540  142.5780 C   0  0  1  0  0  3  0  0  0  0  0  0
  191.6050  177.1370  142.2210 C   0  0  0  0  0  2  0  0  0  0  0  0
  189.6590  177.6920  142.4330 N   0  0  0  0  0  0  0  0  0  0  0  0
  190.9360  178.1950  142.9790 C   0  0  0  0  0  0  0  0  0  0  0  0
  190.3750  176.6990  141.7350 N   0  0  0  0  0  2  0  0  0  0  0  0
  191.2890  179.1220  143.7530 O   0  0  0  0  0  0  0  0  0  0  0  0
  187.5860  178.2770  141.2220 C   0  0  2  0  0  3  0  0  0  0  0  0
  188.4650  178.8920  140.3280 O   0  0  0  0  0  1  0  0  0  0  0  0
  186.3220  179.1100  141.3630 C   0  0  0  0  0  2  0  0  0  0  0  0
  185.3470  178.7710  140.2830 C   0  0  0  0  0  0  0  0  0  0  0  0
  183.5520  178.1800  139.2010 N   0  0  0  0  0  0  0  0  0  0  0  0
  185.6690  178.6280  138.9810 N   0  0  0  0  0  0  0  0  0  0  0  0
  183.2050  178.4690  141.6830 C   0  0  0  0  0  1  0  0  0  0  0  0
  184.0080  178.4790  140.4270 C   0  0  0  0  0  0  0  0  0  0  0  0
  182.1970  177.8040  138.8340 C   0  0  0  0  0  1  0  0  0  0  0  0
  184.5590  178.2730  138.3470 N   0  0  0  0  0  0  0  0  0  0  0  0
  187.4970  176.9960  143.3660 C   0  0  0  0  0  2  0  0  0  0  0  0
  188.9970  177.2940  145.8880 C   0  0  0  0  0  2  0  0  0  0  0  0
  186.8990  178.3010  146.9100 C   0  0  0  0  0  0  0  0  0  0  0  0
  186.8590  177.6110  144.5720 C   0  0  0  0  0  0  0  0  0  0  0  0
  189.0720  178.2540  148.1800 C   0  0  1  0  0  3  0  0  0  0  0  0
  187.5480  177.7120  145.7990 C   0  0  0  0  0  0  0  0  0  0  0  0
  184.9010  178.6260  145.5780 C   0  0  0  0  0  3  0  0  0  0  0  0
  187.5530  178.3670  148.2630 C   0  0  0  0  0  2  0  0  0  0  0  0
  185.5780  178.7390  146.7930 C   0  0  0  0  0  3  0  0  0  0  0  0
  189.5910  178.0970  149.4500 F   0  0  0  0  0  0  0  0  0  0  0  0
  189.4470  177.0540  147.3250 C   0  0  0  0  0  2  0  0  0  0  0  0
  185.5390  178.0640  144.4730 C   0  0  0  0  0  3  0  0  0  0  0  0
  1 17  1  6  0  0  0
  2  4  1  0  0  0  0
  3  1  1  0  0  0  0
  3  4  1  0  0  0  0
  4  6  2  0  0  0  0
  5  2  1  0  0  0  0
  5  3  1  0  0  0  0
  7  8  1  6  0  0  0
  7  9  1  0  0  0  0
  7  1  1  0  0  0  0
 10 14  2  0  0  0  0
 10  9  1  0  0  0  0
 11 14  1  0  0  0  0
 12 10  1  0  0  0  0
 14 13  1  0  0  0  0
 15 11  1  0  0  0  0
 16 12  2  0  0  0  0
 16 11  1  0  0  0  0
 17 20  1  0  0  0  0
 18 27  1  0  0  0  0
 19 24  1  0  0  0  0
 20 22  1  0  0  0  0
 21 24  1  0  0  0  0
 21 26  1  1  0  0  0
 22 18  1  0  0  0  0
 22 19  2  0  0  0  0
 23 25  2  0  0  0  0
 25 19  1  0  0  0  0
 27 21  1  0  0  0  0
 28 20  2  0  0  0  0
 28 23  1  0  0  0  0
M  END
>  <MODEL>
5

>  <REMARK>
 VINA RESULT:      -9.1      3.091      4.747
  Name = 
  6 active torsions:
  status: ('A' for Active; 'I' for Inactive)
    1  A    between atoms: C_1  and  C_2
    2  A    between atoms: C_1  and  C_27
    3  A    between atoms: C_2  and  C_3
    4  A    between atoms: C_10  and  C_17
    5  A    between atoms: N_16  and  C_27
    6  A    between atoms: C_17  and  C_27
                            x       y       z     vdW  Elec       q    Type
                         _______ _______ _______ _____ _____    ______ ____

>  <TORSDO>
F 6

$$$$
=
 OpenBabel11052413233D

 28 31  0  0  1  0  0  0  0  0999 V2000
  188.9070  178.2810  142.5690 C   0  0  1  0  0  3  0  0  0  0  0  0
  191.9790  178.5030  144.2190 C   0  0  0  0  0  2  0  0  0  0  0  0
  190.1890  178.3520  143.2640 N   0  0  0  0  0  0  0  0  0  0  0  0
  191.2610  177.3910  143.5920 C   0  0  0  0  0  0  0  0  0  0  0  0
  190.9400  179.3700  143.8840 N   0  0  0  0  0  2  0  0  0  0  0  0
  191.4660  176.1640  143.4110 O   0  0  0  0  0  0  0  0  0  0  0  0
  189.0920  178.1940  141.0550 C   0  0  2  0  0  3  0  0  0  0  0  0
  187.9800  178.7080  140.3850 O   0  0  0  0  0  1  0  0  0  0  0  0
  189.3460  176.7600  140.6160 C   0  0  0  0  0  2  0  0  0  0  0  0
  190.0480  176.7310  139.2980 C   0  0  0  0  0  0  0  0  0  0  0  0
  190.4980  176.5390  137.1760 N   0  0  0  0  0  0  0  0  0  0  0  0
  191.3860  176.8060  139.1440 N   0  0  0  0  0  0  0  0  0  0  0  0
  188.0400  176.3860  137.7210 C   0  0  0  0  0  1  0  0  0  0  0  0
  189.4830  176.5530  138.0540 C   0  0  0  0  0  0  0  0  0  0  0  0
  190.4130  176.3770  135.7350 C   0  0  0  0  0  1  0  0  0  0  0  0
  191.6300  176.6910  137.8450 N   0  0  0  0  0  0  0  0  0  0  0  0
  188.0820  177.1050  143.0660 C   0  0  0  0  0  2  0  0  0  0  0  0
  185.3260  178.0780  142.6810 C   0  0  0  0  0  2  0  0  0  0  0  0
  185.1910  178.4180  145.1950 C   0  0  0  0  0  0  0  0  0  0  0  0
  187.2440  177.5210  144.2330 C   0  0  0  0  0  0  0  0  0  0  0  0
  183.1700  178.7340  143.7300 C   0  0  1  0  0  3  0  0  0  0  0  0
  185.9430  178.0370  144.0590 C   0  0  0  0  0  0  0  0  0  0  0  0
  187.0470  177.8130  146.6320 C   0  0  0  0  0  3  0  0  0  0  0  0
  183.8300  179.0450  145.0680 C   0  0  0  0  0  2  0  0  0  0  0  0
  185.7560  178.3160  146.4690 C   0  0  0  0  0  3  0  0  0  0  0  0
  182.0370  179.5110  143.5840 F   0  0  0  0  0  0  0  0  0  0  0  0
  184.1420  179.0360  142.6000 C   0  0  0  0  0  2  0  0  0  0  0  0
  187.7880  177.4180  145.5180 C   0  0  0  0  0  3  0  0  0  0  0  0
  1 17  1  1  0  0  0
  1  3  1  0  0  0  0
  3  4  1  0  0  0  0
  3  5  1  0  0  0  0
  4  2  1  0  0  0  0
  5  2  1  0  0  0  0
  6  4  2  0  0  0  0
  7  8  1  6  0  0  0
  7  1  1  0  0  0  0
  9  7  1  0  0  0  0
 10  9  1  0  0  0  0
 11 16  1  0  0  0  0
 11 14  1  0  0  0  0
 12 10  1  0  0  0  0
 13 14  1  0  0  0  0
 14 10  2  0  0  0  0
 15 11  1  0  0  0  0
 16 12  2  0  0  0  0
 17 20  1  0  0  0  0
 18 22  1  0  0  0  0
 19 25  1  0  0  0  0
 20 28  2  0  0  0  0
 21 26  1  6  0  0  0
 21 24  1  0  0  0  0
 22 20  1  0  0  0  0
 22 19  2  0  0  0  0
 24 19  1  0  0  0  0
 25 23  2  0  0  0  0
 27 18  1  0  0  0  0
 27 21  1  0  0  0  0
 28 23  1  0  0  0  0
M  END
>  <MODEL>
6

>  <REMARK>
 VINA RESULT:      -8.6      1.698      2.196
  Name = 
  6 active torsions:
  status: ('A' for Active; 'I' for Inactive)
    1  A    between atoms: C_1  and  C_2
    2  A    between atoms: C_1  and  C_27
    3  A    between atoms: C_2  and  C_3
    4  A    between atoms: C_10  and  C_17
    5  A    between atoms: N_16  and  C_27
    6  A    between atoms: C_17  and  C_27
                            x       y       z     vdW  Elec       q    Type
                         _______ _______ _______ _____ _____    ______ ____

>  <TORSDO>
F 6

$$$$
=
 OpenBabel11052413233D

 28 31  0  0  1  0  0  0  0  0999 V2000
  188.9610  178.3110  142.3730 C   0  0  1  0  0  3  0  0  0  0  0  0
  192.0050  178.5820  144.0670 C   0  0  0  0  0  2  0  0  0  0  0  0
  190.2310  178.4020  143.0860 N   0  0  0  0  0  0  0  0  0  0  0  0
  191.3270  177.4650  143.4070 C   0  0  0  0  0  0  0  0  0  0  0  0
  190.9470  179.4270  143.7370 N   0  0  0  0  0  2  0  0  0  0  0  0
  191.5680  176.2480  143.2030 O   0  0  0  0  0  0  0  0  0  0  0  0
  189.1710  178.1580  140.8670 C   0  0  2  0  0  3  0  0  0  0  0  0
  188.0590  178.6200  140.1580 O   0  0  0  0  0  1  0  0  0  0  0  0
  189.4580  176.7110  140.4980 C   0  0  0  0  0  2  0  0  0  0  0  0
  190.2130  176.6380  139.2100 C   0  0  0  0  0  0  0  0  0  0  0  0
  190.7550  176.3500  137.1210 N   0  0  0  0  0  0  0  0  0  0  0  0
  191.5530  176.7530  139.1040 N   0  0  0  0  0  0  0  0  0  0  0  0
  188.2830  176.1370  137.5790 C   0  0  0  0  0  1  0  0  0  0  0  0
  189.7050  176.3740  137.9580 C   0  0  0  0  0  0  0  0  0  0  0  0
  190.7320  176.1090  135.6880 C   0  0  0  0  0  1  0  0  0  0  0  0
  191.8530  176.5780  137.8230 N   0  0  0  0  0  0  0  0  0  0  0  0
  188.1200  177.1620  142.9040 C   0  0  0  0  0  2  0  0  0  0  0  0
  188.6460  177.4100  145.7950 C   0  0  0  0  0  2  0  0  0  0  0  0
  186.2640  178.2530  146.0640 C   0  0  0  0  0  0  0  0  0  0  0  0
  187.0700  177.6810  143.8350 C   0  0  0  0  0  0  0  0  0  0  0  0
  187.8720  178.2550  148.0010 C   0  0  1  0  0  3  0  0  0  0  0  0
  187.2910  177.7560  145.2260 C   0  0  0  0  0  0  0  0  0  0  0  0
  184.8230  178.5410  144.1370 C   0  0  0  0  0  3  0  0  0  0  0  0
  186.4120  178.2850  147.5610 C   0  0  0  0  0  2  0  0  0  0  0  0
  185.0360  178.6270  145.5140 C   0  0  0  0  0  3  0  0  0  0  0  0
  187.9370  178.0610  149.3670 F   0  0  0  0  0  0  0  0  0  0  0  0
  188.5950  177.1210  147.2910 C   0  0  0  0  0  2  0  0  0  0  0  0
  185.8360  178.0690  143.3030 C   0  0  0  0  0  3  0  0  0  0  0  0
  1 17  1  1  0  0  0
  1  3  1  0  0  0  0
  3  4  1  0  0  0  0
  3  5  1  0  0  0  0
  4  2  1  0  0  0  0
  5  2  1  0  0  0  0
  6  4  2  0  0  0  0
  7  8  1  6  0  0  0
  7  1  1  0  0  0  0
  9  7  1  0  0  0  0
 10  9  1  0  0  0  0
 11 16  1  0  0  0  0
 11 14  1  0  0  0  0
 12 10  1  0  0  0  0
 13 14  1  0  0  0  0
 14 10  2  0  0  0  0
 15 11  1  0  0  0  0
 16 12  2  0  0  0  0
 17 20  1  0  0  0  0
 18 27  1  0  0  0  0
 19 24  1  0  0  0  0
 20 22  1  0  0  0  0
 21 26  1  1  0  0  0
 22 18  1  0  0  0  0
 22 19  2  0  0  0  0
 23 25  2  0  0  0  0
 24 21  1  0  0  0  0
 25 19  1  0  0  0  0
 27 21  1  0  0  0  0
 28 20  2  0  0  0  0
 28 23  1  0  0  0  0
M  END
>  <MODEL>
7

>  <REMARK>
 VINA RESULT:      -8.6      2.391      3.539
  Name = 
  6 active torsions:
  status: ('A' for Active; 'I' for Inactive)
    1  A    between atoms: C_1  and  C_2
    2  A    between atoms: C_1  and  C_27
    3  A    between atoms: C_2  and  C_3
    4  A    between atoms: C_10  and  C_17
    5  A    between atoms: N_16  and  C_27
    6  A    between atoms: C_17  and  C_27
                            x       y       z     vdW  Elec       q    Type
                         _______ _______ _______ _____ _____    ______ ____

>  <TORSDO>
F 6

$$$$
=
 OpenBabel11052413233D

 28 31  0  0  1  0  0  0  0  0999 V2000
  188.3920  177.2130  141.1260 C   0  0  1  0  0  3  0  0  0  0  0  0
  190.4830  177.2130  138.3270 C   0  0  0  0  0  2  0  0  0  0  0  0
  189.2500  177.2240  139.9450 N   0  0  0  0  0  0  0  0  0  0  0  0
  189.4120  178.1060  138.7720 C   0  0  0  0  0  0  0  0  0  0  0  0
  190.2920  176.4140  139.4530 N   0  0  0  0  0  2  0  0  0  0  0  0
  188.8710  179.1590  138.3460 O   0  0  0  0  0  0  0  0  0  0  0  0
  189.0960  176.5840  142.3270 C   0  0  2  0  0  3  0  0  0  0  0  0
  188.2360  175.7270  143.0170 O   0  0  0  0  0  1  0  0  0  0  0  0
  189.6320  177.6510  143.2690 C   0  0  0  0  0  2  0  0  0  0  0  0
  190.4640  177.0320  144.3450 C   0  0  0  0  0  0  0  0  0  0  0  0
  191.3120  176.4850  146.2750 N   0  0  0  0  0  0  0  0  0  0  0  0
  191.5680  176.2900  144.1230 N   0  0  0  0  0  0  0  0  0  0  0  0
  189.2440  177.9230  146.4320 C   0  0  0  0  0  1  0  0  0  0  0  0
  190.3030  177.1650  145.7060 C   0  0  0  0  0  0  0  0  0  0  0  0
  191.5770  176.3290  147.6940 C   0  0  0  0  0  1  0  0  0  0  0  0
  192.0600  175.9690  145.3130 N   0  0  0  0  0  0  0  0  0  0  0  0
  187.9220  178.6180  141.4700 C   0  0  0  0  0  2  0  0  0  0  0  0
  186.4040  178.6950  143.9970 C   0  0  0  0  0  2  0  0  0  0  0  0
  184.2740  178.7120  142.6120 C   0  0  0  0  0  0  0  0  0  0  0  0
  186.4270  178.6740  141.4680 C   0  0  0  0  0  0  0  0  0  0  0  0
  184.2030  179.0030  145.1110 C   0  0  1  0  0  3  0  0  0  0  0  0
  185.6870  178.6590  142.6690 C   0  0  0  0  0  0  0  0  0  0  0  0
  184.3670  178.7450  140.1900 C   0  0  0  0  0  3  0  0  0  0  0  0
  183.4300  178.6220  143.8530 C   0  0  0  0  0  2  0  0  0  0  0  0
  183.6270  178.7400  141.3740 C   0  0  0  0  0  3  0  0  0  0  0  0
  183.4520  178.6890  146.2260 F   0  0  0  0  0  0  0  0  0  0  0  0
  185.5180  178.2400  145.1510 C   0  0  0  0  0  2  0  0  0  0  0  0
  185.7600  178.7110  140.2380 C   0  0  0  0  0  3  0  0  0  0  0  0
  1 17  1  1  0  0  0
  1  7  1  0  0  0  0
  2  4  1  0  0  0  0
  2  5  1  0  0  0  0
  3  1  1  0  0  0  0
  4  3  1  0  0  0  0
  5  3  1  0  0  0  0
  6  4  2  0  0  0  0
  7  8  1  1  0  0  0
  7  9  1  0  0  0  0
  9 10  1  0  0  0  0
 10 14  2  0  0  0  0
 11 15  1  0  0  0  0
 12 10  1  0  0  0  0
 12 16  2  0  0  0  0
 14 11  1  0  0  0  0
 14 13  1  0  0  0  0
 16 11  1  0  0  0  0
 18 27  1  0  0  0  0
 19 22  1  0  0  0  0
 19 24  1  0  0  0  0
 20 17  1  0  0  0  0
 20 22  2  0  0  0  0
 21 27  1  0  0  0  0
 21 26  1  1  0  0  0
 22 18  1  0  0  0  0
 23 28  2  0  0  0  0
 23 25  1  0  0  0  0
 24 21  1  0  0  0  0
 25 19  2  0  0  0  0
 28 20  1  0  0  0  0
M  END
>  <MODEL>
8

>  <REMARK>
 VINA RESULT:      -8.4      1.980      5.422
  Name = 
  6 active torsions:
  status: ('A' for Active; 'I' for Inactive)
    1  A    between atoms: C_1  and  C_2
    2  A    between atoms: C_1  and  C_27
    3  A    between atoms: C_2  and  C_3
    4  A    between atoms: C_10  and  C_17
    5  A    between atoms: N_16  and  C_27
    6  A    between atoms: C_17  and  C_27
                            x       y       z     vdW  Elec       q    Type
                         _______ _______ _______ _____ _____    ______ ____

>  <TORSDO>
F 6

$$$$
=
 OpenBabel11052413233D

 28 31  0  0  1  0  0  0  0  0999 V2000
  187.1350  178.2370  142.4810 C   0  0  1  0  0  3  0  0  0  0  0  0
  189.8120  177.1400  140.5230 C   0  0  0  0  0  2  0  0  0  0  0  0
  188.2410  177.7830  141.6440 N   0  0  0  0  0  0  0  0  0  0  0  0
  188.7110  178.0730  140.2750 C   0  0  0  0  0  0  0  0  0  0  0  0
  189.3290  176.9030  141.8080 N   0  0  0  0  0  2  0  0  0  0  0  0
  188.3330  178.8000  139.3200 O   0  0  0  0  0  0  0  0  0  0  0  0
  185.9580  178.7290  141.6400 C   0  0  2  0  0  3  0  0  0  0  0  0
  185.5720  180.0150  142.0240 O   0  0  0  0  0  1  0  0  0  0  0  0
  184.7750  177.7790  141.7440 C   0  0  0  0  0  2  0  0  0  0  0  0
  183.5780  178.3550  141.0610 C   0  0  0  0  0  0  0  0  0  0  0  0
  181.6070  179.1850  140.6490 N   0  0  0  0  0  0  0  0  0  0  0  0
  183.4260  178.4320  139.7230 N   0  0  0  0  0  0  0  0  0  0  0  0
  182.1090  178.9030  143.1060 C   0  0  0  0  0  1  0  0  0  0  0  0
  182.4240  178.8220  141.6510 C   0  0  0  0  0  0  0  0  0  0  0  0
  180.2690  179.7390  140.7620 C   0  0  0  0  0  1  0  0  0  0  0  0
  182.2220  178.9440  139.5030 N   0  0  0  0  0  0  0  0  0  0  0  0
  186.6800  177.1370  143.4270 C   0  0  0  0  0  2  0  0  0  0  0  0
  188.7860  177.2450  145.4880 C   0  0  0  0  0  2  0  0  0  0  0  0
  187.0690  178.2670  147.0590 C   0  0  0  0  0  0  0  0  0  0  0  0
  186.4010  177.7080  144.7820 C   0  0  0  0  0  0  0  0  0  0  0  0
  189.4890  178.0750  147.7240 C   0  0  1  0  0  3  0  0  0  0  0  0
  187.3840  177.7180  145.7940 C   0  0  0  0  0  0  0  0  0  0  0  0
  184.8150  178.7340  146.3010 C   0  0  0  0  0  3  0  0  0  0  0  0
  188.0490  178.2370  148.1990 C   0  0  0  0  0  2  0  0  0  0  0  0
  185.7840  178.7570  147.3050 C   0  0  0  0  0  3  0  0  0  0  0  0
  190.3070  177.8310  148.8090 F   0  0  0  0  0  0  0  0  0  0  0  0
  189.5750  176.9110  146.7490 C   0  0  0  0  0  2  0  0  0  0  0  0
  185.1230  178.2110  145.0460 C   0  0  0  0  0  3  0  0  0  0  0  0
  1 17  1  6  0  0  0
  2  5  1  0  0  0  0
  3  5  1  0  0  0  0
  3  1  1  0  0  0  0
  4  2  1  0  0  0  0
  4  3  1  0  0  0  0
  6  4  2  0  0  0  0
  7  9  1  0  0  0  0
  7  8  1  1  0  0  0
  7  1  1  0  0  0  0
 10 14  2  0  0  0  0
 10  9  1  0  0  0  0
 11 15  1  0  0  0  0
 11 14  1  0  0  0  0
 12 10  1  0  0  0  0
 14 13  1  0  0  0  0
 16 12  2  0  0  0  0
 16 11  1  0  0  0  0
 17 20  1  0  0  0  0
 18 22  1  0  0  0  0
 18 27  1  0  0  0  0
 19 25  1  0  0  0  0
 19 24  1  0  0  0  0
 20 28  2  0  0  0  0
 20 22  1  0  0  0  0
 21 24  1  0  0  0  0
 21 26  1  1  0  0  0
 22 19  2  0  0  0  0
 23 25  2  0  0  0  0
 27 21  1  0  0  0  0
 28 23  1  0  0  0  0
M  END
>  <MODEL>
9

>  <REMARK>
 VINA RESULT:      -8.3      3.754      5.894
  Name = 
  6 active torsions:
  status: ('A' for Active; 'I' for Inactive)
    1  A    between atoms: C_1  and  C_2
    2  A    between atoms: C_1  and  C_27
    3  A    between atoms: C_2  and  C_3
    4  A    between atoms: C_10  and  C_17
    5  A    between atoms: N_16  and  C_27
    6  A    between atoms: C_17  and  C_27
                            x       y       z     vdW  Elec       q    Type
                         _______ _______ _______ _____ _____    ______ ____

>  <TORSDO>
F 6

$$$$
