=
 OpenBabel11052415583D

 34 38  0  0  1  0  0  0  0  0999 V2000
  190.0440  176.2780  143.9730 C   0  0  1  0  0  3  0  0  0  0  0  0
  187.1890  178.1480  145.8140 C   0  0  0  0  0  2  0  0  0  0  0  0
  184.9500  179.1770  143.4100 C   0  0  0  0  0  0  0  0  0  0  0  0
  189.4090  177.5190  146.4480 O   0  0  0  0  0  0  0  0  0  0  0  0
  190.9840  177.3440  141.9510 N   0  0  0  0  0  0  0  0  0  0  0  0
  190.4890  176.0870  142.5170 C   0  0  0  0  0  2  0  0  0  0  0  0
  191.8360  178.1030  144.1210 C   0  0  2  0  0  3  0  0  0  0  0  0
  190.9870  179.2150  144.1670 O   0  0  0  0  0  1  0  0  0  0  0  0
  184.0740  179.8340  144.4240 C   0  0  0  0  0  1  0  0  0  0  0  0
  192.1810  177.7800  142.6710 C   0  0  0  0  0  2  0  0  0  0  0  0
  190.7440  177.2010  146.1880 C   0  0  0  0  0  0  0  0  0  0  0  0
  191.1940  176.8790  144.7980 C   0  0  1  0  0  3  0  0  0  0  0  0
  191.5920  177.2730  147.1160 O   0  0  0  0  0  0  0  0  0  0  0  0
  185.8990  177.6660  145.1690 C   0  0  0  0  0  2  0  0  0  0  0  0
  184.9000  179.5810  142.2180 O   0  0  0  0  0  0  0  0  0  0  0  0
  185.8360  178.1060  143.7760 N   0  0  0  0  0  0  0  0  0  0  0  0
  186.6830  177.5070  142.7380 C   0  0  0  0  0  2  0  0  0  0  0  0
  188.3310  177.1670  145.5780 C   0  0  2  0  0  3  0  0  0  0  0  0
  187.6510  176.4560  143.2720 C   0  0  0  0  0  2  0  0  0  0  0  0
  188.7580  177.1080  144.0980 C   0  0  2  0  0  3  0  0  0  0  0  0
  191.2850  177.2360  140.5120 C   0  0  0  0  0  2  0  0  0  0  0  0
  187.8530  178.4850  139.2230 C   0  0  0  0  0  2  0  0  0  0  0  0
  189.8870  176.5090  138.4750 C   0  0  0  0  0  2  0  0  0  0  0  0
  186.3890  176.1120  135.5350 N   0  0  0  0  0  0  0  0  0  0  0  0
  185.7620  176.9800  136.4900 C   0  0  0  0  0  0  0  0  0  0  0  0
  186.5520  178.0320  137.1970 C   0  0  0  0  0  2  0  0  0  0  0  0
  185.6010  175.1530  134.7800 C   0  0  0  0  0  1  0  0  0  0  0  0
  187.5390  177.4140  138.1780 C   0  0  1  0  0  3  0  0  0  0  0  0
  184.5350  176.8630  136.7470 O   0  0  0  0  0  0  0  0  0  0  0  0
  188.5940  175.7780  136.5240 C   0  0  0  0  0  2  0  0  0  0  0  0
  188.8330  176.9580  137.4630 C   0  0  2  0  0  3  0  0  0  0  0  0
  187.8200  176.1820  135.2790 C   0  0  0  0  0  2  0  0  0  0  0  0
  190.1530  177.5870  139.5230 C   0  0  1  0  0  3  0  0  0  0  0  0
  188.8690  177.9830  140.2380 C   0  0  0  0  0  2  0  0  0  0  0  0
  1  6  1  6  0  0  0
  1 20  1  0  0  0  0
  1 12  1  0  0  0  0
  3 16  1  0  0  0  0
  3  9  1  0  0  0  0
  5  6  1  0  0  0  0
  5 10  1  0  0  0  0
  7  8  1  6  0  0  0
  7 12  1  0  0  0  0
 10  7  1  0  0  0  0
 11  4  1  0  0  0  0
 11 13  2  0  0  0  0
 12 11  1  1  0  0  0
 14  2  1  0  0  0  0
 15  3  2  0  0  0  0
 16 14  1  0  0  0  0
 17 19  1  0  0  0  0
 17 16  1  0  0  0  0
 18  2  1  6  0  0  0
 18  4  1  0  0  0  0
 20 19  1  6  0  0  0
 20 18  1  0  0  0  0
 21  5  1  0  0  0  0
 22 34  1  0  0  0  0
 23 33  1  0  0  0  0
 24 25  1  0  0  0  0
 25 29  2  0  0  0  0
 25 26  1  0  0  0  0
 27 24  1  0  0  0  0
 28 26  1  6  0  0  0
 28 22  1  0  0  0  0
 31 30  1  6  0  0  0
 31 28  1  0  0  0  0
 31 23  1  0  0  0  0
 32 24  1  0  0  0  0
 32 30  1  0  0  0  0
 33 34  1  0  0  0  0
 33 21  1  1  0  0  0
M  END
>  <MODEL>
1

>  <REMARK>
 VINA RESULT:     -10.1      0.000      0.000
  Name = 
  2 active torsions:
  status: ('A' for Active; 'I' for Inactive)
    1  A    between atoms: N_8  and  C_18
    2  A    between atoms: C_18  and  C_30
                            x       y       z     vdW  Elec       q    Type
                         _______ _______ _______ _____ _____    ______ ____

>  <TORSDO>
F 2

$$$$
=
 OpenBabel11052415583D

 34 38  0  0  1  0  0  0  0  0999 V2000
  189.5020  177.1720  136.5890 C   0  0  1  0  0  3  0  0  0  0  0  0
  188.2210  173.6870  135.4720 C   0  0  0  0  0  2  0  0  0  0  0  0
  185.1080  173.2630  136.8790 C   0  0  0  0  0  0  0  0  0  0  0  0
  190.3870  174.7050  135.4930 O   0  0  0  0  0  0  0  0  0  0  0  0
  189.2640  177.7600  138.9780 N   0  0  0  0  0  0  0  0  0  0  0  0
  189.0760  178.2390  137.6060 C   0  0  0  0  0  2  0  0  0  0  0  0
  191.2000  176.3960  138.3440 C   0  0  2  0  0  3  0  0  0  0  0  0
  190.5830  175.1930  138.7020 O   0  0  0  0  0  1  0  0  0  0  0  0
  184.9640  171.8990  136.2900 C   0  0  0  0  0  1  0  0  0  0  0  0
  190.6850  177.5220  139.2350 C   0  0  0  0  0  2  0  0  0  0  0  0
  191.3460  175.6010  135.9720 C   0  0  0  0  0  0  0  0  0  0  0  0
  190.9500  176.7360  136.8630 C   0  0  1  0  0  3  0  0  0  0  0  0
  192.5640  175.3990  135.7240 O   0  0  0  0  0  0  0  0  0  0  0  0
  186.7600  173.8840  135.1010 C   0  0  0  0  0  2  0  0  0  0  0  0
  184.4470  173.5470  137.9130 O   0  0  0  0  0  0  0  0  0  0  0  0
  185.9820  174.2390  136.2860 N   0  0  0  0  0  0  0  0  0  0  0  0
  186.0930  175.5600  136.9170 C   0  0  0  0  0  2  0  0  0  0  0  0
  188.9900  175.0020  135.4360 C   0  0  2  0  0  3  0  0  0  0  0  0
  187.1270  176.4650  136.2570 C   0  0  0  0  0  2  0  0  0  0  0  0
  188.5440  175.9730  136.5470 C   0  0  2  0  0  3  0  0  0  0  0  0
  188.7310  178.6990  139.9810 C   0  0  0  0  0  2  0  0  0  0  0  0
  186.3020  177.8370  142.8720 C   0  0  0  0  0  2  0  0  0  0  0  0
  189.1730  178.2920  142.4860 C   0  0  0  0  0  2  0  0  0  0  0  0
  188.4470  177.6040  146.9620 N   0  0  0  0  0  0  0  0  0  0  0  0
  187.0800  177.7330  146.5460 C   0  0  0  0  0  0  0  0  0  0  0  0
  186.6350  177.2130  145.2180 C   0  0  0  0  0  2  0  0  0  0  0  0
  188.8570  178.0250  148.2910 C   0  0  0  0  0  1  0  0  0  0  0  0
  187.2200  178.0360  144.0790 C   0  0  1  0  0  3  0  0  0  0  0  0
  186.2360  178.2920  147.2950 O   0  0  0  0  0  0  0  0  0  0  0  0
  189.6480  177.9170  144.8620 C   0  0  0  0  0  2  0  0  0  0  0  0
  188.6630  177.5890  143.7430 C   0  0  2  0  0  3  0  0  0  0  0  0
  189.4520  177.0280  146.0790 C   0  0  0  0  0  2  0  0  0  0  0  0
  188.2190  178.1020  141.3100 C   0  0  1  0  0  3  0  0  0  0  0  0
  186.8190  178.5900  141.6560 C   0  0  0  0  0  2  0  0  0  0  0  0
  1 12  1  0  0  0  0
  1  6  1  1  0  0  0
  3 15  2  0  0  0  0
  4 11  1  0  0  0  0
  5 10  1  0  0  0  0
  5 21  1  0  0  0  0
  6  5  1  0  0  0  0
  7  8  1  1  0  0  0
  7 10  1  0  0  0  0
  9  3  1  0  0  0  0
 12 11  1  6  0  0  0
 12  7  1  0  0  0  0
 13 11  2  0  0  0  0
 14  2  1  0  0  0  0
 14 16  1  0  0  0  0
 16  3  1  0  0  0  0
 16 17  1  0  0  0  0
 18  2  1  1  0  0  0
 18  4  1  0  0  0  0
 18 20  1  0  0  0  0
 19 17  1  0  0  0  0
 20 19  1  6  0  0  0
 20  1  1  0  0  0  0
 24 27  1  0  0  0  0
 25 24  1  0  0  0  0
 25 29  2  0  0  0  0
 26 25  1  0  0  0  0
 28 22  1  6  0  0  0
 28 26  1  0  0  0  0
 30 32  1  0  0  0  0
 31 23  1  6  0  0  0
 31 28  1  0  0  0  0
 31 30  1  0  0  0  0
 32 24  1  0  0  0  0
 33 21  1  6  0  0  0
 33 34  1  0  0  0  0
 33 23  1  0  0  0  0
 34 22  1  0  0  0  0
M  END
>  <MODEL>
2

>  <REMARK>
 VINA RESULT:      -9.4      2.902      8.424
  Name = 
  2 active torsions:
  status: ('A' for Active; 'I' for Inactive)
    1  A    between atoms: N_8  and  C_18
    2  A    between atoms: C_18  and  C_30
                            x       y       z     vdW  Elec       q    Type
                         _______ _______ _______ _____ _____    ______ ____

>  <TORSDO>
F 2

$$$$
=
 OpenBabel11052415583D

 34 38  0  0  1  0  0  0  0  0999 V2000
  189.0380  177.7900  136.9010 C   0  0  1  0  0  3  0  0  0  0  0  0
  185.8500  175.9910  135.6200 C   0  0  0  0  0  2  0  0  0  0  0  0
  183.3840  176.5300  137.9610 C   0  0  0  0  0  0  0  0  0  0  0  0
  188.1680  175.8180  135.0500 O   0  0  0  0  0  0  0  0  0  0  0  0
  189.6540  177.4630  139.2720 N   0  0  0  0  0  0  0  0  0  0  0  0
  189.4890  178.4560  138.2080 C   0  0  0  0  0  2  0  0  0  0  0  0
  190.3380  175.7250  137.6830 C   0  0  2  0  0  3  0  0  0  0  0  0
  189.2470  174.9000  137.9770 O   0  0  0  0  0  1  0  0  0  0  0  0
  182.3950  175.7220  137.1900 C   0  0  0  0  0  1  0  0  0  0  0  0
  190.7240  176.5270  138.9210 C   0  0  0  0  0  2  0  0  0  0  0  0
  189.5360  175.9210  135.3170 C   0  0  0  0  0  0  0  0  0  0  0  0
  190.0230  176.6760  136.5130 C   0  0  1  0  0  3  0  0  0  0  0  0
  190.3580  175.2990  134.5950 O   0  0  0  0  0  0  0  0  0  0  0  0
  184.7030  176.9560  135.8740 C   0  0  0  0  0  2  0  0  0  0  0  0
  183.2160  176.6660  139.2020 O   0  0  0  0  0  0  0  0  0  0  0  0
  184.5100  177.1440  137.3110 N   0  0  0  0  0  0  0  0  0  0  0  0
  185.4570  177.9170  138.1230 C   0  0  0  0  0  2  0  0  0  0  0  0
  187.1910  176.7140  135.5840 C   0  0  2  0  0  3  0  0  0  0  0  0
  186.6590  178.4270  137.3360 C   0  0  0  0  0  2  0  0  0  0  0  0
  187.5920  177.2760  136.9630 C   0  0  2  0  0  3  0  0  0  0  0  0
  189.9450  178.0790  140.5790 C   0  0  0  0  0  2  0  0  0  0  0  0
  186.8120  177.6540  142.8150 C   0  0  0  0  0  2  0  0  0  0  0  0
  189.7160  177.8970  143.1380 C   0  0  0  0  0  2  0  0  0  0  0  0
  187.8460  177.6990  147.3210 N   0  0  0  0  0  0  0  0  0  0  0  0
  186.6410  177.8680  146.5610 C   0  0  0  0  0  0  0  0  0  0  0  0
  186.4990  177.2470  145.2110 C   0  0  0  0  0  2  0  0  0  0  0  0
  187.9480  178.2250  148.6720 C   0  0  0  0  0  1  0  0  0  0  0  0
  187.4140  177.9170  144.1950 C   0  0  1  0  0  3  0  0  0  0  0  0
  185.6870  178.5480  147.0230 O   0  0  0  0  0  0  0  0  0  0  0  0
  189.5540  177.7310  145.5780 C   0  0  0  0  0  2  0  0  0  0  0  0
  188.8530  177.3530  144.2760 C   0  0  2  0  0  3  0  0  0  0  0  0
  188.9880  176.9800  146.7730 C   0  0  0  0  0  2  0  0  0  0  0  0
  189.0720  177.6480  141.7760 C   0  0  1  0  0  3  0  0  0  0  0  0
  187.6750  178.2510  141.7140 C   0  0  0  0  0  2  0  0  0  0  0  0
  1 20  1  0  0  0  0
  1  6  1  1  0  0  0
  2 14  1  0  0  0  0
  3 15  2  0  0  0  0
  4 11  1  0  0  0  0
  4 18  1  0  0  0  0
  5 21  1  0  0  0  0
  6  5  1  0  0  0  0
  7  8  1  1  0  0  0
  7 10  1  0  0  0  0
  9  3  1  0  0  0  0
 10  5  1  0  0  0  0
 12 11  1  6  0  0  0
 12  1  1  0  0  0  0
 12  7  1  0  0  0  0
 13 11  2  0  0  0  0
 14 16  1  0  0  0  0
 16  3  1  0  0  0  0
 16 17  1  0  0  0  0
 18  2  1  1  0  0  0
 18 20  1  0  0  0  0
 19 17  1  0  0  0  0
 20 19  1  6  0  0  0
 24 27  1  0  0  0  0
 25 29  2  0  0  0  0
 25 24  1  0  0  0  0
 26 25  1  0  0  0  0
 28 22  1  6  0  0  0
 28 31  1  0  0  0  0
 28 26  1  0  0  0  0
 30 32  1  0  0  0  0
 31 23  1  6  0  0  0
 31 30  1  0  0  0  0
 32 24  1  0  0  0  0
 33 21  1  6  0  0  0
 33 23  1  0  0  0  0
 34 33  1  0  0  0  0
 34 22  1  0  0  0  0
M  END
>  <MODEL>
3

>  <REMARK>
 VINA RESULT:      -9.3      2.536      8.185
  Name = 
  2 active torsions:
  status: ('A' for Active; 'I' for Inactive)
    1  A    between atoms: N_8  and  C_18
    2  A    between atoms: C_18  and  C_30
                            x       y       z     vdW  Elec       q    Type
                         _______ _______ _______ _____ _____    ______ ____

>  <TORSDO>
F 2

$$$$
=
 OpenBabel11052415583D

 34 38  0  0  1  0  0  0  0  0999 V2000
  190.1540  176.2780  143.6870 C   0  0  1  0  0  3  0  0  0  0  0  0
  187.4800  177.9500  145.9440 C   0  0  0  0  0  2  0  0  0  0  0  0
  184.9550  179.0370  143.8720 C   0  0  0  0  0  0  0  0  0  0  0  0
  189.7740  177.3590  146.2860 O   0  0  0  0  0  0  0  0  0  0  0  0
  190.8280  177.4850  141.6370 N   0  0  0  0  0  0  0  0  0  0  0  0
  190.4350  176.1830  142.1810 C   0  0  0  0  0  2  0  0  0  0  0  0
  191.9030  178.1500  143.7390 C   0  0  2  0  0  3  0  0  0  0  0  0
  191.0360  179.2290  143.9440 O   0  0  0  0  0  1  0  0  0  0  0  0
  184.1840  179.6080  145.0150 C   0  0  0  0  0  1  0  0  0  0  0  0
  192.0880  177.9190  142.2420 C   0  0  0  0  0  2  0  0  0  0  0  0
  191.0790  177.1000  145.8590 C   0  0  0  0  0  0  0  0  0  0  0  0
  191.3740  176.8700  144.4100 C   0  0  1  0  0  3  0  0  0  0  0  0
  192.0250  177.1480  146.6880 O   0  0  0  0  0  0  0  0  0  0  0  0
  186.1380  177.4630  145.4210 C   0  0  0  0  0  2  0  0  0  0  0  0
  184.7580  179.5040  142.7180 O   0  0  0  0  0  0  0  0  0  0  0  0
  185.9050  177.9770  144.0720 N   0  0  0  0  0  0  0  0  0  0  0  0
  186.6430  177.4630  142.9120 C   0  0  0  0  0  2  0  0  0  0  0  0
  188.6130  177.0210  145.5240 C   0  0  2  0  0  3  0  0  0  0  0  0
  187.6920  176.4170  143.2710 C   0  0  0  0  0  2  0  0  0  0  0  0
  188.8690  177.0580  144.0040 C   0  0  2  0  0  3  0  0  0  0  0  0
  190.9650  177.4650  140.1700 C   0  0  0  0  0  2  0  0  0  0  0  0
  189.1700  175.5930  137.2940 C   0  0  0  0  0  2  0  0  0  0  0  0
  188.5560  177.6600  139.2820 C   0  0  0  0  0  2  0  0  0  0  0  0
  184.8550  177.1150  136.6270 N   0  0  0  0  0  0  0  0  0  0  0  0
  185.7840  176.3450  135.8510 C   0  0  0  0  0  0  0  0  0  0  0  0
  186.8460  175.5350  136.5190 C   0  0  0  0  0  2  0  0  0  0  0  0
  183.7650  177.8280  135.9810 C   0  0  0  0  0  1  0  0  0  0  0  0
  187.8940  176.4270  137.1700 C   0  0  1  0  0  3  0  0  0  0  0  0
  185.7180  176.3460  134.5940 O   0  0  0  0  0  0  0  0  0  0  0  0
  186.2520  177.8870  138.4730 C   0  0  0  0  0  2  0  0  0  0  0  0
  187.4300  176.9190  138.5610 C   0  0  2  0  0  3  0  0  0  0  0  0
  184.9620  177.1860  138.0780 C   0  0  0  0  0  2  0  0  0  0  0  0
  189.8240  176.8140  139.3600 C   0  0  1  0  0  3  0  0  0  0  0  0
  190.2800  176.3820  137.9730 C   0  0  0  0  0  2  0  0  0  0  0  0
  1  6  1  6  0  0  0
  1 20  1  0  0  0  0
  1 12  1  0  0  0  0
  3 16  1  0  0  0  0
  3  9  1  0  0  0  0
  5  6  1  0  0  0  0
  5 10  1  0  0  0  0
  7  8  1  6  0  0  0
  7 12  1  0  0  0  0
 10  7  1  0  0  0  0
 11  4  1  0  0  0  0
 11 13  2  0  0  0  0
 12 11  1  1  0  0  0
 14  2  1  0  0  0  0
 15  3  2  0  0  0  0
 16 14  1  0  0  0  0
 17 19  1  0  0  0  0
 17 16  1  0  0  0  0
 18  2  1  6  0  0  0
 18  4  1  0  0  0  0
 20 19  1  6  0  0  0
 20 18  1  0  0  0  0
 21  5  1  0  0  0  0
 22 34  1  0  0  0  0
 23 33  1  0  0  0  0
 24 32  1  0  0  0  0
 25 26  1  0  0  0  0
 25 24  1  0  0  0  0
 27 24  1  0  0  0  0
 28 26  1  1  0  0  0
 28 22  1  0  0  0  0
 28 31  1  0  0  0  0
 29 25  2  0  0  0  0
 31 30  1  6  0  0  0
 31 23  1  0  0  0  0
 32 30  1  0  0  0  0
 33 21  1  6  0  0  0
 34 33  1  0  0  0  0
M  END
>  <MODEL>
4

>  <REMARK>
 VINA RESULT:      -9.1      0.984      1.697
  Name = 
  2 active torsions:
  status: ('A' for Active; 'I' for Inactive)
    1  A    between atoms: N_8  and  C_18
    2  A    between atoms: C_18  and  C_30
                            x       y       z     vdW  Elec       q    Type
                         _______ _______ _______ _____ _____    ______ ____

>  <TORSDO>
F 2

$$$$
=
 OpenBabel11052415583D

 34 38  0  0  1  0  0  0  0  0999 V2000
  188.7790  175.4420  137.5920 C   0  0  1  0  0  3  0  0  0  0  0  0
  191.4120  174.7750  134.8240 C   0  0  0  0  0  2  0  0  0  0  0  0
  194.3360  176.2840  135.8350 C   0  0  0  0  0  0  0  0  0  0  0  0
  189.0240  174.6310  134.8810 O   0  0  0  0  0  0  0  0  0  0  0  0
  188.6050  177.7480  138.4650 N   0  0  0  0  0  0  0  0  0  0  0  0
  188.6780  176.3330  138.8370 C   0  0  0  0  0  2  0  0  0  0  0  0
  187.4180  177.2420  136.3800 C   0  0  2  0  0  3  0  0  0  0  0  0
  188.4370  177.7540  135.5700 O   0  0  0  0  0  1  0  0  0  0  0  0
  195.0500  175.8660  134.5940 C   0  0  0  0  0  1  0  0  0  0  0  0
  187.3820  178.0020  137.7020 C   0  0  0  0  0  2  0  0  0  0  0  0
  187.7580  174.9800  135.3580 C   0  0  0  0  0  0  0  0  0  0  0  0
  187.6090  175.7370  136.6400 C   0  0  1  0  0  3  0  0  0  0  0  0
  186.7410  174.7340  134.6580 O   0  0  0  0  0  0  0  0  0  0  0  0
  192.6950  174.4120  135.5550 C   0  0  0  0  0  2  0  0  0  0  0  0
  194.7600  177.2900  136.4650 O   0  0  0  0  0  0  0  0  0  0  0  0
  193.1880  175.5620  136.3110 N   0  0  0  0  0  0  0  0  0  0  0  0
  192.5190  176.0290  137.5320 C   0  0  0  0  0  2  0  0  0  0  0  0
  190.1880  174.5670  135.7070 C   0  0  2  0  0  3  0  0  0  0  0  0
  191.2560  175.2440  137.8720 C   0  0  0  0  0  2  0  0  0  0  0  0
  190.1360  175.5630  136.8830 C   0  0  2  0  0  3  0  0  0  0  0  0
  188.6530  178.6420  139.6350 C   0  0  0  0  0  2  0  0  0  0  0  0
  186.3470  177.8990  142.6570 C   0  0  0  0  0  2  0  0  0  0  0  0
  189.2130  178.1910  142.1080 C   0  0  0  0  0  2  0  0  0  0  0  0
  188.7050  177.5110  146.6160 N   0  0  0  0  0  0  0  0  0  0  0  0
  187.3260  177.7220  146.2790 C   0  0  0  0  0  0  0  0  0  0  0  0
  186.7770  177.2380  144.9780 C   0  0  0  0  0  2  0  0  0  0  0  0
  189.2150  177.8980  147.9210 C   0  0  0  0  0  1  0  0  0  0  0  0
  187.3430  178.0360  143.8100 C   0  0  1  0  0  3  0  0  0  0  0  0
  186.5610  178.3230  147.0790 O   0  0  0  0  0  0  0  0  0  0  0  0
  189.8010  177.7710  144.4510 C   0  0  0  0  0  2  0  0  0  0  0  0
  188.7360  177.5090  143.3900 C   0  0  2  0  0  3  0  0  0  0  0  0
  189.6230  176.8850  145.6740 C   0  0  0  0  0  2  0  0  0  0  0  0
  188.1840  178.0650  140.9880 C   0  0  1  0  0  3  0  0  0  0  0  0
  186.8360  178.6310  141.4170 C   0  0  0  0  0  2  0  0  0  0  0  0
  1  6  1  1  0  0  0
  2 14  1  0  0  0  0
  3 16  1  0  0  0  0
  3 15  2  0  0  0  0
  4 11  1  0  0  0  0
  4 18  1  0  0  0  0
  5  6  1  0  0  0  0
  5 21  1  0  0  0  0
  7  8  1  6  0  0  0
  7 12  1  0  0  0  0
  7 10  1  0  0  0  0
  9  3  1  0  0  0  0
 10  5  1  0  0  0  0
 12 11  1  6  0  0  0
 12  1  1  0  0  0  0
 13 11  2  0  0  0  0
 14 16  1  0  0  0  0
 16 17  1  0  0  0  0
 17 19  1  0  0  0  0
 18  2  1  6  0  0  0
 18 20  1  0  0  0  0
 20  1  1  0  0  0  0
 20 19  1  1  0  0  0
 24 27  1  0  0  0  0
 25 24  1  0  0  0  0
 25 29  2  0  0  0  0
 26 25  1  0  0  0  0
 28 22  1  6  0  0  0
 28 26  1  0  0  0  0
 30 32  1  0  0  0  0
 31 23  1  6  0  0  0
 31 28  1  0  0  0  0
 31 30  1  0  0  0  0
 32 24  1  0  0  0  0
 33 21  1  6  0  0  0
 33 34  1  0  0  0  0
 33 23  1  0  0  0  0
 34 22  1  0  0  0  0
M  END
>  <MODEL>
5

>  <REMARK>
 VINA RESULT:      -8.5      3.291      9.288
  Name = 
  2 active torsions:
  status: ('A' for Active; 'I' for Inactive)
    1  A    between atoms: N_8  and  C_18
    2  A    between atoms: C_18  and  C_30
                            x       y       z     vdW  Elec       q    Type
                         _______ _______ _______ _____ _____    ______ ____

>  <TORSDO>
F 2

$$$$
=
 OpenBabel11052415583D

 34 38  0  0  1  0  0  0  0  0999 V2000
  183.8270  179.1840  139.7150 C   0  0  1  0  0  3  0  0  0  0  0  0
  183.6820  178.3640  143.5030 C   0  0  0  0  0  2  0  0  0  0  0  0
  186.8420  177.3690  144.4360 C   0  0  0  0  0  0  0  0  0  0  0  0
  182.0010  178.6260  141.8190 O   0  0  0  0  0  0  0  0  0  0  0  0
  184.9700  177.5610  138.2420 N   0  0  0  0  0  0  0  0  0  0  0  0
  184.8310  178.9810  138.5720 C   0  0  0  0  0  2  0  0  0  0  0  0
  182.6390  177.0900  138.8380 C   0  0  2  0  0  3  0  0  0  0  0  0
  182.9860  176.2140  139.8730 O   0  0  0  0  0  1  0  0  0  0  0  0
  186.4140  177.1270  145.8450 C   0  0  0  0  0  1  0  0  0  0  0  0
  183.6990  177.0360  137.7430 C   0  0  0  0  0  2  0  0  0  0  0  0
  181.5290  178.5970  140.5040 C   0  0  0  0  0  0  0  0  0  0  0  0
  182.4820  178.5330  139.3530 C   0  0  1  0  0  3  0  0  0  0  0  0
  180.2900  178.5350  140.2910 O   0  0  0  0  0  0  0  0  0  0  0  0
  184.9420  178.9670  144.1030 C   0  0  0  0  0  2  0  0  0  0  0  0
  187.8520  176.7540  143.9990 O   0  0  0  0  0  0  0  0  0  0  0  0
  186.1250  178.2810  143.5870 N   0  0  0  0  0  0  0  0  0  0  0  0
  186.5860  178.4680  142.2060 C   0  0  0  0  0  2  0  0  0  0  0  0
  183.3310  179.0150  142.1700 C   0  0  2  0  0  3  0  0  0  0  0  0
  185.6830  179.3770  141.3800 C   0  0  0  0  0  2  0  0  0  0  0  0
  184.3570  178.6850  141.0670 C   0  0  2  0  0  3  0  0  0  0  0  0
  186.0310  177.3140  137.2500 C   0  0  0  0  0  2  0  0  0  0  0  0
  189.5630  177.8790  138.7350 C   0  0  0  0  0  2  0  0  0  0  0  0
  188.2220  175.9990  136.9270 C   0  0  0  0  0  2  0  0  0  0  0  0
  192.6610  174.8560  137.1080 N   0  0  0  0  0  0  0  0  0  0  0  0
  192.7420  176.1190  137.7830 C   0  0  0  0  0  0  0  0  0  0  0  0
  191.6390  176.5780  138.6780 C   0  0  0  0  0  2  0  0  0  0  0  0
  193.7750  174.3690  136.3120 C   0  0  0  0  0  1  0  0  0  0  0  0
  190.3840  176.9110  137.8820 C   0  0  1  0  0  3  0  0  0  0  0  0
  193.7470  176.8620  137.6240 O   0  0  0  0  0  0  0  0  0  0  0  0
  190.2820  174.7140  136.5830 C   0  0  0  0  0  2  0  0  0  0  0  0
  189.5640  175.6380  137.5630 C   0  0  2  0  0  3  0  0  0  0  0  0
  191.4750  174.0180  137.2190 C   0  0  0  0  0  2  0  0  0  0  0  0
  187.4420  176.9910  137.7860 C   0  0  1  0  0  3  0  0  0  0  0  0
  188.2590  178.2500  138.0460 C   0  0  0  0  0  2  0  0  0  0  0  0
  1  6  1  6  0  0  0
  1 20  1  0  0  0  0
  2 14  1  0  0  0  0
  3  9  1  0  0  0  0
  4 18  1  0  0  0  0
  5  6  1  0  0  0  0
  7 12  1  0  0  0  0
  7  8  1  1  0  0  0
 10  5  1  0  0  0  0
 10  7  1  0  0  0  0
 11  4  1  0  0  0  0
 12  1  1  0  0  0  0
 12 11  1  1  0  0  0
 13 11  2  0  0  0  0
 15  3  2  0  0  0  0
 16 14  1  0  0  0  0
 16  3  1  0  0  0  0
 17 16  1  0  0  0  0
 18  2  1  1  0  0  0
 19 17  1  0  0  0  0
 20 19  1  1  0  0  0
 20 18  1  0  0  0  0
 21  5  1  0  0  0  0
 23 31  1  0  0  0  0
 23 33  1  0  0  0  0
 24 32  1  0  0  0  0
 24 25  1  0  0  0  0
 25 26  1  0  0  0  0
 27 24  1  0  0  0  0
 28 26  1  1  0  0  0
 28 22  1  0  0  0  0
 29 25  2  0  0  0  0
 30 32  1  0  0  0  0
 31 30  1  6  0  0  0
 31 28  1  0  0  0  0
 33 21  1  6  0  0  0
 33 34  1  0  0  0  0
 34 22  1  0  0  0  0
M  END
>  <MODEL>
6

>  <REMARK>
 VINA RESULT:      -8.3      3.063      6.611
  Name = 
  2 active torsions:
  status: ('A' for Active; 'I' for Inactive)
    1  A    between atoms: N_8  and  C_18
    2  A    between atoms: C_18  and  C_30
                            x       y       z     vdW  Elec       q    Type
                         _______ _______ _______ _____ _____    ______ ____

>  <TORSDO>
F 2

$$$$
=
 OpenBabel11052415583D

 34 38  0  0  1  0  0  0  0  0999 V2000
  184.5020  177.1270  136.5540 C   0  0  1  0  0  3  0  0  0  0  0  0
  182.4510  177.1360  139.8450 C   0  0  0  0  0  2  0  0  0  0  0  0
  184.4080  178.6410  142.2430 C   0  0  0  0  0  0  0  0  0  0  0  0
  182.2510  175.9170  137.7950 O   0  0  0  0  0  0  0  0  0  0  0  0
  186.8630  176.4070  136.6870 N   0  0  0  0  0  0  0  0  0  0  0  0
  185.9530  177.4200  136.1480 C   0  0  0  0  0  2  0  0  0  0  0  0
  185.1590  174.6500  136.5350 C   0  0  2  0  0  3  0  0  0  0  0  0
  185.1380  174.4260  137.9160 O   0  0  0  0  0  1  0  0  0  0  0  0
  183.3690  178.4470  143.2970 C   0  0  0  0  0  1  0  0  0  0  0  0
  186.5530  175.0990  136.1090 C   0  0  0  0  0  2  0  0  0  0  0  0
  182.7530  175.3430  136.6240 C   0  0  0  0  0  0  0  0  0  0  0  0
  184.1150  175.7040  136.1220 C   0  0  1  0  0  3  0  0  0  0  0  0
  182.0890  174.4490  136.0360 O   0  0  0  0  0  0  0  0  0  0  0  0
  182.6580  178.5130  140.4550 C   0  0  0  0  0  2  0  0  0  0  0  0
  185.6100  178.7670  142.5990 O   0  0  0  0  0  0  0  0  0  0  0  0
  184.0550  178.6850  140.8510 N   0  0  0  0  0  0  0  0  0  0  0  0
  185.1220  178.8660  139.8590 C   0  0  0  0  0  2  0  0  0  0  0  0
  182.7490  177.1360  138.3510 C   0  0  2  0  0  3  0  0  0  0  0  0
  184.6320  178.7900  138.4170 C   0  0  0  0  0  2  0  0  0  0  0  0
  184.2450  177.3580  138.0500 C   0  0  2  0  0  3  0  0  0  0  0  0
  188.2790  176.7330  136.4410 C   0  0  0  0  0  2  0  0  0  0  0  0
  191.2560  176.7040  138.9180 C   0  0  0  0  0  2  0  0  0  0  0  0
  188.3650  177.1890  138.9750 C   0  0  0  0  0  2  0  0  0  0  0  0
  189.9270  177.4880  143.2770 N   0  0  0  0  0  0  0  0  0  0  0  0
  191.1050  176.9460  142.6640 C   0  0  0  0  0  0  0  0  0  0  0  0
  191.4890  177.3360  141.2740 C   0  0  0  0  0  2  0  0  0  0  0  0
  189.6060  177.1810  144.6600 C   0  0  0  0  0  1  0  0  0  0  0  0
  190.5120  176.7710  140.2520 C   0  0  1  0  0  3  0  0  0  0  0  0
  191.8300  176.1280  143.2900 O   0  0  0  0  0  0  0  0  0  0  0  0
  188.3900  177.6280  141.3860 C   0  0  0  0  0  2  0  0  0  0  0  0
  189.2510  177.6590  140.1270 C   0  0  2  0  0  3  0  0  0  0  0  0
  189.0360  178.3760  142.5420 C   0  0  0  0  0  2  0  0  0  0  0  0
  189.1450  177.1010  137.6650 C   0  0  1  0  0  3  0  0  0  0  0  0
  190.3540  176.1860  137.8090 C   0  0  0  0  0  2  0  0  0  0  0  0
  1  6  1  1  0  0  0
  1 20  1  0  0  0  0
  2 14  1  0  0  0  0
  3 15  2  0  0  0  0
  3  9  1  0  0  0  0
  4 18  1  0  0  0  0
  6  5  1  0  0  0  0
  7  8  1  1  0  0  0
 10  7  1  0  0  0  0
 10  5  1  0  0  0  0
 11  4  1  0  0  0  0
 12  7  1  0  0  0  0
 12  1  1  0  0  0  0
 12 11  1  1  0  0  0
 13 11  2  0  0  0  0
 14 16  1  0  0  0  0
 16  3  1  0  0  0  0
 17 16  1  0  0  0  0
 18  2  1  1  0  0  0
 19 17  1  0  0  0  0
 20 18  1  0  0  0  0
 20 19  1  6  0  0  0
 21  5  1  0  0  0  0
 24 27  1  0  0  0  0
 25 24  1  0  0  0  0
 25 29  2  0  0  0  0
 26 25  1  0  0  0  0
 28 22  1  6  0  0  0
 28 26  1  0  0  0  0
 30 32  1  0  0  0  0
 31 23  1  6  0  0  0
 31 28  1  0  0  0  0
 31 30  1  0  0  0  0
 32 24  1  0  0  0  0
 33 21  1  6  0  0  0
 33 34  1  0  0  0  0
 33 23  1  0  0  0  0
 34 22  1  0  0  0  0
M  END
>  <MODEL>
7

>  <REMARK>
 VINA RESULT:      -8.0      2.224      7.649
  Name = 
  2 active torsions:
  status: ('A' for Active; 'I' for Inactive)
    1  A    between atoms: N_8  and  C_18
    2  A    between atoms: C_18  and  C_30
                            x       y       z     vdW  Elec       q    Type
                         _______ _______ _______ _____ _____    ______ ____

>  <TORSDO>
F 2

$$$$
=
 OpenBabel11052415583D

 34 38  0  0  1  0  0  0  0  0999 V2000
  189.0990  178.5340  142.0930 C   0  0  1  0  0  3  0  0  0  0  0  0
  191.0170  176.4140  139.4720 C   0  0  0  0  0  2  0  0  0  0  0  0
  188.7440  175.5160  137.0490 C   0  0  0  0  0  0  0  0  0  0  0  0
  191.5020  177.0650  141.7240 O   0  0  0  0  0  0  0  0  0  0  0  0
  186.9140  177.6780  142.8700 N   0  0  0  0  0  0  0  0  0  0  0  0
  187.6310  178.8640  142.3950 C   0  0  0  0  0  2  0  0  0  0  0  0
  188.9230  176.7670  143.9400 C   0  0  2  0  0  3  0  0  0  0  0  0
  188.9470  175.6260  143.1290 O   0  0  0  0  0  1  0  0  0  0  0  0
  189.7700  174.7440  136.2890 C   0  0  0  0  0  1  0  0  0  0  0  0
  187.4820  177.2240  144.1400 C   0  0  0  0  0  2  0  0  0  0  0  0
  191.1520  177.4510  143.0200 C   0  0  0  0  0  0  0  0  0  0  0  0
  189.7600  177.9060  143.3300 C   0  0  1  0  0  3  0  0  0  0  0  0
  191.9890  177.3300  143.9520 O   0  0  0  0  0  0  0  0  0  0  0  0
  190.5360  176.9030  138.1160 C   0  0  0  0  0  2  0  0  0  0  0  0
  187.5300  175.2130  136.9000 O   0  0  0  0  0  0  0  0  0  0  0  0
  189.1210  176.5820  137.9360 N   0  0  0  0  0  0  0  0  0  0  0  0
  188.0680  177.2970  138.6670 C   0  0  0  0  0  2  0  0  0  0  0  0
  190.7670  177.4510  140.5610 C   0  0  2  0  0  3  0  0  0  0  0  0
  188.6030  178.3320  139.6500 C   0  0  0  0  0  2  0  0  0  0  0  0
  189.2650  177.6510  140.8470 C   0  0  2  0  0  3  0  0  0  0  0  0
  185.4690  177.9190  143.0330 C   0  0  0  0  0  2  0  0  0  0  0  0
  184.5430  178.9320  139.4110 C   0  0  0  0  0  2  0  0  0  0  0  0
  183.2050  178.5760  141.9960 C   0  0  0  0  0  2  0  0  0  0  0  0
  180.0870  180.0910  138.9920 N   0  0  0  0  0  0  0  0  0  0  0  0
  181.2620  180.2990  138.1970 C   0  0  0  0  0  0  0  0  0  0  0  0
  182.4130  179.3510  138.2750 C   0  0  0  0  0  2  0  0  0  0  0  0
  178.9320  180.9610  138.8460 C   0  0  0  0  0  1  0  0  0  0  0  0
  183.1200  179.4500  139.6200 C   0  0  1  0  0  3  0  0  0  0  0  0
  181.3400  181.2900  137.4230 O   0  0  0  0  0  0  0  0  0  0  0  0
  181.0260  179.1960  141.0600 C   0  0  0  0  0  2  0  0  0  0  0  0
  182.3920  178.6180  140.7020 C   0  0  2  0  0  3  0  0  0  0  0  0
  180.0080  178.9950  139.9480 C   0  0  0  0  0  2  0  0  0  0  0  0
  184.6290  178.0850  141.7480 C   0  0  1  0  0  3  0  0  0  0  0  0
  185.3330  178.9500  140.7110 C   0  0  0  0  0  2  0  0  0  0  0  0
  1  6  1  1  0  0  0
  1 12  1  0  0  0  0
  3 16  1  0  0  0  0
  4 11  1  0  0  0  0
  5 21  1  0  0  0  0
  5 10  1  0  0  0  0
  6  5  1  0  0  0  0
  7  8  1  6  0  0  0
  7 10  1  0  0  0  0
  9  3  1  0  0  0  0
 11 13  2  0  0  0  0
 12 11  1  6  0  0  0
 12  7  1  0  0  0  0
 14  2  1  0  0  0  0
 15  3  2  0  0  0  0
 16 14  1  0  0  0  0
 16 17  1  0  0  0  0
 17 19  1  0  0  0  0
 18  2  1  6  0  0  0
 18 20  1  0  0  0  0
 18  4  1  0  0  0  0
 20 19  1  6  0  0  0
 20  1  1  0  0  0  0
 22 28  1  0  0  0  0
 22 34  1  0  0  0  0
 24 32  1  0  0  0  0
 25 26  1  0  0  0  0
 25 24  1  0  0  0  0
 27 24  1  0  0  0  0
 28 26  1  6  0  0  0
 28 31  1  0  0  0  0
 29 25  2  0  0  0  0
 31 30  1  1  0  0  0
 31 23  1  0  0  0  0
 32 30  1  0  0  0  0
 33 23  1  0  0  0  0
 33 21  1  1  0  0  0
 34 33  1  0  0  0  0
M  END
>  <MODEL>
8

>  <REMARK>
 VINA RESULT:      -8.0      3.420      6.233
  Name = 
  2 active torsions:
  status: ('A' for Active; 'I' for Inactive)
    1  A    between atoms: N_8  and  C_18
    2  A    between atoms: C_18  and  C_30
                            x       y       z     vdW  Elec       q    Type
                         _______ _______ _______ _____ _____    ______ ____

>  <TORSDO>
F 2

$$$$
=
 OpenBabel11052415583D

 34 38  0  0  1  0  0  0  0  0999 V2000
  188.9380  178.5110  142.1400 C   0  0  1  0  0  3  0  0  0  0  0  0
  189.7610  176.6270  138.8510 C   0  0  0  0  0  2  0  0  0  0  0  0
  186.8050  176.2930  137.1200 C   0  0  0  0  0  0  0  0  0  0  0  0
  190.9350  176.9010  140.9190 O   0  0  0  0  0  0  0  0  0  0  0  0
  186.9680  177.7520  143.4240 N   0  0  0  0  0  0  0  0  0  0  0  0
  187.6680  178.9250  142.8960 C   0  0  0  0  0  2  0  0  0  0  0  0
  189.0630  176.5200  143.7470 C   0  0  2  0  0  3  0  0  0  0  0  0
  188.7140  175.5100  142.8440 O   0  0  0  0  0  1  0  0  0  0  0  0
  187.4710  175.5500  136.0100 C   0  0  0  0  0  1  0  0  0  0  0  0
  187.8060  177.0710  144.4120 C   0  0  0  0  0  2  0  0  0  0  0  0
  191.0130  177.1260  142.2960 C   0  0  0  0  0  0  0  0  0  0  0  0
  189.8340  177.6550  143.0490 C   0  0  1  0  0  3  0  0  0  0  0  0
  192.0560  176.7980  142.9210 O   0  0  0  0  0  0  0  0  0  0  0  0
  188.9860  177.3470  137.7590 C   0  0  0  0  0  2  0  0  0  0  0  0
  185.5690  176.1260  137.3010 O   0  0  0  0  0  0  0  0  0  0  0  0
  187.5480  177.1830  137.9690 N   0  0  0  0  0  0  0  0  0  0  0  0
  186.8410  177.8770  139.0520 C   0  0  0  0  0  2  0  0  0  0  0  0
  189.9600  177.5150  140.0740 C   0  0  2  0  0  3  0  0  0  0  0  0
  187.7580  178.7080  139.9440 C   0  0  0  0  0  2  0  0  0  0  0  0
  188.6360  177.8060  140.8100 C   0  0  2  0  0  3  0  0  0  0  0  0
  185.6690  178.0960  144.0300 C   0  0  0  0  0  2  0  0  0  0  0  0
  182.2030  179.3710  142.8630 C   0  0  0  0  0  2  0  0  0  0  0  0
  184.4740  177.8780  141.7600 C   0  0  0  0  0  2  0  0  0  0  0  0
  181.2090  178.0590  138.5420 N   0  0  0  0  0  0  0  0  0  0  0  0
  180.4410  178.5550  139.6480 C   0  0  0  0  0  0  0  0  0  0  0  0
  181.0740  179.4180  140.6890 C   0  0  0  0  0  2  0  0  0  0  0  0
  180.5710  177.2970  137.4810 C   0  0  0  0  0  1  0  0  0  0  0  0
  182.0640  178.6280  141.5340 C   0  0  1  0  0  3  0  0  0  0  0  0
  179.2210  178.2640  139.7560 O   0  0  0  0  0  0  0  0  0  0  0  0
  183.3780  177.6390  139.5790 C   0  0  0  0  0  2  0  0  0  0  0  0
  183.4380  178.5100  140.8310 C   0  0  2  0  0  3  0  0  0  0  0  0
  182.6380  178.3210  138.4390 C   0  0  0  0  0  2  0  0  0  0  0  0
  184.5650  178.6220  143.0890 C   0  0  1  0  0  3  0  0  0  0  0  0
  183.2070  178.6830  143.7760 C   0  0  0  0  0  2  0  0  0  0  0  0
  1  6  1  1  0  0  0
  1 12  1  0  0  0  0
  3 15  2  0  0  0  0
  3 16  1  0  0  0  0
  4 11  1  0  0  0  0
  5 21  1  0  0  0  0
  5 10  1  0  0  0  0
  6  5  1  0  0  0  0
  7  8  1  6  0  0  0
  7 10  1  0  0  0  0
  9  3  1  0  0  0  0
 11 13  2  0  0  0  0
 12 11  1  6  0  0  0
 12  7  1  0  0  0  0
 14 16  1  0  0  0  0
 14  2  1  0  0  0  0
 16 17  1  0  0  0  0
 17 19  1  0  0  0  0
 18  2  1  6  0  0  0
 18 20  1  0  0  0  0
 18  4  1  0  0  0  0
 20 19  1  6  0  0  0
 20  1  1  0  0  0  0
 22 34  1  0  0  0  0
 23 33  1  0  0  0  0
 24 25  1  0  0  0  0
 25 29  2  0  0  0  0
 25 26  1  0  0  0  0
 27 24  1  0  0  0  0
 28 26  1  6  0  0  0
 28 22  1  0  0  0  0
 31 30  1  6  0  0  0
 31 28  1  0  0  0  0
 31 23  1  0  0  0  0
 32 24  1  0  0  0  0
 32 30  1  0  0  0  0
 33 34  1  0  0  0  0
 33 21  1  1  0  0  0
M  END
>  <MODEL>
9

>  <REMARK>
 VINA RESULT:      -7.8      2.994      5.898
  Name = 
  2 active torsions:
  status: ('A' for Active; 'I' for Inactive)
    1  A    between atoms: N_8  and  C_18
    2  A    between atoms: C_18  and  C_30
                            x       y       z     vdW  Elec       q    Type
                         _______ _______ _______ _____ _____    ______ ____

>  <TORSDO>
F 2

$$$$
