=
 OpenBabel11052416323D

 43 46  0  0  1  0  0  0  0  0999 V2000
  187.1920  178.4220  139.4240 N   0  0  0  0  0  0  0  0  0  0  0  0
  187.7370  178.6070  136.1810 C   0  0  0  0  0  1  0  0  0  0  0  0
  185.6670  176.2630  136.3220 N   0  0  0  0  0  0  0  0  0  0  0  0
  186.6920  177.9380  138.3390 C   0  0  0  0  0  0  0  0  0  0  0  0
  182.8870  176.0240  135.9200 C   0  0  0  0  0  0  0  0  0  0  0  0
  183.3120  176.9570  136.7970 C   0  0  0  0  0  0  0  0  0  0  0  0
  181.4360  175.7320  135.7210 C   0  0  0  0  0  1  0  0  0  0  0  0
  185.2130  177.7510  138.2540 C   0  0  0  0  0  2  0  0  0  0  0  0
  184.7860  177.3290  136.8520 C   0  0  1  0  0  3  0  0  0  0  0  0
  185.1550  175.3530  135.3360 C   0  0  0  0  0  3  0  0  0  0  0  0
  187.0720  176.2710  136.5250 N   0  0  0  0  0  0  0  0  0  0  0  0
  187.5690  177.4880  137.1920 C   0  0  1  0  0  3  0  0  0  0  0  0
  183.8480  175.2360  135.1330 C   0  0  0  0  0  3  0  0  0  0  0  0
  187.5120  175.0540  137.2320 C   0  0  0  0  0  2  0  0  0  0  0  0
  189.9810  173.0330  135.1650 C   0  0  0  0  0  3  0  0  0  0  0  0
  191.1930  173.3570  135.7820 C   0  0  0  0  0  0  0  0  0  0  0  0
  190.0110  174.8210  137.3140 C   0  0  0  0  0  3  0  0  0  0  0  0
  188.7860  173.5900  135.6290 C   0  0  0  0  0  3  0  0  0  0  0  0
  188.7950  174.4700  136.7190 C   0  0  0  0  0  0  0  0  0  0  0  0
  191.2030  174.2660  136.8520 C   0  0  0  0  0  3  0  0  0  0  0  0
  192.3670  172.7660  135.3160 O   0  0  0  0  0  0  0  0  0  0  0  0
  192.5520  171.3580  135.2700 C   0  0  0  0  0  1  0  0  0  0  0  0
  182.3140  177.7770  137.5730 C   0  0  0  0  0  2  0  0  0  0  0  0
  181.7480  178.9200  136.7340 C   0  0  0  0  0  2  0  0  0  0  0  0
  181.2900  180.0900  137.5940 C   0  0  0  0  0  2  0  0  0  0  0  0
  182.3140  180.3840  138.6750 C   0  0  0  0  0  1  0  0  0  0  0  0
  188.6150  178.5680  139.6290 C   0  0  0  0  0  2  0  0  0  0  0  0
  189.1050  177.6350  140.7260 C   0  0  1  0  0  3  0  0  0  0  0  0
  190.3140  176.8520  140.2460 C   0  0  0  0  0  1  0  0  0  0  0  0
  189.4900  178.4400  141.8820 N   0  0  0  0  0  2  0  0  0  0  0  0
  189.0950  177.8000  143.1420 C   0  0  1  0  0  3  0  0  0  0  0  0
  186.9010  177.2300  144.0840 C   0  0  0  0  0  2  0  0  0  0  0  0
  186.7240  177.6890  142.7630 O   0  0  0  0  0  0  0  0  0  0  0  0
  187.8660  176.9000  143.0060 C   0  0  1  0  0  3  0  0  0  0  0  0
  190.4650  176.9490  143.9330 S   0  0  0  0  0  0  0  0  0  0  0  0
  190.5570  175.5360  143.4210 O   0  0  0  0  0  0  0  0  0  0  0  0
  191.7470  177.6720  143.6230 O   0  0  0  0  0  0  0  0  0  0  0  0
  190.2400  176.9210  145.7040 C   0  0  2  0  0  3  0  0  0  0  0  0
  188.9440  177.6880  147.3270 C   0  0  0  0  0  1  0  0  0  0  0  0
  189.5300  178.0510  146.1140 O   0  0  0  0  0  0  0  0  0  0  0  0
  191.6010  176.8670  146.3960 C   0  0  0  0  0  2  0  0  0  0  0  0
  191.9630  175.4400  146.7880 C   0  0  0  0  0  2  0  0  0  0  0  0
  193.0820  175.4490  147.6210 O   0  0  0  0  0  1  0  0  0  0  0  0
  1 27  1  0  0  0  0
  3 11  1  0  0  0  0
  3  9  1  0  0  0  0
  4  1  2  0  0  0  0
  5  6  2  0  0  0  0
  6  9  1  0  0  0  0
  6 23  1  0  0  0  0
  7  5  1  0  0  0  0
  8  4  1  0  0  0  0
  9  8  1  1  0  0  0
 10  3  1  0  0  0  0
 11 12  1  0  0  0  0
 11 14  1  0  0  0  0
 12  2  1  6  0  0  0
 12  4  1  0  0  0  0
 13 10  2  0  0  0  0
 13  5  1  0  0  0  0
 15 18  2  0  0  0  0
 15 16  1  0  0  0  0
 16 20  2  0  0  0  0
 18 19  1  0  0  0  0
 19 14  1  0  0  0  0
 19 17  2  0  0  0  0
 20 17  1  0  0  0  0
 21 16  1  0  0  0  0
 22 21  1  0  0  0  0
 24 23  1  0  0  0  0
 24 25  1  0  0  0  0
 25 26  1  0  0  0  0
 27 28  1  0  0  0  0
 28 29  1  6  0  0  0
 28 30  1  0  0  0  0
 31 30  1  6  0  0  0
 31 35  1  0  0  0  0
 33 34  1  0  0  0  0
 33 32  1  0  0  0  0
 34 31  1  1  0  0  0
 34 32  1  0  0  0  0
 35 38  1  0  0  0  0
 36 35  2  0  0  0  0
 37 35  2  0  0  0  0
 38 40  1  0  0  0  0
 38 41  1  1  0  0  0
 40 39  1  0  0  0  0
 41 42  1  0  0  0  0
 42 43  1  0  0  0  0
M  END
>  <MODEL>
1

>  <REMARK>
 VINA RESULT:      -6.0      0.000      0.000
  Name = 
  16 active torsions:
  status: ('A' for Active; 'I' for Inactive)
    1  A    between atoms: C_1  and  N_34
    2  A    between atoms: C_1  and  C_35
    3  A    between atoms: N_2  and  C_6
    4  A    between atoms: N_3  and  C_4
    5  A    between atoms: N_3  and  C_12
    6  A    between atoms: C_4  and  S_14
    7  A    between atoms: C_4  and  C_42
    8  A    between atoms: C_5  and  C_18
    9  A    between atoms: C_6  and  C_12
   10  A    between atoms: C_11  and  S_14
   11  A    between atoms: C_11  and  O_36
   12  A    between atoms: C_11  and  C_40
   13  A    between atoms: C_18  and  C_24
   14  A    between atoms: C_19  and  O_25
   15  A    between atoms: C_21  and  C_24
   16  A    between atoms: C_26  and  C_40
                            x       y       z     vdW  Elec       q    Type
                         _______ _______ _______ _____ _____    ______ ____

>  <TORSDO>
F 16

$$$$
=
 OpenBabel11052416323D

 43 46  0  0  1  0  0  0  0  0999 V2000
  185.7890  178.7000  140.8590 N   0  0  0  0  0  0  0  0  0  0  0  0
  188.7170  180.1070  141.4030 C   0  0  0  0  0  1  0  0  0  0  0  0
  189.5780  177.3190  140.2710 N   0  0  0  0  0  0  0  0  0  0  0  0
  187.0290  178.4690  140.5910 C   0  0  0  0  0  0  0  0  0  0  0  0
  190.4210  176.3530  137.7610 C   0  0  0  0  0  0  0  0  0  0  0  0
  189.2550  177.0290  137.8090 C   0  0  0  0  0  0  0  0  0  0  0  0
  190.9010  175.6980  136.5070 C   0  0  0  0  0  1  0  0  0  0  0  0
  187.3740  177.8590  139.2720 C   0  0  0  0  0  2  0  0  0  0  0  0
  188.8830  177.8110  139.0600 C   0  0  1  0  0  3  0  0  0  0  0  0
  190.8530  176.6720  140.1370 C   0  0  0  0  0  3  0  0  0  0  0  0
  189.1860  177.7060  141.5790 N   0  0  0  0  0  0  0  0  0  0  0  0
  188.1220  178.7260  141.6040 C   0  0  1  0  0  3  0  0  0  0  0  0
  191.2650  176.2180  138.9580 C   0  0  0  0  0  3  0  0  0  0  0  0
  188.8210  176.5310  142.3920 C   0  0  0  0  0  2  0  0  0  0  0  0
  186.7340  177.2500  145.4880 C   0  0  0  0  0  3  0  0  0  0  0  0
  187.7250  177.4860  146.4450 C   0  0  0  0  0  0  0  0  0  0  0  0
  189.4300  177.0570  144.7720 C   0  0  0  0  0  3  0  0  0  0  0  0
  187.0880  176.9310  144.1740 C   0  0  0  0  0  3  0  0  0  0  0  0
  188.4380  176.8530  143.8070 C   0  0  0  0  0  0  0  0  0  0  0  0
  189.0770  177.3740  146.0820 C   0  0  0  0  0  3  0  0  0  0  0  0
  187.3440  177.8290  147.7420 O   0  0  0  0  0  0  0  0  0  0  0  0
  188.2780  177.9900  148.8000 C   0  0  0  0  0  1  0  0  0  0  0  0
  188.4170  177.1850  136.5650 C   0  0  0  0  0  2  0  0  0  0  0  0
  187.1090  176.4050  136.6650 C   0  0  0  0  0  2  0  0  0  0  0  0
  187.3410  174.9010  136.7290 C   0  0  0  0  0  2  0  0  0  0  0  0
  186.0770  174.1910  137.1770 C   0  0  0  0  0  1  0  0  0  0  0  0
  185.3520  179.2150  142.1360 C   0  0  0  0  0  2  0  0  0  0  0  0
  183.9750  178.6780  142.4950 C   0  0  1  0  0  3  0  0  0  0  0  0
  183.6610  178.9770  143.9510 C   0  0  0  0  0  1  0  0  0  0  0  0
  182.9830  179.3410  141.6520 N   0  0  0  0  0  2  0  0  0  0  0  0
  181.8370  178.4670  141.3780 C   0  0  1  0  0  3  0  0  0  0  0  0
  179.8730  178.7960  142.8130 C   0  0  0  0  0  2  0  0  0  0  0  0
  180.5160  180.0370  142.6300 O   0  0  0  0  0  0  0  0  0  0  0  0
  180.4870  179.1740  141.5170 C   0  0  1  0  0  3  0  0  0  0  0  0
  181.9890  177.6180  139.8030 S   0  0  0  0  0  0  0  0  0  0  0  0
  182.7220  176.3150  139.9880 O   0  0  0  0  0  0  0  0  0  0  0  0
  180.6190  177.3390  139.2510 O   0  0  0  0  0  0  0  0  0  0  0  0
  182.8790  178.6320  138.6330 C   0  0  2  0  0  3  0  0  0  0  0  0
  181.8070  180.5290  138.2370 C   0  0  0  0  0  1  0  0  0  0  0  0
  181.9850  179.2350  137.7460 O   0  0  0  0  0  0  0  0  0  0  0  0
  183.8890  177.7770  137.8720 C   0  0  0  0  0  2  0  0  0  0  0  0
  183.3120  177.2890  136.5490 C   0  0  0  0  0  2  0  0  0  0  0  0
  182.9570  175.9450  136.6560 O   0  0  0  0  0  1  0  0  0  0  0  0
  1 27  1  0  0  0  0
  3 11  1  0  0  0  0
  4  1  2  0  0  0  0
  4 12  1  0  0  0  0
  5  6  2  0  0  0  0
  5 13  1  0  0  0  0
  6  9  1  0  0  0  0
  7  5  1  0  0  0  0
  8  4  1  0  0  0  0
  9  8  1  1  0  0  0
  9  3  1  0  0  0  0
 10  3  1  0  0  0  0
 11 12  1  0  0  0  0
 11 14  1  0  0  0  0
 12  2  1  6  0  0  0
 13 10  2  0  0  0  0
 14 19  1  0  0  0  0
 15 16  1  0  0  0  0
 16 21  1  0  0  0  0
 17 20  1  0  0  0  0
 18 15  2  0  0  0  0
 19 18  1  0  0  0  0
 19 17  2  0  0  0  0
 20 16  2  0  0  0  0
 21 22  1  0  0  0  0
 23 24  1  0  0  0  0
 23  6  1  0  0  0  0
 24 25  1  0  0  0  0
 25 26  1  0  0  0  0
 27 28  1  0  0  0  0
 28 29  1  1  0  0  0
 30 28  1  0  0  0  0
 31 30  1  6  0  0  0
 33 32  1  0  0  0  0
 34 31  1  1  0  0  0
 34 33  1  0  0  0  0
 34 32  1  0  0  0  0
 35 36  2  0  0  0  0
 35 31  1  0  0  0  0
 37 35  2  0  0  0  0
 38 41  1  6  0  0  0
 38 35  1  0  0  0  0
 40 39  1  0  0  0  0
 40 38  1  0  0  0  0
 42 43  1  0  0  0  0
 42 41  1  0  0  0  0
M  END
>  <MODEL>
2

>  <REMARK>
 VINA RESULT:      -5.9      3.422      8.779
  Name = 
  16 active torsions:
  status: ('A' for Active; 'I' for Inactive)
    1  A    between atoms: C_1  and  N_34
    2  A    between atoms: C_1  and  C_35
    3  A    between atoms: N_2  and  C_6
    4  A    between atoms: N_3  and  C_4
    5  A    between atoms: N_3  and  C_12
    6  A    between atoms: C_4  and  S_14
    7  A    between atoms: C_4  and  C_42
    8  A    between atoms: C_5  and  C_18
    9  A    between atoms: C_6  and  C_12
   10  A    between atoms: C_11  and  S_14
   11  A    between atoms: C_11  and  O_36
   12  A    between atoms: C_11  and  C_40
   13  A    between atoms: C_18  and  C_24
   14  A    between atoms: C_19  and  O_25
   15  A    between atoms: C_21  and  C_24
   16  A    between atoms: C_26  and  C_40
                            x       y       z     vdW  Elec       q    Type
                         _______ _______ _______ _____ _____    ______ ____

>  <TORSDO>
F 16

$$$$
=
 OpenBabel11052416323D

 43 46  0  0  1  0  0  0  0  0999 V2000
  186.8400  178.6920  143.4860 N   0  0  0  0  0  0  0  0  0  0  0  0
  187.5380  175.4870  143.1970 C   0  0  0  0  0  1  0  0  0  0  0  0
  190.2270  176.5970  144.3520 N   0  0  0  0  0  0  0  0  0  0  0  0
  187.7710  177.8770  143.8480 C   0  0  0  0  0  0  0  0  0  0  0  0
  191.4120  176.7050  146.9070 C   0  0  0  0  0  0  0  0  0  0  0  0
  190.1660  177.2060  146.7770 C   0  0  0  0  0  0  0  0  0  0  0  0
  192.1770  176.8190  148.1850 C   0  0  0  0  0  1  0  0  0  0  0  0
  188.4140  178.0740  145.1810 C   0  0  0  0  0  2  0  0  0  0  0  0
  189.3680  176.9310  145.5120 C   0  0  1  0  0  3  0  0  0  0  0  0
  191.5120  175.9990  144.5780 C   0  0  0  0  0  3  0  0  0  0  0  0
  189.7290  176.5750  143.0230 N   0  0  0  0  0  0  0  0  0  0  0  0
  188.2730  176.7860  142.9290 C   0  0  1  0  0  3  0  0  0  0  0  0
  192.0790  176.0380  145.7790 C   0  0  0  0  0  3  0  0  0  0  0  0
  190.4650  177.5230  142.1660 C   0  0  0  0  0  2  0  0  0  0  0  0
  188.8070  178.3050  138.8350 C   0  0  0  0  0  3  0  0  0  0  0  0
  189.3700  177.3290  138.0070 C   0  0  0  0  0  0  0  0  0  0  0  0
  190.6780  176.5080  139.8790 C   0  0  0  0  0  3  0  0  0  0  0  0
  189.1690  178.3750  140.1830 C   0  0  0  0  0  3  0  0  0  0  0  0
  190.0900  177.4630  140.7140 C   0  0  0  0  0  0  0  0  0  0  0  0
  190.3180  176.4380  138.5340 C   0  0  0  0  0  3  0  0  0  0  0  0
  188.9710  177.2650  136.6720 O   0  0  0  0  0  0  0  0  0  0  0  0
  189.8440  176.8540  135.6290 C   0  0  0  0  0  1  0  0  0  0  0  0
  189.4850  177.8600  147.9520 C   0  0  0  0  0  2  0  0  0  0  0  0
  188.0640  177.3380  148.1420 C   0  0  0  0  0  2  0  0  0  0  0  0
  187.0750  178.4600  148.4320 C   0  0  0  0  0  2  0  0  0  0  0  0
  186.0540  178.5640  147.3140 C   0  0  0  0  0  1  0  0  0  0  0  0
  186.2130  178.6300  142.1860 C   0  0  0  0  0  2  0  0  0  0  0  0
  184.7330  178.2990  142.3120 C   0  0  1  0  0  3  0  0  0  0  0  0
  184.3250  178.2760  143.7740 C   0  0  0  0  0  1  0  0  0  0  0  0
  183.9660  179.3340  141.6230 N   0  0  0  0  0  2  0  0  0  0  0  0
  183.0370  178.7570  140.6440 C   0  0  1  0  0  3  0  0  0  0  0  0
  180.8140  177.8240  141.1000 C   0  0  0  0  0  2  0  0  0  0  0  0
  181.2150  178.6040  142.2040 O   0  0  0  0  0  0  0  0  0  0  0  0
  181.5710  179.0880  140.9300 C   0  0  1  0  0  3  0  0  0  0  0  0
  183.4970  179.1540  138.9540 S   0  0  0  0  0  0  0  0  0  0  0  0
  182.3770  179.9000  138.2770 O   0  0  0  0  0  0  0  0  0  0  0  0
  184.7300  180.0140  138.9610 O   0  0  0  0  0  0  0  0  0  0  0  0
  183.8480  177.6620  138.0390 C   0  0  2  0  0  3  0  0  0  0  0  0
  182.3360  176.0490  138.1660 C   0  0  0  0  0  1  0  0  0  0  0  0
  183.4830  176.5430  138.7900 O   0  0  0  0  0  0  0  0  0  0  0  0
  185.3340  177.6070  137.6910 C   0  0  0  0  0  2  0  0  0  0  0  0
  185.5780  176.7620  136.4470 C   0  0  0  0  0  2  0  0  0  0  0  0
  185.8460  175.4440  136.8170 O   0  0  0  0  0  1  0  0  0  0  0  0
  1  4  2  0  0  0  0
  3 10  1  0  0  0  0
  3  9  1  0  0  0  0
  4  8  1  0  0  0  0
  5  7  1  0  0  0  0
  6  5  2  0  0  0  0
  6 23  1  0  0  0  0
  9  8  1  6  0  0  0
  9  6  1  0  0  0  0
 10 13  2  0  0  0  0
 11  3  1  0  0  0  0
 12 11  1  0  0  0  0
 12  2  1  1  0  0  0
 12  4  1  0  0  0  0
 13  5  1  0  0  0  0
 14 11  1  0  0  0  0
 15 18  1  0  0  0  0
 16 20  1  0  0  0  0
 16 15  2  0  0  0  0
 17 19  1  0  0  0  0
 18 19  2  0  0  0  0
 19 14  1  0  0  0  0
 20 17  2  0  0  0  0
 21 16  1  0  0  0  0
 22 21  1  0  0  0  0
 23 24  1  0  0  0  0
 24 25  1  0  0  0  0
 26 25  1  0  0  0  0
 27 28  1  0  0  0  0
 27  1  1  0  0  0  0
 28 29  1  1  0  0  0
 30 28  1  0  0  0  0
 31 30  1  1  0  0  0
 32 33  1  0  0  0  0
 34 31  1  1  0  0  0
 34 32  1  0  0  0  0
 34 33  1  0  0  0  0
 35 37  2  0  0  0  0
 35 31  1  0  0  0  0
 36 35  2  0  0  0  0
 38 41  1  1  0  0  0
 38 40  1  0  0  0  0
 38 35  1  0  0  0  0
 39 40  1  0  0  0  0
 42 43  1  0  0  0  0
 42 41  1  0  0  0  0
M  END
>  <MODEL>
3

>  <REMARK>
 VINA RESULT:      -5.9      4.181      9.027
  Name = 
  16 active torsions:
  status: ('A' for Active; 'I' for Inactive)
    1  A    between atoms: C_1  and  N_34
    2  A    between atoms: C_1  and  C_35
    3  A    between atoms: N_2  and  C_6
    4  A    between atoms: N_3  and  C_4
    5  A    between atoms: N_3  and  C_12
    6  A    between atoms: C_4  and  S_14
    7  A    between atoms: C_4  and  C_42
    8  A    between atoms: C_5  and  C_18
    9  A    between atoms: C_6  and  C_12
   10  A    between atoms: C_11  and  S_14
   11  A    between atoms: C_11  and  O_36
   12  A    between atoms: C_11  and  C_40
   13  A    between atoms: C_18  and  C_24
   14  A    between atoms: C_19  and  O_25
   15  A    between atoms: C_21  and  C_24
   16  A    between atoms: C_26  and  C_40
                            x       y       z     vdW  Elec       q    Type
                         _______ _______ _______ _____ _____    ______ ____

>  <TORSDO>
F 16

$$$$
=
 OpenBabel11052416323D

 43 46  0  0  1  0  0  0  0  0999 V2000
  189.2930  176.4550  141.7640 N   0  0  0  0  0  0  0  0  0  0  0  0
  188.4900  179.6030  142.3010 C   0  0  0  0  0  1  0  0  0  0  0  0
  186.9920  178.1800  144.6510 N   0  0  0  0  0  0  0  0  0  0  0  0
  188.7280  177.1560  142.6860 C   0  0  0  0  0  0  0  0  0  0  0  0
  187.5080  177.7630  147.3910 C   0  0  0  0  0  0  0  0  0  0  0  0
  188.4580  177.3800  146.5130 C   0  0  0  0  0  0  0  0  0  0  0  0
  187.6270  177.4810  148.8530 C   0  0  0  0  0  1  0  0  0  0  0  0
  188.9800  176.7970  144.1140 C   0  0  0  0  0  2  0  0  0  0  0  0
  188.3700  177.8250  145.0610 C   0  0  1  0  0  3  0  0  0  0  0  0
  186.0630  178.6470  145.6410 C   0  0  0  0  0  3  0  0  0  0  0  0
  186.6270  178.3530  143.2910 N   0  0  0  0  0  0  0  0  0  0  0  0
  187.7630  178.2730  142.3550 C   0  0  1  0  0  3  0  0  0  0  0  0
  186.2970  178.4630  146.9350 C   0  0  0  0  0  3  0  0  0  0  0  0
  185.5510  177.4200  142.9080 C   0  0  0  0  0  2  0  0  0  0  0  0
  182.2520  179.2480  143.3920 C   0  0  0  0  0  3  0  0  0  0  0  0
  181.7580  179.2840  142.0850 C   0  0  0  0  0  0  0  0  0  0  0  0
  183.7550  178.1450  141.3080 C   0  0  0  0  0  3  0  0  0  0  0  0
  183.4870  178.6510  143.6590 C   0  0  0  0  0  3  0  0  0  0  0  0
  184.2340  178.0800  142.6210 C   0  0  0  0  0  0  0  0  0  0  0  0
  182.5240  178.7400  141.0410 C   0  0  0  0  0  3  0  0  0  0  0  0
  180.5110  179.8610  141.8500 O   0  0  0  0  0  0  0  0  0  0  0  0
  179.5670  180.1000  142.8860 C   0  0  0  0  0  1  0  0  0  0  0  0
  189.7070  176.6920  147.0000 C   0  0  0  0  0  2  0  0  0  0  0  0
  190.9630  177.2930  146.3750 C   0  0  0  0  0  2  0  0  0  0  0  0
  192.0190  176.2360  146.0790 C   0  0  0  0  0  2  0  0  0  0  0  0
  192.4610  175.5580  147.3630 C   0  0  0  0  0  1  0  0  0  0  0  0
  189.0500  176.6760  140.3570 C   0  0  0  0  0  2  0  0  0  0  0  0
  190.3430  177.0100  139.6280 C   0  0  1  0  0  3  0  0  0  0  0  0
  191.4550  177.2750  140.6290 C   0  0  0  0  0  1  0  0  0  0  0  0
  190.7160  175.8670  138.7980 N   0  0  0  0  0  2  0  0  0  0  0  0
  191.2480  176.2930  137.4990 C   0  0  1  0  0  3  0  0  0  0  0  0
  193.6250  176.2720  136.8860 C   0  0  0  0  0  2  0  0  0  0  0  0
  193.4290  175.4030  137.9780 O   0  0  0  0  0  0  0  0  0  0  0  0
  192.4100  175.4290  137.0060 C   0  0  1  0  0  3  0  0  0  0  0  0
  189.9610  176.4580  136.2580 S   0  0  0  0  0  0  0  0  0  0  0  0
  189.2750  177.7910  136.4010 O   0  0  0  0  0  0  0  0  0  0  0  0
  190.5740  176.3630  134.8880 O   0  0  0  0  0  0  0  0  0  0  0  0
  188.7560  175.1530  136.4350 C   0  0  2  0  0  3  0  0  0  0  0  0
  186.6210  175.6540  136.7460 C   0  0  0  0  0  1  0  0  0  0  0  0
  187.8300  175.4890  137.4240 O   0  0  0  0  0  0  0  0  0  0  0  0
  189.4600  173.8440  136.7870 C   0  0  0  0  0  2  0  0  0  0  0  0
  189.1100  172.7460  135.7900 C   0  0  0  0  0  2  0  0  0  0  0  0
  188.3540  173.2790  134.7460 O   0  0  0  0  0  1  0  0  0  0  0  0
  1  4  2  0  0  0  0
  3  9  1  0  0  0  0
  3 10  1  0  0  0  0
  4  8  1  0  0  0  0
  5  7  1  0  0  0  0
  6 23  1  0  0  0  0
  6  5  2  0  0  0  0
  9  8  1  6  0  0  0
  9  6  1  0  0  0  0
 10 13  2  0  0  0  0
 11  3  1  0  0  0  0
 12  2  1  1  0  0  0
 12  4  1  0  0  0  0
 12 11  1  0  0  0  0
 13  5  1  0  0  0  0
 14 11  1  0  0  0  0
 15 18  1  0  0  0  0
 16 15  2  0  0  0  0
 17 19  1  0  0  0  0
 19 14  1  0  0  0  0
 19 18  2  0  0  0  0
 20 17  2  0  0  0  0
 20 16  1  0  0  0  0
 21 16  1  0  0  0  0
 21 22  1  0  0  0  0
 24 23  1  0  0  0  0
 25 24  1  0  0  0  0
 25 26  1  0  0  0  0
 27  1  1  0  0  0  0
 28 27  1  0  0  0  0
 28 29  1  1  0  0  0
 30 28  1  0  0  0  0
 31 30  1  1  0  0  0
 32 34  1  0  0  0  0
 32 33  1  0  0  0  0
 34 31  1  1  0  0  0
 34 33  1  0  0  0  0
 35 36  2  0  0  0  0
 35 38  1  0  0  0  0
 35 31  1  0  0  0  0
 37 35  2  0  0  0  0
 38 41  1  1  0  0  0
 38 40  1  0  0  0  0
 39 40  1  0  0  0  0
 42 41  1  0  0  0  0
 43 42  1  0  0  0  0
M  END
>  <MODEL>
4

>  <REMARK>
 VINA RESULT:      -5.8      3.848     10.057
  Name = 
  16 active torsions:
  status: ('A' for Active; 'I' for Inactive)
    1  A    between atoms: C_1  and  N_34
    2  A    between atoms: C_1  and  C_35
    3  A    between atoms: N_2  and  C_6
    4  A    between atoms: N_3  and  C_4
    5  A    between atoms: N_3  and  C_12
    6  A    between atoms: C_4  and  S_14
    7  A    between atoms: C_4  and  C_42
    8  A    between atoms: C_5  and  C_18
    9  A    between atoms: C_6  and  C_12
   10  A    between atoms: C_11  and  S_14
   11  A    between atoms: C_11  and  O_36
   12  A    between atoms: C_11  and  C_40
   13  A    between atoms: C_18  and  C_24
   14  A    between atoms: C_19  and  O_25
   15  A    between atoms: C_21  and  C_24
   16  A    between atoms: C_26  and  C_40
                            x       y       z     vdW  Elec       q    Type
                         _______ _______ _______ _____ _____    ______ ____

>  <TORSDO>
F 16

$$$$
=
 OpenBabel11052416323D

 43 46  0  0  1  0  0  0  0  0999 V2000
  185.6830  178.7170  140.8620 N   0  0  0  0  0  0  0  0  0  0  0  0
  188.6070  180.1290  141.4120 C   0  0  0  0  0  1  0  0  0  0  0  0
  189.4750  177.3420  140.2840 N   0  0  0  0  0  0  0  0  0  0  0  0
  186.9240  178.4880  140.5960 C   0  0  0  0  0  0  0  0  0  0  0  0
  190.3260  176.3770  137.7760 C   0  0  0  0  0  0  0  0  0  0  0  0
  189.1580  177.0500  137.8200 C   0  0  0  0  0  0  0  0  0  0  0  0
  190.8100  175.7210  136.5240 C   0  0  0  0  0  1  0  0  0  0  0  0
  187.2720  177.8780  139.2780 C   0  0  0  0  0  2  0  0  0  0  0  0
  188.7820  177.8320  139.0700 C   0  0  1  0  0  3  0  0  0  0  0  0
  190.7510  176.6970  140.1530 C   0  0  0  0  0  3  0  0  0  0  0  0
  189.0790  177.7290  141.5910 N   0  0  0  0  0  0  0  0  0  0  0  0
  188.0140  178.7480  141.6120 C   0  0  1  0  0  3  0  0  0  0  0  0
  191.1670  176.2440  138.9750 C   0  0  0  0  0  3  0  0  0  0  0  0
  188.7150  176.5540  142.4040 C   0  0  0  0  0  2  0  0  0  0  0  0
  189.0560  177.3430  146.1070 C   0  0  0  0  0  3  0  0  0  0  0  0
  187.7170  177.4340  146.4980 C   0  0  0  0  0  0  0  0  0  0  0  0
  187.0290  176.9950  144.2130 C   0  0  0  0  0  3  0  0  0  0  0  0
  189.3810  177.0660  144.7760 C   0  0  0  0  0  3  0  0  0  0  0  0
  188.3680  176.8720  143.8290 C   0  0  0  0  0  0  0  0  0  0  0  0
  186.7040  177.2720  145.5390 C   0  0  0  0  0  3  0  0  0  0  0  0
  187.4200  177.6840  147.8370 O   0  0  0  0  0  0  0  0  0  0  0  0
  188.4050  178.0820  148.7810 C   0  0  0  0  0  1  0  0  0  0  0  0
  188.3240  177.2040  136.5750 C   0  0  0  0  0  2  0  0  0  0  0  0
  187.3360  176.0520  136.4120 C   0  0  0  0  0  2  0  0  0  0  0  0
  186.1170  176.4530  135.5920 C   0  0  0  0  0  2  0  0  0  0  0  0
  184.9990  176.9220  136.5040 C   0  0  0  0  0  1  0  0  0  0  0  0
  185.2410  179.2320  142.1370 C   0  0  0  0  0  2  0  0  0  0  0  0
  183.8950  178.6400  142.5260 C   0  0  1  0  0  3  0  0  0  0  0  0
  183.6150  178.8990  143.9960 C   0  0  0  0  0  1  0  0  0  0  0  0
  182.8560  179.2820  141.7250 N   0  0  0  0  0  2  0  0  0  0  0  0
  181.6400  178.4630  141.6600 C   0  0  1  0  0  3  0  0  0  0  0  0
  179.9060  178.9590  143.3250 C   0  0  0  0  0  2  0  0  0  0  0  0
  180.5830  180.1530  143.0040 O   0  0  0  0  0  0  0  0  0  0  0  0
  180.3610  179.2520  141.9440 C   0  0  1  0  0  3  0  0  0  0  0  0
  181.5280  177.5320  140.1290 S   0  0  0  0  0  0  0  0  0  0  0  0
  182.8720  176.9480  139.7820 O   0  0  0  0  0  0  0  0  0  0  0  0
  180.5330  176.4160  140.2950 O   0  0  0  0  0  0  0  0  0  0  0  0
  180.9830  178.5880  138.7980 C   0  0  2  0  0  3  0  0  0  0  0  0
  181.3020  177.7130  136.7890 C   0  0  0  0  0  1  0  0  0  0  0  0
  180.3560  177.8260  137.8090 O   0  0  0  0  0  0  0  0  0  0  0  0
  182.1770  179.3400  138.2130 C   0  0  0  0  0  2  0  0  0  0  0  0
  182.0570  180.8390  138.4580 C   0  0  0  0  0  2  0  0  0  0  0  0
  180.8950  181.1080  139.1810 O   0  0  0  0  0  1  0  0  0  0  0  0
  1 27  1  0  0  0  0
  3 11  1  0  0  0  0
  4  1  2  0  0  0  0
  4 12  1  0  0  0  0
  5  6  2  0  0  0  0
  5 13  1  0  0  0  0
  6  9  1  0  0  0  0
  7  5  1  0  0  0  0
  8  4  1  0  0  0  0
  9  8  1  1  0  0  0
  9  3  1  0  0  0  0
 10  3  1  0  0  0  0
 11 12  1  0  0  0  0
 11 14  1  0  0  0  0
 12  2  1  6  0  0  0
 13 10  2  0  0  0  0
 14 19  1  0  0  0  0
 15 16  1  0  0  0  0
 16 21  1  0  0  0  0
 17 20  1  0  0  0  0
 18 15  2  0  0  0  0
 19 17  2  0  0  0  0
 19 18  1  0  0  0  0
 20 16  2  0  0  0  0
 21 22  1  0  0  0  0
 23  6  1  0  0  0  0
 24 23  1  0  0  0  0
 25 24  1  0  0  0  0
 25 26  1  0  0  0  0
 27 28  1  0  0  0  0
 28 29  1  1  0  0  0
 30 28  1  0  0  0  0
 31 30  1  6  0  0  0
 33 32  1  0  0  0  0
 34 31  1  1  0  0  0
 34 33  1  0  0  0  0
 34 32  1  0  0  0  0
 35 37  2  0  0  0  0
 35 31  1  0  0  0  0
 36 35  2  0  0  0  0
 38 41  1  6  0  0  0
 38 35  1  0  0  0  0
 39 40  1  0  0  0  0
 40 38  1  0  0  0  0
 41 42  1  0  0  0  0
 42 43  1  0  0  0  0
M  END
>  <MODEL>
5

>  <REMARK>
 VINA RESULT:      -5.7      3.542      8.937
  Name = 
  16 active torsions:
  status: ('A' for Active; 'I' for Inactive)
    1  A    between atoms: C_1  and  N_34
    2  A    between atoms: C_1  and  C_35
    3  A    between atoms: N_2  and  C_6
    4  A    between atoms: N_3  and  C_4
    5  A    between atoms: N_3  and  C_12
    6  A    between atoms: C_4  and  S_14
    7  A    between atoms: C_4  and  C_42
    8  A    between atoms: C_5  and  C_18
    9  A    between atoms: C_6  and  C_12
   10  A    between atoms: C_11  and  S_14
   11  A    between atoms: C_11  and  O_36
   12  A    between atoms: C_11  and  C_40
   13  A    between atoms: C_18  and  C_24
   14  A    between atoms: C_19  and  O_25
   15  A    between atoms: C_21  and  C_24
   16  A    between atoms: C_26  and  C_40
                            x       y       z     vdW  Elec       q    Type
                         _______ _______ _______ _____ _____    ______ ____

>  <TORSDO>
F 16

$$$$
=
 OpenBabel11052416323D

 43 46  0  0  1  0  0  0  0  0999 V2000
  184.4090  178.5180  137.7120 N   0  0  0  0  0  0  0  0  0  0  0  0
  183.3020  176.2100  139.7840 C   0  0  0  0  0  1  0  0  0  0  0  0
  182.4900  178.8280  141.2940 N   0  0  0  0  0  0  0  0  0  0  0  0
  183.6700  178.4510  138.7670 C   0  0  0  0  0  0  0  0  0  0  0  0
  180.1160  180.3240  141.5690 C   0  0  0  0  0  0  0  0  0  0  0  0
  180.5410  180.0540  140.3180 C   0  0  0  0  0  0  0  0  0  0  0  0
  178.9400  181.2070  141.8290 C   0  0  0  0  0  1  0  0  0  0  0  0
  182.4870  179.3570  138.8710 C   0  0  0  0  0  2  0  0  0  0  0  0
  181.6420  179.0270  140.0970 C   0  0  1  0  0  3  0  0  0  0  0  0
  181.9360  179.0710  142.5960 C   0  0  0  0  0  3  0  0  0  0  0  0
  183.7290  178.1380  141.2390 N   0  0  0  0  0  0  0  0  0  0  0  0
  184.0170  177.5400  139.9230 C   0  0  1  0  0  3  0  0  0  0  0  0
  180.8150  179.7690  142.7390 C   0  0  0  0  0  3  0  0  0  0  0  0
  184.8360  178.9990  141.6920 C   0  0  0  0  0  2  0  0  0  0  0  0
  185.6440  178.5600  145.3810 C   0  0  0  0  0  3  0  0  0  0  0  0
  186.7530  177.7110  145.3250 C   0  0  0  0  0  0  0  0  0  0  0  0
  186.5860  177.6670  142.9040 C   0  0  0  0  0  3  0  0  0  0  0  0
  185.0150  178.9710  144.2020 C   0  0  0  0  0  3  0  0  0  0  0  0
  185.4970  178.5420  142.9590 C   0  0  0  0  0  0  0  0  0  0  0  0
  187.2130  177.2560  144.0790 C   0  0  0  0  0  3  0  0  0  0  0  0
  187.3780  177.3380  146.5140 O   0  0  0  0  0  0  0  0  0  0  0  0
  188.7590  177.5650  146.7610 C   0  0  0  0  0  1  0  0  0  0  0  0
  179.7960  180.6050  139.1290 C   0  0  0  0  0  2  0  0  0  0  0  0
  180.3030  181.9900  138.7380 C   0  0  0  0  0  2  0  0  0  0  0  0
  180.1450  182.2590  137.2470 C   0  0  0  0  0  2  0  0  0  0  0  0
  180.2970  180.9700  136.4600 C   0  0  0  0  0  1  0  0  0  0  0  0
  185.6150  177.7390  137.5550 C   0  0  0  0  0  2  0  0  0  0  0  0
  185.3740  176.5410  136.6490 C   0  0  1  0  0  3  0  0  0  0  0  0
  184.3580  176.8930  135.5760 C   0  0  0  0  0  1  0  0  0  0  0  0
  186.6360  176.1830  136.0060 N   0  0  0  0  0  2  0  0  0  0  0  0
  187.1920  174.9440  136.5610 C   0  0  1  0  0  3  0  0  0  0  0  0
  186.2270  172.6940  136.7430 C   0  0  0  0  0  2  0  0  0  0  0  0
  185.3870  173.4860  135.9340 O   0  0  0  0  0  0  0  0  0  0  0  0
  186.7730  173.6910  135.7900 C   0  0  1  0  0  3  0  0  0  0  0  0
  188.9720  175.0340  136.7770 S   0  0  0  0  0  0  0  0  0  0  0  0
  189.4660  173.8080  137.5000 O   0  0  0  0  0  0  0  0  0  0  0  0
  189.6350  175.1130  135.4300 O   0  0  0  0  0  0  0  0  0  0  0  0
  189.4120  176.4870  137.7160 C   0  0  2  0  0  3  0  0  0  0  0  0
  189.1740  178.6170  137.1590 C   0  0  0  0  0  1  0  0  0  0  0  0
  189.9150  177.4720  136.8630 O   0  0  0  0  0  0  0  0  0  0  0  0
  190.4480  176.1230  138.7770 C   0  0  0  0  0  2  0  0  0  0  0  0
  191.8650  176.3700  138.2720 C   0  0  0  0  0  2  0  0  0  0  0  0
  192.4760  175.1540  137.9660 O   0  0  0  0  0  1  0  0  0  0  0  0
  1  4  2  0  0  0  0
  3 10  1  0  0  0  0
  4  8  1  0  0  0  0
  4 12  1  0  0  0  0
  5  7  1  0  0  0  0
  5 13  1  0  0  0  0
  6  5  2  0  0  0  0
  9  8  1  6  0  0  0
  9  6  1  0  0  0  0
  9  3  1  0  0  0  0
 10 13  2  0  0  0  0
 11  3  1  0  0  0  0
 11 14  1  0  0  0  0
 12  2  1  6  0  0  0
 12 11  1  0  0  0  0
 14 19  1  0  0  0  0
 16 15  1  0  0  0  0
 16 21  1  0  0  0  0
 17 19  2  0  0  0  0
 17 20  1  0  0  0  0
 18 15  2  0  0  0  0
 19 18  1  0  0  0  0
 20 16  2  0  0  0  0
 21 22  1  0  0  0  0
 23  6  1  0  0  0  0
 24 23  1  0  0  0  0
 25 24  1  0  0  0  0
 26 25  1  0  0  0  0
 27  1  1  0  0  0  0
 28 29  1  6  0  0  0
 28 27  1  0  0  0  0
 30 28  1  0  0  0  0
 31 30  1  6  0  0  0
 31 35  1  0  0  0  0
 33 32  1  0  0  0  0
 34 33  1  0  0  0  0
 34 31  1  1  0  0  0
 34 32  1  0  0  0  0
 35 36  2  0  0  0  0
 35 38  1  0  0  0  0
 37 35  2  0  0  0  0
 38 41  1  1  0  0  0
 40 39  1  0  0  0  0
 40 38  1  0  0  0  0
 42 41  1  0  0  0  0
 43 42  1  0  0  0  0
M  END
>  <MODEL>
6

>  <REMARK>
 VINA RESULT:      -5.6      3.112      7.813
  Name = 
  16 active torsions:
  status: ('A' for Active; 'I' for Inactive)
    1  A    between atoms: C_1  and  N_34
    2  A    between atoms: C_1  and  C_35
    3  A    between atoms: N_2  and  C_6
    4  A    between atoms: N_3  and  C_4
    5  A    between atoms: N_3  and  C_12
    6  A    between atoms: C_4  and  S_14
    7  A    between atoms: C_4  and  C_42
    8  A    between atoms: C_5  and  C_18
    9  A    between atoms: C_6  and  C_12
   10  A    between atoms: C_11  and  S_14
   11  A    between atoms: C_11  and  O_36
   12  A    between atoms: C_11  and  C_40
   13  A    between atoms: C_18  and  C_24
   14  A    between atoms: C_19  and  O_25
   15  A    between atoms: C_21  and  C_24
   16  A    between atoms: C_26  and  C_40
                            x       y       z     vdW  Elec       q    Type
                         _______ _______ _______ _____ _____    ______ ____

>  <TORSDO>
F 16

$$$$
=
 OpenBabel11052416323D

 43 46  0  0  1  0  0  0  0  0999 V2000
  183.5090  177.6130  141.1650 N   0  0  0  0  0  0  0  0  0  0  0  0
  180.2360  177.7350  140.8180 C   0  0  0  0  0  1  0  0  0  0  0  0
  181.1520  177.3490  137.8500 N   0  0  0  0  0  0  0  0  0  0  0  0
  182.6330  177.3970  140.2430 C   0  0  0  0  0  0  0  0  0  0  0  0
  181.3360  175.1610  136.0830 C   0  0  0  0  0  0  0  0  0  0  0  0
  181.9500  175.0490  137.2790 C   0  0  0  0  0  0  0  0  0  0  0  0
  181.4690  174.1130  135.0280 C   0  0  0  0  0  1  0  0  0  0  0  0
  182.8660  176.2750  139.2860 C   0  0  0  0  0  2  0  0  0  0  0  0
  181.6600  176.0610  138.3770 C   0  0  1  0  0  3  0  0  0  0  0  0
  180.4450  177.3680  136.6010 C   0  0  0  0  0  3  0  0  0  0  0  0
  181.0780  178.5190  138.6520 N   0  0  0  0  0  0  0  0  0  0  0  0
  181.4290  178.2930  140.0660 C   0  0  1  0  0  3  0  0  0  0  0  0
  180.5180  176.3410  135.7620 C   0  0  0  0  0  3  0  0  0  0  0  0
  181.8760  179.6120  138.0680 C   0  0  0  0  0  2  0  0  0  0  0  0
  180.1920  182.4350  136.1580 C   0  0  0  0  0  3  0  0  0  0  0  0
  179.6550  183.1960  137.2010 C   0  0  0  0  0  0  0  0  0  0  0  0
  180.5280  181.5990  138.8050 C   0  0  0  0  0  3  0  0  0  0  0  0
  180.9050  181.2670  136.4380 C   0  0  0  0  0  3  0  0  0  0  0  0
  181.0930  180.8550  137.7640 C   0  0  0  0  0  0  0  0  0  0  0  0
  179.8160  182.7640  138.5270 C   0  0  0  0  0  3  0  0  0  0  0  0
  178.9710  184.3720  136.8950 O   0  0  0  0  0  0  0  0  0  0  0  0
  179.5910  185.6510  136.9190 C   0  0  0  0  0  1  0  0  0  0  0  0
  182.7590  173.8190  137.6030 C   0  0  0  0  0  2  0  0  0  0  0  0
  184.2000  173.9480  137.1180 C   0  0  0  0  0  2  0  0  0  0  0  0
  184.8510  172.5900  136.8880 C   0  0  0  0  0  2  0  0  0  0  0  0
  183.8450  171.6150  136.3060 C   0  0  0  0  0  1  0  0  0  0  0  0
  183.4100  178.7200  142.0880 C   0  0  0  0  0  2  0  0  0  0  0  0
  184.7470  178.9840  142.7650 C   0  0  1  0  0  3  0  0  0  0  0  0
  184.5550  179.9030  143.9590 C   0  0  0  0  0  1  0  0  0  0  0  0
  185.2920  177.7110  143.2290 N   0  0  0  0  0  2  0  0  0  0  0  0
  186.4720  177.9060  144.0790 C   0  0  1  0  0  3  0  0  0  0  0  0
  186.6410  178.2910  146.4970 C   0  0  0  0  0  2  0  0  0  0  0  0
  185.3160  177.9250  146.1870 O   0  0  0  0  0  0  0  0  0  0  0  0
  186.3340  177.2720  145.4640 C   0  0  1  0  0  3  0  0  0  0  0  0
  187.9900  177.4070  143.2610 S   0  0  0  0  0  0  0  0  0  0  0  0
  188.0730  175.9040  143.2010 O   0  0  0  0  0  0  0  0  0  0  0  0
  188.0080  177.9590  141.8620 O   0  0  0  0  0  0  0  0  0  0  0  0
  189.4080  178.0400  144.1420 C   0  0  2  0  0  3  0  0  0  0  0  0
  191.2330  177.4180  143.0530 C   0  0  0  0  0  1  0  0  0  0  0  0
  190.3680  178.4980  143.2370 O   0  0  0  0  0  0  0  0  0  0  0  0
  189.9950  176.9450  145.0310 C   0  0  0  0  0  2  0  0  0  0  0  0
  190.0810  177.4020  146.4820 C   0  0  0  0  0  2  0  0  0  0  0  0
  190.5190  176.3480  147.2830 O   0  0  0  0  0  1  0  0  0  0  0  0
  1 27  1  0  0  0  0
  3  9  1  0  0  0  0
  3 11  1  0  0  0  0
  4  1  2  0  0  0  0
  5  6  2  0  0  0  0
  6 23  1  0  0  0  0
  6  9  1  0  0  0  0
  7  5  1  0  0  0  0
  8  4  1  0  0  0  0
  9  8  1  6  0  0  0
 10  3  1  0  0  0  0
 11 12  1  0  0  0  0
 12  4  1  0  0  0  0
 12  2  1  1  0  0  0
 13  5  1  0  0  0  0
 13 10  2  0  0  0  0
 14 11  1  0  0  0  0
 15 18  2  0  0  0  0
 15 16  1  0  0  0  0
 16 20  2  0  0  0  0
 18 19  1  0  0  0  0
 19 14  1  0  0  0  0
 19 17  2  0  0  0  0
 20 17  1  0  0  0  0
 21 22  1  0  0  0  0
 21 16  1  0  0  0  0
 24 23  1  0  0  0  0
 25 24  1  0  0  0  0
 26 25  1  0  0  0  0
 27 28  1  0  0  0  0
 28 30  1  0  0  0  0
 28 29  1  1  0  0  0
 31 30  1  6  0  0  0
 33 32  1  0  0  0  0
 34 31  1  6  0  0  0
 34 33  1  0  0  0  0
 34 32  1  0  0  0  0
 35 31  1  0  0  0  0
 35 38  1  0  0  0  0
 36 35  2  0  0  0  0
 37 35  2  0  0  0  0
 38 41  1  6  0  0  0
 39 40  1  0  0  0  0
 40 38  1  0  0  0  0
 41 42  1  0  0  0  0
 42 43  1  0  0  0  0
M  END
>  <MODEL>
7

>  <REMARK>
 VINA RESULT:      -5.6      3.917      7.616
  Name = 
  16 active torsions:
  status: ('A' for Active; 'I' for Inactive)
    1  A    between atoms: C_1  and  N_34
    2  A    between atoms: C_1  and  C_35
    3  A    between atoms: N_2  and  C_6
    4  A    between atoms: N_3  and  C_4
    5  A    between atoms: N_3  and  C_12
    6  A    between atoms: C_4  and  S_14
    7  A    between atoms: C_4  and  C_42
    8  A    between atoms: C_5  and  C_18
    9  A    between atoms: C_6  and  C_12
   10  A    between atoms: C_11  and  S_14
   11  A    between atoms: C_11  and  O_36
   12  A    between atoms: C_11  and  C_40
   13  A    between atoms: C_18  and  C_24
   14  A    between atoms: C_19  and  O_25
   15  A    between atoms: C_21  and  C_24
   16  A    between atoms: C_26  and  C_40
                            x       y       z     vdW  Elec       q    Type
                         _______ _______ _______ _____ _____    ______ ____

>  <TORSDO>
F 16

$$$$
=
 OpenBabel11052416323D

 43 46  0  0  1  0  0  0  0  0999 V2000
  186.0410  178.3580  141.0810 N   0  0  0  0  0  0  0  0  0  0  0  0
  188.7610  180.1520  141.5650 C   0  0  0  0  0  1  0  0  0  0  0  0
  189.9620  177.5360  140.3340 N   0  0  0  0  0  0  0  0  0  0  0  0
  187.2910  178.3090  140.7670 C   0  0  0  0  0  0  0  0  0  0  0  0
  190.8410  176.7520  137.7740 C   0  0  0  0  0  0  0  0  0  0  0  0
  189.5940  177.2550  137.8770 C   0  0  0  0  0  0  0  0  0  0  0  0
  191.3630  176.1960  136.4890 C   0  0  0  0  0  1  0  0  0  0  0  0
  187.6690  177.7810  139.4220 C   0  0  0  0  0  2  0  0  0  0  0  0
  189.1620  177.9500  139.1590 C   0  0  1  0  0  3  0  0  0  0  0  0
  191.3090  177.0790  140.1420 C   0  0  0  0  0  3  0  0  0  0  0  0
  189.5670  177.8370  141.6640 N   0  0  0  0  0  0  0  0  0  0  0  0
  188.3730  178.6970  141.7490 C   0  0  1  0  0  3  0  0  0  0  0  0
  191.7380  176.7120  138.9390 C   0  0  0  0  0  3  0  0  0  0  0  0
  189.4000  176.6070  142.4590 C   0  0  0  0  0  2  0  0  0  0  0  0
  188.2530  177.2870  146.0190 C   0  0  0  0  0  3  0  0  0  0  0  0
  189.4650  177.2530  146.7140 C   0  0  0  0  0  0  0  0  0  0  0  0
  190.6290  176.7550  144.6440 C   0  0  0  0  0  3  0  0  0  0  0  0
  188.2290  177.0680  144.6390 C   0  0  0  0  0  3  0  0  0  0  0  0
  189.4200  176.8220  143.9440 C   0  0  0  0  0  0  0  0  0  0  0  0
  190.6520  176.9720  146.0210 C   0  0  0  0  0  3  0  0  0  0  0  0
  189.4630  177.5020  148.0860 O   0  0  0  0  0  0  0  0  0  0  0  0
  188.2920  177.8830  148.7970 C   0  0  0  0  0  1  0  0  0  0  0  0
  188.6990  177.3170  136.6660 C   0  0  0  0  0  2  0  0  0  0  0  0
  188.4190  175.9270  136.1000 C   0  0  0  0  0  2  0  0  0  0  0  0
  187.6010  175.0710  137.0580 C   0  0  0  0  0  2  0  0  0  0  0  0
  187.9160  173.6010  136.8520 C   0  0  0  0  0  1  0  0  0  0  0  0
  185.5820  178.7800  142.3840 C   0  0  0  0  0  2  0  0  0  0  0  0
  184.1060  178.4640  142.5690 C   0  0  1  0  0  3  0  0  0  0  0  0
  183.7150  178.6240  144.0280 C   0  0  0  0  0  1  0  0  0  0  0  0
  183.3260  179.4020  141.7650 N   0  0  0  0  0  2  0  0  0  0  0  0
  182.4940  178.7050  140.7770 C   0  0  1  0  0  3  0  0  0  0  0  0
  180.2880  177.7250  141.2200 C   0  0  0  0  0  2  0  0  0  0  0  0
  180.5820  178.6600  142.2340 O   0  0  0  0  0  0  0  0  0  0  0  0
  181.0000  178.9940  140.9300 C   0  0  1  0  0  3  0  0  0  0  0  0
  183.0610  178.9790  139.0960 S   0  0  0  0  0  0  0  0  0  0  0  0
  181.9140  179.4340  138.2330 O   0  0  0  0  0  0  0  0  0  0  0  0
  184.1290  180.0370  139.0950 O   0  0  0  0  0  0  0  0  0  0  0  0
  183.7480  177.4770  138.4180 C   0  0  2  0  0  3  0  0  0  0  0  0
  184.8980  177.5020  136.5260 C   0  0  0  0  0  1  0  0  0  0  0  0
  183.5970  177.4650  137.0300 O   0  0  0  0  0  0  0  0  0  0  0  0
  183.0530  176.2660  139.0390 C   0  0  0  0  0  2  0  0  0  0  0  0
  181.9050  175.7810  138.1630 C   0  0  0  0  0  2  0  0  0  0  0  0
  182.2360  174.5530  137.5890 O   0  0  0  0  0  1  0  0  0  0  0  0
  1 27  1  0  0  0  0
  3 11  1  0  0  0  0
  4  1  2  0  0  0  0
  4 12  1  0  0  0  0
  5  6  2  0  0  0  0
  5 13  1  0  0  0  0
  6  9  1  0  0  0  0
  7  5  1  0  0  0  0
  8  4  1  0  0  0  0
  9  8  1  1  0  0  0
  9  3  1  0  0  0  0
 10  3  1  0  0  0  0
 11 12  1  0  0  0  0
 11 14  1  0  0  0  0
 12  2  1  6  0  0  0
 13 10  2  0  0  0  0
 14 19  1  0  0  0  0
 15 16  1  0  0  0  0
 16 21  1  0  0  0  0
 17 20  1  0  0  0  0
 18 15  2  0  0  0  0
 19 18  1  0  0  0  0
 19 17  2  0  0  0  0
 20 16  2  0  0  0  0
 21 22  1  0  0  0  0
 23  6  1  0  0  0  0
 24 23  1  0  0  0  0
 24 25  1  0  0  0  0
 26 25  1  0  0  0  0
 27 28  1  0  0  0  0
 28 29  1  1  0  0  0
 30 28  1  0  0  0  0
 31 30  1  1  0  0  0
 32 33  1  0  0  0  0
 34 31  1  1  0  0  0
 34 32  1  0  0  0  0
 34 33  1  0  0  0  0
 35 31  1  0  0  0  0
 36 35  2  0  0  0  0
 37 35  2  0  0  0  0
 38 41  1  1  0  0  0
 38 35  1  0  0  0  0
 39 40  1  0  0  0  0
 40 38  1  0  0  0  0
 42 41  1  0  0  0  0
 43 42  1  0  0  0  0
M  END
>  <MODEL>
8

>  <REMARK>
 VINA RESULT:      -5.6      3.348      8.767
  Name = 
  16 active torsions:
  status: ('A' for Active; 'I' for Inactive)
    1  A    between atoms: C_1  and  N_34
    2  A    between atoms: C_1  and  C_35
    3  A    between atoms: N_2  and  C_6
    4  A    between atoms: N_3  and  C_4
    5  A    between atoms: N_3  and  C_12
    6  A    between atoms: C_4  and  S_14
    7  A    between atoms: C_4  and  C_42
    8  A    between atoms: C_5  and  C_18
    9  A    between atoms: C_6  and  C_12
   10  A    between atoms: C_11  and  S_14
   11  A    between atoms: C_11  and  O_36
   12  A    between atoms: C_11  and  C_40
   13  A    between atoms: C_18  and  C_24
   14  A    between atoms: C_19  and  O_25
   15  A    between atoms: C_21  and  C_24
   16  A    between atoms: C_26  and  C_40
                            x       y       z     vdW  Elec       q    Type
                         _______ _______ _______ _____ _____    ______ ____

>  <TORSDO>
F 16

$$$$
=
 OpenBabel11052416323D

 43 46  0  0  1  0  0  0  0  0999 V2000
  182.4960  177.6110  137.9870 N   0  0  0  0  0  0  0  0  0  0  0  0
  183.7640  180.4570  139.0560 C   0  0  0  0  0  1  0  0  0  0  0  0
  186.0790  178.4620  139.7340 N   0  0  0  0  0  0  0  0  0  0  0  0
  183.6320  178.0590  138.4030 C   0  0  0  0  0  0  0  0  0  0  0  0
  188.5180  177.7420  138.5190 C   0  0  0  0  0  0  0  0  0  0  0  0
  187.4010  177.6650  137.7670 C   0  0  0  0  0  0  0  0  0  0  0  0
  189.8420  177.2720  138.0140 C   0  0  0  0  0  1  0  0  0  0  0  0
  184.8800  177.5420  137.7670 C   0  0  0  0  0  2  0  0  0  0  0  0
  186.1090  178.2970  138.2630 C   0  0  1  0  0  3  0  0  0  0  0  0
  187.3140  178.6080  140.4510 C   0  0  0  0  0  3  0  0  0  0  0  0
  184.8840  178.7680  140.4380 N   0  0  0  0  0  0  0  0  0  0  0  0
  183.7280  179.0270  139.5610 C   0  0  1  0  0  3  0  0  0  0  0  0
  188.4710  178.2790  139.8880 C   0  0  0  0  0  3  0  0  0  0  0  0
  184.5770  177.7280  141.4370 C   0  0  0  0  0  2  0  0  0  0  0  0
  184.0230  179.2850  144.8620 C   0  0  0  0  0  3  0  0  0  0  0  0
  185.2240  178.9750  145.5070 C   0  0  0  0  0  0  0  0  0  0  0  0
  185.9840  177.8150  143.5160 C   0  0  0  0  0  3  0  0  0  0  0  0
  183.8080  178.8730  143.5430 C   0  0  0  0  0  3  0  0  0  0  0  0
  184.7970  178.1540  142.8600 C   0  0  0  0  0  0  0  0  0  0  0  0
  186.1980  178.2250  144.8310 C   0  0  0  0  0  3  0  0  0  0  0  0
  185.4230  179.4210  146.8130 O   0  0  0  0  0  0  0  0  0  0  0  0
  186.4600  178.9210  147.6460 C   0  0  0  0  0  1  0  0  0  0  0  0
  187.4720  177.1410  136.3560 C   0  0  0  0  0  2  0  0  0  0  0  0
  187.0020  175.6920  136.2680 C   0  0  0  0  0  2  0  0  0  0  0  0
  188.1390  174.7400  135.9190 C   0  0  0  0  0  2  0  0  0  0  0  0
  188.4930  173.8800  137.1190 C   0  0  0  0  0  1  0  0  0  0  0  0
  181.2410  177.9920  138.5910 C   0  0  0  0  0  2  0  0  0  0  0  0
  180.8800  177.0560  139.7340 C   0  0  1  0  0  3  0  0  0  0  0  0
  180.5450  177.8570  140.9800 C   0  0  0  0  0  1  0  0  0  0  0  0
  179.7090  176.2740  139.3440 N   0  0  0  0  0  2  0  0  0  0  0  0
  179.9330  174.8360  139.5290 C   0  0  1  0  0  3  0  0  0  0  0  0
  179.6890  173.4560  141.5440 C   0  0  0  0  0  2  0  0  0  0  0  0
  179.1130  174.7200  141.7860 O   0  0  0  0  0  0  0  0  0  0  0  0
  178.9390  174.1870  140.4940 C   0  0  1  0  0  3  0  0  0  0  0  0
  180.0250  173.9550  137.9670 S   0  0  0  0  0  0  0  0  0  0  0  0
  179.6340  172.5140  138.1650 O   0  0  0  0  0  0  0  0  0  0  0  0
  179.0850  174.5900  136.9800 O   0  0  0  0  0  0  0  0  0  0  0  0
  181.6810  174.0310  137.3070 C   0  0  2  0  0  3  0  0  0  0  0  0
  182.0340  174.8010  135.2610 C   0  0  0  0  0  1  0  0  0  0  0  0
  181.8540  175.2120  136.5830 O   0  0  0  0  0  0  0  0  0  0  0  0
  181.9380  172.8170  136.4150 C   0  0  0  0  0  2  0  0  0  0  0  0
  182.4690  171.6410  137.2250 C   0  0  0  0  0  2  0  0  0  0  0  0
  183.8570  171.5730  137.1050 O   0  0  0  0  0  1  0  0  0  0  0  0
  1  4  2  0  0  0  0
  1 27  1  0  0  0  0
  3 11  1  0  0  0  0
  3 10  1  0  0  0  0
  4 12  1  0  0  0  0
  5 13  1  0  0  0  0
  6  9  1  0  0  0  0
  6  5  2  0  0  0  0
  7  5  1  0  0  0  0
  8  4  1  0  0  0  0
  9  8  1  1  0  0  0
  9  3  1  0  0  0  0
 11 14  1  0  0  0  0
 12  2  1  6  0  0  0
 12 11  1  0  0  0  0
 13 10  2  0  0  0  0
 14 19  1  0  0  0  0
 15 16  1  0  0  0  0
 16 21  1  0  0  0  0
 17 20  1  0  0  0  0
 18 15  2  0  0  0  0
 19 17  2  0  0  0  0
 19 18  1  0  0  0  0
 20 16  2  0  0  0  0
 21 22  1  0  0  0  0
 23  6  1  0  0  0  0
 24 23  1  0  0  0  0
 25 24  1  0  0  0  0
 25 26  1  0  0  0  0
 27 28  1  0  0  0  0
 28 29  1  1  0  0  0
 30 28  1  0  0  0  0
 31 30  1  6  0  0  0
 32 33  1  0  0  0  0
 34 31  1  6  0  0  0
 34 32  1  0  0  0  0
 34 33  1  0  0  0  0
 35 36  2  0  0  0  0
 35 31  1  0  0  0  0
 37 35  2  0  0  0  0
 38 41  1  6  0  0  0
 38 35  1  0  0  0  0
 39 40  1  0  0  0  0
 40 38  1  0  0  0  0
 41 42  1  0  0  0  0
 43 42  1  0  0  0  0
M  END
>  <MODEL>
9

>  <REMARK>
 VINA RESULT:      -5.5      4.547      9.764
  Name = 
  16 active torsions:
  status: ('A' for Active; 'I' for Inactive)
    1  A    between atoms: C_1  and  N_34
    2  A    between atoms: C_1  and  C_35
    3  A    between atoms: N_2  and  C_6
    4  A    between atoms: N_3  and  C_4
    5  A    between atoms: N_3  and  C_12
    6  A    between atoms: C_4  and  S_14
    7  A    between atoms: C_4  and  C_42
    8  A    between atoms: C_5  and  C_18
    9  A    between atoms: C_6  and  C_12
   10  A    between atoms: C_11  and  S_14
   11  A    between atoms: C_11  and  O_36
   12  A    between atoms: C_11  and  C_40
   13  A    between atoms: C_18  and  C_24
   14  A    between atoms: C_19  and  O_25
   15  A    between atoms: C_21  and  C_24
   16  A    between atoms: C_26  and  C_40
                            x       y       z     vdW  Elec       q    Type
                         _______ _______ _______ _____ _____    ______ ____

>  <TORSDO>
F 16

$$$$
