=
 OpenBabel11052416283D

 43 48  0  0  1  0  0  0  0  0999 V2000
  189.4270  177.4600  140.7900 N   0  0  0  0  0  2  0  0  0  0  0  0
  187.7640  177.8220  148.0080 C   0  0  0  0  0  0  0  0  0  0  0  0
  188.4500  177.7330  143.0240 C   0  0  0  0  0  0  0  0  0  0  0  0
  186.0820  178.5690  141.8860 C   0  0  0  0  0  0  0  0  0  0  0  0
  188.6920  177.5720  145.7860 C   0  0  0  0  0  0  0  0  0  0  0  0
  186.5520  178.2470  147.4580 C   0  0  0  0  0  3  0  0  0  0  0  0
  187.9040  177.7350  149.3530 F   0  0  0  0  0  0  0  0  0  0  0  0
  187.4690  178.0020  145.2230 C   0  0  0  0  0  0  0  0  0  0  0  0
  188.8340  177.4830  147.1730 C   0  0  0  0  0  3  0  0  0  0  0  0
  186.4030  178.3380  146.0720 C   0  0  0  0  0  3  0  0  0  0  0  0
  186.1910  178.4920  143.2400 N   0  0  0  0  0  0  0  0  0  0  0  0
  187.3480  178.0830  143.8270 C   0  0  0  0  0  0  0  0  0  0  0  0
  189.6140  177.3220  143.5980 N   0  0  0  0  0  0  0  0  0  0  0  0
  188.3190  177.8150  141.6320 C   0  0  0  0  0  0  0  0  0  0  0  0
  187.1380  178.2310  141.1000 N   0  0  0  0  0  0  0  0  0  0  0  0
  189.7550  177.2350  144.9480 C   0  0  0  0  0  3  0  0  0  0  0  0
  189.9650  176.2920  137.2920 C   0  0  0  0  0  3  0  0  0  0  0  0
  189.5840  177.4160  136.5510 C   0  0  0  0  0  0  0  0  0  0  0  0
  189.0840  178.5940  138.6070 C   0  0  0  0  0  3  0  0  0  0  0  0
  189.9090  176.3230  138.6890 C   0  0  0  0  0  3  0  0  0  0  0  0
  189.4700  177.4720  139.3560 C   0  0  0  0  0  0  0  0  0  0  0  0
  189.1390  178.5660  137.2110 C   0  0  0  0  0  3  0  0  0  0  0  0
  189.6280  177.3780  135.0630 C   0  0  0  0  0  2  0  0  0  0  0  0
  190.4420  176.1880  134.5940 C   0  0  0  0  0  1  0  0  0  0  0  0
  184.8070  179.0090  141.2510 C   0  0  2  0  0  3  0  0  0  0  0  0
  183.6240  178.2990  141.8840 C   0  0  0  0  0  1  0  0  0  0  0  0
  184.8500  178.6860  139.4610 S   0  0  0  0  0  0  0  0  0  0  0  0
  183.2330  179.4710  139.1940 C   0  0  1  0  0  3  0  0  0  0  0  0
  183.4240  180.7680  138.7560 F   0  0  0  0  0  0  0  0  0  0  0  0
  182.4400  178.6940  138.1420 C   0  0  0  0  0  2  0  0  0  0  0  0
  182.4410  177.2380  138.3510 N   0  0  0  0  0  0  0  0  0  0  0  0
  180.7440  176.8410  140.0550 C   0  0  0  0  0  2  0  0  0  0  0  0
  181.0860  176.7390  138.5790 C   0  0  0  0  0  3  0  0  0  0  0  0
  181.1370  175.5070  139.4640 C   0  0  0  0  0  2  0  0  0  0  0  0
  183.1330  176.4280  136.9700 S   0  0  0  0  0  0  0  0  0  0  0  0
  182.0650  175.6940  136.2060 O   0  0  0  0  0  0  0  0  0  0  0  0
  183.7840  177.4370  136.0630 O   0  0  0  0  0  0  0  0  0  0  0  0
  184.3640  175.2610  137.5210 C   0  0  1  0  0  3  0  0  0  0  0  0
  186.7110  174.4780  137.0860 C   0  0  0  0  0  3  0  0  0  0  0  0
  184.9940  172.8830  137.7110 C   0  0  0  0  0  2  0  0  0  0  0  0
  186.3580  173.2740  137.3960 N   0  0  0  0  0  0  0  0  0  0  0  0
  183.9680  173.8480  137.1230 C   0  0  0  0  0  2  0  0  0  0  0  0
  185.7160  175.5970  136.9030 C   0  0  0  0  0  2  0  0  0  0  0  0
  1 14  1  0  0  0  0
  2  7  1  0  0  0  0
  3 13  2  0  0  0  0
  3 12  1  0  0  0  0
  4 11  2  0  0  0  0
  5  9  1  0  0  0  0
  6  2  1  0  0  0  0
  8  5  1  0  0  0  0
  8 10  1  0  0  0  0
  9  2  2  0  0  0  0
 10  6  2  0  0  0  0
 11 12  1  0  0  0  0
 12  8  2  0  0  0  0
 13 16  1  0  0  0  0
 14  3  1  0  0  0  0
 15 14  2  0  0  0  0
 15  4  1  0  0  0  0
 16  5  2  0  0  0  0
 17 20  1  0  0  0  0
 18 22  1  0  0  0  0
 18 17  2  0  0  0  0
 19 21  1  0  0  0  0
 20 21  2  0  0  0  0
 21  1  1  0  0  0  0
 22 19  2  0  0  0  0
 23 18  1  0  0  0  0
 24 23  1  0  0  0  0
 25 26  1  1  0  0  0
 25  4  1  0  0  0  0
 27 25  1  0  0  0  0
 28 29  1  6  0  0  0
 28 27  1  0  0  0  0
 30 31  1  0  0  0  0
 30 28  1  0  0  0  0
 31 33  1  0  0  0  0
 33 34  1  0  0  0  0
 33 32  1  0  0  0  0
 34 32  1  0  0  0  0
 35 31  1  0  0  0  0
 36 35  2  0  0  0  0
 37 35  2  0  0  0  0
 38 35  1  6  0  0  0
 39 41  2  0  0  0  0
 41 40  1  0  0  0  0
 42 38  1  0  0  0  0
 42 40  1  0  0  0  0
 43 39  1  0  0  0  0
 43 38  1  0  0  0  0
M  END
>  <MODEL>
1

>  <REMARK>
 VINA RESULT:      -8.8      0.000      0.000
  Name = 
  10 active torsions:
  status: ('A' for Active; 'I' for Inactive)
    1  A    between atoms: N_1  and  C_35
    2  A    between atoms: C_2  and  S_6
    3  A    between atoms: C_2  and  C_13
    4  A    between atoms: C_3  and  N_4
    5  A    between atoms: C_3  and  C_12
    6  A    between atoms: N_4  and  S_14
    7  A    between atoms: N_4  and  C_15
    8  A    between atoms: S_6  and  C_12
    9  A    between atoms: C_11  and  S_14
   10  A    between atoms: C_19  and  C_25
                            x       y       z     vdW  Elec       q    Type
                         _______ _______ _______ _____ _____    ______ ____

>  <TORSDO>
F 10

$$$$
=
 OpenBabel11052416283D

 43 48  0  0  1  0  0  0  0  0999 V2000
  185.6270  178.2980  142.8700 N   0  0  0  0  0  2  0  0  0  0  0  0
  191.3110  176.5860  147.3140 C   0  0  0  0  0  0  0  0  0  0  0  0
  187.7470  177.6690  143.9310 C   0  0  0  0  0  0  0  0  0  0  0  0
  188.9090  177.3940  141.4450 C   0  0  0  0  0  0  0  0  0  0  0  0
  189.2360  177.1970  146.2280 C   0  0  0  0  0  0  0  0  0  0  0  0
  191.9260  176.4400  146.0680 C   0  0  0  0  0  3  0  0  0  0  0  0
  192.0190  176.3610  148.4480 F   0  0  0  0  0  0  0  0  0  0  0  0
  189.8510  177.0510  144.9640 C   0  0  0  0  0  0  0  0  0  0  0  0
  189.9680  176.9650  147.3950 C   0  0  0  0  0  3  0  0  0  0  0  0
  191.2000  176.6710  144.8960 C   0  0  0  0  0  3  0  0  0  0  0  0
  189.6470  177.1610  142.5650 N   0  0  0  0  0  0  0  0  0  0  0  0
  189.0980  177.2900  143.8030 C   0  0  0  0  0  0  0  0  0  0  0  0
  187.1860  177.8010  145.1640 N   0  0  0  0  0  0  0  0  0  0  0  0
  187.0050  177.9070  142.7670 C   0  0  0  0  0  0  0  0  0  0  0  0
  187.6060  177.7630  141.5550 N   0  0  0  0  0  0  0  0  0  0  0  0
  187.8950  177.5750  146.3010 C   0  0  0  0  0  3  0  0  0  0  0  0
  182.4350  178.7030  140.9890 C   0  0  0  0  0  3  0  0  0  0  0  0
  182.8900  179.1470  139.7420 C   0  0  0  0  0  0  0  0  0  0  0  0
  185.1720  179.0430  140.5450 C   0  0  0  0  0  3  0  0  0  0  0  0
  183.3500  178.4260  142.0090 C   0  0  0  0  0  3  0  0  0  0  0  0
  184.7230  178.5920  141.7950 C   0  0  0  0  0  0  0  0  0  0  0  0
  184.2590  179.3210  139.5230 C   0  0  0  0  0  3  0  0  0  0  0  0
  181.9140  179.4580  138.6600 C   0  0  0  0  0  2  0  0  0  0  0  0
  182.1200  178.5210  137.4850 C   0  0  0  0  0  1  0  0  0  0  0  0
  189.5210  177.2600  140.0920 C   0  0  2  0  0  3  0  0  0  0  0  0
  191.0340  177.1940  140.1960 C   0  0  0  0  0  1  0  0  0  0  0  0
  189.0240  178.6550  139.0360 S   0  0  0  0  0  0  0  0  0  0  0  0
  187.9020  177.6190  138.0500 C   0  0  1  0  0  3  0  0  0  0  0  0
  186.9910  178.4280  137.3990 F   0  0  0  0  0  0  0  0  0  0  0  0
  188.6990  176.8210  137.0160 C   0  0  0  0  0  2  0  0  0  0  0  0
  188.4100  175.3780  137.0260 N   0  0  0  0  0  0  0  0  0  0  0  0
  186.0100  174.9530  136.9620 C   0  0  0  0  0  2  0  0  0  0  0  0
  187.2860  175.0620  136.1460 C   0  0  0  0  0  3  0  0  0  0  0  0
  186.7220  173.7000  136.5070 C   0  0  0  0  0  2  0  0  0  0  0  0
  189.8150  174.4760  136.5230 S   0  0  0  0  0  0  0  0  0  0  0  0
  189.9720  173.2420  137.3700 O   0  0  0  0  0  0  0  0  0  0  0  0
  189.6700  174.0710  135.0820 O   0  0  0  0  0  0  0  0  0  0  0  0
  191.2690  175.4930  136.7000 C   0  0  1  0  0  3  0  0  0  0  0  0
  193.3380  176.2480  135.4910 C   0  0  0  0  0  3  0  0  0  0  0  0
  193.4130  175.8180  137.8770 C   0  0  0  0  0  2  0  0  0  0  0  0
  193.9800  176.2580  136.6130 N   0  0  0  0  0  0  0  0  0  0  0  0
  192.2430  174.8590  137.6800 C   0  0  0  0  0  2  0  0  0  0  0  0
  191.9540  175.6640  135.3500 C   0  0  0  0  0  2  0  0  0  0  0  0
  2  9  1  0  0  0  0
  2  7  1  0  0  0  0
  3 13  1  0  0  0  0
  4 15  1  0  0  0  0
  4 11  2  0  0  0  0
  5 16  1  0  0  0  0
  5  9  2  0  0  0  0
  6  2  2  0  0  0  0
  8  5  1  0  0  0  0
 10  8  2  0  0  0  0
 10  6  1  0  0  0  0
 11 12  1  0  0  0  0
 12  3  2  0  0  0  0
 12  8  1  0  0  0  0
 13 16  2  0  0  0  0
 14  1  1  0  0  0  0
 14  3  1  0  0  0  0
 15 14  2  0  0  0  0
 17 20  1  0  0  0  0
 18 17  2  0  0  0  0
 19 21  1  0  0  0  0
 21 20  2  0  0  0  0
 21  1  1  0  0  0  0
 22 18  1  0  0  0  0
 22 19  2  0  0  0  0
 23 18  1  0  0  0  0
 24 23  1  0  0  0  0
 25 26  1  1  0  0  0
 25  4  1  0  0  0  0
 27 25  1  0  0  0  0
 28 29  1  6  0  0  0
 28 27  1  0  0  0  0
 30 31  1  0  0  0  0
 30 28  1  0  0  0  0
 33 34  1  0  0  0  0
 33 32  1  0  0  0  0
 33 31  1  0  0  0  0
 34 32  1  0  0  0  0
 35 31  1  0  0  0  0
 35 36  2  0  0  0  0
 37 35  2  0  0  0  0
 38 35  1  6  0  0  0
 38 42  1  0  0  0  0
 39 41  2  0  0  0  0
 41 40  1  0  0  0  0
 42 40  1  0  0  0  0
 43 39  1  0  0  0  0
 43 38  1  0  0  0  0
M  END
>  <MODEL>
2

>  <REMARK>
 VINA RESULT:      -8.7      2.818      5.885
  Name = 
  10 active torsions:
  status: ('A' for Active; 'I' for Inactive)
    1  A    between atoms: N_1  and  C_35
    2  A    between atoms: C_2  and  S_6
    3  A    between atoms: C_2  and  C_13
    4  A    between atoms: C_3  and  N_4
    5  A    between atoms: C_3  and  C_12
    6  A    between atoms: N_4  and  S_14
    7  A    between atoms: N_4  and  C_15
    8  A    between atoms: S_6  and  C_12
    9  A    between atoms: C_11  and  S_14
   10  A    between atoms: C_19  and  C_25
                            x       y       z     vdW  Elec       q    Type
                         _______ _______ _______ _____ _____    ______ ____

>  <TORSDO>
F 10

$$$$
=
 OpenBabel11052416283D

 43 48  0  0  1  0  0  0  0  0999 V2000
  185.6410  178.2940  142.7870 N   0  0  0  0  0  2  0  0  0  0  0  0
  191.3240  176.5480  147.2190 C   0  0  0  0  0  0  0  0  0  0  0  0
  187.7600  177.6570  143.8430 C   0  0  0  0  0  0  0  0  0  0  0  0
  188.9230  177.4020  141.3560 C   0  0  0  0  0  0  0  0  0  0  0  0
  189.2490  177.1660  146.1370 C   0  0  0  0  0  0  0  0  0  0  0  0
  191.9390  176.4120  145.9720 C   0  0  0  0  0  3  0  0  0  0  0  0
  192.0310  176.3140  148.3510 F   0  0  0  0  0  0  0  0  0  0  0  0
  189.8640  177.0310  144.8720 C   0  0  0  0  0  0  0  0  0  0  0  0
  189.9800  176.9250  147.3030 C   0  0  0  0  0  3  0  0  0  0  0  0
  191.2130  176.6520  144.8010 C   0  0  0  0  0  3  0  0  0  0  0  0
  189.6600  177.1610  142.4750 N   0  0  0  0  0  0  0  0  0  0  0  0
  189.1110  177.2790  143.7130 C   0  0  0  0  0  0  0  0  0  0  0  0
  187.1980  177.7790  145.0770 N   0  0  0  0  0  0  0  0  0  0  0  0
  187.0190  177.9040  142.6820 C   0  0  0  0  0  0  0  0  0  0  0  0
  187.6200  177.7700  141.4690 N   0  0  0  0  0  0  0  0  0  0  0  0
  187.9080  177.5440  146.2130 C   0  0  0  0  0  3  0  0  0  0  0  0
  182.4500  178.6980  140.9040 C   0  0  0  0  0  3  0  0  0  0  0  0
  182.9040  179.1660  139.6650 C   0  0  0  0  0  0  0  0  0  0  0  0
  185.1840  179.0710  140.4720 C   0  0  0  0  0  3  0  0  0  0  0  0
  183.3650  178.4140  141.9220 C   0  0  0  0  0  3  0  0  0  0  0  0
  184.7370  178.5960  141.7150 C   0  0  0  0  0  0  0  0  0  0  0  0
  184.2720  179.3550  139.4530 C   0  0  0  0  0  3  0  0  0  0  0  0
  181.9280  179.4850  138.5860 C   0  0  0  0  0  2  0  0  0  0  0  0
  181.8420  180.9860  138.3850 C   0  0  0  0  0  1  0  0  0  0  0  0
  189.5350  177.2800  140.0020 C   0  0  2  0  0  3  0  0  0  0  0  0
  191.0500  177.2850  140.1000 C   0  0  0  0  0  1  0  0  0  0  0  0
  188.9700  178.6360  138.9300 S   0  0  0  0  0  0  0  0  0  0  0  0
  188.7290  177.5270  137.5110 C   0  0  1  0  0  3  0  0  0  0  0  0
  189.6890  177.7970  136.5540 F   0  0  0  0  0  0  0  0  0  0  0  0
  188.8540  176.0700  137.9560 C   0  0  0  0  0  2  0  0  0  0  0  0
  189.4090  175.1770  136.9270 N   0  0  0  0  0  0  0  0  0  0  0  0
  191.8410  175.3170  137.0230 C   0  0  0  0  0  2  0  0  0  0  0  0
  190.6160  174.5070  137.4090 C   0  0  0  0  0  3  0  0  0  0  0  0
  191.4720  174.0860  136.2280 C   0  0  0  0  0  2  0  0  0  0  0  0
  188.2270  173.9820  136.4600 S   0  0  0  0  0  0  0  0  0  0  0  0
  188.1900  173.8440  134.9620 O   0  0  0  0  0  0  0  0  0  0  0  0
  188.5810  172.6530  137.0700 O   0  0  0  0  0  0  0  0  0  0  0  0
  186.6170  174.4810  137.0410 C   0  0  1  0  0  3  0  0  0  0  0  0
  184.3540  173.5870  137.6670 C   0  0  0  0  0  3  0  0  0  0  0  0
  184.5460  175.7190  136.5270 C   0  0  0  0  0  2  0  0  0  0  0  0
  183.8090  174.6620  137.1990 N   0  0  0  0  0  0  0  0  0  0  0  0
  185.8660  175.2220  135.9460 C   0  0  0  0  0  2  0  0  0  0  0  0
  185.8120  173.2570  137.4630 C   0  0  0  0  0  2  0  0  0  0  0  0
  2  9  1  0  0  0  0
  2  7  1  0  0  0  0
  3 13  1  0  0  0  0
  4 15  1  0  0  0  0
  4 11  2  0  0  0  0
  5 16  1  0  0  0  0
  5  9  2  0  0  0  0
  6  2  2  0  0  0  0
  8  5  1  0  0  0  0
 10  8  2  0  0  0  0
 10  6  1  0  0  0  0
 11 12  1  0  0  0  0
 12  3  2  0  0  0  0
 12  8  1  0  0  0  0
 13 16  2  0  0  0  0
 14  1  1  0  0  0  0
 14  3  1  0  0  0  0
 15 14  2  0  0  0  0
 17 20  1  0  0  0  0
 18 17  2  0  0  0  0
 19 21  1  0  0  0  0
 21 20  2  0  0  0  0
 21  1  1  0  0  0  0
 22 18  1  0  0  0  0
 22 19  2  0  0  0  0
 23 18  1  0  0  0  0
 24 23  1  0  0  0  0
 25 26  1  1  0  0  0
 25  4  1  0  0  0  0
 27 25  1  0  0  0  0
 28 29  1  6  0  0  0
 28 30  1  0  0  0  0
 28 27  1  0  0  0  0
 31 33  1  0  0  0  0
 31 30  1  0  0  0  0
 32 33  1  0  0  0  0
 34 32  1  0  0  0  0
 34 33  1  0  0  0  0
 35 31  1  0  0  0  0
 35 37  2  0  0  0  0
 36 35  2  0  0  0  0
 38 35  1  6  0  0  0
 38 43  1  0  0  0  0
 40 41  1  0  0  0  0
 41 39  2  0  0  0  0
 42 40  1  0  0  0  0
 42 38  1  0  0  0  0
 43 39  1  0  0  0  0
M  END
>  <MODEL>
3

>  <REMARK>
 VINA RESULT:      -8.6      2.636      5.784
  Name = 
  10 active torsions:
  status: ('A' for Active; 'I' for Inactive)
    1  A    between atoms: N_1  and  C_35
    2  A    between atoms: C_2  and  S_6
    3  A    between atoms: C_2  and  C_13
    4  A    between atoms: C_3  and  N_4
    5  A    between atoms: C_3  and  C_12
    6  A    between atoms: N_4  and  S_14
    7  A    between atoms: N_4  and  C_15
    8  A    between atoms: S_6  and  C_12
    9  A    between atoms: C_11  and  S_14
   10  A    between atoms: C_19  and  C_25
                            x       y       z     vdW  Elec       q    Type
                         _______ _______ _______ _____ _____    ______ ____

>  <TORSDO>
F 10

$$$$
=
 OpenBabel11052416283D

 43 48  0  0  1  0  0  0  0  0999 V2000
  186.4280  177.9220  144.9380 N   0  0  0  0  0  2  0  0  0  0  0  0
  181.0820  179.3780  140.0100 C   0  0  0  0  0  0  0  0  0  0  0  0
  185.0190  178.4170  142.9930 C   0  0  0  0  0  0  0  0  0  0  0  0
  187.2530  178.4200  141.3760 C   0  0  0  0  0  0  0  0  0  0  0  0
  182.5080  178.8960  141.9050 C   0  0  0  0  0  0  0  0  0  0  0  0
  182.1960  179.3840  139.1670 C   0  0  0  0  0  3  0  0  0  0  0  0
  179.8470  179.6090  139.5000 F   0  0  0  0  0  0  0  0  0  0  0  0
  183.6400  178.9000  141.0590 C   0  0  0  0  0  0  0  0  0  0  0  0
  181.2360  179.1340  141.3780 C   0  0  0  0  0  3  0  0  0  0  0  0
  183.4720  179.1470  139.6880 C   0  0  0  0  0  3  0  0  0  0  0  0
  186.0260  178.6540  140.8340 N   0  0  0  0  0  0  0  0  0  0  0  0
  184.9090  178.6590  141.6090 C   0  0  0  0  0  0  0  0  0  0  0  0
  183.9080  178.4190  143.7800 N   0  0  0  0  0  0  0  0  0  0  0  0
  186.2880  178.1750  143.5310 C   0  0  0  0  0  0  0  0  0  0  0  0
  187.3720  178.1820  142.7090 N   0  0  0  0  0  0  0  0  0  0  0  0
  182.6690  178.6510  143.2690 C   0  0  0  0  0  3  0  0  0  0  0  0
  189.9740  176.9850  145.5990 C   0  0  0  0  0  3  0  0  0  0  0  0
  190.0430  177.0840  146.9940 C   0  0  0  0  0  0  0  0  0  0  0  0
  187.7150  177.7480  147.0550 C   0  0  0  0  0  3  0  0  0  0  0  0
  188.7750  177.2640  144.9370 C   0  0  0  0  0  3  0  0  0  0  0  0
  187.6380  177.6450  145.6580 C   0  0  0  0  0  0  0  0  0  0  0  0
  188.9130  177.4700  147.7200 C   0  0  0  0  0  3  0  0  0  0  0  0
  191.3250  176.8040  147.6990 C   0  0  0  0  0  2  0  0  0  0  0  0
  192.0560  175.6610  147.0210 C   0  0  0  0  0  1  0  0  0  0  0  0
  188.4720  178.4060  140.5180 C   0  0  2  0  0  3  0  0  0  0  0  0
  188.0990  178.1670  139.0660 C   0  0  0  0  0  1  0  0  0  0  0  0
  189.6310  177.1260  141.0890 S   0  0  0  0  0  0  0  0  0  0  0  0
  190.7320  177.3670  139.6630 C   0  0  1  0  0  3  0  0  0  0  0  0
  191.9780  177.7630  140.1130 F   0  0  0  0  0  0  0  0  0  0  0  0
  190.8690  176.0610  138.8800 C   0  0  0  0  0  2  0  0  0  0  0  0
  191.3720  176.2380  137.5090 N   0  0  0  0  0  0  0  0  0  0  0  0
  193.7060  175.6980  137.9610 C   0  0  0  0  0  2  0  0  0  0  0  0
  192.4470  175.2900  137.2170 C   0  0  0  0  0  3  0  0  0  0  0  0
  193.5710  176.0010  136.4870 C   0  0  0  0  0  2  0  0  0  0  0  0
  190.0800  176.0250  136.3560 S   0  0  0  0  0  0  0  0  0  0  0  0
  189.4780  177.3560  135.9970 O   0  0  0  0  0  0  0  0  0  0  0  0
  190.6130  175.3720  135.1100 O   0  0  0  0  0  0  0  0  0  0  0  0
  188.8180  174.9850  137.0660 C   0  0  1  0  0  3  0  0  0  0  0  0
  187.9340  172.6330  137.0650 C   0  0  0  0  0  3  0  0  0  0  0  0
  186.4020  174.5070  137.2180 C   0  0  0  0  0  2  0  0  0  0  0  0
  186.7350  173.0920  137.2140 N   0  0  0  0  0  0  0  0  0  0  0  0
  187.4540  175.3480  136.5010 C   0  0  0  0  0  2  0  0  0  0  0  0
  189.1140  173.5210  136.7610 C   0  0  0  0  0  2  0  0  0  0  0  0
  1 21  1  0  0  0  0
  2  9  1  0  0  0  0
  3 14  1  0  0  0  0
  3 13  1  0  0  0  0
  4 15  1  0  0  0  0
  5 16  1  0  0  0  0
  6 10  1  0  0  0  0
  6  2  2  0  0  0  0
  7  2  1  0  0  0  0
  8 12  1  0  0  0  0
  8  5  1  0  0  0  0
  9  5  2  0  0  0  0
 10  8  2  0  0  0  0
 11  4  2  0  0  0  0
 11 12  1  0  0  0  0
 12  3  2  0  0  0  0
 14  1  1  0  0  0  0
 15 14  2  0  0  0  0
 16 13  2  0  0  0  0
 17 18  1  0  0  0  0
 18 23  1  0  0  0  0
 18 22  2  0  0  0  0
 19 22  1  0  0  0  0
 20 17  2  0  0  0  0
 20 21  1  0  0  0  0
 21 19  2  0  0  0  0
 24 23  1  0  0  0  0
 25 26  1  6  0  0  0
 25 27  1  0  0  0  0
 25  4  1  0  0  0  0
 28 29  1  1  0  0  0
 28 27  1  0  0  0  0
 30 28  1  0  0  0  0
 31 30  1  0  0  0  0
 33 31  1  0  0  0  0
 33 32  1  0  0  0  0
 34 33  1  0  0  0  0
 34 32  1  0  0  0  0
 35 31  1  0  0  0  0
 36 35  2  0  0  0  0
 37 35  2  0  0  0  0
 38 35  1  6  0  0  0
 39 41  2  0  0  0  0
 41 40  1  0  0  0  0
 42 38  1  0  0  0  0
 42 40  1  0  0  0  0
 43 39  1  0  0  0  0
 43 38  1  0  0  0  0
M  END
>  <MODEL>
4

>  <REMARK>
 VINA RESULT:      -8.4      3.159      7.758
  Name = 
  10 active torsions:
  status: ('A' for Active; 'I' for Inactive)
    1  A    between atoms: N_1  and  C_35
    2  A    between atoms: C_2  and  S_6
    3  A    between atoms: C_2  and  C_13
    4  A    between atoms: C_3  and  N_4
    5  A    between atoms: C_3  and  C_12
    6  A    between atoms: N_4  and  S_14
    7  A    between atoms: N_4  and  C_15
    8  A    between atoms: S_6  and  C_12
    9  A    between atoms: C_11  and  S_14
   10  A    between atoms: C_19  and  C_25
                            x       y       z     vdW  Elec       q    Type
                         _______ _______ _______ _____ _____    ______ ____

>  <TORSDO>
F 10

$$$$
=
 OpenBabel11052416283D

 43 48  0  0  1  0  0  0  0  0999 V2000
  185.6380  178.2600  142.8650 N   0  0  0  0  0  2  0  0  0  0  0  0
  191.3180  176.5910  147.3320 C   0  0  0  0  0  0  0  0  0  0  0  0
  187.7580  177.6450  143.9340 C   0  0  0  0  0  0  0  0  0  0  0  0
  188.9290  177.3670  141.4530 C   0  0  0  0  0  0  0  0  0  0  0  0
  189.2430  177.1880  146.2370 C   0  0  0  0  0  0  0  0  0  0  0  0
  191.9370  176.4450  146.0880 C   0  0  0  0  0  3  0  0  0  0  0  0
  192.0230  176.3740  148.4680 F   0  0  0  0  0  0  0  0  0  0  0  0
  189.8620  177.0410  144.9750 C   0  0  0  0  0  0  0  0  0  0  0  0
  189.9720  176.9630  147.4080 C   0  0  0  0  0  3  0  0  0  0  0  0
  191.2130  176.6670  144.9130 C   0  0  0  0  0  3  0  0  0  0  0  0
  189.6640  177.1420  142.5760 N   0  0  0  0  0  0  0  0  0  0  0  0
  189.1110  177.2720  143.8120 C   0  0  0  0  0  0  0  0  0  0  0  0
  187.1920  177.7780  145.1650 N   0  0  0  0  0  0  0  0  0  0  0  0
  187.0190  177.8750  142.7680 C   0  0  0  0  0  0  0  0  0  0  0  0
  187.6240  177.7300  141.5580 N   0  0  0  0  0  0  0  0  0  0  0  0
  187.9000  177.5600  146.3060 C   0  0  0  0  0  3  0  0  0  0  0  0
  182.4510  178.6330  140.9710 C   0  0  0  0  0  3  0  0  0  0  0  0
  182.9060  179.0830  139.7260 C   0  0  0  0  0  0  0  0  0  0  0  0
  185.1850  179.0030  140.5390 C   0  0  0  0  0  3  0  0  0  0  0  0
  183.3640  178.3650  141.9940 C   0  0  0  0  0  3  0  0  0  0  0  0
  184.7360  178.5460  141.7870 C   0  0  0  0  0  0  0  0  0  0  0  0
  184.2750  179.2720  139.5130 C   0  0  0  0  0  3  0  0  0  0  0  0
  181.9320  179.3850  138.6400 C   0  0  0  0  0  2  0  0  0  0  0  0
  181.9010  180.8770  138.3650 C   0  0  0  0  0  1  0  0  0  0  0  0
  189.5450  177.2320  140.1020 C   0  0  2  0  0  3  0  0  0  0  0  0
  191.0580  177.1630  140.2120 C   0  0  0  0  0  1  0  0  0  0  0  0
  189.0550  178.6280  139.0440 S   0  0  0  0  0  0  0  0  0  0  0  0
  188.9840  177.5860  137.5570 C   0  0  1  0  0  3  0  0  0  0  0  0
  190.2570  177.4480  137.0360 F   0  0  0  0  0  0  0  0  0  0  0  0
  188.4300  176.2050  137.9100 C   0  0  0  0  0  2  0  0  0  0  0  0
  187.4660  175.6810  136.9300 N   0  0  0  0  0  0  0  0  0  0  0  0
  186.0390  177.4160  135.9830 C   0  0  0  0  0  2  0  0  0  0  0  0
  187.3080  176.6010  135.8050 C   0  0  0  0  0  3  0  0  0  0  0  0
  186.0550  176.2460  135.0260 C   0  0  0  0  0  2  0  0  0  0  0  0
  187.9870  174.1240  136.3400 S   0  0  0  0  0  0  0  0  0  0  0  0
  188.3220  174.2070  134.8760 O   0  0  0  0  0  0  0  0  0  0  0  0
  189.2040  173.6740  137.1010 O   0  0  0  0  0  0  0  0  0  0  0  0
  186.6800  172.9330  136.5730 C   0  0  1  0  0  3  0  0  0  0  0  0
  184.8930  171.6630  135.3470 C   0  0  0  0  0  3  0  0  0  0  0  0
  184.4800  172.4770  137.5930 C   0  0  0  0  0  2  0  0  0  0  0  0
  184.1320  171.7430  136.3880 N   0  0  0  0  0  0  0  0  0  0  0  0
  185.5190  173.5630  137.3260 C   0  0  0  0  0  2  0  0  0  0  0  0
  186.1880  172.4270  135.2220 C   0  0  0  0  0  2  0  0  0  0  0  0
  2  9  1  0  0  0  0
  2  7  1  0  0  0  0
  3 13  1  0  0  0  0
  4 15  1  0  0  0  0
  4 11  2  0  0  0  0
  5 16  1  0  0  0  0
  5  9  2  0  0  0  0
  6  2  2  0  0  0  0
  8  5  1  0  0  0  0
 10  8  2  0  0  0  0
 10  6  1  0  0  0  0
 11 12  1  0  0  0  0
 12  3  2  0  0  0  0
 12  8  1  0  0  0  0
 13 16  2  0  0  0  0
 14  1  1  0  0  0  0
 14  3  1  0  0  0  0
 15 14  2  0  0  0  0
 17 20  1  0  0  0  0
 18 17  2  0  0  0  0
 19 21  1  0  0  0  0
 21 20  2  0  0  0  0
 21  1  1  0  0  0  0
 22 18  1  0  0  0  0
 22 19  2  0  0  0  0
 23 18  1  0  0  0  0
 24 23  1  0  0  0  0
 25 26  1  1  0  0  0
 25  4  1  0  0  0  0
 27 25  1  0  0  0  0
 28 29  1  1  0  0  0
 28 30  1  0  0  0  0
 28 27  1  0  0  0  0
 31 30  1  0  0  0  0
 33 32  1  0  0  0  0
 33 31  1  0  0  0  0
 34 33  1  0  0  0  0
 34 32  1  0  0  0  0
 35 31  1  0  0  0  0
 35 37  2  0  0  0  0
 36 35  2  0  0  0  0
 38 35  1  6  0  0  0
 38 42  1  0  0  0  0
 39 41  2  0  0  0  0
 41 40  1  0  0  0  0
 42 40  1  0  0  0  0
 43 39  1  0  0  0  0
 43 38  1  0  0  0  0
M  END
>  <MODEL>
5

>  <REMARK>
 VINA RESULT:      -8.4      2.792      5.291
  Name = 
  10 active torsions:
  status: ('A' for Active; 'I' for Inactive)
    1  A    between atoms: N_1  and  C_35
    2  A    between atoms: C_2  and  S_6
    3  A    between atoms: C_2  and  C_13
    4  A    between atoms: C_3  and  N_4
    5  A    between atoms: C_3  and  C_12
    6  A    between atoms: N_4  and  S_14
    7  A    between atoms: N_4  and  C_15
    8  A    between atoms: S_6  and  C_12
    9  A    between atoms: C_11  and  S_14
   10  A    between atoms: C_19  and  C_25
                            x       y       z     vdW  Elec       q    Type
                         _______ _______ _______ _____ _____    ______ ____

>  <TORSDO>
F 10

$$$$
=
 OpenBabel11052416283D

 43 48  0  0  1  0  0  0  0  0999 V2000
  184.7230  178.2900  144.1840 N   0  0  0  0  0  2  0  0  0  0  0  0
  191.3080  176.6730  147.1880 C   0  0  0  0  0  0  0  0  0  0  0  0
  187.0620  177.7920  144.7280 C   0  0  0  0  0  0  0  0  0  0  0  0
  187.7420  178.0810  142.0720 C   0  0  0  0  0  0  0  0  0  0  0  0
  189.0100  177.1630  146.6070 C   0  0  0  0  0  0  0  0  0  0  0  0
  191.6810  176.8150  145.8480 C   0  0  0  0  0  3  0  0  0  0  0  0
  192.2410  176.3670  148.1210 F   0  0  0  0  0  0  0  0  0  0  0  0
  189.3790  177.3080  145.2510 C   0  0  0  0  0  0  0  0  0  0  0  0
  189.9730  176.8480  147.5680 C   0  0  0  0  0  3  0  0  0  0  0  0
  190.7210  177.1310  144.8820 C   0  0  0  0  0  3  0  0  0  0  0  0
  188.7030  177.7740  142.9850 N   0  0  0  0  0  0  0  0  0  0  0  0
  188.3940  177.6260  144.3020 C   0  0  0  0  0  0  0  0  0  0  0  0
  186.7400  177.6460  146.0430 N   0  0  0  0  0  0  0  0  0  0  0  0
  186.0880  178.1120  143.7750 C   0  0  0  0  0  0  0  0  0  0  0  0
  186.4540  178.2480  142.4720 N   0  0  0  0  0  0  0  0  0  0  0  0
  187.6760  177.3390  146.9800 C   0  0  0  0  0  3  0  0  0  0  0  0
  181.2870  179.3410  143.1980 C   0  0  0  0  0  3  0  0  0  0  0  0
  181.3630  179.3020  141.8010 C   0  0  0  0  0  0  0  0  0  0  0  0
  183.6740  178.5960  141.9540 C   0  0  0  0  0  3  0  0  0  0  0  0
  182.4020  179.0030  143.9690 C   0  0  0  0  0  3  0  0  0  0  0  0
  183.6020  178.6280  143.3550 C   0  0  0  0  0  0  0  0  0  0  0  0
  182.5600  178.9330  141.1800 C   0  0  0  0  0  3  0  0  0  0  0  0
  180.1790  179.6790  140.9780 C   0  0  0  0  0  2  0  0  0  0  0  0
  180.5980  179.9290  139.5420 C   0  0  0  0  0  1  0  0  0  0  0  0
  188.0900  178.2520  140.6320 C   0  0  2  0  0  3  0  0  0  0  0  0
  186.8380  178.4780  139.8040 C   0  0  0  0  0  1  0  0  0  0  0  0
  188.9910  176.7940  140.0240 S   0  0  0  0  0  0  0  0  0  0  0  0
  190.1530  177.8070  139.0610 C   0  0  1  0  0  3  0  0  0  0  0  0
  191.4440  177.5260  139.4650 F   0  0  0  0  0  0  0  0  0  0  0  0
  190.0100  177.4950  137.5710 C   0  0  0  0  0  2  0  0  0  0  0  0
  189.2810  176.2480  137.2900 N   0  0  0  0  0  0  0  0  0  0  0  0
  186.9150  176.6950  136.9070 C   0  0  0  0  0  2  0  0  0  0  0  0
  188.2670  176.4540  136.2580 C   0  0  0  0  0  3  0  0  0  0  0  0
  187.2380  175.3400  136.3220 C   0  0  0  0  0  2  0  0  0  0  0  0
  190.3880  175.0010  136.7780 S   0  0  0  0  0  0  0  0  0  0  0  0
  190.1810  173.7540  137.5920 O   0  0  0  0  0  0  0  0  0  0  0  0
  190.1600  174.6860  135.3240 O   0  0  0  0  0  0  0  0  0  0  0  0
  192.0640  175.5690  136.9950 C   0  0  1  0  0  3  0  0  0  0  0  0
  194.1800  176.0800  135.7400 C   0  0  0  0  0  3  0  0  0  0  0  0
  194.2870  175.0800  137.9470 C   0  0  0  0  0  2  0  0  0  0  0  0
  194.8700  175.6650  136.7510 N   0  0  0  0  0  0  0  0  0  0  0  0
  192.8980  174.5040  137.6880 C   0  0  0  0  0  2  0  0  0  0  0  0
  192.6860  175.8940  135.6420 C   0  0  0  0  0  2  0  0  0  0  0  0
  2  9  1  0  0  0  0
  2  7  1  0  0  0  0
  3 13  1  0  0  0  0
  4 15  1  0  0  0  0
  4 11  2  0  0  0  0
  5 16  1  0  0  0  0
  5  9  2  0  0  0  0
  6  2  2  0  0  0  0
  8  5  1  0  0  0  0
 10  8  2  0  0  0  0
 10  6  1  0  0  0  0
 11 12  1  0  0  0  0
 12  3  2  0  0  0  0
 12  8  1  0  0  0  0
 13 16  2  0  0  0  0
 14  1  1  0  0  0  0
 14  3  1  0  0  0  0
 15 14  2  0  0  0  0
 17 20  1  0  0  0  0
 18 17  2  0  0  0  0
 19 21  1  0  0  0  0
 21 20  2  0  0  0  0
 21  1  1  0  0  0  0
 22 18  1  0  0  0  0
 22 19  2  0  0  0  0
 23 18  1  0  0  0  0
 24 23  1  0  0  0  0
 25 26  1  6  0  0  0
 25  4  1  0  0  0  0
 27 25  1  0  0  0  0
 28 29  1  1  0  0  0
 28 27  1  0  0  0  0
 30 28  1  0  0  0  0
 31 30  1  0  0  0  0
 33 34  1  0  0  0  0
 33 32  1  0  0  0  0
 33 31  1  0  0  0  0
 34 32  1  0  0  0  0
 35 31  1  0  0  0  0
 35 36  2  0  0  0  0
 37 35  2  0  0  0  0
 38 35  1  6  0  0  0
 38 42  1  0  0  0  0
 39 41  2  0  0  0  0
 41 40  1  0  0  0  0
 42 40  1  0  0  0  0
 43 39  1  0  0  0  0
 43 38  1  0  0  0  0
M  END
>  <MODEL>
6

>  <REMARK>
 VINA RESULT:      -8.4      3.370      6.711
  Name = 
  10 active torsions:
  status: ('A' for Active; 'I' for Inactive)
    1  A    between atoms: N_1  and  C_35
    2  A    between atoms: C_2  and  S_6
    3  A    between atoms: C_2  and  C_13
    4  A    between atoms: C_3  and  N_4
    5  A    between atoms: C_3  and  C_12
    6  A    between atoms: N_4  and  S_14
    7  A    between atoms: N_4  and  C_15
    8  A    between atoms: S_6  and  C_12
    9  A    between atoms: C_11  and  S_14
   10  A    between atoms: C_19  and  C_25
                            x       y       z     vdW  Elec       q    Type
                         _______ _______ _______ _____ _____    ______ ____

>  <TORSDO>
F 10

$$$$
=
 OpenBabel11052416283D

 43 48  0  0  1  0  0  0  0  0999 V2000
  186.8520  177.8750  144.5020 N   0  0  0  0  0  2  0  0  0  0  0  0
  181.9640  179.3280  139.1180 C   0  0  0  0  0  0  0  0  0  0  0  0
  185.6210  178.3660  142.4380 C   0  0  0  0  0  0  0  0  0  0  0  0
  187.9870  178.3510  141.0230 C   0  0  0  0  0  0  0  0  0  0  0  0
  183.2170  178.8490  141.1330 C   0  0  0  0  0  0  0  0  0  0  0  0
  183.1480  179.3250  138.3760 C   0  0  0  0  0  3  0  0  0  0  0  0
  180.7800  179.5610  138.5020 F   0  0  0  0  0  0  0  0  0  0  0  0
  184.4180  178.8450  140.3890 C   0  0  0  0  0  0  0  0  0  0  0  0
  181.9970  179.0900  140.4960 C   0  0  0  0  0  3  0  0  0  0  0  0
  184.3720  179.0860  139.0070 C   0  0  0  0  0  3  0  0  0  0  0  0
  186.8140  178.5880  140.3750 N   0  0  0  0  0  0  0  0  0  0  0  0
  185.6330  178.6010  141.0490 C   0  0  0  0  0  0  0  0  0  0  0  0
  184.4460  178.3760  143.1250 N   0  0  0  0  0  0  0  0  0  0  0  0
  186.8370  178.1210  143.0870 C   0  0  0  0  0  0  0  0  0  0  0  0
  187.9880  178.1200  142.3620 N   0  0  0  0  0  0  0  0  0  0  0  0
  183.2570  178.6100  142.5070 C   0  0  0  0  0  3  0  0  0  0  0  0
  190.3710  177.1290  145.4750 C   0  0  0  0  0  3  0  0  0  0  0  0
  190.2730  177.0450  146.8690 C   0  0  0  0  0  0  0  0  0  0  0  0
  187.9030  177.5160  146.7240 C   0  0  0  0  0  3  0  0  0  0  0  0
  189.2350  177.4020  144.7090 C   0  0  0  0  0  3  0  0  0  0  0  0
  187.9930  177.5960  145.3250 C   0  0  0  0  0  0  0  0  0  0  0  0
  189.0380  177.2440  147.4920 C   0  0  0  0  0  3  0  0  0  0  0  0
  191.4880  176.7710  147.6870 C   0  0  0  0  0  2  0  0  0  0  0  0
  192.1980  175.5350  147.1710 C   0  0  0  0  0  1  0  0  0  0  0  0
  189.2770  178.3290  140.2750 C   0  0  2  0  0  3  0  0  0  0  0  0
  189.0340  178.5300  138.7900 C   0  0  0  0  0  1  0  0  0  0  0  0
  190.1450  176.7570  140.5630 S   0  0  0  0  0  0  0  0  0  0  0  0
  190.8750  176.7570  138.8980 C   0  0  1  0  0  3  0  0  0  0  0  0
  192.1540  177.2780  138.9630 F   0  0  0  0  0  0  0  0  0  0  0  0
  190.9370  175.3300  138.3520 C   0  0  0  0  0  2  0  0  0  0  0  0
  190.9270  175.2520  136.8830 N   0  0  0  0  0  0  0  0  0  0  0  0
  188.8940  176.1760  135.9060 C   0  0  0  0  0  2  0  0  0  0  0  0
  190.3340  176.4540  136.2990 C   0  0  0  0  0  3  0  0  0  0  0  0
  189.9730  176.1910  134.8480 C   0  0  0  0  0  2  0  0  0  0  0  0
  192.5490  175.0490  136.2760 S   0  0  0  0  0  0  0  0  0  0  0  0
  192.5270  174.3000  134.9710 O   0  0  0  0  0  0  0  0  0  0  0  0
  193.1830  176.3970  136.0600 O   0  0  0  0  0  0  0  0  0  0  0  0
  193.5170  174.1320  137.4600 C   0  0  1  0  0  3  0  0  0  0  0  0
  195.5730  174.2710  138.8970 C   0  0  0  0  0  3  0  0  0  0  0  0
  194.9650  172.1720  137.8450 C   0  0  0  0  0  2  0  0  0  0  0  0
  195.7740  173.0070  138.7170 N   0  0  0  0  0  0  0  0  0  0  0  0
  194.2440  172.9860  136.7750 C   0  0  0  0  0  2  0  0  0  0  0  0
  194.5370  175.0490  138.1240 C   0  0  0  0  0  2  0  0  0  0  0  0
  1 21  1  0  0  0  0
  2  9  1  0  0  0  0
  3 14  1  0  0  0  0
  3 13  1  0  0  0  0
  4 15  1  0  0  0  0
  5 16  1  0  0  0  0
  6 10  1  0  0  0  0
  6  2  2  0  0  0  0
  7  2  1  0  0  0  0
  8 12  1  0  0  0  0
  8  5  1  0  0  0  0
  9  5  2  0  0  0  0
 10  8  2  0  0  0  0
 11  4  2  0  0  0  0
 11 12  1  0  0  0  0
 12  3  2  0  0  0  0
 14  1  1  0  0  0  0
 15 14  2  0  0  0  0
 16 13  2  0  0  0  0
 17 18  1  0  0  0  0
 18 22  2  0  0  0  0
 18 23  1  0  0  0  0
 19 22  1  0  0  0  0
 20 21  1  0  0  0  0
 20 17  2  0  0  0  0
 21 19  2  0  0  0  0
 24 23  1  0  0  0  0
 25 26  1  6  0  0  0
 25 27  1  0  0  0  0
 25  4  1  0  0  0  0
 28 29  1  1  0  0  0
 28 27  1  0  0  0  0
 30 28  1  0  0  0  0
 31 30  1  0  0  0  0
 32 33  1  0  0  0  0
 33 31  1  0  0  0  0
 34 32  1  0  0  0  0
 34 33  1  0  0  0  0
 35 31  1  0  0  0  0
 36 35  2  0  0  0  0
 37 35  2  0  0  0  0
 38 35  1  6  0  0  0
 38 43  1  0  0  0  0
 40 41  1  0  0  0  0
 41 39  2  0  0  0  0
 42 38  1  0  0  0  0
 42 40  1  0  0  0  0
 43 39  1  0  0  0  0
M  END
>  <MODEL>
7

>  <REMARK>
 VINA RESULT:      -8.2      3.982      8.391
  Name = 
  10 active torsions:
  status: ('A' for Active; 'I' for Inactive)
    1  A    between atoms: N_1  and  C_35
    2  A    between atoms: C_2  and  S_6
    3  A    between atoms: C_2  and  C_13
    4  A    between atoms: C_3  and  N_4
    5  A    between atoms: C_3  and  C_12
    6  A    between atoms: N_4  and  S_14
    7  A    between atoms: N_4  and  C_15
    8  A    between atoms: S_6  and  C_12
    9  A    between atoms: C_11  and  S_14
   10  A    between atoms: C_19  and  C_25
                            x       y       z     vdW  Elec       q    Type
                         _______ _______ _______ _____ _____    ______ ____

>  <TORSDO>
F 10

$$$$
=
 OpenBabel11052416283D

 43 48  0  0  1  0  0  0  0  0999 V2000
  189.7480  177.2040  140.0260 N   0  0  0  0  0  2  0  0  0  0  0  0
  191.0520  176.7030  147.3090 C   0  0  0  0  0  0  0  0  0  0  0  0
  189.7250  177.1830  142.4790 C   0  0  0  0  0  0  0  0  0  0  0  0
  187.0930  178.0030  142.4610 C   0  0  0  0  0  0  0  0  0  0  0  0
  191.0340  176.7430  144.8890 C   0  0  0  0  0  0  0  0  0  0  0  0
  189.7170  177.1170  147.3300 C   0  0  0  0  0  3  0  0  0  0  0  0
  191.7090  176.4820  148.4730 F   0  0  0  0  0  0  0  0  0  0  0  0
  189.6840  177.1620  144.9020 C   0  0  0  0  0  0  0  0  0  0  0  0
  191.7100  176.5150  146.0900 C   0  0  0  0  0  3  0  0  0  0  0  0
  189.0350  177.3470  146.1320 C   0  0  0  0  0  3  0  0  0  0  0  0
  187.7260  177.7890  143.6470 N   0  0  0  0  0  0  0  0  0  0  0  0
  189.0240  177.3850  143.6840 C   0  0  0  0  0  0  0  0  0  0  0  0
  191.0250  176.7780  142.5010 N   0  0  0  0  0  0  0  0  0  0  0  0
  189.0560  177.4050  141.2690 C   0  0  0  0  0  0  0  0  0  0  0  0
  187.7580  177.8090  141.2920 N   0  0  0  0  0  0  0  0  0  0  0  0
  191.6850  176.5560  143.6690 C   0  0  0  0  0  3  0  0  0  0  0  0
  188.3600  176.3470  136.6750 C   0  0  0  0  0  3  0  0  0  0  0  0
  188.1930  177.6130  136.1000 C   0  0  0  0  0  0  0  0  0  0  0  0
  189.0480  178.6360  138.1210 C   0  0  0  0  0  3  0  0  0  0  0  0
  188.8750  176.2290  137.9690 C   0  0  0  0  0  3  0  0  0  0  0  0
  189.2240  177.3700  138.7010 C   0  0  0  0  0  0  0  0  0  0  0  0
  188.5340  178.7570  136.8270 C   0  0  0  0  0  3  0  0  0  0  0  0
  187.6290  177.7390  134.7280 C   0  0  0  0  0  2  0  0  0  0  0  0
  186.1170  177.6300  134.7710 C   0  0  0  0  0  1  0  0  0  0  0  0
  185.6670  178.4370  142.4300 C   0  0  2  0  0  3  0  0  0  0  0  0
  185.4180  179.3680  141.2560 C   0  0  0  0  0  1  0  0  0  0  0  0
  185.2240  179.2620  143.9900 S   0  0  0  0  0  0  0  0  0  0  0  0
  183.5090  178.6660  143.9170 C   0  0  1  0  0  3  0  0  0  0  0  0
  182.8710  178.9700  145.1040 F   0  0  0  0  0  0  0  0  0  0  0  0
  182.7690  179.3380  142.7580 C   0  0  0  0  0  2  0  0  0  0  0  0
  181.4730  178.7190  142.4390 N   0  0  0  0  0  0  0  0  0  0  0  0
  179.8850  178.4160  144.2640 C   0  0  0  0  0  2  0  0  0  0  0  0
  180.3890  179.3570  143.1840 C   0  0  0  0  0  3  0  0  0  0  0  0
  179.1030  178.5780  142.9810 C   0  0  0  0  0  2  0  0  0  0  0  0
  181.1520  178.8340  140.7290 S   0  0  0  0  0  0  0  0  0  0  0  0
  179.9950  179.7620  140.4770 O   0  0  0  0  0  0  0  0  0  0  0  0
  182.3690  179.3580  140.0170 O   0  0  0  0  0  0  0  0  0  0  0  0
  180.7530  177.2170  140.0900 C   0  0  1  0  0  3  0  0  0  0  0  0
  181.7280  175.2640  138.8460 C   0  0  0  0  0  3  0  0  0  0  0  0
  179.4290  175.9290  138.4540 C   0  0  0  0  0  2  0  0  0  0  0  0
  180.5840  175.0650  138.2790 N   0  0  0  0  0  0  0  0  0  0  0  0
  179.8240  177.3360  138.8920 C   0  0  0  0  0  2  0  0  0  0  0  0
  182.0260  176.4930  139.6680 C   0  0  0  0  0  2  0  0  0  0  0  0
  1 14  1  0  0  0  0
  2  6  1  0  0  0  0
  2  7  1  0  0  0  0
  3 13  2  0  0  0  0
  3 12  1  0  0  0  0
  4 11  2  0  0  0  0
  5  8  1  0  0  0  0
  5  9  1  0  0  0  0
  8 10  1  0  0  0  0
  9  2  2  0  0  0  0
 10  6  2  0  0  0  0
 11 12  1  0  0  0  0
 12  8  2  0  0  0  0
 13 16  1  0  0  0  0
 14 15  2  0  0  0  0
 14  3  1  0  0  0  0
 15  4  1  0  0  0  0
 16  5  2  0  0  0  0
 17 20  1  0  0  0  0
 18 17  2  0  0  0  0
 18 22  1  0  0  0  0
 19 21  1  0  0  0  0
 20 21  2  0  0  0  0
 21  1  1  0  0  0  0
 22 19  2  0  0  0  0
 23 24  1  0  0  0  0
 23 18  1  0  0  0  0
 25 26  1  6  0  0  0
 25  4  1  0  0  0  0
 25 27  1  0  0  0  0
 28 27  1  0  0  0  0
 28 29  1  1  0  0  0
 30 28  1  0  0  0  0
 31 30  1  0  0  0  0
 31 33  1  0  0  0  0
 33 32  1  0  0  0  0
 34 33  1  0  0  0  0
 34 32  1  0  0  0  0
 35 31  1  0  0  0  0
 36 35  2  0  0  0  0
 37 35  2  0  0  0  0
 38 35  1  6  0  0  0
 39 43  1  0  0  0  0
 40 42  1  0  0  0  0
 41 40  1  0  0  0  0
 41 39  2  0  0  0  0
 42 38  1  0  0  0  0
 43 38  1  0  0  0  0
M  END
>  <MODEL>
8

>  <REMARK>
 VINA RESULT:      -7.8      2.732      3.759
  Name = 
  10 active torsions:
  status: ('A' for Active; 'I' for Inactive)
    1  A    between atoms: N_1  and  C_35
    2  A    between atoms: C_2  and  S_6
    3  A    between atoms: C_2  and  C_13
    4  A    between atoms: C_3  and  N_4
    5  A    between atoms: C_3  and  C_12
    6  A    between atoms: N_4  and  S_14
    7  A    between atoms: N_4  and  C_15
    8  A    between atoms: S_6  and  C_12
    9  A    between atoms: C_11  and  S_14
   10  A    between atoms: C_19  and  C_25
                            x       y       z     vdW  Elec       q    Type
                         _______ _______ _______ _____ _____    ______ ____

>  <TORSDO>
F 10

$$$$
=
 OpenBabel11052416283D

 43 48  0  0  1  0  0  0  0  0999 V2000
  189.3800  177.1700  143.2450 N   0  0  0  0  0  2  0  0  0  0  0  0
  189.8090  177.1840  135.8410 C   0  0  0  0  0  0  0  0  0  0  0  0
  189.0950  177.3890  140.8190 C   0  0  0  0  0  0  0  0  0  0  0  0
  186.6630  178.6260  141.2170 C   0  0  0  0  0  0  0  0  0  0  0  0
  190.0490  176.9820  138.2420 C   0  0  0  0  0  0  0  0  0  0  0  0
  188.5740  177.8150  136.0140 C   0  0  0  0  0  3  0  0  0  0  0  0
  190.2940  176.9760  134.5940 F   0  0  0  0  0  0  0  0  0  0  0  0
  188.8000  177.6190  138.4240 C   0  0  0  0  0  0  0  0  0  0  0  0
  190.5470  176.7680  136.9540 C   0  0  0  0  0  3  0  0  0  0  0  0
  188.0690  178.0310  137.2990 C   0  0  0  0  0  3  0  0  0  0  0  0
  187.1230  178.4320  139.9510 N   0  0  0  0  0  0  0  0  0  0  0  0
  188.3190  177.8240  139.7260 C   0  0  0  0  0  0  0  0  0  0  0  0
  190.2940  176.7800  140.6090 N   0  0  0  0  0  0  0  0  0  0  0  0
  188.6070  177.6010  142.1140 C   0  0  0  0  0  0  0  0  0  0  0  0
  187.4040  178.2140  142.2790 N   0  0  0  0  0  0  0  0  0  0  0  0
  190.7810  176.5700  139.3560 C   0  0  0  0  0  3  0  0  0  0  0  0
  187.3330  177.5840  146.3310 C   0  0  0  0  0  3  0  0  0  0  0  0
  188.3150  177.5960  147.3290 C   0  0  0  0  0  0  0  0  0  0  0  0
  190.0260  177.3190  145.6380 C   0  0  0  0  0  3  0  0  0  0  0  0
  187.7000  177.4440  144.9900 C   0  0  0  0  0  3  0  0  0  0  0  0
  189.0470  177.3120  144.6330 C   0  0  0  0  0  0  0  0  0  0  0  0
  189.6620  177.4590  146.9800 C   0  0  0  0  0  3  0  0  0  0  0  0
  187.9220  177.7280  148.7600 C   0  0  0  0  0  2  0  0  0  0  0  0
  188.9010  178.6280  149.4900 C   0  0  0  0  0  1  0  0  0  0  0  0
  185.3550  179.3020  141.4540 C   0  0  2  0  0  3  0  0  0  0  0  0
  184.6240  178.6560  142.6170 C   0  0  0  0  0  1  0  0  0  0  0  0
  184.3300  179.2360  139.9530 S   0  0  0  0  0  0  0  0  0  0  0  0
  183.0770  178.1900  140.7520 C   0  0  1  0  0  3  0  0  0  0  0  0
  181.9730  178.9600  141.0630 F   0  0  0  0  0  0  0  0  0  0  0  0
  182.6570  177.0610  139.8090 C   0  0  0  0  0  2  0  0  0  0  0  0
  182.4560  177.4910  138.4160 N   0  0  0  0  0  0  0  0  0  0  0  0
  184.5420  176.9370  137.2820 C   0  0  0  0  0  2  0  0  0  0  0  0
  183.0850  176.5580  137.4830 C   0  0  0  0  0  3  0  0  0  0  0  0
  183.5180  177.3000  136.2320 C   0  0  0  0  0  2  0  0  0  0  0  0
  180.7530  177.6130  138.0590 S   0  0  0  0  0  0  0  0  0  0  0  0
  180.3630  176.5890  137.0290 O   0  0  0  0  0  0  0  0  0  0  0  0
  179.9530  177.3820  139.3130 O   0  0  0  0  0  0  0  0  0  0  0  0
  180.3940  179.2420  137.4290 C   0  0  1  0  0  3  0  0  0  0  0  0
  180.5410  180.6610  135.3610 C   0  0  0  0  0  3  0  0  0  0  0  0
  180.9270  181.6480  137.5430 C   0  0  0  0  0  2  0  0  0  0  0  0
  180.7690  181.6980  136.0990 N   0  0  0  0  0  0  0  0  0  0  0  0
  181.3470  180.2630  138.0280 C   0  0  0  0  0  2  0  0  0  0  0  0
  180.5310  179.2560  135.9110 C   0  0  0  0  0  2  0  0  0  0  0  0
  1 21  1  0  0  0  0
  2  6  2  0  0  0  0
  2  9  1  0  0  0  0
  3 14  1  0  0  0  0
  4 25  1  0  0  0  0
  4 15  1  0  0  0  0
  5  8  1  0  0  0  0
  5 16  1  0  0  0  0
  6 10  1  0  0  0  0
  7  2  1  0  0  0  0
  8 12  1  0  0  0  0
  9  5  2  0  0  0  0
 10  8  2  0  0  0  0
 11  4  2  0  0  0  0
 12 11  1  0  0  0  0
 12  3  2  0  0  0  0
 13  3  1  0  0  0  0
 14 15  2  0  0  0  0
 14  1  1  0  0  0  0
 16 13  2  0  0  0  0
 17 18  1  0  0  0  0
 18 23  1  0  0  0  0
 19 22  1  0  0  0  0
 20 17  2  0  0  0  0
 21 20  1  0  0  0  0
 21 19  2  0  0  0  0
 22 18  2  0  0  0  0
 23 24  1  0  0  0  0
 25 26  1  1  0  0  0
 27 28  1  0  0  0  0
 27 25  1  0  0  0  0
 28 29  1  6  0  0  0
 30 28  1  0  0  0  0
 31 30  1  0  0  0  0
 32 33  1  0  0  0  0
 33 31  1  0  0  0  0
 34 32  1  0  0  0  0
 34 33  1  0  0  0  0
 35 31  1  0  0  0  0
 35 37  2  0  0  0  0
 36 35  2  0  0  0  0
 38 42  1  0  0  0  0
 38 35  1  1  0  0  0
 39 43  1  0  0  0  0
 39 41  2  0  0  0  0
 40 42  1  0  0  0  0
 41 40  1  0  0  0  0
 43 38  1  0  0  0  0
M  END
>  <MODEL>
9

>  <REMARK>
 VINA RESULT:      -7.7      2.492      7.235
  Name = 
  10 active torsions:
  status: ('A' for Active; 'I' for Inactive)
    1  A    between atoms: N_1  and  C_35
    2  A    between atoms: C_2  and  S_6
    3  A    between atoms: C_2  and  C_13
    4  A    between atoms: C_3  and  N_4
    5  A    between atoms: C_3  and  C_12
    6  A    between atoms: N_4  and  S_14
    7  A    between atoms: N_4  and  C_15
    8  A    between atoms: S_6  and  C_12
    9  A    between atoms: C_11  and  S_14
   10  A    between atoms: C_19  and  C_25
                            x       y       z     vdW  Elec       q    Type
                         _______ _______ _______ _____ _____    ______ ____

>  <TORSDO>
F 10

$$$$
