=
 OpenBabel11052416083D

 43 48  0  0  1  0  0  0  0  0999 V2000
  187.8460  177.3750  146.9900 C   0  0  0  0  0  0  0  0  0  0  0  0
  185.9900  178.6310  142.4590 C   0  0  0  0  0  0  0  0  0  0  0  0
  188.0230  178.1660  140.6530 C   0  0  0  0  0  0  0  0  0  0  0  0
  186.4130  178.1170  145.1840 C   0  0  0  0  0  0  0  0  0  0  0  0
  188.8790  177.1380  146.0790 C   0  0  0  0  0  3  0  0  0  0  0  0
  188.0380  177.1310  148.3080 F   0  0  0  0  0  0  0  0  0  0  0  0
  187.4560  177.8800  144.2550 C   0  0  0  0  0  0  0  0  0  0  0  0
  186.6150  177.8640  146.5430 C   0  0  0  0  0  3  0  0  0  0  0  0
  188.6870  177.3890  144.7180 C   0  0  0  0  0  3  0  0  0  0  0  0
  188.2240  177.9190  141.9730 N   0  0  0  0  0  0  0  0  0  0  0  0
  187.2420  178.1380  142.8890 C   0  0  0  0  0  0  0  0  0  0  0  0
  184.9690  178.8610  143.3890 C   0  0  0  0  0  3  0  0  0  0  0  0
  185.8020  178.8790  141.0950 C   0  0  0  0  0  0  0  0  0  0  0  0
  186.8220  178.6410  140.2250 N   0  0  0  0  0  0  0  0  0  0  0  0
  185.1800  178.6050  144.7450 C   0  0  0  0  0  3  0  0  0  0  0  0
  189.1270  177.9110  139.6820 C   0  0  1  0  0  3  0  0  0  0  0  0
  190.3000  177.2450  140.3810 C   0  0  0  0  0  1  0  0  0  0  0  0
  188.6310  177.0530  138.5260 C   0  0  0  0  0  2  0  0  0  0  0  0
  188.3360  177.9010  137.3000 C   0  0  1  0  0  3  0  0  0  0  0  0
  189.0870  179.2130  137.4150 C   0  0  0  0  0  1  0  0  0  0  0  0
  188.7790  177.1650  136.0380 C   0  0  0  0  0  2  0  0  0  0  0  0
  189.3080  175.7630  136.3360 C   0  0  1  0  0  3  0  0  0  0  0  0
  190.1070  173.1980  136.1740 C   0  0  0  0  0  2  0  0  0  0  0  0
  188.2680  174.8180  136.3010 O   0  0  0  0  0  0  0  0  0  0  0  0
  190.4220  175.3450  135.3570 C   0  0  2  0  0  3  0  0  0  0  0  0
  190.3790  173.9680  135.0200 O   0  0  0  0  0  0  0  0  0  0  0  0
  188.7790  173.6160  136.8350 C   0  0  0  0  0  2  0  0  0  0  0  0
  192.8520  175.8690  134.8960 C   0  0  0  0  0  3  0  0  0  0  0  0
  191.7870  175.7810  135.8010 C   0  0  0  0  0  0  0  0  0  0  0  0
  193.4860  176.8560  138.9220 N   0  0  0  0  0  1  0  0  0  0  0  0
  194.2840  176.5970  136.6630 N   0  0  0  0  0  0  0  0  0  0  0  0
  193.2620  176.5200  137.5600 C   0  0  0  0  0  0  0  0  0  0  0  0
  194.1050  176.2830  135.3520 C   0  0  0  0  0  3  0  0  0  0  0  0
  191.9940  176.1100  137.1410 C   0  0  0  0  0  3  0  0  0  0  0  0
  184.5750  179.3700  140.6320 O   0  0  0  0  0  0  0  0  0  0  0  0
  181.6820  179.0660  138.3190 C   0  0  0  0  0  2  0  0  0  0  0  0
  180.8360  178.3250  139.3660 C   0  0  1  0  0  0  0  0  0  0  0  0
  179.7330  179.2430  139.8530 C   0  0  0  0  0  1  0  0  0  0  0  0
  183.0850  177.5050  140.1810 C   0  0  0  0  0  2  0  0  0  0  0  0
  182.8960  179.7470  138.9460 C   0  0  0  0  0  2  0  0  0  0  0  0
  183.8280  178.7240  139.6090 C   0  0  1  0  0  3  0  0  0  0  0  0
  180.2580  177.2230  138.7640 F   0  0  0  0  0  0  0  0  0  0  0  0
  181.6540  177.8570  140.5780 C   0  0  0  0  0  2  0  0  0  0  0  0
  1  6  1  0  0  0  0
  2 11  2  0  0  0  0
  2 12  1  0  0  0  0
  3 10  2  0  0  0  0
  4  8  2  0  0  0  0
  5  1  2  0  0  0  0
  7  9  2  0  0  0  0
  7  4  1  0  0  0  0
  8  1  1  0  0  0  0
  9  5  1  0  0  0  0
 10 11  1  0  0  0  0
 11  7  1  0  0  0  0
 12 15  2  0  0  0  0
 13  2  1  0  0  0  0
 14  3  1  0  0  0  0
 14 13  2  0  0  0  0
 15  4  1  0  0  0  0
 16 17  1  1  0  0  0
 16  3  1  0  0  0  0
 18 16  1  0  0  0  0
 19 20  1  1  0  0  0
 19 18  1  0  0  0  0
 21 19  1  0  0  0  0
 22 21  1  6  0  0  0
 23 27  1  0  0  0  0
 24 22  1  0  0  0  0
 24 27  1  0  0  0  0
 25 29  1  1  0  0  0
 25 22  1  0  0  0  0
 26 25  1  0  0  0  0
 26 23  1  0  0  0  0
 28 33  2  0  0  0  0
 28 29  1  0  0  0  0
 29 34  2  0  0  0  0
 31 32  2  0  0  0  0
 32 30  1  0  0  0  0
 33 31  1  0  0  0  0
 34 32  1  0  0  0  0
 35 13  1  0  0  0  0
 36 40  1  0  0  0  0
 36 37  1  0  0  0  0
 37 38  1  1  0  0  0
 37 43  1  0  0  0  0
 39 43  1  0  0  0  0
 40 41  1  0  0  0  0
 41 39  1  0  0  0  0
 41 35  1  1  0  0  0
 42 37  1  0  0  0  0
M  END
>  <MODEL>
1

>  <REMARK>
 VINA RESULT:     -10.3      0.000      0.000
  Name = 
  8 active torsions:
  status: ('A' for Active; 'I' for Inactive)
    1  A    between atoms: O_1  and  C_34
    2  A    between atoms: O_1  and  C_35
    3  A    between atoms: C_2  and  C_6
    4  A    between atoms: C_2  and  C_13
    5  A    between atoms: C_3  and  C_4
    6  A    between atoms: C_3  and  C_12
    7  A    between atoms: C_6  and  C_12
    8  A    between atoms: C_14  and  C_22
                            x       y       z     vdW  Elec       q    Type
                         _______ _______ _______ _____ _____    ______ ____

>  <TORSDO>
F 8

$$$$
=
 OpenBabel11052416083D

 43 48  0  0  1  0  0  0  0  0999 V2000
  187.9140  177.3380  147.3830 C   0  0  0  0  0  0  0  0  0  0  0  0
  186.4800  178.5990  142.7030 C   0  0  0  0  0  0  0  0  0  0  0  0
  188.6340  178.0370  141.0750 C   0  0  0  0  0  0  0  0  0  0  0  0
  186.6610  178.1060  145.4590 C   0  0  0  0  0  0  0  0  0  0  0  0
  189.0080  177.0520  146.5630 C   0  0  0  0  0  3  0  0  0  0  0  0
  187.9890  177.1050  148.7150 F   0  0  0  0  0  0  0  0  0  0  0  0
  187.7660  177.8200  144.6210 C   0  0  0  0  0  0  0  0  0  0  0  0
  186.7420  177.8640  146.8320 C   0  0  0  0  0  3  0  0  0  0  0  0
  188.9360  177.2920  145.1880 C   0  0  0  0  0  3  0  0  0  0  0  0
  188.7180  177.8000  142.4090 N   0  0  0  0  0  0  0  0  0  0  0  0
  187.6730  178.0670  143.2390 C   0  0  0  0  0  0  0  0  0  0  0  0
  185.3950  178.8770  143.5440 C   0  0  0  0  0  3  0  0  0  0  0  0
  186.4120  178.8350  141.3260 C   0  0  0  0  0  0  0  0  0  0  0  0
  187.4900  178.5490  140.5450 N   0  0  0  0  0  0  0  0  0  0  0  0
  185.4860  178.6320  144.9160 C   0  0  0  0  0  3  0  0  0  0  0  0
  189.8040  177.7290  140.2000 C   0  0  1  0  0  3  0  0  0  0  0  0
  190.9580  177.1980  141.0310 C   0  0  0  0  0  1  0  0  0  0  0  0
  189.4110  176.7290  139.1200 C   0  0  0  0  0  2  0  0  0  0  0  0
  190.4790  176.6380  138.0420 C   0  0  1  0  0  3  0  0  0  0  0  0
  190.8940  175.1880  137.8810 C   0  0  0  0  0  1  0  0  0  0  0  0
  189.9320  177.1660  136.7200 C   0  0  0  0  0  2  0  0  0  0  0  0
  188.4040  177.1900  136.6890 C   0  0  1  0  0  3  0  0  0  0  0  0
  185.8230  177.4140  135.9600 C   0  0  0  0  0  2  0  0  0  0  0  0
  187.9270  178.5090  136.5890 O   0  0  0  0  0  0  0  0  0  0  0  0
  187.8350  176.3440  135.5340 C   0  0  2  0  0  3  0  0  0  0  0  0
  186.6730  176.9090  134.9500 O   0  0  0  0  0  0  0  0  0  0  0  0
  186.5370  178.4690  136.8280 C   0  0  0  0  0  2  0  0  0  0  0  0
  188.4440  173.8970  135.3430 C   0  0  0  0  0  3  0  0  0  0  0  0
  187.6450  174.9020  135.9020 C   0  0  0  0  0  0  0  0  0  0  0  0
  185.4690  172.8600  138.1110 N   0  0  0  0  0  1  0  0  0  0  0  0
  187.2610  172.2600  136.6170 N   0  0  0  0  0  0  0  0  0  0  0  0
  186.4750  173.2200  137.1740 C   0  0  0  0  0  0  0  0  0  0  0  0
  188.2330  172.5690  135.7180 C   0  0  0  0  0  3  0  0  0  0  0  0
  186.6550  174.5610  136.8250 C   0  0  0  0  0  3  0  0  0  0  0  0
  185.2460  179.3630  140.7590 O   0  0  0  0  0  0  0  0  0  0  0  0
  182.3670  178.9650  138.4420 C   0  0  0  0  0  2  0  0  0  0  0  0
  181.3920  178.6750  139.5950 C   0  0  1  0  0  0  0  0  0  0  0  0
  180.4670  179.8620  139.7700 C   0  0  0  0  0  1  0  0  0  0  0  0
  183.4510  177.7260  140.7140 C   0  0  0  0  0  2  0  0  0  0  0  0
  183.6780  179.5680  138.9430 C   0  0  0  0  0  2  0  0  0  0  0  0
  184.4060  178.6100  139.8940 C   0  0  1  0  0  3  0  0  0  0  0  0
  180.6340  177.5700  139.2610 F   0  0  0  0  0  0  0  0  0  0  0  0
  182.1020  178.4070  140.9290 C   0  0  0  0  0  2  0  0  0  0  0  0
  1  6  1  0  0  0  0
  2 11  2  0  0  0  0
  2 12  1  0  0  0  0
  3 10  2  0  0  0  0
  4  8  2  0  0  0  0
  5  1  2  0  0  0  0
  7  9  2  0  0  0  0
  7  4  1  0  0  0  0
  8  1  1  0  0  0  0
  9  5  1  0  0  0  0
 10 11  1  0  0  0  0
 11  7  1  0  0  0  0
 12 15  2  0  0  0  0
 13  2  1  0  0  0  0
 14  3  1  0  0  0  0
 14 13  2  0  0  0  0
 15  4  1  0  0  0  0
 16 17  1  1  0  0  0
 16  3  1  0  0  0  0
 18 16  1  0  0  0  0
 19 20  1  6  0  0  0
 19 18  1  0  0  0  0
 21 19  1  0  0  0  0
 22 21  1  6  0  0  0
 23 27  1  0  0  0  0
 24 22  1  0  0  0  0
 24 27  1  0  0  0  0
 25 29  1  1  0  0  0
 25 22  1  0  0  0  0
 26 25  1  0  0  0  0
 26 23  1  0  0  0  0
 28 33  2  0  0  0  0
 28 29  1  0  0  0  0
 29 34  2  0  0  0  0
 31 32  2  0  0  0  0
 32 30  1  0  0  0  0
 33 31  1  0  0  0  0
 34 32  1  0  0  0  0
 35 13  1  0  0  0  0
 36 40  1  0  0  0  0
 36 37  1  0  0  0  0
 37 38  1  1  0  0  0
 37 43  1  0  0  0  0
 39 43  1  0  0  0  0
 40 41  1  0  0  0  0
 41 39  1  0  0  0  0
 41 35  1  1  0  0  0
 42 37  1  0  0  0  0
M  END
>  <MODEL>
2

>  <REMARK>
 VINA RESULT:     -10.1      2.216      3.337
  Name = 
  8 active torsions:
  status: ('A' for Active; 'I' for Inactive)
    1  A    between atoms: O_1  and  C_34
    2  A    between atoms: O_1  and  C_35
    3  A    between atoms: C_2  and  C_6
    4  A    between atoms: C_2  and  C_13
    5  A    between atoms: C_3  and  C_4
    6  A    between atoms: C_3  and  C_12
    7  A    between atoms: C_6  and  C_12
    8  A    between atoms: C_14  and  C_22
                            x       y       z     vdW  Elec       q    Type
                         _______ _______ _______ _____ _____    ______ ____

>  <TORSDO>
F 8

$$$$
=
 OpenBabel11052416083D

 43 48  0  0  1  0  0  0  0  0999 V2000
  187.9650  177.3400  147.3330 C   0  0  0  0  0  0  0  0  0  0  0  0
  186.3060  178.6120  142.7310 C   0  0  0  0  0  0  0  0  0  0  0  0
  188.3780  178.0510  140.9980 C   0  0  0  0  0  0  0  0  0  0  0  0
  186.6210  178.1140  145.4740 C   0  0  0  0  0  0  0  0  0  0  0  0
  189.0180  177.0550  146.4600 C   0  0  0  0  0  3  0  0  0  0  0  0
  188.1050  177.1040  148.6590 F   0  0  0  0  0  0  0  0  0  0  0  0
  187.6840  177.8280  144.5830 C   0  0  0  0  0  0  0  0  0  0  0  0
  186.7690  177.8690  146.8410 C   0  0  0  0  0  3  0  0  0  0  0  0
  188.8790  177.2970  145.0910 C   0  0  0  0  0  3  0  0  0  0  0  0
  188.5260  177.8120  142.3260 N   0  0  0  0  0  0  0  0  0  0  0  0
  187.5240  178.0780  143.2070 C   0  0  0  0  0  0  0  0  0  0  0  0
  185.2640  178.8910  143.6250 C   0  0  0  0  0  3  0  0  0  0  0  0
  186.1720  178.8520  141.3590 C   0  0  0  0  0  0  0  0  0  0  0  0
  187.2100  178.5660  140.5260 N   0  0  0  0  0  0  0  0  0  0  0  0
  185.4220  178.6430  144.9900 C   0  0  0  0  0  3  0  0  0  0  0  0
  189.5030  177.7440  140.0670 C   0  0  1  0  0  3  0  0  0  0  0  0
  190.7300  177.3090  140.8480 C   0  0  0  0  0  1  0  0  0  0  0  0
  189.0890  176.6690  139.0700 C   0  0  0  0  0  2  0  0  0  0  0  0
  189.4410  177.0740  137.6480 C   0  0  1  0  0  3  0  0  0  0  0  0
  189.2030  178.5620  137.4860 C   0  0  0  0  0  1  0  0  0  0  0  0
  190.9050  176.7540  137.3630 C   0  0  0  0  0  2  0  0  0  0  0  0
  191.1090  175.3090  136.9090 C   0  0  1  0  0  3  0  0  0  0  0  0
  191.3200  173.0400  135.4770 C   0  0  0  0  0  2  0  0  0  0  0  0
  189.8850  174.7240  136.5390 O   0  0  0  0  0  0  0  0  0  0  0  0
  192.1090  175.2040  135.7420 C   0  0  2  0  0  3  0  0  0  0  0  0
  191.7630  174.1990  134.8010 O   0  0  0  0  0  0  0  0  0  0  0  0
  190.1140  173.3390  136.3880 C   0  0  0  0  0  2  0  0  0  0  0  0
  194.5800  175.6530  135.4540 C   0  0  0  0  0  3  0  0  0  0  0  0
  193.5330  175.0930  136.1970 C   0  0  0  0  0  0  0  0  0  0  0  0
  195.4430  173.6380  139.0290 N   0  0  0  0  0  1  0  0  0  0  0  0
  196.1430  174.8700  137.0800 N   0  0  0  0  0  0  0  0  0  0  0  0
  195.1410  174.3200  137.8190 C   0  0  0  0  0  0  0  0  0  0  0  0
  195.8910  175.5290  135.9180 C   0  0  0  0  0  3  0  0  0  0  0  0
  193.8160  174.4240  137.3880 C   0  0  0  0  0  3  0  0  0  0  0  0
  184.9800  179.3820  140.8510 O   0  0  0  0  0  0  0  0  0  0  0  0
  182.2070  179.1470  138.3880 C   0  0  0  0  0  2  0  0  0  0  0  0
  181.1760  178.8150  139.4780 C   0  0  1  0  0  0  0  0  0  0  0  0
  180.2590  180.0050  139.6720 C   0  0  0  0  0  1  0  0  0  0  0  0
  183.1680  177.7780  140.6410 C   0  0  0  0  0  2  0  0  0  0  0  0
  183.5010  179.7040  138.9780 C   0  0  0  0  0  2  0  0  0  0  0  0
  184.1710  178.6880  139.9110 C   0  0  1  0  0  3  0  0  0  0  0  0
  180.4190  177.7390  139.0540 F   0  0  0  0  0  0  0  0  0  0  0  0
  181.8200  178.4680  140.8280 C   0  0  0  0  0  2  0  0  0  0  0  0
  1  6  1  0  0  0  0
  2 11  2  0  0  0  0
  2 12  1  0  0  0  0
  3 10  2  0  0  0  0
  4  8  2  0  0  0  0
  5  1  2  0  0  0  0
  7  9  2  0  0  0  0
  7  4  1  0  0  0  0
  8  1  1  0  0  0  0
  9  5  1  0  0  0  0
 10 11  1  0  0  0  0
 11  7  1  0  0  0  0
 12 15  2  0  0  0  0
 13  2  1  0  0  0  0
 14  3  1  0  0  0  0
 14 13  2  0  0  0  0
 15  4  1  0  0  0  0
 16 17  1  1  0  0  0
 16  3  1  0  0  0  0
 18 16  1  0  0  0  0
 19 20  1  1  0  0  0
 19 18  1  0  0  0  0
 21 19  1  0  0  0  0
 22 21  1  6  0  0  0
 23 27  1  0  0  0  0
 24 22  1  0  0  0  0
 25 29  1  1  0  0  0
 25 22  1  0  0  0  0
 26 23  1  0  0  0  0
 26 25  1  0  0  0  0
 27 24  1  0  0  0  0
 28 33  2  0  0  0  0
 28 29  1  0  0  0  0
 29 34  2  0  0  0  0
 31 32  2  0  0  0  0
 32 30  1  0  0  0  0
 33 31  1  0  0  0  0
 34 32  1  0  0  0  0
 35 13  1  0  0  0  0
 36 40  1  0  0  0  0
 36 37  1  0  0  0  0
 37 38  1  1  0  0  0
 37 43  1  0  0  0  0
 39 43  1  0  0  0  0
 40 41  1  0  0  0  0
 41 39  1  0  0  0  0
 41 35  1  1  0  0  0
 42 37  1  0  0  0  0
M  END
>  <MODEL>
3

>  <REMARK>
 VINA RESULT:      -9.8      1.189      1.351
  Name = 
  8 active torsions:
  status: ('A' for Active; 'I' for Inactive)
    1  A    between atoms: O_1  and  C_34
    2  A    between atoms: O_1  and  C_35
    3  A    between atoms: C_2  and  C_6
    4  A    between atoms: C_2  and  C_13
    5  A    between atoms: C_3  and  C_4
    6  A    between atoms: C_3  and  C_12
    7  A    between atoms: C_6  and  C_12
    8  A    between atoms: C_14  and  C_22
                            x       y       z     vdW  Elec       q    Type
                         _______ _______ _______ _____ _____    ______ ____

>  <TORSDO>
F 8

$$$$
=
 OpenBabel11052416083D

 43 48  0  0  1  0  0  0  0  0999 V2000
  187.9760  177.3560  146.7460 C   0  0  0  0  0  0  0  0  0  0  0  0
  185.9980  178.6370  142.2740 C   0  0  0  0  0  0  0  0  0  0  0  0
  187.9350  178.0570  140.3970 C   0  0  0  0  0  0  0  0  0  0  0  0
  186.5070  178.1390  144.9870 C   0  0  0  0  0  0  0  0  0  0  0  0
  188.9600  177.0610  145.7990 C   0  0  0  0  0  3  0  0  0  0  0  0
  188.2090  177.1200  148.0590 F   0  0  0  0  0  0  0  0  0  0  0  0
  187.5000  177.8430  144.0220 C   0  0  0  0  0  0  0  0  0  0  0  0
  186.7510  177.8940  146.3410 C   0  0  0  0  0  3  0  0  0  0  0  0
  188.7250  177.3030  144.4440 C   0  0  0  0  0  3  0  0  0  0  0  0
  188.1770  177.8180  141.7110 N   0  0  0  0  0  0  0  0  0  0  0  0
  187.2430  178.0930  142.6620 C   0  0  0  0  0  0  0  0  0  0  0  0
  185.0260  178.9250  143.2400 C   0  0  0  0  0  3  0  0  0  0  0  0
  185.7670  178.8750  140.9150 C   0  0  0  0  0  0  0  0  0  0  0  0
  186.7400  178.5800  140.0100 N   0  0  0  0  0  0  0  0  0  0  0  0
  185.2800  178.6770  144.5900 C   0  0  0  0  0  3  0  0  0  0  0  0
  188.9870  177.7390  139.3870 C   0  0  1  0  0  3  0  0  0  0  0  0
  189.0620  178.8390  138.3420 C   0  0  0  0  0  1  0  0  0  0  0  0
  190.3360  177.5480  140.0670 C   0  0  0  0  0  2  0  0  0  0  0  0
  191.4030  177.1390  139.0640 C   0  0  1  0  0  3  0  0  0  0  0  0
  192.7690  177.3040  139.7020 C   0  0  0  0  0  1  0  0  0  0  0  0
  191.2010  175.6840  138.6530 C   0  0  0  0  0  2  0  0  0  0  0  0
  190.9650  175.5300  137.1510 C   0  0  1  0  0  3  0  0  0  0  0  0
  190.9470  174.6810  134.5970 C   0  0  0  0  0  2  0  0  0  0  0  0
  192.1440  175.7890  136.4300 O   0  0  0  0  0  0  0  0  0  0  0  0
  190.4330  174.1290  136.7900 C   0  0  2  0  0  3  0  0  0  0  0  0
  190.9390  173.6430  135.5560 O   0  0  0  0  0  0  0  0  0  0  0  0
  191.7880  175.8840  135.0680 C   0  0  0  0  0  2  0  0  0  0  0  0
  188.2930  172.7870  136.8830 C   0  0  0  0  0  3  0  0  0  0  0  0
  188.9390  174.0300  136.8720 C   0  0  0  0  0  0  0  0  0  0  0  0
  186.0090  176.2980  137.1010 N   0  0  0  0  0  1  0  0  0  0  0  0
  186.1830  173.8950  137.0340 N   0  0  0  0  0  0  0  0  0  0  0  0
  186.7900  175.1130  137.0280 C   0  0  0  0  0  0  0  0  0  0  0  0
  186.9000  172.7420  136.9650 C   0  0  0  0  0  3  0  0  0  0  0  0
  188.1830  175.2000  136.9470 C   0  0  0  0  0  3  0  0  0  0  0  0
  184.5460  179.4150  140.4940 O   0  0  0  0  0  0  0  0  0  0  0  0
  181.4870  179.1290  138.4030 C   0  0  0  0  0  2  0  0  0  0  0  0
  180.6270  178.6950  139.6010 C   0  0  1  0  0  0  0  0  0  0  0  0
  179.6850  179.8240  139.9690 C   0  0  0  0  0  1  0  0  0  0  0  0
  182.8030  177.7230  140.4430 C   0  0  0  0  0  2  0  0  0  0  0  0
  182.8180  179.7320  138.8460 C   0  0  0  0  0  2  0  0  0  0  0  0
  183.6550  178.7160  139.6340 C   0  0  1  0  0  3  0  0  0  0  0  0
  179.8740  177.5980  139.2270 F   0  0  0  0  0  0  0  0  0  0  0  0
  181.4590  178.3290  140.8370 C   0  0  0  0  0  2  0  0  0  0  0  0
  1  6  1  0  0  0  0
  2 11  2  0  0  0  0
  2 12  1  0  0  0  0
  3 10  2  0  0  0  0
  4  8  2  0  0  0  0
  5  1  2  0  0  0  0
  7  9  2  0  0  0  0
  7  4  1  0  0  0  0
  8  1  1  0  0  0  0
  9  5  1  0  0  0  0
 10 11  1  0  0  0  0
 11  7  1  0  0  0  0
 12 15  2  0  0  0  0
 13  2  1  0  0  0  0
 14  3  1  0  0  0  0
 14 13  2  0  0  0  0
 15  4  1  0  0  0  0
 16 17  1  6  0  0  0
 16 18  1  0  0  0  0
 16  3  1  0  0  0  0
 19 20  1  1  0  0  0
 19 18  1  0  0  0  0
 21 19  1  0  0  0  0
 22 21  1  1  0  0  0
 23 27  1  0  0  0  0
 23 26  1  0  0  0  0
 24 22  1  0  0  0  0
 25 29  1  6  0  0  0
 25 22  1  0  0  0  0
 26 25  1  0  0  0  0
 27 24  1  0  0  0  0
 28 33  1  0  0  0  0
 29 28  2  0  0  0  0
 29 34  1  0  0  0  0
 32 31  1  0  0  0  0
 32 30  1  0  0  0  0
 33 31  2  0  0  0  0
 34 32  2  0  0  0  0
 35 13  1  0  0  0  0
 36 40  1  0  0  0  0
 36 37  1  0  0  0  0
 37 38  1  1  0  0  0
 37 43  1  0  0  0  0
 39 43  1  0  0  0  0
 40 41  1  0  0  0  0
 41 39  1  0  0  0  0
 41 35  1  1  0  0  0
 42 37  1  0  0  0  0
M  END
>  <MODEL>
4

>  <REMARK>
 VINA RESULT:      -9.8      1.822      3.122
  Name = 
  8 active torsions:
  status: ('A' for Active; 'I' for Inactive)
    1  A    between atoms: O_1  and  C_34
    2  A    between atoms: O_1  and  C_35
    3  A    between atoms: C_2  and  C_6
    4  A    between atoms: C_2  and  C_13
    5  A    between atoms: C_3  and  C_4
    6  A    between atoms: C_3  and  C_12
    7  A    between atoms: C_6  and  C_12
    8  A    between atoms: C_14  and  C_22
                            x       y       z     vdW  Elec       q    Type
                         _______ _______ _______ _____ _____    ______ ____

>  <TORSDO>
F 8

$$$$
=
 OpenBabel11052416083D

 43 48  0  0  1  0  0  0  0  0999 V2000
  191.4350  176.6800  147.3890 C   0  0  0  0  0  0  0  0  0  0  0  0
  189.0200  177.2710  142.9880 C   0  0  0  0  0  0  0  0  0  0  0  0
  186.4150  177.9080  143.6340 C   0  0  0  0  0  0  0  0  0  0  0  0
  190.8830  176.8150  145.0350 C   0  0  0  0  0  0  0  0  0  0  0  0
  190.1160  177.0020  147.7220 C   0  0  0  0  0  3  0  0  0  0  0  0
  192.3430  176.4580  148.3690 F   0  0  0  0  0  0  0  0  0  0  0  0
  189.5450  177.1420  145.3650 C   0  0  0  0  0  0  0  0  0  0  0  0
  191.8170  176.5870  146.0490 C   0  0  0  0  0  3  0  0  0  0  0  0
  189.1750  177.2320  146.7160 C   0  0  0  0  0  3  0  0  0  0  0  0
  187.3200  177.6860  144.6220 N   0  0  0  0  0  0  0  0  0  0  0  0
  188.6120  177.3700  144.3370 C   0  0  0  0  0  0  0  0  0  0  0  0
  190.3470  176.9460  142.6780 C   0  0  0  0  0  3  0  0  0  0  0  0
  188.0740  177.5030  141.9840 C   0  0  0  0  0  0  0  0  0  0  0  0
  186.7950  177.8160  142.3310 N   0  0  0  0  0  0  0  0  0  0  0  0
  191.2730  176.7200  143.6980 C   0  0  0  0  0  3  0  0  0  0  0  0
  185.0080  178.2540  143.9910 C   0  0  1  0  0  3  0  0  0  0  0  0
  184.9660  178.9830  145.3230 C   0  0  0  0  0  1  0  0  0  0  0  0
  184.3720  179.0980  142.8940 C   0  0  0  0  0  2  0  0  0  0  0  0
  183.3260  178.3050  142.1280 C   0  0  1  0  0  3  0  0  0  0  0  0
  181.9870  179.0060  142.2540 C   0  0  0  0  0  1  0  0  0  0  0  0
  183.7190  178.2090  140.6570 C   0  0  0  0  0  2  0  0  0  0  0  0
  182.6080  178.6850  139.7230 C   0  0  1  0  0  3  0  0  0  0  0  0
  181.1130  179.3310  137.5800 C   0  0  0  0  0  2  0  0  0  0  0  0
  182.9710  179.8840  139.0850 O   0  0  0  0  0  0  0  0  0  0  0  0
  182.2450  177.6240  138.6670 C   0  0  2  0  0  3  0  0  0  0  0  0
  181.9190  178.1840  137.4040 O   0  0  0  0  0  0  0  0  0  0  0  0
  181.8130  180.3890  138.4560 C   0  0  0  0  0  2  0  0  0  0  0  0
  180.3300  176.9770  140.1850 C   0  0  0  0  0  3  0  0  0  0  0  0
  181.2080  176.6520  139.1430 C   0  0  0  0  0  0  0  0  0  0  0  0
  180.0450  173.2150  138.3520 N   0  0  0  0  0  1  0  0  0  0  0  0
  179.3060  174.8290  139.9820 N   0  0  0  0  0  0  0  0  0  0  0  0
  180.1480  174.4920  138.9670 C   0  0  0  0  0  0  0  0  0  0  0  0
  179.3770  176.0410  140.5930 C   0  0  0  0  0  3  0  0  0  0  0  0
  181.1150  175.4010  138.5300 C   0  0  0  0  0  3  0  0  0  0  0  0
  188.4410  177.4120  140.6370 O   0  0  0  0  0  0  0  0  0  0  0  0
  186.5060  178.3060  137.5930 C   0  0  0  0  0  2  0  0  0  0  0  0
  187.6720  177.9410  136.6610 C   0  0  1  0  0  0  0  0  0  0  0  0
  187.3310  176.6670  135.9160 C   0  0  0  0  0  1  0  0  0  0  0  0
  189.0880  178.6330  138.6380 C   0  0  0  0  0  2  0  0  0  0  0  0
  186.7060  177.7500  139.0010 C   0  0  0  0  0  2  0  0  0  0  0  0
  187.9720  178.3230  139.6510 C   0  0  1  0  0  3  0  0  0  0  0  0
  187.8340  178.9600  135.7410 F   0  0  0  0  0  0  0  0  0  0  0  0
  188.9960  177.7320  137.4090 C   0  0  0  0  0  2  0  0  0  0  0  0
  1  5  1  0  0  0  0
  1  6  1  0  0  0  0
  2 11  1  0  0  0  0
  3 16  1  0  0  0  0
  3 10  2  0  0  0  0
  4  7  1  0  0  0  0
  4  8  1  0  0  0  0
  7  9  1  0  0  0  0
  8  1  2  0  0  0  0
  9  5  2  0  0  0  0
 11 10  1  0  0  0  0
 11  7  2  0  0  0  0
 12  2  2  0  0  0  0
 12 15  1  0  0  0  0
 13 14  2  0  0  0  0
 13  2  1  0  0  0  0
 14  3  1  0  0  0  0
 15  4  2  0  0  0  0
 16 17  1  1  0  0  0
 18 16  1  0  0  0  0
 19 20  1  6  0  0  0
 19 18  1  0  0  0  0
 21 19  1  0  0  0  0
 22 21  1  6  0  0  0
 23 27  1  0  0  0  0
 24 22  1  0  0  0  0
 25 29  1  1  0  0  0
 25 22  1  0  0  0  0
 26 23  1  0  0  0  0
 26 25  1  0  0  0  0
 27 24  1  0  0  0  0
 28 33  1  0  0  0  0
 29 28  2  0  0  0  0
 30 32  1  0  0  0  0
 31 33  2  0  0  0  0
 32 31  1  0  0  0  0
 34 32  2  0  0  0  0
 34 29  1  0  0  0  0
 35 13  1  0  0  0  0
 36 40  1  0  0  0  0
 37 38  1  6  0  0  0
 37 43  1  0  0  0  0
 37 36  1  0  0  0  0
 39 41  1  0  0  0  0
 40 41  1  0  0  0  0
 41 35  1  1  0  0  0
 42 37  1  0  0  0  0
 43 39  1  0  0  0  0
M  END
>  <MODEL>
5

>  <REMARK>
 VINA RESULT:      -9.7      3.490      7.951
  Name = 
  8 active torsions:
  status: ('A' for Active; 'I' for Inactive)
    1  A    between atoms: O_1  and  C_34
    2  A    between atoms: O_1  and  C_35
    3  A    between atoms: C_2  and  C_6
    4  A    between atoms: C_2  and  C_13
    5  A    between atoms: C_3  and  C_4
    6  A    between atoms: C_3  and  C_12
    7  A    between atoms: C_6  and  C_12
    8  A    between atoms: C_14  and  C_22
                            x       y       z     vdW  Elec       q    Type
                         _______ _______ _______ _____ _____    ______ ____

>  <TORSDO>
F 8

$$$$
=
 OpenBabel11052416083D

 43 48  0  0  1  0  0  0  0  0999 V2000
  191.1010  176.5820  146.9310 C   0  0  0  0  0  0  0  0  0  0  0  0
  187.5660  177.9850  143.6020 C   0  0  0  0  0  0  0  0  0  0  0  0
  188.7000  177.6530  141.1090 C   0  0  0  0  0  0  0  0  0  0  0  0
  189.0560  177.3630  145.8960 C   0  0  0  0  0  0  0  0  0  0  0  0
  191.6800  176.4130  145.6710 C   0  0  0  0  0  3  0  0  0  0  0  0
  191.8100  176.2850  148.0460 F   0  0  0  0  0  0  0  0  0  0  0  0
  189.6370  177.1950  144.6150 C   0  0  0  0  0  0  0  0  0  0  0  0
  189.7910  177.0560  147.0430 C   0  0  0  0  0  3  0  0  0  0  0  0
  190.9530  176.7180  144.5180 C   0  0  0  0  0  3  0  0  0  0  0  0
  189.4180  177.3540  142.2220 N   0  0  0  0  0  0  0  0  0  0  0  0
  188.8880  177.5070  143.4660 C   0  0  0  0  0  0  0  0  0  0  0  0
  187.0050  178.1460  144.8750 C   0  0  0  0  0  3  0  0  0  0  0  0
  186.8410  178.2870  142.4440 C   0  0  0  0  0  0  0  0  0  0  0  0
  187.4250  178.1140  141.2260 N   0  0  0  0  0  0  0  0  0  0  0  0
  187.7480  177.8370  146.0160 C   0  0  0  0  0  3  0  0  0  0  0  0
  189.3200  177.4710  139.7640 C   0  0  1  0  0  3  0  0  0  0  0  0
  188.9660  178.6370  138.8580 C   0  0  0  0  0  1  0  0  0  0  0  0
  190.8310  177.3240  139.8900 C   0  0  0  0  0  2  0  0  0  0  0  0
  191.4340  176.7400  138.6230 C   0  0  1  0  0  3  0  0  0  0  0  0
  192.9450  176.7480  138.7470 C   0  0  0  0  0  1  0  0  0  0  0  0
  190.9420  175.3090  138.4250 C   0  0  0  0  0  2  0  0  0  0  0  0
  190.5960  175.0080  136.9680 C   0  0  1  0  0  3  0  0  0  0  0  0
  190.1400  173.8160  134.5980 C   0  0  0  0  0  2  0  0  0  0  0  0
  191.7510  174.6760  136.2370 O   0  0  0  0  0  0  0  0  0  0  0  0
  189.5590  173.8750  136.8410 C   0  0  2  0  0  3  0  0  0  0  0  0
  189.7860  173.0350  135.7210 O   0  0  0  0  0  0  0  0  0  0  0  0
  191.3940  174.6700  134.8720 C   0  0  0  0  0  2  0  0  0  0  0  0
  187.8340  175.7210  136.7420 C   0  0  0  0  0  3  0  0  0  0  0  0
  188.1430  174.3660  136.9090 C   0  0  0  0  0  0  0  0  0  0  0  0
  184.7400  172.9750  137.4300 N   0  0  0  0  0  1  0  0  0  0  0  0
  185.5170  175.2210  137.0330 N   0  0  0  0  0  0  0  0  0  0  0  0
  185.7940  173.8990  137.1960 C   0  0  0  0  0  0  0  0  0  0  0  0
  186.5010  176.1320  136.8090 C   0  0  0  0  0  3  0  0  0  0  0  0
  187.1160  173.4480  137.1360 C   0  0  0  0  0  3  0  0  0  0  0  0
  185.5290  178.7640  142.5400 O   0  0  0  0  0  0  0  0  0  0  0  0
  182.3620  177.6670  140.9340 C   0  0  0  0  0  2  0  0  0  0  0  0
  181.5170  178.6270  141.7870 C   0  0  1  0  0  0  0  0  0  0  0  0
  181.0080  179.7520  140.9090 C   0  0  0  0  0  1  0  0  0  0  0  0
  183.3500  178.2640  143.4910 C   0  0  0  0  0  2  0  0  0  0  0  0
  183.8480  178.0160  140.9850 C   0  0  0  0  0  2  0  0  0  0  0  0
  184.3940  177.9170  142.4150 C   0  0  1  0  0  3  0  0  0  0  0  0
  180.4330  177.9320  142.2850 F   0  0  0  0  0  0  0  0  0  0  0  0
  182.3000  179.2360  142.9590 C   0  0  0  0  0  2  0  0  0  0  0  0
  1  8  1  0  0  0  0
  1  6  1  0  0  0  0
  2 12  1  0  0  0  0
  3 14  1  0  0  0  0
  3 10  2  0  0  0  0
  4 15  1  0  0  0  0
  4  8  2  0  0  0  0
  5  1  2  0  0  0  0
  7  4  1  0  0  0  0
  9  7  2  0  0  0  0
  9  5  1  0  0  0  0
 10 11  1  0  0  0  0
 11  2  2  0  0  0  0
 11  7  1  0  0  0  0
 12 15  2  0  0  0  0
 13 35  1  0  0  0  0
 13  2  1  0  0  0  0
 14 13  2  0  0  0  0
 16 17  1  6  0  0  0
 16 18  1  0  0  0  0
 16  3  1  0  0  0  0
 19 20  1  1  0  0  0
 19 18  1  0  0  0  0
 21 19  1  0  0  0  0
 22 21  1  1  0  0  0
 23 27  1  0  0  0  0
 23 26  1  0  0  0  0
 24 22  1  0  0  0  0
 25 29  1  6  0  0  0
 25 22  1  0  0  0  0
 26 25  1  0  0  0  0
 27 24  1  0  0  0  0
 28 33  2  0  0  0  0
 28 29  1  0  0  0  0
 29 34  2  0  0  0  0
 31 32  2  0  0  0  0
 32 30  1  0  0  0  0
 33 31  1  0  0  0  0
 34 32  1  0  0  0  0
 36 40  1  0  0  0  0
 36 37  1  0  0  0  0
 37 38  1  6  0  0  0
 37 42  1  0  0  0  0
 37 43  1  0  0  0  0
 40 41  1  0  0  0  0
 41 35  1  6  0  0  0
 41 39  1  0  0  0  0
 43 39  1  0  0  0  0
M  END
>  <MODEL>
6

>  <REMARK>
 VINA RESULT:      -9.4      2.195      3.854
  Name = 
  8 active torsions:
  status: ('A' for Active; 'I' for Inactive)
    1  A    between atoms: O_1  and  C_34
    2  A    between atoms: O_1  and  C_35
    3  A    between atoms: C_2  and  C_6
    4  A    between atoms: C_2  and  C_13
    5  A    between atoms: C_3  and  C_4
    6  A    between atoms: C_3  and  C_12
    7  A    between atoms: C_6  and  C_12
    8  A    between atoms: C_14  and  C_22
                            x       y       z     vdW  Elec       q    Type
                         _______ _______ _______ _____ _____    ______ ____

>  <TORSDO>
F 8

$$$$
=
 OpenBabel11052416083D

 43 48  0  0  1  0  0  0  0  0999 V2000
  191.0030  176.7380  146.9640 C   0  0  0  0  0  0  0  0  0  0  0  0
  189.6250  177.5660  142.1720 C   0  0  0  0  0  0  0  0  0  0  0  0
  186.9030  178.0100  142.2330 C   0  0  0  0  0  0  0  0  0  0  0  0
  190.9970  177.0400  144.5610 C   0  0  0  0  0  0  0  0  0  0  0  0
  189.6240  176.9620  147.0000 C   0  0  0  0  0  3  0  0  0  0  0  0
  191.6760  176.4840  148.1110 F   0  0  0  0  0  0  0  0  0  0  0  0
  189.5990  177.2670  144.5910 C   0  0  0  0  0  0  0  0  0  0  0  0
  191.6880  176.7770  145.7470 C   0  0  0  0  0  3  0  0  0  0  0  0
  188.9240  177.2250  145.8200 C   0  0  0  0  0  3  0  0  0  0  0  0
  187.5710  177.7540  143.3870 N   0  0  0  0  0  0  0  0  0  0  0  0
  188.9130  177.5310  143.3910 C   0  0  0  0  0  0  0  0  0  0  0  0
  191.0070  177.3380  142.1590 C   0  0  0  0  0  3  0  0  0  0  0  0
  188.9200  177.8310  140.9930 C   0  0  0  0  0  0  0  0  0  0  0  0
  187.5770  178.0460  141.0520 N   0  0  0  0  0  0  0  0  0  0  0  0
  191.6890  177.0760  143.3490 C   0  0  0  0  0  3  0  0  0  0  0  0
  185.4310  178.2500  142.2740 C   0  0  1  0  0  3  0  0  0  0  0  0
  184.9760  178.4900  143.7040 C   0  0  0  0  0  1  0  0  0  0  0  0
  185.0590  179.4300  141.3850 C   0  0  0  0  0  2  0  0  0  0  0  0
  184.1600  178.9930  140.2400 C   0  0  1  0  0  3  0  0  0  0  0  0
  185.0240  178.5610  139.0720 C   0  0  0  0  0  1  0  0  0  0  0  0
  183.2790  177.8290  140.6850 C   0  0  0  0  0  2  0  0  0  0  0  0
  181.8020  178.2120  140.7630 C   0  0  1  0  0  3  0  0  0  0  0  0
  179.4690  179.5320  141.0060 C   0  0  0  0  0  2  0  0  0  0  0  0
  181.4390  178.5400  142.0820 O   0  0  0  0  0  0  0  0  0  0  0  0
  181.4580  179.3840  139.8240 C   0  0  2  0  0  3  0  0  0  0  0  0
  180.4920  180.2690  140.3690 O   0  0  0  0  0  0  0  0  0  0  0  0
  180.0310  178.6240  142.1180 C   0  0  0  0  0  2  0  0  0  0  0  0
  180.7430  177.6120  138.1670 C   0  0  0  0  0  3  0  0  0  0  0  0
  181.1040  178.9390  138.4360 C   0  0  0  0  0  0  0  0  0  0  0  0
  180.8230  180.3980  135.0340 N   0  0  0  0  0  1  0  0  0  0  0  0
  180.4520  178.1670  135.8630 N   0  0  0  0  0  0  0  0  0  0  0  0
  180.7980  179.4610  136.1010 C   0  0  0  0  0  0  0  0  0  0  0  0
  180.4170  177.2430  136.8600 C   0  0  0  0  0  3  0  0  0  0  0  0
  181.1300  179.8690  137.3960 C   0  0  0  0  0  3  0  0  0  0  0  0
  189.5920  177.8720  139.7660 O   0  0  0  0  0  0  0  0  0  0  0  0
  190.6240  176.1590  136.6330 C   0  0  0  0  0  2  0  0  0  0  0  0
  189.3410  176.5820  135.8990 C   0  0  1  0  0  0  0  0  0  0  0  0
  189.6870  177.6360  134.8660 C   0  0  0  0  0  1  0  0  0  0  0  0
  188.3300  176.4910  138.2140 C   0  0  0  0  0  2  0  0  0  0  0  0
  190.8360  176.9590  137.9160 C   0  0  0  0  0  2  0  0  0  0  0  0
  189.6820  176.7440  138.9040 C   0  0  1  0  0  3  0  0  0  0  0  0
  188.8240  175.4790  135.2470 F   0  0  0  0  0  0  0  0  0  0  0  0
  188.2700  177.1510  136.8400 C   0  0  0  0  0  2  0  0  0  0  0  0
  1  5  1  0  0  0  0
  1  6  1  0  0  0  0
  2 11  1  0  0  0  0
  3 16  1  0  0  0  0
  3 10  2  0  0  0  0
  4  7  1  0  0  0  0
  4  8  1  0  0  0  0
  7  9  1  0  0  0  0
  8  1  2  0  0  0  0
  9  5  2  0  0  0  0
 10 11  1  0  0  0  0
 11  7  2  0  0  0  0
 12  2  2  0  0  0  0
 12 15  1  0  0  0  0
 13 14  2  0  0  0  0
 13  2  1  0  0  0  0
 14  3  1  0  0  0  0
 15  4  2  0  0  0  0
 16 17  1  1  0  0  0
 18 16  1  0  0  0  0
 19 20  1  6  0  0  0
 19 21  1  0  0  0  0
 19 18  1  0  0  0  0
 22 21  1  1  0  0  0
 22 24  1  0  0  0  0
 23 27  1  0  0  0  0
 24 27  1  0  0  0  0
 25 29  1  6  0  0  0
 25 26  1  0  0  0  0
 25 22  1  0  0  0  0
 26 23  1  0  0  0  0
 28 29  1  0  0  0  0
 30 32  1  0  0  0  0
 31 32  2  0  0  0  0
 31 33  1  0  0  0  0
 32 34  1  0  0  0  0
 33 28  2  0  0  0  0
 34 29  2  0  0  0  0
 35 13  1  0  0  0  0
 36 40  1  0  0  0  0
 37 38  1  6  0  0  0
 37 36  1  0  0  0  0
 37 43  1  0  0  0  0
 39 41  1  0  0  0  0
 40 41  1  0  0  0  0
 41 35  1  6  0  0  0
 42 37  1  0  0  0  0
 43 39  1  0  0  0  0
M  END
>  <MODEL>
7

>  <REMARK>
 VINA RESULT:      -9.0      2.980      8.274
  Name = 
  8 active torsions:
  status: ('A' for Active; 'I' for Inactive)
    1  A    between atoms: O_1  and  C_34
    2  A    between atoms: O_1  and  C_35
    3  A    between atoms: C_2  and  C_6
    4  A    between atoms: C_2  and  C_13
    5  A    between atoms: C_3  and  C_4
    6  A    between atoms: C_3  and  C_12
    7  A    between atoms: C_6  and  C_12
    8  A    between atoms: C_14  and  C_22
                            x       y       z     vdW  Elec       q    Type
                         _______ _______ _______ _____ _____    ______ ____

>  <TORSDO>
F 8

$$$$
=
 OpenBabel11052416083D

 43 48  0  0  1  0  0  0  0  0999 V2000
  190.6360  177.0290  138.7760 C   0  0  0  0  0  0  0  0  0  0  0  0
  185.8260  178.5290  139.1750 C   0  0  0  0  0  0  0  0  0  0  0  0
  185.4030  179.0090  141.8590 C   0  0  0  0  0  0  0  0  0  0  0  0
  188.3450  177.6570  138.3040 C   0  0  0  0  0  0  0  0  0  0  0  0
  190.4270  177.2700  140.1360 C   0  0  0  0  0  3  0  0  0  0  0  0
  191.8480  176.6080  138.3430 F   0  0  0  0  0  0  0  0  0  0  0  0
  188.1260  177.9020  139.6810 C   0  0  0  0  0  0  0  0  0  0  0  0
  189.5970  177.2220  137.8610 C   0  0  0  0  0  3  0  0  0  0  0  0
  189.1790  177.7040  140.5880 C   0  0  0  0  0  3  0  0  0  0  0  0
  186.6210  178.5860  141.4330 N   0  0  0  0  0  0  0  0  0  0  0  0
  186.8620  178.3400  140.1160 C   0  0  0  0  0  0  0  0  0  0  0  0
  186.0580  178.2810  137.8160 C   0  0  0  0  0  3  0  0  0  0  0  0
  184.5780  178.9660  139.6330 C   0  0  0  0  0  0  0  0  0  0  0  0
  184.3960  179.1950  140.9630 N   0  0  0  0  0  0  0  0  0  0  0  0
  187.3120  177.8470  137.3840 C   0  0  0  0  0  3  0  0  0  0  0  0
  185.1820  179.2670  143.3120 C   0  0  1  0  0  3  0  0  0  0  0  0
  183.7830  179.8110  143.5430 C   0  0  0  0  0  1  0  0  0  0  0  0
  185.4070  177.9950  144.1190 C   0  0  0  0  0  2  0  0  0  0  0  0
  185.9810  178.3090  145.4900 C   0  0  1  0  0  3  0  0  0  0  0  0
  184.8410  178.5290  146.4640 C   0  0  0  0  0  1  0  0  0  0  0  0
  186.8490  177.1480  145.9690 C   0  0  0  0  0  2  0  0  0  0  0  0
  188.0520  177.6170  146.7860 C   0  0  1  0  0  3  0  0  0  0  0  0
  190.1670  177.7710  148.4430 C   0  0  0  0  0  2  0  0  0  0  0  0
  187.7320  177.6820  148.1540 O   0  0  0  0  0  0  0  0  0  0  0  0
  189.2790  176.7090  146.5830 C   0  0  2  0  0  3  0  0  0  0  0  0
  190.0470  176.5380  147.7640 O   0  0  0  0  0  0  0  0  0  0  0  0
  188.7880  178.3620  148.7970 C   0  0  0  0  0  2  0  0  0  0  0  0
  190.8520  176.1700  144.6780 C   0  0  0  0  0  3  0  0  0  0  0  0
  190.1210  177.1140  145.4100 C   0  0  0  0  0  0  0  0  0  0  0  0
  191.0090  180.2090  143.5600 N   0  0  0  0  0  1  0  0  0  0  0  0
  191.6530  177.9080  143.2500 N   0  0  0  0  0  0  0  0  0  0  0  0
  190.9500  178.8430  143.9460 C   0  0  0  0  0  0  0  0  0  0  0  0
  191.6200  176.5930  143.5910 C   0  0  0  0  0  3  0  0  0  0  0  0
  190.1690  178.4590  145.0400 C   0  0  0  0  0  3  0  0  0  0  0  0
  183.5270  179.1620  138.7290 O   0  0  0  0  0  0  0  0  0  0  0  0
  182.1010  175.7320  138.8460 C   0  0  0  0  0  2  0  0  0  0  0  0
  182.6140  175.3970  137.4360 C   0  0  1  0  0  0  0  0  0  0  0  0
  183.7550  174.4060  137.5460 C   0  0  0  0  0  1  0  0  0  0  0  0
  182.3210  177.8800  137.0540 C   0  0  0  0  0  2  0  0  0  0  0  0
  182.7720  176.9800  139.4150 C   0  0  0  0  0  2  0  0  0  0  0  0
  182.4850  178.2120  138.5480 C   0  0  1  0  0  3  0  0  0  0  0  0
  181.5870  174.8100  136.7230 F   0  0  0  0  0  0  0  0  0  0  0  0
  183.1100  176.6310  136.6690 C   0  0  0  0  0  2  0  0  0  0  0  0
  1  5  1  0  0  0  0
  2 13  1  0  0  0  0
  2 11  1  0  0  0  0
  3 16  1  0  0  0  0
  4  7  1  0  0  0  0
  5  9  2  0  0  0  0
  6  1  1  0  0  0  0
  7 11  2  0  0  0  0
  7  9  1  0  0  0  0
  8  4  1  0  0  0  0
  8  1  2  0  0  0  0
 10  3  2  0  0  0  0
 11 10  1  0  0  0  0
 12  2  2  0  0  0  0
 13 14  2  0  0  0  0
 14  3  1  0  0  0  0
 15 12  1  0  0  0  0
 15  4  2  0  0  0  0
 16 17  1  6  0  0  0
 16 18  1  0  0  0  0
 18 19  1  0  0  0  0
 19 21  1  0  0  0  0
 19 20  1  1  0  0  0
 22 21  1  6  0  0  0
 22 24  1  0  0  0  0
 23 27  1  0  0  0  0
 24 27  1  0  0  0  0
 25 29  1  6  0  0  0
 25 22  1  0  0  0  0
 25 26  1  0  0  0  0
 26 23  1  0  0  0  0
 28 29  1  0  0  0  0
 30 32  1  0  0  0  0
 31 33  1  0  0  0  0
 31 32  2  0  0  0  0
 32 34  1  0  0  0  0
 33 28  2  0  0  0  0
 34 29  2  0  0  0  0
 35 13  1  0  0  0  0
 36 40  1  0  0  0  0
 37 38  1  1  0  0  0
 37 36  1  0  0  0  0
 39 41  1  0  0  0  0
 41 35  1  6  0  0  0
 41 40  1  0  0  0  0
 42 37  1  0  0  0  0
 43 39  1  0  0  0  0
 43 37  1  0  0  0  0
M  END
>  <MODEL>
8

>  <REMARK>
 VINA RESULT:      -8.9      3.462      7.556
  Name = 
  8 active torsions:
  status: ('A' for Active; 'I' for Inactive)
    1  A    between atoms: O_1  and  C_34
    2  A    between atoms: O_1  and  C_35
    3  A    between atoms: C_2  and  C_6
    4  A    between atoms: C_2  and  C_13
    5  A    between atoms: C_3  and  C_4
    6  A    between atoms: C_3  and  C_12
    7  A    between atoms: C_6  and  C_12
    8  A    between atoms: C_14  and  C_22
                            x       y       z     vdW  Elec       q    Type
                         _______ _______ _______ _____ _____    ______ ____

>  <TORSDO>
F 8

$$$$
=
 OpenBabel11052416083D

 43 48  0  0  1  0  0  0  0  0999 V2000
  192.1770  177.1300  140.1380 C   0  0  0  0  0  0  0  0  0  0  0  0
  187.6160  177.8740  138.0900 C   0  0  0  0  0  0  0  0  0  0  0  0
  185.9560  178.5810  140.1770 C   0  0  0  0  0  0  0  0  0  0  0  0
  190.3200  177.3240  138.5960 C   0  0  0  0  0  0  0  0  0  0  0  0
  191.3400  177.4870  141.1980 C   0  0  0  0  0  3  0  0  0  0  0  0
  193.4840  176.8620  140.3690 F   0  0  0  0  0  0  0  0  0  0  0  0
  189.4660  177.6860  139.6660 C   0  0  0  0  0  0  0  0  0  0  0  0
  191.6680  177.0490  138.8390 C   0  0  0  0  0  3  0  0  0  0  0  0
  189.9910  177.7640  140.9650 C   0  0  0  0  0  3  0  0  0  0  0  0
  187.2650  178.3140  140.4170 N   0  0  0  0  0  0  0  0  0  0  0  0
  188.1100  177.9620  139.4100 C   0  0  0  0  0  0  0  0  0  0  0  0
  188.4730  177.5140  137.0420 C   0  0  0  0  0  3  0  0  0  0  0  0
  186.2640  178.1540  137.8620 C   0  0  0  0  0  0  0  0  0  0  0  0
  185.4670  178.5000  138.9100 N   0  0  0  0  0  0  0  0  0  0  0  0
  189.8180  177.2400  137.2950 C   0  0  0  0  0  3  0  0  0  0  0  0
  185.0640  178.9650  141.3110 C   0  0  1  0  0  3  0  0  0  0  0  0
  183.6270  179.0820  140.8340 C   0  0  0  0  0  1  0  0  0  0  0  0
  185.1770  177.9510  142.4420 C   0  0  0  0  0  2  0  0  0  0  0  0
  185.6130  178.6180  143.7360 C   0  0  1  0  0  3  0  0  0  0  0  0
  184.4220  179.3240  144.3520 C   0  0  0  0  0  1  0  0  0  0  0  0
  186.1470  177.5690  144.7080 C   0  0  0  0  0  2  0  0  0  0  0  0
  186.7460  178.1930  145.9670 C   0  0  1  0  0  3  0  0  0  0  0  0
  187.5380  178.7090  148.4870 C   0  0  0  0  0  2  0  0  0  0  0  0
  185.7340  178.6590  146.8250 O   0  0  0  0  0  0  0  0  0  0  0  0
  187.6550  177.2070  146.7250 C   0  0  2  0  0  3  0  0  0  0  0  0
  187.5680  177.3410  148.1350 O   0  0  0  0  0  0  0  0  0  0  0  0
  186.3570  179.4420  147.8190 C   0  0  0  0  0  2  0  0  0  0  0  0
  189.4070  177.7620  144.9900 C   0  0  0  0  0  3  0  0  0  0  0  0
  189.0730  177.2210  146.2380 C   0  0  0  0  0  0  0  0  0  0  0  0
  192.4310  176.1640  147.4180 N   0  0  0  0  0  1  0  0  0  0  0  0
  191.7020  177.2330  145.3850 N   0  0  0  0  0  0  0  0  0  0  0  0
  191.4000  176.7040  146.6020 C   0  0  0  0  0  0  0  0  0  0  0  0
  190.7420  177.7580  144.5780 C   0  0  0  0  0  3  0  0  0  0  0  0
  190.0770  176.6900  147.0490 C   0  0  0  0  0  3  0  0  0  0  0  0
  185.7390  178.0750  136.5670 O   0  0  0  0  0  0  0  0  0  0  0  0
  184.0640  174.7880  137.0140 C   0  0  0  0  0  2  0  0  0  0  0  0
  185.2720  174.0190  136.4570 C   0  0  1  0  0  0  0  0  0  0  0  0
  185.9560  173.2820  137.5900 C   0  0  0  0  0  1  0  0  0  0  0  0
  185.6300  176.1310  135.1130 C   0  0  0  0  0  2  0  0  0  0  0  0
  184.4210  176.2280  137.3750 C   0  0  0  0  0  2  0  0  0  0  0  0
  184.8980  177.0090  136.1440 C   0  0  1  0  0  3  0  0  0  0  0  0
  184.8180  173.0930  135.5390 F   0  0  0  0  0  0  0  0  0  0  0  0
  186.3020  174.9320  135.7750 C   0  0  0  0  0  2  0  0  0  0  0  0
  1  6  1  0  0  0  0
  1  5  1  0  0  0  0
  2 11  1  0  0  0  0
  3 10  2  0  0  0  0
  3 16  1  0  0  0  0
  4  8  1  0  0  0  0
  4  7  1  0  0  0  0
  7  9  1  0  0  0  0
  8  1  2  0  0  0  0
  9  5  2  0  0  0  0
 11  7  2  0  0  0  0
 11 10  1  0  0  0  0
 12 15  1  0  0  0  0
 12  2  2  0  0  0  0
 13  2  1  0  0  0  0
 13 14  2  0  0  0  0
 14  3  1  0  0  0  0
 15  4  2  0  0  0  0
 16 17  1  6  0  0  0
 16 18  1  0  0  0  0
 18 19  1  0  0  0  0
 19 20  1  1  0  0  0
 19 21  1  0  0  0  0
 22 21  1  6  0  0  0
 22 25  1  0  0  0  0
 22 24  1  0  0  0  0
 24 27  1  0  0  0  0
 25 29  1  6  0  0  0
 25 26  1  0  0  0  0
 26 23  1  0  0  0  0
 27 23  1  0  0  0  0
 28 29  1  0  0  0  0
 29 34  2  0  0  0  0
 31 32  2  0  0  0  0
 32 34  1  0  0  0  0
 32 30  1  0  0  0  0
 33 28  2  0  0  0  0
 33 31  1  0  0  0  0
 35 13  1  0  0  0  0
 36 40  1  0  0  0  0
 37 36  1  0  0  0  0
 37 38  1  1  0  0  0
 39 43  1  0  0  0  0
 39 41  1  0  0  0  0
 41 35  1  1  0  0  0
 41 40  1  0  0  0  0
 42 37  1  0  0  0  0
 43 37  1  0  0  0  0
M  END
>  <MODEL>
9

>  <REMARK>
 VINA RESULT:      -8.9      3.386      8.070
  Name = 
  8 active torsions:
  status: ('A' for Active; 'I' for Inactive)
    1  A    between atoms: O_1  and  C_34
    2  A    between atoms: O_1  and  C_35
    3  A    between atoms: C_2  and  C_6
    4  A    between atoms: C_2  and  C_13
    5  A    between atoms: C_3  and  C_4
    6  A    between atoms: C_3  and  C_12
    7  A    between atoms: C_6  and  C_12
    8  A    between atoms: C_14  and  C_22
                            x       y       z     vdW  Elec       q    Type
                         _______ _______ _______ _____ _____    ______ ____

>  <TORSDO>
F 8

$$$$
