=
 OpenBabel11052412453D

 25 28  0  0  1  0  0  0  0  0999 V2000
  187.0640  177.8900  145.2240 C   0  0  0  0  0  0  0  0  0  0  0  0
  188.3120  177.4850  144.7390 C   0  0  0  0  0  0  0  0  0  0  0  0
  187.8860  177.7530  147.4700 N   0  0  0  0  0  0  0  0  0  0  0  0
  185.8990  178.2090  144.5130 C   0  0  0  0  0  0  0  0  0  0  0  0
  183.4130  178.9170  143.4560 C   0  0  0  0  0  3  0  0  0  0  0  0
  189.0830  177.3660  147.0170 N   0  0  0  0  0  0  0  0  0  0  0  0
  184.8440  178.5740  145.3490 C   0  0  0  0  0  0  0  0  0  0  0  0
  183.5950  178.9300  144.8470 C   0  0  0  0  0  3  0  0  0  0  0  0
  190.5960  176.8190  145.2150 C   0  0  0  0  0  0  0  0  0  0  0  0
  191.7150  176.5340  146.1570 C   0  0  0  0  0  1  0  0  0  0  0  0
  188.5550  177.3440  143.4080 N   0  0  0  0  0  0  0  0  0  0  0  0
  184.4690  178.5520  142.6010 C   0  0  0  0  0  3  0  0  0  0  0  0
  186.8860  178.0130  146.5930 C   0  0  0  0  0  0  0  0  0  0  0  0
  185.3190  178.5100  146.9700 S   0  0  0  0  0  0  0  0  0  0  0  0
  190.8130  176.6860  143.8420 C   0  0  0  0  0  3  0  0  0  0  0  0
  185.7220  178.1950  143.1260 C   0  0  0  0  0  3  0  0  0  0  0  0
  189.7720  176.9480  142.9460 C   0  0  0  0  0  0  0  0  0  0  0  0
  189.3350  177.2220  145.6790 C   0  0  0  0  0  0  0  0  0  0  0  0
  190.0050  176.8300  141.4820 C   0  0  0  0  0  2  0  0  0  0  0  0
  188.7610  177.8000  140.5820 S   0  0  0  0  0  0  0  0  0  0  0  0
  189.7780  177.8630  139.0760 C   0  0  1  0  0  3  0  0  0  0  0  0
  190.3790  176.4970  138.7930 C   0  0  0  0  0  1  0  0  0  0  0  0
  188.9600  178.3210  137.9150 C   0  0  0  0  0  0  0  0  0  0  0  0
  188.9680  179.6630  137.5570 O   0  0  0  0  0  1  0  0  0  0  0  0
  188.2610  177.5040  137.2580 O   0  0  0  0  0  0  0  0  0  0  0  0
  1 13  1  0  0  0  0
  2  1  2  0  0  0  0
  2 18  1  0  0  0  0
  4  1  1  0  0  0  0
  4  7  1  0  0  0  0
  5  8  1  0  0  0  0
  6  3  1  0  0  0  0
  7 14  1  0  0  0  0
  8  7  2  0  0  0  0
  9 18  1  0  0  0  0
  9 10  1  0  0  0  0
 11  2  1  0  0  0  0
 12 16  1  0  0  0  0
 12  5  2  0  0  0  0
 13 14  1  0  0  0  0
 13  3  2  0  0  0  0
 15  9  2  0  0  0  0
 16  4  2  0  0  0  0
 17 11  2  0  0  0  0
 17 15  1  0  0  0  0
 18  6  2  0  0  0  0
 19 17  1  0  0  0  0
 20 19  1  0  0  0  0
 21 22  1  6  0  0  0
 21 20  1  0  0  0  0
 23 21  1  0  0  0  0
 24 23  1  0  0  0  0
 25 23  2  0  0  0  0
M  END
>  <MODEL>
1

>  <REMARK>
 VINA RESULT:      -9.7      0.000      0.000
  Name = 
  4 active torsions:
  status: ('A' for Active; 'I' for Inactive)
    1  A    between atoms: C_2  and  C_21
    2  A    between atoms: C_6  and  S_15
    3  A    between atoms: C_6  and  C_23
    4  A    between atoms: S_15  and  C_21
                            x       y       z     vdW  Elec       q    Type
                         _______ _______ _______ _____ _____    ______ ____

>  <TORSDO>
F 4

$$$$
=
 OpenBabel11052412453D

 25 28  0  0  1  0  0  0  0  0999 V2000
  187.2890  177.9400  145.6160 C   0  0  0  0  0  0  0  0  0  0  0  0
  186.3990  178.2620  144.5870 C   0  0  0  0  0  0  0  0  0  0  0  0
  185.5470  178.2480  147.2290 N   0  0  0  0  0  0  0  0  0  0  0  0
  188.6470  177.5950  145.5370 C   0  0  0  0  0  0  0  0  0  0  0  0
  191.3330  176.8740  145.7810 C   0  0  0  0  0  3  0  0  0  0  0  0
  184.6860  178.5570  146.2530 N   0  0  0  0  0  0  0  0  0  0  0  0
  189.2070  177.3380  146.7880 C   0  0  0  0  0  0  0  0  0  0  0  0
  190.5440  176.9770  146.9370 C   0  0  0  0  0  3  0  0  0  0  0  0
  184.1540  178.8970  143.9220 C   0  0  0  0  0  0  0  0  0  0  0  0
  182.7340  179.2290  144.2290 C   0  0  0  0  0  1  0  0  0  0  0  0
  186.7830  178.2780  143.2820 N   0  0  0  0  0  0  0  0  0  0  0  0
  190.7800  177.1300  144.5130 C   0  0  0  0  0  3  0  0  0  0  0  0
  186.8310  177.9430  146.9240 C   0  0  0  0  0  0  0  0  0  0  0  0
  188.0540  177.5300  148.0080 S   0  0  0  0  0  0  0  0  0  0  0  0
  184.5800  178.9020  142.5920 C   0  0  0  0  0  3  0  0  0  0  0  0
  189.4300  177.4930  144.3840 C   0  0  0  0  0  3  0  0  0  0  0  0
  185.9100  178.5950  142.2880 C   0  0  0  0  0  0  0  0  0  0  0  0
  185.0660  178.5750  144.9380 C   0  0  0  0  0  0  0  0  0  0  0  0
  186.3630  178.5770  140.8720 C   0  0  0  0  0  2  0  0  0  0  0  0
  188.1340  178.1770  140.7980 S   0  0  0  0  0  0  0  0  0  0  0  0
  188.0380  177.7010  139.0450 C   0  0  1  0  0  3  0  0  0  0  0  0
  186.6910  178.0960  138.4690 C   0  0  0  0  0  1  0  0  0  0  0  0
  189.1430  178.3410  138.2720 C   0  0  0  0  0  0  0  0  0  0  0  0
  190.3140  177.6350  138.0370 O   0  0  0  0  0  1  0  0  0  0  0  0
  189.0230  179.5160  137.8330 O   0  0  0  0  0  0  0  0  0  0  0  0
  1 13  2  0  0  0  0
  2 18  1  0  0  0  0
  2  1  1  0  0  0  0
  4  1  1  0  0  0  0
  4  7  1  0  0  0  0
  5  8  1  0  0  0  0
  6  3  2  0  0  0  0
  7  8  2  0  0  0  0
  7 14  1  0  0  0  0
  9 10  1  0  0  0  0
  9 18  2  0  0  0  0
 11  2  2  0  0  0  0
 12  5  2  0  0  0  0
 13  3  1  0  0  0  0
 13 14  1  0  0  0  0
 15  9  1  0  0  0  0
 16 12  1  0  0  0  0
 16  4  2  0  0  0  0
 17 15  2  0  0  0  0
 17 11  1  0  0  0  0
 18  6  1  0  0  0  0
 19 17  1  0  0  0  0
 20 19  1  0  0  0  0
 21 22  1  6  0  0  0
 21 20  1  0  0  0  0
 23 21  1  0  0  0  0
 24 23  1  0  0  0  0
 25 23  2  0  0  0  0
M  END
>  <MODEL>
2

>  <REMARK>
 VINA RESULT:      -9.5      1.591      4.639
  Name = 
  4 active torsions:
  status: ('A' for Active; 'I' for Inactive)
    1  A    between atoms: C_2  and  C_21
    2  A    between atoms: C_6  and  S_15
    3  A    between atoms: C_6  and  C_23
    4  A    between atoms: S_15  and  C_21
                            x       y       z     vdW  Elec       q    Type
                         _______ _______ _______ _____ _____    ______ ____

>  <TORSDO>
F 4

$$$$
=
 OpenBabel11052412453D

 25 28  0  0  1  0  0  0  0  0999 V2000
  187.3410  177.8970  145.8390 C   0  0  0  0  0  0  0  0  0  0  0  0
  186.5250  178.1780  144.7380 C   0  0  0  0  0  0  0  0  0  0  0  0
  185.5150  178.3580  147.3180 N   0  0  0  0  0  0  0  0  0  0  0  0
  188.6890  177.5100  145.8660 C   0  0  0  0  0  0  0  0  0  0  0  0
  191.3310  176.7300  146.3210 C   0  0  0  0  0  3  0  0  0  0  0  0
  184.7250  178.6270  146.2720 N   0  0  0  0  0  0  0  0  0  0  0  0
  189.1640  177.3180  147.1630 C   0  0  0  0  0  0  0  0  0  0  0  0
  190.4770  176.9300  147.4160 C   0  0  0  0  0  3  0  0  0  0  0  0
  184.3450  178.8310  143.8960 C   0  0  0  0  0  0  0  0  0  0  0  0
  182.9210  179.2230  144.0930 C   0  0  0  0  0  1  0  0  0  0  0  0
  186.9870  178.0980  143.4610 N   0  0  0  0  0  0  0  0  0  0  0  0
  190.8640  176.9190  145.0070 C   0  0  0  0  0  3  0  0  0  0  0  0
  186.8050  177.9980  147.1120 C   0  0  0  0  0  0  0  0  0  0  0  0
  187.9460  177.6210  148.2950 S   0  0  0  0  0  0  0  0  0  0  0  0
  184.8510  178.7390  142.5980 C   0  0  0  0  0  3  0  0  0  0  0  0
  189.5360  177.3110  144.7720 C   0  0  0  0  0  3  0  0  0  0  0  0
  186.1860  178.3750  142.3960 C   0  0  0  0  0  0  0  0  0  0  0  0
  185.1840  178.5500  144.9850 C   0  0  0  0  0  0  0  0  0  0  0  0
  186.7230  178.2530  141.0150 C   0  0  0  0  0  2  0  0  0  0  0  0
  188.5000  178.6280  141.0110 S   0  0  0  0  0  0  0  0  0  0  0  0
  188.8330  177.4410  139.6740 C   0  0  1  0  0  3  0  0  0  0  0  0
  188.8210  178.1490  138.3310 C   0  0  0  0  0  1  0  0  0  0  0  0
  190.1450  176.7650  139.8940 C   0  0  0  0  0  0  0  0  0  0  0  0
  190.9220  177.1170  140.9900 O   0  0  0  0  0  1  0  0  0  0  0  0
  190.5560  175.8810  139.0960 O   0  0  0  0  0  0  0  0  0  0  0  0
  1  4  1  0  0  0  0
  1 13  2  0  0  0  0
  2 18  1  0  0  0  0
  2  1  1  0  0  0  0
  4  7  1  0  0  0  0
  5  8  1  0  0  0  0
  6  3  2  0  0  0  0
  7  8  2  0  0  0  0
  7 14  1  0  0  0  0
  9 10  1  0  0  0  0
  9 18  2  0  0  0  0
 11  2  2  0  0  0  0
 12  5  2  0  0  0  0
 13  3  1  0  0  0  0
 13 14  1  0  0  0  0
 15  9  1  0  0  0  0
 16 12  1  0  0  0  0
 16  4  2  0  0  0  0
 17 15  2  0  0  0  0
 17 11  1  0  0  0  0
 18  6  1  0  0  0  0
 19 17  1  0  0  0  0
 20 19  1  0  0  0  0
 21 22  1  6  0  0  0
 21 23  1  0  0  0  0
 21 20  1  0  0  0  0
 23 24  1  0  0  0  0
 25 23  2  0  0  0  0
M  END
>  <MODEL>
3

>  <REMARK>
 VINA RESULT:      -9.5      1.833      4.691
  Name = 
  4 active torsions:
  status: ('A' for Active; 'I' for Inactive)
    1  A    between atoms: C_2  and  C_21
    2  A    between atoms: C_6  and  S_15
    3  A    between atoms: C_6  and  C_23
    4  A    between atoms: S_15  and  C_21
                            x       y       z     vdW  Elec       q    Type
                         _______ _______ _______ _____ _____    ______ ____

>  <TORSDO>
F 4

$$$$
=
 OpenBabel11052412453D

 25 28  0  0  1  0  0  0  0  0999 V2000
  186.6710  178.3410  142.0910 C   0  0  0  0  0  0  0  0  0  0  0  0
  187.8720  178.0800  141.4230 C   0  0  0  0  0  0  0  0  0  0  0  0
  185.6200  178.8770  140.0070 N   0  0  0  0  0  0  0  0  0  0  0  0
  186.3870  178.2640  143.4620 C   0  0  0  0  0  0  0  0  0  0  0  0
  185.4460  178.2240  146.0900 C   0  0  0  0  0  3  0  0  0  0  0  0
  186.7630  178.6280  139.3570 N   0  0  0  0  0  0  0  0  0  0  0  0
  185.0650  178.6020  143.7530 C   0  0  0  0  0  0  0  0  0  0  0  0
  184.5720  178.5910  145.0560 C   0  0  0  0  0  3  0  0  0  0  0  0
  189.0870  177.9720  139.3250 C   0  0  0  0  0  0  0  0  0  0  0  0
  189.1710  178.1100  137.8440 C   0  0  0  0  0  1  0  0  0  0  0  0
  188.9930  177.6870  142.0850 N   0  0  0  0  0  0  0  0  0  0  0  0
  186.7810  177.8800  145.8100 C   0  0  0  0  0  3  0  0  0  0  0  0
  185.5670  178.7370  141.3540 C   0  0  0  0  0  0  0  0  0  0  0  0
  184.2270  179.0020  142.3420 S   0  0  0  0  0  0  0  0  0  0  0  0
  190.2200  177.5690  140.0350 C   0  0  0  0  0  3  0  0  0  0  0  0
  187.2600  177.8980  144.4900 C   0  0  0  0  0  3  0  0  0  0  0  0
  190.1570  177.4370  141.4260 C   0  0  0  0  0  0  0  0  0  0  0  0
  187.8950  178.2330  140.0170 C   0  0  0  0  0  0  0  0  0  0  0  0
  191.3540  176.9860  142.1830 C   0  0  0  0  0  2  0  0  0  0  0  0
  190.8370  175.9970  143.6170 S   0  0  0  0  0  0  0  0  0  0  0  0
  191.6800  177.1030  144.7890 C   0  0  1  0  0  3  0  0  0  0  0  0
  191.3220  178.5490  144.4930 C   0  0  0  0  0  1  0  0  0  0  0  0
  191.3090  176.7530  146.1920 C   0  0  0  0  0  0  0  0  0  0  0  0
  190.0040  176.9440  146.6250 O   0  0  0  0  0  0  0  0  0  0  0  0
  192.1690  176.2880  146.9870 O   0  0  0  0  0  1  0  0  0  0  0  0
  1  4  1  0  0  0  0
  2 11  1  0  0  0  0
  2  1  1  0  0  0  0
  3 13  1  0  0  0  0
  4  7  2  0  0  0  0
  4 16  1  0  0  0  0
  6  3  2  0  0  0  0
  6 18  1  0  0  0  0
  7  8  1  0  0  0  0
  8  5  2  0  0  0  0
  9 18  1  0  0  0  0
  9 15  2  0  0  0  0
 10  9  1  0  0  0  0
 12  5  1  0  0  0  0
 13  1  2  0  0  0  0
 13 14  1  0  0  0  0
 14  7  1  0  0  0  0
 15 17  1  0  0  0  0
 16 12  2  0  0  0  0
 17 11  2  0  0  0  0
 17 19  1  0  0  0  0
 18  2  2  0  0  0  0
 19 20  1  0  0  0  0
 20 21  1  0  0  0  0
 21 22  1  6  0  0  0
 21 23  1  0  0  0  0
 23 24  2  0  0  0  0
 23 25  1  0  0  0  0
M  END
>  <MODEL>
4

>  <REMARK>
 VINA RESULT:      -9.2      3.557      5.597
  Name = 
  4 active torsions:
  status: ('A' for Active; 'I' for Inactive)
    1  A    between atoms: C_2  and  C_21
    2  A    between atoms: C_6  and  S_15
    3  A    between atoms: C_6  and  C_23
    4  A    between atoms: S_15  and  C_21
                            x       y       z     vdW  Elec       q    Type
                         _______ _______ _______ _____ _____    ______ ____

>  <TORSDO>
F 4

$$$$
=
 OpenBabel11052412453D

 25 28  0  0  1  0  0  0  0  0999 V2000
  189.3430  177.4520  144.1560 C   0  0  0  0  0  0  0  0  0  0  0  0
  188.3850  177.7310  145.1360 C   0  0  0  0  0  0  0  0  0  0  0  0
  190.9390  176.9160  145.8600 N   0  0  0  0  0  0  0  0  0  0  0  0
  189.2270  177.5180  142.7600 C   0  0  0  0  0  0  0  0  0  0  0  0
  189.3790  177.5260  139.9720 C   0  0  0  0  0  3  0  0  0  0  0  0
  190.0290  177.1800  146.8050 N   0  0  0  0  0  0  0  0  0  0  0  0
  190.4070  177.1620  142.1080 C   0  0  0  0  0  0  0  0  0  0  0  0
  190.5090  177.1580  140.7190 C   0  0  0  0  0  3  0  0  0  0  0  0
  187.8140  177.8530  147.4910 C   0  0  0  0  0  0  0  0  0  0  0  0
  188.1490  177.7100  148.9360 C   0  0  0  0  0  1  0  0  0  0  0  0
  187.1240  178.1310  144.8170 N   0  0  0  0  0  0  0  0  0  0  0  0
  188.1820  177.8870  140.6180 C   0  0  0  0  0  3  0  0  0  0  0  0
  190.6080  177.0480  144.5520 C   0  0  0  0  0  0  0  0  0  0  0  0
  191.6090  176.7630  143.2260 S   0  0  0  0  0  0  0  0  0  0  0  0
  186.5290  178.2610  147.1290 C   0  0  0  0  0  3  0  0  0  0  0  0
  188.0990  177.8840  142.0200 C   0  0  0  0  0  3  0  0  0  0  0  0
  186.2000  178.4030  145.7770 C   0  0  0  0  0  0  0  0  0  0  0  0
  188.7600  177.5830  146.4910 C   0  0  0  0  0  0  0  0  0  0  0  0
  184.8260  178.8140  145.3860 C   0  0  0  0  0  2  0  0  0  0  0  0
  184.8810  179.7300  143.8180 S   0  0  0  0  0  0  0  0  0  0  0  0
  183.7510  178.5640  143.0000 C   0  0  1  0  0  3  0  0  0  0  0  0
  182.3110  179.0030  143.2000 C   0  0  0  0  0  1  0  0  0  0  0  0
  184.0680  178.4670  141.5450 C   0  0  0  0  0  0  0  0  0  0  0  0
  184.9470  179.3760  140.9730 O   0  0  0  0  0  1  0  0  0  0  0  0
  183.5440  177.5710  140.8310 O   0  0  0  0  0  0  0  0  0  0  0  0
  1 13  1  0  0  0  0
  1  2  2  0  0  0  0
  2 18  1  0  0  0  0
  3  6  1  0  0  0  0
  4  1  1  0  0  0  0
  5 12  2  0  0  0  0
  5  8  1  0  0  0  0
  7  4  1  0  0  0  0
  7 14  1  0  0  0  0
  8  7  2  0  0  0  0
  9 10  1  0  0  0  0
 11  2  1  0  0  0  0
 11 17  2  0  0  0  0
 12 16  1  0  0  0  0
 13  3  2  0  0  0  0
 14 13  1  0  0  0  0
 15  9  2  0  0  0  0
 16  4  2  0  0  0  0
 17 15  1  0  0  0  0
 18  6  2  0  0  0  0
 18  9  1  0  0  0  0
 19 17  1  0  0  0  0
 20 19  1  0  0  0  0
 21 22  1  6  0  0  0
 21 20  1  0  0  0  0
 23 21  1  0  0  0  0
 24 23  1  0  0  0  0
 25 23  2  0  0  0  0
M  END
>  <MODEL>
5

>  <REMARK>
 VINA RESULT:      -9.0      2.290      5.334
  Name = 
  4 active torsions:
  status: ('A' for Active; 'I' for Inactive)
    1  A    between atoms: C_2  and  C_21
    2  A    between atoms: C_6  and  S_15
    3  A    between atoms: C_6  and  C_23
    4  A    between atoms: S_15  and  C_21
                            x       y       z     vdW  Elec       q    Type
                         _______ _______ _______ _____ _____    ______ ____

>  <TORSDO>
F 4

$$$$
=
 OpenBabel11052412453D

 25 28  0  0  1  0  0  0  0  0999 V2000
  184.3640  178.4750  143.5650 C   0  0  0  0  0  0  0  0  0  0  0  0
  185.6560  178.1740  144.0060 C   0  0  0  0  0  0  0  0  0  0  0  0
  183.6780  178.8730  145.8250 N   0  0  0  0  0  0  0  0  0  0  0  0
  183.8550  178.4860  142.2580 C   0  0  0  0  0  0  0  0  0  0  0  0
  182.4910  178.6200  139.8250 C   0  0  0  0  0  3  0  0  0  0  0  0
  184.9120  178.5880  146.2570 N   0  0  0  0  0  0  0  0  0  0  0  0
  182.5060  178.8400  142.2130 C   0  0  0  0  0  0  0  0  0  0  0  0
  181.8040  178.9130  141.0120 C   0  0  0  0  0  3  0  0  0  0  0  0
  187.2060  177.9470  145.8590 C   0  0  0  0  0  0  0  0  0  0  0  0
  187.5400  178.0040  147.3100 C   0  0  0  0  0  1  0  0  0  0  0  0
  186.6500  177.8300  143.1420 N   0  0  0  0  0  0  0  0  0  0  0  0
  183.8520  178.2620  139.8570 C   0  0  0  0  0  3  0  0  0  0  0  0
  183.4010  178.8200  144.4990 C   0  0  0  0  0  0  0  0  0  0  0  0
  181.9170  179.1430  143.7670 S   0  0  0  0  0  0  0  0  0  0  0  0
  188.2020  177.5980  144.9460 C   0  0  0  0  0  3  0  0  0  0  0  0
  184.5430  178.1930  141.0770 C   0  0  0  0  0  3  0  0  0  0  0  0
  187.9040  177.5370  143.5810 C   0  0  0  0  0  0  0  0  0  0  0  0
  185.9150  178.2400  145.3940 C   0  0  0  0  0  0  0  0  0  0  0  0
  188.9670  177.1880  142.6030 C   0  0  0  0  0  2  0  0  0  0  0  0
  190.0230  175.8760  143.2840 S   0  0  0  0  0  0  0  0  0  0  0  0
  191.5330  176.8680  143.0760 C   0  0  1  0  0  3  0  0  0  0  0  0
  191.5180  177.5680  141.7290 C   0  0  0  0  0  1  0  0  0  0  0  0
  191.6540  177.8660  144.1790 C   0  0  0  0  0  0  0  0  0  0  0  0
  191.7770  177.4280  145.4910 O   0  0  0  0  0  1  0  0  0  0  0  0
  191.6440  179.1020  143.9330 O   0  0  0  0  0  0  0  0  0  0  0  0
  1  2  2  0  0  0  0
  1 13  1  0  0  0  0
  2 18  1  0  0  0  0
  3  6  1  0  0  0  0
  4  1  1  0  0  0  0
  5 12  2  0  0  0  0
  5  8  1  0  0  0  0
  7  4  1  0  0  0  0
  7 14  1  0  0  0  0
  8  7  2  0  0  0  0
  9 10  1  0  0  0  0
 11 17  2  0  0  0  0
 11  2  1  0  0  0  0
 12 16  1  0  0  0  0
 13  3  2  0  0  0  0
 14 13  1  0  0  0  0
 15  9  2  0  0  0  0
 16  4  2  0  0  0  0
 17 15  1  0  0  0  0
 18  9  1  0  0  0  0
 18  6  2  0  0  0  0
 19 20  1  0  0  0  0
 19 17  1  0  0  0  0
 21 22  1  6  0  0  0
 21 20  1  0  0  0  0
 21 23  1  0  0  0  0
 23 24  1  0  0  0  0
 25 23  2  0  0  0  0
M  END
>  <MODEL>
6

>  <REMARK>
 VINA RESULT:      -8.9      3.106      4.292
  Name = 
  4 active torsions:
  status: ('A' for Active; 'I' for Inactive)
    1  A    between atoms: C_2  and  C_21
    2  A    between atoms: C_6  and  S_15
    3  A    between atoms: C_6  and  C_23
    4  A    between atoms: S_15  and  C_21
                            x       y       z     vdW  Elec       q    Type
                         _______ _______ _______ _____ _____    ______ ____

>  <TORSDO>
F 4

$$$$
=
 OpenBabel11052412453D

 25 28  0  0  1  0  0  0  0  0999 V2000
  189.5860  177.4360  144.2330 C   0  0  0  0  0  0  0  0  0  0  0  0
  189.1230  177.6670  142.9340 C   0  0  0  0  0  0  0  0  0  0  0  0
  191.7300  176.8140  143.3660 N   0  0  0  0  0  0  0  0  0  0  0  0
  188.9060  177.5720  145.4520 C   0  0  0  0  0  0  0  0  0  0  0  0
  187.8980  177.7260  148.0520 C   0  0  0  0  0  3  0  0  0  0  0  0
  191.2980  177.0330  142.1190 N   0  0  0  0  0  0  0  0  0  0  0  0
  189.7050  177.2490  146.5490 C   0  0  0  0  0  0  0  0  0  0  0  0
  189.2260  177.3170  147.8550 C   0  0  0  0  0  3  0  0  0  0  0  0
  189.5800  177.6840  140.5510 C   0  0  0  0  0  0  0  0  0  0  0  0
  190.4820  177.4820  139.3820 C   0  0  0  0  0  1  0  0  0  0  0  0
  187.8530  178.0860  142.6860 N   0  0  0  0  0  0  0  0  0  0  0  0
  187.0820  178.0560  146.9540 C   0  0  0  0  0  3  0  0  0  0  0  0
  190.8920  177.0100  144.4130 C   0  0  0  0  0  0  0  0  0  0  0  0
  191.2510  176.7900  146.0450 S   0  0  0  0  0  0  0  0  0  0  0  0
  188.2700  178.1150  140.3320 C   0  0  0  0  0  3  0  0  0  0  0  0
  187.5830  177.9810  145.6440 C   0  0  0  0  0  3  0  0  0  0  0  0
  187.4110  178.3060  141.4180 C   0  0  0  0  0  0  0  0  0  0  0  0
  190.0210  177.4540  141.8630 C   0  0  0  0  0  0  0  0  0  0  0  0
  186.0230  178.7880  141.1920 C   0  0  0  0  0  2  0  0  0  0  0  0
  184.9940  178.4020  142.6390 S   0  0  0  0  0  0  0  0  0  0  0  0
  183.4530  178.7600  141.7430 C   0  0  1  0  0  3  0  0  0  0  0  0
  183.1930  177.6880  140.7000 C   0  0  0  0  0  1  0  0  0  0  0  0
  182.3070  178.8470  142.6960 C   0  0  0  0  0  0  0  0  0  0  0  0
  181.0130  178.9560  142.2040 O   0  0  0  0  0  0  0  0  0  0  0  0
  182.5020  178.8250  143.9410 O   0  0  0  0  0  1  0  0  0  0  0  0
  1 13  2  0  0  0  0
  1  4  1  0  0  0  0
  2  1  1  0  0  0  0
  3 13  1  0  0  0  0
  4 16  2  0  0  0  0
  4  7  1  0  0  0  0
  6  3  2  0  0  0  0
  7  8  2  0  0  0  0
  8  5  1  0  0  0  0
  9 18  1  0  0  0  0
 10  9  1  0  0  0  0
 11  2  1  0  0  0  0
 12  5  2  0  0  0  0
 13 14  1  0  0  0  0
 14  7  1  0  0  0  0
 15  9  2  0  0  0  0
 15 17  1  0  0  0  0
 16 12  1  0  0  0  0
 17 11  2  0  0  0  0
 18  6  1  0  0  0  0
 18  2  2  0  0  0  0
 19 17  1  0  0  0  0
 19 20  1  0  0  0  0
 21 22  1  6  0  0  0
 21 20  1  0  0  0  0
 21 23  1  0  0  0  0
 23 25  1  0  0  0  0
 24 23  2  0  0  0  0
M  END
>  <MODEL>
7

>  <REMARK>
 VINA RESULT:      -8.9      3.388      5.612
  Name = 
  4 active torsions:
  status: ('A' for Active; 'I' for Inactive)
    1  A    between atoms: C_2  and  C_21
    2  A    between atoms: C_6  and  S_15
    3  A    between atoms: C_6  and  C_23
    4  A    between atoms: S_15  and  C_21
                            x       y       z     vdW  Elec       q    Type
                         _______ _______ _______ _____ _____    ______ ____

>  <TORSDO>
F 4

$$$$
=
 OpenBabel11052412453D

 25 28  0  0  1  0  0  0  0  0999 V2000
  186.4430  178.3120  141.9810 C   0  0  0  0  0  0  0  0  0  0  0  0
  187.7870  177.9410  141.8620 C   0  0  0  0  0  0  0  0  0  0  0  0
  186.3070  178.6050  139.6080 N   0  0  0  0  0  0  0  0  0  0  0  0
  185.6520  178.4130  143.1340 C   0  0  0  0  0  0  0  0  0  0  0  0
  183.7790  178.7250  145.1820 C   0  0  0  0  0  3  0  0  0  0  0  0
  187.5910  178.2510  139.4820 N   0  0  0  0  0  0  0  0  0  0  0  0
  184.3470  178.8160  142.8540 C   0  0  0  0  0  0  0  0  0  0  0  0
  183.3940  178.9790  143.8570 C   0  0  0  0  0  3  0  0  0  0  0  0
  189.6990  177.5440  140.4230 C   0  0  0  0  0  0  0  0  0  0  0  0
  190.3520  177.4930  139.0840 C   0  0  0  0  0  1  0  0  0  0  0  0
  188.5410  177.6090  142.9440 N   0  0  0  0  0  0  0  0  0  0  0  0
  185.0930  178.3180  145.4790 C   0  0  0  0  0  3  0  0  0  0  0  0
  185.7340  178.6370  140.8360 C   0  0  0  0  0  0  0  0  0  0  0  0
  184.1400  179.0540  141.1940 S   0  0  0  0  0  0  0  0  0  0  0  0
  190.4450  177.2070  141.5550 C   0  0  0  0  0  3  0  0  0  0  0  0
  186.0400  178.1590  144.4530 C   0  0  0  0  0  3  0  0  0  0  0  0
  189.8470  177.2520  142.8180 C   0  0  0  0  0  0  0  0  0  0  0  0
  188.3550  177.9170  140.5670 C   0  0  0  0  0  0  0  0  0  0  0  0
  190.6300  176.8720  144.0240 C   0  0  0  0  0  2  0  0  0  0  0  0
  190.4460  178.1490  145.3040 S   0  0  0  0  0  0  0  0  0  0  0  0
  190.0520  176.9230  146.5880 C   0  0  1  0  0  3  0  0  0  0  0  0
  191.3180  176.4990  147.3110 C   0  0  0  0  0  1  0  0  0  0  0  0
  189.0630  177.4830  147.5550 C   0  0  0  0  0  0  0  0  0  0  0  0
  187.7200  177.1530  147.4310 O   0  0  0  0  0  0  0  0  0  0  0  0
  189.4340  178.2530  148.4800 O   0  0  0  0  0  1  0  0  0  0  0  0
  1  4  1  0  0  0  0
  2  1  1  0  0  0  0
  2 11  1  0  0  0  0
  3 13  1  0  0  0  0
  4 16  1  0  0  0  0
  5 12  1  0  0  0  0
  6  3  2  0  0  0  0
  6 18  1  0  0  0  0
  7  4  2  0  0  0  0
  7  8  1  0  0  0  0
  8  5  2  0  0  0  0
  9 18  1  0  0  0  0
  9 15  2  0  0  0  0
 10  9  1  0  0  0  0
 13 14  1  0  0  0  0
 13  1  2  0  0  0  0
 14  7  1  0  0  0  0
 15 17  1  0  0  0  0
 16 12  2  0  0  0  0
 17 11  2  0  0  0  0
 17 19  1  0  0  0  0
 18  2  2  0  0  0  0
 19 20  1  0  0  0  0
 20 21  1  0  0  0  0
 21 22  1  1  0  0  0
 21 23  1  0  0  0  0
 23 25  1  0  0  0  0
 24 23  2  0  0  0  0
M  END
>  <MODEL>
8

>  <REMARK>
 VINA RESULT:      -8.8      3.684      5.791
  Name = 
  4 active torsions:
  status: ('A' for Active; 'I' for Inactive)
    1  A    between atoms: C_2  and  C_21
    2  A    between atoms: C_6  and  S_15
    3  A    between atoms: C_6  and  C_23
    4  A    between atoms: S_15  and  C_21
                            x       y       z     vdW  Elec       q    Type
                         _______ _______ _______ _____ _____    ______ ____

>  <TORSDO>
F 4

$$$$
=
 OpenBabel11052412453D

 25 28  0  0  1  0  0  0  0  0999 V2000
  187.1500  177.9430  145.6390 C   0  0  0  0  0  0  0  0  0  0  0  0
  186.2570  178.2190  144.5990 C   0  0  0  0  0  0  0  0  0  0  0  0
  185.4250  178.3730  147.2440 N   0  0  0  0  0  0  0  0  0  0  0  0
  188.5010  177.5730  145.5710 C   0  0  0  0  0  0  0  0  0  0  0  0
  191.1780  176.8250  145.8380 C   0  0  0  0  0  3  0  0  0  0  0  0
  184.5620  178.6370  146.2570 N   0  0  0  0  0  0  0  0  0  0  0  0
  189.0670  177.3810  146.8310 C   0  0  0  0  0  0  0  0  0  0  0  0
  190.4000  177.0080  146.9910 C   0  0  0  0  0  3  0  0  0  0  0  0
  184.0160  178.8490  143.9140 C   0  0  0  0  0  0  0  0  0  0  0  0
  182.6050  179.2210  144.2110 C   0  0  0  0  0  1  0  0  0  0  0  0
  186.6310  178.1520  143.2930 N   0  0  0  0  0  0  0  0  0  0  0  0
  190.6190  177.0150  144.5610 C   0  0  0  0  0  3  0  0  0  0  0  0
  186.7020  178.0300  146.9480 C   0  0  0  0  0  0  0  0  0  0  0  0
  187.9270  177.6620  148.0460 S   0  0  0  0  0  0  0  0  0  0  0  0
  184.4320  178.7690  142.5830 C   0  0  0  0  0  3  0  0  0  0  0  0
  189.2730  177.3910  144.4200 C   0  0  0  0  0  3  0  0  0  0  0  0
  185.7550  178.4240  142.2880 C   0  0  0  0  0  0  0  0  0  0  0  0
  184.9310  178.5720  144.9400 C   0  0  0  0  0  0  0  0  0  0  0  0
  186.1960  178.3150  140.8720 C   0  0  0  0  0  2  0  0  0  0  0  0
  184.9290  179.0220  139.7780 S   0  0  0  0  0  0  0  0  0  0  0  0
  185.0540  177.6390  138.6030 C   0  0  1  0  0  3  0  0  0  0  0  0
  183.6970  177.3550  137.9840 C   0  0  0  0  0  1  0  0  0  0  0  0
  186.0560  177.9480  137.5410 C   0  0  0  0  0  0  0  0  0  0  0  0
  186.2340  177.0610  136.4880 O   0  0  0  0  0  0  0  0  0  0  0  0
  186.7420  179.0030  137.5920 O   0  0  0  0  0  1  0  0  0  0  0  0
  1 13  2  0  0  0  0
  2 18  1  0  0  0  0
  2  1  1  0  0  0  0
  4  1  1  0  0  0  0
  4  7  1  0  0  0  0
  5  8  1  0  0  0  0
  6  3  2  0  0  0  0
  7  8  2  0  0  0  0
  7 14  1  0  0  0  0
  9 10  1  0  0  0  0
  9 18  2  0  0  0  0
 11  2  2  0  0  0  0
 12  5  2  0  0  0  0
 13  3  1  0  0  0  0
 13 14  1  0  0  0  0
 15  9  1  0  0  0  0
 16 12  1  0  0  0  0
 16  4  2  0  0  0  0
 17 15  2  0  0  0  0
 17 11  1  0  0  0  0
 18  6  1  0  0  0  0
 19 17  1  0  0  0  0
 20 19  1  0  0  0  0
 21 22  1  6  0  0  0
 21 20  1  0  0  0  0
 23 25  1  0  0  0  0
 23 21  1  0  0  0  0
 24 23  2  0  0  0  0
M  END
>  <MODEL>
9

>  <REMARK>
 VINA RESULT:      -8.6      2.249      4.990
  Name = 
  4 active torsions:
  status: ('A' for Active; 'I' for Inactive)
    1  A    between atoms: C_2  and  C_21
    2  A    between atoms: C_6  and  S_15
    3  A    between atoms: C_6  and  C_23
    4  A    between atoms: S_15  and  C_21
                            x       y       z     vdW  Elec       q    Type
                         _______ _______ _______ _____ _____    ______ ____

>  <TORSDO>
F 4

$$$$
