=
 OpenBabel11052414363D

 32 37  0  0  1  0  0  0  0  0999 V2000
  185.9590  178.4860  139.3650 C   0  0  0  0  0  0  0  0  0  0  0  0
  187.4430  178.6170  141.3960 C   0  0  2  0  0  3  0  0  0  0  0  0
  185.8150  178.2710  137.9850 C   0  0  0  0  0  3  0  0  0  0  0  0
  187.2110  178.2990  139.9540 C   0  0  0  0  0  0  0  0  0  0  0  0
  188.1220  177.4060  142.0430 C   0  0  2  0  0  3  0  0  0  0  0  0
  185.1010  178.7840  145.8520 C   0  0  0  0  0  2  0  0  0  0  0  0
  186.1450  179.0460  142.1130 C   0  0  1  0  0  3  0  0  0  0  0  0
  187.2370  177.5220  145.5230 C   0  0  0  0  0  2  0  0  0  0  0  0
  187.0780  177.6190  144.0090 C   0  0  2  0  0  3  0  0  0  0  0  0
  190.5490  176.5300  141.9030 N   0  0  0  0  0  2  0  0  0  0  0  0
  188.2590  177.7100  139.2420 C   0  0  0  0  0  0  0  0  0  0  0  0
  188.3470  177.6660  143.4030 O   0  0  0  0  0  0  0  0  0  0  0  0
  189.4050  177.2210  139.9640 N   0  0  0  0  0  0  0  0  0  0  0  0
  188.1150  177.4780  137.8700 C   0  0  0  0  0  3  0  0  0  0  0  0
  185.0230  178.3780  141.5770 O   0  0  0  0  0  0  0  0  0  0  0  0
  190.5680  176.2150  143.2200 O   0  0  0  0  0  1  0  0  0  0  0  0
  184.8200  178.9030  140.2780 C   0  0  2  0  0  3  0  0  0  0  0  0
  186.2720  178.8820  143.6390 C   0  0  2  0  0  3  0  0  0  0  0  0
  189.4000  177.0950  141.2670 C   0  0  0  0  0  0  0  0  0  0  0  0
  186.9000  177.7850  137.2380 C   0  0  0  0  0  3  0  0  0  0  0  0
  185.8690  177.5110  146.1970 C   0  0  0  0  0  2  0  0  0  0  0  0
  184.9130  178.8970  144.3420 C   0  0  0  0  0  2  0  0  0  0  0  0
  181.4250  178.9810  138.5600 C   0  0  0  0  0  0  0  0  0  0  0  0
  180.6240  179.8720  137.8560 O   0  0  0  0  0  1  0  0  0  0  0  0
  183.4730  178.4820  139.7630 C   0  0  0  0  0  0  0  0  0  0  0  0
  180.9800  177.6760  138.7770 C   0  0  0  0  0  3  0  0  0  0  0  0
  183.0190  177.1700  139.9710 C   0  0  0  0  0  3  0  0  0  0  0  0
  182.6720  179.3880  139.0500 C   0  0  0  0  0  0  0  0  0  0  0  0
  183.1120  180.6900  138.8280 O   0  0  0  0  0  1  0  0  0  0  0  0
  181.7750  176.7610  139.4840 C   0  0  0  0  0  0  0  0  0  0  0  0
  180.0380  175.1250  140.1320 C   0  0  0  0  0  1  0  0  0  0  0  0
  181.3570  175.4480  139.7140 O   0  0  0  0  0  0  0  0  0  0  0  0
  1  4  1  0  0  0  0
  1 17  1  0  0  0  0
  2  4  1  6  0  0  0
  2  5  1  0  0  0  0
  2  7  1  0  0  0  0
  3  1  2  0  0  0  0
  5 19  1  6  0  0  0
  5 12  1  0  0  0  0
  6 21  1  0  0  0  0
  7 15  1  6  0  0  0
  7 18  1  0  0  0  0
  8 21  1  0  0  0  0
  9  8  1  1  0  0  0
 10 16  1  0  0  0  0
 11  4  2  0  0  0  0
 11 13  1  0  0  0  0
 12  9  1  0  0  0  0
 13 19  2  0  0  0  0
 14 11  1  0  0  0  0
 17 25  1  6  0  0  0
 17 15  1  0  0  0  0
 18  9  1  0  0  0  0
 18 22  1  1  0  0  0
 19 10  1  0  0  0  0
 20 14  2  0  0  0  0
 20  3  1  0  0  0  0
 22  6  1  0  0  0  0
 23 26  2  0  0  0  0
 23 28  1  0  0  0  0
 24 23  1  0  0  0  0
 25 27  1  0  0  0  0
 26 30  1  0  0  0  0
 28 25  2  0  0  0  0
 29 28  1  0  0  0  0
 30 32  1  0  0  0  0
 30 27  2  0  0  0  0
 32 31  1  0  0  0  0
M  END
>  <MODEL>
1

>  <REMARK>
 VINA RESULT:      -8.9      0.000      0.000
  Name = 
  2 active torsions:
  status: ('A' for Active; 'I' for Inactive)
    1  A    between atoms: O_15  and  C_26
    2  A    between atoms: C_16  and  C_27
                            x       y       z     vdW  Elec       q    Type
                         _______ _______ _______ _____ _____    ______ ____

>  <TORSDO>
F 2

$$$$
=
 OpenBabel11052414363D

 32 37  0  0  1  0  0  0  0  0999 V2000
  189.9660  177.8580  140.9340 C   0  0  0  0  0  0  0  0  0  0  0  0
  188.1050  178.6500  142.4360 C   0  0  2  0  0  3  0  0  0  0  0  0
  191.2770  177.3770  140.7860 C   0  0  0  0  0  3  0  0  0  0  0  0
  189.4520  178.0400  142.2200 C   0  0  0  0  0  0  0  0  0  0  0  0
  187.3200  177.7380  143.3860 C   0  0  2  0  0  3  0  0  0  0  0  0
  183.5710  179.1200  140.2920 C   0  0  0  0  0  2  0  0  0  0  0  0
  187.3700  178.9230  141.1060 C   0  0  1  0  0  3  0  0  0  0  0  0
  183.8500  178.2860  142.6360 C   0  0  0  0  0  2  0  0  0  0  0  0
  185.3420  178.0770  142.3990 C   0  0  2  0  0  3  0  0  0  0  0  0
  187.4990  177.3690  145.9370 N   0  0  0  0  0  2  0  0  0  0  0  0
  190.1360  177.5610  143.3420 C   0  0  0  0  0  0  0  0  0  0  0  0
  186.0430  178.2770  143.6030 O   0  0  0  0  0  0  0  0  0  0  0  0
  189.4330  177.4540  144.5930 N   0  0  0  0  0  0  0  0  0  0  0  0
  191.4350  177.0650  143.1960 C   0  0  0  0  0  3  0  0  0  0  0  0
  187.7020  177.9550  140.1330 O   0  0  0  0  0  0  0  0  0  0  0  0
  186.1550  177.3030  146.0750 O   0  0  0  0  0  1  0  0  0  0  0  0
  189.0500  178.1880  139.7710 C   0  0  2  0  0  3  0  0  0  0  0  0
  185.8530  179.0620  141.3260 C   0  0  2  0  0  3  0  0  0  0  0  0
  188.1300  177.5630  144.6680 C   0  0  0  0  0  0  0  0  0  0  0  0
  192.0140  177.0000  141.9190 C   0  0  0  0  0  3  0  0  0  0  0  0
  183.0800  178.1140  141.3290 C   0  0  0  0  0  2  0  0  0  0  0  0
  185.0600  178.9220  140.0250 C   0  0  0  0  0  2  0  0  0  0  0  0
  189.5440  177.2770  136.1080 C   0  0  0  0  0  0  0  0  0  0  0  0
  189.3800  177.8470  134.8520 O   0  0  0  0  0  1  0  0  0  0  0  0
  189.3840  177.4140  138.5270 C   0  0  0  0  0  0  0  0  0  0  0  0
  190.0410  175.9760  136.2160 C   0  0  0  0  0  3  0  0  0  0  0  0
  189.8880  176.1090  138.6240 C   0  0  0  0  0  3  0  0  0  0  0  0
  189.2160  178.0000  137.2620 C   0  0  0  0  0  0  0  0  0  0  0  0
  188.7250  179.2970  137.1480 O   0  0  0  0  0  1  0  0  0  0  0  0
  190.2160  175.3840  137.4760 C   0  0  0  0  0  0  0  0  0  0  0  0
  191.2950  173.3670  136.5340 C   0  0  0  0  0  1  0  0  0  0  0  0
  190.7140  174.0860  137.6140 O   0  0  0  0  0  0  0  0  0  0  0  0
  1  4  1  0  0  0  0
  2  4  1  6  0  0  0
  2  5  1  0  0  0  0
  3  1  2  0  0  0  0
  3 20  1  0  0  0  0
  4 11  2  0  0  0  0
  5 12  1  1  0  0  0
  5 19  1  0  0  0  0
  6 21  1  0  0  0  0
  7 15  1  6  0  0  0
  7 18  1  0  0  0  0
  7  2  1  0  0  0  0
  9  8  1  1  0  0  0
  9 12  1  0  0  0  0
 10 16  1  0  0  0  0
 11 13  1  0  0  0  0
 13 19  2  0  0  0  0
 14 11  1  0  0  0  0
 17 25  1  6  0  0  0
 17 15  1  0  0  0  0
 17  1  1  0  0  0  0
 18 22  1  6  0  0  0
 18  9  1  0  0  0  0
 19 10  1  0  0  0  0
 20 14  2  0  0  0  0
 21  8  1  0  0  0  0
 22  6  1  0  0  0  0
 23 26  2  0  0  0  0
 23 28  1  0  0  0  0
 24 23  1  0  0  0  0
 25 27  1  0  0  0  0
 26 30  1  0  0  0  0
 28 25  2  0  0  0  0
 29 28  1  0  0  0  0
 30 32  1  0  0  0  0
 30 27  2  0  0  0  0
 31 32  1  0  0  0  0
M  END
>  <MODEL>
2

>  <REMARK>
 VINA RESULT:      -8.5      3.055      6.031
  Name = 
  2 active torsions:
  status: ('A' for Active; 'I' for Inactive)
    1  A    between atoms: O_15  and  C_26
    2  A    between atoms: C_16  and  C_27
                            x       y       z     vdW  Elec       q    Type
                         _______ _______ _______ _____ _____    ______ ____

>  <TORSDO>
F 2

$$$$
=
 OpenBabel11052414363D

 32 37  0  0  1  0  0  0  0  0999 V2000
  186.0110  178.8130  140.4470 C   0  0  0  0  0  0  0  0  0  0  0  0
  188.4770  178.3030  140.3570 C   0  0  2  0  0  3  0  0  0  0  0  0
  184.7820  178.9560  139.7840 C   0  0  0  0  0  3  0  0  0  0  0  0
  187.1230  178.3700  139.7270 C   0  0  0  0  0  0  0  0  0  0  0  0
  189.0570  176.9120  140.0820 C   0  0  2  0  0  3  0  0  0  0  0  0
  190.7620  177.5960  144.7900 C   0  0  0  0  0  2  0  0  0  0  0  0
  188.4380  178.6640  141.8580 C   0  0  1  0  0  3  0  0  0  0  0  0
  191.3590  176.2570  142.7610 C   0  0  0  0  0  2  0  0  0  0  0  0
  190.0950  176.7350  142.0550 C   0  0  2  0  0  3  0  0  0  0  0  0
  190.0630  175.8720  137.9420 N   0  0  0  0  0  2  0  0  0  0  0  0
  186.9860  177.8770  138.4260 C   0  0  0  0  0  0  0  0  0  0  0  0
  190.3270  176.8100  140.6690 O   0  0  0  0  0  0  0  0  0  0  0  0
  188.0680  177.1200  137.8510 N   0  0  0  0  0  0  0  0  0  0  0  0
  185.7590  178.0020  137.7680 C   0  0  0  0  0  3  0  0  0  0  0  0
  187.2220  178.2570  142.4480 O   0  0  0  0  0  0  0  0  0  0  0  0
  191.0380  175.2450  138.6410 O   0  0  0  0  0  1  0  0  0  0  0  0
  186.2140  179.1000  141.9240 C   0  0  2  0  0  3  0  0  0  0  0  0
  189.6770  178.1210  142.5930 C   0  0  2  0  0  3  0  0  0  0  0  0
  189.0670  176.6810  138.5730 C   0  0  0  0  0  0  0  0  0  0  0  0
  184.6650  178.5670  138.4400 C   0  0  0  0  0  3  0  0  0  0  0  0
  191.1360  176.2110  144.2700 C   0  0  0  0  0  2  0  0  0  0  0  0
  189.4880  178.0920  144.1100 C   0  0  0  0  0  2  0  0  0  0  0  0
  183.8230  178.8070  144.8710 C   0  0  0  0  0  0  0  0  0  0  0  0
  183.8640  178.7950  146.2600 O   0  0  0  0  0  1  0  0  0  0  0  0
  184.9530  178.9450  142.7270 C   0  0  0  0  0  0  0  0  0  0  0  0
  182.5950  178.6930  144.2160 C   0  0  0  0  0  3  0  0  0  0  0  0
  183.7140  178.8350  142.0780 C   0  0  0  0  0  3  0  0  0  0  0  0
  185.0040  178.9360  144.1300 C   0  0  0  0  0  0  0  0  0  0  0  0
  186.2250  179.0540  144.7890 O   0  0  0  0  0  1  0  0  0  0  0  0
  182.5330  178.7060  142.8140 C   0  0  0  0  0  0  0  0  0  0  0  0
  181.1730  178.9510  140.7630 C   0  0  0  0  0  1  0  0  0  0  0  0
  181.3190  178.5950  142.1310 O   0  0  0  0  0  0  0  0  0  0  0  0
  1 17  1  0  0  0  0
  2  4  1  1  0  0  0
  2  7  1  0  0  0  0
  3  1  1  0  0  0  0
  4  1  2  0  0  0  0
  5 19  1  6  0  0  0
  5  2  1  0  0  0  0
  5 12  1  0  0  0  0
  7 15  1  1  0  0  0
  7 18  1  0  0  0  0
  8 21  1  0  0  0  0
  9 18  1  0  0  0  0
  9  8  1  1  0  0  0
 10 19  1  0  0  0  0
 10 16  1  0  0  0  0
 11  4  1  0  0  0  0
 12  9  1  0  0  0  0
 13 11  1  0  0  0  0
 13 19  2  0  0  0  0
 14 11  2  0  0  0  0
 14 20  1  0  0  0  0
 17 15  1  0  0  0  0
 17 25  1  1  0  0  0
 18 22  1  1  0  0  0
 20  3  2  0  0  0  0
 21  6  1  0  0  0  0
 22  6  1  0  0  0  0
 23 24  1  0  0  0  0
 25 28  1  0  0  0  0
 26 23  1  0  0  0  0
 27 25  2  0  0  0  0
 27 30  1  0  0  0  0
 28 29  1  0  0  0  0
 28 23  2  0  0  0  0
 30 26  2  0  0  0  0
 31 32  1  0  0  0  0
 32 30  1  0  0  0  0
M  END
>  <MODEL>
3

>  <REMARK>
 VINA RESULT:      -8.4      2.338      4.176
  Name = 
  2 active torsions:
  status: ('A' for Active; 'I' for Inactive)
    1  A    between atoms: O_15  and  C_26
    2  A    between atoms: C_16  and  C_27
                            x       y       z     vdW  Elec       q    Type
                         _______ _______ _______ _____ _____    ______ ____

>  <TORSDO>
F 2

$$$$
=
 OpenBabel11052414363D

 32 37  0  0  1  0  0  0  0  0999 V2000
  187.2790  178.5180  140.7000 C   0  0  0  0  0  0  0  0  0  0  0  0
  187.9610  177.9150  138.3510 C   0  0  2  0  0  3  0  0  0  0  0  0
  186.3000  178.9860  141.5910 C   0  0  0  0  0  3  0  0  0  0  0  0
  186.9340  178.3080  139.3630 C   0  0  0  0  0  0  0  0  0  0  0  0
  187.4300  176.6960  137.5880 C   0  0  2  0  0  3  0  0  0  0  0  0
  192.3110  175.4200  137.8750 C   0  0  0  0  0  2  0  0  0  0  0  0
  189.3470  177.6790  138.9910 C   0  0  1  0  0  3  0  0  0  0  0  0
  190.3280  174.9170  136.4320 C   0  0  0  0  0  2  0  0  0  0  0  0
  189.4260  175.7120  137.3690 C   0  0  2  0  0  3  0  0  0  0  0  0
  185.6230  176.4840  135.7530 N   0  0  0  0  0  2  0  0  0  0  0  0
  185.6000  178.3580  138.9490 C   0  0  0  0  0  0  0  0  0  0  0  0
  188.3760  176.2930  136.6340 O   0  0  0  0  0  0  0  0  0  0  0  0
  185.2470  177.8050  137.6670 N   0  0  0  0  0  0  0  0  0  0  0  0
  184.6190  178.8070  139.8380 C   0  0  0  0  0  3  0  0  0  0  0  0
  189.2220  177.1610  140.2980 O   0  0  0  0  0  0  0  0  0  0  0  0
  186.3520  175.5730  135.0670 O   0  0  0  0  0  1  0  0  0  0  0  0
  188.7090  178.2070  141.1020 C   0  0  2  0  0  3  0  0  0  0  0  0
  190.2390  176.8140  138.0820 C   0  0  2  0  0  3  0  0  0  0  0  0
  186.0760  177.0570  136.9830 C   0  0  0  0  0  0  0  0  0  0  0  0
  184.9770  179.1470  141.1520 C   0  0  0  0  0  3  0  0  0  0  0  0
  191.4960  174.3150  137.2090 C   0  0  0  0  0  2  0  0  0  0  0  0
  191.4340  176.2220  138.8310 C   0  0  0  0  0  2  0  0  0  0  0  0
  190.2230  177.4570  144.5130 C   0  0  0  0  0  0  0  0  0  0  0  0
  191.4730  177.3890  145.1150 O   0  0  0  0  0  1  0  0  0  0  0  0
  188.8420  177.8450  142.5540 C   0  0  0  0  0  0  0  0  0  0  0  0
  189.0770  177.2030  145.2700 C   0  0  0  0  0  3  0  0  0  0  0  0
  187.6960  177.5920  143.3240 C   0  0  0  0  0  3  0  0  0  0  0  0
  190.1090  177.7800  143.1550 C   0  0  0  0  0  0  0  0  0  0  0  0
  191.2550  178.0360  142.4070 O   0  0  0  0  0  1  0  0  0  0  0  0
  187.8060  177.2690  144.6790 C   0  0  0  0  0  0  0  0  0  0  0  0
  186.0010  178.0210  146.1940 C   0  0  0  0  0  1  0  0  0  0  0  0
  186.6420  177.0230  145.4120 O   0  0  0  0  0  0  0  0  0  0  0  0
  1 17  1  0  0  0  0
  1  3  1  0  0  0  0
  2  7  1  0  0  0  0
  2  4  1  1  0  0  0
  4  1  2  0  0  0  0
  5 12  1  6  0  0  0
  5  2  1  0  0  0  0
  6 22  1  0  0  0  0
  7 15  1  1  0  0  0
  8 21  1  0  0  0  0
  9  8  1  6  0  0  0
  9 18  1  0  0  0  0
 10 19  1  0  0  0  0
 11  4  1  0  0  0  0
 11 14  2  0  0  0  0
 12  9  1  0  0  0  0
 13 11  1  0  0  0  0
 14 20  1  0  0  0  0
 15 17  1  0  0  0  0
 16 10  1  0  0  0  0
 17 25  1  1  0  0  0
 18 22  1  1  0  0  0
 18  7  1  0  0  0  0
 19  5  1  0  0  0  0
 19 13  2  0  0  0  0
 20  3  2  0  0  0  0
 21  6  1  0  0  0  0
 23 24  1  0  0  0  0
 23 26  1  0  0  0  0
 25 28  1  0  0  0  0
 25 27  2  0  0  0  0
 27 30  1  0  0  0  0
 28 23  2  0  0  0  0
 29 28  1  0  0  0  0
 30 26  2  0  0  0  0
 30 32  1  0  0  0  0
 32 31  1  0  0  0  0
M  END
>  <MODEL>
4

>  <REMARK>
 VINA RESULT:      -8.2      3.378      7.440
  Name = 
  2 active torsions:
  status: ('A' for Active; 'I' for Inactive)
    1  A    between atoms: O_15  and  C_26
    2  A    between atoms: C_16  and  C_27
                            x       y       z     vdW  Elec       q    Type
                         _______ _______ _______ _____ _____    ______ ____

>  <TORSDO>
F 2

$$$$
=
 OpenBabel11052414363D

 32 37  0  0  1  0  0  0  0  0999 V2000
  184.9710  178.9490  142.8770 C   0  0  0  0  0  0  0  0  0  0  0  0
  183.6470  179.0700  140.7370 C   0  0  2  0  0  3  0  0  0  0  0  0
  185.0060  178.9950  144.2800 C   0  0  0  0  0  3  0  0  0  0  0  0
  183.7350  179.0070  142.2280 C   0  0  0  0  0  0  0  0  0  0  0  0
  182.6580  177.9940  140.2760 C   0  0  2  0  0  3  0  0  0  0  0  0
  186.0560  177.6330  136.5530 C   0  0  0  0  0  2  0  0  0  0  0  0
  185.0340  178.9540  140.0670 C   0  0  1  0  0  3  0  0  0  0  0  0
  183.6340  177.1270  136.9290 C   0  0  0  0  0  2  0  0  0  0  0  0
  183.7720  177.4870  138.4040 C   0  0  2  0  0  3  0  0  0  0  0  0
  180.0780  177.8930  140.3680 N   0  0  0  0  0  2  0  0  0  0  0  0
  182.5410  178.9010  142.9450 C   0  0  0  0  0  0  0  0  0  0  0  0
  182.5580  178.0190  138.8770 O   0  0  0  0  0  0  0  0  0  0  0  0
  181.3220  178.6180  142.2320 N   0  0  0  0  0  0  0  0  0  0  0  0
  182.5730  178.9290  144.3430 C   0  0  0  0  0  3  0  0  0  0  0  0
  185.8930  178.1220  140.8170 O   0  0  0  0  0  0  0  0  0  0  0  0
  180.0030  177.3290  139.1400 O   0  0  0  0  0  1  0  0  0  0  0  0
  186.2060  178.8260  142.0040 C   0  0  2  0  0  3  0  0  0  0  0  0
  184.9060  178.5180  138.5960 C   0  0  2  0  0  3  0  0  0  0  0  0
  181.3250  178.2280  140.9830 C   0  0  0  0  0  0  0  0  0  0  0  0
  183.8060  179.0040  145.0080 C   0  0  0  0  0  3  0  0  0  0  0  0
  184.9560  176.5880  136.3920 C   0  0  0  0  0  2  0  0  0  0  0  0
  186.2270  178.0000  138.0240 C   0  0  0  0  0  2  0  0  0  0  0  0
  189.6190  177.2860  142.6850 C   0  0  0  0  0  0  0  0  0  0  0  0
  190.8060  177.0230  142.0120 O   0  0  0  0  0  1  0  0  0  0  0  0
  187.3530  178.1560  142.7060 C   0  0  0  0  0  0  0  0  0  0  0  0
  189.4980  176.9390  144.0320 C   0  0  0  0  0  3  0  0  0  0  0  0
  187.2430  177.8090  144.0610 C   0  0  0  0  0  3  0  0  0  0  0  0
  188.5500  177.8960  142.0180 C   0  0  0  0  0  0  0  0  0  0  0  0
  188.6780  178.2430  140.6760 O   0  0  0  0  0  1  0  0  0  0  0  0
  188.3080  177.1990  144.7290 C   0  0  0  0  0  0  0  0  0  0  0  0
  189.1630  177.1280  147.0480 C   0  0  0  0  0  1  0  0  0  0  0  0
  188.1590  176.8660  146.0770 O   0  0  0  0  0  0  0  0  0  0  0  0
  1  3  1  0  0  0  0
  2  4  1  1  0  0  0
  3 20  2  0  0  0  0
  4  1  2  0  0  0  0
  4 11  1  0  0  0  0
  5 12  1  6  0  0  0
  5  2  1  0  0  0  0
  5 19  1  0  0  0  0
  6 22  1  0  0  0  0
  7  2  1  0  0  0  0
  7 15  1  1  0  0  0
  9  8  1  6  0  0  0
  9 18  1  0  0  0  0
  9 12  1  0  0  0  0
 10 19  1  0  0  0  0
 11 14  2  0  0  0  0
 13 11  1  0  0  0  0
 14 20  1  0  0  0  0
 15 17  1  0  0  0  0
 16 10  1  0  0  0  0
 17 25  1  1  0  0  0
 17  1  1  0  0  0  0
 18 22  1  1  0  0  0
 18  7  1  0  0  0  0
 19 13  2  0  0  0  0
 21  6  1  0  0  0  0
 21  8  1  0  0  0  0
 23 26  1  0  0  0  0
 24 23  1  0  0  0  0
 25 27  2  0  0  0  0
 26 30  2  0  0  0  0
 27 30  1  0  0  0  0
 28 23  2  0  0  0  0
 28 25  1  0  0  0  0
 29 28  1  0  0  0  0
 30 32  1  0  0  0  0
 32 31  1  0  0  0  0
M  END
>  <MODEL>
5

>  <REMARK>
 VINA RESULT:      -8.0      2.853      7.714
  Name = 
  2 active torsions:
  status: ('A' for Active; 'I' for Inactive)
    1  A    between atoms: O_15  and  C_26
    2  A    between atoms: C_16  and  C_27
                            x       y       z     vdW  Elec       q    Type
                         _______ _______ _______ _____ _____    ______ ____

>  <TORSDO>
F 2

$$$$
=
 OpenBabel11052414363D

 32 37  0  0  1  0  0  0  0  0999 V2000
  185.0170  178.9780  142.8840 C   0  0  0  0  0  0  0  0  0  0  0  0
  182.9320  179.0520  141.4730 C   0  0  2  0  0  3  0  0  0  0  0  0
  185.6240  179.0580  144.1480 C   0  0  0  0  0  3  0  0  0  0  0  0
  183.6240  179.0250  142.7980 C   0  0  0  0  0  0  0  0  0  0  0  0
  181.8490  177.9690  141.4840 C   0  0  2  0  0  3  0  0  0  0  0  0
  183.4230  177.5040  136.7050 C   0  0  0  0  0  2  0  0  0  0  0  0
  183.9230  178.9140  140.2960 C   0  0  1  0  0  3  0  0  0  0  0  0
  181.3720  177.0160  138.0530 C   0  0  0  0  0  2  0  0  0  0  0  0
  182.1010  177.4120  139.3330 C   0  0  2  0  0  3  0  0  0  0  0  0
  179.5340  177.8790  142.6280 N   0  0  0  0  0  2  0  0  0  0  0  0
  182.8290  178.9410  143.9440 C   0  0  0  0  0  0  0  0  0  0  0  0
  181.1830  177.9590  140.2490 O   0  0  0  0  0  0  0  0  0  0  0  0
  181.4280  178.6450  143.8010 N   0  0  0  0  0  0  0  0  0  0  0  0
  183.4310  179.0030  145.2050 C   0  0  0  0  0  3  0  0  0  0  0  0
  185.0200  178.0980  140.6470 O   0  0  0  0  0  0  0  0  0  0  0  0
  178.9660  177.2860  141.5520 O   0  0  0  0  0  1  0  0  0  0  0  0
  185.7870  178.8300  141.5850 C   0  0  2  0  0  3  0  0  0  0  0  0
  183.2060  178.4430  139.0180 C   0  0  2  0  0  3  0  0  0  0  0  0
  180.9210  178.2240  142.6690 C   0  0  0  0  0  0  0  0  0  0  0  0
  184.8280  179.0890  145.3040 C   0  0  0  0  0  3  0  0  0  0  0  0
  182.3610  176.4600  137.0330 C   0  0  0  0  0  2  0  0  0  0  0  0
  184.1800  177.9060  137.9670 C   0  0  0  0  0  2  0  0  0  0  0  0
  189.2860  177.5030  140.8880 C   0  0  0  0  0  0  0  0  0  0  0  0
  190.1910  177.4270  139.8370 O   0  0  0  0  0  1  0  0  0  0  0  0
  187.1260  178.1730  141.7700 C   0  0  0  0  0  0  0  0  0  0  0  0
  189.6320  176.9780  142.1350 C   0  0  0  0  0  3  0  0  0  0  0  0
  187.4840  177.6470  143.0210 C   0  0  0  0  0  3  0  0  0  0  0  0
  188.0340  178.1030  140.7020 C   0  0  0  0  0  0  0  0  0  0  0  0
  187.6970  178.6280  139.4580 O   0  0  0  0  0  1  0  0  0  0  0  0
  188.7320  177.0470  143.2100 C   0  0  0  0  0  0  0  0  0  0  0  0
  188.6680  177.1730  145.6790 C   0  0  0  0  0  1  0  0  0  0  0  0
  189.0510  176.5330  144.4690 O   0  0  0  0  0  0  0  0  0  0  0  0
  1  3  1  0  0  0  0
  2  5  1  0  0  0  0
  2  4  1  1  0  0  0
  3 20  2  0  0  0  0
  4  1  2  0  0  0  0
  4 11  1  0  0  0  0
  5 12  1  6  0  0  0
  5 19  1  0  0  0  0
  6 21  1  0  0  0  0
  6 22  1  0  0  0  0
  7 15  1  1  0  0  0
  7  2  1  0  0  0  0
  9  8  1  6  0  0  0
  9 12  1  0  0  0  0
 10 19  1  0  0  0  0
 11 14  2  0  0  0  0
 13 11  1  0  0  0  0
 14 20  1  0  0  0  0
 15 17  1  0  0  0  0
 16 10  1  0  0  0  0
 17 25  1  1  0  0  0
 17  1  1  0  0  0  0
 18 22  1  6  0  0  0
 18  9  1  0  0  0  0
 18  7  1  0  0  0  0
 19 13  2  0  0  0  0
 21  8  1  0  0  0  0
 23 26  1  0  0  0  0
 24 23  1  0  0  0  0
 25 27  2  0  0  0  0
 26 30  2  0  0  0  0
 27 30  1  0  0  0  0
 28 23  2  0  0  0  0
 28 25  1  0  0  0  0
 29 28  1  0  0  0  0
 30 32  1  0  0  0  0
 32 31  1  0  0  0  0
M  END
>  <MODEL>
6

>  <REMARK>
 VINA RESULT:      -7.9      3.045      7.585
  Name = 
  2 active torsions:
  status: ('A' for Active; 'I' for Inactive)
    1  A    between atoms: O_15  and  C_26
    2  A    between atoms: C_16  and  C_27
                            x       y       z     vdW  Elec       q    Type
                         _______ _______ _______ _____ _____    ______ ____

>  <TORSDO>
F 2

$$$$
=
 OpenBabel11052414363D

 32 37  0  0  1  0  0  0  0  0999 V2000
  188.8230  177.8610  140.1380 C   0  0  0  0  0  0  0  0  0  0  0  0
  187.1650  178.7430  141.8170 C   0  0  2  0  0  3  0  0  0  0  0  0
  190.0970  177.3390  139.8570 C   0  0  0  0  0  3  0  0  0  0  0  0
  188.4640  178.0900  141.4680 C   0  0  0  0  0  0  0  0  0  0  0  0
  186.4720  177.8790  142.8760 C   0  0  2  0  0  3  0  0  0  0  0  0
  182.4300  179.2810  140.1870 C   0  0  0  0  0  2  0  0  0  0  0  0
  186.2910  179.0010  140.5700 C   0  0  1  0  0  3  0  0  0  0  0  0
  182.9530  178.5020  142.5070 C   0  0  0  0  0  2  0  0  0  0  0  0
  184.4030  178.2470  142.1100 C   0  0  2  0  0  3  0  0  0  0  0  0
  186.9320  177.5730  145.4000 N   0  0  0  0  0  2  0  0  0  0  0  0
  189.2590  177.6230  142.5190 C   0  0  0  0  0  0  0  0  0  0  0  0
  185.2420  178.4580  143.2200 O   0  0  0  0  0  0  0  0  0  0  0  0
  188.7010  177.5690  143.8450 N   0  0  0  0  0  0  0  0  0  0  0  0
  190.5200  177.0880  142.2410 C   0  0  0  0  0  3  0  0  0  0  0  0
  186.4850  177.9980  139.5960 O   0  0  0  0  0  0  0  0  0  0  0  0
  185.6100  177.5480  145.6920 O   0  0  0  0  0  1  0  0  0  0  0  0
  187.7890  178.1840  139.0760 C   0  0  2  0  0  3  0  0  0  0  0  0
  184.8120  179.1870  140.9570 C   0  0  2  0  0  3  0  0  0  0  0  0
  187.4180  177.7160  144.0630 C   0  0  0  0  0  0  0  0  0  0  0  0
  190.9490  176.9720  140.9100 C   0  0  0  0  0  3  0  0  0  0  0  0
  182.0360  178.3170  141.3020 C   0  0  0  0  0  2  0  0  0  0  0  0
  183.8730  179.0350  139.7590 C   0  0  0  0  0  2  0  0  0  0  0  0
  188.9460  177.0560  135.6300 C   0  0  0  0  0  0  0  0  0  0  0  0
  189.7540  177.5070  134.5940 O   0  0  0  0  0  1  0  0  0  0  0  0
  187.9600  177.3680  137.8260 C   0  0  0  0  0  0  0  0  0  0  0  0
  188.2990  175.8240  135.5150 C   0  0  0  0  0  3  0  0  0  0  0  0
  187.3180  176.1260  137.7030 C   0  0  0  0  0  3  0  0  0  0  0  0
  188.7800  177.8310  136.7850 C   0  0  0  0  0  0  0  0  0  0  0  0
  189.4300  179.0570  136.8950 O   0  0  0  0  0  1  0  0  0  0  0  0
  187.4810  175.3510  136.5520 C   0  0  0  0  0  0  0  0  0  0  0  0
  185.6490  173.8260  137.2090 C   0  0  0  0  0  1  0  0  0  0  0  0
  186.8240  174.1220  136.4660 O   0  0  0  0  0  0  0  0  0  0  0  0
  1  4  1  0  0  0  0
  2  4  1  6  0  0  0
  2  5  1  0  0  0  0
  3  1  2  0  0  0  0
  3 20  1  0  0  0  0
  4 11  2  0  0  0  0
  5 12  1  1  0  0  0
  5 19  1  0  0  0  0
  6 21  1  0  0  0  0
  7 15  1  6  0  0  0
  7 18  1  0  0  0  0
  7  2  1  0  0  0  0
  9  8  1  1  0  0  0
  9 12  1  0  0  0  0
 10 16  1  0  0  0  0
 11 13  1  0  0  0  0
 13 19  2  0  0  0  0
 14 11  1  0  0  0  0
 17 25  1  6  0  0  0
 17 15  1  0  0  0  0
 17  1  1  0  0  0  0
 18 22  1  6  0  0  0
 18  9  1  0  0  0  0
 19 10  1  0  0  0  0
 20 14  2  0  0  0  0
 21  8  1  0  0  0  0
 22  6  1  0  0  0  0
 23 28  1  0  0  0  0
 24 23  1  0  0  0  0
 26 23  2  0  0  0  0
 26 30  1  0  0  0  0
 27 25  1  0  0  0  0
 28 29  1  0  0  0  0
 28 25  2  0  0  0  0
 30 27  2  0  0  0  0
 32 30  1  0  0  0  0
 32 31  1  0  0  0  0
M  END
>  <MODEL>
7

>  <REMARK>
 VINA RESULT:      -7.8      2.996      5.236
  Name = 
  2 active torsions:
  status: ('A' for Active; 'I' for Inactive)
    1  A    between atoms: O_15  and  C_26
    2  A    between atoms: C_16  and  C_27
                            x       y       z     vdW  Elec       q    Type
                         _______ _______ _______ _____ _____    ______ ____

>  <TORSDO>
F 2

$$$$
=
 OpenBabel11052414363D

 32 37  0  0  1  0  0  0  0  0999 V2000
  186.6760  178.6160  144.5280 C   0  0  0  0  0  0  0  0  0  0  0  0
  184.6410  179.3050  143.2140 C   0  0  2  0  0  3  0  0  0  0  0  0
  187.2830  178.3560  145.7670 C   0  0  0  0  0  3  0  0  0  0  0  0
  185.3130  178.9150  144.4910 C   0  0  0  0  0  0  0  0  0  0  0  0
  183.3850  178.4400  143.0580 C   0  0  2  0  0  3  0  0  0  0  0  0
  184.8730  178.6020  138.2310 C   0  0  0  0  0  2  0  0  0  0  0  0
  185.5970  179.2180  142.0040 C   0  0  1  0  0  3  0  0  0  0  0  0
  182.7630  178.2330  139.5260 C   0  0  0  0  0  2  0  0  0  0  0  0
  183.5450  178.2550  140.8350 C   0  0  2  0  0  3  0  0  0  0  0  0
  181.0860  178.5390  144.2320 N   0  0  0  0  0  2  0  0  0  0  0  0
  184.5110  178.7590  145.6250 C   0  0  0  0  0  0  0  0  0  0  0  0
  182.7330  178.7730  141.8610 O   0  0  0  0  0  0  0  0  0  0  0  0
  183.0800  178.7400  145.4700 N   0  0  0  0  0  0  0  0  0  0  0  0
  185.1100  178.4830  146.8580 C   0  0  0  0  0  3  0  0  0  0  0  0
  186.5340  178.1750  142.1690 O   0  0  0  0  0  0  0  0  0  0  0  0
  180.4280  178.2610  143.0830 O   0  0  0  0  0  1  0  0  0  0  0  0
  187.4130  178.5790  143.2020 C   0  0  2  0  0  3  0  0  0  0  0  0
  184.8140  179.1210  140.6820 C   0  0  2  0  0  3  0  0  0  0  0  0
  182.5120  178.6280  144.2960 C   0  0  0  0  0  0  0  0  0  0  0  0
  186.5000  178.3090  146.9320 C   0  0  0  0  0  3  0  0  0  0  0  0
  183.6440  177.7120  138.3940 C   0  0  0  0  0  2  0  0  0  0  0  0
  185.6830  178.6280  139.5240 C   0  0  0  0  0  2  0  0  0  0  0  0
  190.3390  176.4300  142.0580 C   0  0  0  0  0  0  0  0  0  0  0  0
  190.9300  176.0040  140.8750 O   0  0  0  0  0  1  0  0  0  0  0  0
  188.6170  177.6800  143.2270 C   0  0  0  0  0  0  0  0  0  0  0  0
  190.8800  176.0320  143.2820 C   0  0  0  0  0  3  0  0  0  0  0  0
  189.1710  177.2790  144.4520 C   0  0  0  0  0  3  0  0  0  0  0  0
  189.2080  177.2550  142.0260 C   0  0  0  0  0  0  0  0  0  0  0  0
  188.6760  177.6520  140.8020 O   0  0  0  0  0  1  0  0  0  0  0  0
  190.2990  176.4550  144.4880 C   0  0  0  0  0  0  0  0  0  0  0  0
  190.5010  176.7540  146.9340 C   0  0  0  0  0  1  0  0  0  0  0  0
  190.8190  176.0750  145.7270 O   0  0  0  0  0  0  0  0  0  0  0  0
  1  3  1  0  0  0  0
  2  4  1  1  0  0  0
  3 20  2  0  0  0  0
  4  1  2  0  0  0  0
  4 11  1  0  0  0  0
  5 12  1  6  0  0  0
  5  2  1  0  0  0  0
  5 19  1  0  0  0  0
  6 21  1  0  0  0  0
  6 22  1  0  0  0  0
  7 15  1  1  0  0  0
  7  2  1  0  0  0  0
  9  8  1  6  0  0  0
  9 12  1  0  0  0  0
 10 19  1  0  0  0  0
 11 14  2  0  0  0  0
 13 11  1  0  0  0  0
 14 20  1  0  0  0  0
 15 17  1  0  0  0  0
 16 10  1  0  0  0  0
 17 25  1  1  0  0  0
 17  1  1  0  0  0  0
 18 22  1  6  0  0  0
 18  9  1  0  0  0  0
 18  7  1  0  0  0  0
 19 13  2  0  0  0  0
 21  8  1  0  0  0  0
 23 26  1  0  0  0  0
 24 23  1  0  0  0  0
 25 27  2  0  0  0  0
 26 30  2  0  0  0  0
 27 30  1  0  0  0  0
 28 23  2  0  0  0  0
 28 25  1  0  0  0  0
 29 28  1  0  0  0  0
 30 32  1  0  0  0  0
 32 31  1  0  0  0  0
M  END
>  <MODEL>
8

>  <REMARK>
 VINA RESULT:      -7.6      2.965      7.807
  Name = 
  2 active torsions:
  status: ('A' for Active; 'I' for Inactive)
    1  A    between atoms: O_15  and  C_26
    2  A    between atoms: C_16  and  C_27
                            x       y       z     vdW  Elec       q    Type
                         _______ _______ _______ _____ _____    ______ ____

>  <TORSDO>
F 2

$$$$
=
 OpenBabel11052414363D

 32 37  0  0  1  0  0  0  0  0999 V2000
  189.7690  177.7190  139.5050 C   0  0  0  0  0  0  0  0  0  0  0  0
  189.3050  178.4460  141.8710 C   0  0  2  0  0  3  0  0  0  0  0  0
  190.6690  177.2240  138.5470 C   0  0  0  0  0  3  0  0  0  0  0  0
  190.1840  177.8260  140.8340 C   0  0  0  0  0  0  0  0  0  0  0  0
  189.2390  177.4900  143.0670 C   0  0  2  0  0  3  0  0  0  0  0  0
  184.4620  179.1400  143.0710 C   0  0  0  0  0  2  0  0  0  0  0  0
  187.9160  178.8190  141.3090 C   0  0  1  0  0  3  0  0  0  0  0  0
  186.1000  178.1510  144.6850 C   0  0  0  0  0  2  0  0  0  0  0  0
  187.1010  177.9300  143.5560 C   0  0  2  0  0  3  0  0  0  0  0  0
  190.9540  176.9530  144.9230 N   0  0  0  0  0  2  0  0  0  0  0  0
  191.3910  177.2640  141.2570 C   0  0  0  0  0  0  0  0  0  0  0  0
  188.4110  178.0370  144.0590 O   0  0  0  0  0  0  0  0  0  0  0  0
  191.6220  177.0890  142.6680 N   0  0  0  0  0  0  0  0  0  0  0  0
  192.2830  176.7530  140.3090 C   0  0  0  0  0  3  0  0  0  0  0  0
  187.5110  177.9100  140.3080 O   0  0  0  0  0  0  0  0  0  0  0  0
  189.9910  176.9040  145.8720 O   0  0  0  0  0  1  0  0  0  0  0  0
  188.3460  178.1410  139.1880 C   0  0  2  0  0  3  0  0  0  0  0  0
  186.8810  178.9720  142.4390 C   0  0  2  0  0  3  0  0  0  0  0  0
  190.6620  177.2170  143.5480 C   0  0  0  0  0  0  0  0  0  0  0  0
  191.9310  176.7600  138.9510 C   0  0  0  0  0  3  0  0  0  0  0  0
  184.6740  178.0790  144.1470 C   0  0  0  0  0  2  0  0  0  0  0  0
  185.4420  178.9320  141.9210 C   0  0  0  0  0  2  0  0  0  0  0  0
  186.8700  177.5230  135.7350 C   0  0  0  0  0  0  0  0  0  0  0  0
  186.4640  178.2480  134.6210 O   0  0  0  0  0  1  0  0  0  0  0  0
  187.7840  177.4430  137.9820 C   0  0  0  0  0  0  0  0  0  0  0  0
  186.7700  176.1300  135.7260 C   0  0  0  0  0  3  0  0  0  0  0  0
  187.6850  176.0430  137.9610 C   0  0  0  0  0  3  0  0  0  0  0  0
  187.3780  178.1830  136.8600 C   0  0  0  0  0  0  0  0  0  0  0  0
  187.4780  179.5710  136.8620 O   0  0  0  0  0  1  0  0  0  0  0  0
  187.1780  175.3810  136.8400 C   0  0  0  0  0  0  0  0  0  0  0  0
  188.2050  173.1460  136.5860 C   0  0  0  0  0  1  0  0  0  0  0  0
  187.0920  173.9870  136.8590 O   0  0  0  0  0  0  0  0  0  0  0  0
  1  4  1  0  0  0  0
  2  4  1  6  0  0  0
  2  5  1  0  0  0  0
  3 20  1  0  0  0  0
  3  1  2  0  0  0  0
  4 11  2  0  0  0  0
  5 19  1  1  0  0  0
  5 12  1  0  0  0  0
  6 21  1  0  0  0  0
  7 15  1  6  0  0  0
  7  2  1  0  0  0  0
  7 18  1  0  0  0  0
  9 12  1  0  0  0  0
  9  8  1  1  0  0  0
 10 16  1  0  0  0  0
 11 13  1  0  0  0  0
 13 19  2  0  0  0  0
 14 11  1  0  0  0  0
 17 25  1  6  0  0  0
 17  1  1  0  0  0  0
 17 15  1  0  0  0  0
 18 22  1  6  0  0  0
 18  9  1  0  0  0  0
 19 10  1  0  0  0  0
 20 14  2  0  0  0  0
 21  8  1  0  0  0  0
 22  6  1  0  0  0  0
 23 28  1  0  0  0  0
 24 23  1  0  0  0  0
 26 23  2  0  0  0  0
 26 30  1  0  0  0  0
 27 25  1  0  0  0  0
 28 29  1  0  0  0  0
 28 25  2  0  0  0  0
 30 32  1  0  0  0  0
 30 27  2  0  0  0  0
 31 32  1  0  0  0  0
M  END
>  <MODEL>
9

>  <REMARK>
 VINA RESULT:      -7.5      3.262      4.367
  Name = 
  2 active torsions:
  status: ('A' for Active; 'I' for Inactive)
    1  A    between atoms: O_15  and  C_26
    2  A    between atoms: C_16  and  C_27
                            x       y       z     vdW  Elec       q    Type
                         _______ _______ _______ _____ _____    ______ ____

>  <TORSDO>
F 2

$$$$
