=
 OpenBabel11052416103D

 43 47  0  0  1  0  0  0  0  0999 V2000
  184.7890  176.0540  134.8690 C   0  0  1  0  0  3  0  0  0  0  0  0
  189.5370  176.3450  136.6300 C   0  0  1  0  0  3  0  0  0  0  0  0
  189.4510  177.0770  139.3650 C   0  0  0  0  0  0  0  0  0  0  0  0
  186.9860  177.1170  135.6040 C   0  0  0  0  0  0  0  0  0  0  0  0
  185.1560  175.0210  135.8570 N   0  0  0  0  0  2  0  0  0  0  0  0
  183.3410  176.4690  135.0470 C   0  0  0  0  0  1  0  0  0  0  0  0
  187.0070  176.3100  136.6860 C   0  0  0  0  0  0  0  0  0  0  0  0
  185.6950  177.3030  134.8550 C   0  0  0  0  0  2  0  0  0  0  0  0
  185.7460  175.6070  137.0610 C   0  0  0  0  0  2  0  0  0  0  0  0
  188.2680  176.7080  138.7090 O   0  0  0  0  0  0  0  0  0  0  0  0
  188.2740  176.0180  137.4530 C   0  0  2  0  0  3  0  0  0  0  0  0
  189.4130  177.7290  136.0060 C   0  0  0  0  0  2  0  0  0  0  0  0
  190.7910  176.2420  137.4970 C   0  0  1  0  0  3  0  0  0  0  0  0
  190.6090  176.9190  138.7870 N   0  0  0  0  0  0  0  0  0  0  0  0
  188.2380  177.7350  135.0290 C   0  0  0  0  0  2  0  0  0  0  0  0
  189.3790  177.7090  140.7280 C   0  0  1  0  0  3  0  0  0  0  0  0
  188.1130  178.5580  140.8290 C   0  0  0  0  0  1  0  0  0  0  0  0
  189.4870  176.6320  141.8250 C   0  0  2  0  0  3  0  0  0  0  0  0
  188.3220  176.6540  142.8060 C   0  0  0  0  0  1  0  0  0  0  0  0
  191.7070  177.4110  142.0880 O   0  0  0  0  0  0  0  0  0  0  0  0
  190.7720  176.7880  142.5850 C   0  0  0  0  0  0  0  0  0  0  0  0
  190.8970  176.2350  143.9650 C   0  0  0  0  0  2  0  0  0  0  0  0
  191.4080  177.3020  144.9120 C   0  0  0  0  0  2  0  0  0  0  0  0
  190.2400  178.0630  145.5070 C   0  0  0  0  0  2  0  0  0  0  0  0
  189.2550  177.0830  146.1160 C   0  0  0  0  0  2  0  0  0  0  0  0
  188.1210  177.8280  146.8080 C   0  0  2  0  0  3  0  0  0  0  0  0
  188.0120  177.3440  148.2450 C   0  0  0  0  0  1  0  0  0  0  0  0
  186.8700  177.5740  146.1170 N   0  0  0  0  0  2  0  0  0  0  0  0
  186.1010  178.8120  146.1300 C   0  0  2  0  0  3  0  0  0  0  0  0
  184.6260  178.2210  143.1110 C   0  0  0  0  0  1  0  0  0  0  0  0
  183.9460  178.2860  145.3090 N   0  0  0  0  0  2  0  0  0  0  0  0
  184.5600  179.0540  144.3020 N   0  0  0  0  0  0  0  0  0  0  0  0
  184.6880  178.5210  146.5380 C   0  0  0  0  0  2  0  0  0  0  0  0
  185.9380  179.3110  144.7180 C   0  0  0  0  0  2  0  0  0  0  0  0
  191.1390  174.7710  137.7150 C   0  0  0  0  0  2  0  0  0  0  0  0
  194.7460  174.6460  138.4220 C   0  0  0  0  0  2  0  0  0  0  0  0
  195.3150  173.2390  137.4810 S   0  0  0  0  0  0  0  0  0  0  0  0
  196.6770  173.5220  136.9080 O   0  0  0  0  0  0  0  0  0  0  0  0
  192.7700  173.3300  136.5960 C   0  0  0  0  0  3  0  0  0  0  0  0
  193.6570  175.3910  137.6480 C   0  0  0  0  0  2  0  0  0  0  0  0
  192.5310  174.4630  137.2710 C   0  0  0  0  0  0  0  0  0  0  0  0
  195.3810  172.0310  138.3730 O   0  0  0  0  0  0  0  0  0  0  0  0
  194.1530  172.9430  136.1560 C   0  0  0  0  0  2  0  0  0  0  0  0
  1  6  1  1  0  0  0
  1  5  1  0  0  0  0
  2 12  1  1  0  0  0
  2 11  1  0  0  0  0
  2 13  1  0  0  0  0
  3 16  1  0  0  0  0
  4  7  2  0  0  0  0
  5  9  1  0  0  0  0
  7  9  1  0  0  0  0
  8  1  1  0  0  0  0
  8  4  1  0  0  0  0
 10  3  1  0  0  0  0
 11  7  1  6  0  0  0
 11 10  1  0  0  0  0
 13 35  1  1  0  0  0
 13 14  1  0  0  0  0
 14  3  2  0  0  0  0
 15  4  1  0  0  0  0
 15 12  1  0  0  0  0
 16 17  1  6  0  0  0
 16 18  1  0  0  0  0
 18 21  1  0  0  0  0
 18 19  1  1  0  0  0
 20 21  2  0  0  0  0
 21 22  1  0  0  0  0
 22 23  1  0  0  0  0
 23 24  1  0  0  0  0
 24 25  1  0  0  0  0
 25 26  1  0  0  0  0
 26 27  1  1  0  0  0
 28 26  1  0  0  0  0
 29 28  1  6  0  0  0
 29 33  1  0  0  0  0
 30 32  1  0  0  0  0
 31 33  1  0  0  0  0
 32 34  1  0  0  0  0
 32 31  1  0  0  0  0
 34 29  1  0  0  0  0
 37 42  2  0  0  0  0
 37 36  1  0  0  0  0
 38 37  2  0  0  0  0
 39 41  2  0  0  0  0
 40 36  1  0  0  0  0
 41 40  1  0  0  0  0
 41 35  1  0  0  0  0
 43 39  1  0  0  0  0
 43 37  1  0  0  0  0
M  END
>  <MODEL>
1

>  <REMARK>
 VINA RESULT:      -7.5      0.000      0.000
  Name = 
  12 active torsions:
  status: ('A' for Active; 'I' for Inactive)
    1  A    between atoms: C_1  and  C_34
    2  A    between atoms: C_1  and  C_35
    3  A    between atoms: C_2  and  C_6
    4  A    between atoms: C_2  and  C_13
    5  A    between atoms: C_4  and  C_12
    6  A    between atoms: C_4  and  C_15
    7  A    between atoms: C_6  and  C_12
    8  A    between atoms: C_10  and  C_22
    9  A    between atoms: C_10  and  C_42
   10  A    between atoms: C_11  and  N_14
   11  A    between atoms: N_14  and  C_22
   12  A    between atoms: C_15  and  C_42
                            x       y       z     vdW  Elec       q    Type
                         _______ _______ _______ _____ _____    ______ ____

>  <TORSDO>
F 12

$$$$
=
 OpenBabel11052416103D

 43 47  0  0  1  0  0  0  0  0999 V2000
  184.9400  174.9010  135.7230 C   0  0  1  0  0  3  0  0  0  0  0  0
  189.7000  176.5720  136.2440 C   0  0  1  0  0  3  0  0  0  0  0  0
  190.4290  176.4110  138.9760 C   0  0  0  0  0  0  0  0  0  0  0  0
  186.8450  176.5060  136.2610 C   0  0  0  0  0  0  0  0  0  0  0  0
  185.9270  173.8710  136.1000 N   0  0  0  0  0  2  0  0  0  0  0  0
  183.6080  174.6310  136.3970 C   0  0  0  0  0  1  0  0  0  0  0  0
  187.4980  175.5080  136.8950 C   0  0  0  0  0  0  0  0  0  0  0  0
  185.3740  176.3590  135.9850 C   0  0  0  0  0  2  0  0  0  0  0  0
  186.7270  174.2830  137.2550 C   0  0  0  0  0  2  0  0  0  0  0  0
  189.2470  175.7970  138.5370 O   0  0  0  0  0  0  0  0  0  0  0  0
  188.9860  175.5490  137.1500 C   0  0  2  0  0  3  0  0  0  0  0  0
  188.9610  177.9030  136.2690 C   0  0  0  0  0  2  0  0  0  0  0  0
  191.1590  176.7440  136.6660 C   0  0  1  0  0  3  0  0  0  0  0  0
  191.2820  176.9000  138.1200 N   0  0  0  0  0  0  0  0  0  0  0  0
  187.5590  177.7090  135.6920 C   0  0  0  0  0  2  0  0  0  0  0  0
  190.6890  176.5520  140.4510 C   0  0  1  0  0  3  0  0  0  0  0  0
  191.7810  177.5960  140.6770 C   0  0  0  0  0  1  0  0  0  0  0  0
  189.3780  176.8600  141.2000 C   0  0  2  0  0  3  0  0  0  0  0  0
  189.1310  178.3520  141.3920 C   0  0  0  0  0  1  0  0  0  0  0  0
  190.2230  175.3410  142.8060 O   0  0  0  0  0  0  0  0  0  0  0  0
  189.3710  176.1840  142.5400 C   0  0  0  0  0  0  0  0  0  0  0  0
  188.3630  176.5740  143.5690 C   0  0  0  0  0  2  0  0  0  0  0  0
  189.0490  177.2280  144.7510 C   0  0  0  0  0  2  0  0  0  0  0  0
  188.0280  177.5580  145.8220 C   0  0  0  0  0  2  0  0  0  0  0  0
  186.6310  177.3330  145.2740 C   0  0  0  0  0  2  0  0  0  0  0  0
  185.7600  178.5580  145.5170 C   0  0  2  0  0  3  0  0  0  0  0  0
  185.8350  178.9380  146.9870 C   0  0  0  0  0  1  0  0  0  0  0  0
  184.3820  178.2620  145.1650 N   0  0  0  0  0  2  0  0  0  0  0  0
  183.8630  179.4030  144.4210 C   0  0  2  0  0  3  0  0  0  0  0  0
  185.5890  178.6520  141.5760 C   0  0  0  0  0  1  0  0  0  0  0  0
  183.3850  178.6330  142.2370 N   0  0  0  0  0  2  0  0  0  0  0  0
  184.5100  179.4700  142.1090 N   0  0  0  0  0  0  0  0  0  0  0  0
  182.7600  178.9490  143.5130 C   0  0  0  0  0  2  0  0  0  0  0  0
  184.9110  179.8840  143.4530 C   0  0  0  0  0  2  0  0  0  0  0  0
  191.9710  175.5400  136.1920 C   0  0  0  0  0  2  0  0  0  0  0  0
  195.3490  174.4480  137.1520 C   0  0  0  0  0  2  0  0  0  0  0  0
  196.4020  175.1800  135.9080 S   0  0  0  0  0  0  0  0  0  0  0  0
  197.6950  175.6320  136.5320 O   0  0  0  0  0  0  0  0  0  0  0  0
  194.0670  176.3330  135.2080 C   0  0  0  0  0  3  0  0  0  0  0  0
  194.2060  175.4030  137.5020 C   0  0  0  0  0  2  0  0  0  0  0  0
  193.4380  175.8030  136.2680 C   0  0  0  0  0  0  0  0  0  0  0  0
  196.6840  174.1700  134.8310 O   0  0  0  0  0  0  0  0  0  0  0  0
  195.5480  176.5840  135.2060 C   0  0  0  0  0  2  0  0  0  0  0  0
  1  8  1  0  0  0  0
  1  5  1  0  0  0  0
  1  6  1  1  0  0  0
  2 12  1  1  0  0  0
  2 13  1  0  0  0  0
  2 11  1  0  0  0  0
  3 16  1  0  0  0  0
  4  7  2  0  0  0  0
  5  9  1  0  0  0  0
  7  9  1  0  0  0  0
  8  4  1  0  0  0  0
 10  3  1  0  0  0  0
 11  7  1  1  0  0  0
 11 10  1  0  0  0  0
 13 35  1  1  0  0  0
 13 14  1  0  0  0  0
 14  3  2  0  0  0  0
 15  4  1  0  0  0  0
 15 12  1  0  0  0  0
 16 17  1  6  0  0  0
 16 18  1  0  0  0  0
 18 19  1  1  0  0  0
 18 21  1  0  0  0  0
 21 20  2  0  0  0  0
 21 22  1  0  0  0  0
 22 23  1  0  0  0  0
 23 24  1  0  0  0  0
 25 26  1  0  0  0  0
 25 24  1  0  0  0  0
 26 27  1  1  0  0  0
 28 26  1  0  0  0  0
 29 28  1  6  0  0  0
 30 32  1  0  0  0  0
 31 33  1  0  0  0  0
 32 31  1  0  0  0  0
 32 34  1  0  0  0  0
 33 29  1  0  0  0  0
 34 29  1  0  0  0  0
 35 41  1  0  0  0  0
 36 40  1  0  0  0  0
 37 38  2  0  0  0  0
 37 36  1  0  0  0  0
 39 41  2  0  0  0  0
 41 40  1  0  0  0  0
 42 37  2  0  0  0  0
 43 39  1  0  0  0  0
 43 37  1  0  0  0  0
M  END
>  <MODEL>
2

>  <REMARK>
 VINA RESULT:      -7.4      1.676      2.256
  Name = 
  12 active torsions:
  status: ('A' for Active; 'I' for Inactive)
    1  A    between atoms: C_1  and  C_34
    2  A    between atoms: C_1  and  C_35
    3  A    between atoms: C_2  and  C_6
    4  A    between atoms: C_2  and  C_13
    5  A    between atoms: C_4  and  C_12
    6  A    between atoms: C_4  and  C_15
    7  A    between atoms: C_6  and  C_12
    8  A    between atoms: C_10  and  C_22
    9  A    between atoms: C_10  and  C_42
   10  A    between atoms: C_11  and  N_14
   11  A    between atoms: N_14  and  C_22
   12  A    between atoms: C_15  and  C_42
                            x       y       z     vdW  Elec       q    Type
                         _______ _______ _______ _____ _____    ______ ____

>  <TORSDO>
F 12

$$$$
=
 OpenBabel11052416103D

 43 47  0  0  1  0  0  0  0  0999 V2000
  195.5430  175.2490  134.9320 C   0  0  1  0  0  3  0  0  0  0  0  0
  190.7240  175.2410  136.5150 C   0  0  1  0  0  3  0  0  0  0  0  0
  190.6280  176.2800  139.1480 C   0  0  0  0  0  0  0  0  0  0  0  0
  193.4480  174.4630  136.1530 C   0  0  0  0  0  0  0  0  0  0  0  0
  194.9400  176.5840  135.1100 N   0  0  0  0  0  2  0  0  0  0  0  0
  197.0080  175.2720  135.3240 C   0  0  0  0  0  1  0  0  0  0  0  0
  193.2060  175.7340  136.5420 C   0  0  0  0  0  0  0  0  0  0  0  0
  194.8220  174.0970  135.6630 C   0  0  0  0  0  2  0  0  0  0  0  0
  194.3140  176.7250  136.4260 C   0  0  0  0  0  2  0  0  0  0  0  0
  191.8110  176.3890  138.4020 O   0  0  0  0  0  0  0  0  0  0  0  0
  191.8390  176.1990  136.9830 C   0  0  2  0  0  3  0  0  0  0  0  0
  191.0990  173.8000  136.8370 C   0  0  0  0  0  2  0  0  0  0  0  0
  189.3850  175.6170  137.1480 C   0  0  1  0  0  3  0  0  0  0  0  0
  189.5250  175.8690  138.5880 N   0  0  0  0  0  0  0  0  0  0  0  0
  192.3570  173.4230  136.0570 C   0  0  0  0  0  2  0  0  0  0  0  0
  190.6450  176.5910  140.6200 C   0  0  1  0  0  3  0  0  0  0  0  0
  191.7790  177.5700  140.9190 C   0  0  0  0  0  1  0  0  0  0  0  0
  189.2620  177.0930  141.0780 C   0  0  2  0  0  3  0  0  0  0  0  0
  189.0680  178.5910  140.8770 C   0  0  0  0  0  1  0  0  0  0  0  0
  189.2450  175.6170  142.9290 O   0  0  0  0  0  0  0  0  0  0  0  0
  189.0380  176.7580  142.5240 C   0  0  0  0  0  0  0  0  0  0  0  0
  188.6170  177.8230  143.4810 C   0  0  0  0  0  2  0  0  0  0  0  0
  188.2150  177.2050  144.8050 C   0  0  0  0  0  2  0  0  0  0  0  0
  186.9890  177.9110  145.3510 C   0  0  0  0  0  2  0  0  0  0  0  0
  185.8760  177.8610  144.3210 C   0  0  0  0  0  2  0  0  0  0  0  0
  184.9940  179.0970  144.4310 C   0  0  2  0  0  3  0  0  0  0  0  0
  183.8840  178.8280  145.4340 C   0  0  0  0  0  1  0  0  0  0  0  0
  184.4110  179.4040  143.1360 N   0  0  0  0  0  2  0  0  0  0  0  0
  184.8820  178.3990  142.1920 C   0  0  2  0  0  3  0  0  0  0  0  0
  182.6930  179.3140  139.7410 C   0  0  0  0  0  1  0  0  0  0  0  0
  184.9660  179.4420  140.0710 N   0  0  0  0  0  2  0  0  0  0  0  0
  183.8920  178.5350  140.0070 N   0  0  0  0  0  0  0  0  0  0  0  0
  185.7990  179.0380  141.1940 C   0  0  0  0  0  2  0  0  0  0  0  0
  183.7300  177.9440  141.3350 C   0  0  0  0  0  2  0  0  0  0  0  0
  188.8190  176.8510  136.4470 C   0  0  0  0  0  2  0  0  0  0  0  0
  185.9640  174.7460  135.4750 C   0  0  0  0  0  2  0  0  0  0  0  0
  184.5960  175.4360  136.3930 S   0  0  0  0  0  0  0  0  0  0  0  0
  183.3450  175.3930  135.5590 O   0  0  0  0  0  0  0  0  0  0  0  0
  186.4740  177.2730  137.0010 C   0  0  0  0  0  3  0  0  0  0  0  0
  186.9000  175.8620  135.0080 C   0  0  0  0  0  2  0  0  0  0  0  0
  187.3600  176.7050  136.1710 C   0  0  0  0  0  0  0  0  0  0  0  0
  184.3900  174.6470  137.6570 O   0  0  0  0  0  0  0  0  0  0  0  0
  184.9910  177.1300  136.8020 C   0  0  0  0  0  2  0  0  0  0  0  0
  1  5  1  0  0  0  0
  1  6  1  1  0  0  0
  1  8  1  0  0  0  0
  2 12  1  1  0  0  0
  2 11  1  0  0  0  0
  2 13  1  0  0  0  0
  3 16  1  0  0  0  0
  4  7  2  0  0  0  0
  5  9  1  0  0  0  0
  8  4  1  0  0  0  0
  9  7  1  0  0  0  0
 10  3  1  0  0  0  0
 11  7  1  1  0  0  0
 11 10  1  0  0  0  0
 13 35  1  6  0  0  0
 13 14  1  0  0  0  0
 14  3  2  0  0  0  0
 15  4  1  0  0  0  0
 15 12  1  0  0  0  0
 16 17  1  6  0  0  0
 16 18  1  0  0  0  0
 18 19  1  1  0  0  0
 18 21  1  0  0  0  0
 21 20  2  0  0  0  0
 21 22  1  0  0  0  0
 22 23  1  0  0  0  0
 23 24  1  0  0  0  0
 25 26  1  0  0  0  0
 25 24  1  0  0  0  0
 26 27  1  1  0  0  0
 28 26  1  0  0  0  0
 29 28  1  1  0  0  0
 30 32  1  0  0  0  0
 31 33  1  0  0  0  0
 32 31  1  0  0  0  0
 32 34  1  0  0  0  0
 33 29  1  0  0  0  0
 34 29  1  0  0  0  0
 36 37  1  0  0  0  0
 37 43  1  0  0  0  0
 37 42  2  0  0  0  0
 38 37  2  0  0  0  0
 40 36  1  0  0  0  0
 40 41  1  0  0  0  0
 41 35  1  0  0  0  0
 41 39  2  0  0  0  0
 43 39  1  0  0  0  0
M  END
>  <MODEL>
3

>  <REMARK>
 VINA RESULT:      -7.2      2.946      6.470
  Name = 
  12 active torsions:
  status: ('A' for Active; 'I' for Inactive)
    1  A    between atoms: C_1  and  C_34
    2  A    between atoms: C_1  and  C_35
    3  A    between atoms: C_2  and  C_6
    4  A    between atoms: C_2  and  C_13
    5  A    between atoms: C_4  and  C_12
    6  A    between atoms: C_4  and  C_15
    7  A    between atoms: C_6  and  C_12
    8  A    between atoms: C_10  and  C_22
    9  A    between atoms: C_10  and  C_42
   10  A    between atoms: C_11  and  N_14
   11  A    between atoms: N_14  and  C_22
   12  A    between atoms: C_15  and  C_42
                            x       y       z     vdW  Elec       q    Type
                         _______ _______ _______ _____ _____    ______ ____

>  <TORSDO>
F 12

$$$$
=
 OpenBabel11052416103D

 43 47  0  0  1  0  0  0  0  0999 V2000
  184.1560  172.5170  135.2810 C   0  0  1  0  0  3  0  0  0  0  0  0
  186.0510  176.9130  136.9580 C   0  0  1  0  0  3  0  0  0  0  0  0
  184.1350  178.1480  138.6400 C   0  0  0  0  0  0  0  0  0  0  0  0
  184.5470  175.0310  135.4240 C   0  0  0  0  0  0  0  0  0  0  0  0
  184.4530  172.5600  136.7260 N   0  0  0  0  0  2  0  0  0  0  0  0
  182.9140  171.6870  135.0190 C   0  0  0  0  0  1  0  0  0  0  0  0
  184.4480  174.9640  136.7690 C   0  0  0  0  0  0  0  0  0  0  0  0
  184.0240  173.8920  134.5940 C   0  0  0  0  0  2  0  0  0  0  0  0
  183.8560  173.7320  137.3670 C   0  0  0  0  0  2  0  0  0  0  0  0
  183.9470  176.8190  138.2340 O   0  0  0  0  0  0  0  0  0  0  0  0
  185.0070  176.0330  137.6760 C   0  0  2  0  0  3  0  0  0  0  0  0
  185.5150  177.3670  135.6070 C   0  0  0  0  0  2  0  0  0  0  0  0
  186.4420  178.1080  137.8260 C   0  0  1  0  0  3  0  0  0  0  0  0
  185.2610  178.7630  138.4010 N   0  0  0  0  0  0  0  0  0  0  0  0
  185.2880  176.1430  134.7200 C   0  0  0  0  0  2  0  0  0  0  0  0
  183.0100  178.8880  139.3100 C   0  0  1  0  0  3  0  0  0  0  0  0
  182.0460  179.4160  138.2500 C   0  0  0  0  0  1  0  0  0  0  0  0
  182.3340  177.9920  140.3660 C   0  0  2  0  0  3  0  0  0  0  0  0
  181.0970  177.2730  139.8420 C   0  0  0  0  0  1  0  0  0  0  0  0
  180.8960  179.4160  141.5940 O   0  0  0  0  0  0  0  0  0  0  0  0
  181.9580  178.8000  141.5730 C   0  0  0  0  0  0  0  0  0  0  0  0
  182.8490  178.8150  142.7710 C   0  0  0  0  0  2  0  0  0  0  0  0
  184.2810  178.5380  142.3610 C   0  0  0  0  0  2  0  0  0  0  0  0
  185.1700  178.5010  143.5880 C   0  0  0  0  0  2  0  0  0  0  0  0
  186.3420  177.5700  143.3360 C   0  0  0  0  0  2  0  0  0  0  0  0
  186.9010  177.0500  144.6530 C   0  0  2  0  0  3  0  0  0  0  0  0
  186.3190  177.8650  145.7960 C   0  0  0  0  0  1  0  0  0  0  0  0
  188.3480  177.1750  144.6590 N   0  0  0  0  0  2  0  0  0  0  0  0
  188.7970  177.1590  143.2720 C   0  0  2  0  0  3  0  0  0  0  0  0
  191.8290  178.5560  143.9760 C   0  0  0  0  0  1  0  0  0  0  0  0
  191.0660  176.4940  143.2970 N   0  0  0  0  0  2  0  0  0  0  0  0
  191.0720  177.8570  142.9480 N   0  0  0  0  0  0  0  0  0  0  0  0
  189.7190  175.9980  143.0560 C   0  0  0  0  0  2  0  0  0  0  0  0
  189.6950  178.3430  143.0270 C   0  0  0  0  0  2  0  0  0  0  0  0
  187.3840  177.6450  138.9360 C   0  0  0  0  0  2  0  0  0  0  0  0
  190.8810  176.6840  139.5440 C   0  0  0  0  0  2  0  0  0  0  0  0
  191.4250  176.0410  137.9690 S   0  0  0  0  0  0  0  0  0  0  0  0
  192.8550  176.4360  137.7200 O   0  0  0  0  0  0  0  0  0  0  0  0
  188.9950  176.9480  137.2320 C   0  0  0  0  0  3  0  0  0  0  0  0
  189.9380  177.8690  139.3310 C   0  0  0  0  0  2  0  0  0  0  0  0
  188.7830  177.4880  138.4410 C   0  0  0  0  0  0  0  0  0  0  0  0
  191.3050  174.5430  137.9700 O   0  0  0  0  0  0  0  0  0  0  0  0
  190.3790  176.7260  136.6920 C   0  0  0  0  0  2  0  0  0  0  0  0
  1  6  1  1  0  0  0
  1  5  1  0  0  0  0
  2 12  1  6  0  0  0
  2 11  1  0  0  0  0
  2 13  1  0  0  0  0
  3 16  1  0  0  0  0
  4  7  2  0  0  0  0
  5  9  1  0  0  0  0
  7  9  1  0  0  0  0
  8  1  1  0  0  0  0
  8  4  1  0  0  0  0
 10  3  1  0  0  0  0
 11  7  1  6  0  0  0
 11 10  1  0  0  0  0
 13 14  1  0  0  0  0
 13 35  1  1  0  0  0
 14  3  2  0  0  0  0
 15  4  1  0  0  0  0
 15 12  1  0  0  0  0
 16 17  1  6  0  0  0
 16 18  1  0  0  0  0
 18 19  1  6  0  0  0
 18 21  1  0  0  0  0
 21 20  2  0  0  0  0
 21 22  1  0  0  0  0
 23 22  1  0  0  0  0
 23 24  1  0  0  0  0
 25 24  1  0  0  0  0
 25 26  1  0  0  0  0
 26 28  1  0  0  0  0
 26 27  1  1  0  0  0
 29 28  1  1  0  0  0
 32 34  1  0  0  0  0
 32 31  1  0  0  0  0
 32 30  1  0  0  0  0
 33 29  1  0  0  0  0
 33 31  1  0  0  0  0
 34 29  1  0  0  0  0
 37 42  2  0  0  0  0
 37 36  1  0  0  0  0
 38 37  2  0  0  0  0
 39 41  2  0  0  0  0
 40 36  1  0  0  0  0
 41 35  1  0  0  0  0
 41 40  1  0  0  0  0
 43 39  1  0  0  0  0
 43 37  1  0  0  0  0
M  END
>  <MODEL>
4

>  <REMARK>
 VINA RESULT:      -7.1      3.092      5.495
  Name = 
  12 active torsions:
  status: ('A' for Active; 'I' for Inactive)
    1  A    between atoms: C_1  and  C_34
    2  A    between atoms: C_1  and  C_35
    3  A    between atoms: C_2  and  C_6
    4  A    between atoms: C_2  and  C_13
    5  A    between atoms: C_4  and  C_12
    6  A    between atoms: C_4  and  C_15
    7  A    between atoms: C_6  and  C_12
    8  A    between atoms: C_10  and  C_22
    9  A    between atoms: C_10  and  C_42
   10  A    between atoms: C_11  and  N_14
   11  A    between atoms: N_14  and  C_22
   12  A    between atoms: C_15  and  C_42
                            x       y       z     vdW  Elec       q    Type
                         _______ _______ _______ _____ _____    ______ ____

>  <TORSDO>
F 12

$$$$
=
 OpenBabel11052416103D

 43 47  0  0  1  0  0  0  0  0999 V2000
  179.5850  182.0360  137.9620 C   0  0  1  0  0  3  0  0  0  0  0  0
  182.5840  178.8070  140.4720 C   0  0  1  0  0  3  0  0  0  0  0  0
  184.6960  178.0090  138.7620 C   0  0  0  0  0  0  0  0  0  0  0  0
  180.5750  179.8090  138.7060 C   0  0  0  0  0  0  0  0  0  0  0  0
  180.9340  182.5460  138.2720 N   0  0  0  0  0  2  0  0  0  0  0  0
  179.1190  182.5500  136.6120 C   0  0  0  0  0  1  0  0  0  0  0  0
  181.8150  180.3360  138.6070 C   0  0  0  0  0  0  0  0  0  0  0  0
  179.4300  180.5020  138.0210 C   0  0  0  0  0  2  0  0  0  0  0  0
  181.9770  181.6110  137.8500 C   0  0  0  0  0  2  0  0  0  0  0  0
  183.8620  179.0710  138.3850 O   0  0  0  0  0  0  0  0  0  0  0  0
  183.0060  179.7400  139.3190 C   0  0  2  0  0  3  0  0  0  0  0  0
  181.5090  177.8370  139.9970 C   0  0  0  0  0  2  0  0  0  0  0  0
  183.7910  178.0590  141.0340 C   0  0  1  0  0  3  0  0  0  0  0  0
  184.6250  177.5020  139.9620 N   0  0  0  0  0  0  0  0  0  0  0  0
  180.2650  178.6270  139.5930 C   0  0  0  0  0  2  0  0  0  0  0  0
  185.6450  177.4150  137.7580 C   0  0  1  0  0  3  0  0  0  0  0  0
  184.9090  177.1780  136.4410 C   0  0  0  0  0  1  0  0  0  0  0  0
  186.8970  178.3020  137.6130 C   0  0  2  0  0  3  0  0  0  0  0  0
  187.2370  178.6310  136.1640 C   0  0  0  0  0  1  0  0  0  0  0  0
  188.4660  176.5470  137.8620 O   0  0  0  0  0  0  0  0  0  0  0  0
  188.0810  177.6440  138.2590 C   0  0  0  0  0  0  0  0  0  0  0  0
  188.8250  178.3440  139.3470 C   0  0  0  0  0  2  0  0  0  0  0  0
  187.9140  178.5820  140.5340 C   0  0  0  0  0  2  0  0  0  0  0  0
  188.2360  177.5940  141.6370 C   0  0  0  0  0  2  0  0  0  0  0  0
  189.2240  178.2200  142.6040 C   0  0  0  0  0  2  0  0  0  0  0  0
  190.3560  177.2490  142.9110 C   0  0  2  0  0  3  0  0  0  0  0  0
  190.3620  176.1460  141.8660 C   0  0  0  0  0  1  0  0  0  0  0  0
  190.1640  176.6670  144.2280 N   0  0  0  0  0  2  0  0  0  0  0  0
  190.7940  177.5540  145.1980 C   0  0  2  0  0  3  0  0  0  0  0  0
  188.6430  176.7370  147.7160 C   0  0  0  0  0  1  0  0  0  0  0  0
  190.8670  176.3790  147.2490 N   0  0  0  0  0  2  0  0  0  0  0  0
  189.9080  177.3930  147.4250 N   0  0  0  0  0  0  0  0  0  0  0  0
  191.6820  176.7560  146.1040 C   0  0  0  0  0  2  0  0  0  0  0  0
  189.7470  178.0800  146.1440 C   0  0  0  0  0  2  0  0  0  0  0  0
  184.6140  179.0040  141.9080 C   0  0  0  0  0  2  0  0  0  0  0  0
  186.4230  178.2070  145.0100 C   0  0  0  0  0  2  0  0  0  0  0  0
  185.3110  178.7470  146.3000 S   0  0  0  0  0  0  0  0  0  0  0  0
  185.3720  177.7930  147.4610 O   0  0  0  0  0  0  0  0  0  0  0  0
  183.6990  179.1320  144.1730 C   0  0  0  0  0  3  0  0  0  0  0  0
  185.6280  177.6100  143.8470 C   0  0  0  0  0  2  0  0  0  0  0  0
  184.5950  178.5850  143.3400 C   0  0  0  0  0  0  0  0  0  0  0  0
  185.7020  180.1260  146.7550 O   0  0  0  0  0  0  0  0  0  0  0  0
  183.6540  178.7830  145.6340 C   0  0  0  0  0  2  0  0  0  0  0  0
  1  6  1  6  0  0  0
  1  8  1  0  0  0  0
  1  5  1  0  0  0  0
  2 12  1  6  0  0  0
  2 13  1  0  0  0  0
  3 14  2  0  0  0  0
  4 15  1  0  0  0  0
  7  4  2  0  0  0  0
  7 11  1  0  0  0  0
  8  4  1  0  0  0  0
  9  5  1  0  0  0  0
  9  7  1  0  0  0  0
 10  3  1  0  0  0  0
 11 10  1  6  0  0  0
 11  2  1  0  0  0  0
 13 35  1  6  0  0  0
 14 13  1  0  0  0  0
 15 12  1  0  0  0  0
 16 17  1  6  0  0  0
 16  3  1  0  0  0  0
 18 19  1  6  0  0  0
 18 16  1  0  0  0  0
 18 21  1  0  0  0  0
 20 21  2  0  0  0  0
 21 22  1  0  0  0  0
 22 23  1  0  0  0  0
 23 24  1  0  0  0  0
 24 25  1  0  0  0  0
 25 26  1  0  0  0  0
 26 27  1  6  0  0  0
 26 28  1  0  0  0  0
 29 28  1  6  0  0  0
 29 33  1  0  0  0  0
 29 34  1  0  0  0  0
 31 32  1  0  0  0  0
 32 30  1  0  0  0  0
 33 31  1  0  0  0  0
 34 32  1  0  0  0  0
 35 41  1  0  0  0  0
 36 37  1  0  0  0  0
 37 42  2  0  0  0  0
 37 38  2  0  0  0  0
 39 43  1  0  0  0  0
 40 36  1  0  0  0  0
 41 40  1  0  0  0  0
 41 39  2  0  0  0  0
 43 37  1  0  0  0  0
M  END
>  <MODEL>
5

>  <REMARK>
 VINA RESULT:      -7.0      4.532      8.327
  Name = 
  12 active torsions:
  status: ('A' for Active; 'I' for Inactive)
    1  A    between atoms: C_1  and  C_34
    2  A    between atoms: C_1  and  C_35
    3  A    between atoms: C_2  and  C_6
    4  A    between atoms: C_2  and  C_13
    5  A    between atoms: C_4  and  C_12
    6  A    between atoms: C_4  and  C_15
    7  A    between atoms: C_6  and  C_12
    8  A    between atoms: C_10  and  C_22
    9  A    between atoms: C_10  and  C_42
   10  A    between atoms: C_11  and  N_14
   11  A    between atoms: N_14  and  C_22
   12  A    between atoms: C_15  and  C_42
                            x       y       z     vdW  Elec       q    Type
                         _______ _______ _______ _____ _____    ______ ____

>  <TORSDO>
F 12

$$$$
=
 OpenBabel11052416103D

 43 47  0  0  1  0  0  0  0  0999 V2000
  196.4110  174.9610  135.0440 C   0  0  1  0  0  3  0  0  0  0  0  0
  191.4050  174.5690  135.7590 C   0  0  1  0  0  3  0  0  0  0  0  0
  190.6940  176.0600  138.0590 C   0  0  0  0  0  0  0  0  0  0  0  0
  194.2140  174.1300  136.0320 C   0  0  0  0  0  0  0  0  0  0  0  0
  195.6480  176.2060  134.8330 N   0  0  0  0  0  2  0  0  0  0  0  0
  197.7630  175.2640  135.6630 C   0  0  0  0  0  1  0  0  0  0  0  0
  193.7700  175.4040  136.0990 C   0  0  0  0  0  0  0  0  0  0  0  0
  195.6870  173.8760  135.8690 C   0  0  0  0  0  2  0  0  0  0  0  0
  194.7690  176.5030  135.9650 C   0  0  0  0  0  2  0  0  0  0  0  0
  191.9800  176.1930  137.5170 O   0  0  0  0  0  0  0  0  0  0  0  0
  192.3020  175.7450  136.1950 C   0  0  2  0  0  3  0  0  0  0  0  0
  191.8590  173.2820  136.4360 C   0  0  0  0  0  2  0  0  0  0  0  0
  189.9370  174.8640  136.0640 C   0  0  1  0  0  3  0  0  0  0  0  0
  189.7690  175.3990  137.4210 N   0  0  0  0  0  0  0  0  0  0  0  0
  193.2770  172.9470  135.9750 C   0  0  0  0  0  2  0  0  0  0  0  0
  190.3930  176.6410  139.4140 C   0  0  1  0  0  3  0  0  0  0  0  0
  191.5700  177.5020  139.8700 C   0  0  0  0  0  1  0  0  0  0  0  0
  189.0510  177.3970  139.3870 C   0  0  2  0  0  3  0  0  0  0  0  0
  189.0840  178.6520  138.5240 C   0  0  0  0  0  1  0  0  0  0  0  0
  187.9610  178.7790  140.9700 O   0  0  0  0  0  0  0  0  0  0  0  0
  188.6340  177.7700  140.7800 C   0  0  0  0  0  0  0  0  0  0  0  0
  188.9920  176.8880  141.9290 C   0  0  0  0  0  2  0  0  0  0  0  0
  188.6320  177.5620  143.2380 C   0  0  0  0  0  2  0  0  0  0  0  0
  187.5380  176.7800  143.9370 C   0  0  0  0  0  2  0  0  0  0  0  0
  186.4200  177.7240  144.3380 C   0  0  0  0  0  2  0  0  0  0  0  0
  186.2570  177.7430  145.8520 C   0  0  2  0  0  3  0  0  0  0  0  0
  185.0490  178.5930  146.2120 C   0  0  0  0  0  1  0  0  0  0  0  0
  187.4450  178.3050  146.4700 N   0  0  0  0  0  2  0  0  0  0  0  0
  187.8070  177.4460  147.5910 C   0  0  2  0  0  3  0  0  0  0  0  0
  191.0550  177.1080  146.6050 C   0  0  0  0  0  1  0  0  0  0  0  0
  189.9410  178.1500  148.3270 N   0  0  0  0  0  2  0  0  0  0  0  0
  190.1420  176.8970  147.7180 N   0  0  0  0  0  0  0  0  0  0  0  0
  188.5210  178.2540  148.6310 C   0  0  0  0  0  2  0  0  0  0  0  0
  188.8650  176.4710  147.1480 C   0  0  0  0  0  2  0  0  0  0  0  0
  189.3910  175.8510  135.0340 C   0  0  0  0  0  2  0  0  0  0  0  0
  186.2780  175.2140  136.8850 C   0  0  0  0  0  2  0  0  0  0  0  0
  185.4500  176.7970  136.8820 S   0  0  0  0  0  0  0  0  0  0  0  0
  183.9660  176.5990  136.7340 O   0  0  0  0  0  0  0  0  0  0  0  0
  187.5100  177.4010  135.2500 C   0  0  0  0  0  3  0  0  0  0  0  0
  186.9980  174.9950  135.5530 C   0  0  0  0  0  2  0  0  0  0  0  0
  187.9420  176.1320  135.2550 C   0  0  0  0  0  0  0  0  0  0  0  0
  185.7400  177.5170  138.1690 O   0  0  0  0  0  0  0  0  0  0  0  0
  186.0720  177.7530  135.5060 C   0  0  0  0  0  2  0  0  0  0  0  0
  1  6  1  1  0  0  0
  1  8  1  0  0  0  0
  2 13  1  0  0  0  0
  2 11  1  0  0  0  0
  2 12  1  1  0  0  0
  3 16  1  0  0  0  0
  4  7  2  0  0  0  0
  5  1  1  0  0  0  0
  5  9  1  0  0  0  0
  8  4  1  0  0  0  0
  9  7  1  0  0  0  0
 10  3  1  0  0  0  0
 11  7  1  1  0  0  0
 11 10  1  0  0  0  0
 13 35  1  6  0  0  0
 13 14  1  0  0  0  0
 14  3  2  0  0  0  0
 15  4  1  0  0  0  0
 15 12  1  0  0  0  0
 16 17  1  6  0  0  0
 18 19  1  6  0  0  0
 18 16  1  0  0  0  0
 18 21  1  0  0  0  0
 21 20  2  0  0  0  0
 21 22  1  0  0  0  0
 22 23  1  0  0  0  0
 23 24  1  0  0  0  0
 24 25  1  0  0  0  0
 25 26  1  0  0  0  0
 26 27  1  6  0  0  0
 26 28  1  0  0  0  0
 29 28  1  6  0  0  0
 29 33  1  0  0  0  0
 30 32  1  0  0  0  0
 31 33  1  0  0  0  0
 32 31  1  0  0  0  0
 34 29  1  0  0  0  0
 34 32  1  0  0  0  0
 35 41  1  0  0  0  0
 37 36  1  0  0  0  0
 37 42  2  0  0  0  0
 38 37  2  0  0  0  0
 39 41  2  0  0  0  0
 39 43  1  0  0  0  0
 40 36  1  0  0  0  0
 41 40  1  0  0  0  0
 43 37  1  0  0  0  0
M  END
>  <MODEL>
6

>  <REMARK>
 VINA RESULT:      -7.0      2.765      6.692
  Name = 
  12 active torsions:
  status: ('A' for Active; 'I' for Inactive)
    1  A    between atoms: C_1  and  C_34
    2  A    between atoms: C_1  and  C_35
    3  A    between atoms: C_2  and  C_6
    4  A    between atoms: C_2  and  C_13
    5  A    between atoms: C_4  and  C_12
    6  A    between atoms: C_4  and  C_15
    7  A    between atoms: C_6  and  C_12
    8  A    between atoms: C_10  and  C_22
    9  A    between atoms: C_10  and  C_42
   10  A    between atoms: C_11  and  N_14
   11  A    between atoms: N_14  and  C_22
   12  A    between atoms: C_15  and  C_42
                            x       y       z     vdW  Elec       q    Type
                         _______ _______ _______ _____ _____    ______ ____

>  <TORSDO>
F 12

$$$$
=
 OpenBabel11052416103D

 43 47  0  0  1  0  0  0  0  0999 V2000
  184.8670  175.6750  135.5150 C   0  0  1  0  0  3  0  0  0  0  0  0
  189.6680  176.8770  136.6260 C   0  0  1  0  0  3  0  0  0  0  0  0
  190.0550  176.5960  139.4180 C   0  0  0  0  0  0  0  0  0  0  0  0
  186.8360  177.0820  136.3150 C   0  0  0  0  0  0  0  0  0  0  0  0
  185.7050  174.5500  135.9720 N   0  0  0  0  0  2  0  0  0  0  0  0
  183.4460  175.5200  136.0240 C   0  0  0  0  0  1  0  0  0  0  0  0
  187.3160  176.0150  136.9890 C   0  0  0  0  0  0  0  0  0  0  0  0
  185.4010  177.0800  135.8680 C   0  0  0  0  0  2  0  0  0  0  0  0
  186.3990  174.8620  137.2220 C   0  0  0  0  0  2  0  0  0  0  0  0
  188.8810  176.1050  138.8280 O   0  0  0  0  0  0  0  0  0  0  0  0
  188.7610  175.9090  137.4140 C   0  0  2  0  0  3  0  0  0  0  0  0
  189.0560  178.2720  136.6060 C   0  0  0  0  0  2  0  0  0  0  0  0
  191.0770  176.9020  137.2170 C   0  0  1  0  0  3  0  0  0  0  0  0
  191.0430  177.0180  138.6800 N   0  0  0  0  0  0  0  0  0  0  0  0
  187.7190  178.2220  135.8670 C   0  0  0  0  0  2  0  0  0  0  0  0
  190.1530  176.6850  140.9170 C   0  0  1  0  0  3  0  0  0  0  0  0
  191.3790  177.5130  141.2980 C   0  0  0  0  0  1  0  0  0  0  0  0
  188.8370  177.2240  141.5090 C   0  0  2  0  0  3  0  0  0  0  0  0
  188.7500  178.7450  141.4980 C   0  0  0  0  0  1  0  0  0  0  0  0
  189.0170  175.5980  143.2200 O   0  0  0  0  0  0  0  0  0  0  0  0
  188.6580  176.7320  142.9160 C   0  0  0  0  0  0  0  0  0  0  0  0
  188.0940  177.6390  143.9590 C   0  0  0  0  0  2  0  0  0  0  0  0
  186.6420  177.2930  144.2230 C   0  0  0  0  0  2  0  0  0  0  0  0
  185.8480  178.5610  144.4680 C   0  0  0  0  0  2  0  0  0  0  0  0
  184.4380  178.3850  143.9350 C   0  0  0  0  0  2  0  0  0  0  0  0
  184.4550  178.2640  142.4170 C   0  0  2  0  0  3  0  0  0  0  0  0
  185.3130  179.3780  141.8390 C   0  0  0  0  0  1  0  0  0  0  0  0
  183.1040  178.3760  141.8970 N   0  0  0  0  0  2  0  0  0  0  0  0
  183.1970  178.4970  140.4480 C   0  0  2  0  0  3  0  0  0  0  0  0
  181.0670  175.9030  139.8430 C   0  0  0  0  0  1  0  0  0  0  0  0
  181.0130  178.1900  139.5960 N   0  0  0  0  0  2  0  0  0  0  0  0
  181.7320  177.0380  139.2240 N   0  0  0  0  0  0  0  0  0  0  0  0
  181.9900  179.2160  139.9260 C   0  0  0  0  0  2  0  0  0  0  0  0
  183.0620  177.1330  139.8250 C   0  0  0  0  0  2  0  0  0  0  0  0
  191.8250  175.6360  136.8040 C   0  0  0  0  0  2  0  0  0  0  0  0
  195.2760  174.5100  137.3900 C   0  0  0  0  0  2  0  0  0  0  0  0
  196.1860  175.1920  136.0120 S   0  0  0  0  0  0  0  0  0  0  0  0
  197.5490  175.6360  136.4670 O   0  0  0  0  0  0  0  0  0  0  0  0
  193.8010  176.3660  135.5600 C   0  0  0  0  0  3  0  0  0  0  0  0
  194.1960  175.4930  137.8460 C   0  0  0  0  0  2  0  0  0  0  0  0
  193.2940  175.8750  136.7000 C   0  0  0  0  0  0  0  0  0  0  0  0
  196.3240  174.1500  134.9370 O   0  0  0  0  0  0  0  0  0  0  0  0
  195.2750  176.5920  135.3770 C   0  0  0  0  0  2  0  0  0  0  0  0
  1  8  1  0  0  0  0
  1  5  1  0  0  0  0
  1  6  1  1  0  0  0
  2 12  1  1  0  0  0
  2 13  1  0  0  0  0
  2 11  1  0  0  0  0
  3 16  1  0  0  0  0
  4  7  2  0  0  0  0
  5  9  1  0  0  0  0
  7  9  1  0  0  0  0
  8  4  1  0  0  0  0
 10  3  1  0  0  0  0
 11  7  1  6  0  0  0
 11 10  1  0  0  0  0
 13 35  1  1  0  0  0
 13 14  1  0  0  0  0
 14  3  2  0  0  0  0
 15  4  1  0  0  0  0
 15 12  1  0  0  0  0
 16 17  1  6  0  0  0
 16 18  1  0  0  0  0
 18 19  1  1  0  0  0
 18 21  1  0  0  0  0
 21 20  2  0  0  0  0
 21 22  1  0  0  0  0
 22 23  1  0  0  0  0
 23 24  1  0  0  0  0
 25 24  1  0  0  0  0
 26 27  1  6  0  0  0
 26 25  1  0  0  0  0
 28 26  1  0  0  0  0
 29 28  1  1  0  0  0
 31 33  1  0  0  0  0
 32 31  1  0  0  0  0
 32 34  1  0  0  0  0
 32 30  1  0  0  0  0
 33 29  1  0  0  0  0
 34 29  1  0  0  0  0
 36 40  1  0  0  0  0
 37 38  2  0  0  0  0
 37 36  1  0  0  0  0
 39 41  2  0  0  0  0
 41 35  1  0  0  0  0
 41 40  1  0  0  0  0
 42 37  2  0  0  0  0
 43 39  1  0  0  0  0
 43 37  1  0  0  0  0
M  END
>  <MODEL>
7

>  <REMARK>
 VINA RESULT:      -7.0      2.251      3.572
  Name = 
  12 active torsions:
  status: ('A' for Active; 'I' for Inactive)
    1  A    between atoms: C_1  and  C_34
    2  A    between atoms: C_1  and  C_35
    3  A    between atoms: C_2  and  C_6
    4  A    between atoms: C_2  and  C_13
    5  A    between atoms: C_4  and  C_12
    6  A    between atoms: C_4  and  C_15
    7  A    between atoms: C_6  and  C_12
    8  A    between atoms: C_10  and  C_22
    9  A    between atoms: C_10  and  C_42
   10  A    between atoms: C_11  and  N_14
   11  A    between atoms: N_14  and  C_22
   12  A    between atoms: C_15  and  C_42
                            x       y       z     vdW  Elec       q    Type
                         _______ _______ _______ _____ _____    ______ ____

>  <TORSDO>
F 12

$$$$
=
 OpenBabel11052416103D

 43 47  0  0  1  0  0  0  0  0999 V2000
  179.5680  182.8360  137.7720 C   0  0  1  0  0  3  0  0  0  0  0  0
  181.8300  179.1090  140.3630 C   0  0  1  0  0  3  0  0  0  0  0  0
  183.2820  177.4890  138.5480 C   0  0  0  0  0  0  0  0  0  0  0  0
  179.9500  180.5050  138.7270 C   0  0  0  0  0  0  0  0  0  0  0  0
  181.0410  182.9150  137.8260 N   0  0  0  0  0  2  0  0  0  0  0  0
  179.0590  183.3220  136.4270 C   0  0  0  0  0  1  0  0  0  0  0  0
  181.2560  180.5890  138.3910 C   0  0  0  0  0  0  0  0  0  0  0  0
  178.9690  181.4500  138.0900 C   0  0  0  0  0  2  0  0  0  0  0  0
  181.6660  181.6530  137.4290 C   0  0  0  0  0  2  0  0  0  0  0  0
  182.7570  178.7160  138.1160 O   0  0  0  0  0  0  0  0  0  0  0  0
  182.3130  179.7230  139.0330 C   0  0  2  0  0  3  0  0  0  0  0  0
  180.4480  178.4910  140.1850 C   0  0  0  0  0  2  0  0  0  0  0  0
  182.8310  178.0770  140.8790 C   0  0  1  0  0  3  0  0  0  0  0  0
  183.2640  177.1680  139.8120 N   0  0  0  0  0  0  0  0  0  0  0  0
  179.4510  179.5910  139.8200 C   0  0  0  0  0  2  0  0  0  0  0  0
  183.8240  176.5140  137.5390 C   0  0  1  0  0  3  0  0  0  0  0  0
  182.7450  176.2050  136.5020 C   0  0  0  0  0  1  0  0  0  0  0  0
  185.1320  177.0500  136.9260 C   0  0  2  0  0  3  0  0  0  0  0  0
  185.0380  177.2940  135.4250 C   0  0  0  0  0  1  0  0  0  0  0  0
  186.0890  174.8900  137.0830 O   0  0  0  0  0  0  0  0  0  0  0  0
  186.2620  176.1000  137.1990 C   0  0  0  0  0  0  0  0  0  0  0  0
  187.6120  176.6270  137.5590 C   0  0  0  0  0  2  0  0  0  0  0  0
  187.5730  178.1380  137.6610 C   0  0  0  0  0  2  0  0  0  0  0  0
  188.6540  178.6190  138.6080 C   0  0  0  0  0  2  0  0  0  0  0  0
  189.2600  177.4280  139.3290 C   0  0  0  0  0  2  0  0  0  0  0  0
  188.9040  177.4650  140.8090 C   0  0  2  0  0  3  0  0  0  0  0  0
  187.9900  178.6510  141.0710 C   0  0  0  0  0  1  0  0  0  0  0  0
  190.1110  177.6000  141.6040 N   0  0  0  0  0  2  0  0  0  0  0  0
  189.7110  177.9860  142.9520 C   0  0  2  0  0  3  0  0  0  0  0  0
  191.6840  175.6570  144.4750 C   0  0  0  0  0  1  0  0  0  0  0  0
  191.6660  177.9500  144.2810 N   0  0  0  0  0  2  0  0  0  0  0  0
  190.8930  176.8550  144.7110 N   0  0  0  0  0  0  0  0  0  0  0  0
  190.7740  178.8480  143.5630 C   0  0  0  0  0  2  0  0  0  0  0  0
  189.7210  176.7710  143.8400 C   0  0  0  0  0  2  0  0  0  0  0  0
  184.0360  178.7960  141.4830 C   0  0  0  0  0  2  0  0  0  0  0  0
  186.2700  178.2370  144.3510 C   0  0  0  0  0  2  0  0  0  0  0  0
  185.3030  178.7710  145.7540 S   0  0  0  0  0  0  0  0  0  0  0  0
  185.5680  177.8740  146.9320 O   0  0  0  0  0  0  0  0  0  0  0  0
  183.4110  178.9740  143.8420 C   0  0  0  0  0  3  0  0  0  0  0  0
  185.3710  177.5460  143.3240 C   0  0  0  0  0  2  0  0  0  0  0  0
  184.2260  178.4400  142.9200 C   0  0  0  0  0  0  0  0  0  0  0  0
  185.6650  180.1880  146.1030 O   0  0  0  0  0  0  0  0  0  0  0  0
  183.5740  178.6870  145.3080 C   0  0  0  0  0  2  0  0  0  0  0  0
  1  6  1  6  0  0  0
  1  5  1  0  0  0  0
  1  8  1  0  0  0  0
  2 12  1  6  0  0  0
  2 13  1  0  0  0  0
  3 14  2  0  0  0  0
  4 15  1  0  0  0  0
  7  4  2  0  0  0  0
  7 11  1  0  0  0  0
  8  4  1  0  0  0  0
  9  5  1  0  0  0  0
  9  7  1  0  0  0  0
 10  3  1  0  0  0  0
 11 10  1  6  0  0  0
 11  2  1  0  0  0  0
 13 35  1  6  0  0  0
 14 13  1  0  0  0  0
 15 12  1  0  0  0  0
 16 17  1  6  0  0  0
 16  3  1  0  0  0  0
 18 19  1  6  0  0  0
 18 21  1  0  0  0  0
 18 16  1  0  0  0  0
 20 21  2  0  0  0  0
 21 22  1  0  0  0  0
 22 23  1  0  0  0  0
 23 24  1  0  0  0  0
 24 25  1  0  0  0  0
 25 26  1  0  0  0  0
 26 27  1  6  0  0  0
 26 28  1  0  0  0  0
 29 28  1  6  0  0  0
 29 33  1  0  0  0  0
 29 34  1  0  0  0  0
 30 32  1  0  0  0  0
 31 32  1  0  0  0  0
 33 31  1  0  0  0  0
 34 32  1  0  0  0  0
 35 41  1  0  0  0  0
 36 37  1  0  0  0  0
 37 42  2  0  0  0  0
 37 38  2  0  0  0  0
 39 43  1  0  0  0  0
 40 36  1  0  0  0  0
 41 40  1  0  0  0  0
 41 39  2  0  0  0  0
 43 37  1  0  0  0  0
M  END
>  <MODEL>
8

>  <REMARK>
 VINA RESULT:      -6.6      4.758      8.920
  Name = 
  12 active torsions:
  status: ('A' for Active; 'I' for Inactive)
    1  A    between atoms: C_1  and  C_34
    2  A    between atoms: C_1  and  C_35
    3  A    between atoms: C_2  and  C_6
    4  A    between atoms: C_2  and  C_13
    5  A    between atoms: C_4  and  C_12
    6  A    between atoms: C_4  and  C_15
    7  A    between atoms: C_6  and  C_12
    8  A    between atoms: C_10  and  C_22
    9  A    between atoms: C_10  and  C_42
   10  A    between atoms: C_11  and  N_14
   11  A    between atoms: N_14  and  C_22
   12  A    between atoms: C_15  and  C_42
                            x       y       z     vdW  Elec       q    Type
                         _______ _______ _______ _____ _____    ______ ____

>  <TORSDO>
F 12

$$$$
=
 OpenBabel11052416103D

 43 47  0  0  1  0  0  0  0  0999 V2000
  179.8480  183.5010  137.2400 C   0  0  1  0  0  3  0  0  0  0  0  0
  180.5510  178.5490  136.4030 C   0  0  1  0  0  3  0  0  0  0  0  0
  182.8730  177.7110  137.7920 C   0  0  0  0  0  0  0  0  0  0  0  0
  180.8210  181.3850  136.2060 C   0  0  0  0  0  0  0  0  0  0  0  0
  179.6540  182.6330  138.4170 N   0  0  0  0  0  2  0  0  0  0  0  0
  180.4720  184.8220  137.6500 C   0  0  0  0  0  1  0  0  0  0  0  0
  180.9060  180.8320  137.4350 C   0  0  0  0  0  0  0  0  0  0  0  0
  180.6560  182.8750  136.0840 C   0  0  0  0  0  2  0  0  0  0  0  0
  180.7890  181.7320  138.6190 C   0  0  0  0  0  2  0  0  0  0  0  0
  182.3340  178.9810  138.0450 O   0  0  0  0  0  0  0  0  0  0  0  0
  181.0060  179.3400  137.6460 C   0  0  2  0  0  3  0  0  0  0  0  0
  181.2100  179.1130  135.1500 C   0  0  0  0  0  2  0  0  0  0  0  0
  180.8600  177.0610  136.5650 C   0  0  1  0  0  3  0  0  0  0  0  0
  182.2240  176.8470  137.0620 N   0  0  0  0  0  0  0  0  0  0  0  0
  180.7460  180.5550  134.9470 C   0  0  0  0  0  2  0  0  0  0  0  0
  184.2360  177.3620  138.3250 C   0  0  1  0  0  3  0  0  0  0  0  0
  184.8380  176.2380  137.4820 C   0  0  0  0  0  1  0  0  0  0  0  0
  185.1220  178.6200  138.3970 C   0  0  2  0  0  3  0  0  0  0  0  0
  186.3020  178.5810  137.4340 C   0  0  0  0  0  1  0  0  0  0  0  0
  184.8940  179.2810  140.6590 O   0  0  0  0  0  0  0  0  0  0  0  0
  185.6330  178.8180  139.7940 C   0  0  0  0  0  0  0  0  0  0  0  0
  187.0230  178.4040  140.1480 C   0  0  0  0  0  2  0  0  0  0  0  0
  187.1390  178.1850  141.6420 C   0  0  0  0  0  2  0  0  0  0  0  0
  188.2890  177.2430  141.9370 C   0  0  0  0  0  2  0  0  0  0  0  0
  188.0380  176.5350  143.2560 C   0  0  0  0  0  2  0  0  0  0  0  0
  187.8450  177.5500  144.3760 C   0  0  2  0  0  3  0  0  0  0  0  0
  188.8550  177.2730  145.4760 C   0  0  0  0  0  1  0  0  0  0  0  0
  186.5010  177.4400  144.9150 N   0  0  0  0  0  2  0  0  0  0  0  0
  186.1630  178.7220  145.5200 C   0  0  2  0  0  3  0  0  0  0  0  0
  182.9750  178.7390  144.3070 C   0  0  0  0  0  1  0  0  0  0  0  0
  183.9670  178.5170  146.3720 N   0  0  0  0  0  2  0  0  0  0  0  0
  183.8660  179.3780  145.2630 N   0  0  0  0  0  0  0  0  0  0  0  0
  185.3660  178.4930  146.7690 C   0  0  0  0  0  2  0  0  0  0  0  0
  185.1850  179.4480  144.6350 C   0  0  0  0  0  2  0  0  0  0  0  0
  179.8440  176.4310  137.5160 C   0  0  0  0  0  2  0  0  0  0  0  0
  180.6170  173.4330  135.5320 C   0  0  0  0  0  2  0  0  0  0  0  0
  180.8010  172.1470  136.7580 S   0  0  0  0  0  0  0  0  0  0  0  0
  180.2340  170.8550  136.2360 O   0  0  0  0  0  0  0  0  0  0  0  0
  179.9550  174.1400  138.3660 C   0  0  0  0  0  3  0  0  0  0  0  0
  179.5030  174.3960  135.9430 C   0  0  0  0  0  2  0  0  0  0  0  0
  179.7510  174.9540  137.3210 C   0  0  0  0  0  0  0  0  0  0  0  0
  182.2570  171.9680  137.0830 O   0  0  0  0  0  0  0  0  0  0  0  0
  179.9150  172.6440  138.2290 C   0  0  0  0  0  2  0  0  0  0  0  0
  1  6  1  1  0  0  0
  1  5  1  0  0  0  0
  2 12  1  6  0  0  0
  2 13  1  0  0  0  0
  2 11  1  0  0  0  0
  3 10  1  0  0  0  0
  3 16  1  0  0  0  0
  4  7  2  0  0  0  0
  5  9  1  0  0  0  0
  7  9  1  0  0  0  0
  8  4  1  0  0  0  0
  8  1  1  0  0  0  0
 11  7  1  6  0  0  0
 11 10  1  0  0  0  0
 13 14  1  0  0  0  0
 13 35  1  1  0  0  0
 14  3  2  0  0  0  0
 15 12  1  0  0  0  0
 15  4  1  0  0  0  0
 16 17  1  6  0  0  0
 16 18  1  0  0  0  0
 18 19  1  6  0  0  0
 18 21  1  0  0  0  0
 21 22  1  0  0  0  0
 21 20  2  0  0  0  0
 22 23  1  0  0  0  0
 23 24  1  0  0  0  0
 24 25  1  0  0  0  0
 25 26  1  0  0  0  0
 26 28  1  0  0  0  0
 26 27  1  1  0  0  0
 29 28  1  6  0  0  0
 29 33  1  0  0  0  0
 30 32  1  0  0  0  0
 31 33  1  0  0  0  0
 32 31  1  0  0  0  0
 34 32  1  0  0  0  0
 34 29  1  0  0  0  0
 36 40  1  0  0  0  0
 36 37  1  0  0  0  0
 37 42  2  0  0  0  0
 37 43  1  0  0  0  0
 38 37  2  0  0  0  0
 40 41  1  0  0  0  0
 41 35  1  0  0  0  0
 41 39  2  0  0  0  0
 43 39  1  0  0  0  0
M  END
>  <MODEL>
9

>  <REMARK>
 VINA RESULT:      -6.6      5.328      8.533
  Name = 
  12 active torsions:
  status: ('A' for Active; 'I' for Inactive)
    1  A    between atoms: C_1  and  C_34
    2  A    between atoms: C_1  and  C_35
    3  A    between atoms: C_2  and  C_6
    4  A    between atoms: C_2  and  C_13
    5  A    between atoms: C_4  and  C_12
    6  A    between atoms: C_4  and  C_15
    7  A    between atoms: C_6  and  C_12
    8  A    between atoms: C_10  and  C_22
    9  A    between atoms: C_10  and  C_42
   10  A    between atoms: C_11  and  N_14
   11  A    between atoms: N_14  and  C_22
   12  A    between atoms: C_15  and  C_42
                            x       y       z     vdW  Elec       q    Type
                         _______ _______ _______ _____ _____    ______ ____

>  <TORSDO>
F 12

$$$$
