=
 OpenBabel11052412553D

 25 24  0  0  1  0  0  0  0  0999 V2000
  189.7470  177.5900  141.1400 C   0  0  1  0  0  3  0  0  0  0  0  0
  190.6430  176.0320  139.5500 O   0  0  0  0  0  0  0  0  0  0  0  0
  190.8230  177.0810  140.2290 C   0  0  0  0  0  0  0  0  0  0  0  0
  192.0380  177.7650  140.1680 O   0  0  0  0  0  0  0  0  0  0  0  0
  193.2640  177.0950  139.9200 C   0  0  0  0  0  1  0  0  0  0  0  0
  188.6850  178.4310  140.4020 C   0  0  1  0  0  3  0  0  0  0  0  0
  188.9460  178.5390  138.8960 C   0  0  0  0  0  2  0  0  0  0  0  0
  187.8410  177.8490  138.1230 C   0  0  0  0  0  1  0  0  0  0  0  0
  187.3560  178.0440  140.7000 O   0  0  0  0  0  0  0  0  0  0  0  0
  186.7730  179.0070  141.5440 C   0  0  0  0  0  2  0  0  0  0  0  0
  184.7330  179.0290  140.0670 C   0  0  0  0  0  1  0  0  0  0  0  0
  185.3290  178.9890  141.3900 N   0  0  0  0  0  0  0  0  0  0  0  0
  183.8070  178.7370  143.4890 C   0  0  0  0  0  3  0  0  0  0  0  0
  184.5120  178.8540  142.5170 C   0  0  0  0  0  0  0  0  0  0  0  0
  189.1430  176.4530  141.9680 C   0  0  0  0  0  2  0  0  0  0  0  0
  189.0970  176.8340  143.7530 S   0  0  0  0  0  0  0  0  0  0  0  0
  190.4800  178.0010  143.6250 C   0  0  0  0  0  2  0  0  0  0  0  0
  191.2780  177.9960  144.9160 C   0  0  0  0  0  2  0  0  0  0  0  0
  191.4360  176.5790  145.4380 C   0  0  0  0  0  2  0  0  0  0  0  0
  191.4090  176.5590  147.2550 S   0  0  0  0  0  0  0  0  0  0  0  0
  189.6150  176.8260  147.3110 C   0  0  0  0  0  2  0  0  0  0  0  0
  189.3100  178.0180  148.1910 C   0  0  0  0  0  2  0  0  0  0  0  0
  187.8140  178.2430  148.2310 C   0  0  0  0  0  2  0  0  0  0  0  0
  187.1900  177.7130  146.9570 C   0  0  0  0  0  2  0  0  0  0  0  0
  186.0660  178.6300  146.5270 C   0  0  0  0  0  1  0  0  0  0  0  0
  1 15  1  6  0  0  0
  2  3  2  0  0  0  0
  3  1  1  0  0  0  0
  4  3  1  0  0  0  0
  5  4  1  0  0  0  0
  6  7  1  6  0  0  0
  6  9  1  0  0  0  0
  6  1  1  0  0  0  0
  8  7  1  0  0  0  0
  9 10  1  0  0  0  0
 11 12  1  0  0  0  0
 12 10  1  0  0  0  0
 12 14  1  0  0  0  0
 14 13  3  0  0  0  0
 15 16  1  0  0  0  0
 17 16  1  0  0  0  0
 17 18  1  0  0  0  0
 18 19  1  0  0  0  0
 19 20  1  0  0  0  0
 20 21  1  0  0  0  0
 21 22  1  0  0  0  0
 22 23  1  0  0  0  0
 24 23  1  0  0  0  0
 25 24  1  0  0  0  0
M  END
>  <MODEL>
1

>  <REMARK>
 VINA RESULT:      -5.3      0.000      0.000
  Name = 
  18 active torsions:
  status: ('A' for Active; 'I' for Inactive)
    1  A    between atoms: C_1  and  C_3
    2  A    between atoms: C_1  and  C_18
    3  A    between atoms: C_1  and  C_24
    4  A    between atoms: C_2  and  C_7
    5  A    between atoms: C_2  and  C_25
    6  A    between atoms: C_3  and  S_16
    7  A    between atoms: O_4  and  C_18
    8  A    between atoms: O_4  and  C_19
    9  A    between atoms: S_6  and  C_15
   10  A    between atoms: S_6  and  C_21
   11  A    between atoms: N_10  and  C_11
   12  A    between atoms: N_10  and  C_19
   13  A    between atoms: O_13  and  C_24
   14  A    between atoms: C_15  and  C_20
   15  A    between atoms: S_16  and  C_23
   16  A    between atoms: C_17  and  C_18
   17  A    between atoms: C_20  and  C_23
   18  A    between atoms: C_21  and  C_25
                            x       y       z     vdW  Elec       q    Type
                         _______ _______ _______ _____ _____    ______ ____

>  <TORSDO>
F 18

$$$$
=
 OpenBabel11052412553D

 25 24  0  0  1  0  0  0  0  0999 V2000
  189.4800  177.2900  140.7840 C   0  0  1  0  0  3  0  0  0  0  0  0
  188.4010  178.7640  139.2270 O   0  0  0  0  0  0  0  0  0  0  0  0
  188.4070  178.2600  140.3850 C   0  0  0  0  0  0  0  0  0  0  0  0
  187.4390  178.6220  141.3210 O   0  0  0  0  0  0  0  0  0  0  0  0
  186.0920  178.8700  140.9500 C   0  0  0  0  0  1  0  0  0  0  0  0
  190.7360  177.3870  139.8950 C   0  0  1  0  0  3  0  0  0  0  0  0
  192.0200  177.6260  140.6950 C   0  0  0  0  0  2  0  0  0  0  0  0
  193.2320  177.2580  139.8620 C   0  0  0  0  0  1  0  0  0  0  0  0
  190.8560  176.3160  138.9750 O   0  0  0  0  0  0  0  0  0  0  0  0
  190.5550  176.7840  137.6830 C   0  0  0  0  0  2  0  0  0  0  0  0
  190.3930  175.8160  135.3630 C   0  0  0  0  0  1  0  0  0  0  0  0
  190.9710  175.8040  136.6950 N   0  0  0  0  0  0  0  0  0  0  0  0
  192.8650  174.1100  137.2690 C   0  0  0  0  0  3  0  0  0  0  0  0
  191.9880  174.8940  137.0030 C   0  0  0  0  0  0  0  0  0  0  0  0
  189.7910  177.3980  142.2780 C   0  0  0  0  0  2  0  0  0  0  0  0
  190.0480  175.7700  143.0610 S   0  0  0  0  0  0  0  0  0  0  0  0
  191.2300  176.4400  144.2640 C   0  0  0  0  0  2  0  0  0  0  0  0
  190.5510  177.4960  145.1170 C   0  0  0  0  0  2  0  0  0  0  0  0
  190.4610  177.0340  146.5610 C   0  0  0  0  0  2  0  0  0  0  0  0
  188.7550  177.1730  147.1720 S   0  0  0  0  0  0  0  0  0  0  0  0
  188.1810  177.9400  145.6310 C   0  0  0  0  0  2  0  0  0  0  0  0
  186.9440  177.2210  145.1390 C   0  0  0  0  0  2  0  0  0  0  0  0
  185.9620  178.2310  144.5870 C   0  0  0  0  0  2  0  0  0  0  0  0
  184.9980  178.6470  145.6790 C   0  0  0  0  0  2  0  0  0  0  0  0
  183.6590  178.9930  145.0650 C   0  0  0  0  0  1  0  0  0  0  0  0
  1 15  1  1  0  0  0
  2  3  2  0  0  0  0
  3  1  1  0  0  0  0
  3  4  1  0  0  0  0
  5  4  1  0  0  0  0
  6  7  1  1  0  0  0
  6  1  1  0  0  0  0
  8  7  1  0  0  0  0
  9  6  1  0  0  0  0
 10  9  1  0  0  0  0
 11 12  1  0  0  0  0
 12 14  1  0  0  0  0
 12 10  1  0  0  0  0
 14 13  3  0  0  0  0
 15 16  1  0  0  0  0
 16 17  1  0  0  0  0
 17 18  1  0  0  0  0
 18 19  1  0  0  0  0
 19 20  1  0  0  0  0
 21 20  1  0  0  0  0
 22 21  1  0  0  0  0
 23 22  1  0  0  0  0
 23 24  1  0  0  0  0
 25 24  1  0  0  0  0
M  END
>  <MODEL>
2

>  <REMARK>
 VINA RESULT:      -5.1      2.514      5.088
  Name = 
  18 active torsions:
  status: ('A' for Active; 'I' for Inactive)
    1  A    between atoms: C_1  and  C_3
    2  A    between atoms: C_1  and  C_18
    3  A    between atoms: C_1  and  C_24
    4  A    between atoms: C_2  and  C_7
    5  A    between atoms: C_2  and  C_25
    6  A    between atoms: C_3  and  S_16
    7  A    between atoms: O_4  and  C_18
    8  A    between atoms: O_4  and  C_19
    9  A    between atoms: S_6  and  C_15
   10  A    between atoms: S_6  and  C_21
   11  A    between atoms: N_10  and  C_11
   12  A    between atoms: N_10  and  C_19
   13  A    between atoms: O_13  and  C_24
   14  A    between atoms: C_15  and  C_20
   15  A    between atoms: S_16  and  C_23
   16  A    between atoms: C_17  and  C_18
   17  A    between atoms: C_20  and  C_23
   18  A    between atoms: C_21  and  C_25
                            x       y       z     vdW  Elec       q    Type
                         _______ _______ _______ _____ _____    ______ ____

>  <TORSDO>
F 18

$$$$
=
 OpenBabel11052412553D

 25 24  0  0  1  0  0  0  0  0999 V2000
  190.0560  177.5800  145.4990 C   0  0  1  0  0  3  0  0  0  0  0  0
  191.6730  175.8900  144.9600 O   0  0  0  0  0  0  0  0  0  0  0  0
  191.2670  176.7460  145.7950 C   0  0  0  0  0  0  0  0  0  0  0  0
  191.9160  176.9050  147.0190 O   0  0  0  0  0  0  0  0  0  0  0  0
  192.3380  175.7950  147.7950 C   0  0  0  0  0  1  0  0  0  0  0  0
  190.0120  178.0750  144.0390 C   0  0  1  0  0  3  0  0  0  0  0  0
  191.3620  178.6020  143.5440 C   0  0  0  0  0  2  0  0  0  0  0  0
  191.7570  179.8430  144.3210 C   0  0  0  0  0  1  0  0  0  0  0  0
  189.4290  177.1420  143.1480 O   0  0  0  0  0  0  0  0  0  0  0  0
  190.3440  176.8530  142.1200 C   0  0  0  0  0  2  0  0  0  0  0  0
  188.5150  177.8830  140.7280 C   0  0  0  0  0  1  0  0  0  0  0  0
  189.7240  177.0860  140.8270 N   0  0  0  0  0  0  0  0  0  0  0  0
  190.8670  176.1900  138.6630 C   0  0  0  0  0  3  0  0  0  0  0  0
  190.3380  176.6050  139.6650 C   0  0  0  0  0  0  0  0  0  0  0  0
  188.7750  176.8630  145.9300 C   0  0  0  0  0  2  0  0  0  0  0  0
  188.2520  177.3150  147.6190 S   0  0  0  0  0  0  0  0  0  0  0  0
  186.8540  178.3020  147.0130 C   0  0  0  0  0  2  0  0  0  0  0  0
  186.1980  177.5970  145.8400 C   0  0  0  0  0  2  0  0  0  0  0  0
  185.3990  178.5830  145.0060 C   0  0  0  0  0  2  0  0  0  0  0  0
  185.7150  178.3270  143.2350 S   0  0  0  0  0  0  0  0  0  0  0  0
  183.9700  178.5780  142.8060 C   0  0  0  0  0  2  0  0  0  0  0  0
  183.2480  179.2060  143.9780 C   0  0  0  0  0  2  0  0  0  0  0  0
  181.8130  178.7260  144.0010 C   0  0  0  0  0  2  0  0  0  0  0  0
  181.0670  179.3100  142.8190 C   0  0  0  0  0  2  0  0  0  0  0  0
  179.7060  179.7920  143.2710 C   0  0  0  0  0  1  0  0  0  0  0  0
  1  3  1  0  0  0  0
  1 15  1  6  0  0  0
  2  3  2  0  0  0  0
  3  4  1  0  0  0  0
  4  5  1  0  0  0  0
  6  7  1  6  0  0  0
  6  1  1  0  0  0  0
  7  8  1  0  0  0  0
  9  6  1  0  0  0  0
 10  9  1  0  0  0  0
 11 12  1  0  0  0  0
 12 10  1  0  0  0  0
 13 14  3  0  0  0  0
 14 12  1  0  0  0  0
 15 16  1  0  0  0  0
 17 16  1  0  0  0  0
 18 17  1  0  0  0  0
 19 18  1  0  0  0  0
 20 19  1  0  0  0  0
 21 20  1  0  0  0  0
 21 22  1  0  0  0  0
 22 23  1  0  0  0  0
 24 25  1  0  0  0  0
 24 23  1  0  0  0  0
M  END
>  <MODEL>
3

>  <REMARK>
 VINA RESULT:      -5.1      2.780      6.128
  Name = 
  18 active torsions:
  status: ('A' for Active; 'I' for Inactive)
    1  A    between atoms: C_1  and  C_3
    2  A    between atoms: C_1  and  C_18
    3  A    between atoms: C_1  and  C_24
    4  A    between atoms: C_2  and  C_7
    5  A    between atoms: C_2  and  C_25
    6  A    between atoms: C_3  and  S_16
    7  A    between atoms: O_4  and  C_18
    8  A    between atoms: O_4  and  C_19
    9  A    between atoms: S_6  and  C_15
   10  A    between atoms: S_6  and  C_21
   11  A    between atoms: N_10  and  C_11
   12  A    between atoms: N_10  and  C_19
   13  A    between atoms: O_13  and  C_24
   14  A    between atoms: C_15  and  C_20
   15  A    between atoms: S_16  and  C_23
   16  A    between atoms: C_17  and  C_18
   17  A    between atoms: C_20  and  C_23
   18  A    between atoms: C_21  and  C_25
                            x       y       z     vdW  Elec       q    Type
                         _______ _______ _______ _____ _____    ______ ____

>  <TORSDO>
F 18

$$$$
=
 OpenBabel11052412553D

 25 24  0  0  1  0  0  0  0  0999 V2000
  187.7290  177.6980  140.2450 C   0  0  1  0  0  3  0  0  0  0  0  0
  187.3650  177.0280  137.9700 O   0  0  0  0  0  0  0  0  0  0  0  0
  187.8110  177.9040  138.7620 C   0  0  0  0  0  0  0  0  0  0  0  0
  188.4160  179.0610  138.2720 O   0  0  0  0  0  0  0  0  0  0  0  0
  189.2100  179.0510  137.0960 C   0  0  0  0  0  1  0  0  0  0  0  0
  189.1160  177.5930  140.9120 C   0  0  1  0  0  3  0  0  0  0  0  0
  189.0400  177.4510  142.4360 C   0  0  0  0  0  2  0  0  0  0  0  0
  190.2010  178.1750  143.0870 C   0  0  0  0  0  1  0  0  0  0  0  0
  189.9550  176.6210  140.3140 O   0  0  0  0  0  0  0  0  0  0  0  0
  191.0760  177.2620  139.7550 C   0  0  0  0  0  2  0  0  0  0  0  0
  193.0040  176.5110  138.3190 C   0  0  0  0  0  1  0  0  0  0  0  0
  191.5900  176.4790  138.6450 N   0  0  0  0  0  0  0  0  0  0  0  0
  189.9930  174.8970  137.3280 C   0  0  0  0  0  3  0  0  0  0  0  0
  190.7320  175.6290  137.9380 C   0  0  0  0  0  0  0  0  0  0  0  0
  186.8260  178.7460  140.8990 C   0  0  0  0  0  2  0  0  0  0  0  0
  185.1780  178.8350  140.1190 S   0  0  0  0  0  0  0  0  0  0  0  0
  184.3270  178.8240  141.7220 C   0  0  0  0  0  2  0  0  0  0  0  0
  185.3390  178.9850  142.8420 C   0  0  0  0  0  2  0  0  0  0  0  0
  184.7540  179.8140  143.9720 C   0  0  0  0  0  2  0  0  0  0  0  0
  184.1320  178.7400  145.2990 S   0  0  0  0  0  0  0  0  0  0  0  0
  185.7250  178.7520  146.1660 C   0  0  0  0  0  2  0  0  0  0  0  0
  186.5200  177.5250  145.7780 C   0  0  0  0  0  2  0  0  0  0  0  0
  187.9850  177.7590  146.0780 C   0  0  0  0  0  2  0  0  0  0  0  0
  188.3370  177.1150  147.4030 C   0  0  0  0  0  2  0  0  0  0  0  0
  188.7400  178.1860  148.3930 C   0  0  0  0  0  1  0  0  0  0  0  0
  1 15  1  1  0  0  0
  1  6  1  0  0  0  0
  2  3  2  0  0  0  0
  3  1  1  0  0  0  0
  4  3  1  0  0  0  0
  5  4  1  0  0  0  0
  6  7  1  1  0  0  0
  7  8  1  0  0  0  0
  9  6  1  0  0  0  0
 10  9  1  0  0  0  0
 11 12  1  0  0  0  0
 12 10  1  0  0  0  0
 13 14  3  0  0  0  0
 14 12  1  0  0  0  0
 16 15  1  0  0  0  0
 16 17  1  0  0  0  0
 17 18  1  0  0  0  0
 18 19  1  0  0  0  0
 19 20  1  0  0  0  0
 20 21  1  0  0  0  0
 22 23  1  0  0  0  0
 22 21  1  0  0  0  0
 23 24  1  0  0  0  0
 24 25  1  0  0  0  0
M  END
>  <MODEL>
4

>  <REMARK>
 VINA RESULT:      -5.1      2.787      5.462
  Name = 
  18 active torsions:
  status: ('A' for Active; 'I' for Inactive)
    1  A    between atoms: C_1  and  C_3
    2  A    between atoms: C_1  and  C_18
    3  A    between atoms: C_1  and  C_24
    4  A    between atoms: C_2  and  C_7
    5  A    between atoms: C_2  and  C_25
    6  A    between atoms: C_3  and  S_16
    7  A    between atoms: O_4  and  C_18
    8  A    between atoms: O_4  and  C_19
    9  A    between atoms: S_6  and  C_15
   10  A    between atoms: S_6  and  C_21
   11  A    between atoms: N_10  and  C_11
   12  A    between atoms: N_10  and  C_19
   13  A    between atoms: O_13  and  C_24
   14  A    between atoms: C_15  and  C_20
   15  A    between atoms: S_16  and  C_23
   16  A    between atoms: C_17  and  C_18
   17  A    between atoms: C_20  and  C_23
   18  A    between atoms: C_21  and  C_25
                            x       y       z     vdW  Elec       q    Type
                         _______ _______ _______ _____ _____    ______ ____

>  <TORSDO>
F 18

$$$$
=
 OpenBabel11052412553D

 25 24  0  0  1  0  0  0  0  0999 V2000
  189.1230  177.4080  141.9170 C   0  0  1  0  0  3  0  0  0  0  0  0
  190.6480  176.1850  140.5250 O   0  0  0  0  0  0  0  0  0  0  0  0
  189.7060  177.0230  140.5900 C   0  0  0  0  0  0  0  0  0  0  0  0
  189.2140  177.6290  139.4330 O   0  0  0  0  0  0  0  0  0  0  0  0
  189.6600  177.2500  138.1410 C   0  0  0  0  0  1  0  0  0  0  0  0
  190.1900  177.5570  143.0190 C   0  0  1  0  0  3  0  0  0  0  0  0
  190.2510  178.9700  143.6080 C   0  0  0  0  0  2  0  0  0  0  0  0
  191.6650  179.2910  144.0520 C   0  0  0  0  0  1  0  0  0  0  0  0
  190.1130  176.5520  144.0150 O   0  0  0  0  0  0  0  0  0  0  0  0
  189.1890  176.9490  144.9990 C   0  0  0  0  0  2  0  0  0  0  0  0
  191.1920  176.4940  146.4570 C   0  0  0  0  0  1  0  0  0  0  0  0
  189.8420  177.0030  146.2950 N   0  0  0  0  0  0  0  0  0  0  0  0
  188.6420  178.1500  148.3030 C   0  0  0  0  0  3  0  0  0  0  0  0
  189.1980  177.6190  147.3730 C   0  0  0  0  0  0  0  0  0  0  0  0
  188.2190  178.6360  141.7860 C   0  0  0  0  0  2  0  0  0  0  0  0
  186.4600  178.2470  142.0850 S   0  0  0  0  0  0  0  0  0  0  0  0
  185.9670  178.8220  140.4360 C   0  0  0  0  0  2  0  0  0  0  0  0
  184.4700  178.6420  140.2560 C   0  0  0  0  0  2  0  0  0  0  0  0
  183.8280  178.1990  141.5580 C   0  0  0  0  0  2  0  0  0  0  0  0
  182.0780  178.6890  141.6080 S   0  0  0  0  0  0  0  0  0  0  0  0
  182.2020  179.2500  143.3290 C   0  0  0  0  0  2  0  0  0  0  0  0
  183.3140  178.4980  144.0260 C   0  0  0  0  0  2  0  0  0  0  0  0
  184.0550  179.4400  144.9500 C   0  0  0  0  0  2  0  0  0  0  0  0
  185.3310  178.7780  145.4290 C   0  0  0  0  0  2  0  0  0  0  0  0
  185.2190  178.4790  146.9070 C   0  0  0  0  0  1  0  0  0  0  0  0
  1 15  1  6  0  0  0
  1  6  1  0  0  0  0
  2  3  2  0  0  0  0
  3  1  1  0  0  0  0
  4  3  1  0  0  0  0
  5  4  1  0  0  0  0
  6  7  1  1  0  0  0
  6  9  1  0  0  0  0
  7  8  1  0  0  0  0
  9 10  1  0  0  0  0
 10 12  1  0  0  0  0
 12 11  1  0  0  0  0
 12 14  1  0  0  0  0
 14 13  3  0  0  0  0
 15 16  1  0  0  0  0
 17 16  1  0  0  0  0
 18 17  1  0  0  0  0
 18 19  1  0  0  0  0
 19 20  1  0  0  0  0
 20 21  1  0  0  0  0
 21 22  1  0  0  0  0
 22 23  1  0  0  0  0
 23 24  1  0  0  0  0
 24 25  1  0  0  0  0
M  END
>  <MODEL>
5

>  <REMARK>
 VINA RESULT:      -5.1      2.632      5.894
  Name = 
  18 active torsions:
  status: ('A' for Active; 'I' for Inactive)
    1  A    between atoms: C_1  and  C_3
    2  A    between atoms: C_1  and  C_18
    3  A    between atoms: C_1  and  C_24
    4  A    between atoms: C_2  and  C_7
    5  A    between atoms: C_2  and  C_25
    6  A    between atoms: C_3  and  S_16
    7  A    between atoms: O_4  and  C_18
    8  A    between atoms: O_4  and  C_19
    9  A    between atoms: S_6  and  C_15
   10  A    between atoms: S_6  and  C_21
   11  A    between atoms: N_10  and  C_11
   12  A    between atoms: N_10  and  C_19
   13  A    between atoms: O_13  and  C_24
   14  A    between atoms: C_15  and  C_20
   15  A    between atoms: S_16  and  C_23
   16  A    between atoms: C_17  and  C_18
   17  A    between atoms: C_20  and  C_23
   18  A    between atoms: C_21  and  C_25
                            x       y       z     vdW  Elec       q    Type
                         _______ _______ _______ _____ _____    ______ ____

>  <TORSDO>
F 18

$$$$
=
 OpenBabel11052412553D

 25 24  0  0  1  0  0  0  0  0999 V2000
  189.6340  177.1480  141.6430 C   0  0  1  0  0  3  0  0  0  0  0  0
  187.5630  176.7700  142.7960 O   0  0  0  0  0  0  0  0  0  0  0  0
  188.2570  177.5480  142.0840 C   0  0  0  0  0  0  0  0  0  0  0  0
  187.7430  178.7760  141.6670 O   0  0  0  0  0  0  0  0  0  0  0  0
  186.3530  178.9800  141.4720 C   0  0  0  0  0  1  0  0  0  0  0  0
  189.9250  177.5200  140.1750 C   0  0  1  0  0  3  0  0  0  0  0  0
  190.8930  176.5500  139.4910 C   0  0  0  0  0  2  0  0  0  0  0  0
  192.2930  177.1310  139.4780 C   0  0  0  0  0  1  0  0  0  0  0  0
  188.7540  177.7520  139.4120 O   0  0  0  0  0  0  0  0  0  0  0  0
  189.0770  178.5620  138.3080 C   0  0  0  0  0  2  0  0  0  0  0  0
  188.9250  177.8930  135.8850 C   0  0  0  0  0  1  0  0  0  0  0  0
  188.2840  178.1670  137.1580 N   0  0  0  0  0  0  0  0  0  0  0  0
  185.7160  177.8050  137.4180 C   0  0  0  0  0  3  0  0  0  0  0  0
  186.9050  177.9730  137.2980 C   0  0  0  0  0  0  0  0  0  0  0  0
  190.6950  177.6660  142.6160 C   0  0  0  0  0  2  0  0  0  0  0  0
  191.3810  176.3460  143.6740 S   0  0  0  0  0  0  0  0  0  0  0  0
  191.3990  177.4150  145.1400 C   0  0  0  0  0  2  0  0  0  0  0  0
  190.0340  178.0520  145.3280 C   0  0  0  0  0  2  0  0  0  0  0  0
  189.0280  177.0220  145.8120 C   0  0  0  0  0  2  0  0  0  0  0  0
  188.6920  177.2390  147.5840 S   0  0  0  0  0  0  0  0  0  0  0  0
  187.1910  178.2050  147.2630 C   0  0  0  0  0  2  0  0  0  0  0  0
  186.4510  177.6100  146.0850 C   0  0  0  0  0  2  0  0  0  0  0  0
  185.8620  178.7240  145.2470 C   0  0  0  0  0  2  0  0  0  0  0  0
  184.4810  178.3230  144.7730 C   0  0  0  0  0  2  0  0  0  0  0  0
  183.7520  179.5430  144.2530 C   0  0  0  0  0  1  0  0  0  0  0  0
  1  3  1  0  0  0  0
  1 15  1  1  0  0  0
  3  2  2  0  0  0  0
  4  3  1  0  0  0  0
  5  4  1  0  0  0  0
  6  7  1  6  0  0  0
  6  1  1  0  0  0  0
  8  7  1  0  0  0  0
  9  6  1  0  0  0  0
 10  9  1  0  0  0  0
 11 12  1  0  0  0  0
 12 14  1  0  0  0  0
 12 10  1  0  0  0  0
 14 13  3  0  0  0  0
 15 16  1  0  0  0  0
 16 17  1  0  0  0  0
 17 18  1  0  0  0  0
 18 19  1  0  0  0  0
 19 20  1  0  0  0  0
 21 20  1  0  0  0  0
 22 21  1  0  0  0  0
 23 22  1  0  0  0  0
 24 23  1  0  0  0  0
 25 24  1  0  0  0  0
M  END
>  <MODEL>
6

>  <REMARK>
 VINA RESULT:      -4.9      1.912      3.920
  Name = 
  18 active torsions:
  status: ('A' for Active; 'I' for Inactive)
    1  A    between atoms: C_1  and  C_3
    2  A    between atoms: C_1  and  C_18
    3  A    between atoms: C_1  and  C_24
    4  A    between atoms: C_2  and  C_7
    5  A    between atoms: C_2  and  C_25
    6  A    between atoms: C_3  and  S_16
    7  A    between atoms: O_4  and  C_18
    8  A    between atoms: O_4  and  C_19
    9  A    between atoms: S_6  and  C_15
   10  A    between atoms: S_6  and  C_21
   11  A    between atoms: N_10  and  C_11
   12  A    between atoms: N_10  and  C_19
   13  A    between atoms: O_13  and  C_24
   14  A    between atoms: C_15  and  C_20
   15  A    between atoms: S_16  and  C_23
   16  A    between atoms: C_17  and  C_18
   17  A    between atoms: C_20  and  C_23
   18  A    between atoms: C_21  and  C_25
                            x       y       z     vdW  Elec       q    Type
                         _______ _______ _______ _____ _____    ______ ____

>  <TORSDO>
F 18

$$$$
=
 OpenBabel11052412553D

 25 24  0  0  1  0  0  0  0  0999 V2000
  188.8310  176.9540  143.2080 C   0  0  1  0  0  3  0  0  0  0  0  0
  190.4380  175.2070  142.8550 O   0  0  0  0  0  0  0  0  0  0  0  0
  189.7900  176.1710  142.3610 C   0  0  0  0  0  0  0  0  0  0  0  0
  189.9800  176.5450  141.0310 O   0  0  0  0  0  0  0  0  0  0  0  0
  191.1330  177.2570  140.6100 C   0  0  0  0  0  1  0  0  0  0  0  0
  189.5350  177.7700  144.3110 C   0  0  1  0  0  3  0  0  0  0  0  0
  190.4400  178.8740  143.7560 C   0  0  0  0  0  2  0  0  0  0  0  0
  191.8730  178.6450  144.1950 C   0  0  0  0  0  1  0  0  0  0  0  0
  188.6500  178.2400  145.3120 O   0  0  0  0  0  0  0  0  0  0  0  0
  188.7630  177.4190  146.4490 C   0  0  0  0  0  2  0  0  0  0  0  0
  188.1790  177.9410  148.8430 C   0  0  0  0  0  1  0  0  0  0  0  0
  187.7910  177.8250  147.4490 N   0  0  0  0  0  0  0  0  0  0  0  0
  185.3800  178.4890  146.7160 C   0  0  0  0  0  3  0  0  0  0  0  0
  186.4960  178.1810  147.0550 C   0  0  0  0  0  0  0  0  0  0  0  0
  187.8940  177.7980  142.3410 C   0  0  0  0  0  2  0  0  0  0  0  0
  186.1990  177.8760  143.0110 S   0  0  0  0  0  0  0  0  0  0  0  0
  185.7820  179.3350  142.0160 C   0  0  0  0  0  2  0  0  0  0  0  0
  185.0540  178.9060  140.7560 C   0  0  0  0  0  2  0  0  0  0  0  0
  183.8340  178.0720  141.1040 C   0  0  0  0  0  2  0  0  0  0  0  0
  182.3570  178.7150  140.2630 S   0  0  0  0  0  0  0  0  0  0  0  0
  182.3890  177.3920  139.0220 C   0  0  0  0  0  2  0  0  0  0  0  0
  183.0550  177.8990  137.7610 C   0  0  0  0  0  2  0  0  0  0  0  0
  184.1350  176.9270  137.3380 C   0  0  0  0  0  2  0  0  0  0  0  0
  185.4750  177.6310  137.3380 C   0  0  0  0  0  2  0  0  0  0  0  0
  186.1640  177.4050  136.0100 C   0  0  0  0  0  1  0  0  0  0  0  0
  1 15  1  6  0  0  0
  1  6  1  0  0  0  0
  3  2  2  0  0  0  0
  3  1  1  0  0  0  0
  4  3  1  0  0  0  0
  5  4  1  0  0  0  0
  6  7  1  6  0  0  0
  6  9  1  0  0  0  0
  7  8  1  0  0  0  0
  9 10  1  0  0  0  0
 10 12  1  0  0  0  0
 12 11  1  0  0  0  0
 13 14  3  0  0  0  0
 14 12  1  0  0  0  0
 15 16  1  0  0  0  0
 17 16  1  0  0  0  0
 18 19  1  0  0  0  0
 18 17  1  0  0  0  0
 20 19  1  0  0  0  0
 21 20  1  0  0  0  0
 22 21  1  0  0  0  0
 23 22  1  0  0  0  0
 24 23  1  0  0  0  0
 25 24  1  0  0  0  0
M  END
>  <MODEL>
7

>  <REMARK>
 VINA RESULT:      -4.9      2.936      7.152
  Name = 
  18 active torsions:
  status: ('A' for Active; 'I' for Inactive)
    1  A    between atoms: C_1  and  C_3
    2  A    between atoms: C_1  and  C_18
    3  A    between atoms: C_1  and  C_24
    4  A    between atoms: C_2  and  C_7
    5  A    between atoms: C_2  and  C_25
    6  A    between atoms: C_3  and  S_16
    7  A    between atoms: O_4  and  C_18
    8  A    between atoms: O_4  and  C_19
    9  A    between atoms: S_6  and  C_15
   10  A    between atoms: S_6  and  C_21
   11  A    between atoms: N_10  and  C_11
   12  A    between atoms: N_10  and  C_19
   13  A    between atoms: O_13  and  C_24
   14  A    between atoms: C_15  and  C_20
   15  A    between atoms: S_16  and  C_23
   16  A    between atoms: C_17  and  C_18
   17  A    between atoms: C_20  and  C_23
   18  A    between atoms: C_21  and  C_25
                            x       y       z     vdW  Elec       q    Type
                         _______ _______ _______ _____ _____    ______ ____

>  <TORSDO>
F 18

$$$$
=
 OpenBabel11052412553D

 25 24  0  0  1  0  0  0  0  0999 V2000
  189.6590  177.4720  143.7160 C   0  0  1  0  0  3  0  0  0  0  0  0
  191.5130  176.0430  144.2450 O   0  0  0  0  0  0  0  0  0  0  0  0
  191.0970  177.2200  144.0580 C   0  0  0  0  0  0  0  0  0  0  0  0
  191.9590  178.3070  144.2000 O   0  0  0  0  0  0  0  0  0  0  0  0
  191.4990  179.6460  144.1080 C   0  0  0  0  0  1  0  0  0  0  0  0
  189.3080  177.0670  142.2690 C   0  0  1  0  0  3  0  0  0  0  0  0
  187.8600  177.3950  141.8890 C   0  0  0  0  0  2  0  0  0  0  0  0
  187.7810  178.7790  141.2770 C   0  0  0  0  0  1  0  0  0  0  0  0
  190.2430  177.5340  141.3140 O   0  0  0  0  0  0  0  0  0  0  0  0
  190.6400  176.4600  140.4960 C   0  0  0  0  0  2  0  0  0  0  0  0
  189.8080  177.7360  138.4890 C   0  0  0  0  0  1  0  0  0  0  0  0
  190.8250  176.9220  139.1310 N   0  0  0  0  0  0  0  0  0  0  0  0
  193.0530  176.4100  137.8810 C   0  0  0  0  0  3  0  0  0  0  0  0
  192.0210  176.6470  138.4600 C   0  0  0  0  0  0  0  0  0  0  0  0
  188.7270  176.8470  144.7570 C   0  0  0  0  0  2  0  0  0  0  0  0
  189.0010  177.5150  146.4330 S   0  0  0  0  0  0  0  0  0  0  0  0
  187.2770  178.0630  146.5860 C   0  0  0  0  0  2  0  0  0  0  0  0
  186.4670  177.5460  145.4120 C   0  0  0  0  0  2  0  0  0  0  0  0
  185.7480  178.6880  144.7180 C   0  0  0  0  0  2  0  0  0  0  0  0
  184.0060  178.7550  145.2320 S   0  0  0  0  0  0  0  0  0  0  0  0
  183.4340  179.0540  143.5370 C   0  0  0  0  0  2  0  0  0  0  0  0
  184.2940  178.2720  142.5680 C   0  0  0  0  0  2  0  0  0  0  0  0
  184.0160  178.7420  141.1570 C   0  0  0  0  0  2  0  0  0  0  0  0
  183.0630  177.7780  140.4820 C   0  0  0  0  0  2  0  0  0  0  0  0
  181.6870  178.4020  140.4020 C   0  0  0  0  0  1  0  0  0  0  0  0
  1  3  1  0  0  0  0
  1 15  1  1  0  0  0
  3  4  1  0  0  0  0
  3  2  2  0  0  0  0
  5  4  1  0  0  0  0
  6  7  1  6  0  0  0
  6  1  1  0  0  0  0
  8  7  1  0  0  0  0
  9  6  1  0  0  0  0
 10  9  1  0  0  0  0
 11 12  1  0  0  0  0
 12 10  1  0  0  0  0
 13 14  3  0  0  0  0
 14 12  1  0  0  0  0
 15 16  1  0  0  0  0
 16 17  1  0  0  0  0
 18 17  1  0  0  0  0
 19 20  1  0  0  0  0
 19 18  1  0  0  0  0
 21 20  1  0  0  0  0
 22 21  1  0  0  0  0
 23 22  1  0  0  0  0
 24 23  1  0  0  0  0
 25 24  1  0  0  0  0
M  END
>  <MODEL>
8

>  <REMARK>
 VINA RESULT:      -4.8      2.598      5.903
  Name = 
  18 active torsions:
  status: ('A' for Active; 'I' for Inactive)
    1  A    between atoms: C_1  and  C_3
    2  A    between atoms: C_1  and  C_18
    3  A    between atoms: C_1  and  C_24
    4  A    between atoms: C_2  and  C_7
    5  A    between atoms: C_2  and  C_25
    6  A    between atoms: C_3  and  S_16
    7  A    between atoms: O_4  and  C_18
    8  A    between atoms: O_4  and  C_19
    9  A    between atoms: S_6  and  C_15
   10  A    between atoms: S_6  and  C_21
   11  A    between atoms: N_10  and  C_11
   12  A    between atoms: N_10  and  C_19
   13  A    between atoms: O_13  and  C_24
   14  A    between atoms: C_15  and  C_20
   15  A    between atoms: S_16  and  C_23
   16  A    between atoms: C_17  and  C_18
   17  A    between atoms: C_20  and  C_23
   18  A    between atoms: C_21  and  C_25
                            x       y       z     vdW  Elec       q    Type
                         _______ _______ _______ _____ _____    ______ ____

>  <TORSDO>
F 18

$$$$
=
 OpenBabel11052412553D

 25 24  0  0  1  0  0  0  0  0999 V2000
  189.6730  177.0370  139.9300 C   0  0  1  0  0  3  0  0  0  0  0  0
  191.9550  177.5910  140.4260 O   0  0  0  0  0  0  0  0  0  0  0  0
  191.1410  177.0570  139.6220 C   0  0  0  0  0  0  0  0  0  0  0  0
  191.5880  176.5090  138.4200 O   0  0  0  0  0  0  0  0  0  0  0  0
  191.1350  175.2460  137.9580 C   0  0  0  0  0  1  0  0  0  0  0  0
  189.3550  177.5110  141.3630 C   0  0  1  0  0  3  0  0  0  0  0  0
  188.3830  178.6940  141.4010 C   0  0  0  0  0  2  0  0  0  0  0  0
  187.0690  178.2720  142.0280 C   0  0  0  0  0  1  0  0  0  0  0  0
  188.9700  176.4590  142.2300 O   0  0  0  0  0  0  0  0  0  0  0  0
  190.0570  176.1250  143.0590 C   0  0  0  0  0  2  0  0  0  0  0  0
  191.3790  177.8500  144.3320 C   0  0  0  0  0  1  0  0  0  0  0  0
  190.1610  177.0830  144.1450 N   0  0  0  0  0  0  0  0  0  0  0  0
  188.1010  177.5330  145.6760 C   0  0  0  0  0  3  0  0  0  0  0  0
  189.0550  177.3250  144.9670 C   0  0  0  0  0  0  0  0  0  0  0  0
  188.8750  177.7840  138.8590 C   0  0  0  0  0  2  0  0  0  0  0  0
  187.6670  176.7110  138.0090 S   0  0  0  0  0  0  0  0  0  0  0  0
  186.7130  178.1280  137.3980 C   0  0  0  0  0  2  0  0  0  0  0  0
  185.7930  178.6380  138.4920 C   0  0  0  0  0  2  0  0  0  0  0  0
  184.3510  178.2680  138.1890 C   0  0  0  0  0  2  0  0  0  0  0  0
  183.5890  177.4420  139.6180 S   0  0  0  0  0  0  0  0  0  0  0  0
  183.8420  178.8850  140.6880 C   0  0  0  0  0  2  0  0  0  0  0  0
  182.8510  178.8450  141.8310 C   0  0  0  0  0  2  0  0  0  0  0  0
  183.5280  178.2860  143.0640 C   0  0  0  0  0  2  0  0  0  0  0  0
  183.6020  179.3600  144.1290 C   0  0  0  0  0  2  0  0  0  0  0  0
  184.7680  179.0760  145.0510 C   0  0  0  0  0  1  0  0  0  0  0  0
  1 15  1  6  0  0  0
  1  6  1  0  0  0  0
  3  1  1  0  0  0  0
  3  2  2  0  0  0  0
  4  3  1  0  0  0  0
  5  4  1  0  0  0  0
  6  7  1  6  0  0  0
  6  9  1  0  0  0  0
  7  8  1  0  0  0  0
  9 10  1  0  0  0  0
 10 12  1  0  0  0  0
 12 11  1  0  0  0  0
 12 14  1  0  0  0  0
 14 13  3  0  0  0  0
 16 15  1  0  0  0  0
 17 16  1  0  0  0  0
 17 18  1  0  0  0  0
 19 18  1  0  0  0  0
 19 20  1  0  0  0  0
 20 21  1  0  0  0  0
 21 22  1  0  0  0  0
 22 23  1  0  0  0  0
 23 24  1  0  0  0  0
 24 25  1  0  0  0  0
M  END
>  <MODEL>
9

>  <REMARK>
 VINA RESULT:      -4.7      3.000      5.877
  Name = 
  18 active torsions:
  status: ('A' for Active; 'I' for Inactive)
    1  A    between atoms: C_1  and  C_3
    2  A    between atoms: C_1  and  C_18
    3  A    between atoms: C_1  and  C_24
    4  A    between atoms: C_2  and  C_7
    5  A    between atoms: C_2  and  C_25
    6  A    between atoms: C_3  and  S_16
    7  A    between atoms: O_4  and  C_18
    8  A    between atoms: O_4  and  C_19
    9  A    between atoms: S_6  and  C_15
   10  A    between atoms: S_6  and  C_21
   11  A    between atoms: N_10  and  C_11
   12  A    between atoms: N_10  and  C_19
   13  A    between atoms: O_13  and  C_24
   14  A    between atoms: C_15  and  C_20
   15  A    between atoms: S_16  and  C_23
   16  A    between atoms: C_17  and  C_18
   17  A    between atoms: C_20  and  C_23
   18  A    between atoms: C_21  and  C_25
                            x       y       z     vdW  Elec       q    Type
                         _______ _______ _______ _____ _____    ______ ____

>  <TORSDO>
F 18

$$$$
