=
 OpenBabel11052415383D

 34 40  0  0  0  0  0  0  0  0999 V2000
  187.5800  177.8920  145.0410 C   0  0  0  0  0  0  0  0  0  0  0  0
  183.9980  178.7870  145.5150 C   0  0  0  0  0  3  0  0  0  0  0  0
  185.7070  178.5540  147.0460 C   0  0  0  0  0  3  0  0  0  0  0  0
  190.0290  177.2490  144.7440 C   0  0  0  0  0  0  0  0  0  0  0  0
  188.6830  177.5180  144.0660 C   0  0  0  0  0  3  0  0  0  0  0  0
  189.0870  177.7280  146.8750 C   0  0  0  0  0  0  0  0  0  0  0  0
  189.0580  177.8860  148.3670 C   0  0  0  0  0  2  0  0  0  0  0  0
  190.1840  177.3460  146.0400 N   0  0  0  0  0  0  0  0  0  0  0  0
  187.0320  178.2770  147.3520 C   0  0  0  0  0  0  0  0  0  0  0  0
  187.9070  177.9640  146.3800 C   0  0  0  0  0  0  0  0  0  0  0  0
  187.6570  178.2560  148.6310 N   0  0  0  0  0  0  0  0  0  0  0  0
  183.1680  178.8470  144.3100 C   0  0  0  0  0  3  0  0  0  0  0  0
  183.4910  178.6350  143.0390 C   0  0  0  0  0  0  0  0  0  0  0  0
  184.8220  178.2760  142.5500 C   0  0  0  0  0  3  0  0  0  0  0  0
  185.2890  178.5050  145.6960 C   0  0  0  0  0  0  0  0  0  0  0  0
  185.9490  178.0870  143.2230 C   0  0  0  0  0  3  0  0  0  0  0  0
  186.2380  178.1700  144.6660 C   0  0  0  0  0  0  0  0  0  0  0  0
  182.4580  178.7630  142.0700 N   0  0  0  0  0  0  0  0  0  0  0  0
  181.0430  179.0120  141.6670 C   0  0  0  0  0  2  0  0  0  0  0  0
  181.9530  178.7510  140.6650 C   0  0  0  0  0  2  0  0  0  0  0  0
  191.1800  176.8110  143.9050 C   0  0  0  0  0  2  0  0  0  0  0  0
  191.6350  177.2670  140.1790 N   0  0  0  0  0  2  0  0  0  0  0  0
  189.5010  177.3350  142.0300 C   0  0  0  0  0  3  0  0  0  0  0  0
  188.6760  178.0770  138.0520 N   0  0  0  0  0  0  0  0  0  0  0  0
  188.3890  178.3380  136.6720 C   0  0  0  0  0  0  0  0  0  0  0  0
  190.0270  177.7910  138.4660 C   0  0  0  0  0  3  0  0  0  0  0  0
  187.0900  178.6260  136.2680 O   0  0  0  0  0  1  0  0  0  0  0  0
  190.3020  177.5490  139.7480 C   0  0  0  0  0  0  0  0  0  0  0  0
  189.3090  178.3080  135.8110 O   0  0  0  0  0  0  0  0  0  0  0  0
  187.8460  177.8680  140.3120 C   0  0  0  0  0  3  0  0  0  0  0  0
  189.2180  177.5750  140.7470 C   0  0  0  0  0  0  0  0  0  0  0  0
  187.6080  178.1050  139.0190 C   0  0  0  0  0  3  0  0  0  0  0  0
  190.8890  177.0430  142.4610 C   0  0  0  0  0  0  0  0  0  0  0  0
  191.8890  177.0190  141.5690 C   0  0  0  0  0  3  0  0  0  0  0  0
  1 10  1  0  0  0  0
  2 15  1  0  0  0  0
  3  9  1  0  0  0  0
  4  8  2  0  0  0  0
  5  4  1  0  0  0  0
  5  1  2  0  0  0  0
  6  7  1  0  0  0  0
  7 11  1  0  0  0  0
  8  6  1  0  0  0  0
  9 11  2  0  0  0  0
 10  6  2  0  0  0  0
 10  9  1  0  0  0  0
 12  2  2  0  0  0  0
 13 12  1  0  0  0  0
 14 13  2  0  0  0  0
 14 16  1  0  0  0  0
 15  3  2  0  0  0  0
 16 17  2  0  0  0  0
 17  1  1  0  0  0  0
 17 15  1  0  0  0  0
 18 13  1  0  0  0  0
 19 18  1  0  0  0  0
 20 19  1  0  0  0  0
 20 18  1  0  0  0  0
 21  4  1  0  0  0  0
 22 34  1  0  0  0  0
 23 33  1  0  0  0  0
 24 26  1  0  0  0  0
 24 32  1  0  0  0  0
 25 24  1  0  0  0  0
 26 28  2  0  0  0  0
 27 25  1  0  0  0  0
 28 22  1  0  0  0  0
 28 31  1  0  0  0  0
 29 25  2  0  0  0  0
 30 31  1  0  0  0  0
 31 23  2  0  0  0  0
 32 30  2  0  0  0  0
 33 21  1  0  0  0  0
 34 33  2  0  0  0  0
M  END
>  <MODEL>
1

>  <REMARK>
 VINA RESULT:     -12.1      0.000      0.000
  Name = 
  3 active torsions:
  status: ('A' for Active; 'I' for Inactive)
    1  A    between atoms: N_3  and  C_25
    2  A    between atoms: C_8  and  C_18
    3  A    between atoms: C_18  and  C_30
                            x       y       z     vdW  Elec       q    Type
                         _______ _______ _______ _____ _____    ______ ____

>  <TORSDO>
F 3

$$$$
=
 OpenBabel11052415383D

 34 40  0  0  1  0  0  0  0  0999 V2000
  189.1590  177.5310  144.3240 C   0  0  0  0  0  0  0  0  0  0  0  0
  191.4570  177.1020  141.4280 C   0  0  0  0  0  3  0  0  0  0  0  0
  191.7960  176.7550  143.6830 C   0  0  0  0  0  3  0  0  0  0  0  0
  187.6130  177.8500  146.3260 C   0  0  0  0  0  0  0  0  0  0  0  0
  187.7750  177.9310  144.8070 C   0  0  0  0  0  3  0  0  0  0  0  0
  189.8530  177.0850  146.5560 C   0  0  0  0  0  0  0  0  0  0  0  0
  191.0880  176.6260  147.2750 C   0  0  0  0  0  2  0  0  0  0  0  0
  188.5890  177.4630  147.1090 N   0  0  0  0  0  0  0  0  0  0  0  0
  191.3380  176.7610  144.9930 C   0  0  0  0  0  0  0  0  0  0  0  0
  190.0780  177.1350  145.2750 C   0  0  0  0  0  0  0  0  0  0  0  0
  192.0500  176.4220  146.1780 N   0  0  0  0  0  0  0  0  0  0  0  0
  190.9160  177.4190  140.1040 C   0  0  0  0  0  3  0  0  0  0  0  0
  189.7060  177.8400  139.7550 C   0  0  0  0  0  0  0  0  0  0  0  0
  188.5960  178.0900  140.6730 C   0  0  0  0  0  3  0  0  0  0  0  0
  190.9150  177.1450  142.6460 C   0  0  0  0  0  0  0  0  0  0  0  0
  188.5430  177.9650  141.9930 C   0  0  0  0  0  3  0  0  0  0  0  0
  189.5690  177.5410  142.9640 C   0  0  0  0  0  0  0  0  0  0  0  0
  189.4670  178.0720  138.3720 N   0  0  0  0  0  0  0  0  0  0  0  0
  189.4290  177.6400  136.9440 C   0  0  0  0  0  2  0  0  0  0  0  0
  189.0580  178.9380  137.2270 C   0  0  0  0  0  2  0  0  0  0  0  0
  186.3200  178.2760  146.9340 C   0  0  0  0  0  2  0  0  0  0  0  0
  183.0350  179.0210  145.2180 N   0  0  0  0  0  0  0  0  0  0  0  0
  185.6450  178.2550  144.4540 C   0  0  0  0  0  3  0  0  0  0  0  0
  182.7940  178.7290  141.5040 N   0  0  0  0  0  0  0  0  0  0  0  0
  181.8050  178.8900  140.4800 C   0  0  0  0  0  0  0  0  0  0  0  0
  182.4460  178.9550  142.8840 C   0  0  0  0  0  3  0  0  0  0  0  0
  182.1310  178.6630  139.1470 O   0  0  0  0  0  0  0  0  0  0  0  0
  183.3610  178.8060  143.8430 C   0  0  0  0  0  0  0  0  0  0  0  0
  180.6300  179.2410  140.7750 O   0  0  0  0  0  1  0  0  0  0  0  0
  185.0770  178.1800  142.0770 C   0  0  0  0  0  3  0  0  0  0  0  0
  184.7350  178.4070  143.4880 C   0  0  2  0  0  3  0  0  0  0  0  0
  184.1340  178.3390  141.1440 C   0  0  0  0  0  3  0  0  0  0  0  0
  185.2920  178.4840  145.8750 C   0  0  0  0  0  0  0  0  0  0  0  0
  184.0470  178.8430  146.2190 C   0  0  0  0  0  3  0  0  0  0  0  0
  1  5  2  0  0  0  0
  1 10  1  0  0  0  0
  2 15  1  0  0  0  0
  3  9  1  0  0  0  0
  4 21  1  0  0  0  0
  4  8  2  0  0  0  0
  5  4  1  0  0  0  0
  6  8  1  0  0  0  0
  6  7  1  0  0  0  0
  9 10  1  0  0  0  0
  9 11  2  0  0  0  0
 10  6  2  0  0  0  0
 11  7  1  0  0  0  0
 12  2  2  0  0  0  0
 13 12  1  0  0  0  0
 13 14  2  0  0  0  0
 14 16  1  0  0  0  0
 15 17  1  0  0  0  0
 15  3  2  0  0  0  0
 16 17  2  0  0  0  0
 17  1  1  0  0  0  0
 18 13  1  0  0  0  0
 19 20  1  0  0  0  0
 19 18  1  0  0  0  0
 20 18  1  0  0  0  0
 22 34  2  0  0  0  0
 23 33  2  0  0  0  0
 24 26  1  0  0  0  0
 25 29  1  0  0  0  0
 25 24  1  0  0  0  0
 26 28  2  0  0  0  0
 27 25  2  0  0  0  0
 28 22  1  0  0  0  0
 31 30  1  1  0  0  0
 31 28  1  0  0  0  0
 31 23  1  0  0  0  0
 32 24  1  0  0  0  0
 32 30  2  0  0  0  0
 33 34  1  0  0  0  0
 33 21  1  0  0  0  0
M  END
>  <MODEL>
2

>  <REMARK>
 VINA RESULT:     -12.1      2.009      6.363
  Name = 
  3 active torsions:
  status: ('A' for Active; 'I' for Inactive)
    1  A    between atoms: N_3  and  C_25
    2  A    between atoms: C_8  and  C_18
    3  A    between atoms: C_18  and  C_30
                            x       y       z     vdW  Elec       q    Type
                         _______ _______ _______ _____ _____    ______ ____

>  <TORSDO>
F 3

$$$$
=
 OpenBabel11052415383D

 34 40  0  0  0  0  0  0  0  0999 V2000
  186.2650  178.1380  143.7500 C   0  0  0  0  0  0  0  0  0  0  0  0
  187.5140  177.5700  147.2100 C   0  0  0  0  0  3  0  0  0  0  0  0
  185.4660  178.3130  146.4510 C   0  0  0  0  0  3  0  0  0  0  0  0
  185.3990  178.5660  141.3910 C   0  0  0  0  0  0  0  0  0  0  0  0
  186.5670  178.0980  142.2610 C   0  0  0  0  0  2  0  0  0  0  0  0
  184.0630  178.9340  143.3240 C   0  0  0  0  0  0  0  0  0  0  0  0
  182.8480  179.3410  144.1050 C   0  0  0  0  0  3  0  0  0  0  0  0
  184.2600  178.9520  141.9070 N   0  0  0  0  0  0  0  0  0  0  0  0
  184.6060  178.6510  145.4160 C   0  0  0  0  0  0  0  0  0  0  0  0
  185.0090  178.5600  144.1360 C   0  0  0  0  0  0  0  0  0  0  0  0
  183.2680  179.1290  145.5000 N   0  0  0  0  0  0  0  0  0  0  0  0
  188.8900  177.0880  147.3430 C   0  0  0  0  0  3  0  0  0  0  0  0
  189.7910  176.8060  146.4090 C   0  0  0  0  0  0  0  0  0  0  0  0
  189.5830  176.9250  144.9660 C   0  0  0  0  0  3  0  0  0  0  0  0
  186.7730  177.8670  146.1410 C   0  0  0  0  0  0  0  0  0  0  0  0
  188.5100  177.3230  144.2950 C   0  0  0  0  0  3  0  0  0  0  0  0
  187.1880  177.7740  144.7670 C   0  0  0  0  0  0  0  0  0  0  0  0
  191.0670  176.3530  146.8440 N   0  0  0  0  0  0  0  0  0  0  0  0
  192.1770  176.2750  147.8380 C   0  0  0  0  0  2  0  0  0  0  0  0
  192.3330  175.5860  146.6540 C   0  0  0  0  0  2  0  0  0  0  0  0
  185.5880  178.6340  139.9130 C   0  0  0  0  0  2  0  0  0  0  0  0
  188.5930  177.4730  137.9340 N   0  0  0  0  0  2  0  0  0  0  0  0
  188.0440  178.2800  140.5860 C   0  0  0  0  0  3  0  0  0  0  0  0
  191.9000  177.1500  139.6350 N   0  0  0  0  0  0  0  0  0  0  0  0
  193.2380  176.7550  139.3070 C   0  0  0  0  0  0  0  0  0  0  0  0
  190.8730  177.1280  138.6240 C   0  0  0  0  0  3  0  0  0  0  0  0
  194.2310  176.7640  140.2800 O   0  0  0  0  0  1  0  0  0  0  0  0
  189.6260  177.4920  138.9220 C   0  0  0  0  0  0  0  0  0  0  0  0
  193.5300  176.3970  138.1340 O   0  0  0  0  0  0  0  0  0  0  0  0
  190.3520  177.9380  141.3150 C   0  0  0  0  0  3  0  0  0  0  0  0
  189.2960  177.9200  140.2930 C   0  0  0  0  0  0  0  0  0  0  0  0
  191.5910  177.5660  140.9800 C   0  0  0  0  0  3  0  0  0  0  0  0
  186.9840  178.2560  139.5500 C   0  0  0  0  0  0  0  0  0  0  0  0
  187.2620  177.8670  138.2980 C   0  0  0  0  0  3  0  0  0  0  0  0
  1 10  1  0  0  0  0
  1 17  2  0  0  0  0
  2 12  1  0  0  0  0
  4  8  2  0  0  0  0
  4  5  1  0  0  0  0
  5  1  1  0  0  0  0
  6  7  1  0  0  0  0
  6 10  2  0  0  0  0
  7 11  2  0  0  0  0
  8  6  1  0  0  0  0
  9 11  1  0  0  0  0
  9  3  2  0  0  0  0
 10  9  1  0  0  0  0
 13 18  1  0  0  0  0
 13 12  2  0  0  0  0
 14 13  1  0  0  0  0
 15  3  1  0  0  0  0
 15  2  2  0  0  0  0
 16 17  1  0  0  0  0
 16 14  2  0  0  0  0
 17 15  1  0  0  0  0
 18 19  1  0  0  0  0
 20 18  1  0  0  0  0
 20 19  1  0  0  0  0
 21  4  1  0  0  0  0
 22 34  1  0  0  0  0
 22 28  1  0  0  0  0
 24 32  1  0  0  0  0
 25 24  1  0  0  0  0
 25 27  1  0  0  0  0
 26 28  2  0  0  0  0
 26 24  1  0  0  0  0
 28 31  1  0  0  0  0
 29 25  2  0  0  0  0
 31 23  2  0  0  0  0
 31 30  1  0  0  0  0
 32 30  2  0  0  0  0
 33 21  1  0  0  0  0
 33 23  1  0  0  0  0
 34 33  2  0  0  0  0
M  END
>  <MODEL>
3

>  <REMARK>
 VINA RESULT:     -12.0      2.087      5.789
  Name = 
  3 active torsions:
  status: ('A' for Active; 'I' for Inactive)
    1  A    between atoms: N_3  and  C_25
    2  A    between atoms: C_8  and  C_18
    3  A    between atoms: C_18  and  C_30
                            x       y       z     vdW  Elec       q    Type
                         _______ _______ _______ _____ _____    ______ ____

>  <TORSDO>
F 3

$$$$
=
 OpenBabel11052415383D

 34 40  0  0  0  0  0  0  0  0999 V2000
  188.9020  177.6770  143.7640 C   0  0  0  0  0  0  0  0  0  0  0  0
  185.8790  177.9140  145.9220 C   0  0  0  0  0  3  0  0  0  0  0  0
  188.0760  177.4560  146.4540 C   0  0  0  0  0  3  0  0  0  0  0  0
  190.9810  177.4760  142.3020 C   0  0  0  0  0  0  0  0  0  0  0  0
  189.4790  177.7590  142.3610 C   0  0  0  0  0  3  0  0  0  0  0  0
  191.0470  177.1660  144.6590 C   0  0  0  0  0  0  0  0  0  0  0  0
  191.6610  176.8630  145.9940 C   0  0  0  0  0  2  0  0  0  0  0  0
  191.6780  177.1990  143.3750 N   0  0  0  0  0  0  0  0  0  0  0  0
  189.4010  177.2740  146.0830 C   0  0  0  0  0  0  0  0  0  0  0  0
  189.7720  177.3850  144.7950 C   0  0  0  0  0  0  0  0  0  0  0  0
  190.5120  176.9510  146.9120 N   0  0  0  0  0  0  0  0  0  0  0  0
  184.6140  178.2240  145.2520 C   0  0  0  0  0  3  0  0  0  0  0  0
  184.3590  178.4480  143.9680 C   0  0  0  0  0  0  0  0  0  0  0  0
  185.3480  178.4290  142.8910 C   0  0  0  0  0  3  0  0  0  0  0  0
  187.1200  177.7610  145.4560 C   0  0  0  0  0  0  0  0  0  0  0  0
  186.6530  178.1950  142.9430 C   0  0  0  0  0  3  0  0  0  0  0  0
  187.5330  177.8770  144.0830 C   0  0  0  0  0  0  0  0  0  0  0  0
  183.0120  178.7260  143.6050 N   0  0  0  0  0  0  0  0  0  0  0  0
  181.9370  178.9840  142.6030 C   0  0  0  0  0  2  0  0  0  0  0  0
  181.5810  178.9870  143.9350 C   0  0  0  0  0  2  0  0  0  0  0  0
  191.6580  177.4640  140.9730 C   0  0  0  0  0  2  0  0  0  0  0  0
  190.1390  175.5600  138.0810 N   0  0  0  0  0  2  0  0  0  0  0  0
  189.4390  177.7610  139.7090 C   0  0  0  0  0  3  0  0  0  0  0  0
  186.8320  176.6250  136.7150 N   0  0  0  0  0  0  0  0  0  0  0  0
  185.9280  176.2330  135.6730 C   0  0  0  0  0  0  0  0  0  0  0  0
  188.0640  175.9020  136.9090 C   0  0  0  0  0  3  0  0  0  0  0  0
  184.7440  176.9330  135.4730 O   0  0  0  0  0  1  0  0  0  0  0  0
  188.9100  176.2620  137.8740 C   0  0  0  0  0  0  0  0  0  0  0  0
  186.1960  175.2510  134.9300 O   0  0  0  0  0  0  0  0  0  0  0  0
  187.3260  178.1330  138.5370 C   0  0  0  0  0  3  0  0  0  0  0  0
  188.5850  177.4050  138.7460 C   0  0  0  0  0  0  0  0  0  0  0  0
  186.5020  177.7440  137.5600 C   0  0  0  0  0  3  0  0  0  0  0  0
  190.7080  177.0230  139.9110 C   0  0  0  0  0  0  0  0  0  0  0  0
  191.0260  175.9840  139.1270 C   0  0  0  0  0  3  0  0  0  0  0  0
  1 17  1  0  0  0  0
  1 10  1  0  0  0  0
  4  5  1  0  0  0  0
  4  8  2  0  0  0  0
  5  1  2  0  0  0  0
  6 10  2  0  0  0  0
  6  7  1  0  0  0  0
  7 11  1  0  0  0  0
  8  6  1  0  0  0  0
  9  3  1  0  0  0  0
  9 11  2  0  0  0  0
 10  9  1  0  0  0  0
 12  2  2  0  0  0  0
 13 12  1  0  0  0  0
 14 16  1  0  0  0  0
 14 13  2  0  0  0  0
 15  2  1  0  0  0  0
 15  3  2  0  0  0  0
 16 17  2  0  0  0  0
 17 15  1  0  0  0  0
 18 20  1  0  0  0  0
 18 13  1  0  0  0  0
 19 18  1  0  0  0  0
 19 20  1  0  0  0  0
 21  4  1  0  0  0  0
 22 34  1  0  0  0  0
 23 33  1  0  0  0  0
 24 26  1  0  0  0  0
 24 32  1  0  0  0  0
 25 24  1  0  0  0  0
 26 28  2  0  0  0  0
 27 25  1  0  0  0  0
 28 22  1  0  0  0  0
 28 31  1  0  0  0  0
 29 25  2  0  0  0  0
 30 31  1  0  0  0  0
 31 23  2  0  0  0  0
 32 30  2  0  0  0  0
 33 21  1  0  0  0  0
 34 33  2  0  0  0  0
M  END
>  <MODEL>
4

>  <REMARK>
 VINA RESULT:     -11.9      1.721      2.583
  Name = 
  3 active torsions:
  status: ('A' for Active; 'I' for Inactive)
    1  A    between atoms: N_3  and  C_25
    2  A    between atoms: C_8  and  C_18
    3  A    between atoms: C_18  and  C_30
                            x       y       z     vdW  Elec       q    Type
                         _______ _______ _______ _____ _____    ______ ____

>  <TORSDO>
F 3

$$$$
=
 OpenBabel11052415383D

 34 40  0  0  1  0  0  0  0  0999 V2000
  186.5700  178.1460  143.9300 C   0  0  0  0  0  0  0  0  0  0  0  0
  187.6130  177.5830  147.4580 C   0  0  0  0  0  3  0  0  0  0  0  0
  185.6060  178.3020  146.5780 C   0  0  0  0  0  3  0  0  0  0  0  0
  185.8440  178.5700  141.5230 C   0  0  0  0  0  0  0  0  0  0  0  0
  186.9620  178.1140  142.4620 C   0  0  0  0  0  2  0  0  0  0  0  0
  184.3880  178.9150  143.3720 C   0  0  0  0  0  0  0  0  0  0  0  0
  183.1220  179.3040  144.0790 C   0  0  0  0  0  3  0  0  0  0  0  0
  184.6700  178.9400  141.9700 N   0  0  0  0  0  0  0  0  0  0  0  0
  184.8060  178.6330  145.4930 C   0  0  0  0  0  0  0  0  0  0  0  0
  185.2870  178.5500  144.2400 C   0  0  0  0  0  0  0  0  0  0  0  0
  183.4600  179.0930  145.4970 N   0  0  0  0  0  0  0  0  0  0  0  0
  188.9850  177.1190  147.6740 C   0  0  0  0  0  3  0  0  0  0  0  0
  189.9450  176.8520  146.7950 C   0  0  0  0  0  0  0  0  0  0  0  0
  189.8240  176.9720  145.3430 C   0  0  0  0  0  3  0  0  0  0  0  0
  186.9350  177.8740  146.3470 C   0  0  0  0  0  0  0  0  0  0  0  0
  188.7880  177.3590  144.6080 C   0  0  0  0  0  3  0  0  0  0  0  0
  187.4340  177.7900  145.0000 C   0  0  0  0  0  0  0  0  0  0  0  0
  191.1980  176.4130  147.3060 N   0  0  0  0  0  0  0  0  0  0  0  0
  192.3280  176.4790  148.2780 C   0  0  0  0  0  2  0  0  0  0  0  0
  192.4000  175.5290  147.2810 C   0  0  0  0  0  2  0  0  0  0  0  0
  186.1210  178.6450  140.0600 C   0  0  0  0  0  2  0  0  0  0  0  0
  189.8030  177.8760  140.4410 N   0  0  0  0  0  0  0  0  0  0  0  0
  187.8300  177.6230  138.4340 C   0  0  0  0  0  3  0  0  0  0  0  0
  191.6800  176.4080  137.5680 N   0  0  0  0  0  0  0  0  0  0  0  0
  193.0170  175.9890  137.2640 C   0  0  0  0  0  0  0  0  0  0  0  0
  191.3710  176.9440  138.8690 C   0  0  0  0  0  3  0  0  0  0  0  0
  193.3250  175.4800  136.0080 O   0  0  0  0  0  0  0  0  0  0  0  0
  190.1300  177.3380  139.1580 C   0  0  0  0  0  0  0  0  0  0  0  0
  193.9260  176.0740  138.1330 O   0  0  0  0  0  1  0  0  0  0  0  0
  189.3990  176.6750  136.8170 C   0  0  0  0  0  3  0  0  0  0  0  0
  189.0700  177.2240  138.1390 C   0  0  2  0  0  3  0  0  0  0  0  0
  190.6530  176.2900  136.5640 C   0  0  0  0  0  3  0  0  0  0  0  0
  187.5070  178.1780  139.7700 C   0  0  0  0  0  0  0  0  0  0  0  0
  188.4570  178.2940  140.7080 C   0  0  0  0  0  3  0  0  0  0  0  0
  1 10  1  0  0  0  0
  1 17  2  0  0  0  0
  2 12  1  0  0  0  0
  4  8  2  0  0  0  0
  4  5  1  0  0  0  0
  5  1  1  0  0  0  0
  6  7  1  0  0  0  0
  6 10  2  0  0  0  0
  7 11  2  0  0  0  0
  8  6  1  0  0  0  0
  9 11  1  0  0  0  0
  9  3  2  0  0  0  0
 10  9  1  0  0  0  0
 13 18  1  0  0  0  0
 13 12  2  0  0  0  0
 14 13  1  0  0  0  0
 15  3  1  0  0  0  0
 15  2  2  0  0  0  0
 16 17  1  0  0  0  0
 16 14  2  0  0  0  0
 17 15  1  0  0  0  0
 18 19  1  0  0  0  0
 20 18  1  0  0  0  0
 20 19  1  0  0  0  0
 21  4  1  0  0  0  0
 22 34  2  0  0  0  0
 23 33  2  0  0  0  0
 24 26  1  0  0  0  0
 25 24  1  0  0  0  0
 25 29  1  0  0  0  0
 26 28  2  0  0  0  0
 27 25  2  0  0  0  0
 28 22  1  0  0  0  0
 31 30  1  6  0  0  0
 31 23  1  0  0  0  0
 31 28  1  0  0  0  0
 32 30  2  0  0  0  0
 32 24  1  0  0  0  0
 33 21  1  0  0  0  0
 33 34  1  0  0  0  0
M  END
>  <MODEL>
5

>  <REMARK>
 VINA RESULT:     -11.8      2.269      5.727
  Name = 
  3 active torsions:
  status: ('A' for Active; 'I' for Inactive)
    1  A    between atoms: N_3  and  C_25
    2  A    between atoms: C_8  and  C_18
    3  A    between atoms: C_18  and  C_30
                            x       y       z     vdW  Elec       q    Type
                         _______ _______ _______ _____ _____    ______ ____

>  <TORSDO>
F 3

$$$$
=
 OpenBabel11052415383D

 34 40  0  0  0  0  0  0  0  0999 V2000
  185.4530  178.3890  142.6960 C   0  0  0  0  0  0  0  0  0  0  0  0
  186.5410  177.8150  146.2090 C   0  0  0  0  0  3  0  0  0  0  0  0
  184.4710  178.3460  145.3410 C   0  0  0  0  0  3  0  0  0  0  0  0
  184.6920  178.8200  140.3010 C   0  0  0  0  0  0  0  0  0  0  0  0
  185.8500  178.4530  141.2300 C   0  0  0  0  0  2  0  0  0  0  0  0
  183.2030  178.9400  142.1510 C   0  0  0  0  0  0  0  0  0  0  0  0
  181.9010  179.1660  142.8630 C   0  0  0  0  0  3  0  0  0  0  0  0
  183.4840  179.0460  140.7530 N   0  0  0  0  0  0  0  0  0  0  0  0
  183.6430  178.6280  144.2640 C   0  0  0  0  0  0  0  0  0  0  0  0
  184.1330  178.6430  143.0110 C   0  0  0  0  0  0  0  0  0  0  0  0
  182.2550  178.9410  144.2750 N   0  0  0  0  0  0  0  0  0  0  0  0
  187.9550  177.4920  146.4160 C   0  0  0  0  0  3  0  0  0  0  0  0
  188.9390  177.3610  145.5350 C   0  0  0  0  0  0  0  0  0  0  0  0
  188.8100  177.5200  144.0870 C   0  0  0  0  0  3  0  0  0  0  0  0
  185.8380  178.0710  145.1040 C   0  0  0  0  0  0  0  0  0  0  0  0
  187.7410  177.8200  143.3600 C   0  0  0  0  0  3  0  0  0  0  0  0
  186.3470  178.0900  143.7580 C   0  0  0  0  0  0  0  0  0  0  0  0
  190.2310  177.0410  146.0380 N   0  0  0  0  0  0  0  0  0  0  0  0
  191.1860  176.7530  147.1480 C   0  0  0  0  0  2  0  0  0  0  0  0
  191.6810  176.7350  145.8600 C   0  0  0  0  0  2  0  0  0  0  0  0
  184.9640  178.9770  138.8430 C   0  0  0  0  0  2  0  0  0  0  0  0
  186.8070  176.1190  137.1910 N   0  0  0  0  0  2  0  0  0  0  0  0
  187.4290  178.2530  138.9350 C   0  0  0  0  0  3  0  0  0  0  0  0
  190.4530  175.6610  137.8460 N   0  0  0  0  0  0  0  0  0  0  0  0
  191.5030  174.7590  137.4720 C   0  0  0  0  0  0  0  0  0  0  0  0
  189.1190  175.4650  137.3370 C   0  0  0  0  0  3  0  0  0  0  0  0
  192.7900  174.9360  137.9680 O   0  0  0  0  0  1  0  0  0  0  0  0
  188.1370  176.2980  137.6820 C   0  0  0  0  0  0  0  0  0  0  0  0
  191.2720  173.8000  136.6880 O   0  0  0  0  0  0  0  0  0  0  0  0
  189.7820  177.6130  139.1030 C   0  0  0  0  0  3  0  0  0  0  0  0
  188.4180  177.4250  138.5910 C   0  0  0  0  0  0  0  0  0  0  0  0
  190.7410  176.7580  138.7350 C   0  0  0  0  0  3  0  0  0  0  0  0
  186.0550  178.0550  138.4160 C   0  0  0  0  0  0  0  0  0  0  0  0
  185.7770  177.0340  137.5930 C   0  0  0  0  0  3  0  0  0  0  0  0
  1 10  1  0  0  0  0
  1 17  2  0  0  0  0
  2 12  1  0  0  0  0
  4  8  2  0  0  0  0
  4  5  1  0  0  0  0
  5  1  1  0  0  0  0
  6  7  1  0  0  0  0
  6 10  2  0  0  0  0
  7 11  2  0  0  0  0
  8  6  1  0  0  0  0
  9 11  1  0  0  0  0
  9  3  2  0  0  0  0
 10  9  1  0  0  0  0
 13 18  1  0  0  0  0
 13 12  2  0  0  0  0
 14 13  1  0  0  0  0
 15  3  1  0  0  0  0
 15  2  2  0  0  0  0
 16 17  1  0  0  0  0
 16 14  2  0  0  0  0
 17 15  1  0  0  0  0
 18 19  1  0  0  0  0
 20 18  1  0  0  0  0
 20 19  1  0  0  0  0
 21  4  1  0  0  0  0
 22 34  1  0  0  0  0
 22 28  1  0  0  0  0
 24 32  1  0  0  0  0
 25 24  1  0  0  0  0
 25 27  1  0  0  0  0
 26 28  2  0  0  0  0
 26 24  1  0  0  0  0
 28 31  1  0  0  0  0
 29 25  2  0  0  0  0
 31 23  2  0  0  0  0
 31 30  1  0  0  0  0
 32 30  2  0  0  0  0
 33 21  1  0  0  0  0
 33 23  1  0  0  0  0
 34 33  2  0  0  0  0
M  END
>  <MODEL>
6

>  <REMARK>
 VINA RESULT:     -11.7      2.180      5.927
  Name = 
  3 active torsions:
  status: ('A' for Active; 'I' for Inactive)
    1  A    between atoms: N_3  and  C_25
    2  A    between atoms: C_8  and  C_18
    3  A    between atoms: C_18  and  C_30
                            x       y       z     vdW  Elec       q    Type
                         _______ _______ _______ _____ _____    ______ ____

>  <TORSDO>
F 3

$$$$
=
 OpenBabel11052415383D

 34 40  0  0  1  0  0  0  0  0999 V2000
  187.5450  177.8580  144.8910 C   0  0  0  0  0  0  0  0  0  0  0  0
  190.8690  176.8950  143.5200 C   0  0  0  0  0  3  0  0  0  0  0  0
  190.1590  177.1640  145.6980 C   0  0  0  0  0  3  0  0  0  0  0  0
  185.2870  178.5470  145.8520 C   0  0  0  0  0  0  0  0  0  0  0  0
  186.1080  178.2510  144.5950 C   0  0  0  0  0  3  0  0  0  0  0  0
  187.1610  178.0550  147.2310 C   0  0  0  0  0  0  0  0  0  0  0  0
  187.9300  177.9000  148.5100 C   0  0  0  0  0  2  0  0  0  0  0  0
  185.7990  178.4560  147.0530 N   0  0  0  0  0  0  0  0  0  0  0  0
  189.1700  177.4680  146.6220 C   0  0  0  0  0  0  0  0  0  0  0  0
  187.9310  177.7950  146.2150 C   0  0  0  0  0  0  0  0  0  0  0  0
  189.2690  177.5030  148.0420 N   0  0  0  0  0  0  0  0  0  0  0  0
  190.9830  176.8170  142.0610 C   0  0  0  0  0  3  0  0  0  0  0  0
  190.0710  177.0330  141.1210 C   0  0  0  0  0  0  0  0  0  0  0  0
  188.6800  177.4160  141.3580 C   0  0  0  0  0  3  0  0  0  0  0  0
  189.8460  177.2020  144.3190 C   0  0  0  0  0  0  0  0  0  0  0  0
  188.0430  177.6280  142.5030 C   0  0  0  0  0  3  0  0  0  0  0  0
  188.5150  177.5530  143.8980 C   0  0  0  0  0  0  0  0  0  0  0  0
  190.4780  176.8830  139.7660 N   0  0  0  0  0  0  0  0  0  0  0  0
  191.4050  176.3810  138.7090 C   0  0  0  0  0  2  0  0  0  0  0  0
  190.3070  177.1080  138.3010 C   0  0  0  0  0  2  0  0  0  0  0  0
  183.8770  179.0060  145.6960 C   0  0  0  0  0  2  0  0  0  0  0  0
  181.7010  178.6270  142.6270 N   0  0  0  0  0  0  0  0  0  0  0  0
  184.4610  178.8290  143.1990 C   0  0  0  0  0  3  0  0  0  0  0  0
  183.2970  178.3830  139.2620 N   0  0  0  0  0  0  0  0  0  0  0  0
  182.8950  178.2240  137.8950 C   0  0  0  0  0  0  0  0  0  0  0  0
  182.3030  178.4340  140.3050 C   0  0  0  0  0  3  0  0  0  0  0  0
  183.8480  178.1640  136.8860 O   0  0  0  0  0  0  0  0  0  0  0  0
  182.6710  178.5790  141.5780 C   0  0  0  0  0  0  0  0  0  0  0  0
  181.6730  178.1410  137.5940 O   0  0  0  0  0  1  0  0  0  0  0  0
  185.1030  178.6350  140.8480 C   0  0  0  0  0  3  0  0  0  0  0  0
  184.1000  178.6880  141.9210 C   0  0  2  0  0  3  0  0  0  0  0  0
  184.6980  178.4890  139.5830 C   0  0  0  0  0  3  0  0  0  0  0  0
  183.4430  178.8790  144.2750 C   0  0  0  0  0  0  0  0  0  0  0  0
  182.1380  178.7770  143.9860 C   0  0  0  0  0  3  0  0  0  0  0  0
  1 10  1  0  0  0  0
  2 15  1  0  0  0  0
  3  9  1  0  0  0  0
  4  8  2  0  0  0  0
  5  1  2  0  0  0  0
  5  4  1  0  0  0  0
  6  7  1  0  0  0  0
  8  6  1  0  0  0  0
  9 11  2  0  0  0  0
 10  9  1  0  0  0  0
 10  6  2  0  0  0  0
 11  7  1  0  0  0  0
 12  2  2  0  0  0  0
 13 14  2  0  0  0  0
 13 12  1  0  0  0  0
 14 16  1  0  0  0  0
 15  3  2  0  0  0  0
 16 17  2  0  0  0  0
 17 15  1  0  0  0  0
 17  1  1  0  0  0  0
 18 13  1  0  0  0  0
 19 18  1  0  0  0  0
 20 19  1  0  0  0  0
 20 18  1  0  0  0  0
 21  4  1  0  0  0  0
 22 34  2  0  0  0  0
 23 33  2  0  0  0  0
 24 32  1  0  0  0  0
 24 26  1  0  0  0  0
 25 24  1  0  0  0  0
 26 28  2  0  0  0  0
 27 25  2  0  0  0  0
 28 31  1  0  0  0  0
 28 22  1  0  0  0  0
 29 25  1  0  0  0  0
 31 30  1  1  0  0  0
 31 23  1  0  0  0  0
 32 30  2  0  0  0  0
 33 21  1  0  0  0  0
 34 33  1  0  0  0  0
M  END
>  <MODEL>
7

>  <REMARK>
 VINA RESULT:     -11.6      1.722      6.097
  Name = 
  3 active torsions:
  status: ('A' for Active; 'I' for Inactive)
    1  A    between atoms: N_3  and  C_25
    2  A    between atoms: C_8  and  C_18
    3  A    between atoms: C_18  and  C_30
                            x       y       z     vdW  Elec       q    Type
                         _______ _______ _______ _____ _____    ______ ____

>  <TORSDO>
F 3

$$$$
=
 OpenBabel11052415383D

 34 40  0  0  0  0  0  0  0  0999 V2000
  188.1940  177.9410  142.7580 C   0  0  0  0  0  0  0  0  0  0  0  0
  188.0720  177.1000  146.3810 C   0  0  0  0  0  3  0  0  0  0  0  0
  186.3860  177.6360  144.9030 C   0  0  0  0  0  3  0  0  0  0  0  0
  188.2570  178.5520  140.2830 C   0  0  0  0  0  0  0  0  0  0  0  0
  189.0560  178.1430  141.5230 C   0  0  0  0  0  2  0  0  0  0  0  0
  186.2290  178.4630  141.5220 C   0  0  0  0  0  0  0  0  0  0  0  0
  184.7520  178.5840  141.7640 C   0  0  0  0  0  3  0  0  0  0  0  0
  186.9560  178.6990  140.3130 N   0  0  0  0  0  0  0  0  0  0  0  0
  185.9530  177.9840  143.6310 C   0  0  0  0  0  0  0  0  0  0  0  0
  186.8330  178.1230  142.6230 C   0  0  0  0  0  0  0  0  0  0  0  0
  184.6250  178.2500  143.1920 N   0  0  0  0  0  0  0  0  0  0  0  0
  189.3510  176.8060  147.0330 C   0  0  0  0  0  3  0  0  0  0  0  0
  190.5800  176.7840  146.5320 C   0  0  0  0  0  0  0  0  0  0  0  0
  190.9350  177.0630  145.1410 C   0  0  0  0  0  3  0  0  0  0  0  0
  187.7670  177.4280  145.1250 C   0  0  0  0  0  0  0  0  0  0  0  0
  190.1560  177.3900  144.1170 C   0  0  0  0  0  3  0  0  0  0  0  0
  188.6970  177.5790  144.0360 C   0  0  0  0  0  0  0  0  0  0  0  0
  191.6450  176.4630  147.4190 N   0  0  0  0  0  0  0  0  0  0  0  0
  192.4660  176.7000  148.6420 C   0  0  0  0  0  2  0  0  0  0  0  0
  192.8060  175.6280  147.8450 C   0  0  0  0  0  2  0  0  0  0  0  0
  188.9920  178.8430  139.0190 C   0  0  0  0  0  2  0  0  0  0  0  0
  189.3510  175.4040  137.4900 N   0  0  0  0  0  2  0  0  0  0  0  0
  191.0640  177.4210  138.4790 C   0  0  0  0  0  3  0  0  0  0  0  0
  192.7540  173.9350  137.0470 N   0  0  0  0  0  0  0  0  0  0  0  0
  193.3410  172.7240  136.5540 C   0  0  0  0  0  0  0  0  0  0  0  0
  191.3220  174.1000  137.0330 C   0  0  0  0  0  3  0  0  0  0  0  0
  194.7210  172.5550  136.5750 O   0  0  0  0  0  1  0  0  0  0  0  0
  190.7690  175.2230  137.4920 C   0  0  0  0  0  0  0  0  0  0  0  0
  192.6150  171.8020  136.0940 O   0  0  0  0  0  0  0  0  0  0  0  0
  193.0840  176.1200  138.0260 C   0  0  0  0  0  3  0  0  0  0  0  0
  191.6260  176.3010  138.0170 C   0  0  0  0  0  0  0  0  0  0  0  0
  193.6030  174.9810  137.5580 C   0  0  0  0  0  3  0  0  0  0  0  0
  189.5930  177.5940  138.4690 C   0  0  0  0  0  0  0  0  0  0  0  0
  188.7950  176.6250  137.9990 C   0  0  0  0  0  3  0  0  0  0  0  0
  1 17  2  0  0  0  0
  2 12  1  0  0  0  0
  3 15  1  0  0  0  0
  4  8  2  0  0  0  0
  4  5  1  0  0  0  0
  5  1  1  0  0  0  0
  6  7  1  0  0  0  0
  6 10  2  0  0  0  0
  7 11  2  0  0  0  0
  8  6  1  0  0  0  0
  9  3  2  0  0  0  0
 10  1  1  0  0  0  0
 10  9  1  0  0  0  0
 11  9  1  0  0  0  0
 13 12  2  0  0  0  0
 13 18  1  0  0  0  0
 14 13  1  0  0  0  0
 15  2  2  0  0  0  0
 16 14  2  0  0  0  0
 17 16  1  0  0  0  0
 17 15  1  0  0  0  0
 18 20  1  0  0  0  0
 18 19  1  0  0  0  0
 20 19  1  0  0  0  0
 21  4  1  0  0  0  0
 22 28  1  0  0  0  0
 22 34  1  0  0  0  0
 24 32  1  0  0  0  0
 25 27  1  0  0  0  0
 25 24  1  0  0  0  0
 26 24  1  0  0  0  0
 26 28  2  0  0  0  0
 28 31  1  0  0  0  0
 29 25  2  0  0  0  0
 31 30  1  0  0  0  0
 31 23  2  0  0  0  0
 32 30  2  0  0  0  0
 33 23  1  0  0  0  0
 33 21  1  0  0  0  0
 34 33  2  0  0  0  0
M  END
>  <MODEL>
8

>  <REMARK>
 VINA RESULT:     -11.5      3.094      6.472
  Name = 
  3 active torsions:
  status: ('A' for Active; 'I' for Inactive)
    1  A    between atoms: N_3  and  C_25
    2  A    between atoms: C_8  and  C_18
    3  A    between atoms: C_18  and  C_30
                            x       y       z     vdW  Elec       q    Type
                         _______ _______ _______ _____ _____    ______ ____

>  <TORSDO>
F 3

$$$$
=
 OpenBabel11052415383D

 34 40  0  0  1  0  0  0  0  0999 V2000
  184.0470  178.7300  141.9390 C   0  0  0  0  0  0  0  0  0  0  0  0
  184.7470  178.3680  138.3010 C   0  0  0  0  0  3  0  0  0  0  0  0
  182.7530  178.6100  139.4340 C   0  0  0  0  0  3  0  0  0  0  0  0
  183.5410  178.9460  144.4280 C   0  0  0  0  0  0  0  0  0  0  0  0
  184.6140  178.8020  143.3470 C   0  0  0  0  0  2  0  0  0  0  0  0
  181.8300  178.9510  142.7760 C   0  0  0  0  0  0  0  0  0  0  0  0
  180.4290  178.9940  142.2400 C   0  0  0  0  0  3  0  0  0  0  0  0
  182.2660  179.0050  144.1380 N   0  0  0  0  0  0  0  0  0  0  0  0
  182.0390  178.7630  140.6140 C   0  0  0  0  0  0  0  0  0  0  0  0
  182.6770  178.8190  141.7970 C   0  0  0  0  0  0  0  0  0  0  0  0
  180.6300  178.8660  140.7860 N   0  0  0  0  0  0  0  0  0  0  0  0
  186.1520  178.2290  137.9110 C   0  0  0  0  0  3  0  0  0  0  0  0
  187.2490  178.2170  138.6590 C   0  0  0  0  0  0  0  0  0  0  0  0
  187.2860  178.3480  140.1150 C   0  0  0  0  0  3  0  0  0  0  0  0
  184.1630  178.5140  139.4920 C   0  0  0  0  0  0  0  0  0  0  0  0
  186.2880  178.4960  140.9780 C   0  0  0  0  0  3  0  0  0  0  0  0
  184.8320  178.5760  140.7650 C   0  0  0  0  0  0  0  0  0  0  0  0
  188.4960  178.0620  137.9920 N   0  0  0  0  0  0  0  0  0  0  0  0
  189.4300  178.3120  136.8560 C   0  0  0  0  0  2  0  0  0  0  0  0
  189.8830  177.5200  137.8900 C   0  0  0  0  0  2  0  0  0  0  0  0
  183.9620  178.9650  145.8590 C   0  0  0  0  0  2  0  0  0  0  0  0
  187.4390  178.4370  147.2470 N   0  0  0  0  0  0  0  0  0  0  0  0
  186.0540  177.8590  144.8530 C   0  0  0  0  0  3  0  0  0  0  0  0
  190.0230  176.7590  145.1400 N   0  0  0  0  0  0  0  0  0  0  0  0
  191.4020  176.3790  145.2380 C   0  0  0  0  0  0  0  0  0  0  0  0
  189.3780  177.4200  146.2470 C   0  0  0  0  0  3  0  0  0  0  0  0
  192.0340  175.7510  144.1710 O   0  0  0  0  0  0  0  0  0  0  0  0
  188.0960  177.7770  146.1630 C   0  0  0  0  0  0  0  0  0  0  0  0
  192.0560  176.6090  146.2910 O   0  0  0  0  0  1  0  0  0  0  0  0
  188.0060  176.8200  143.8120 C   0  0  0  0  0  3  0  0  0  0  0  0
  187.3360  177.4950  144.9320 C   0  0  2  0  0  3  0  0  0  0  0  0
  189.2910  176.4760  143.9320 C   0  0  0  0  0  3  0  0  0  0  0  0
  185.3860  178.5420  145.9870 C   0  0  0  0  0  0  0  0  0  0  0  0
  186.0600  178.8120  147.1130 C   0  0  0  0  0  3  0  0  0  0  0  0
  1  5  1  0  0  0  0
  2 15  1  0  0  0  0
  3 15  2  0  0  0  0
  3  9  1  0  0  0  0
  4 21  1  0  0  0  0
  5  4  1  0  0  0  0
  6  8  1  0  0  0  0
  7  6  2  0  0  0  0
  8  4  2  0  0  0  0
  9 11  2  0  0  0  0
  9 10  1  0  0  0  0
 10  1  2  0  0  0  0
 10  6  1  0  0  0  0
 11  7  1  0  0  0  0
 12  2  2  0  0  0  0
 12 13  1  0  0  0  0
 13 14  2  0  0  0  0
 14 16  1  0  0  0  0
 15 17  1  0  0  0  0
 17 16  2  0  0  0  0
 17  1  1  0  0  0  0
 18 13  1  0  0  0  0
 19 20  1  0  0  0  0
 19 18  1  0  0  0  0
 20 18  1  0  0  0  0
 21 33  1  0  0  0  0
 23 31  1  0  0  0  0
 23 33  2  0  0  0  0
 24 25  1  0  0  0  0
 24 26  1  0  0  0  0
 25 29  1  0  0  0  0
 27 25  2  0  0  0  0
 28 26  2  0  0  0  0
 28 22  1  0  0  0  0
 30 32  2  0  0  0  0
 31 30  1  6  0  0  0
 31 28  1  0  0  0  0
 32 24  1  0  0  0  0
 33 34  1  0  0  0  0
 34 22  2  0  0  0  0
M  END
>  <MODEL>
9

>  <REMARK>
 VINA RESULT:     -11.4      2.760      7.391
  Name = 
  3 active torsions:
  status: ('A' for Active; 'I' for Inactive)
    1  A    between atoms: N_3  and  C_25
    2  A    between atoms: C_8  and  C_18
    3  A    between atoms: C_18  and  C_30
                            x       y       z     vdW  Elec       q    Type
                         _______ _______ _______ _____ _____    ______ ____

>  <TORSDO>
F 3

$$$$
