=
 OpenBabel11052415033D

 55 63  0  0  1  0  0  0  0  0999 V2000
  186.5810  174.3970  137.3040 C   0  0  0  0  0  2  0  0  0  0  0  0
  182.4750  176.4110  139.4140 C   0  0  0  0  0  2  0  0  0  0  0  0
  181.0230  175.3660  137.1170 O   0  0  0  0  0  0  0  0  0  0  0  0
  185.1620  179.5600  141.9590 O   0  0  0  0  0  0  0  0  0  0  0  0
  184.0890  179.4440  141.0510 C   0  0  2  0  0  3  0  0  0  0  0  0
  181.0650  173.6730  134.5960 C   0  0  0  0  0  2  0  0  0  0  0  0
  180.0770  172.6430  135.1360 C   0  0  0  0  0  2  0  0  0  0  0  0
  182.7160  171.7590  134.6940 C   0  0  1  0  0  3  0  0  0  0  0  0
  182.0830  171.0170  135.8860 C   0  0  0  0  0  2  0  0  0  0  0  0
  183.0730  175.4050  135.9370 C   0  0  0  0  0  2  0  0  0  0  0  0
  185.2220  178.3300  142.6380 C   0  0  2  0  0  0  0  0  0  0  0  0
  184.7930  177.2590  141.6510 C   0  0  0  0  0  2  0  0  0  0  0  0
  180.6820  171.8910  136.6790 S   0  0  0  0  0  0  0  0  0  0  0  0
  186.7920  176.5080  135.9690 C   0  0  0  0  0  3  0  0  0  0  0  0
  182.5430  173.2710  134.7250 C   0  0  2  0  0  3  0  0  0  0  0  0
  186.3300  178.0490  138.2590 C   0  0  0  0  0  0  0  0  0  0  0  0
  185.1530  173.8680  137.3250 C   0  0  0  0  0  2  0  0  0  0  0  0
  186.3510  176.6550  138.3500 C   0  0  0  0  0  3  0  0  0  0  0  0
  184.9640  172.0970  135.7840 C   0  0  2  0  0  3  0  0  0  0  0  0
  182.5360  177.5780  140.3890 C   0  0  0  0  0  2  0  0  0  0  0  0
  184.1950  171.4650  134.6130 C   0  0  0  0  0  2  0  0  0  0  0  0
  182.5670  176.9140  137.9810 C   0  0  0  0  0  2  0  0  0  0  0  0
  182.1430  175.8440  137.0270 C   0  0  0  0  0  0  0  0  0  0  0  0
  186.7670  177.9040  135.8790 C   0  0  0  0  0  3  0  0  0  0  0  0
  184.3200  178.3690  143.6910 F   0  0  0  0  0  0  0  0  0  0  0  0
  183.9770  178.0000  140.6210 C   0  0  1  0  0  0  0  0  0  0  0  0
  186.5830  175.8830  137.2060 C   0  0  0  0  0  0  0  0  0  0  0  0
  183.2590  173.8800  135.9470 C   0  0  1  0  0  3  0  0  0  0  0  0
  184.6990  173.5460  135.9730 N   0  0  1  0  0  0  0  0  0  0  0  0
  184.5530  179.0320  139.6530 C   0  0  2  0  0  3  0  0  0  0  0  0
  186.0620  178.8670  139.4740 C   0  0  0  0  0  2  0  0  0  0  0  0
  186.5330  178.6750  137.0230 C   0  0  0  0  0  3  0  0  0  0  0  0
  187.1770  172.7600  134.8120 C   0  0  0  0  0  3  0  0  0  0  0  0
  189.1700  171.4070  135.1210 C   0  0  0  0  0  0  0  0  0  0  0  0
  187.0530  170.7040  136.0820 C   0  0  0  0  0  3  0  0  0  0  0  0
  188.4180  170.4890  135.8680 C   0  0  0  0  0  3  0  0  0  0  0  0
  188.5410  172.5420  134.5950 C   0  0  0  0  0  3  0  0  0  0  0  0
  186.4270  171.8400  135.5510 C   0  0  0  0  0  0  0  0  0  0  0  0
  190.6020  171.1750  134.8800 C   0  0  0  0  0  0  0  0  0  0  0  0
  191.4180  172.1350  134.8940 O   0  0  0  0  0  1  0  0  0  0  0  0
  191.0700  169.8940  134.6190 O   0  0  0  0  0  0  0  0  0  0  0  0
  186.6710  178.0890  143.1450 C   0  0  2  0  0  0  0  0  0  0  0  0
  187.2830  179.3370  143.2850 O   0  0  0  0  0  1  0  0  0  0  0  0
  190.1000  177.0070  141.4130 C   0  0  0  0  0  2  0  0  0  0  0  0
  191.0340  177.5380  142.4840 C   0  0  2  0  0  3  0  0  0  0  0  0
  188.3440  176.2910  142.8060 O   0  0  0  0  0  0  0  0  0  0  0  0
  187.5520  177.2580  142.1640 C   0  0  2  0  0  3  0  0  0  0  0  0
  191.7910  176.5000  143.0280 O   0  0  0  0  0  1  0  0  0  0  0  0
  189.9100  177.9280  143.4470 C   0  0  0  0  0  0  0  0  0  0  0  0
  189.0290  177.4290  142.3410 C   0  0  2  0  0  0  0  0  0  0  0  0
  189.8000  178.4150  144.5600 O   0  0  0  0  0  0  0  0  0  0  0  0
  186.6050  177.4740  144.4380 O   0  0  0  0  0  0  0  0  0  0  0  0
  186.6800  178.1790  145.6470 C   0  0  0  0  0  0  0  0  0  0  0  0
  185.5810  179.1040  146.0180 C   0  0  0  0  0  1  0  0  0  0  0  0
  187.6680  178.0370  146.4200 O   0  0  0  0  0  0  0  0  0  0  0  0
  1 17  1  0  0  0  0
  2 20  1  0  0  0  0
  4 11  1  0  0  0  0
  5  4  1  1  0  0  0
  6  7  1  0  0  0  0
  7 13  1  0  0  0  0
  8 21  1  1  0  0  0
  8 15  1  0  0  0  0
  8  9  1  0  0  0  0
  9 13  1  0  0  0  0
 10 23  1  0  0  0  0
 11 42  1  0  0  0  0
 11 25  1  1  0  0  0
 12 11  1  0  0  0  0
 14 27  1  0  0  0  0
 15  6  1  1  0  0  0
 15 28  1  0  0  0  0
 16 18  1  0  0  0  0
 16 31  1  0  0  0  0
 19 38  1  6  0  0  0
 19 29  1  0  0  0  0
 21 19  1  0  0  0  0
 22  2  1  0  0  0  0
 23  3  2  0  0  0  0
 23 22  1  0  0  0  0
 24 14  2  0  0  0  0
 24 32  1  0  0  0  0
 26 20  1  6  0  0  0
 26  5  1  0  0  0  0
 26 12  1  0  0  0  0
 27  1  1  0  0  0  0
 27 18  2  0  0  0  0
 28 10  1  6  0  0  0
 28 29  1  0  0  0  0
 29 17  1  1  0  0  0
 30 31  1  1  0  0  0
 30 26  1  0  0  0  0
 30  5  1  0  0  0  0
 32 16  2  0  0  0  0
 33 38  1  0  0  0  0
 34 36  2  0  0  0  0
 36 35  1  0  0  0  0
 37 33  2  0  0  0  0
 37 34  1  0  0  0  0
 38 35  2  0  0  0  0
 39 40  1  0  0  0  0
 39 34  1  0  0  0  0
 41 39  2  0  0  0  0
 42 43  1  1  0  0  0
 42 52  1  0  0  0  0
 44 45  1  0  0  0  0
 45 48  1  1  0  0  0
 45 49  1  0  0  0  0
 47 50  1  0  0  0  0
 47 46  1  0  0  0  0
 47 42  1  1  0  0  0
 49 51  2  0  0  0  0
 50 44  1  6  0  0  0
 50 46  1  0  0  0  0
 50 49  1  0  0  0  0
 52 53  1  0  0  0  0
 53 54  1  0  0  0  0
 53 55  2  0  0  0  0
M  END
>  <MODEL>
1

>  <REMARK>
 VINA RESULT:      -4.1      0.000      0.000
  Name = 
  6 active torsions:
  status: ('A' for Active; 'I' for Inactive)
    1  A    between atoms: C_1  and  O_53
    2  A    between atoms: C_6  and  C_14
    3  A    between atoms: C_6  and  C_20
    4  A    between atoms: C_6  and  O_53
    5  A    between atoms: C_10  and  C_32
    6  A    between atoms: C_33  and  C_52
                            x       y       z     vdW  Elec       q    Type
                         _______ _______ _______ _____ _____    ______ ____

>  <TORSDO>
F 6

$$$$
=
 OpenBabel11052415033D

 55 63  0  0  1  0  0  0  0  0999 V2000
  183.1870  175.1110  137.4270 C   0  0  0  0  0  2  0  0  0  0  0  0
  186.2080  178.3920  139.7690 C   0  0  0  0  0  2  0  0  0  0  0  0
  183.7670  179.7410  140.6050 O   0  0  0  0  0  0  0  0  0  0  0  0
  189.9230  177.2600  136.8490 O   0  0  0  0  0  0  0  0  0  0  0  0
  189.1360  178.3230  137.3390 C   0  0  2  0  0  3  0  0  0  0  0  0
  180.7320  179.7310  140.7310 C   0  0  0  0  0  2  0  0  0  0  0  0
  180.6840  179.6410  142.2530 C   0  0  0  0  0  2  0  0  0  0  0  0
  179.7330  177.4090  140.8200 C   0  0  1  0  0  3  0  0  0  0  0  0
  180.3760  176.9720  142.1500 C   0  0  0  0  0  2  0  0  0  0  0  0
  182.7050  178.7510  138.7370 C   0  0  0  0  0  2  0  0  0  0  0  0
  189.8450  176.2470  137.8200 C   0  0  2  0  0  0  0  0  0  0  0  0
  188.4580  176.3290  138.4340 C   0  0  0  0  0  2  0  0  0  0  0  0
  181.5670  178.1700  142.8580 S   0  0  0  0  0  0  0  0  0  0  0  0
  183.1660  176.6920  135.4820 C   0  0  0  0  0  3  0  0  0  0  0  0
  180.5690  178.3870  140.0040 C   0  0  2  0  0  3  0  0  0  0  0  0
  185.9410  177.0070  135.6580 C   0  0  0  0  0  0  0  0  0  0  0  0
  182.9820  175.8290  138.7550 C   0  0  0  0  0  2  0  0  0  0  0  0
  185.2790  176.1590  136.5490 C   0  0  0  0  0  3  0  0  0  0  0  0
  180.7450  175.5560  139.4420 C   0  0  2  0  0  3  0  0  0  0  0  0
  187.6490  178.6330  139.3460 C   0  0  0  0  0  2  0  0  0  0  0  0
  179.4500  176.2080  139.9500 C   0  0  0  0  0  2  0  0  0  0  0  0
  185.2560  179.1760  138.8770 C   0  0  0  0  0  2  0  0  0  0  0  0
  183.8980  179.2440  139.4970 C   0  0  0  0  0  0  0  0  0  0  0  0
  183.8320  177.5440  134.5930 C   0  0  0  0  0  3  0  0  0  0  0  0
  190.7930  176.5050  138.7990 F   0  0  0  0  0  0  0  0  0  0  0  0
  188.0120  177.7460  138.1660 C   0  0  1  0  0  0  0  0  0  0  0  0
  183.8920  175.9990  136.4610 C   0  0  0  0  0  0  0  0  0  0  0  0
  181.8970  177.7410  139.5660 C   0  0  1  0  0  3  0  0  0  0  0  0
  181.6840  176.5020  138.7870 N   0  0  1  0  0  0  0  0  0  0  0  0
  187.7150  178.3020  136.7750 C   0  0  2  0  0  3  0  0  0  0  0  0
  187.4150  177.1910  135.7680 C   0  0  0  0  0  2  0  0  0  0  0  0
  185.2180  177.7040  134.6840 C   0  0  0  0  0  3  0  0  0  0  0  0
  179.7430  174.7610  137.2860 C   0  0  0  0  0  3  0  0  0  0  0  0
  179.6330  172.4020  136.7180 C   0  0  0  0  0  0  0  0  0  0  0  0
  180.6080  173.1070  138.8270 C   0  0  0  0  0  3  0  0  0  0  0  0
  180.2500  172.0890  137.9380 C   0  0  0  0  0  3  0  0  0  0  0  0
  179.3820  173.7430  136.3990 C   0  0  0  0  0  3  0  0  0  0  0  0
  180.3530  174.4480  138.5050 C   0  0  0  0  0  0  0  0  0  0  0  0
  179.2390  171.3330  135.7870 C   0  0  0  0  0  0  0  0  0  0  0  0
  178.9350  171.6020  134.5940 O   0  0  0  0  0  0  0  0  0  0  0  0
  179.1850  170.0140  136.2180 O   0  0  0  0  0  1  0  0  0  0  0  0
  190.0870  174.8660  137.1500 C   0  0  2  0  0  0  0  0  0  0  0  0
  190.9340  174.1340  137.9860 O   0  0  0  0  0  1  0  0  0  0  0  0
  192.9480  176.0200  134.6180 C   0  0  0  0  0  2  0  0  0  0  0  0
  194.0170  176.3120  135.6530 C   0  0  2  0  0  3  0  0  0  0  0  0
  191.9450  174.1670  135.6650 O   0  0  0  0  0  0  0  0  0  0  0  0
  190.7840  174.9540  135.7590 C   0  0  2  0  0  3  0  0  0  0  0  0
  195.1310  175.4980  135.4450 O   0  0  0  0  0  1  0  0  0  0  0  0
  193.1960  175.7850  136.8330 C   0  0  0  0  0  0  0  0  0  0  0  0
  192.1570  175.5540  135.7760 C   0  0  2  0  0  0  0  0  0  0  0  0
  193.3300  175.6390  138.0360 O   0  0  0  0  0  0  0  0  0  0  0  0
  188.8340  174.1750  137.0640 O   0  0  0  0  0  0  0  0  0  0  0  0
  188.5230  173.2340  136.0730 C   0  0  0  0  0  0  0  0  0  0  0  0
  187.6580  173.6340  134.9360 C   0  0  0  0  0  1  0  0  0  0  0  0
  188.9670  172.0530  136.1380 O   0  0  0  0  0  0  0  0  0  0  0  0
  1 17  1  0  0  0  0
  4 11  1  0  0  0  0
  5  4  1  6  0  0  0
  5 26  1  0  0  0  0
  6  7  1  0  0  0  0
  7 13  1  0  0  0  0
  8 21  1  6  0  0  0
  8  9  1  0  0  0  0
  9 13  1  0  0  0  0
 10 23  1  0  0  0  0
 11 12  1  0  0  0  0
 11 25  1  1  0  0  0
 14 27  1  0  0  0  0
 15  6  1  1  0  0  0
 15  8  1  0  0  0  0
 16 31  1  0  0  0  0
 16 18  1  0  0  0  0
 19 38  1  6  0  0  0
 19 21  1  0  0  0  0
 20  2  1  0  0  0  0
 22 23  1  0  0  0  0
 22  2  1  0  0  0  0
 23  3  2  0  0  0  0
 24 32  1  0  0  0  0
 24 14  2  0  0  0  0
 26 12  1  1  0  0  0
 26 20  1  0  0  0  0
 27 18  2  0  0  0  0
 27  1  1  0  0  0  0
 28 10  1  6  0  0  0
 28 15  1  0  0  0  0
 29 17  1  1  0  0  0
 29 19  1  0  0  0  0
 29 28  1  0  0  0  0
 30 31  1  6  0  0  0
 30  5  1  0  0  0  0
 30 26  1  0  0  0  0
 32 16  2  0  0  0  0
 33 38  1  0  0  0  0
 34 36  2  0  0  0  0
 36 35  1  0  0  0  0
 37 34  1  0  0  0  0
 37 33  2  0  0  0  0
 38 35  2  0  0  0  0
 39 41  1  0  0  0  0
 39 34  1  0  0  0  0
 40 39  2  0  0  0  0
 42 11  1  0  0  0  0
 42 43  1  1  0  0  0
 44 45  1  0  0  0  0
 45 48  1  6  0  0  0
 45 49  1  0  0  0  0
 46 47  1  0  0  0  0
 46 50  1  0  0  0  0
 47 50  1  0  0  0  0
 47 42  1  1  0  0  0
 49 51  2  0  0  0  0
 50 44  1  6  0  0  0
 50 49  1  0  0  0  0
 52 42  1  0  0  0  0
 53 55  2  0  0  0  0
 53 52  1  0  0  0  0
 54 53  1  0  0  0  0
M  END
>  <MODEL>
2

>  <REMARK>
 VINA RESULT:      -3.8      3.720      7.520
  Name = 
  6 active torsions:
  status: ('A' for Active; 'I' for Inactive)
    1  A    between atoms: C_1  and  O_53
    2  A    between atoms: C_6  and  C_14
    3  A    between atoms: C_6  and  C_20
    4  A    between atoms: C_6  and  O_53
    5  A    between atoms: C_10  and  C_32
    6  A    between atoms: C_33  and  C_52
                            x       y       z     vdW  Elec       q    Type
                         _______ _______ _______ _____ _____    ______ ____

>  <TORSDO>
F 6

$$$$
=
 OpenBabel11052415033D

 55 63  0  0  1  0  0  0  0  0999 V2000
  187.6120  175.1520  137.8660 C   0  0  0  0  0  2  0  0  0  0  0  0
  183.9090  177.4300  140.4090 C   0  0  0  0  0  2  0  0  0  0  0  0
  182.3700  177.2460  137.9440 O   0  0  0  0  0  0  0  0  0  0  0  0
  187.0670  179.3140  143.5860 O   0  0  0  0  0  0  0  0  0  0  0  0
  186.0290  179.6260  142.6830 C   0  0  2  0  0  3  0  0  0  0  0  0
  182.1740  176.1900  135.1040 C   0  0  0  0  0  2  0  0  0  0  0  0
  180.9800  175.2880  135.4020 C   0  0  0  0  0  2  0  0  0  0  0  0
  183.4050  174.0080  134.7500 C   0  0  1  0  0  3  0  0  0  0  0  0
  182.5890  173.1630  135.7470 C   0  0  0  0  0  2  0  0  0  0  0  0
  184.4310  177.1320  136.7900 C   0  0  0  0  0  2  0  0  0  0  0  0
  186.8540  177.9770  143.9660 C   0  0  2  0  0  0  0  0  0  0  0  0
  186.2600  177.2650  142.7640 C   0  0  0  0  0  2  0  0  0  0  0  0
  181.3610  174.1020  136.7270 S   0  0  0  0  0  0  0  0  0  0  0  0
  188.2910  177.4200  137.0460 C   0  0  0  0  0  3  0  0  0  0  0  0
  183.5360  175.4780  135.1270 C   0  0  2  0  0  3  0  0  0  0  0  0
  188.0560  178.4690  139.6300 C   0  0  0  0  0  0  0  0  0  0  0  0
  186.1070  174.9330  137.7760 C   0  0  0  0  0  2  0  0  0  0  0  0
  187.7950  177.1150  139.4020 C   0  0  0  0  0  3  0  0  0  0  0  0
  185.6300  173.6290  135.8730 C   0  0  2  0  0  3  0  0  0  0  0  0
  184.1630  178.3110  141.6240 C   0  0  0  0  0  2  0  0  0  0  0  0
  184.7970  173.4470  134.5940 C   0  0  0  0  0  2  0  0  0  0  0  0
  184.1560  178.2130  139.1280 C   0  0  0  0  0  2  0  0  0  0  0  0
  183.5660  177.4940  137.9580 C   0  0  0  0  0  0  0  0  0  0  0  0
  188.5490  178.7760  137.2780 C   0  0  0  0  0  3  0  0  0  0  0  0
  185.9360  177.9610  145.0070 F   0  0  0  0  0  0  0  0  0  0  0  0
  185.6490  178.3690  141.9360 C   0  0  1  0  0  0  0  0  0  0  0  0
  187.9130  176.5890  138.1100 C   0  0  0  0  0  0  0  0  0  0  0  0
  184.3090  175.6390  136.4500 C   0  0  1  0  0  3  0  0  0  0  0  0
  185.6520  175.0220  136.3890 N   0  0  1  0  0  0  0  0  0  0  0  0
  186.4570  179.4530  141.2250 C   0  0  2  0  0  3  0  0  0  0  0  0
  187.9090  179.0290  141.0020 C   0  0  0  0  0  2  0  0  0  0  0  0
  188.4280  179.3010  138.5690 C   0  0  0  0  0  3  0  0  0  0  0  0
  187.9040  173.9650  134.8740 C   0  0  0  0  0  3  0  0  0  0  0  0
  189.6360  172.2690  135.0330 C   0  0  0  0  0  0  0  0  0  0  0  0
  187.4500  171.8790  136.0160 C   0  0  0  0  0  3  0  0  0  0  0  0
  188.7510  171.4460  135.7440 C   0  0  0  0  0  3  0  0  0  0  0  0
  189.2040  173.5290  134.6000 C   0  0  0  0  0  3  0  0  0  0  0  0
  187.0200  173.1400  135.5770 C   0  0  0  0  0  0  0  0  0  0  0  0
  191.0000  171.8100  134.7320 C   0  0  0  0  0  0  0  0  0  0  0  0
  191.2510  170.5810  134.6070 O   0  0  0  0  0  1  0  0  0  0  0  0
  192.0330  172.7280  134.5940 O   0  0  0  0  0  0  0  0  0  0  0  0
  188.2040  177.3390  144.3940 C   0  0  2  0  0  0  0  0  0  0  0  0
  189.1320  178.3740  144.5440 O   0  0  0  0  0  1  0  0  0  0  0  0
  190.5300  176.3040  141.3210 C   0  0  0  0  0  2  0  0  0  0  0  0
  191.5190  177.4490  141.4310 C   0  0  2  0  0  3  0  0  0  0  0  0
  190.1220  175.9750  143.6140 O   0  0  0  0  0  0  0  0  0  0  0  0
  188.7940  176.3480  143.3460 C   0  0  2  0  0  3  0  0  0  0  0  0
  192.8040  176.9620  141.6660 O   0  0  0  0  0  1  0  0  0  0  0  0
  190.9230  178.0030  142.7280 C   0  0  0  0  0  0  0  0  0  0  0  0
  189.9470  176.8790  142.5510 C   0  0  2  0  0  0  0  0  0  0  0  0
  191.1410  178.9170  143.5060 O   0  0  0  0  0  0  0  0  0  0  0  0
  188.0270  176.7080  145.6690 O   0  0  0  0  0  0  0  0  0  0  0  0
  188.5530  177.2030  146.8700 C   0  0  0  0  0  0  0  0  0  0  0  0
  187.6850  177.9980  147.7720 C   0  0  0  0  0  1  0  0  0  0  0  0
  189.7550  176.9810  147.1910 O   0  0  0  0  0  0  0  0  0  0  0  0
  1 27  1  0  0  0  0
  2 20  1  0  0  0  0
  3 23  2  0  0  0  0
  4 11  1  0  0  0  0
  5  4  1  1  0  0  0
  6  7  1  0  0  0  0
  7 13  1  0  0  0  0
  8 21  1  1  0  0  0
  8 15  1  0  0  0  0
  8  9  1  0  0  0  0
  9 13  1  0  0  0  0
 10 23  1  0  0  0  0
 11 42  1  0  0  0  0
 11 25  1  1  0  0  0
 12 11  1  0  0  0  0
 14 24  2  0  0  0  0
 14 27  1  0  0  0  0
 15  6  1  1  0  0  0
 15 28  1  0  0  0  0
 16 31  1  0  0  0  0
 17  1  1  0  0  0  0
 18 16  1  0  0  0  0
 19 38  1  6  0  0  0
 19 29  1  0  0  0  0
 21 19  1  0  0  0  0
 22  2  1  0  0  0  0
 23 22  1  0  0  0  0
 24 32  1  0  0  0  0
 26 20  1  6  0  0  0
 26  5  1  0  0  0  0
 26 12  1  0  0  0  0
 27 18  2  0  0  0  0
 28 10  1  6  0  0  0
 29 28  1  0  0  0  0
 29 17  1  1  0  0  0
 30 31  1  1  0  0  0
 30 26  1  0  0  0  0
 30  5  1  0  0  0  0
 32 16  2  0  0  0  0
 33 38  1  0  0  0  0
 34 36  2  0  0  0  0
 36 35  1  0  0  0  0
 37 33  2  0  0  0  0
 37 34  1  0  0  0  0
 38 35  2  0  0  0  0
 39 34  1  0  0  0  0
 40 39  1  0  0  0  0
 41 39  2  0  0  0  0
 42 43  1  1  0  0  0
 42 52  1  0  0  0  0
 44 45  1  0  0  0  0
 45 48  1  1  0  0  0
 45 49  1  0  0  0  0
 47 46  1  0  0  0  0
 47 42  1  1  0  0  0
 49 51  2  0  0  0  0
 50 44  1  6  0  0  0
 50 49  1  0  0  0  0
 50 47  1  0  0  0  0
 50 46  1  0  0  0  0
 52 53  1  0  0  0  0
 53 55  2  0  0  0  0
 53 54  1  0  0  0  0
M  END
>  <MODEL>
3

>  <REMARK>
 VINA RESULT:      -3.3      1.575      2.058
  Name = 
  6 active torsions:
  status: ('A' for Active; 'I' for Inactive)
    1  A    between atoms: C_1  and  O_53
    2  A    between atoms: C_6  and  C_14
    3  A    between atoms: C_6  and  C_20
    4  A    between atoms: C_6  and  O_53
    5  A    between atoms: C_10  and  C_32
    6  A    between atoms: C_33  and  C_52
                            x       y       z     vdW  Elec       q    Type
                         _______ _______ _______ _____ _____    ______ ____

>  <TORSDO>
F 6

$$$$
=
 OpenBabel11052415033D

 55 63  0  0  1  0  0  0  0  0999 V2000
  187.6110  174.6970  137.6320 C   0  0  0  0  0  2  0  0  0  0  0  0
  183.9410  177.2300  139.9730 C   0  0  0  0  0  2  0  0  0  0  0  0
  182.3690  176.7900  137.5620 O   0  0  0  0  0  0  0  0  0  0  0  0
  187.1390  179.4320  142.8940 O   0  0  0  0  0  0  0  0  0  0  0  0
  186.0890  179.6490  141.9770 C   0  0  2  0  0  3  0  0  0  0  0  0
  182.1360  175.4440  134.8500 C   0  0  0  0  0  2  0  0  0  0  0  0
  180.9470  174.5790  135.2560 C   0  0  0  0  0  2  0  0  0  0  0  0
  183.3640  173.2370  134.7090 C   0  0  1  0  0  3  0  0  0  0  0  0
  182.5620  172.5000  135.7990 C   0  0  0  0  0  2  0  0  0  0  0  0
  184.4150  176.5560  136.3980 C   0  0  0  0  0  2  0  0  0  0  0  0
  186.9320  178.1430  143.4140 C   0  0  2  0  0  0  0  0  0  0  0  0
  186.3230  177.3090  142.3010 C   0  0  0  0  0  2  0  0  0  0  0  0
  181.3460  173.5370  136.6930 S   0  0  0  0  0  0  0  0  0  0  0  0
  188.2780  176.8670  136.5710 C   0  0  0  0  0  3  0  0  0  0  0  0
  183.4990  174.7390  134.9280 C   0  0  2  0  0  3  0  0  0  0  0  0
  188.0760  178.1790  139.0350 C   0  0  0  0  0  0  0  0  0  0  0  0
  186.1060  174.4700  137.5850 C   0  0  0  0  0  2  0  0  0  0  0  0
  187.8130  176.8090  138.9520 C   0  0  0  0  0  3  0  0  0  0  0  0
  185.6040  172.9760  135.8350 C   0  0  2  0  0  3  0  0  0  0  0  0
  184.2100  178.2320  141.0860 C   0  0  0  0  0  2  0  0  0  0  0  0
  184.7540  172.6620  134.5940 C   0  0  0  0  0  2  0  0  0  0  0  0
  184.1690  177.8750  138.6140 C   0  0  0  0  0  2  0  0  0  0  0  0
  183.5640  177.0380  137.5330 C   0  0  0  0  0  0  0  0  0  0  0  0
  188.5370  178.2400  136.6570 C   0  0  0  0  0  3  0  0  0  0  0  0
  186.0290  178.2350  144.4630 F   0  0  0  0  0  0  0  0  0  0  0  0
  185.7000  178.3210  141.3710 C   0  0  1  0  0  0  0  0  0  0  0  0
  187.9140  176.1520  137.7210 C   0  0  0  0  0  0  0  0  0  0  0  0
  184.2900  175.0350  136.2170 C   0  0  1  0  0  3  0  0  0  0  0  0
  185.6310  174.4150  136.2030 N   0  0  1  0  0  0  0  0  0  0  0  0
  186.4970  179.3250  140.5400 C   0  0  2  0  0  3  0  0  0  0  0  0
  187.9470  178.8800  140.3420 C   0  0  0  0  0  2  0  0  0  0  0  0
  188.4330  178.8960  137.8880 C   0  0  0  0  0  3  0  0  0  0  0  0
  187.9470  173.3080  135.0090 C   0  0  0  0  0  3  0  0  0  0  0  0
  189.6010  171.5310  135.0980 C   0  0  0  0  0  0  0  0  0  0  0  0
  187.3440  171.1430  135.9070 C   0  0  0  0  0  3  0  0  0  0  0  0
  188.6430  170.6820  135.6700 C   0  0  0  0  0  3  0  0  0  0  0  0
  189.2440  172.8450  134.7690 C   0  0  0  0  0  3  0  0  0  0  0  0
  186.9910  172.4580  135.5730 C   0  0  0  0  0  0  0  0  0  0  0  0
  190.9630  171.0450  134.8310 C   0  0  0  0  0  0  0  0  0  0  0  0
  191.1930  169.8110  134.7170 O   0  0  0  0  0  1  0  0  0  0  0  0
  192.0170  171.9430  134.7170 O   0  0  0  0  0  0  0  0  0  0  0  0
  188.2890  177.5520  143.8880 C   0  0  2  0  0  0  0  0  0  0  0  0
  188.2420  176.1700  143.6810 O   0  0  0  0  0  1  0  0  0  0  0  0
  190.0360  176.7350  147.3820 C   0  0  0  0  0  2  0  0  0  0  0  0
  191.2050  175.9400  146.8330 C   0  0  2  0  0  3  0  0  0  0  0  0
  189.8500  178.3200  145.6530 O   0  0  0  0  0  0  0  0  0  0  0  0
  188.5800  177.7750  145.4020 C   0  0  2  0  0  3  0  0  0  0  0  0
  192.4120  176.5550  147.1680 O   0  0  0  0  0  1  0  0  0  0  0  0
  190.8660  176.2150  145.3660 C   0  0  0  0  0  0  0  0  0  0  0  0
  189.7030  176.9540  145.9590 C   0  0  2  0  0  0  0  0  0  0  0  0
  191.3200  175.9490  144.2660 O   0  0  0  0  0  0  0  0  0  0  0  0
  189.3330  178.0920  143.0690 O   0  0  0  0  0  0  0  0  0  0  0  0
  190.2620  177.3140  142.3650 C   0  0  0  0  0  0  0  0  0  0  0  0
  191.7080  177.6170  142.4920 C   0  0  0  0  0  1  0  0  0  0  0  0
  189.8830  176.3630  141.6260 O   0  0  0  0  0  0  0  0  0  0  0  0
  1 27  1  0  0  0  0
  2 20  1  0  0  0  0
  4 11  1  0  0  0  0
  5  4  1  1  0  0  0
  6  7  1  0  0  0  0
  7 13  1  0  0  0  0
  8 21  1  1  0  0  0
  8 15  1  0  0  0  0
  8  9  1  0  0  0  0
  9 13  1  0  0  0  0
 10 23  1  0  0  0  0
 11 42  1  0  0  0  0
 11 25  1  1  0  0  0
 12 11  1  0  0  0  0
 14 24  2  0  0  0  0
 14 27  1  0  0  0  0
 15  6  1  1  0  0  0
 15 28  1  0  0  0  0
 16 31  1  0  0  0  0
 17  1  1  0  0  0  0
 18 16  1  0  0  0  0
 19 38  1  6  0  0  0
 19 29  1  0  0  0  0
 21 19  1  0  0  0  0
 22  2  1  0  0  0  0
 23  3  2  0  0  0  0
 23 22  1  0  0  0  0
 24 32  1  0  0  0  0
 26 20  1  6  0  0  0
 26  5  1  0  0  0  0
 26 12  1  0  0  0  0
 27 18  2  0  0  0  0
 28 10  1  6  0  0  0
 29 28  1  0  0  0  0
 29 17  1  1  0  0  0
 30 31  1  1  0  0  0
 30 26  1  0  0  0  0
 30  5  1  0  0  0  0
 32 16  2  0  0  0  0
 33 38  1  0  0  0  0
 34 36  2  0  0  0  0
 36 35  1  0  0  0  0
 37 33  2  0  0  0  0
 37 34  1  0  0  0  0
 38 35  2  0  0  0  0
 39 34  1  0  0  0  0
 40 39  1  0  0  0  0
 41 39  2  0  0  0  0
 42 43  1  6  0  0  0
 45 48  1  1  0  0  0
 45 44  1  0  0  0  0
 46 50  1  0  0  0  0
 47 42  1  6  0  0  0
 47 46  1  0  0  0  0
 47 50  1  0  0  0  0
 49 50  1  0  0  0  0
 49 45  1  0  0  0  0
 50 44  1  1  0  0  0
 51 49  2  0  0  0  0
 52 42  1  0  0  0  0
 53 54  1  0  0  0  0
 53 52  1  0  0  0  0
 55 53  2  0  0  0  0
M  END
>  <MODEL>
4

>  <REMARK>
 VINA RESULT:      -1.8      1.669      2.625
  Name = 
  6 active torsions:
  status: ('A' for Active; 'I' for Inactive)
    1  A    between atoms: C_1  and  O_53
    2  A    between atoms: C_6  and  C_14
    3  A    between atoms: C_6  and  C_20
    4  A    between atoms: C_6  and  O_53
    5  A    between atoms: C_10  and  C_32
    6  A    between atoms: C_33  and  C_52
                            x       y       z     vdW  Elec       q    Type
                         _______ _______ _______ _____ _____    ______ ____

>  <TORSDO>
F 6

$$$$
=
 OpenBabel11052415033D

 55 63  0  0  1  0  0  0  0  0999 V2000
  185.7770  174.7990  137.4290 C   0  0  0  0  0  2  0  0  0  0  0  0
  181.2210  175.8790  139.2880 C   0  0  0  0  0  2  0  0  0  0  0  0
  180.1610  174.4050  137.0110 O   0  0  0  0  0  0  0  0  0  0  0  0
  182.9730  179.6990  141.7260 O   0  0  0  0  0  0  0  0  0  0  0  0
  181.9990  179.2860  140.7930 C   0  0  2  0  0  3  0  0  0  0  0  0
  180.7140  172.6480  134.5970 C   0  0  0  0  0  2  0  0  0  0  0  0
  179.9740  171.4410  135.1650 C   0  0  0  0  0  2  0  0  0  0  0  0
  182.7640  171.1900  134.8580 C   0  0  1  0  0  3  0  0  0  0  0  0
  182.2710  170.3790  136.0720 C   0  0  0  0  0  2  0  0  0  0  0  0
  182.1940  174.8730  135.8950 C   0  0  0  0  0  2  0  0  0  0  0  0
  183.2910  178.5550  142.4780 C   0  0  2  0  0  0  0  0  0  0  0  0
  183.1720  177.3640  141.5430 C   0  0  0  0  0  2  0  0  0  0  0  0
  180.6700  170.9310  136.7670 S   0  0  0  0  0  0  0  0  0  0  0  0
  185.5420  176.8300  135.9800 C   0  0  0  0  0  3  0  0  0  0  0  0
  182.2380  172.6170  134.7950 C   0  0  2  0  0  3  0  0  0  0  0  0
  184.6280  178.3290  138.1590 C   0  0  0  0  0  0  0  0  0  0  0  0
  184.5150  173.9470  137.4360 C   0  0  0  0  0  2  0  0  0  0  0  0
  184.9730  176.9860  138.3330 C   0  0  0  0  0  3  0  0  0  0  0  0
  184.8180  172.1070  135.9970 C   0  0  2  0  0  3  0  0  0  0  0  0
  180.9620  177.0730  140.1930 C   0  0  0  0  0  2  0  0  0  0  0  0
  184.2720  171.2540  134.8410 C   0  0  0  0  0  2  0  0  0  0  0  0
  181.2550  176.3170  137.8310 C   0  0  0  0  0  2  0  0  0  0  0  0
  181.1390  175.1310  136.9280 C   0  0  0  0  0  0  0  0  0  0  0  0
  185.1920  178.1740  135.8080 C   0  0  0  0  0  3  0  0  0  0  0  0
  182.3590  178.4290  143.4980 F   0  0  0  0  0  0  0  0  0  0  0  0
  182.2500  177.8380  140.4460 C   0  0  1  0  0  0  0  0  0  0  0  0
  185.4320  176.2360  137.2450 C   0  0  0  0  0  0  0  0  0  0  0  0
  182.7340  173.4390  136.0010 C   0  0  1  0  0  3  0  0  0  0  0  0
  184.2100  173.4590  136.0920 N   0  0  1  0  0  0  0  0  0  0  0  0
  182.6080  178.9280  139.4370 C   0  0  2  0  0  3  0  0  0  0  0  0
  184.1210  179.1190  139.3150 C   0  0  0  0  0  2  0  0  0  0  0  0
  184.7320  178.9230  136.8960 C   0  0  0  0  0  3  0  0  0  0  0  0
  187.1450  171.5540  136.7440 C   0  0  0  0  0  3  0  0  0  0  0  0
  189.1000  172.3150  135.5180 C   0  0  0  0  0  0  0  0  0  0  0  0
  186.8710  172.8930  134.7460 C   0  0  0  0  0  3  0  0  0  0  0  0
  188.2590  172.9520  134.5940 C   0  0  0  0  0  3  0  0  0  0  0  0
  188.5340  171.6170  136.5930 C   0  0  0  0  0  3  0  0  0  0  0  0
  186.3090  172.1960  135.8250 C   0  0  0  0  0  0  0  0  0  0  0  0
  190.5610  172.3900  135.3710 C   0  0  0  0  0  0  0  0  0  0  0  0
  191.2090  173.3440  135.8790 O   0  0  0  0  0  1  0  0  0  0  0  0
  191.2430  171.4130  134.6560 O   0  0  0  0  0  0  0  0  0  0  0  0
  184.7320  178.6900  143.0430 C   0  0  2  0  0  0  0  0  0  0  0  0
  185.2400  177.4000  143.2180 O   0  0  0  0  0  1  0  0  0  0  0  0
  185.5820  178.9200  146.9350 C   0  0  0  0  0  2  0  0  0  0  0  0
  186.5900  177.7880  146.9810 C   0  0  2  0  0  3  0  0  0  0  0  0
  186.1050  179.7670  144.8040 O   0  0  0  0  0  0  0  0  0  0  0  0
  184.8020  179.3990  144.4290 C   0  0  2  0  0  3  0  0  0  0  0  0
  187.8350  178.2610  147.3940 O   0  0  0  0  0  1  0  0  0  0  0  0
  186.5910  177.5600  145.4680 C   0  0  0  0  0  0  0  0  0  0  0  0
  185.5680  178.6570  145.4810 C   0  0  2  0  0  0  0  0  0  0  0  0
  187.1480  176.8340  144.6620 O   0  0  0  0  0  0  0  0  0  0  0  0
  185.5420  179.3620  142.0700 O   0  0  0  0  0  0  0  0  0  0  0  0
  186.8450  178.9740  141.7290 C   0  0  0  0  0  0  0  0  0  0  0  0
  187.1120  178.4410  140.3710 C   0  0  0  0  0  1  0  0  0  0  0  0
  187.7890  179.0710  142.5630 O   0  0  0  0  0  0  0  0  0  0  0  0
  1 17  1  0  0  0  0
  2 20  1  0  0  0  0
  4 11  1  0  0  0  0
  5  4  1  1  0  0  0
  6  7  1  0  0  0  0
  7 13  1  0  0  0  0
  8 21  1  1  0  0  0
  8  9  1  0  0  0  0
  9 13  1  0  0  0  0
 10 23  1  0  0  0  0
 11 42  1  0  0  0  0
 11 25  1  1  0  0  0
 12 11  1  0  0  0  0
 14 27  1  0  0  0  0
 15  6  1  1  0  0  0
 15  8  1  0  0  0  0
 15 28  1  0  0  0  0
 16 18  1  0  0  0  0
 16 31  1  0  0  0  0
 19 38  1  6  0  0  0
 19 29  1  0  0  0  0
 21 19  1  0  0  0  0
 22  2  1  0  0  0  0
 23  3  2  0  0  0  0
 23 22  1  0  0  0  0
 24 14  2  0  0  0  0
 24 32  1  0  0  0  0
 26 20  1  6  0  0  0
 26  5  1  0  0  0  0
 26 12  1  0  0  0  0
 27  1  1  0  0  0  0
 27 18  2  0  0  0  0
 28 10  1  6  0  0  0
 28 29  1  0  0  0  0
 29 17  1  1  0  0  0
 30 31  1  1  0  0  0
 30 26  1  0  0  0  0
 30  5  1  0  0  0  0
 32 16  2  0  0  0  0
 34 37  2  0  0  0  0
 35 38  1  0  0  0  0
 36 35  2  0  0  0  0
 36 34  1  0  0  0  0
 37 33  1  0  0  0  0
 38 33  2  0  0  0  0
 39 34  1  0  0  0  0
 39 40  1  0  0  0  0
 41 39  2  0  0  0  0
 42 43  1  1  0  0  0
 44 45  1  0  0  0  0
 45 48  1  6  0  0  0
 46 50  1  0  0  0  0
 47 42  1  6  0  0  0
 47 46  1  0  0  0  0
 47 50  1  0  0  0  0
 49 50  1  0  0  0  0
 49 45  1  0  0  0  0
 50 44  1  1  0  0  0
 51 49  2  0  0  0  0
 52 42  1  0  0  0  0
 53 52  1  0  0  0  0
 53 55  2  0  0  0  0
 54 53  1  0  0  0  0
M  END
>  <MODEL>
5

>  <REMARK>
 VINA RESULT:      -1.4      1.664      2.705
  Name = 
  6 active torsions:
  status: ('A' for Active; 'I' for Inactive)
    1  A    between atoms: C_1  and  O_53
    2  A    between atoms: C_6  and  C_14
    3  A    between atoms: C_6  and  C_20
    4  A    between atoms: C_6  and  O_53
    5  A    between atoms: C_10  and  C_32
    6  A    between atoms: C_33  and  C_52
                            x       y       z     vdW  Elec       q    Type
                         _______ _______ _______ _____ _____    ______ ____

>  <TORSDO>
F 6

$$$$
=
 OpenBabel11052415033D

 55 63  0  0  1  0  0  0  0  0999 V2000
  184.6310  177.6020  140.5750 C   0  0  0  0  0  2  0  0  0  0  0  0
  185.2790  175.9000  135.8790 C   0  0  0  0  0  2  0  0  0  0  0  0
  187.9170  177.1260  136.0100 O   0  0  0  0  0  0  0  0  0  0  0  0
  180.4800  175.6680  135.1570 O   0  0  0  0  0  0  0  0  0  0  0  0
  181.6880  176.1920  134.6530 C   0  0  2  0  0  3  0  0  0  0  0  0
  190.0200  178.5390  137.6840 C   0  0  0  0  0  2  0  0  0  0  0  0
  191.0340  177.4060  137.5690 C   0  0  0  0  0  2  0  0  0  0  0  0
  189.9630  177.8960  140.1300 C   0  0  1  0  0  3  0  0  0  0  0  0
  190.2730  176.3980  139.9430 C   0  0  0  0  0  2  0  0  0  0  0  0
  187.0490  178.5660  137.6740 C   0  0  0  0  0  2  0  0  0  0  0  0
  180.8370  174.5250  135.8950 C   0  0  2  0  0  0  0  0  0  0  0  0
  182.1970  174.8040  136.5100 C   0  0  0  0  0  2  0  0  0  0  0  0
  190.3530  175.8410  138.2010 S   0  0  0  0  0  0  0  0  0  0  0  0
  183.8840  179.7700  139.5650 C   0  0  0  0  0  3  0  0  0  0  0  0
  189.1930  178.5320  138.9790 C   0  0  2  0  0  3  0  0  0  0  0  0
  182.2570  178.4060  137.7420 C   0  0  0  0  0  0  0  0  0  0  0  0
  185.8930  177.0620  139.9140 C   0  0  0  0  0  2  0  0  0  0  0  0
  183.0060  177.6890  138.6800 C   0  0  0  0  0  3  0  0  0  0  0  0
  187.7480  177.5450  141.2820 C   0  0  2  0  0  3  0  0  0  0  0  0
  184.1180  175.6040  134.9420 C   0  0  0  0  0  2  0  0  0  0  0  0
  189.1700  178.1190  141.3940 C   0  0  0  0  0  2  0  0  0  0  0  0
  185.5840  177.3910  135.8900 C   0  0  0  0  0  2  0  0  0  0  0  0
  186.9250  177.6430  136.5000 C   0  0  0  0  0  0  0  0  0  0  0  0
  183.1360  180.4860  138.6220 C   0  0  0  0  0  3  0  0  0  0  0  0
  180.9420  173.4550  135.0190 F   0  0  0  0  0  0  0  0  0  0  0  0
  182.7940  175.8780  135.6340 C   0  0  1  0  0  0  0  0  0  0  0  0
  183.8180  178.3700  139.5930 C   0  0  0  0  0  0  0  0  0  0  0  0
  187.7980  177.8930  138.8340 C   0  0  1  0  0  3  0  0  0  0  0  0
  187.0060  177.9970  140.0770 N   0  0  1  0  0  0  0  0  0  0  0  0
  182.2530  177.3040  135.5390 C   0  0  2  0  0  3  0  0  0  0  0  0
  181.4100  177.6780  136.7580 C   0  0  0  0  0  2  0  0  0  0  0  0
  182.3260  179.8030  137.7090 C   0  0  0  0  0  3  0  0  0  0  0  0
  187.4560  177.4090  143.7670 C   0  0  0  0  0  3  0  0  0  0  0  0
  185.6820  178.6070  144.9160 C   0  0  0  0  0  0  0  0  0  0  0  0
  185.9070  178.7740  142.5040 C   0  0  0  0  0  3  0  0  0  0  0  0
  185.2450  179.1190  143.6860 C   0  0  0  0  0  3  0  0  0  0  0  0
  186.7910  177.7510  144.9480 C   0  0  0  0  0  3  0  0  0  0  0  0
  187.0140  177.9140  142.5400 C   0  0  0  0  0  0  0  0  0  0  0  0
  184.9780  178.9540  146.1600 C   0  0  0  0  0  0  0  0  0  0  0  0
  183.7190  178.9550  146.2050 O   0  0  0  0  0  0  0  0  0  0  0  0
  185.6960  179.2970  147.2980 O   0  0  0  0  0  1  0  0  0  0  0  0
  179.7650  174.2580  136.9870 C   0  0  2  0  0  0  0  0  0  0  0  0
  178.9730  175.4050  137.0910 O   0  0  0  0  0  1  0  0  0  0  0  0
  181.1540  175.3070  140.5780 C   0  0  0  0  0  2  0  0  0  0  0  0
  180.5160  176.6810  140.6390 C   0  0  2  0  0  3  0  0  0  0  0  0
  179.4340  174.1740  139.4420 O   0  0  0  0  0  0  0  0  0  0  0  0
  180.3580  173.9850  138.4010 C   0  0  2  0  0  3  0  0  0  0  0  0
  179.6440  176.7650  141.7250 O   0  0  0  0  0  1  0  0  0  0  0  0
  179.7230  176.5080  139.3420 C   0  0  0  0  0  0  0  0  0  0  0  0
  180.4110  175.1770  139.3070 C   0  0  2  0  0  0  0  0  0  0  0  0
  178.9310  177.1510  138.6720 O   0  0  0  0  0  0  0  0  0  0  0  0
  178.9310  173.1770  136.5520 O   0  0  0  0  0  0  0  0  0  0  0  0
  179.3860  171.8670  136.3440 C   0  0  0  0  0  0  0  0  0  0  0  0
  179.1110  171.1980  135.0490 C   0  0  0  0  0  1  0  0  0  0  0  0
  180.0230  171.2530  137.2460 O   0  0  0  0  0  0  0  0  0  0  0  0
  2 22  1  0  0  0  0
  3 23  2  0  0  0  0
  4 11  1  0  0  0  0
  5  4  1  1  0  0  0
  5 30  1  0  0  0  0
  5 26  1  0  0  0  0
  7  6  1  0  0  0  0
  7 13  1  0  0  0  0
  8  9  1  6  0  0  0
  8 21  1  0  0  0  0
 11 25  1  6  0  0  0
 11 12  1  0  0  0  0
 11 42  1  0  0  0  0
 13  9  1  0  0  0  0
 14 27  1  0  0  0  0
 15  6  1  6  0  0  0
 15  8  1  0  0  0  0
 16 18  1  0  0  0  0
 17  1  1  0  0  0  0
 18 27  2  0  0  0  0
 19 21  1  0  0  0  0
 19 38  1  1  0  0  0
 20  2  1  0  0  0  0
 22 23  1  0  0  0  0
 23 10  1  0  0  0  0
 24 14  2  0  0  0  0
 26 20  1  6  0  0  0
 26 12  1  0  0  0  0
 27  1  1  0  0  0  0
 28 10  1  6  0  0  0
 28 15  1  0  0  0  0
 28 29  1  0  0  0  0
 29 17  1  6  0  0  0
 29 19  1  0  0  0  0
 30 26  1  0  0  0  0
 30 31  1  1  0  0  0
 31 16  1  0  0  0  0
 32 16  2  0  0  0  0
 32 24  1  0  0  0  0
 33 37  1  0  0  0  0
 34 37  2  0  0  0  0
 34 39  1  0  0  0  0
 35 38  1  0  0  0  0
 35 36  2  0  0  0  0
 36 34  1  0  0  0  0
 38 33  2  0  0  0  0
 39 40  2  0  0  0  0
 39 41  1  0  0  0  0
 42 43  1  1  0  0  0
 44 45  1  0  0  0  0
 45 48  1  1  0  0  0
 47 42  1  6  0  0  0
 47 50  1  0  0  0  0
 47 46  1  0  0  0  0
 49 45  1  0  0  0  0
 50 49  1  0  0  0  0
 50 46  1  0  0  0  0
 50 44  1  1  0  0  0
 51 49  2  0  0  0  0
 52 42  1  0  0  0  0
 53 52  1  0  0  0  0
 53 55  2  0  0  0  0
 54 53  1  0  0  0  0
M  END
>  <MODEL>
6

>  <REMARK>
 VINA RESULT:      -1.3      4.003      9.610
  Name = 
  6 active torsions:
  status: ('A' for Active; 'I' for Inactive)
    1  A    between atoms: C_1  and  O_53
    2  A    between atoms: C_6  and  C_14
    3  A    between atoms: C_6  and  C_20
    4  A    between atoms: C_6  and  O_53
    5  A    between atoms: C_10  and  C_32
    6  A    between atoms: C_33  and  C_52
                            x       y       z     vdW  Elec       q    Type
                         _______ _______ _______ _____ _____    ______ ____

>  <TORSDO>
F 6

$$$$
