=
 OpenBabel11052412543D

 25 28  0  0  1  0  0  0  0  0999 V2000
  187.4160  178.0070  145.9140 C   0  0  0  0  0  0  0  0  0  0  0  0
  188.5260  177.0590  145.5390 C   0  0  1  0  0  3  0  0  0  0  0  0
  188.4890  178.4380  148.2020 C   0  0  0  0  0  2  0  0  0  0  0  0
  186.2530  178.2340  145.3090 C   0  0  0  0  0  0  0  0  0  0  0  0
  190.2000  177.9330  143.7830 C   0  0  1  0  0  3  0  0  0  0  0  0
  189.2190  177.1960  147.9160 N   0  0  0  0  0  2  0  0  0  0  0  0
  185.3700  179.0580  146.2090 C   0  0  1  0  0  3  0  0  0  0  0  0
  184.2220  178.3350  146.5380 O   0  0  0  0  0  1  0  0  0  0  0  0
  190.7660  176.2450  146.2470 N   0  0  0  0  0  0  0  0  0  0  0  0
  191.4550  175.8260  147.4630 C   0  0  0  0  0  1  0  0  0  0  0  0
  188.9130  177.1600  144.0550 C   0  0  0  0  0  2  0  0  0  0  0  0
  187.3650  178.5930  147.2300 C   0  0  0  0  0  0  0  0  0  0  0  0
  186.2210  179.2190  147.4340 C   0  0  0  0  0  3  0  0  0  0  0  0
  191.7820  176.9260  145.4520 C   0  0  0  0  0  2  0  0  0  0  0  0
  191.3890  177.0050  143.9810 C   0  0  0  0  0  2  0  0  0  0  0  0
  189.7100  177.2370  146.5260 C   0  0  1  0  0  3  0  0  0  0  0  0
  186.0030  178.5710  142.8750 C   0  0  0  0  0  2  0  0  0  0  0  0
  184.6190  178.3260  143.4300 C   0  0  0  0  0  2  0  0  0  0  0  0
  185.8120  177.5950  144.0230 C   0  0  0  0  0  3  0  0  0  0  0  0
  190.1950  178.4040  142.4420 O   0  0  0  0  0  0  0  0  0  0  0  0
  190.8540  177.1740  140.4290 N   0  0  0  0  0  0  0  0  0  0  0  0
  190.5210  176.3150  139.3050 C   0  0  0  0  0  1  0  0  0  0  0  0
  192.2310  177.6050  140.5930 C   0  0  0  0  0  1  0  0  0  0  0  0
  188.6550  177.2040  141.2150 O   0  0  0  0  0  0  0  0  0  0  0  0
  189.8490  177.5820  141.3650 C   0  0  0  0  0  0  0  0  0  0  0  0
  1 12  1  0  0  0  0
  2 11  1  6  0  0  0
  2  1  1  0  0  0  0
  2 16  1  0  0  0  0
  4  1  2  0  0  0  0
  4  7  1  0  0  0  0
  5 20  1  6  0  0  0
  5 15  1  0  0  0  0
  5 11  1  0  0  0  0
  6  3  1  0  0  0  0
  7  8  1  1  0  0  0
  7 13  1  0  0  0  0
  9 16  1  0  0  0  0
  9 10  1  0  0  0  0
 12 13  2  0  0  0  0
 12  3  1  0  0  0  0
 14  9  1  0  0  0  0
 15 14  1  0  0  0  0
 16  6  1  1  0  0  0
 17 18  1  0  0  0  0
 17 19  1  0  0  0  0
 18 19  1  0  0  0  0
 19  4  1  0  0  0  0
 21 23  1  0  0  0  0
 21 25  1  0  0  0  0
 22 21  1  0  0  0  0
 24 25  2  0  0  0  0
 25 20  1  0  0  0  0
M  END
>  <MODEL>
1

>  <REMARK>
 VINA RESULT:      -9.0      0.000      0.000
  Name = 
  3 active torsions:
  status: ('A' for Active; 'I' for Inactive)
    1  A    between atoms: C_5  and  C_22
    2  A    between atoms: C_6  and  O_15
    3  A    between atoms: O_15  and  C_25
                            x       y       z     vdW  Elec       q    Type
                         _______ _______ _______ _____ _____    ______ ____

>  <TORSDO>
F 3

$$$$
=
 OpenBabel11052412543D

 25 28  0  0  1  0  0  0  0  0999 V2000
  189.0480  177.5650  143.9810 C   0  0  0  0  0  0  0  0  0  0  0  0
  188.6050  177.1290  142.6070 C   0  0  1  0  0  3  0  0  0  0  0  0
  191.4740  177.7880  143.1800 C   0  0  0  0  0  2  0  0  0  0  0  0
  188.3870  177.5390  145.1340 C   0  0  0  0  0  0  0  0  0  0  0  0
  187.2420  178.8610  141.2690 C   0  0  1  0  0  3  0  0  0  0  0  0
  191.0190  176.9410  142.0710 N   0  0  0  0  0  2  0  0  0  0  0  0
  189.3400  177.8150  146.2680 C   0  0  1  0  0  3  0  0  0  0  0  0
  189.3960  176.7100  147.1190 O   0  0  0  0  0  1  0  0  0  0  0  0
  189.3590  176.9330  140.2470 N   0  0  0  0  0  0  0  0  0  0  0  0
  190.5290  176.4920  139.4930 C   0  0  0  0  0  1  0  0  0  0  0  0
  187.2200  177.6780  142.2320 C   0  0  0  0  0  2  0  0  0  0  0  0
  190.4440  177.7920  144.2630 C   0  0  0  0  0  0  0  0  0  0  0  0
  190.6520  177.9580  145.5560 C   0  0  0  0  0  3  0  0  0  0  0  0
  188.8260  178.0620  139.4920 C   0  0  0  0  0  2  0  0  0  0  0  0
  187.3690  178.3400  139.8450 C   0  0  0  0  0  2  0  0  0  0  0  0
  189.7230  177.4470  141.5800 C   0  0  1  0  0  3  0  0  0  0  0  0
  186.0400  178.3040  145.2130 C   0  0  0  0  0  2  0  0  0  0  0  0
  186.3470  177.6900  146.5580 C   0  0  0  0  0  2  0  0  0  0  0  0
  186.9590  177.0990  145.2990 C   0  0  0  0  0  3  0  0  0  0  0  0
  186.0310  179.5950  141.3900 O   0  0  0  0  0  0  0  0  0  0  0  0
  183.7560  178.7200  141.1530 N   0  0  0  0  0  0  0  0  0  0  0  0
  182.5850  178.4430  140.3390 C   0  0  0  0  0  1  0  0  0  0  0  0
  183.7230  178.3700  142.5620 C   0  0  0  0  0  1  0  0  0  0  0  0
  184.9400  179.6320  139.3590 O   0  0  0  0  0  0  0  0  0  0  0  0
  184.9190  179.3340  140.5840 C   0  0  0  0  0  0  0  0  0  0  0  0
  1 12  1  0  0  0  0
  1  4  2  0  0  0  0
  2 11  1  6  0  0  0
  2  1  1  0  0  0  0
  3 12  1  0  0  0  0
  4 19  1  0  0  0  0
  4  7  1  0  0  0  0
  5 20  1  6  0  0  0
  5 11  1  0  0  0  0
  6  3  1  0  0  0  0
  7  8  1  1  0  0  0
  9 16  1  0  0  0  0
 10  9  1  0  0  0  0
 12 13  2  0  0  0  0
 13  7  1  0  0  0  0
 14 15  1  0  0  0  0
 14  9  1  0  0  0  0
 15  5  1  0  0  0  0
 16  6  1  1  0  0  0
 16  2  1  0  0  0  0
 17 19  1  0  0  0  0
 17 18  1  0  0  0  0
 19 18  1  0  0  0  0
 21 23  1  0  0  0  0
 22 21  1  0  0  0  0
 24 25  2  0  0  0  0
 25 21  1  0  0  0  0
 25 20  1  0  0  0  0
M  END
>  <MODEL>
2

>  <REMARK>
 VINA RESULT:      -8.8      2.631      5.312
  Name = 
  3 active torsions:
  status: ('A' for Active; 'I' for Inactive)
    1  A    between atoms: C_5  and  C_22
    2  A    between atoms: C_6  and  O_15
    3  A    between atoms: O_15  and  C_25
                            x       y       z     vdW  Elec       q    Type
                         _______ _______ _______ _____ _____    ______ ____

>  <TORSDO>
F 3

$$$$
=
 OpenBabel11052412543D

 25 28  0  0  1  0  0  0  0  0999 V2000
  188.2340  177.7310  144.8810 C   0  0  0  0  0  0  0  0  0  0  0  0
  188.0250  177.2380  143.4720 C   0  0  1  0  0  3  0  0  0  0  0  0
  190.7630  177.9060  144.4950 C   0  0  0  0  0  2  0  0  0  0  0  0
  187.3860  177.7590  145.9050 C   0  0  0  0  0  0  0  0  0  0  0  0
  186.9300  178.9170  141.8500 C   0  0  1  0  0  3  0  0  0  0  0  0
  190.4920  177.0140  143.3610 N   0  0  0  0  0  2  0  0  0  0  0  0
  188.1370  178.0790  147.1720 C   0  0  1  0  0  3  0  0  0  0  0  0
  188.0350  177.0120  148.0650 O   0  0  0  0  0  1  0  0  0  0  0  0
  189.1650  176.9350  141.2840 N   0  0  0  0  0  0  0  0  0  0  0  0
  190.4400  176.4560  140.7590 C   0  0  0  0  0  1  0  0  0  0  0  0
  186.7300  177.7780  142.8440 C   0  0  0  0  0  2  0  0  0  0  0  0
  189.5640  177.9630  145.3860 C   0  0  0  0  0  0  0  0  0  0  0  0
  189.5530  178.1840  146.6870 C   0  0  0  0  0  3  0  0  0  0  0  0
  188.7820  178.0330  140.4030 C   0  0  0  0  0  2  0  0  0  0  0  0
  187.2900  178.3340  140.4910 C   0  0  0  0  0  2  0  0  0  0  0  0
  189.3040  177.5060  142.6370 C   0  0  1  0  0  3  0  0  0  0  0  0
  185.0830  178.5140  145.4320 C   0  0  0  0  0  2  0  0  0  0  0  0
  185.1130  178.0750  146.8770 C   0  0  0  0  0  2  0  0  0  0  0  0
  185.9460  177.3350  145.8440 C   0  0  0  0  0  3  0  0  0  0  0  0
  185.7260  179.6620  141.7330 O   0  0  0  0  0  0  0  0  0  0  0  0
  183.5150  178.8050  141.1210 N   0  0  0  0  0  0  0  0  0  0  0  0
  182.5030  178.5110  140.1200 C   0  0  0  0  0  1  0  0  0  0  0  0
  183.2240  178.5080  142.5130 C   0  0  0  0  0  1  0  0  0  0  0  0
  185.0160  179.6380  139.5390 O   0  0  0  0  0  0  0  0  0  0  0  0
  184.7710  179.3840  140.7500 C   0  0  0  0  0  0  0  0  0  0  0  0
  1 12  1  0  0  0  0
  1  4  2  0  0  0  0
  2 11  1  6  0  0  0
  2  1  1  0  0  0  0
  3 12  1  0  0  0  0
  4  7  1  0  0  0  0
  5 20  1  6  0  0  0
  5 11  1  0  0  0  0
  6  3  1  0  0  0  0
  7  8  1  1  0  0  0
  9 16  1  0  0  0  0
 10  9  1  0  0  0  0
 12 13  2  0  0  0  0
 13  7  1  0  0  0  0
 14 15  1  0  0  0  0
 14  9  1  0  0  0  0
 15  5  1  0  0  0  0
 16  6  1  1  0  0  0
 16  2  1  0  0  0  0
 17 19  1  0  0  0  0
 17 18  1  0  0  0  0
 19  4  1  0  0  0  0
 19 18  1  0  0  0  0
 21 23  1  0  0  0  0
 22 21  1  0  0  0  0
 24 25  2  0  0  0  0
 25 21  1  0  0  0  0
 25 20  1  0  0  0  0
M  END
>  <MODEL>
3

>  <REMARK>
 VINA RESULT:      -8.6      2.660      4.842
  Name = 
  3 active torsions:
  status: ('A' for Active; 'I' for Inactive)
    1  A    between atoms: C_5  and  C_22
    2  A    between atoms: C_6  and  O_15
    3  A    between atoms: O_15  and  C_25
                            x       y       z     vdW  Elec       q    Type
                         _______ _______ _______ _____ _____    ______ ____

>  <TORSDO>
F 3

$$$$
=
 OpenBabel11052412543D

 25 28  0  0  1  0  0  0  0  0999 V2000
  189.0740  177.5490  143.7600 C   0  0  0  0  0  0  0  0  0  0  0  0
  188.5080  177.1080  142.4340 C   0  0  1  0  0  3  0  0  0  0  0  0
  191.4120  177.7960  142.7360 C   0  0  0  0  0  2  0  0  0  0  0  0
  188.5230  177.5170  144.9700 C   0  0  0  0  0  0  0  0  0  0  0  0
  187.0090  178.8250  141.2290 C   0  0  1  0  0  3  0  0  0  0  0  0
  190.8630  176.9440  141.6740 N   0  0  0  0  0  2  0  0  0  0  0  0
  189.5760  177.8030  146.0100 C   0  0  1  0  0  3  0  0  0  0  0  0
  189.7230  176.6990  146.8510 O   0  0  0  0  0  1  0  0  0  0  0  0
  189.0400  176.9180  140.0130 N   0  0  0  0  0  0  0  0  0  0  0  0
  190.1390  176.4890  139.1530 C   0  0  0  0  0  1  0  0  0  0  0  0
  187.0890  177.6430  142.1900 C   0  0  0  0  0  2  0  0  0  0  0  0
  190.4870  177.7900  143.9100 C   0  0  0  0  0  0  0  0  0  0  0  0
  190.8140  177.9590  145.1780 C   0  0  0  0  0  3  0  0  0  0  0  0
  188.4270  178.0410  139.3120 C   0  0  0  0  0  2  0  0  0  0  0  0
  187.0070  178.3050  139.8000 C   0  0  0  0  0  2  0  0  0  0  0  0
  189.5220  177.4370  141.3060 C   0  0  1  0  0  3  0  0  0  0  0  0
  186.1810  178.2540  145.2330 C   0  0  0  0  0  2  0  0  0  0  0  0
  186.6120  177.6770  146.5600 C   0  0  0  0  0  2  0  0  0  0  0  0
  187.1220  177.0630  145.2680 C   0  0  0  0  0  3  0  0  0  0  0  0
  185.8080  179.5470  141.4640 O   0  0  0  0  0  0  0  0  0  0  0  0
  183.6810  179.0550  140.3530 N   0  0  0  0  0  0  0  0  0  0  0  0
  182.3780  178.4130  140.3410 C   0  0  0  0  0  1  0  0  0  0  0  0
  184.0870  179.8290  139.1920 C   0  0  0  0  0  1  0  0  0  0  0  0
  184.1950  178.2520  142.4840 O   0  0  0  0  0  0  0  0  0  0  0  0
  184.5560  178.9240  141.4800 C   0  0  0  0  0  0  0  0  0  0  0  0
  1 12  1  0  0  0  0
  1  4  2  0  0  0  0
  2 11  1  6  0  0  0
  2  1  1  0  0  0  0
  3 12  1  0  0  0  0
  4 19  1  0  0  0  0
  4  7  1  0  0  0  0
  5 20  1  1  0  0  0
  5 11  1  0  0  0  0
  6  3  1  0  0  0  0
  7  8  1  1  0  0  0
  9 16  1  0  0  0  0
 10  9  1  0  0  0  0
 12 13  2  0  0  0  0
 13  7  1  0  0  0  0
 14 15  1  0  0  0  0
 14  9  1  0  0  0  0
 15  5  1  0  0  0  0
 16  6  1  1  0  0  0
 16  2  1  0  0  0  0
 17 19  1  0  0  0  0
 17 18  1  0  0  0  0
 19 18  1  0  0  0  0
 20 25  1  0  0  0  0
 21 25  1  0  0  0  0
 22 21  1  0  0  0  0
 23 21  1  0  0  0  0
 25 24  2  0  0  0  0
M  END
>  <MODEL>
4

>  <REMARK>
 VINA RESULT:      -8.3      2.721      5.501
  Name = 
  3 active torsions:
  status: ('A' for Active; 'I' for Inactive)
    1  A    between atoms: C_5  and  C_22
    2  A    between atoms: C_6  and  O_15
    3  A    between atoms: O_15  and  C_25
                            x       y       z     vdW  Elec       q    Type
                         _______ _______ _______ _____ _____    ______ ____

>  <TORSDO>
F 3

$$$$
=
 OpenBabel11052412543D

 25 28  0  0  1  0  0  0  0  0999 V2000
  187.1840  177.9090  144.8230 C   0  0  0  0  0  0  0  0  0  0  0  0
  187.8810  177.0340  143.8130 C   0  0  1  0  0  3  0  0  0  0  0  0
  189.1940  177.7660  146.4080 C   0  0  0  0  0  2  0  0  0  0  0  0
  185.9160  178.3080  144.8680 C   0  0  0  0  0  0  0  0  0  0  0  0
  188.7220  178.2270  141.6880 C   0  0  1  0  0  3  0  0  0  0  0  0
  189.5520  176.5980  145.5930 N   0  0  0  0  0  2  0  0  0  0  0  0
  185.6330  178.9350  146.2090 C   0  0  1  0  0  3  0  0  0  0  0  0
  184.6580  178.1970  146.8810 O   0  0  0  0  0  1  0  0  0  0  0  0
  190.0730  176.0010  143.2580 N   0  0  0  0  0  0  0  0  0  0  0  0
  191.1610  175.2910  143.9230 C   0  0  0  0  0  1  0  0  0  0  0  0
  187.5920  177.4570  142.3650 C   0  0  0  0  0  2  0  0  0  0  0  0
  187.7910  178.1790  146.1020 C   0  0  0  0  0  0  0  0  0  0  0  0
  186.9460  178.7810  146.9180 C   0  0  0  0  0  3  0  0  0  0  0  0
  190.7220  176.8100  142.2310 C   0  0  0  0  0  2  0  0  0  0  0  0
  189.7420  177.2370  141.1450 C   0  0  0  0  0  2  0  0  0  0  0  0
  189.3890  176.9390  144.1670 C   0  0  1  0  0  3  0  0  0  0  0  0
  184.7500  179.1640  142.8660 C   0  0  0  0  0  2  0  0  0  0  0  0
  183.6990  178.9510  143.9300 C   0  0  0  0  0  2  0  0  0  0  0  0
  184.8770  177.9960  143.8290 C   0  0  0  0  0  3  0  0  0  0  0  0
  188.1970  178.9920  140.6120 O   0  0  0  0  0  0  0  0  0  0  0  0
  187.0530  178.1940  138.5990 N   0  0  0  0  0  0  0  0  0  0  0  0
  187.0870  177.7380  137.2200 C   0  0  0  0  0  1  0  0  0  0  0  0
  185.7670  178.2890  139.2690 C   0  0  0  0  0  1  0  0  0  0  0  0
  189.3700  178.4650  138.6970 O   0  0  0  0  0  0  0  0  0  0  0  0
  188.2580  178.5520  139.2860 C   0  0  0  0  0  0  0  0  0  0  0  0
  1  4  2  0  0  0  0
  1 12  1  0  0  0  0
  2 11  1  6  0  0  0
  2 16  1  0  0  0  0
  2  1  1  0  0  0  0
  4  7  1  0  0  0  0
  5 20  1  6  0  0  0
  5 11  1  0  0  0  0
  6  3  1  0  0  0  0
  7  8  1  1  0  0  0
  7 13  1  0  0  0  0
  9 10  1  0  0  0  0
  9 16  1  0  0  0  0
 12  3  1  0  0  0  0
 12 13  2  0  0  0  0
 14  9  1  0  0  0  0
 15  5  1  0  0  0  0
 15 14  1  0  0  0  0
 16  6  1  1  0  0  0
 17 19  1  0  0  0  0
 17 18  1  0  0  0  0
 19 18  1  0  0  0  0
 19  4  1  0  0  0  0
 21 23  1  0  0  0  0
 21 25  1  0  0  0  0
 22 21  1  0  0  0  0
 24 25  2  0  0  0  0
 25 20  1  0  0  0  0
M  END
>  <MODEL>
5

>  <REMARK>
 VINA RESULT:      -8.3      2.000      2.751
  Name = 
  3 active torsions:
  status: ('A' for Active; 'I' for Inactive)
    1  A    between atoms: C_5  and  C_22
    2  A    between atoms: C_6  and  O_15
    3  A    between atoms: O_15  and  C_25
                            x       y       z     vdW  Elec       q    Type
                         _______ _______ _______ _____ _____    ______ ____

>  <TORSDO>
F 3

$$$$
=
 OpenBabel11052412543D

 25 28  0  0  1  0  0  0  0  0999 V2000
  185.7980  178.3540  144.4150 C   0  0  0  0  0  0  0  0  0  0  0  0
  187.0060  177.4550  144.4780 C   0  0  1  0  0  3  0  0  0  0  0  0
  186.0850  178.9930  146.8820 C   0  0  0  0  0  2  0  0  0  0  0  0
  184.8740  178.4690  143.4660 C   0  0  0  0  0  0  0  0  0  0  0  0
  189.1080  178.3170  143.2600 C   0  0  1  0  0  3  0  0  0  0  0  0
  186.9150  177.7840  146.9340 N   0  0  0  0  0  2  0  0  0  0  0  0
  183.7220  179.2930  143.9810 C   0  0  1  0  0  3  0  0  0  0  0  0
  182.5580  178.5220  143.9960 O   0  0  0  0  0  1  0  0  0  0  0  0
  188.9420  176.8270  145.9050 N   0  0  0  0  0  0  0  0  0  0  0  0
  189.2330  176.5290  147.3030 C   0  0  0  0  0  1  0  0  0  0  0  0
  187.8320  177.4850  143.1820 C   0  0  0  0  0  2  0  0  0  0  0  0
  185.3150  179.0170  145.6010 C   0  0  0  0  0  0  0  0  0  0  0  0
  184.1410  179.5830  145.3920 C   0  0  0  0  0  3  0  0  0  0  0  0
  190.1280  177.5180  145.4100 C   0  0  0  0  0  2  0  0  0  0  0  0
  190.2110  177.4790  143.8880 C   0  0  0  0  0  2  0  0  0  0  0  0
  187.8140  177.7670  145.7640 C   0  0  1  0  0  3  0  0  0  0  0  0
  185.1470  178.6920  141.0210 C   0  0  0  0  0  2  0  0  0  0  0  0
  183.7460  178.1830  141.2620 C   0  0  0  0  0  2  0  0  0  0  0  0
  184.8810  177.7240  142.1610 C   0  0  0  0  0  3  0  0  0  0  0  0
  189.5040  178.7020  141.9500 O   0  0  0  0  0  0  0  0  0  0  0  0
  190.5920  177.2610  140.2960 N   0  0  0  0  0  0  0  0  0  0  0  0
  190.5180  176.3510  139.1650 C   0  0  0  0  0  1  0  0  0  0  0  0
  191.8960  177.5720  140.8550 C   0  0  0  0  0  1  0  0  0  0  0  0
  188.2770  177.5590  140.3660 O   0  0  0  0  0  0  0  0  0  0  0  0
  189.4060  177.8330  140.8580 C   0  0  0  0  0  0  0  0  0  0  0  0
  1  2  1  0  0  0  0
  1 12  1  0  0  0  0
  2 11  1  6  0  0  0
  2 16  1  0  0  0  0
  3  6  1  0  0  0  0
  4  7  1  0  0  0  0
  4  1  2  0  0  0  0
  5 20  1  6  0  0  0
  5 15  1  0  0  0  0
  7  8  1  1  0  0  0
  7 13  1  0  0  0  0
  9 10  1  0  0  0  0
 11  5  1  0  0  0  0
 12  3  1  0  0  0  0
 13 12  2  0  0  0  0
 14  9  1  0  0  0  0
 15 14  1  0  0  0  0
 16  9  1  0  0  0  0
 16  6  1  1  0  0  0
 17 18  1  0  0  0  0
 17 19  1  0  0  0  0
 18 19  1  0  0  0  0
 19  4  1  0  0  0  0
 21 23  1  0  0  0  0
 21 25  1  0  0  0  0
 22 21  1  0  0  0  0
 24 25  2  0  0  0  0
 25 20  1  0  0  0  0
M  END
>  <MODEL>
6

>  <REMARK>
 VINA RESULT:      -7.9      1.395      1.997
  Name = 
  3 active torsions:
  status: ('A' for Active; 'I' for Inactive)
    1  A    between atoms: C_5  and  C_22
    2  A    between atoms: C_6  and  O_15
    3  A    between atoms: O_15  and  C_25
                            x       y       z     vdW  Elec       q    Type
                         _______ _______ _______ _____ _____    ______ ____

>  <TORSDO>
F 3

$$$$
=
 OpenBabel11052412543D

 25 28  0  0  1  0  0  0  0  0999 V2000
  185.2590  178.5320  142.0940 C   0  0  0  0  0  0  0  0  0  0  0  0
  186.7060  178.7540  141.7340 C   0  0  1  0  0  3  0  0  0  0  0  0
  184.6340  178.2570  139.6230 C   0  0  0  0  0  2  0  0  0  0  0  0
  184.6380  178.7070  143.2570 C   0  0  0  0  0  0  0  0  0  0  0  0
  188.3090  176.8140  142.2920 C   0  0  1  0  0  3  0  0  0  0  0  0
  185.9210  178.9240  139.3870 N   0  0  0  0  0  2  0  0  0  0  0  0
  183.1480  178.6220  143.0500 C   0  0  1  0  0  3  0  0  0  0  0  0
  182.5520  179.8390  143.3850 O   0  0  0  0  0  1  0  0  0  0  0  0
  188.3250  178.6280  139.8510 N   0  0  0  0  0  0  0  0  0  0  0  0
  188.4070  178.9840  138.4390 C   0  0  0  0  0  1  0  0  0  0  0  0
  187.6710  178.1230  142.7490 C   0  0  0  0  0  2  0  0  0  0  0  0
  184.2610  178.3830  141.0640 C   0  0  0  0  0  0  0  0  0  0  0  0
  183.0420  178.4100  141.5690 C   0  0  0  0  0  3  0  0  0  0  0  0
  189.0850  177.3890  139.9740 C   0  0  0  0  0  2  0  0  0  0  0  0
  189.5120  177.1280  141.4150 C   0  0  0  0  0  2  0  0  0  0  0  0
  186.9430  178.3200  140.2630 C   0  0  1  0  0  3  0  0  0  0  0  0
  185.7800  177.9040  145.2950 C   0  0  0  0  0  2  0  0  0  0  0  0
  184.5350  178.6300  145.7460 C   0  0  0  0  0  2  0  0  0  0  0  0
  185.3050  179.1300  144.5360 C   0  0  0  0  0  3  0  0  0  0  0  0
  188.7400  176.0750  143.4270 O   0  0  0  0  0  0  0  0  0  0  0  0
  190.3260  176.7970  145.1480 N   0  0  0  0  0  0  0  0  0  0  0  0
  191.6800  176.8760  145.6680 C   0  0  0  0  0  1  0  0  0  0  0  0
  189.2470  177.3890  145.9200 C   0  0  0  0  0  1  0  0  0  0  0  0
  190.9960  175.6330  143.2380 O   0  0  0  0  0  0  0  0  0  0  0  0
  190.0530  176.1420  143.9030 C   0  0  0  0  0  0  0  0  0  0  0  0
  1  4  2  0  0  0  0
  2  1  1  0  0  0  0
  2 11  1  1  0  0  0
  3 12  1  0  0  0  0
  4 19  1  0  0  0  0
  5 11  1  0  0  0  0
  5 20  1  1  0  0  0
  6  3  1  0  0  0  0
  7  4  1  0  0  0  0
  7  8  1  6  0  0  0
  9 14  1  0  0  0  0
  9 16  1  0  0  0  0
 10  9  1  0  0  0  0
 12 13  2  0  0  0  0
 12  1  1  0  0  0  0
 13  7  1  0  0  0  0
 14 15  1  0  0  0  0
 15  5  1  0  0  0  0
 16  6  1  6  0  0  0
 16  2  1  0  0  0  0
 17 18  1  0  0  0  0
 19 17  1  0  0  0  0
 19 18  1  0  0  0  0
 20 25  1  0  0  0  0
 21 22  1  0  0  0  0
 21 23  1  0  0  0  0
 24 25  2  0  0  0  0
 25 21  1  0  0  0  0
M  END
>  <MODEL>
7

>  <REMARK>
 VINA RESULT:      -7.7      2.326      5.482
  Name = 
  3 active torsions:
  status: ('A' for Active; 'I' for Inactive)
    1  A    between atoms: C_5  and  C_22
    2  A    between atoms: C_6  and  O_15
    3  A    between atoms: O_15  and  C_25
                            x       y       z     vdW  Elec       q    Type
                         _______ _______ _______ _____ _____    ______ ____

>  <TORSDO>
F 3

$$$$
=
 OpenBabel11052412543D

 25 28  0  0  1  0  0  0  0  0999 V2000
  187.8870  177.6270  142.2920 C   0  0  0  0  0  0  0  0  0  0  0  0
  186.7940  178.6000  142.6520 C   0  0  1  0  0  3  0  0  0  0  0  0
  187.7110  176.5030  144.5900 C   0  0  0  0  0  2  0  0  0  0  0  0
  188.7210  177.6330  141.2560 C   0  0  0  0  0  0  0  0  0  0  0  0
  184.5260  178.2180  141.4870 C   0  0  1  0  0  3  0  0  0  0  0  0
  187.0260  177.7450  144.9690 N   0  0  0  0  0  2  0  0  0  0  0  0
  189.8100  176.6150  141.4800 C   0  0  1  0  0  3  0  0  0  0  0  0
  191.0490  177.2530  141.5430 O   0  0  0  0  0  1  0  0  0  0  0  0
  185.0480  179.0840  144.3540 N   0  0  0  0  0  0  0  0  0  0  0  0
  184.8940  179.1010  145.8050 C   0  0  0  0  0  1  0  0  0  0  0  0
  185.8780  178.9260  141.4630 C   0  0  0  0  0  2  0  0  0  0  0  0
  188.3780  176.6830  143.2650 C   0  0  0  0  0  0  0  0  0  0  0  0
  189.4650  176.0690  142.8340 C   0  0  0  0  0  3  0  0  0  0  0  0
  183.7600  178.6290  143.8420 C   0  0  0  0  0  2  0  0  0  0  0  0
  183.5710  179.0010  142.3760 C   0  0  0  0  0  2  0  0  0  0  0  0
  186.0520  178.0960  143.9170 C   0  0  1  0  0  3  0  0  0  0  0  0
  187.9200  178.0800  138.9630 C   0  0  0  0  0  2  0  0  0  0  0  0
  189.4290  178.1090  138.9150 C   0  0  0  0  0  2  0  0  0  0  0  0
  188.7020  178.6380  140.1390 C   0  0  0  0  0  3  0  0  0  0  0  0
  183.9960  178.1620  140.1690 O   0  0  0  0  0  0  0  0  0  0  0  0
  182.2890  179.5660  139.1160 N   0  0  0  0  0  0  0  0  0  0  0  0
  181.9100  180.7590  138.3780 C   0  0  0  0  0  1  0  0  0  0  0  0
  181.2490  178.6340  139.5160 C   0  0  0  0  0  1  0  0  0  0  0  0
  184.5550  180.1280  139.1010 O   0  0  0  0  0  0  0  0  0  0  0  0
  183.6580  179.3140  139.4540 C   0  0  0  0  0  0  0  0  0  0  0  0
  1  2  1  0  0  0  0
  1 12  1  0  0  0  0
  2 11  1  6  0  0  0
  2 16  1  0  0  0  0
  3  6  1  0  0  0  0
  4  7  1  0  0  0  0
  4  1  2  0  0  0  0
  5 20  1  6  0  0  0
  5 15  1  0  0  0  0
  7  8  1  1  0  0  0
  7 13  1  0  0  0  0
  9 10  1  0  0  0  0
 11  5  1  0  0  0  0
 12  3  1  0  0  0  0
 13 12  2  0  0  0  0
 14  9  1  0  0  0  0
 15 14  1  0  0  0  0
 16  9  1  0  0  0  0
 16  6  1  1  0  0  0
 17 19  1  0  0  0  0
 18 17  1  0  0  0  0
 18 19  1  0  0  0  0
 19  4  1  0  0  0  0
 21 25  1  0  0  0  0
 21 23  1  0  0  0  0
 22 21  1  0  0  0  0
 24 25  2  0  0  0  0
 25 20  1  0  0  0  0
M  END
>  <MODEL>
8

>  <REMARK>
 VINA RESULT:      -7.6      3.520      6.585
  Name = 
  3 active torsions:
  status: ('A' for Active; 'I' for Inactive)
    1  A    between atoms: C_5  and  C_22
    2  A    between atoms: C_6  and  O_15
    3  A    between atoms: O_15  and  C_25
                            x       y       z     vdW  Elec       q    Type
                         _______ _______ _______ _____ _____    ______ ____

>  <TORSDO>
F 3

$$$$
=
 OpenBabel11052412543D

 25 28  0  0  1  0  0  0  0  0999 V2000
  185.1530  178.4360  143.5290 C   0  0  0  0  0  0  0  0  0  0  0  0
  186.4090  177.6190  143.3630 C   0  0  1  0  0  3  0  0  0  0  0  0
  185.8370  179.0950  145.9110 C   0  0  0  0  0  2  0  0  0  0  0  0
  184.0690  178.4900  142.7610 C   0  0  0  0  0  0  0  0  0  0  0  0
  188.1980  178.6190  141.7980 C   0  0  1  0  0  3  0  0  0  0  0  0
  186.7410  177.9440  145.8000 N   0  0  0  0  0  2  0  0  0  0  0  0
  182.9760  179.2350  143.4840 C   0  0  1  0  0  3  0  0  0  0  0  0
  181.8870  178.3890  143.6990 O   0  0  0  0  0  1  0  0  0  0  0  0
  188.6070  177.1220  144.4130 N   0  0  0  0  0  0  0  0  0  0  0  0
  189.1640  176.8450  145.7330 C   0  0  0  0  0  1  0  0  0  0  0  0
  186.9850  177.7030  141.9410 C   0  0  0  0  0  2  0  0  0  0  0  0
  184.8500  179.0670  144.7890 C   0  0  0  0  0  0  0  0  0  0  0  0
  183.6230  179.5530  144.8000 C   0  0  0  0  0  3  0  0  0  0  0  0
  189.6370  177.8900  143.7210 C   0  0  0  0  0  2  0  0  0  0  0  0
  189.4480  177.8560  142.2090 C   0  0  0  0  0  2  0  0  0  0  0  0
  187.4140  177.9850  144.4870 C   0  0  1  0  0  3  0  0  0  0  0  0
  183.9880  178.7150  140.3030 C   0  0  0  0  0  2  0  0  0  0  0  0
  182.6360  178.2040  140.7420 C   0  0  0  0  0  2  0  0  0  0  0  0
  183.8900  177.7460  141.4680 C   0  0  0  0  0  3  0  0  0  0  0  0
  188.3250  179.0280  140.4430 O   0  0  0  0  0  0  0  0  0  0  0  0
  188.1620  177.7180  138.3800 N   0  0  0  0  0  0  0  0  0  0  0  0
  188.7720  176.8820  137.3600 C   0  0  0  0  0  1  0  0  0  0  0  0
  186.7510  178.0420  138.2630 C   0  0  0  0  0  1  0  0  0  0  0  0
  190.1590  177.9340  139.5710 O   0  0  0  0  0  0  0  0  0  0  0  0
  188.9350  178.2210  139.4770 C   0  0  0  0  0  0  0  0  0  0  0  0
  1 12  1  0  0  0  0
  2 11  1  6  0  0  0
  2  1  1  0  0  0  0
  2 16  1  0  0  0  0
  4  7  1  0  0  0  0
  4  1  2  0  0  0  0
  5 20  1  6  0  0  0
  5 11  1  0  0  0  0
  5 15  1  0  0  0  0
  6  3  1  0  0  0  0
  7  8  1  1  0  0  0
  7 13  1  0  0  0  0
  9 16  1  0  0  0  0
  9 10  1  0  0  0  0
 12 13  2  0  0  0  0
 12  3  1  0  0  0  0
 14  9  1  0  0  0  0
 15 14  1  0  0  0  0
 16  6  1  1  0  0  0
 17 18  1  0  0  0  0
 17 19  1  0  0  0  0
 18 19  1  0  0  0  0
 19  4  1  0  0  0  0
 21 25  1  0  0  0  0
 22 21  1  0  0  0  0
 23 21  1  0  0  0  0
 25 24  2  0  0  0  0
 25 20  1  0  0  0  0
M  END
>  <MODEL>
9

>  <REMARK>
 VINA RESULT:      -7.3      2.315      3.315
  Name = 
  3 active torsions:
  status: ('A' for Active; 'I' for Inactive)
    1  A    between atoms: C_5  and  C_22
    2  A    between atoms: C_6  and  O_15
    3  A    between atoms: O_15  and  C_25
                            x       y       z     vdW  Elec       q    Type
                         _______ _______ _______ _____ _____    ______ ____

>  <TORSDO>
F 3

$$$$
