=
 OpenBabel11052413433D

 27 30  0  0  1  0  0  0  0  0999 V2000
  181.6270  178.3190  140.7270 C   0  0  2  0  0  3  0  0  0  0  0  0
  181.4170  180.5590  139.4620 O   0  0  0  0  0  1  0  0  0  0  0  0
  181.2450  174.7980  138.4140 C   0  0  0  0  0  3  0  0  0  0  0  0
  181.5240  177.2470  139.7210 N   0  0  1  0  0  0  0  0  0  0  0  0
  182.6960  176.3620  139.7490 C   0  0  0  0  0  2  0  0  0  0  0  0
  180.3580  179.8840  142.2430 C   0  0  0  0  0  1  0  0  0  0  0  0
  179.0780  177.1840  140.2630 C   0  0  0  0  0  2  0  0  0  0  0  0
  182.6290  175.3790  138.5760 C   0  0  0  0  0  2  0  0  0  0  0  0
  179.1640  178.5450  139.5960 C   0  0  0  0  0  2  0  0  0  0  0  0
  180.1890  175.2930  139.0760 C   0  0  0  0  0  3  0  0  0  0  0  0
  180.3660  179.6560  140.4390 P   0  0  0  0  0  0  0  0  0  0  0  0
  180.3770  176.3970  140.0840 C   0  0  1  0  0  3  0  0  0  0  0  0
  178.9310  181.6270  141.5610 O   0  0  0  0  0  1  0  0  0  0  0  0
  179.4550  181.9500  139.3600 O   0  0  0  0  0  1  0  0  0  0  0  0
  179.1120  180.9990  140.3270 C   0  0  0  0  0  3  0  0  0  0  0  0
  183.0450  178.9040  140.8700 C   0  0  0  0  0  2  0  0  0  0  0  0
  183.6570  178.6560  142.2170 C   0  0  0  0  0  0  0  0  0  0  0  0
  185.6390  178.3010  145.9380 C   0  0  0  0  0  3  0  0  0  0  0  0
  187.5700  177.5280  147.1600 O   0  0  0  0  0  1  0  0  0  0  0  0
  182.8280  178.6920  143.4820 C   0  0  0  0  0  2  0  0  0  0  0  0
  186.8760  177.5610  143.5340 C   0  0  0  0  0  3  0  0  0  0  0  0
  187.5330  177.3590  144.7530 C   0  0  0  0  0  3  0  0  0  0  0  0
  184.9180  178.3360  142.2720 N   0  0  0  0  0  0  0  0  0  0  0  0
  186.9140  177.7260  145.9540 C   0  0  0  0  0  0  0  0  0  0  0  0
  184.9750  178.4900  144.7230 C   0  0  0  0  0  0  0  0  0  0  0  0
  185.5970  178.1230  143.5170 C   0  0  0  0  0  0  0  0  0  0  0  0
  183.6470  179.1800  144.6780 C   0  0  0  0  0  2  0  0  0  0  0  0
  1 16  1  6  0  0  0
  2 11  1  0  0  0  0
  3  8  1  0  0  0  0
  3 10  2  0  0  0  0
  4  5  1  1  0  0  0
  4 12  1  0  0  0  0
  4  1  1  0  0  0  0
  8  5  1  0  0  0  0
  9  7  1  0  0  0  0
  9 11  1  0  0  0  0
 11  1  1  0  0  0  0
 11  6  1  0  0  0  0
 12 10  1  6  0  0  0
 12  7  1  0  0  0  0
 14 15  1  0  0  0  0
 15 11  1  0  0  0  0
 15 13  1  0  0  0  0
 16 17  1  0  0  0  0
 17 23  2  0  0  0  0
 17 20  1  0  0  0  0
 18 24  1  0  0  0  0
 20 27  1  0  0  0  0
 21 22  1  0  0  0  0
 22 24  2  0  0  0  0
 23 26  1  0  0  0  0
 24 19  1  0  0  0  0
 25 18  2  0  0  0  0
 26 21  2  0  0  0  0
 26 25  1  0  0  0  0
 27 25  1  0  0  0  0
M  END
>  <MODEL>
1

>  <REMARK>
 VINA RESULT:      -7.7      0.000      0.000
  Name = 
  3 active torsions:
  status: ('A' for Active; 'I' for Inactive)
    1  A    between atoms: C_1  and  C_15
    2  A    between atoms: C_2  and  C_15
    3  A    between atoms: C_20  and  P_26
                            x       y       z     vdW  Elec       q    Type
                         _______ _______ _______ _____ _____    ______ ____

>  <TORSDO>
F 3

$$$$
=
 OpenBabel11052413433D

 27 30  0  0  1  0  0  0  0  0999 V2000
  189.1090  177.0120  138.2270 C   0  0  2  0  0  3  0  0  0  0  0  0
  188.3630  178.7240  136.4450 O   0  0  0  0  0  1  0  0  0  0  0  0
  192.8200  175.0910  137.5680 C   0  0  0  0  0  3  0  0  0  0  0  0
  190.4410  176.5260  137.8230 N   0  0  1  0  0  0  0  0  0  0  0  0
  191.4390  176.7370  138.8790 C   0  0  0  0  0  2  0  0  0  0  0  0
  186.6180  176.7320  137.9610 C   0  0  0  0  0  1  0  0  0  0  0  0
  189.2380  174.6400  136.6930 C   0  0  0  0  0  2  0  0  0  0  0  0
  192.8330  176.3830  138.3500 C   0  0  0  0  0  2  0  0  0  0  0  0
  188.7960  175.7970  135.8150 C   0  0  0  0  0  2  0  0  0  0  0  0
  191.6750  174.4990  137.2020 C   0  0  0  0  0  3  0  0  0  0  0  0
  187.9460  177.1150  136.7790 P   0  0  0  0  0  0  0  0  0  0  0  0
  190.3520  175.0650  137.6490 C   0  0  1  0  0  3  0  0  0  0  0  0
  185.3800  177.2320  135.9990 O   0  0  0  0  0  1  0  0  0  0  0  0
  186.8630  178.2570  134.5940 O   0  0  0  0  0  1  0  0  0  0  0  0
  186.6670  177.1740  135.4570 C   0  0  0  0  0  3  0  0  0  0  0  0
  189.1440  178.3350  139.0170 C   0  0  0  0  0  2  0  0  0  0  0  0
  188.5520  178.2230  140.3900 C   0  0  0  0  0  0  0  0  0  0  0  0
  186.5770  177.6490  144.0870 C   0  0  0  0  0  3  0  0  0  0  0  0
  184.7640  178.2660  145.5540 O   0  0  0  0  0  1  0  0  0  0  0  0
  189.3420  177.6560  141.5490 C   0  0  0  0  0  2  0  0  0  0  0  0
  185.5130  179.3030  142.0910 C   0  0  0  0  0  3  0  0  0  0  0  0
  184.8720  179.1970  143.3300 C   0  0  0  0  0  3  0  0  0  0  0  0
  187.3540  178.6940  140.5850 N   0  0  0  0  0  0  0  0  0  0  0  0
  185.4050  178.3720  144.3280 C   0  0  0  0  0  0  0  0  0  0  0  0
  187.2270  177.7660  142.8560 C   0  0  0  0  0  0  0  0  0  0  0  0
  186.6920  178.5910  141.8530 C   0  0  0  0  0  0  0  0  0  0  0  0
  188.4360  176.9360  142.5490 C   0  0  0  0  0  2  0  0  0  0  0  0
  1 16  1  6  0  0  0
  2 11  1  0  0  0  0
  3  8  1  0  0  0  0
  4  1  1  0  0  0  0
  4  5  1  1  0  0  0
  8  5  1  0  0  0  0
  9  7  1  0  0  0  0
  9 11  1  0  0  0  0
 10  3  2  0  0  0  0
 10 12  1  0  0  0  0
 11  6  1  0  0  0  0
 11  1  1  0  0  0  0
 12  7  1  6  0  0  0
 12  4  1  0  0  0  0
 14 15  1  0  0  0  0
 15 13  1  0  0  0  0
 15 11  1  0  0  0  0
 16 17  1  0  0  0  0
 17 23  2  0  0  0  0
 17 20  1  0  0  0  0
 18 24  1  0  0  0  0
 20 27  1  0  0  0  0
 21 22  1  0  0  0  0
 22 24  2  0  0  0  0
 23 26  1  0  0  0  0
 24 19  1  0  0  0  0
 25 18  2  0  0  0  0
 26 21  2  0  0  0  0
 26 25  1  0  0  0  0
 27 25  1  0  0  0  0
M  END
>  <MODEL>
2

>  <REMARK>
 VINA RESULT:      -7.7      5.632      7.794
  Name = 
  3 active torsions:
  status: ('A' for Active; 'I' for Inactive)
    1  A    between atoms: C_1  and  C_15
    2  A    between atoms: C_2  and  C_15
    3  A    between atoms: C_20  and  P_26
                            x       y       z     vdW  Elec       q    Type
                         _______ _______ _______ _____ _____    ______ ____

>  <TORSDO>
F 3

$$$$
=
 OpenBabel11052413433D

 27 30  0  0  1  0  0  0  0  0999 V2000
  184.5420  177.6170  138.4390 C   0  0  2  0  0  3  0  0  0  0  0  0
  182.3160  178.6090  137.5880 O   0  0  0  0  0  1  0  0  0  0  0  0
  187.5910  177.0630  135.5600 C   0  0  0  0  0  3  0  0  0  0  0  0
  185.4610  177.5750  137.2880 N   0  0  1  0  0  0  0  0  0  0  0  0
  186.7030  178.3110  137.5570 C   0  0  0  0  0  2  0  0  0  0  0  0
  182.7030  176.4250  139.6840 C   0  0  0  0  0  1  0  0  0  0  0  0
  184.6820  175.2170  136.9510 C   0  0  0  0  0  2  0  0  0  0  0  0
  187.5440  178.3900  136.2790 C   0  0  0  0  0  2  0  0  0  0  0  0
  183.4090  175.9670  136.6000 C   0  0  0  0  0  2  0  0  0  0  0  0
  186.7860  176.0460  135.9010 C   0  0  0  0  0  3  0  0  0  0  0  0
  182.8340  177.0420  137.9790 P   0  0  0  0  0  0  0  0  0  0  0  0
  185.8680  176.1720  137.0880 C   0  0  1  0  0  3  0  0  0  0  0  0
  181.1170  175.0130  137.6060 O   0  0  0  0  0  1  0  0  0  0  0  0
  180.2410  176.8330  138.6750 O   0  0  0  0  0  1  0  0  0  0  0  0
  181.1320  176.4080  137.6840 C   0  0  0  0  0  3  0  0  0  0  0  0
  184.5030  178.9820  139.1540 C   0  0  0  0  0  2  0  0  0  0  0  0
  184.8670  178.9030  140.6060 C   0  0  0  0  0  0  0  0  0  0  0  0
  185.6690  178.3050  144.7170 C   0  0  0  0  0  3  0  0  0  0  0  0
  184.9020  178.4840  146.9980 O   0  0  0  0  0  1  0  0  0  0  0  0
  186.3100  178.8550  141.0600 C   0  0  0  0  0  2  0  0  0  0  0  0
  183.1440  179.1170  143.8140 C   0  0  0  0  0  3  0  0  0  0  0  0
  183.3950  179.0030  145.1850 C   0  0  0  0  0  3  0  0  0  0  0  0
  183.9080  178.9480  141.4860 N   0  0  0  0  0  0  0  0  0  0  0  0
  184.6580  178.6000  145.6360 C   0  0  0  0  0  0  0  0  0  0  0  0
  185.4250  178.4340  143.3470 C   0  0  0  0  0  0  0  0  0  0  0  0
  184.1580  178.8360  142.8930 C   0  0  0  0  0  0  0  0  0  0  0  0
  186.4680  178.0420  142.3460 C   0  0  0  0  0  2  0  0  0  0  0  0
  1 16  1  6  0  0  0
  2 11  1  0  0  0  0
  3 10  2  0  0  0  0
  3  8  1  0  0  0  0
  4  5  1  1  0  0  0
  4  1  1  0  0  0  0
  7 12  1  0  0  0  0
  8  5  1  0  0  0  0
  9  7  1  0  0  0  0
  9 11  1  0  0  0  0
 11  1  1  0  0  0  0
 11  6  1  0  0  0  0
 12 10  1  6  0  0  0
 12  4  1  0  0  0  0
 13 15  1  0  0  0  0
 15 11  1  0  0  0  0
 15 14  1  0  0  0  0
 16 17  1  0  0  0  0
 17 20  1  0  0  0  0
 17 23  2  0  0  0  0
 18 24  1  0  0  0  0
 20 27  1  0  0  0  0
 21 22  1  0  0  0  0
 22 24  2  0  0  0  0
 23 26  1  0  0  0  0
 24 19  1  0  0  0  0
 25 18  2  0  0  0  0
 26 25  1  0  0  0  0
 26 21  2  0  0  0  0
 27 25  1  0  0  0  0
M  END
>  <MODEL>
3

>  <REMARK>
 VINA RESULT:      -7.6      3.271      4.719
  Name = 
  3 active torsions:
  status: ('A' for Active; 'I' for Inactive)
    1  A    between atoms: C_1  and  C_15
    2  A    between atoms: C_2  and  C_15
    3  A    between atoms: C_20  and  P_26
                            x       y       z     vdW  Elec       q    Type
                         _______ _______ _______ _____ _____    ______ ____

>  <TORSDO>
F 3

$$$$
=
 OpenBabel11052413433D

 27 30  0  0  1  0  0  0  0  0999 V2000
  188.8670  177.6300  142.3660 C   0  0  2  0  0  3  0  0  0  0  0  0
  190.6940  179.0380  143.5250 O   0  0  0  0  0  1  0  0  0  0  0  0
  184.8700  178.9100  142.8970 C   0  0  0  0  0  3  0  0  0  0  0  0
  187.5790  178.2930  142.6360 N   0  0  1  0  0  0  0  0  0  0  0  0
  186.8700  178.6280  141.3940 C   0  0  0  0  0  2  0  0  0  0  0  0
  190.5940  176.0030  143.2180 C   0  0  0  0  0  1  0  0  0  0  0  0
  187.3650  176.7380  144.5900 C   0  0  0  0  0  2  0  0  0  0  0  0
  185.6310  179.4690  141.7180 C   0  0  0  0  0  2  0  0  0  0  0  0
  188.5240  177.5950  145.0630 C   0  0  0  0  0  2  0  0  0  0  0  0
  185.3850  177.9500  143.6780 C   0  0  0  0  0  3  0  0  0  0  0  0
  189.9390  177.5630  143.8850 P   0  0  0  0  0  0  0  0  0  0  0  0
  186.7140  177.3280  143.3380 C   0  0  1  0  0  3  0  0  0  0  0  0
  190.3390  177.2970  146.5260 O   0  0  0  0  0  1  0  0  0  0  0  0
  191.8440  176.1920  145.2070 O   0  0  0  0  0  1  0  0  0  0  0  0
  191.0590  177.3440  145.3290 C   0  0  0  0  0  3  0  0  0  0  0  0
  189.6300  178.2200  141.1640 C   0  0  0  0  0  2  0  0  0  0  0  0
  189.7080  177.2870  139.9930 C   0  0  0  0  0  0  0  0  0  0  0  0
  189.8940  175.0060  136.4340 C   0  0  0  0  0  3  0  0  0  0  0  0
  188.7090  173.9610  134.6110 O   0  0  0  0  0  1  0  0  0  0  0  0
  190.9060  176.3900  139.7730 C   0  0  0  0  0  2  0  0  0  0  0  0
  187.4940  176.1430  137.3300 C   0  0  0  0  0  3  0  0  0  0  0  0
  187.5040  175.3310  136.1910 C   0  0  0  0  0  3  0  0  0  0  0  0
  188.6810  177.2100  139.1960 N   0  0  0  0  0  0  0  0  0  0  0  0
  188.7030  174.7620  135.7440 C   0  0  0  0  0  0  0  0  0  0  0  0
  189.8840  175.8030  137.5820 C   0  0  0  0  0  0  0  0  0  0  0  0
  188.6820  176.3780  138.0290 C   0  0  0  0  0  0  0  0  0  0  0  0
  191.1610  176.1460  138.2850 C   0  0  0  0  0  2  0  0  0  0  0  0
  1 16  1  6  0  0  0
  1  4  1  0  0  0  0
  1 11  1  0  0  0  0
  2 11  1  0  0  0  0
  3 10  2  0  0  0  0
  4  5  1  6  0  0  0
  4 12  1  0  0  0  0
  5  8  1  0  0  0  0
  6 11  1  0  0  0  0
  7  9  1  0  0  0  0
  8  3  1  0  0  0  0
 11  9  1  0  0  0  0
 11 15  1  0  0  0  0
 12 10  1  1  0  0  0
 12  7  1  0  0  0  0
 14 15  1  0  0  0  0
 15 13  1  0  0  0  0
 17 16  1  0  0  0  0
 18 25  1  0  0  0  0
 19 24  1  0  0  0  0
 20 17  1  0  0  0  0
 21 26  1  0  0  0  0
 22 21  2  0  0  0  0
 23 17  2  0  0  0  0
 24 22  1  0  0  0  0
 24 18  2  0  0  0  0
 25 26  2  0  0  0  0
 25 27  1  0  0  0  0
 26 23  1  0  0  0  0
 27 20  1  0  0  0  0
M  END
>  <MODEL>
4

>  <REMARK>
 VINA RESULT:      -7.5      5.920      9.405
  Name = 
  3 active torsions:
  status: ('A' for Active; 'I' for Inactive)
    1  A    between atoms: C_1  and  C_15
    2  A    between atoms: C_2  and  C_15
    3  A    between atoms: C_20  and  P_26
                            x       y       z     vdW  Elec       q    Type
                         _______ _______ _______ _____ _____    ______ ____

>  <TORSDO>
F 3

$$$$
=
 OpenBabel11052413433D

 27 30  0  0  1  0  0  0  0  0999 V2000
  189.2830  177.4780  138.8060 C   0  0  2  0  0  3  0  0  0  0  0  0
  188.6980  179.5160  137.3360 O   0  0  0  0  0  1  0  0  0  0  0  0
  193.0310  175.6470  138.0980 C   0  0  0  0  0  3  0  0  0  0  0  0
  190.6430  177.0520  138.4280 N   0  0  1  0  0  0  0  0  0  0  0  0
  191.5480  177.0360  139.5840 C   0  0  0  0  0  2  0  0  0  0  0  0
  186.8230  177.3030  138.2850 C   0  0  0  0  0  1  0  0  0  0  0  0
  189.5350  175.4450  136.8560 C   0  0  0  0  0  2  0  0  0  0  0  0
  192.9810  176.7630  139.1140 C   0  0  0  0  0  2  0  0  0  0  0  0
  189.1730  176.7580  136.1860 C   0  0  0  0  0  2  0  0  0  0  0  0
  191.9190  175.1600  137.5290 C   0  0  0  0  0  3  0  0  0  0  0  0
  188.2480  177.8820  137.3140 P   0  0  0  0  0  0  0  0  0  0  0  0
  190.5650  175.6540  137.9670 C   0  0  1  0  0  3  0  0  0  0  0  0
  187.6590  177.8920  134.6960 O   0  0  0  0  0  1  0  0  0  0  0  0
  185.8780  177.5340  136.0830 O   0  0  0  0  0  1  0  0  0  0  0  0
  187.0870  178.2210  135.9270 C   0  0  0  0  0  3  0  0  0  0  0  0
  189.2550  178.6220  139.8380 C   0  0  0  0  0  2  0  0  0  0  0  0
  188.9060  178.1650  141.2230 C   0  0  0  0  0  0  0  0  0  0  0  0
  187.9910  177.2860  145.2590 C   0  0  0  0  0  3  0  0  0  0  0  0
  188.7990  176.7790  147.4750 O   0  0  0  0  0  1  0  0  0  0  0  0
  187.5540  177.5640  141.5420 C   0  0  0  0  0  2  0  0  0  0  0  0
  190.6250  177.7180  144.4080 C   0  0  0  0  0  3  0  0  0  0  0  0
  190.3670  177.3540  145.7340 C   0  0  0  0  0  3  0  0  0  0  0  0
  189.8240  178.2290  142.1440 N   0  0  0  0  0  0  0  0  0  0  0  0
  189.0510  177.1360  146.1580 C   0  0  0  0  0  0  0  0  0  0  0  0
  188.2480  177.6330  143.9310 C   0  0  0  0  0  0  0  0  0  0  0  0
  189.5680  177.8550  143.5040 C   0  0  0  0  0  0  0  0  0  0  0  0
  187.1220  177.8810  142.9740 C   0  0  0  0  0  2  0  0  0  0  0  0
  1 16  1  1  0  0  0
  3  8  1  0  0  0  0
  4  1  1  0  0  0  0
  4  5  1  1  0  0  0
  8  5  1  0  0  0  0
  9  7  1  0  0  0  0
  9 11  1  0  0  0  0
 10 12  1  0  0  0  0
 10  3  2  0  0  0  0
 11  2  1  0  0  0  0
 11  6  1  0  0  0  0
 11  1  1  0  0  0  0
 12  7  1  6  0  0  0
 12  4  1  0  0  0  0
 13 15  1  0  0  0  0
 15 14  1  0  0  0  0
 15 11  1  0  0  0  0
 16 17  1  0  0  0  0
 17 20  1  0  0  0  0
 17 23  2  0  0  0  0
 18 24  1  0  0  0  0
 20 27  1  0  0  0  0
 21 22  1  0  0  0  0
 22 24  2  0  0  0  0
 23 26  1  0  0  0  0
 24 19  1  0  0  0  0
 25 18  2  0  0  0  0
 26 25  1  0  0  0  0
 26 21  2  0  0  0  0
 27 25  1  0  0  0  0
M  END
>  <MODEL>
5

>  <REMARK>
 VINA RESULT:      -7.4      5.889      7.849
  Name = 
  3 active torsions:
  status: ('A' for Active; 'I' for Inactive)
    1  A    between atoms: C_1  and  C_15
    2  A    between atoms: C_2  and  C_15
    3  A    between atoms: C_20  and  P_26
                            x       y       z     vdW  Elec       q    Type
                         _______ _______ _______ _____ _____    ______ ____

>  <TORSDO>
F 3

$$$$
=
 OpenBabel11052413433D

 27 30  0  0  1  0  0  0  0  0999 V2000
  184.4650  177.8780  138.8110 C   0  0  2  0  0  3  0  0  0  0  0  0
  182.3910  179.2650  138.1480 O   0  0  0  0  0  1  0  0  0  0  0  0
  187.4710  177.4440  135.8660 C   0  0  0  0  0  3  0  0  0  0  0  0
  185.3910  177.9170  137.6650 N   0  0  1  0  0  0  0  0  0  0  0  0
  186.7090  178.4390  138.0490 C   0  0  0  0  0  2  0  0  0  0  0  0
  182.4730  176.7290  139.8440 C   0  0  0  0  0  1  0  0  0  0  0  0
  184.3360  175.7630  136.9380 C   0  0  0  0  0  2  0  0  0  0  0  0
  187.5740  178.6280  136.7990 C   0  0  0  0  0  2  0  0  0  0  0  0
  183.1700  176.7120  136.7230 C   0  0  0  0  0  2  0  0  0  0  0  0
  186.5430  176.4920  136.0340 C   0  0  0  0  0  3  0  0  0  0  0  0
  182.7070  177.6030  138.2670 P   0  0  0  0  0  0  0  0  0  0  0  0
  185.6270  176.5290  137.2290 C   0  0  1  0  0  3  0  0  0  0  0  0
  180.6300  175.9070  138.1460 O   0  0  0  0  0  1  0  0  0  0  0  0
  180.0760  178.0820  138.5780 O   0  0  0  0  0  1  0  0  0  0  0  0
  180.9450  177.2410  137.8760 C   0  0  0  0  0  3  0  0  0  0  0  0
  184.5810  179.0980  139.7450 C   0  0  0  0  0  2  0  0  0  0  0  0
  184.9000  178.7310  141.1640 C   0  0  0  0  0  0  0  0  0  0  0  0
  186.0560  178.0530  145.1770 C   0  0  0  0  0  3  0  0  0  0  0  0
  187.7100  177.2000  146.7120 O   0  0  0  0  0  1  0  0  0  0  0  0
  183.8200  178.6280  142.2180 C   0  0  0  0  0  2  0  0  0  0  0  0
  187.8050  177.5740  143.0410 C   0  0  0  0  0  3  0  0  0  0  0  0
  188.1940  177.2660  144.3480 C   0  0  0  0  0  3  0  0  0  0  0  0
  186.1320  178.4310  141.4610 N   0  0  0  0  0  0  0  0  0  0  0  0
  187.3190  177.5030  145.4160 C   0  0  0  0  0  0  0  0  0  0  0  0
  185.6590  178.3460  143.8700 C   0  0  0  0  0  0  0  0  0  0  0  0
  186.5380  178.1110  142.7980 C   0  0  0  0  0  0  0  0  0  0  0  0
  184.3450  179.0120  143.6020 C   0  0  0  0  0  2  0  0  0  0  0  0
  1 16  1  6  0  0  0
  2 11  1  0  0  0  0
  3 10  2  0  0  0  0
  3  8  1  0  0  0  0
  4  5  1  1  0  0  0
  4  1  1  0  0  0  0
  7 12  1  0  0  0  0
  8  5  1  0  0  0  0
  9  7  1  0  0  0  0
  9 11  1  0  0  0  0
 11  1  1  0  0  0  0
 11  6  1  0  0  0  0
 12 10  1  6  0  0  0
 12  4  1  0  0  0  0
 15 13  1  0  0  0  0
 15 11  1  0  0  0  0
 15 14  1  0  0  0  0
 16 17  1  0  0  0  0
 17 23  2  0  0  0  0
 17 20  1  0  0  0  0
 18 24  1  0  0  0  0
 20 27  1  0  0  0  0
 21 22  1  0  0  0  0
 22 24  2  0  0  0  0
 23 26  1  0  0  0  0
 24 19  1  0  0  0  0
 25 18  2  0  0  0  0
 26 21  2  0  0  0  0
 26 25  1  0  0  0  0
 27 25  1  0  0  0  0
M  END
>  <MODEL>
6

>  <REMARK>
 VINA RESULT:      -7.3      2.971      4.059
  Name = 
  3 active torsions:
  status: ('A' for Active; 'I' for Inactive)
    1  A    between atoms: C_1  and  C_15
    2  A    between atoms: C_2  and  C_15
    3  A    between atoms: C_20  and  P_26
                            x       y       z     vdW  Elec       q    Type
                         _______ _______ _______ _____ _____    ______ ____

>  <TORSDO>
F 3

$$$$
=
 OpenBabel11052413433D

 27 30  0  0  1  0  0  0  0  0999 V2000
  184.3900  178.1670  139.2080 C   0  0  2  0  0  3  0  0  0  0  0  0
  182.5210  179.9010  138.8050 O   0  0  0  0  0  1  0  0  0  0  0  0
  186.6880  177.0450  135.8380 C   0  0  0  0  0  3  0  0  0  0  0  0
  185.0860  177.9810  137.9220 N   0  0  1  0  0  0  0  0  0  0  0  0
  186.5250  178.2530  138.0400 C   0  0  0  0  0  2  0  0  0  0  0  0
  182.4390  177.4660  140.6420 C   0  0  0  0  0  1  0  0  0  0  0  0
  183.5410  176.0450  137.5430 C   0  0  0  0  0  2  0  0  0  0  0  0
  187.1710  178.2220  136.6520 C   0  0  0  0  0  2  0  0  0  0  0  0
  182.5500  177.1920  137.4590 C   0  0  0  0  0  2  0  0  0  0  0  0
  185.6460  176.2970  136.2290 C   0  0  0  0  0  3  0  0  0  0  0  0
  182.5430  178.2160  138.9890 P   0  0  0  0  0  0  0  0  0  0  0  0
  184.9810  176.5570  137.5560 C   0  0  1  0  0  3  0  0  0  0  0  0
  180.2130  176.8840  139.0440 O   0  0  0  0  0  1  0  0  0  0  0  0
  180.1390  178.9920  139.9230 O   0  0  0  0  0  1  0  0  0  0  0  0
  180.7030  178.1870  138.9280 C   0  0  0  0  0  3  0  0  0  0  0  0
  184.8930  179.3780  140.0180 C   0  0  0  0  0  2  0  0  0  0  0  0
  185.5530  178.9950  141.3090 C   0  0  0  0  0  0  0  0  0  0  0  0
  187.1290  177.5890  144.9750 C   0  0  0  0  0  3  0  0  0  0  0  0
  186.9530  177.5100  147.3800 O   0  0  0  0  0  1  0  0  0  0  0  0
  187.0190  178.6280  141.3700 C   0  0  0  0  0  2  0  0  0  0  0  0
  184.6860  178.9570  144.8510 C   0  0  0  0  0  3  0  0  0  0  0  0
  185.2140  178.5740  146.0890 C   0  0  0  0  0  3  0  0  0  0  0  0
  184.8490  179.0540  142.4030 N   0  0  0  0  0  0  0  0  0  0  0  0
  186.4350  177.8920  146.1510 C   0  0  0  0  0  0  0  0  0  0  0  0
  186.6110  177.9850  143.7390 C   0  0  0  0  0  0  0  0  0  0  0  0
  185.3840  178.6670  143.6760 C   0  0  0  0  0  0  0  0  0  0  0  0
  187.2960  177.5960  142.4650 C   0  0  0  0  0  2  0  0  0  0  0  0
  1 16  1  6  0  0  0
  2 11  1  0  0  0  0
  3 10  2  0  0  0  0
  3  8  1  0  0  0  0
  4  5  1  1  0  0  0
  4  1  1  0  0  0  0
  7 12  1  0  0  0  0
  8  5  1  0  0  0  0
  9  7  1  0  0  0  0
  9 11  1  0  0  0  0
 11  1  1  0  0  0  0
 11  6  1  0  0  0  0
 12 10  1  6  0  0  0
 12  4  1  0  0  0  0
 15 11  1  0  0  0  0
 15 13  1  0  0  0  0
 15 14  1  0  0  0  0
 16 17  1  0  0  0  0
 17 20  1  0  0  0  0
 17 23  2  0  0  0  0
 18 24  1  0  0  0  0
 20 27  1  0  0  0  0
 21 22  1  0  0  0  0
 22 24  2  0  0  0  0
 23 26  1  0  0  0  0
 24 19  1  0  0  0  0
 25 18  2  0  0  0  0
 26 25  1  0  0  0  0
 26 21  2  0  0  0  0
 27 25  1  0  0  0  0
M  END
>  <MODEL>
7

>  <REMARK>
 VINA RESULT:      -7.2      2.619      3.793
  Name = 
  3 active torsions:
  status: ('A' for Active; 'I' for Inactive)
    1  A    between atoms: C_1  and  C_15
    2  A    between atoms: C_2  and  C_15
    3  A    between atoms: C_20  and  P_26
                            x       y       z     vdW  Elec       q    Type
                         _______ _______ _______ _____ _____    ______ ____

>  <TORSDO>
F 3

$$$$
=
 OpenBabel11052413433D

 27 30  0  0  1  0  0  0  0  0999 V2000
  181.0790  178.5750  139.5430 C   0  0  2  0  0  3  0  0  0  0  0  0
  178.9310  177.4380  140.4130 O   0  0  0  0  0  1  0  0  0  0  0  0
  180.5730  181.5930  136.6220 C   0  0  0  0  0  3  0  0  0  0  0  0
  180.6570  179.6210  138.5940 N   0  0  1  0  0  0  0  0  0  0  0  0
  181.1670  180.9430  138.9800 C   0  0  0  0  0  2  0  0  0  0  0  0
  181.6310  176.1340  139.8460 C   0  0  0  0  0  1  0  0  0  0  0  0
  180.9850  177.9050  136.7980 C   0  0  0  0  0  2  0  0  0  0  0  0
  180.5590  182.0160  138.0720 C   0  0  0  0  0  2  0  0  0  0  0  0
  179.7870  177.3090  137.5140 C   0  0  0  0  0  2  0  0  0  0  0  0
  180.8610  180.3360  136.2570 C   0  0  0  0  0  3  0  0  0  0  0  0
  180.1270  176.9960  139.2960 P   0  0  0  0  0  0  0  0  0  0  0  0
  181.2770  179.3220  137.2910 C   0  0  1  0  0  3  0  0  0  0  0  0
  180.1640  174.4630  138.4100 O   0  0  0  0  0  1  0  0  0  0  0  0
  178.9710  174.7950  140.3310 O   0  0  0  0  0  1  0  0  0  0  0  0
  179.3310  175.3490  139.0980 C   0  0  0  0  0  3  0  0  0  0  0  0
  181.0500  179.0250  141.0170 C   0  0  0  0  0  2  0  0  0  0  0  0
  182.3750  178.8870  141.7060 C   0  0  0  0  0  0  0  0  0  0  0  0
  185.9650  178.1200  143.8100 C   0  0  0  0  0  3  0  0  0  0  0  0
  187.1600  178.1800  145.9050 O   0  0  0  0  0  1  0  0  0  0  0  0
  183.6720  178.8480  140.9280 C   0  0  0  0  0  2  0  0  0  0  0  0
  183.6270  178.9200  145.1310 C   0  0  0  0  0  3  0  0  0  0  0  0
  184.8150  178.7490  145.8490 C   0  0  0  0  0  3  0  0  0  0  0  0
  182.3940  178.8730  143.0080 N   0  0  0  0  0  0  0  0  0  0  0  0
  185.9840  178.3520  145.1880 C   0  0  0  0  0  0  0  0  0  0  0  0
  184.7820  178.3060  143.0880 C   0  0  0  0  0  0  0  0  0  0  0  0
  183.6090  178.7020  143.7510 C   0  0  0  0  0  0  0  0  0  0  0  0
  184.7210  177.9820  141.6270 C   0  0  0  0  0  2  0  0  0  0  0  0
  1 16  1  1  0  0  0
  3  8  1  0  0  0  0
  4  5  1  1  0  0  0
  4  1  1  0  0  0  0
  7 12  1  0  0  0  0
  7  9  1  0  0  0  0
  8  5  1  0  0  0  0
  9 11  1  0  0  0  0
 10  3  2  0  0  0  0
 11  1  1  0  0  0  0
 11  6  1  0  0  0  0
 11  2  1  0  0  0  0
 12 10  1  6  0  0  0
 12  4  1  0  0  0  0
 13 15  1  0  0  0  0
 15 11  1  0  0  0  0
 15 14  1  0  0  0  0
 16 17  1  0  0  0  0
 17 23  2  0  0  0  0
 18 24  1  0  0  0  0
 20 27  1  0  0  0  0
 20 17  1  0  0  0  0
 21 22  1  0  0  0  0
 23 26  1  0  0  0  0
 24 22  2  0  0  0  0
 24 19  1  0  0  0  0
 25 26  1  0  0  0  0
 25 18  2  0  0  0  0
 26 21  2  0  0  0  0
 27 25  1  0  0  0  0
M  END
>  <MODEL>
8

>  <REMARK>
 VINA RESULT:      -7.2      2.787      4.190
  Name = 
  3 active torsions:
  status: ('A' for Active; 'I' for Inactive)
    1  A    between atoms: C_1  and  C_15
    2  A    between atoms: C_2  and  C_15
    3  A    between atoms: C_20  and  P_26
                            x       y       z     vdW  Elec       q    Type
                         _______ _______ _______ _____ _____    ______ ____

>  <TORSDO>
F 3

$$$$
=
 OpenBabel11052413433D

 27 30  0  0  1  0  0  0  0  0999 V2000
  188.9380  177.6040  142.1430 C   0  0  2  0  0  3  0  0  0  0  0  0
  190.8130  178.9560  143.2930 O   0  0  0  0  0  1  0  0  0  0  0  0
  184.9680  178.8550  142.8990 C   0  0  0  0  0  3  0  0  0  0  0  0
  187.6630  178.2530  142.4970 N   0  0  1  0  0  0  0  0  0  0  0  0
  186.9040  178.6470  141.3030 C   0  0  0  0  0  2  0  0  0  0  0  0
  190.6960  175.9390  142.8440 C   0  0  0  0  0  1  0  0  0  0  0  0
  187.5270  176.6040  144.3800 C   0  0  0  0  0  2  0  0  0  0  0  0
  185.6810  179.4700  141.7190 C   0  0  0  0  0  2  0  0  0  0  0  0
  188.7060  177.4390  144.8470 C   0  0  0  0  0  2  0  0  0  0  0  0
  185.5140  177.8570  143.6110 C   0  0  0  0  0  3  0  0  0  0  0  0
  190.0710  177.4640  143.6110 P   0  0  0  0  0  0  0  0  0  0  0  0
  186.8270  177.2540  143.1860 C   0  0  1  0  0  3  0  0  0  0  0  0
  190.5910  177.1690  146.2280 O   0  0  0  0  0  1  0  0  0  0  0  0
  191.9580  175.9810  144.8340 O   0  0  0  0  0  1  0  0  0  0  0  0
  191.2490  177.1760  144.9960 C   0  0  0  0  0  3  0  0  0  0  0  0
  189.6520  178.2530  140.9400 C   0  0  0  0  0  2  0  0  0  0  0  0
  189.5800  177.4280  139.6910 C   0  0  0  0  0  0  0  0  0  0  0  0
  189.3460  174.7490  136.4240 C   0  0  0  0  0  3  0  0  0  0  0  0
  190.4810  173.1940  134.9690 O   0  0  0  0  0  1  0  0  0  0  0  0
  188.4740  177.6220  138.6760 C   0  0  0  0  0  2  0  0  0  0  0  0
  191.6720  174.9870  137.9690 C   0  0  0  0  0  3  0  0  0  0  0  0
  191.6550  174.1480  136.8500 C   0  0  0  0  0  3  0  0  0  0  0  0
  190.5370  176.5770  139.4570 N   0  0  0  0  0  0  0  0  0  0  0  0
  190.4940  174.0310  136.0760 C   0  0  0  0  0  0  0  0  0  0  0  0
  189.3650  175.6000  137.5320 C   0  0  0  0  0  0  0  0  0  0  0  0
  190.5290  175.7160  138.3100 C   0  0  0  0  0  0  0  0  0  0  0  0
  188.1220  176.3130  137.9690 C   0  0  0  0  0  2  0  0  0  0  0  0
  1 16  1  6  0  0  0
  1  4  1  0  0  0  0
  1 11  1  0  0  0  0
  2 11  1  0  0  0  0
  3 10  2  0  0  0  0
  4  5  1  6  0  0  0
  4 12  1  0  0  0  0
  5  8  1  0  0  0  0
  6 11  1  0  0  0  0
  7  9  1  0  0  0  0
  8  3  1  0  0  0  0
 11  9  1  0  0  0  0
 11 15  1  0  0  0  0
 12 10  1  1  0  0  0
 12  7  1  0  0  0  0
 14 15  1  0  0  0  0
 15 13  1  0  0  0  0
 17 16  1  0  0  0  0
 18 25  1  0  0  0  0
 19 24  1  0  0  0  0
 20 17  1  0  0  0  0
 21 26  1  0  0  0  0
 22 21  2  0  0  0  0
 23 17  2  0  0  0  0
 24 18  2  0  0  0  0
 24 22  1  0  0  0  0
 25 27  1  0  0  0  0
 25 26  2  0  0  0  0
 26 23  1  0  0  0  0
 27 20  1  0  0  0  0
M  END
>  <MODEL>
9

>  <REMARK>
 VINA RESULT:      -7.2      6.017      9.454
  Name = 
  3 active torsions:
  status: ('A' for Active; 'I' for Inactive)
    1  A    between atoms: C_1  and  C_15
    2  A    between atoms: C_2  and  C_15
    3  A    between atoms: C_20  and  P_26
                            x       y       z     vdW  Elec       q    Type
                         _______ _______ _______ _____ _____    ______ ____

>  <TORSDO>
F 3

$$$$
