=
 OpenBabel11052417003D

 32 36  0  0  1  0  0  0  0  0999 V2000
  188.8010  177.2600  137.2840 N   0  0  0  0  0  0  0  0  0  0  0  0
  188.6130  177.7070  142.3430 C   0  0  0  0  0  0  0  0  0  0  0  0
  184.1570  179.5160  143.3270 O   0  0  0  0  0  0  0  0  0  0  0  0
  184.0390  178.6420  144.4280 C   0  0  0  0  0  2  0  0  0  0  0  0
  190.1540  177.3960  144.3510 C   0  0  0  0  0  0  0  0  0  0  0  0
  190.3430  177.3160  145.7400 C   0  0  2  0  0  3  0  0  0  0  0  0
  189.3410  177.3650  140.0990 C   0  0  0  0  0  0  0  0  0  0  0  0
  187.1740  178.3430  140.5010 C   0  0  0  0  0  3  0  0  0  0  0  0
  187.9100  178.0720  138.1250 C   0  0  0  0  0  2  0  0  0  0  0  0
  184.9610  178.8720  142.3640 C   0  0  0  0  0  2  0  0  0  0  0  0
  187.3870  178.2300  141.8810 C   0  0  0  0  0  0  0  0  0  0  0  0
  186.4010  178.7830  142.8790 C   0  0  2  0  0  3  0  0  0  0  0  0
  187.7870  177.7710  144.7000 C   0  0  0  0  0  0  0  0  0  0  0  0
  190.1950  177.3480  137.7470 C   0  0  0  0  0  2  0  0  0  0  0  0
  188.1370  177.8890  139.6030 C   0  0  0  0  0  0  0  0  0  0  0  0
  190.3740  176.8120  139.1700 C   0  0  0  0  0  2  0  0  0  0  0  0
  185.3860  178.4970  145.1440 C   0  0  0  0  0  2  0  0  0  0  0  0
  186.3930  177.9260  144.1480 C   0  0  1  0  0  3  0  0  0  0  0  0
  187.9880  177.6760  146.0400 N   0  0  0  0  0  0  0  0  0  0  0  0
  189.5400  177.2790  141.4410 N   0  0  0  0  0  0  0  0  0  0  0  0
  191.1540  177.2770  143.5930 O   0  0  0  0  0  0  0  0  0  0  0  0
  188.8690  177.6140  143.8120 C   0  0  0  0  0  0  0  0  0  0  0  0
  189.2130  177.4650  146.5870 C   0  0  0  0  0  0  0  0  0  0  0  0
  189.3030  177.4420  148.0760 C   0  0  0  0  0  2  0  0  0  0  0  0
  188.1160  178.1690  148.6800 C   0  0  0  0  0  1  0  0  0  0  0  0
  192.1530  175.8750  146.7350 C   0  0  0  0  0  1  0  0  0  0  0  0
  191.6550  177.0940  146.2010 O   0  0  0  0  0  0  0  0  0  0  0  0
  188.3380  175.8760  137.2750 C   0  0  0  0  0  2  0  0  0  0  0  0
  189.8330  174.0720  136.3500 C   0  0  0  0  0  0  0  0  0  0  0  0
  188.9370  175.1660  136.1560 N   0  0  0  0  0  2  0  0  0  0  0  0
  190.1480  173.6980  137.5100 O   0  0  0  0  0  1  0  0  0  0  0  0
  190.3590  173.4130  135.2480 O   0  0  0  0  0  0  0  0  0  0  0  0
  1 14  1  0  0  0  0
  1  9  1  0  0  0  0
  2 22  1  0  0  0  0
  3  4  1  0  0  0  0
  4 17  1  0  0  0  0
  5  6  1  0  0  0  0
  6 27  1  1  0  0  0
  6 23  1  0  0  0  0
  7 20  1  0  0  0  0
  8 11  2  0  0  0  0
  9 15  1  0  0  0  0
 10  3  1  0  0  0  0
 11  2  1  0  0  0  0
 11 12  1  0  0  0  0
 12 10  1  6  0  0  0
 12 18  1  0  0  0  0
 13 19  1  0  0  0  0
 14 16  1  0  0  0  0
 15  7  2  0  0  0  0
 15  8  1  0  0  0  0
 16  7  1  0  0  0  0
 18 13  1  0  0  0  0
 18 17  1  1  0  0  0
 19 23  2  0  0  0  0
 20  2  2  0  0  0  0
 21  5  2  0  0  0  0
 22  5  1  0  0  0  0
 22 13  2  0  0  0  0
 23 24  1  0  0  0  0
 24 25  1  0  0  0  0
 27 26  1  0  0  0  0
 28  1  1  0  0  0  0
 29 31  1  0  0  0  0
 30 29  1  0  0  0  0
 30 28  1  0  0  0  0
 32 29  2  0  0  0  0
M  END
>  <MODEL>
1

>  <REMARK>
 VINA RESULT:     -10.0      0.000      0.000
  Name = 
  4 active torsions:
  status: ('A' for Active; 'I' for Inactive)
    1  A    between atoms: N_2  and  C_24
    2  A    between atoms: C_7  and  O_22
    3  A    between atoms: N_10  and  C_24
    4  A    between atoms: C_11  and  C_32
                            x       y       z     vdW  Elec       q    Type
                         _______ _______ _______ _____ _____    ______ ____

>  <TORSDO>
F 4

$$$$
=
 OpenBabel11052417003D

 32 36  0  0  1  0  0  0  0  0999 V2000
  189.8890  176.7720  137.2240 N   0  0  0  0  0  0  0  0  0  0  0  0
  189.1600  177.4430  142.2080 C   0  0  0  0  0  0  0  0  0  0  0  0
  184.6420  179.3160  142.6240 O   0  0  0  0  0  0  0  0  0  0  0  0
  184.3980  178.4930  143.7430 C   0  0  0  0  0  2  0  0  0  0  0  0
  190.4730  177.2140  144.3830 C   0  0  0  0  0  0  0  0  0  0  0  0
  190.5100  177.1950  145.7860 C   0  0  0  0  0  0  0  0  0  0  0  0
  190.1230  176.9990  140.0730 C   0  0  0  0  0  0  0  0  0  0  0  0
  187.9350  178.0040  140.1960 C   0  0  0  0  0  3  0  0  0  0  0  0
  188.9210  177.6250  137.9270 C   0  0  0  0  0  2  0  0  0  0  0  0
  185.5390  178.6270  141.7830 C   0  0  0  0  0  2  0  0  0  0  0  0
  187.9970  177.9520  141.5940 C   0  0  0  0  0  0  0  0  0  0  0  0
  186.9140  178.5530  142.4540 C   0  0  2  0  0  3  0  0  0  0  0  0
  188.0850  177.6150  144.4570 C   0  0  0  0  0  0  0  0  0  0  0  0
  191.2260  176.8730  137.8300 C   0  0  0  0  0  2  0  0  0  0  0  0
  188.9850  177.5060  139.4270 C   0  0  0  0  0  0  0  0  0  0  0  0
  191.2450  176.4000  139.2860 C   0  0  0  0  0  2  0  0  0  0  0  0
  185.6580  178.3720  144.6060 C   0  0  0  0  0  2  0  0  0  0  0  0
  186.7620  177.7530  143.7510 C   0  0  1  0  0  3  0  0  0  0  0  0
  188.1400  177.5800  145.8130 N   0  0  0  0  0  0  0  0  0  0  0  0
  190.1750  176.9710  141.4310 N   0  0  0  0  0  0  0  0  0  0  0  0
  191.5480  177.0570  143.7430 O   0  0  0  0  0  0  0  0  0  0  0  0
  189.2560  177.4140  143.6990 C   0  0  1  0  0  3  0  0  0  0  0  0
  189.2970  177.3860  146.4980 C   0  0  0  0  0  0  0  0  0  0  0  0
  189.2260  177.4300  147.9880 C   0  0  0  0  0  2  0  0  0  0  0  0
  188.0230  178.2440  148.4270 C   0  0  0  0  0  1  0  0  0  0  0  0
  192.2240  175.7630  146.9500 C   0  0  0  0  0  1  0  0  0  0  0  0
  191.7630  176.9870  146.3950 O   0  0  0  0  0  0  0  0  0  0  0  0
  189.4160  175.3910  137.2240 C   0  0  0  0  0  2  0  0  0  0  0  0
  187.2730  174.1330  136.8130 C   0  0  0  0  0  0  0  0  0  0  0  0
  188.0020  175.3580  136.8880 N   0  0  0  0  0  2  0  0  0  0  0  0
  187.8460  173.0310  137.0210 O   0  0  0  0  0  1  0  0  0  0  0  0
  185.9180  174.1580  136.5110 O   0  0  0  0  0  0  0  0  0  0  0  0
  1 28  1  0  0  0  0
  1 14  1  0  0  0  0
  1  9  1  0  0  0  0
  3  4  1  0  0  0  0
  4 17  1  0  0  0  0
  5  6  1  0  0  0  0
  6 27  1  0  0  0  0
  6 23  2  0  0  0  0
  7 20  1  0  0  0  0
  8 11  2  0  0  0  0
  9 15  1  0  0  0  0
 10  3  1  0  0  0  0
 11  2  1  0  0  0  0
 11 12  1  0  0  0  0
 12 10  1  6  0  0  0
 12 18  1  0  0  0  0
 13 19  2  0  0  0  0
 14 16  1  0  0  0  0
 15  7  2  0  0  0  0
 15  8  1  0  0  0  0
 16  7  1  0  0  0  0
 18 13  1  0  0  0  0
 18 17  1  1  0  0  0
 19 23  1  0  0  0  0
 20  2  2  0  0  0  0
 21  5  2  0  0  0  0
 22  2  1  6  0  0  0
 22  5  1  0  0  0  0
 22 13  1  0  0  0  0
 23 24  1  0  0  0  0
 24 25  1  0  0  0  0
 27 26  1  0  0  0  0
 29 30  1  0  0  0  0
 29 31  1  0  0  0  0
 30 28  1  0  0  0  0
 32 29  2  0  0  0  0
M  END
>  <MODEL>
2

>  <REMARK>
 VINA RESULT:      -9.9      1.184      1.258
  Name = 
  4 active torsions:
  status: ('A' for Active; 'I' for Inactive)
    1  A    between atoms: N_2  and  C_24
    2  A    between atoms: C_7  and  O_22
    3  A    between atoms: N_10  and  C_24
    4  A    between atoms: C_11  and  C_32
                            x       y       z     vdW  Elec       q    Type
                         _______ _______ _______ _____ _____    ______ ____

>  <TORSDO>
F 4

$$$$
=
 OpenBabel11052417003D

 32 36  0  0  1  0  0  0  0  0999 V2000
  180.3840  178.9860  141.9790 N   0  0  0  0  0  0  0  0  0  0  0  0
  185.3990  178.4510  142.6010 C   0  0  0  0  0  0  0  0  0  0  0  0
  186.1340  178.5960  147.4520 O   0  0  0  0  0  0  0  0  0  0  0  0
  187.0730  177.5490  147.3470 C   0  0  0  0  0  2  0  0  0  0  0  0
  187.4990  178.2790  141.1640 C   0  0  0  0  0  0  0  0  0  0  0  0
  188.8740  178.0160  141.0420 C   0  0  2  0  0  3  0  0  0  0  0  0
  183.2260  178.7520  141.6700 C   0  0  0  0  0  0  0  0  0  0  0  0
  183.5230  178.9280  144.0560 C   0  0  0  0  0  3  0  0  0  0  0  0
  181.2310  179.3210  143.1320 C   0  0  0  0  0  2  0  0  0  0  0  0
  185.1830  178.4130  146.4280 C   0  0  0  0  0  2  0  0  0  0  0  0
  184.8860  178.6440  143.9010 C   0  0  0  0  0  0  0  0  0  0  0  0
  185.8380  178.6810  145.0690 C   0  0  2  0  0  3  0  0  0  0  0  0
  187.6320  177.8390  143.5420 C   0  0  0  0  0  0  0  0  0  0  0  0
  181.0080  179.4140  140.7180 C   0  0  0  0  0  2  0  0  0  0  0  0
  182.6810  178.9590  142.9470 C   0  0  0  0  0  0  0  0  0  0  0  0
  182.3470  178.7170  140.4600 C   0  0  0  0  0  2  0  0  0  0  0  0
  187.9060  177.7010  146.0700 C   0  0  0  0  0  2  0  0  0  0  0  0
  186.9560  177.6530  144.8750 C   0  0  1  0  0  3  0  0  0  0  0  0
  188.9570  177.5760  143.4010 N   0  0  0  0  0  0  0  0  0  0  0  0
  184.5540  178.4950  141.5340 N   0  0  0  0  0  0  0  0  0  0  0  0
  186.8490  178.6100  140.1360 O   0  0  0  0  0  0  0  0  0  0  0  0
  186.8580  178.1820  142.4160 C   0  0  0  0  0  0  0  0  0  0  0  0
  189.6000  177.6580  142.2080 C   0  0  0  0  0  0  0  0  0  0  0  0
  191.0700  177.4020  142.2030 C   0  0  0  0  0  2  0  0  0  0  0  0
  191.6950  177.9410  143.4770 C   0  0  0  0  0  1  0  0  0  0  0  0
  189.7180  177.0550  138.8730 C   0  0  0  0  0  1  0  0  0  0  0  0
  189.4400  178.1320  139.7580 O   0  0  0  0  0  0  0  0  0  0  0  0
  180.1170  177.5500  141.9700 C   0  0  0  0  0  2  0  0  0  0  0  0
  179.7300  176.1660  139.9020 C   0  0  0  0  0  0  0  0  0  0  0  0
  179.3320  177.2050  140.7960 N   0  0  0  0  0  2  0  0  0  0  0  0
  180.7950  175.5230  140.0980 O   0  0  0  0  0  1  0  0  0  0  0  0
  178.9330  175.8600  138.8080 O   0  0  0  0  0  0  0  0  0  0  0  0
  1  9  1  0  0  0  0
  2 11  1  0  0  0  0
  4  3  1  0  0  0  0
  5 22  1  0  0  0  0
  6 27  1  1  0  0  0
  6  5  1  0  0  0  0
  6 23  1  0  0  0  0
  7 15  2  0  0  0  0
 10  3  1  0  0  0  0
 11  8  2  0  0  0  0
 11 12  1  0  0  0  0
 12 10  1  1  0  0  0
 13 18  1  0  0  0  0
 14  1  1  0  0  0  0
 15  9  1  0  0  0  0
 15  8  1  0  0  0  0
 16 14  1  0  0  0  0
 16  7  1  0  0  0  0
 17  4  1  0  0  0  0
 18 12  1  0  0  0  0
 18 17  1  1  0  0  0
 19 13  1  0  0  0  0
 20  7  1  0  0  0  0
 20  2  2  0  0  0  0
 21  5  2  0  0  0  0
 22  2  1  0  0  0  0
 22 13  2  0  0  0  0
 23 19  2  0  0  0  0
 24 23  1  0  0  0  0
 24 25  1  0  0  0  0
 26 27  1  0  0  0  0
 28  1  1  0  0  0  0
 29 31  1  0  0  0  0
 29 30  1  0  0  0  0
 30 28  1  0  0  0  0
 32 29  2  0  0  0  0
M  END
>  <MODEL>
3

>  <REMARK>
 VINA RESULT:      -9.4      3.953      6.717
  Name = 
  4 active torsions:
  status: ('A' for Active; 'I' for Inactive)
    1  A    between atoms: N_2  and  C_24
    2  A    between atoms: C_7  and  O_22
    3  A    between atoms: N_10  and  C_24
    4  A    between atoms: C_11  and  C_32
                            x       y       z     vdW  Elec       q    Type
                         _______ _______ _______ _____ _____    ______ ____

>  <TORSDO>
F 4

$$$$
=
 OpenBabel11052417003D

 32 36  0  0  1  0  0  0  0  0999 V2000
  181.0390  178.8370  138.9830 N   0  0  0  0  0  0  0  0  0  0  0  0
  185.4230  178.4860  141.5280 C   0  0  0  0  0  0  0  0  0  0  0  0
  184.2310  179.0150  146.2600 O   0  0  0  0  0  0  0  0  0  0  0  0
  185.1330  177.9880  146.6080 C   0  0  0  0  0  2  0  0  0  0  0  0
  187.9150  178.2630  141.0280 C   0  0  0  0  0  0  0  0  0  0  0  0
  189.2280  178.0300  141.4660 C   0  0  0  0  0  0  0  0  0  0  0  0
  183.7780  178.6580  139.8110 C   0  0  0  0  0  0  0  0  0  0  0  0
  183.1330  179.0200  142.1060 C   0  0  0  0  0  3  0  0  0  0  0  0
  181.3760  179.2810  140.3430 C   0  0  0  0  0  2  0  0  0  0  0  0
  183.7470  178.7290  144.9670 C   0  0  0  0  0  2  0  0  0  0  0  0
  184.4490  178.7620  142.5100 C   0  0  0  0  0  0  0  0  0  0  0  0
  184.8770  178.9120  143.9480 C   0  0  2  0  0  3  0  0  0  0  0  0
  187.1180  178.0070  143.3010 C   0  0  0  0  0  0  0  0  0  0  0  0
  182.1020  179.1870  138.0300 C   0  0  0  0  0  2  0  0  0  0  0  0
  182.7840  178.9450  140.7600 C   0  0  0  0  0  0  0  0  0  0  0  0
  183.4340  178.5080  138.3640 C   0  0  0  0  0  2  0  0  0  0  0  0
  186.3950  178.0660  145.7420 C   0  0  0  0  0  2  0  0  0  0  0  0
  185.9790  177.9030  144.2820 C   0  0  1  0  0  3  0  0  0  0  0  0
  188.3940  177.7700  143.7020 N   0  0  0  0  0  0  0  0  0  0  0  0
  185.0550  178.4270  140.2180 N   0  0  0  0  0  0  0  0  0  0  0  0
  187.7120  178.4990  139.8060 O   0  0  0  0  0  0  0  0  0  0  0  0
  186.8400  178.2440  141.9400 C   0  0  1  0  0  3  0  0  0  0  0  0
  189.4480  177.7790  142.8450 C   0  0  0  0  0  0  0  0  0  0  0  0
  190.8050  177.5630  143.4280 C   0  0  0  0  0  2  0  0  0  0  0  0
  191.1710  178.7220  144.3360 C   0  0  0  0  0  1  0  0  0  0  0  0
  190.7810  176.9380  139.8100 C   0  0  0  0  0  1  0  0  0  0  0  0
  190.2470  178.0630  140.4940 O   0  0  0  0  0  0  0  0  0  0  0  0
  180.7900  177.3980  138.9870 C   0  0  0  0  0  2  0  0  0  0  0  0
  179.6910  175.6810  140.4660 C   0  0  0  0  0  0  0  0  0  0  0  0
  180.0240  177.0360  140.1690 N   0  0  0  0  0  2  0  0  0  0  0  0
  180.0400  174.7500  139.6930 O   0  0  0  0  0  0  0  0  0  0  0  0
  178.9790  175.3860  141.6210 O   0  0  0  0  0  1  0  0  0  0  0  0
  1 28  1  0  0  0  0
  1  9  1  0  0  0  0
  2 22  1  0  0  0  0
  2 11  1  0  0  0  0
  3  4  1  0  0  0  0
  5  6  1  0  0  0  0
  6 23  2  0  0  0  0
  7 20  1  0  0  0  0
  7 15  2  0  0  0  0
  8 11  2  0  0  0  0
  9 15  1  0  0  0  0
 10  3  1  0  0  0  0
 11 12  1  0  0  0  0
 12 18  1  0  0  0  0
 12 10  1  1  0  0  0
 13 19  2  0  0  0  0
 13 18  1  0  0  0  0
 14 16  1  0  0  0  0
 14  1  1  0  0  0  0
 15  8  1  0  0  0  0
 16  7  1  0  0  0  0
 17  4  1  0  0  0  0
 18 17  1  1  0  0  0
 20  2  2  0  0  0  0
 21  5  2  0  0  0  0
 22  5  1  1  0  0  0
 22 13  1  0  0  0  0
 23 24  1  0  0  0  0
 23 19  1  0  0  0  0
 24 25  1  0  0  0  0
 26 27  1  0  0  0  0
 27  6  1  0  0  0  0
 28 30  1  0  0  0  0
 29 32  1  0  0  0  0
 30 29  1  0  0  0  0
 31 29  2  0  0  0  0
M  END
>  <MODEL>
4

>  <REMARK>
 VINA RESULT:      -8.7      3.934      6.099
  Name = 
  4 active torsions:
  status: ('A' for Active; 'I' for Inactive)
    1  A    between atoms: N_2  and  C_24
    2  A    between atoms: C_7  and  O_22
    3  A    between atoms: N_10  and  C_24
    4  A    between atoms: C_11  and  C_32
                            x       y       z     vdW  Elec       q    Type
                         _______ _______ _______ _____ _____    ______ ____

>  <TORSDO>
F 4

$$$$
=
 OpenBabel11052417003D

 32 36  0  0  1  0  0  0  0  0999 V2000
  190.9420  176.6520  137.3730 N   0  0  0  0  0  0  0  0  0  0  0  0
  188.4720  177.7780  141.6680 C   0  0  0  0  0  0  0  0  0  0  0  0
  184.1490  179.6160  140.2440 O   0  0  0  0  0  0  0  0  0  0  0  0
  183.4990  178.8980  141.2690 C   0  0  0  0  0  2  0  0  0  0  0  0
  188.9030  177.7730  144.1820 C   0  0  0  0  0  0  0  0  0  0  0  0
  188.4280  177.8860  145.4990 C   0  0  2  0  0  3  0  0  0  0  0  0
  190.1330  177.1490  140.0780 C   0  0  0  0  0  0  0  0  0  0  0  0
  188.0700  178.1290  139.3060 C   0  0  0  0  0  3  0  0  0  0  0  0
  189.8020  177.5530  137.5950 C   0  0  0  0  0  2  0  0  0  0  0  0
  185.2750  178.8630  139.8520 C   0  0  0  0  0  2  0  0  0  0  0  0
  187.6200  178.2100  140.6300 C   0  0  0  0  0  0  0  0  0  0  0  0
  186.3120  178.8730  140.9800 C   0  0  2  0  0  3  0  0  0  0  0  0
  186.6590  178.1450  143.3490 C   0  0  0  0  0  0  0  0  0  0  0  0
  191.9700  176.8290  138.4100 C   0  0  0  0  0  2  0  0  0  0  0  0
  189.3160  177.5770  139.0200 C   0  0  0  0  0  0  0  0  0  0  0  0
  191.4510  176.4950  139.8120 C   0  0  0  0  0  2  0  0  0  0  0  0
  184.3580  178.8770  142.5370 C   0  0  0  0  0  2  0  0  0  0  0  0
  185.6840  178.1970  142.2010 C   0  0  1  0  0  3  0  0  0  0  0  0
  186.2180  178.2380  144.6300 N   0  0  0  0  0  0  0  0  0  0  0  0
  189.6890  177.2500  141.3600 N   0  0  0  0  0  0  0  0  0  0  0  0
  190.1330  177.5720  143.9930 O   0  0  0  0  0  0  0  0  0  0  0  0
  188.0200  177.8900  143.0890 C   0  0  0  0  0  0  0  0  0  0  0  0
  187.0440  178.1260  145.7020 C   0  0  0  0  0  0  0  0  0  0  0  0
  186.4390  178.3080  147.0540 C   0  0  0  0  0  2  0  0  0  0  0  0
  184.9260  178.2460  146.9590 C   0  0  0  0  0  1  0  0  0  0  0  0
  189.5760  176.5940  147.3310 C   0  0  0  0  0  1  0  0  0  0  0  0
  189.3710  177.7550  146.5370 O   0  0  0  0  0  0  0  0  0  0  0  0
  190.4720  175.2700  137.3300 C   0  0  0  0  0  2  0  0  0  0  0  0
  188.5150  173.9890  136.3950 C   0  0  0  0  0  0  0  0  0  0  0  0
  189.3040  175.1760  136.4690 N   0  0  0  0  0  2  0  0  0  0  0  0
  188.8240  172.9710  137.0680 O   0  0  0  0  0  1  0  0  0  0  0  0
  187.3950  173.9590  135.5750 O   0  0  0  0  0  0  0  0  0  0  0  0
  1  9  1  0  0  0  0
  1 14  1  0  0  0  0
  2 22  1  0  0  0  0
  3  4  1  0  0  0  0
  4 17  1  0  0  0  0
  5  6  1  0  0  0  0
  6 23  1  0  0  0  0
  6 27  1  6  0  0  0
  7 20  2  0  0  0  0
  8 11  1  0  0  0  0
  9 15  1  0  0  0  0
 10  3  1  0  0  0  0
 11 12  1  0  0  0  0
 11  2  2  0  0  0  0
 12 10  1  6  0  0  0
 12 18  1  0  0  0  0
 13 19  1  0  0  0  0
 14 16  1  0  0  0  0
 15  8  2  0  0  0  0
 15  7  1  0  0  0  0
 16  7  1  0  0  0  0
 18 17  1  1  0  0  0
 18 13  1  0  0  0  0
 19 23  2  0  0  0  0
 20  2  1  0  0  0  0
 21  5  2  0  0  0  0
 22 13  2  0  0  0  0
 22  5  1  0  0  0  0
 23 24  1  0  0  0  0
 25 24  1  0  0  0  0
 27 26  1  0  0  0  0
 28  1  1  0  0  0  0
 29 30  1  0  0  0  0
 29 31  1  0  0  0  0
 30 28  1  0  0  0  0
 32 29  2  0  0  0  0
M  END
>  <MODEL>
5

>  <REMARK>
 VINA RESULT:      -8.6      1.566      2.105
  Name = 
  4 active torsions:
  status: ('A' for Active; 'I' for Inactive)
    1  A    between atoms: N_2  and  C_24
    2  A    between atoms: C_7  and  O_22
    3  A    between atoms: N_10  and  C_24
    4  A    between atoms: C_11  and  C_32
                            x       y       z     vdW  Elec       q    Type
                         _______ _______ _______ _____ _____    ______ ____

>  <TORSDO>
F 4

$$$$
=
 OpenBabel11052417003D

 32 36  0  0  1  0  0  0  0  0999 V2000
  191.4400  177.7780  144.5830 N   0  0  0  0  0  0  0  0  0  0  0  0
  189.2720  177.5880  139.9920 C   0  0  0  0  0  0  0  0  0  0  0  0
  192.8740  176.3390  136.8990 O   0  0  0  0  0  0  0  0  0  0  0  0
  191.9950  175.4720  136.2170 C   0  0  0  0  0  2  0  0  0  0  0  0
  187.0070  178.0700  138.9220 C   0  0  0  0  0  0  0  0  0  0  0  0
  186.1410  177.9960  137.8200 C   0  0  2  0  0  3  0  0  0  0  0  0
  189.6980  177.9360  142.3110 C   0  0  0  0  0  0  0  0  0  0  0  0
  191.5340  177.4140  140.8380 C   0  0  0  0  0  3  0  0  0  0  0  0
  192.0540  177.8350  143.2500 C   0  0  0  0  0  2  0  0  0  0  0  0
  192.4640  176.3780  138.2480 C   0  0  0  0  0  2  0  0  0  0  0  0
  190.6400  177.3290  139.7640 C   0  0  0  0  0  0  0  0  0  0  0  0
  191.1210  177.1070  138.3520 C   0  0  2  0  0  3  0  0  0  0  0  0
  188.7280  176.9490  137.6380 C   0  0  0  0  0  0  0  0  0  0  0  0
  190.2410  178.6280  144.6540 C   0  0  0  0  0  2  0  0  0  0  0  0
  191.0670  177.6920  142.1200 C   0  0  0  0  0  0  0  0  0  0  0  0
  189.1480  178.1780  143.6800 C   0  0  0  0  0  2  0  0  0  0  0  0
  190.5930  176.0840  136.1350 C   0  0  0  0  0  2  0  0  0  0  0  0
  190.0870  176.3040  137.5590 C   0  0  1  0  0  3  0  0  0  0  0  0
  187.8700  176.8760  136.5870 N   0  0  0  0  0  0  0  0  0  0  0  0
  188.8450  177.8670  141.2550 N   0  0  0  0  0  0  0  0  0  0  0  0
  186.6030  178.6280  139.9780 O   0  0  0  0  0  0  0  0  0  0  0  0
  188.3100  177.5360  138.8480 C   0  0  0  0  0  0  0  0  0  0  0  0
  186.6090  177.3780  136.6310 C   0  0  0  0  0  0  0  0  0  0  0  0
  185.7920  177.2840  135.3860 C   0  0  0  0  0  2  0  0  0  0  0  0
  185.0930  175.9390  135.3230 C   0  0  0  0  0  1  0  0  0  0  0  0
  183.6770  177.8300  138.3130 C   0  0  0  0  0  1  0  0  0  0  0  0
  184.8550  178.5490  137.9720 O   0  0  0  0  0  0  0  0  0  0  0  0
  191.1220  176.3930  144.9170 C   0  0  0  0  0  2  0  0  0  0  0  0
  191.8590  176.1380  147.3120 C   0  0  0  0  0  0  0  0  0  0  0  0
  192.0560  175.9030  145.9180 N   0  0  0  0  0  2  0  0  0  0  0  0
  190.8680  176.8000  147.7180 O   0  0  0  0  0  0  0  0  0  0  0  0
  192.7670  175.6280  148.2290 O   0  0  0  0  0  1  0  0  0  0  0  0
  1 14  1  0  0  0  0
  1 28  1  0  0  0  0
  2 20  1  0  0  0  0
  3 10  1  0  0  0  0
  4  3  1  0  0  0  0
  5 21  2  0  0  0  0
  6 27  1  6  0  0  0
  6  5  1  0  0  0  0
  7 16  1  0  0  0  0
  8 15  2  0  0  0  0
  9  1  1  0  0  0  0
 11  2  2  0  0  0  0
 11  8  1  0  0  0  0
 12 10  1  1  0  0  0
 12 11  1  0  0  0  0
 13 22  2  0  0  0  0
 15  7  1  0  0  0  0
 15  9  1  0  0  0  0
 16 14  1  0  0  0  0
 17  4  1  0  0  0  0
 18 17  1  6  0  0  0
 18 13  1  0  0  0  0
 18 12  1  0  0  0  0
 19 23  2  0  0  0  0
 19 13  1  0  0  0  0
 20  7  2  0  0  0  0
 22  5  1  0  0  0  0
 22  2  1  0  0  0  0
 23  6  1  0  0  0  0
 24 23  1  0  0  0  0
 25 24  1  0  0  0  0
 27 26  1  0  0  0  0
 28 30  1  0  0  0  0
 29 31  2  0  0  0  0
 29 32  1  0  0  0  0
 30 29  1  0  0  0  0
M  END
>  <MODEL>
6

>  <REMARK>
 VINA RESULT:      -8.0      2.678      8.765
  Name = 
  4 active torsions:
  status: ('A' for Active; 'I' for Inactive)
    1  A    between atoms: N_2  and  C_24
    2  A    between atoms: C_7  and  O_22
    3  A    between atoms: N_10  and  C_24
    4  A    between atoms: C_11  and  C_32
                            x       y       z     vdW  Elec       q    Type
                         _______ _______ _______ _____ _____    ______ ____

>  <TORSDO>
F 4

$$$$
=
 OpenBabel11052417003D

 32 36  0  0  1  0  0  0  0  0999 V2000
  180.9230  180.0840  138.2180 N   0  0  0  0  0  0  0  0  0  0  0  0
  184.8280  178.6330  141.1270 C   0  0  0  0  0  0  0  0  0  0  0  0
  188.4780  177.6250  138.0020 O   0  0  0  0  0  0  0  0  0  0  0  0
  189.3990  178.2530  138.8670 C   0  0  0  0  0  2  0  0  0  0  0  0
  185.3190  178.1880  143.5900 C   0  0  0  0  0  0  0  0  0  0  0  0
  186.2370  177.9340  144.6220 C   0  0  0  0  0  0  0  0  0  0  0  0
  182.6720  179.2800  140.3430 C   0  0  0  0  0  0  0  0  0  0  0  0
  184.3880  178.7120  138.7470 C   0  0  0  0  0  3  0  0  0  0  0  0
  182.1250  179.3170  137.8640 C   0  0  0  0  0  2  0  0  0  0  0  0
  187.2370  178.2750  138.1660 C   0  0  0  0  0  2  0  0  0  0  0  0
  185.2830  178.4850  139.7990 C   0  0  0  0  0  0  0  0  0  0  0  0
  186.6720  177.9530  139.5530 C   0  0  2  0  0  3  0  0  0  0  0  0
  187.1410  178.2490  141.9940 C   0  0  0  0  0  0  0  0  0  0  0  0
  180.3450  179.6130  139.4860 C   0  0  0  0  0  2  0  0  0  0  0  0
  183.0870  179.1340  139.0100 C   0  0  0  0  0  0  0  0  0  0  0  0
  181.3040  179.7890  140.6670 C   0  0  0  0  0  2  0  0  0  0  0  0
  189.0470  177.9610  140.3290 C   0  0  0  0  0  2  0  0  0  0  0  0
  187.6450  178.5060  140.5970 C   0  0  1  0  0  3  0  0  0  0  0  0
  188.0130  178.0160  143.0080 N   0  0  0  0  0  0  0  0  0  0  0  0
  183.5480  179.0390  141.3540 N   0  0  0  0  0  0  0  0  0  0  0  0
  184.0920  178.2530  143.8680 O   0  0  0  0  0  0  0  0  0  0  0  0
  185.7620  178.3600  142.2620 C   0  0  1  0  0  3  0  0  0  0  0  0
  187.6160  177.8490  144.2960 C   0  0  0  0  0  0  0  0  0  0  0  0
  188.6730  177.5380  145.3030 C   0  0  0  0  0  2  0  0  0  0  0  0
  190.0420  177.8670  144.7370 C   0  0  0  0  0  1  0  0  0  0  0  0
  185.6810  178.7780  146.9280 C   0  0  0  0  0  1  0  0  0  0  0  0
  185.7180  177.7760  145.9210 O   0  0  0  0  0  0  0  0  0  0  0  0
  181.2510  181.5050  138.2860 C   0  0  0  0  0  2  0  0  0  0  0  0
  181.1810  183.5100  136.7640 C   0  0  0  0  0  0  0  0  0  0  0  0
  180.7990  182.1710  137.0750 N   0  0  0  0  0  2  0  0  0  0  0  0
  181.9150  184.1670  137.5480 O   0  0  0  0  0  1  0  0  0  0  0  0
  180.7410  184.0930  135.5830 O   0  0  0  0  0  0  0  0  0  0  0  0
  1 28  1  0  0  0  0
  1 14  1  0  0  0  0
  2 20  1  0  0  0  0
  3 10  1  0  0  0  0
  3  4  1  0  0  0  0
  4 17  1  0  0  0  0
  5 21  2  0  0  0  0
  5  6  1  0  0  0  0
  6 27  1  0  0  0  0
  7 16  1  0  0  0  0
  7 20  2  0  0  0  0
  8 15  2  0  0  0  0
  8 11  1  0  0  0  0
  9  1  1  0  0  0  0
  9 15  1  0  0  0  0
 11  2  2  0  0  0  0
 12 10  1  6  0  0  0
 12 11  1  0  0  0  0
 12 18  1  0  0  0  0
 13 22  1  0  0  0  0
 13 19  2  0  0  0  0
 14 16  1  0  0  0  0
 15  7  1  0  0  0  0
 18 17  1  1  0  0  0
 18 13  1  0  0  0  0
 19 23  1  0  0  0  0
 22  2  1  6  0  0  0
 22  5  1  0  0  0  0
 23  6  2  0  0  0  0
 23 24  1  0  0  0  0
 25 24  1  0  0  0  0
 27 26  1  0  0  0  0
 29 30  1  0  0  0  0
 29 31  1  0  0  0  0
 30 28  1  0  0  0  0
 32 29  2  0  0  0  0
M  END
>  <MODEL>
7

>  <REMARK>
 VINA RESULT:      -7.5      4.411      7.170
  Name = 
  4 active torsions:
  status: ('A' for Active; 'I' for Inactive)
    1  A    between atoms: N_2  and  C_24
    2  A    between atoms: C_7  and  O_22
    3  A    between atoms: N_10  and  C_24
    4  A    between atoms: C_11  and  C_32
                            x       y       z     vdW  Elec       q    Type
                         _______ _______ _______ _____ _____    ______ ____

>  <TORSDO>
F 4

$$$$
=
 OpenBabel11052417003D

 32 36  0  0  1  0  0  0  0  0999 V2000
  192.0270  176.4250  137.2890 N   0  0  0  0  0  0  0  0  0  0  0  0
  189.9890  177.4210  141.8360 C   0  0  0  0  0  0  0  0  0  0  0  0
  185.4640  179.0780  140.9020 O   0  0  0  0  0  0  0  0  0  0  0  0
  184.9590  178.3280  141.9840 C   0  0  0  0  0  2  0  0  0  0  0  0
  190.6880  177.4210  144.2890 C   0  0  0  0  0  0  0  0  0  0  0  0
  190.3540  177.5070  145.6500 C   0  0  0  0  0  0  0  0  0  0  0  0
  191.4940  176.8720  140.0710 C   0  0  0  0  0  0  0  0  0  0  0  0
  189.3200  177.7670  139.5340 C   0  0  0  0  0  3  0  0  0  0  0  0
  190.8810  177.2750  137.6410 C   0  0  0  0  0  2  0  0  0  0  0  0
  186.5730  178.3770  140.3840 C   0  0  0  0  0  2  0  0  0  0  0  0
  189.0130  177.8210  140.8990 C   0  0  0  0  0  0  0  0  0  0  0  0
  187.7230  178.4260  141.3940 C   0  0  2  0  0  3  0  0  0  0  0  0
  188.3540  177.7010  143.7050 C   0  0  0  0  0  0  0  0  0  0  0  0
  193.1530  176.6400  138.2110 C   0  0  0  0  0  2  0  0  0  0  0  0
  190.5510  177.2700  139.1110 C   0  0  0  0  0  0  0  0  0  0  0  0
  192.8020  176.2770  139.6570 C   0  0  0  0  0  2  0  0  0  0  0  0
  185.9500  178.3380  143.1520 C   0  0  0  0  0  2  0  0  0  0  0  0
  187.2600  177.7160  142.6690 C   0  0  1  0  0  3  0  0  0  0  0  0
  188.0500  177.7670  145.0270 N   0  0  0  0  0  0  0  0  0  0  0  0
  191.1870  176.9470  141.3930 N   0  0  0  0  0  0  0  0  0  0  0  0
  191.8980  177.2740  143.9670 O   0  0  0  0  0  0  0  0  0  0  0  0
  189.6880  177.5060  143.2980 C   0  0  1  0  0  3  0  0  0  0  0  0
  188.9910  177.6860  146.0030 C   0  0  0  0  0  0  0  0  0  0  0  0
  188.5280  177.8350  147.4140 C   0  0  0  0  0  2  0  0  0  0  0  0
  187.9620  176.5190  147.9160 C   0  0  0  0  0  1  0  0  0  0  0  0
  191.7590  176.2490  147.3190 C   0  0  0  0  0  1  0  0  0  0  0  0
  191.4070  177.4100  146.5790 O   0  0  0  0  0  0  0  0  0  0  0  0
  191.6140  175.0250  137.2830 C   0  0  0  0  0  2  0  0  0  0  0  0
  193.3680  173.6750  136.0800 C   0  0  0  0  0  0  0  0  0  0  0  0
  192.1210  174.3690  136.0880 N   0  0  0  0  0  2  0  0  0  0  0  0
  194.0810  173.6250  137.1170 O   0  0  0  0  0  1  0  0  0  0  0  0
  193.7960  173.0450  134.9200 O   0  0  0  0  0  0  0  0  0  0  0  0
  1  9  1  0  0  0  0
  1 14  1  0  0  0  0
  3  4  1  0  0  0  0
  4 17  1  0  0  0  0
  5  6  1  0  0  0  0
  6 23  2  0  0  0  0
  6 27  1  0  0  0  0
  7 20  2  0  0  0  0
  8 11  1  0  0  0  0
  9 15  1  0  0  0  0
 10  3  1  0  0  0  0
 11 12  1  0  0  0  0
 11  2  2  0  0  0  0
 12 10  1  6  0  0  0
 12 18  1  0  0  0  0
 13 19  2  0  0  0  0
 14 16  1  0  0  0  0
 15  8  2  0  0  0  0
 15  7  1  0  0  0  0
 16  7  1  0  0  0  0
 18 17  1  1  0  0  0
 18 13  1  0  0  0  0
 19 23  1  0  0  0  0
 20  2  1  0  0  0  0
 21  5  2  0  0  0  0
 22  2  1  6  0  0  0
 22 13  1  0  0  0  0
 22  5  1  0  0  0  0
 23 24  1  0  0  0  0
 24 25  1  0  0  0  0
 27 26  1  0  0  0  0
 28  1  1  0  0  0  0
 29 30  1  0  0  0  0
 29 31  1  0  0  0  0
 30 28  1  0  0  0  0
 32 29  2  0  0  0  0
M  END
>  <MODEL>
8

>  <REMARK>
 VINA RESULT:      -7.3      1.859      2.294
  Name = 
  4 active torsions:
  status: ('A' for Active; 'I' for Inactive)
    1  A    between atoms: N_2  and  C_24
    2  A    between atoms: C_7  and  O_22
    3  A    between atoms: N_10  and  C_24
    4  A    between atoms: C_11  and  C_32
                            x       y       z     vdW  Elec       q    Type
                         _______ _______ _______ _____ _____    ______ ____

>  <TORSDO>
F 4

$$$$
=
 OpenBabel11052417003D

 32 36  0  0  1  0  0  0  0  0999 V2000
  189.4520  177.7600  146.8710 N   0  0  0  0  0  0  0  0  0  0  0  0
  185.5930  178.4490  143.6360 C   0  0  0  0  0  0  0  0  0  0  0  0
  187.6440  178.6350  139.1800 O   0  0  0  0  0  0  0  0  0  0  0  0
  186.5940  177.8520  138.6580 C   0  0  0  0  0  2  0  0  0  0  0  0
  183.0730  178.8350  143.7170 C   0  0  0  0  0  0  0  0  0  0  0  0
  181.8330  178.9190  143.0630 C   0  0  2  0  0  3  0  0  0  0  0  0
  186.9240  178.2360  145.6020 C   0  0  0  0  0  0  0  0  0  0  0  0
  188.0080  178.4130  143.4560 C   0  0  0  0  0  3  0  0  0  0  0  0
  189.4590  178.2600  145.4890 C   0  0  0  0  0  2  0  0  0  0  0  0
  187.8250  178.2530  140.5260 C   0  0  0  0  0  2  0  0  0  0  0  0
  186.7540  178.4750  142.8350 C   0  0  0  0  0  0  0  0  0  0  0  0
  186.6190  178.7110  141.3520 C   0  0  2  0  0  3  0  0  0  0  0  0
  184.1510  178.3750  141.5970 C   0  0  0  0  0  0  0  0  0  0  0  0
  188.3590  178.3620  147.6490 C   0  0  0  0  0  2  0  0  0  0  0  0
  188.1010  178.2680  144.8380 C   0  0  0  0  0  0  0  0  0  0  0  0
  186.9780  178.0200  147.0810 C   0  0  0  0  0  2  0  0  0  0  0  0
  185.2620  178.2380  139.3080 C   0  0  0  0  0  2  0  0  0  0  0  0
  185.3790  177.9930  140.8120 C   0  0  1  0  0  3  0  0  0  0  0  0
  182.9400  178.4470  140.9860 N   0  0  0  0  0  0  0  0  0  0  0  0
  185.7150  178.3150  144.9860 N   0  0  0  0  0  0  0  0  0  0  0  0
  183.1200  179.0250  144.9620 O   0  0  0  0  0  0  0  0  0  0  0  0
  184.2490  178.5500  142.9910 C   0  0  0  0  0  0  0  0  0  0  0  0
  181.7920  178.7170  141.6590 C   0  0  0  0  0  0  0  0  0  0  0  0
  180.5380  178.8280  140.8570 C   0  0  0  0  0  2  0  0  0  0  0  0
  179.9260  177.4540  140.6570 C   0  0  0  0  0  1  0  0  0  0  0  0
  179.7690  178.2530  144.3430 C   0  0  0  0  0  1  0  0  0  0  0  0
  180.7050  179.2050  143.8570 O   0  0  0  0  0  0  0  0  0  0  0  0
  189.3480  176.3030  146.8620 C   0  0  0  0  0  2  0  0  0  0  0  0
  191.8030  175.7960  147.1050 C   0  0  0  0  0  0  0  0  0  0  0  0
  190.4650  175.7290  147.5950 N   0  0  0  0  0  2  0  0  0  0  0  0
  192.0550  176.3470  146.0010 O   0  0  0  0  0  0  0  0  0  0  0  0
  192.8380  175.2530  147.8550 O   0  0  0  0  0  1  0  0  0  0  0  0
  1 14  1  0  0  0  0
  2 20  1  0  0  0  0
  3 10  1  0  0  0  0
  4  3  1  0  0  0  0
  4 17  1  0  0  0  0
  5 21  2  0  0  0  0
  6  5  1  0  0  0  0
  6 27  1  6  0  0  0
  7 16  1  0  0  0  0
  8 15  2  0  0  0  0
  9  1  1  0  0  0  0
 11  8  1  0  0  0  0
 11  2  2  0  0  0  0
 12 10  1  6  0  0  0
 12 11  1  0  0  0  0
 13 22  2  0  0  0  0
 15  9  1  0  0  0  0
 15  7  1  0  0  0  0
 16 14  1  0  0  0  0
 18 17  1  6  0  0  0
 18 12  1  0  0  0  0
 18 13  1  0  0  0  0
 19 13  1  0  0  0  0
 19 23  2  0  0  0  0
 20  7  2  0  0  0  0
 22  2  1  0  0  0  0
 22  5  1  0  0  0  0
 23  6  1  0  0  0  0
 24 23  1  0  0  0  0
 25 24  1  0  0  0  0
 27 26  1  0  0  0  0
 28  1  1  0  0  0  0
 28 30  1  0  0  0  0
 29 30  1  0  0  0  0
 29 32  1  0  0  0  0
 31 29  2  0  0  0  0
M  END
>  <MODEL>
9

>  <REMARK>
 VINA RESULT:      -7.1      3.245      8.128
  Name = 
  4 active torsions:
  status: ('A' for Active; 'I' for Inactive)
    1  A    between atoms: N_2  and  C_24
    2  A    between atoms: C_7  and  O_22
    3  A    between atoms: N_10  and  C_24
    4  A    between atoms: C_11  and  C_32
                            x       y       z     vdW  Elec       q    Type
                         _______ _______ _______ _____ _____    ______ ____

>  <TORSDO>
F 4

$$$$
