=
 OpenBabel11052412523D

 25 28  0  0  1  0  0  0  0  0999 V2000
  187.5490  177.6360  145.5520 C   0  0  0  0  0  0  0  0  0  0  0  0
  188.8620  177.2990  145.1930 C   0  0  0  0  0  0  0  0  0  0  0  0
  188.1520  178.0130  147.8570 C   0  0  0  0  0  3  0  0  0  0  0  0
  186.2950  177.6070  144.7490 C   0  0  1  0  0  3  0  0  0  0  0  0
  190.1620  176.3590  143.1760 C   0  0  0  0  0  0  0  0  0  0  0  0
  183.9550  179.1800  144.1610 C   0  0  0  0  0  3  0  0  0  0  0  0
  189.4810  177.7190  147.5290 C   0  0  0  0  0  3  0  0  0  0  0  0
  185.3150  178.0680  145.7940 C   0  0  0  0  0  0  0  0  0  0  0  0
  184.0300  178.6440  145.3860 C   0  0  0  0  0  3  0  0  0  0  0  0
  191.2970  177.0730  145.9090 C   0  0  1  0  0  3  0  0  0  0  0  0
  192.0800  177.0850  147.0670 O   0  0  0  0  0  1  0  0  0  0  0  0
  189.1150  176.9570  143.7740 C   0  0  0  0  0  3  0  0  0  0  0  0
  185.1480  179.2320  143.2760 C   0  0  0  0  0  3  0  0  0  0  0  0
  187.2040  177.9480  146.8450 C   0  0  0  0  0  0  0  0  0  0  0  0
  185.8240  178.2530  146.9710 N   0  0  0  0  0  0  0  0  0  0  0  0
  191.3960  175.7150  145.2610 C   0  0  0  0  0  2  0  0  0  0  0  0
  186.2680  178.5520  143.5740 C   0  0  0  0  0  3  0  0  0  0  0  0
  191.2790  175.8540  143.8540 O   0  0  0  0  0  0  0  0  0  0  0  0
  189.8550  177.3580  146.2120 C   0  0  0  0  0  0  0  0  0  0  0  0
  190.1530  176.2170  141.7500 N   0  0  0  0  0  2  0  0  0  0  0  0
  188.9630  177.4460  140.0040 C   0  0  0  0  0  1  0  0  0  0  0  0
  190.2460  177.3300  140.8100 C   0  0  2  0  0  3  0  0  0  0  0  0
  191.4080  177.1310  139.8960 C   0  0  0  0  0  0  0  0  0  0  0  0
  191.2070  176.5330  138.6220 N   0  0  0  0  0  1  0  0  0  0  0  0
  192.5680  177.4800  140.2470 O   0  0  0  0  0  0  0  0  0  0  0  0
  1 14  1  0  0  0  0
  2  1  2  0  0  0  0
  2 19  1  0  0  0  0
  4 17  1  6  0  0  0
  4  1  1  0  0  0  0
  4  8  1  0  0  0  0
  5 12  2  0  0  0  0
  5 18  1  0  0  0  0
  6  9  2  0  0  0  0
  7  3  1  0  0  0  0
  8 15  2  0  0  0  0
  9  8  1  0  0  0  0
 10 19  1  0  0  0  0
 10 11  1  1  0  0  0
 12  2  1  0  0  0  0
 13 17  2  0  0  0  0
 13  6  1  0  0  0  0
 14 15  1  0  0  0  0
 14  3  2  0  0  0  0
 16 10  1  0  0  0  0
 18 16  1  0  0  0  0
 19  7  2  0  0  0  0
 20  5  1  0  0  0  0
 22 21  1  6  0  0  0
 22 20  1  0  0  0  0
 23 25  2  0  0  0  0
 23 22  1  0  0  0  0
 24 23  1  0  0  0  0
M  END
>  <MODEL>
1

>  <REMARK>
 VINA RESULT:      -9.9      0.000      0.000
  Name = 
  3 active torsions:
  status: ('A' for Active; 'I' for Inactive)
    1  A    between atoms: C_2  and  C_25
    2  A    between atoms: C_6  and  N_15
    3  A    between atoms: N_15  and  C_25
                            x       y       z     vdW  Elec       q    Type
                         _______ _______ _______ _____ _____    ______ ____

>  <TORSDO>
F 3

$$$$
=
 OpenBabel11052412523D

 25 28  0  0  1  0  0  0  0  0999 V2000
  188.5410  177.6400  144.8000 C   0  0  0  0  0  0  0  0  0  0  0  0
  187.8340  177.8030  143.6010 C   0  0  0  0  0  0  0  0  0  0  0  0
  186.5300  177.7070  146.1300 C   0  0  0  0  0  3  0  0  0  0  0  0
  190.0080  177.5890  145.0520 C   0  0  1  0  0  3  0  0  0  0  0  0
  188.2900  178.2120  141.0960 C   0  0  0  0  0  0  0  0  0  0  0  0
  191.9980  176.0940  146.5030 C   0  0  0  0  0  3  0  0  0  0  0  0
  185.7860  177.8350  144.9510 C   0  0  0  0  0  3  0  0  0  0  0  0
  190.0010  177.4230  146.5480 C   0  0  0  0  0  0  0  0  0  0  0  0
  191.1760  176.8660  147.2260 C   0  0  0  0  0  3  0  0  0  0  0  0
  185.5700  178.0030  142.4480 C   0  0  1  0  0  3  0  0  0  0  0  0
  184.2190  178.1770  142.7600 O   0  0  0  0  0  1  0  0  0  0  0  0
  188.6180  177.8250  142.3430 C   0  0  0  0  0  3  0  0  0  0  0  0
  191.6950  175.7770  145.0820 C   0  0  0  0  0  3  0  0  0  0  0  0
  187.9110  177.6270  146.0210 C   0  0  0  0  0  0  0  0  0  0  0  0
  188.8250  177.4510  147.0920 N   0  0  0  0  0  0  0  0  0  0  0  0
  186.0470  179.1860  141.6450 C   0  0  0  0  0  2  0  0  0  0  0  0
  190.7250  176.4250  144.4150 C   0  0  0  0  0  3  0  0  0  0  0  0
  187.0550  178.7680  140.7390 O   0  0  0  0  0  0  0  0  0  0  0  0
  186.4150  177.8880  143.6830 C   0  0  0  0  0  0  0  0  0  0  0  0
  189.2570  178.0560  140.0500 N   0  0  0  0  0  2  0  0  0  0  0  0
  191.5750  177.4290  140.5020 C   0  0  0  0  0  1  0  0  0  0  0  0
  190.2250  176.9670  139.9780 C   0  0  2  0  0  3  0  0  0  0  0  0
  190.3580  176.4920  138.5700 C   0  0  0  0  0  0  0  0  0  0  0  0
  190.8820  175.1960  138.3110 N   0  0  0  0  0  1  0  0  0  0  0  0
  190.0190  177.2330  137.6080 O   0  0  0  0  0  0  0  0  0  0  0  0
  1  4  1  0  0  0  0
  1 14  1  0  0  0  0
  2 19  1  0  0  0  0
  2  1  2  0  0  0  0
  4 17  1  6  0  0  0
  4  8  1  0  0  0  0
  5 12  2  0  0  0  0
  6  9  2  0  0  0  0
  7  3  1  0  0  0  0
  8 15  2  0  0  0  0
  8  9  1  0  0  0  0
 10 11  1  1  0  0  0
 10 19  1  0  0  0  0
 12  2  1  0  0  0  0
 13  6  1  0  0  0  0
 14  3  2  0  0  0  0
 14 15  1  0  0  0  0
 16 10  1  0  0  0  0
 17 13  2  0  0  0  0
 18  5  1  0  0  0  0
 18 16  1  0  0  0  0
 19  7  2  0  0  0  0
 20  5  1  0  0  0  0
 22 20  1  0  0  0  0
 22 21  1  6  0  0  0
 23 22  1  0  0  0  0
 24 23  1  0  0  0  0
 25 23  2  0  0  0  0
M  END
>  <MODEL>
2

>  <REMARK>
 VINA RESULT:      -9.8      2.576      4.830
  Name = 
  3 active torsions:
  status: ('A' for Active; 'I' for Inactive)
    1  A    between atoms: C_2  and  C_25
    2  A    between atoms: C_6  and  N_15
    3  A    between atoms: N_15  and  C_25
                            x       y       z     vdW  Elec       q    Type
                         _______ _______ _______ _____ _____    ______ ____

>  <TORSDO>
F 3

$$$$
=
 OpenBabel11052412523D

 25 28  0  0  1  0  0  0  0  0999 V2000
  186.3140  178.0570  144.6690 C   0  0  0  0  0  0  0  0  0  0  0  0
  187.5320  177.8360  145.3280 C   0  0  0  0  0  0  0  0  0  0  0  0
  185.2280  178.8150  146.6850 C   0  0  0  0  0  3  0  0  0  0  0  0
  185.9140  177.7670  143.2630 C   0  0  1  0  0  3  0  0  0  0  0  0
  189.8450  176.7940  144.8720 C   0  0  0  0  0  0  0  0  0  0  0  0
  184.5620  178.9520  141.0120 C   0  0  0  0  0  3  0  0  0  0  0  0
  186.4370  178.6410  147.3690 C   0  0  0  0  0  3  0  0  0  0  0  0
  184.4870  178.2450  143.3040 C   0  0  0  0  0  0  0  0  0  0  0  0
  183.8020  178.6010  142.0570 C   0  0  0  0  0  3  0  0  0  0  0  0
  188.8700  178.0050  147.4890 C   0  0  1  0  0  3  0  0  0  0  0  0
  188.6830  178.2690  148.8490 O   0  0  0  0  0  1  0  0  0  0  0  0
  188.6660  177.3370  144.5150 C   0  0  0  0  0  3  0  0  0  0  0  0
  186.0420  179.0270  141.1360 C   0  0  0  0  0  3  0  0  0  0  0  0
  185.1950  178.4980  145.3340 C   0  0  0  0  0  0  0  0  0  0  0  0
  184.0820  178.6490  144.4670 N   0  0  0  0  0  0  0  0  0  0  0  0
  189.3750  176.5940  147.3260 C   0  0  0  0  0  2  0  0  0  0  0  0
  186.6770  178.5340  142.2120 C   0  0  0  0  0  3  0  0  0  0  0  0
  190.2260  176.5250  146.1930 O   0  0  0  0  0  0  0  0  0  0  0  0
  187.5930  178.1520  146.7140 C   0  0  0  0  0  0  0  0  0  0  0  0
  190.7880  176.4590  143.8460 N   0  0  0  0  0  2  0  0  0  0  0  0
  191.5060  178.7950  143.8200 C   0  0  0  0  0  1  0  0  0  0  0  0
  191.6750  177.4190  143.1970 C   0  0  2  0  0  3  0  0  0  0  0  0
  191.3810  177.4800  141.7350 C   0  0  0  0  0  0  0  0  0  0  0  0
  190.0320  177.4760  141.2880 N   0  0  0  0  0  1  0  0  0  0  0  0
  192.3190  177.5240  140.8930 O   0  0  0  0  0  0  0  0  0  0  0  0
  1  2  2  0  0  0  0
  1 14  1  0  0  0  0
  2 19  1  0  0  0  0
  3  7  1  0  0  0  0
  4 17  1  6  0  0  0
  4  8  1  0  0  0  0
  4  1  1  0  0  0  0
  5 18  1  0  0  0  0
  6 13  1  0  0  0  0
  6  9  2  0  0  0  0
  8 15  2  0  0  0  0
  9  8  1  0  0  0  0
 10 11  1  1  0  0  0
 12  5  2  0  0  0  0
 12  2  1  0  0  0  0
 13 17  2  0  0  0  0
 14  3  2  0  0  0  0
 15 14  1  0  0  0  0
 16 10  1  0  0  0  0
 18 16  1  0  0  0  0
 19  7  2  0  0  0  0
 19 10  1  0  0  0  0
 20  5  1  0  0  0  0
 22 21  1  1  0  0  0
 22 20  1  0  0  0  0
 23 22  1  0  0  0  0
 24 23  1  0  0  0  0
 25 23  2  0  0  0  0
M  END
>  <MODEL>
3

>  <REMARK>
 VINA RESULT:      -9.8      1.748      2.683
  Name = 
  3 active torsions:
  status: ('A' for Active; 'I' for Inactive)
    1  A    between atoms: C_2  and  C_25
    2  A    between atoms: C_6  and  N_15
    3  A    between atoms: N_15  and  C_25
                            x       y       z     vdW  Elec       q    Type
                         _______ _______ _______ _____ _____    ______ ____

>  <TORSDO>
F 3

$$$$
=
 OpenBabel11052412523D

 25 28  0  0  1  0  0  0  0  0999 V2000
  188.4530  177.6500  144.8730 C   0  0  0  0  0  0  0  0  0  0  0  0
  187.6610  177.8630  143.7370 C   0  0  0  0  0  0  0  0  0  0  0  0
  186.5430  177.6520  146.3470 C   0  0  0  0  0  3  0  0  0  0  0  0
  189.9350  177.5930  145.0160 C   0  0  1  0  0  3  0  0  0  0  0  0
  187.9350  178.3840  141.2270 C   0  0  0  0  0  0  0  0  0  0  0  0
  192.0240  176.0420  146.2520 C   0  0  0  0  0  3  0  0  0  0  0  0
  185.7160  177.8290  145.2310 C   0  0  0  0  0  3  0  0  0  0  0  0
  190.0360  177.3610  146.5000 C   0  0  0  0  0  0  0  0  0  0  0  0
  191.2560  176.7780  147.0660 C   0  0  0  0  0  3  0  0  0  0  0  0
  185.3200  178.1070  142.7600 C   0  0  1  0  0  3  0  0  0  0  0  0
  183.9950  178.2630  143.1770 O   0  0  0  0  0  1  0  0  0  0  0  0
  188.3520  177.9430  142.4280 C   0  0  0  0  0  3  0  0  0  0  0  0
  191.6190  175.7870  144.8450 C   0  0  0  0  0  3  0  0  0  0  0  0
  187.9130  177.5820  146.1350 C   0  0  0  0  0  0  0  0  0  0  0  0
  188.9020  177.3620  147.1290 N   0  0  0  0  0  0  0  0  0  0  0  0
  185.7370  179.3260  141.9780 C   0  0  0  0  0  2  0  0  0  0  0  0
  190.6030  176.4600  144.2790 C   0  0  0  0  0  3  0  0  0  0  0  0
  186.6770  178.9500  140.9840 O   0  0  0  0  0  0  0  0  0  0  0  0
  186.2520  177.9400  143.9250 C   0  0  0  0  0  0  0  0  0  0  0  0
  188.8230  178.2770  140.1070 N   0  0  0  0  0  2  0  0  0  0  0  0
  189.7060  176.8000  138.3710 C   0  0  0  0  0  1  0  0  0  0  0  0
  188.5010  177.5850  138.8630 C   0  0  2  0  0  3  0  0  0  0  0  0
  188.0720  178.5690  137.8260 C   0  0  0  0  0  0  0  0  0  0  0  0
  189.0300  179.4480  137.2520 N   0  0  0  0  0  1  0  0  0  0  0  0
  186.8670  178.6340  137.4630 O   0  0  0  0  0  0  0  0  0  0  0  0
  1  4  1  0  0  0  0
  1 14  1  0  0  0  0
  2 19  1  0  0  0  0
  2  1  2  0  0  0  0
  4 17  1  6  0  0  0
  4  8  1  0  0  0  0
  5 12  2  0  0  0  0
  6  9  2  0  0  0  0
  7  3  1  0  0  0  0
  8  9  1  0  0  0  0
  8 15  2  0  0  0  0
 10 11  1  1  0  0  0
 10 19  1  0  0  0  0
 12  2  1  0  0  0  0
 13  6  1  0  0  0  0
 14  3  2  0  0  0  0
 14 15  1  0  0  0  0
 16 10  1  0  0  0  0
 17 13  2  0  0  0  0
 18  5  1  0  0  0  0
 18 16  1  0  0  0  0
 19  7  2  0  0  0  0
 20  5  1  0  0  0  0
 22 21  1  6  0  0  0
 22 20  1  0  0  0  0
 23 22  1  0  0  0  0
 24 23  1  0  0  0  0
 25 23  2  0  0  0  0
M  END
>  <MODEL>
4

>  <REMARK>
 VINA RESULT:      -9.7      2.918      5.087
  Name = 
  3 active torsions:
  status: ('A' for Active; 'I' for Inactive)
    1  A    between atoms: C_2  and  C_25
    2  A    between atoms: C_6  and  N_15
    3  A    between atoms: N_15  and  C_25
                            x       y       z     vdW  Elec       q    Type
                         _______ _______ _______ _____ _____    ______ ____

>  <TORSDO>
F 3

$$$$
=
 OpenBabel11052412523D

 25 28  0  0  1  0  0  0  0  0999 V2000
  188.0880  177.7260  144.6820 C   0  0  0  0  0  0  0  0  0  0  0  0
  186.8480  178.1130  144.1550 C   0  0  0  0  0  0  0  0  0  0  0  0
  187.2490  177.7010  146.9440 C   0  0  0  0  0  3  0  0  0  0  0  0
  189.4070  177.5540  144.0120 C   0  0  1  0  0  3  0  0  0  0  0  0
  185.8240  178.8780  141.9160 C   0  0  0  0  0  0  0  0  0  0  0  0
  191.6410  175.7420  143.8600 C   0  0  0  0  0  3  0  0  0  0  0  0
  185.9860  178.0520  146.4500 C   0  0  0  0  0  3  0  0  0  0  0  0
  190.2440  177.1590  145.1990 C   0  0  0  0  0  0  0  0  0  0  0  0
  191.5040  176.4380  144.9970 C   0  0  0  0  0  3  0  0  0  0  0  0
  184.3880  178.6180  144.5880 C   0  0  1  0  0  3  0  0  0  0  0  0
  183.5060  178.8180  145.6540 O   0  0  0  0  0  1  0  0  0  0  0  0
  186.7550  178.2840  142.6850 C   0  0  0  0  0  3  0  0  0  0  0  0
  190.5320  175.6660  142.8730 C   0  0  0  0  0  3  0  0  0  0  0  0
  188.2860  177.5610  146.0320 C   0  0  0  0  0  0  0  0  0  0  0  0
  189.6160  177.1700  146.3330 N   0  0  0  0  0  0  0  0  0  0  0  0
  184.4700  179.8820  143.7710 C   0  0  0  0  0  2  0  0  0  0  0  0
  189.4550  176.4630  142.9710 C   0  0  0  0  0  3  0  0  0  0  0  0
  184.6990  179.5510  142.4110 O   0  0  0  0  0  0  0  0  0  0  0  0
  185.7660  178.2650  145.0680 C   0  0  0  0  0  0  0  0  0  0  0  0
  185.9740  178.8310  140.4920 N   0  0  0  0  0  2  0  0  0  0  0  0
  185.5470  178.0220  138.2250 C   0  0  0  0  0  1  0  0  0  0  0  0
  184.9350  178.3870  139.5680 C   0  0  2  0  0  3  0  0  0  0  0  0
  183.9150  179.4620  139.3910 C   0  0  0  0  0  0  0  0  0  0  0  0
  182.5520  179.1960  139.6970 N   0  0  0  0  0  1  0  0  0  0  0  0
  184.2490  180.5990  138.9620 O   0  0  0  0  0  0  0  0  0  0  0  0
  1 14  1  0  0  0  0
  2  1  2  0  0  0  0
  2 19  1  0  0  0  0
  4 17  1  6  0  0  0
  4  1  1  0  0  0  0
  4  8  1  0  0  0  0
  5 18  1  0  0  0  0
  5 12  2  0  0  0  0
  6  9  2  0  0  0  0
  7  3  1  0  0  0  0
  8 15  2  0  0  0  0
  9  8  1  0  0  0  0
 10 19  1  0  0  0  0
 10 11  1  1  0  0  0
 12  2  1  0  0  0  0
 13 17  2  0  0  0  0
 13  6  1  0  0  0  0
 14 15  1  0  0  0  0
 14  3  2  0  0  0  0
 16 10  1  0  0  0  0
 18 16  1  0  0  0  0
 19  7  2  0  0  0  0
 20  5  1  0  0  0  0
 22 21  1  6  0  0  0
 22 20  1  0  0  0  0
 23 22  1  0  0  0  0
 23 24  1  0  0  0  0
 25 23  2  0  0  0  0
M  END
>  <MODEL>
5

>  <REMARK>
 VINA RESULT:      -9.7      3.898      5.909
  Name = 
  3 active torsions:
  status: ('A' for Active; 'I' for Inactive)
    1  A    between atoms: C_2  and  C_25
    2  A    between atoms: C_6  and  N_15
    3  A    between atoms: N_15  and  C_25
                            x       y       z     vdW  Elec       q    Type
                         _______ _______ _______ _____ _____    ______ ____

>  <TORSDO>
F 3

$$$$
=
 OpenBabel11052412523D

 25 28  0  0  1  0  0  0  0  0999 V2000
  187.1180  177.8220  144.8560 C   0  0  0  0  0  0  0  0  0  0  0  0
  188.3750  177.5990  144.2790 C   0  0  0  0  0  0  0  0  0  0  0  0
  188.0170  177.8290  147.0950 C   0  0  0  0  0  3  0  0  0  0  0  0
  185.7680  177.8820  144.2290 C   0  0  1  0  0  3  0  0  0  0  0  0
  189.4080  177.0610  141.9790 C   0  0  0  0  0  0  0  0  0  0  0  0
  183.3470  179.4440  144.2270 C   0  0  0  0  0  3  0  0  0  0  0  0
  189.2950  177.6430  146.5520 C   0  0  0  0  0  3  0  0  0  0  0  0
  184.9300  178.1240  145.4560 C   0  0  0  0  0  0  0  0  0  0  0  0
  183.5940  178.7120  145.3220 C   0  0  0  0  0  3  0  0  0  0  0  0
  190.8870  177.3460  144.6250 C   0  0  1  0  0  3  0  0  0  0  0  0
  191.8180  177.1920  145.6560 O   0  0  0  0  0  1  0  0  0  0  0  0
  188.4420  177.5110  142.8010 C   0  0  0  0  0  3  0  0  0  0  0  0
  184.4110  179.6880  143.2170 C   0  0  0  0  0  3  0  0  0  0  0  0
  186.9440  177.8990  146.2170 C   0  0  0  0  0  0  0  0  0  0  0  0
  185.5890  178.1270  146.5710 N   0  0  0  0  0  0  0  0  0  0  0  0
  190.9180  176.1220  143.7460 C   0  0  0  0  0  2  0  0  0  0  0  0
  185.5710  179.0100  143.2480 C   0  0  0  0  0  3  0  0  0  0  0  0
  190.6130  176.4910  142.4110 O   0  0  0  0  0  0  0  0  0  0  0  0
  189.4940  177.5230  145.1560 C   0  0  0  0  0  0  0  0  0  0  0  0
  189.2100  177.1610  140.5630 N   0  0  0  0  0  2  0  0  0  0  0  0
  187.1080  178.1270  139.7760 C   0  0  0  0  0  1  0  0  0  0  0  0
  188.6120  178.3110  139.8940 C   0  0  2  0  0  3  0  0  0  0  0  0
  189.2140  178.4850  138.5400 C   0  0  0  0  0  0  0  0  0  0  0  0
  190.0710  177.4790  138.0160 N   0  0  0  0  0  1  0  0  0  0  0  0
  188.9770  179.5210  137.8610 O   0  0  0  0  0  0  0  0  0  0  0  0
  1 14  1  0  0  0  0
  2  1  2  0  0  0  0
  2 19  1  0  0  0  0
  4 17  1  6  0  0  0
  4  1  1  0  0  0  0
  4  8  1  0  0  0  0
  5 18  1  0  0  0  0
  5 12  2  0  0  0  0
  6  9  2  0  0  0  0
  7  3  1  0  0  0  0
  8 15  2  0  0  0  0
  9  8  1  0  0  0  0
 10 19  1  0  0  0  0
 10 11  1  1  0  0  0
 12  2  1  0  0  0  0
 13 17  2  0  0  0  0
 13  6  1  0  0  0  0
 14 15  1  0  0  0  0
 14  3  2  0  0  0  0
 16 10  1  0  0  0  0
 18 16  1  0  0  0  0
 19  7  2  0  0  0  0
 20  5  1  0  0  0  0
 22 21  1  6  0  0  0
 22 20  1  0  0  0  0
 23 22  1  0  0  0  0
 24 23  1  0  0  0  0
 25 23  2  0  0  0  0
M  END
>  <MODEL>
6

>  <REMARK>
 VINA RESULT:      -9.5      1.483      1.646
  Name = 
  3 active torsions:
  status: ('A' for Active; 'I' for Inactive)
    1  A    between atoms: C_2  and  C_25
    2  A    between atoms: C_6  and  N_15
    3  A    between atoms: N_15  and  C_25
                            x       y       z     vdW  Elec       q    Type
                         _______ _______ _______ _____ _____    ______ ____

>  <TORSDO>
F 3

$$$$
=
 OpenBabel11052412523D

 25 28  0  0  1  0  0  0  0  0999 V2000
  185.9350  178.4870  144.7540 C   0  0  0  0  0  0  0  0  0  0  0  0
  185.7680  178.4210  143.3640 C   0  0  0  0  0  0  0  0  0  0  0  0
  183.5600  178.6430  145.1490 C   0  0  0  0  0  3  0  0  0  0  0  0
  187.1780  178.5610  145.5710 C   0  0  1  0  0  3  0  0  0  0  0  0
  187.1920  178.4620  141.2150 C   0  0  0  0  0  0  0  0  0  0  0  0
  188.4080  177.4270  147.9170 C   0  0  0  0  0  3  0  0  0  0  0  0
  183.3520  178.5430  143.7680 C   0  0  0  0  0  3  0  0  0  0  0  0
  186.5720  178.6290  146.9480 C   0  0  0  0  0  0  0  0  0  0  0  0
  187.3720  178.2530  148.1170 C   0  0  0  0  0  3  0  0  0  0  0  0
  184.1560  178.3080  141.3930 C   0  0  1  0  0  3  0  0  0  0  0  0
  182.7950  178.4500  141.1120 O   0  0  0  0  0  1  0  0  0  0  0  0
  186.9900  178.2920  142.5350 C   0  0  0  0  0  3  0  0  0  0  0  0
  188.6950  176.8770  146.5660 C   0  0  0  0  0  3  0  0  0  0  0  0
  184.8690  178.6280  145.6100 C   0  0  0  0  0  0  0  0  0  0  0  0
  185.2770  178.6740  146.9680 N   0  0  0  0  0  0  0  0  0  0  0  0
  184.9250  179.3780  140.6610 C   0  0  0  0  0  2  0  0  0  0  0  0
  188.0790  177.3550  145.4720 C   0  0  0  0  0  3  0  0  0  0  0  0
  186.2070  178.8820  140.3110 O   0  0  0  0  0  0  0  0  0  0  0  0
  184.4360  178.4350  142.8630 C   0  0  0  0  0  0  0  0  0  0  0  0
  188.4950  178.2010  140.6780 N   0  0  0  0  0  2  0  0  0  0  0  0
  190.1510  176.7980  139.5540 C   0  0  0  0  0  1  0  0  0  0  0  0
  188.7500  177.3840  139.4960 C   0  0  2  0  0  3  0  0  0  0  0  0
  188.5900  178.2070  138.2610 C   0  0  0  0  0  0  0  0  0  0  0  0
  187.9180  177.6610  137.1340 N   0  0  0  0  0  1  0  0  0  0  0  0
  189.0560  179.3770  138.2050 O   0  0  0  0  0  0  0  0  0  0  0  0
  1  4  1  0  0  0  0
  1 14  1  0  0  0  0
  2  1  2  0  0  0  0
  3 14  2  0  0  0  0
  4 17  1  1  0  0  0
  4  8  1  0  0  0  0
  5 12  2  0  0  0  0
  6  9  2  0  0  0  0
  7  3  1  0  0  0  0
  8 15  2  0  0  0  0
  8  9  1  0  0  0  0
 10 11  1  1  0  0  0
 10 19  1  0  0  0  0
 12  2  1  0  0  0  0
 13  6  1  0  0  0  0
 14 15  1  0  0  0  0
 16 10  1  0  0  0  0
 17 13  2  0  0  0  0
 18 16  1  0  0  0  0
 18  5  1  0  0  0  0
 19  2  1  0  0  0  0
 19  7  2  0  0  0  0
 20  5  1  0  0  0  0
 22 21  1  1  0  0  0
 22 20  1  0  0  0  0
 23 22  1  0  0  0  0
 24 23  1  0  0  0  0
 25 23  2  0  0  0  0
M  END
>  <MODEL>
7

>  <REMARK>
 VINA RESULT:      -9.3      2.962      5.111
  Name = 
  3 active torsions:
  status: ('A' for Active; 'I' for Inactive)
    1  A    between atoms: C_2  and  C_25
    2  A    between atoms: C_6  and  N_15
    3  A    between atoms: N_15  and  C_25
                            x       y       z     vdW  Elec       q    Type
                         _______ _______ _______ _____ _____    ______ ____

>  <TORSDO>
F 3

$$$$
=
 OpenBabel11052412523D

 25 28  0  0  1  0  0  0  0  0999 V2000
  184.9240  178.7470  143.8540 C   0  0  0  0  0  0  0  0  0  0  0  0
  184.9130  178.6180  142.4580 C   0  0  0  0  0  0  0  0  0  0  0  0
  182.5160  178.7270  143.9920 C   0  0  0  0  0  3  0  0  0  0  0  0
  186.0630  178.9500  144.7920 C   0  0  1  0  0  3  0  0  0  0  0  0
  186.5520  178.6960  140.4700 C   0  0  0  0  0  0  0  0  0  0  0  0
  187.1170  178.0030  147.3010 C   0  0  0  0  0  3  0  0  0  0  0  0
  182.4650  178.5600  142.6020 C   0  0  0  0  0  3  0  0  0  0  0  0
  185.3090  179.0190  146.0940 C   0  0  0  0  0  0  0  0  0  0  0  0
  186.0060  178.7500  147.3550 C   0  0  0  0  0  3  0  0  0  0  0  0
  183.5350  178.3060  140.3370 C   0  0  1  0  0  3  0  0  0  0  0  0
  182.2050  178.3280  139.9100 O   0  0  0  0  0  1  0  0  0  0  0  0
  186.2230  178.5580  141.7680 C   0  0  0  0  0  3  0  0  0  0  0  0
  187.5880  177.4290  146.0130 C   0  0  0  0  0  3  0  0  0  0  0  0
  183.7650  178.8330  144.5870 C   0  0  0  0  0  0  0  0  0  0  0  0
  184.0200  178.9600  145.9770 N   0  0  0  0  0  0  0  0  0  0  0  0
  184.2950  179.4070  139.6430 C   0  0  0  0  0  2  0  0  0  0  0  0
  187.0590  177.8180  144.8410 C   0  0  0  0  0  3  0  0  0  0  0  0
  185.6410  179.0040  139.4510 O   0  0  0  0  0  0  0  0  0  0  0  0
  183.6450  178.5070  141.8210 C   0  0  0  0  0  0  0  0  0  0  0  0
  187.9210  178.5220  140.0830 N   0  0  0  0  0  2  0  0  0  0  0  0
  189.5150  177.7140  141.7510 C   0  0  0  0  0  1  0  0  0  0  0  0
  188.7500  177.3880  140.4780 C   0  0  2  0  0  3  0  0  0  0  0  0
  189.7030  177.0450  139.3820 C   0  0  0  0  0  0  0  0  0  0  0  0
  189.6950  177.8030  138.1800 N   0  0  0  0  0  1  0  0  0  0  0  0
  190.5070  176.0820  139.5090 O   0  0  0  0  0  0  0  0  0  0  0  0
  1 14  1  0  0  0  0
  1  4  1  0  0  0  0
  2  1  2  0  0  0  0
  3 14  2  0  0  0  0
  4 17  1  1  0  0  0
  4  8  1  0  0  0  0
  5 12  2  0  0  0  0
  6  9  2  0  0  0  0
  7  3  1  0  0  0  0
  8  9  1  0  0  0  0
 10 11  1  6  0  0  0
 10 19  1  0  0  0  0
 12  2  1  0  0  0  0
 13  6  1  0  0  0  0
 14 15  1  0  0  0  0
 15  8  2  0  0  0  0
 16 10  1  0  0  0  0
 17 13  2  0  0  0  0
 18 16  1  0  0  0  0
 18  5  1  0  0  0  0
 19  2  1  0  0  0  0
 19  7  2  0  0  0  0
 20  5  1  0  0  0  0
 20 22  1  0  0  0  0
 22 21  1  1  0  0  0
 23 25  2  0  0  0  0
 23 22  1  0  0  0  0
 24 23  1  0  0  0  0
M  END
>  <MODEL>
8

>  <REMARK>
 VINA RESULT:      -9.3      3.123      5.527
  Name = 
  3 active torsions:
  status: ('A' for Active; 'I' for Inactive)
    1  A    between atoms: C_2  and  C_25
    2  A    between atoms: C_6  and  N_15
    3  A    between atoms: N_15  and  C_25
                            x       y       z     vdW  Elec       q    Type
                         _______ _______ _______ _____ _____    ______ ____

>  <TORSDO>
F 3

$$$$
=
 OpenBabel11052412523D

 25 28  0  0  1  0  0  0  0  0999 V2000
  184.5590  178.7620  143.5260 C   0  0  0  0  0  0  0  0  0  0  0  0
  184.4170  178.6710  142.1350 C   0  0  0  0  0  0  0  0  0  0  0  0
  182.1770  178.9020  143.8780 C   0  0  0  0  0  3  0  0  0  0  0  0
  185.7870  178.8610  144.3630 C   0  0  1  0  0  3  0  0  0  0  0  0
  185.8770  178.6900  140.0100 C   0  0  0  0  0  0  0  0  0  0  0  0
  186.9870  177.7790  146.7480 C   0  0  0  0  0  3  0  0  0  0  0  0
  181.9930  178.7760  142.4950 C   0  0  0  0  0  3  0  0  0  0  0  0
  185.1570  178.9470  145.7280 C   0  0  0  0  0  0  0  0  0  0  0  0
  185.9410  178.5970  146.9160 C   0  0  0  0  0  3  0  0  0  0  0  0
  182.8400  178.5100  140.1390 C   0  0  1  0  0  3  0  0  0  0  0  0
  181.4820  178.6340  139.8330 O   0  0  0  0  0  1  0  0  0  0  0  0
  185.6540  178.5410  141.3290 C   0  0  0  0  0  3  0  0  0  0  0  0
  187.3030  177.2090  145.4120 C   0  0  0  0  0  3  0  0  0  0  0  0
  183.4780  178.9060  144.3620 C   0  0  0  0  0  0  0  0  0  0  0  0
  183.8610  178.9790  145.7260 N   0  0  0  0  0  0  0  0  0  0  0  0
  183.6110  179.5750  139.4020 C   0  0  0  0  0  2  0  0  0  0  0  0
  186.7010  177.6630  144.3000 C   0  0  0  0  0  3  0  0  0  0  0  0
  184.9040  179.0860  139.0830 O   0  0  0  0  0  0  0  0  0  0  0  0
  183.0930  178.6640  141.6110 C   0  0  0  0  0  0  0  0  0  0  0  0
  187.1910  178.4330  139.5000 N   0  0  0  0  0  2  0  0  0  0  0  0
  187.3940  176.6150  137.8780 C   0  0  0  0  0  1  0  0  0  0  0  0
  187.4850  178.1160  138.1060 C   0  0  2  0  0  3  0  0  0  0  0  0
  188.8480  178.6060  137.7470 C   0  0  0  0  0  0  0  0  0  0  0  0
  189.9580  177.7220  137.8300 N   0  0  0  0  0  1  0  0  0  0  0  0
  189.0250  179.7990  137.3800 O   0  0  0  0  0  0  0  0  0  0  0  0
  1 14  1  0  0  0  0
  1  4  1  0  0  0  0
  2  1  2  0  0  0  0
  3 14  2  0  0  0  0
  4 17  1  1  0  0  0
  4  8  1  0  0  0  0
  5 12  2  0  0  0  0
  6  9  2  0  0  0  0
  7  3  1  0  0  0  0
  8  9  1  0  0  0  0
 10 11  1  1  0  0  0
 10 19  1  0  0  0  0
 12  2  1  0  0  0  0
 13  6  1  0  0  0  0
 14 15  1  0  0  0  0
 15  8  2  0  0  0  0
 16 10  1  0  0  0  0
 17 13  2  0  0  0  0
 18 16  1  0  0  0  0
 18  5  1  0  0  0  0
 19  2  1  0  0  0  0
 19  7  2  0  0  0  0
 20  5  1  0  0  0  0
 22 21  1  1  0  0  0
 22 20  1  0  0  0  0
 23 24  1  0  0  0  0
 23 22  1  0  0  0  0
 25 23  2  0  0  0  0
M  END
>  <MODEL>
9

>  <REMARK>
 VINA RESULT:      -9.2      3.678      6.047
  Name = 
  3 active torsions:
  status: ('A' for Active; 'I' for Inactive)
    1  A    between atoms: C_2  and  C_25
    2  A    between atoms: C_6  and  N_15
    3  A    between atoms: N_15  and  C_25
                            x       y       z     vdW  Elec       q    Type
                         _______ _______ _______ _____ _____    ______ ____

>  <TORSDO>
F 3

$$$$
