=
 OpenBabel11052413403D

 27 31  0  0  1  0  0  0  0  0999 V2000
  188.2050  176.0060  143.2080 C   0  0  0  0  0  2  0  0  0  0  0  0
  186.8350  177.5330  144.5740 C   0  0  0  0  0  0  0  0  0  0  0  0
  186.8180  178.4830  142.2840 N   0  0  0  0  0  2  0  0  0  0  0  0
  183.0520  179.1260  145.2120 N   0  0  0  0  0  0  0  0  0  0  0  0
  181.2790  178.9710  143.5410 C   0  0  0  0  0  1  0  0  0  0  0  0
  186.1260  177.3370  145.8730 C   0  0  0  0  0  3  0  0  0  0  0  0
  183.8490  178.8230  143.0990 C   0  0  2  0  0  3  0  0  0  0  0  0
  189.6150  178.2410  139.8440 C   0  0  0  0  0  3  0  0  0  0  0  0
  183.7910  178.3640  141.6800 C   0  0  0  0  0  1  0  0  0  0  0  0
  190.2870  177.0940  140.2690 C   0  0  0  0  0  0  0  0  0  0  0  0
  184.9200  178.8260  143.8780 C   0  0  1  0  0  3  0  0  0  0  0  0
  188.0850  176.8590  144.3770 N   0  0  0  0  0  0  0  0  0  0  0  0
  182.7030  179.0150  143.9730 C   0  0  0  0  0  0  0  0  0  0  0  0
  184.5080  179.1070  145.2850 C   0  0  2  0  0  3  0  0  0  0  0  0
  188.6800  176.8160  142.0620 C   0  0  0  0  0  0  0  0  0  0  0  0
  186.2330  178.2270  143.5760 C   0  0  0  0  0  0  0  0  0  0  0  0
  188.4790  178.6780  140.5280 C   0  0  0  0  0  3  0  0  0  0  0  0
  185.0200  178.0240  146.1920 C   0  0  0  0  0  3  0  0  0  0  0  0
  191.4970  176.6270  139.5430 C   0  0  0  0  0  1  0  0  0  0  0  0
  189.8160  176.3820  141.3720 C   0  0  0  0  0  3  0  0  0  0  0  0
  188.0060  177.9830  141.6480 C   0  0  0  0  0  0  0  0  0  0  0  0
  191.3750  176.8160  147.1470 C   0  0  0  0  0  2  0  0  0  0  0  0
  189.1970  177.0030  145.2860 C   0  0  0  0  0  0  0  0  0  0  0  0
  188.9780  177.2760  146.5850 C   0  0  0  0  0  3  0  0  0  0  0  0
  190.0800  177.4890  147.5840 C   0  0  0  0  0  2  0  0  0  0  0  0
  191.6920  177.2540  145.7260 C   0  0  0  0  0  2  0  0  0  0  0  0
  190.6040  176.7510  144.7800 C   0  0  0  0  0  2  0  0  0  0  0  0
  1 12  1  0  0  0  0
  2  6  1  0  0  0  0
  3 16  1  0  0  0  0
  4 14  1  0  0  0  0
  5 13  1  0  0  0  0
  6 18  2  0  0  0  0
  7  9  1  1  0  0  0
  7 11  1  0  0  0  0
  7 13  1  0  0  0  0
  8 10  2  0  0  0  0
  8 17  1  0  0  0  0
 10 20  1  0  0  0  0
 11 16  1  1  0  0  0
 11 14  1  0  0  0  0
 12  2  1  0  0  0  0
 12 23  1  0  0  0  0
 13  4  2  0  0  0  0
 14 18  1  1  0  0  0
 15  1  1  0  0  0  0
 16  2  2  0  0  0  0
 17 21  2  0  0  0  0
 19 10  1  0  0  0  0
 20 15  2  0  0  0  0
 21 15  1  0  0  0  0
 21  3  1  0  0  0  0
 22 25  1  0  0  0  0
 23 24  2  0  0  0  0
 24 25  1  0  0  0  0
 26 22  1  0  0  0  0
 27 23  1  0  0  0  0
 27 26  1  0  0  0  0
M  END
>  <MODEL>
1

>  <REMARK>
 VINA RESULT:     -10.6      0.000      0.000
  Name = 
  1 active torsions:
  status: ('A' for Active; 'I' for Inactive)
    1  A    between atoms: C_9  and  N_15
                            x       y       z     vdW  Elec       q    Type
                         _______ _______ _______ _____ _____    ______ ____

>  <TORSDO>
F 1

$$$$
=
 OpenBabel11052413403D

 27 31  0  0  1  0  0  0  0  0999 V2000
  187.4100  179.4200  141.1820 C   0  0  0  0  0  2  0  0  0  0  0  0
  186.3180  178.4350  143.1600 C   0  0  0  0  0  0  0  0  0  0  0  0
  188.4560  177.2080  142.8920 N   0  0  0  0  0  2  0  0  0  0  0  0
  186.5350  177.8200  147.2640 N   0  0  0  0  0  0  0  0  0  0  0  0
  188.6080  178.1330  148.5150 C   0  0  0  0  0  1  0  0  0  0  0  0
  185.2600  178.9590  144.0750 C   0  0  0  0  0  3  0  0  0  0  0  0
  188.3950  177.6480  145.9580 C   0  0  2  0  0  3  0  0  0  0  0  0
  190.1200  176.4890  139.6440 C   0  0  0  0  0  3  0  0  0  0  0  0
  189.8140  177.9090  145.5770 C   0  0  0  0  0  1  0  0  0  0  0  0
  189.6310  177.5060  138.8240 C   0  0  0  0  0  0  0  0  0  0  0  0
  187.3730  177.5140  145.1270 C   0  0  1  0  0  3  0  0  0  0  0  0
  186.2450  178.7830  141.7720 N   0  0  0  0  0  0  0  0  0  0  0  0
  187.8270  177.8350  147.2830 C   0  0  0  0  0  0  0  0  0  0  0  0
  186.0980  177.5260  145.9030 C   0  0  2  0  0  3  0  0  0  0  0  0
  188.3300  178.3760  140.6750 C   0  0  0  0  0  0  0  0  0  0  0  0
  187.3780  177.7610  143.6730 C   0  0  0  0  0  0  0  0  0  0  0  0
  189.7130  176.4120  140.9770 C   0  0  0  0  0  3  0  0  0  0  0  0
  185.1790  178.5830  145.3590 C   0  0  0  0  0  3  0  0  0  0  0  0
  190.0610  177.5900  137.4040 C   0  0  0  0  0  1  0  0  0  0  0  0
  188.7420  178.4490  139.3410 C   0  0  0  0  0  3  0  0  0  0  0  0
  188.8080  177.3410  141.5050 C   0  0  0  0  0  0  0  0  0  0  0  0
  182.9260  177.5650  139.3220 C   0  0  0  0  0  2  0  0  0  0  0  0
  185.0760  178.5230  140.9660 C   0  0  0  0  0  0  0  0  0  0  0  0
  185.0960  178.7740  139.6440 C   0  0  0  0  0  3  0  0  0  0  0  0
  183.9070  178.5780  138.7460 C   0  0  0  0  0  2  0  0  0  0  0  0
  182.6010  177.9660  140.7520 C   0  0  0  0  0  2  0  0  0  0  0  0
  183.8630  177.8800  141.6080 C   0  0  0  0  0  2  0  0  0  0  0  0
  1 12  1  0  0  0  0
  2 16  2  0  0  0  0
  2  6  1  0  0  0  0
  3 16  1  0  0  0  0
  4 13  2  0  0  0  0
  6 18  2  0  0  0  0
  7  9  1  6  0  0  0
  7 13  1  0  0  0  0
  8 17  1  0  0  0  0
 10 20  1  0  0  0  0
 10  8  2  0  0  0  0
 11 16  1  6  0  0  0
 11 14  1  0  0  0  0
 11  7  1  0  0  0  0
 12  2  1  0  0  0  0
 13  5  1  0  0  0  0
 14 18  1  6  0  0  0
 14  4  1  0  0  0  0
 15  1  1  0  0  0  0
 15 21  1  0  0  0  0
 17 21  2  0  0  0  0
 19 10  1  0  0  0  0
 20 15  2  0  0  0  0
 21  3  1  0  0  0  0
 22 26  1  0  0  0  0
 23 27  1  0  0  0  0
 23 12  1  0  0  0  0
 24 23  2  0  0  0  0
 25 22  1  0  0  0  0
 25 24  1  0  0  0  0
 26 27  1  0  0  0  0
M  END
>  <MODEL>
2

>  <REMARK>
 VINA RESULT:      -9.2      1.636      5.558
  Name = 
  1 active torsions:
  status: ('A' for Active; 'I' for Inactive)
    1  A    between atoms: C_9  and  N_15
                            x       y       z     vdW  Elec       q    Type
                         _______ _______ _______ _____ _____    ______ ____

>  <TORSDO>
F 1

$$$$
=
 OpenBabel11052413403D

 27 31  0  0  1  0  0  0  0  0999 V2000
  187.9890  176.3940  143.5340 C   0  0  0  0  0  2  0  0  0  0  0  0
  187.3360  177.8660  141.6670 C   0  0  0  0  0  0  0  0  0  0  0  0
  189.7920  178.1210  141.8960 N   0  0  0  0  0  2  0  0  0  0  0  0
  187.6850  178.6280  137.5980 N   0  0  0  0  0  0  0  0  0  0  0  0
  189.4310  177.6040  136.2310 C   0  0  0  0  0  1  0  0  0  0  0  0
  186.1370  177.8710  140.7790 C   0  0  0  0  0  3  0  0  0  0  0  0
  189.4890  177.9550  138.8180 C   0  0  2  0  0  3  0  0  0  0  0  0
  191.6800  177.8920  145.0940 C   0  0  0  0  0  3  0  0  0  0  0  0
  190.6940  177.1260  139.1140 C   0  0  0  0  0  1  0  0  0  0  0  0
  190.8440  177.0990  145.8810 C   0  0  0  0  0  0  0  0  0  0  0  0
  188.6250  178.4270  139.7040 C   0  0  1  0  0  3  0  0  0  0  0  0
  187.1630  177.4810  143.0370 N   0  0  0  0  0  0  0  0  0  0  0  0
  188.8630  178.1020  137.5140 C   0  0  0  0  0  0  0  0  0  0  0  0
  187.4340  178.9760  138.9920 C   0  0  2  0  0  3  0  0  0  0  0  0
  189.2620  176.9490  144.0500 C   0  0  0  0  0  0  0  0  0  0  0  0
  188.5650  178.0970  141.1410 C   0  0  0  0  0  0  0  0  0  0  0  0
  191.3070  178.2170  143.7880 C   0  0  0  0  0  3  0  0  0  0  0  0
  186.1830  178.3360  139.5220 C   0  0  0  0  0  3  0  0  0  0  0  0
  191.2380  176.7520  147.2710 C   0  0  0  0  0  1  0  0  0  0  0  0
  189.6410  176.6250  145.3570 C   0  0  0  0  0  3  0  0  0  0  0  0
  190.0940  177.7630  143.2550 C   0  0  0  0  0  0  0  0  0  0  0  0
  184.0860  179.0030  145.6290 C   0  0  0  0  0  2  0  0  0  0  0  0
  186.2140  178.1270  143.9120 C   0  0  0  0  0  0  0  0  0  0  0  0
  185.2160  178.8690  143.3970 C   0  0  0  0  0  3  0  0  0  0  0  0
  184.2190  179.6140  144.2400 C   0  0  0  0  0  2  0  0  0  0  0  0
  185.4750  178.8690  146.2330 C   0  0  0  0  0  2  0  0  0  0  0  0
  186.3010  177.8850  145.4060 C   0  0  0  0  0  2  0  0  0  0  0  0
  1 15  1  0  0  0  0
  2 12  1  0  0  0  0
  3 21  1  0  0  0  0
  4 14  1  0  0  0  0
  5 13  1  0  0  0  0
  6  2  1  0  0  0  0
  7  9  1  1  0  0  0
  7 11  1  0  0  0  0
  8 10  1  0  0  0  0
 10 19  1  0  0  0  0
 11 16  1  1  0  0  0
 12  1  1  0  0  0  0
 12 23  1  0  0  0  0
 13  4  2  0  0  0  0
 13  7  1  0  0  0  0
 14 18  1  1  0  0  0
 14 11  1  0  0  0  0
 15 20  1  0  0  0  0
 16  2  2  0  0  0  0
 16  3  1  0  0  0  0
 17  8  2  0  0  0  0
 18  6  2  0  0  0  0
 20 10  2  0  0  0  0
 21 17  1  0  0  0  0
 21 15  2  0  0  0  0
 22 26  1  0  0  0  0
 23 27  1  0  0  0  0
 24 23  2  0  0  0  0
 24 25  1  0  0  0  0
 25 22  1  0  0  0  0
 27 26  1  0  0  0  0
M  END
>  <MODEL>
3

>  <REMARK>
 VINA RESULT:      -8.3      1.783      5.943
  Name = 
  1 active torsions:
  status: ('A' for Active; 'I' for Inactive)
    1  A    between atoms: C_9  and  N_15
                            x       y       z     vdW  Elec       q    Type
                         _______ _______ _______ _____ _____    ______ ____

>  <TORSDO>
F 1

$$$$
=
 OpenBabel11052413403D

 27 31  0  0  1  0  0  0  0  0999 V2000
  188.2800  179.3730  142.0050 C   0  0  0  0  0  2  0  0  0  0  0  0
  186.1530  178.5520  141.0680 C   0  0  0  0  0  0  0  0  0  0  0  0
  186.2060  177.7540  143.4150 N   0  0  0  0  0  2  0  0  0  0  0  0
  182.0070  178.7240  141.2690 N   0  0  0  0  0  0  0  0  0  0  0  0
  180.8390  179.6640  143.1960 C   0  0  0  0  0  1  0  0  0  0  0  0
  185.3430  179.0030  139.8980 C   0  0  0  0  0  3  0  0  0  0  0  0
  183.2680  178.7040  143.1680 C   0  0  2  0  0  3  0  0  0  0  0  0
  189.2800  176.8270  145.2940 C   0  0  0  0  0  3  0  0  0  0  0  0
  183.6950  179.1760  144.5180 C   0  0  0  0  0  1  0  0  0  0  0  0
  190.2670  177.5640  144.6380 C   0  0  0  0  0  0  0  0  0  0  0  0
  184.0580  178.2230  142.2200 C   0  0  1  0  0  3  0  0  0  0  0  0
  187.5820  178.6280  140.9720 N   0  0  0  0  0  0  0  0  0  0  0  0
  181.9950  179.0030  142.5320 C   0  0  0  0  0  0  0  0  0  0  0  0
  183.2910  178.1130  140.9440 C   0  0  2  0  0  3  0  0  0  0  0  0
  188.5950  178.4640  143.1310 C   0  0  0  0  0  0  0  0  0  0  0  0
  185.5330  178.2070  142.2240 C   0  0  0  0  0  0  0  0  0  0  0  0
  187.9520  176.9050  144.8670 C   0  0  0  0  0  3  0  0  0  0  0  0
  184.0120  178.8500  139.8510 C   0  0  0  0  0  3  0  0  0  0  0  0
  191.6800  177.4830  145.0890 C   0  0  0  0  0  1  0  0  0  0  0  0
  189.9230  178.3840  143.5630 C   0  0  0  0  0  3  0  0  0  0  0  0
  187.5950  177.7100  143.7780 C   0  0  0  0  0  0  0  0  0  0  0  0
  189.4550  176.4200  137.7920 C   0  0  0  0  0  2  0  0  0  0  0  0
  188.3240  177.9990  139.9050 C   0  0  0  0  0  0  0  0  0  0  0  0
  189.3160  177.1350  140.1880 C   0  0  0  0  0  3  0  0  0  0  0  0
  190.1670  176.4790  139.1380 C   0  0  0  0  0  2  0  0  0  0  0  0
  188.9580  177.8140  137.4460 C   0  0  0  0  0  2  0  0  0  0  0  0
  187.9120  178.2530  138.4680 C   0  0  0  0  0  2  0  0  0  0  0  0
  1 15  1  0  0  0  0
  2 16  2  0  0  0  0
  3 21  1  0  0  0  0
  4 13  2  0  0  0  0
  6  2  1  0  0  0  0
  7  9  1  6  0  0  0
 10 19  1  0  0  0  0
 10  8  2  0  0  0  0
 11 16  1  6  0  0  0
 11  7  1  0  0  0  0
 12  2  1  0  0  0  0
 12  1  1  0  0  0  0
 13  7  1  0  0  0  0
 13  5  1  0  0  0  0
 14 18  1  6  0  0  0
 14  4  1  0  0  0  0
 14 11  1  0  0  0  0
 15 20  2  0  0  0  0
 15 21  1  0  0  0  0
 16  3  1  0  0  0  0
 17  8  1  0  0  0  0
 18  6  2  0  0  0  0
 20 10  1  0  0  0  0
 21 17  2  0  0  0  0
 22 25  1  0  0  0  0
 23 24  2  0  0  0  0
 23 12  1  0  0  0  0
 25 24  1  0  0  0  0
 26 22  1  0  0  0  0
 26 27  1  0  0  0  0
 27 23  1  0  0  0  0
M  END
>  <MODEL>
4

>  <REMARK>
 VINA RESULT:      -8.2      1.702      4.963
  Name = 
  1 active torsions:
  status: ('A' for Active; 'I' for Inactive)
    1  A    between atoms: C_9  and  N_15
                            x       y       z     vdW  Elec       q    Type
                         _______ _______ _______ _____ _____    ______ ____

>  <TORSDO>
F 1

$$$$
=
 OpenBabel11052413403D

 27 31  0  0  1  0  0  0  0  0999 V2000
  189.0190  178.6290  138.6360 C   0  0  0  0  0  2  0  0  0  0  0  0
  188.0640  177.7840  140.7460 C   0  0  0  0  0  0  0  0  0  0  0  0
  189.9890  176.3060  140.2410 N   0  0  0  0  0  2  0  0  0  0  0  0
  188.6990  177.1460  144.8020 N   0  0  0  0  0  0  0  0  0  0  0  0
  190.9300  177.2040  145.7910 C   0  0  0  0  0  1  0  0  0  0  0  0
  187.1950  178.4320  141.7720 C   0  0  0  0  0  3  0  0  0  0  0  0
  190.3530  176.7490  143.2850 C   0  0  2  0  0  3  0  0  0  0  0  0
  191.1500  175.3910  136.8270 C   0  0  0  0  0  3  0  0  0  0  0  0
  191.7370  176.8360  142.7330 C   0  0  0  0  0  1  0  0  0  0  0  0
  190.6910  176.4600  136.0570 C   0  0  0  0  0  0  0  0  0  0  0  0
  189.2290  176.7410  142.5850 C   0  0  1  0  0  3  0  0  0  0  0  0
  187.8660  178.1380  139.3710 N   0  0  0  0  0  0  0  0  0  0  0  0
  189.9770  177.0040  144.6660 C   0  0  0  0  0  0  0  0  0  0  0  0
  188.0690  176.9080  143.5080 C   0  0  2  0  0  3  0  0  0  0  0  0
  189.7380  177.4800  138.0380 C   0  0  0  0  0  0  0  0  0  0  0  0
  189.0890  176.9860  141.1370 C   0  0  0  0  0  0  0  0  0  0  0  0
  190.9010  175.3630  138.2010 C   0  0  0  0  0  3  0  0  0  0  0  0
  187.2250  178.0690  143.0630 C   0  0  0  0  0  3  0  0  0  0  0  0
  190.9540  176.4910  134.5940 C   0  0  0  0  0  1  0  0  0  0  0  0
  189.9920  177.5040  136.6630 C   0  0  0  0  0  3  0  0  0  0  0  0
  190.1850  176.3950  138.8200 C   0  0  0  0  0  0  0  0  0  0  0  0
  183.9710  177.4150  137.6950 C   0  0  0  0  0  2  0  0  0  0  0  0
  186.5850  178.0220  138.7150 C   0  0  0  0  0  0  0  0  0  0  0  0
  186.4710  177.3200  137.5730 C   0  0  0  0  0  3  0  0  0  0  0  0
  185.1860  177.1930  136.8040 C   0  0  0  0  0  2  0  0  0  0  0  0
  184.1530  178.7260  138.4440 C   0  0  0  0  0  2  0  0  0  0  0  0
  185.3590  178.6210  139.3750 C   0  0  0  0  0  2  0  0  0  0  0  0
  1 12  1  0  0  0  0
  2 16  2  0  0  0  0
  2  6  1  0  0  0  0
  3 16  1  0  0  0  0
  6 18  2  0  0  0  0
  7  9  1  6  0  0  0
  7 13  1  0  0  0  0
  8 17  1  0  0  0  0
 10 20  1  0  0  0  0
 10  8  2  0  0  0  0
 11 16  1  6  0  0  0
 11  7  1  0  0  0  0
 11 14  1  0  0  0  0
 12  2  1  0  0  0  0
 13  4  2  0  0  0  0
 13  5  1  0  0  0  0
 14 18  1  6  0  0  0
 14  4  1  0  0  0  0
 15  1  1  0  0  0  0
 15 21  1  0  0  0  0
 17 21  2  0  0  0  0
 19 10  1  0  0  0  0
 20 15  2  0  0  0  0
 21  3  1  0  0  0  0
 22 26  1  0  0  0  0
 23 12  1  0  0  0  0
 23 27  1  0  0  0  0
 24 23  2  0  0  0  0
 25 24  1  0  0  0  0
 25 22  1  0  0  0  0
 26 27  1  0  0  0  0
M  END
>  <MODEL>
5

>  <REMARK>
 VINA RESULT:      -7.9      2.702      6.750
  Name = 
  1 active torsions:
  status: ('A' for Active; 'I' for Inactive)
    1  A    between atoms: C_9  and  N_15
                            x       y       z     vdW  Elec       q    Type
                         _______ _______ _______ _____ _____    ______ ____

>  <TORSDO>
F 1

$$$$
=
 OpenBabel11052413403D

 27 31  0  0  1  0  0  0  0  0999 V2000
  183.8100  177.3790  140.0910 C   0  0  0  0  0  2  0  0  0  0  0  0
  185.2900  178.2180  138.3060 C   0  0  0  0  0  0  0  0  0  0  0  0
  186.4370  178.7550  140.4370 N   0  0  0  0  0  2  0  0  0  0  0  0
  188.9930  177.8680  136.4560 N   0  0  0  0  0  0  0  0  0  0  0  0
  190.8560  176.6800  137.4940 C   0  0  0  0  0  1  0  0  0  0  0  0
  185.3980  177.8670  136.8590 C   0  0  0  0  0  3  0  0  0  0  0  0
  188.8030  177.7270  138.7230 C   0  0  2  0  0  3  0  0  0  0  0  0
  184.7320  179.5860  143.6380 C   0  0  0  0  0  3  0  0  0  0  0  0
  189.0370  177.1280  140.0690 C   0  0  0  0  0  1  0  0  0  0  0  0
  183.4920  178.9630  143.4880 C   0  0  0  0  0  0  0  0  0  0  0  0
  187.7010  178.3390  138.3180 C   0  0  1  0  0  3  0  0  0  0  0  0
  183.9900  178.2060  138.9100 N   0  0  0  0  0  0  0  0  0  0  0  0
  189.5840  177.4530  137.5280 C   0  0  0  0  0  0  0  0  0  0  0  0
  187.7680  178.5580  136.8430 C   0  0  2  0  0  3  0  0  0  0  0  0
  184.1530  178.1710  141.2950 C   0  0  0  0  0  0  0  0  0  0  0  0
  186.4150  178.4100  139.0380 C   0  0  0  0  0  0  0  0  0  0  0  0
  185.6800  179.5050  142.6160 C   0  0  0  0  0  3  0  0  0  0  0  0
  186.5510  177.9730  136.1840 C   0  0  0  0  0  3  0  0  0  0  0  0
  182.4810  179.0480  144.5740 C   0  0  0  0  0  1  0  0  0  0  0  0
  183.2070  178.2530  142.3220 C   0  0  0  0  0  3  0  0  0  0  0  0
  185.4010  178.8120  141.4320 C   0  0  0  0  0  0  0  0  0  0  0  0
  180.9710  180.5880  136.9820 C   0  0  0  0  0  2  0  0  0  0  0  0
  182.8840  178.9750  138.3900 C   0  0  0  0  0  0  0  0  0  0  0  0
  182.7490  180.2730  138.7190 C   0  0  0  0  0  3  0  0  0  0  0  0
  181.6010  181.1280  138.2600 C   0  0  0  0  0  2  0  0  0  0  0  0
  180.6440  179.1170  137.1880 C   0  0  0  0  0  2  0  0  0  0  0  0
  181.9360  178.3300  137.3990 C   0  0  0  0  0  2  0  0  0  0  0  0
  1 15  1  0  0  0  0
  2 12  1  0  0  0  0
  2 16  2  0  0  0  0
  3 21  1  0  0  0  0
  4 14  1  0  0  0  0
  4 13  2  0  0  0  0
  5 13  1  0  0  0  0
  6  2  1  0  0  0  0
  7  9  1  6  0  0  0
 10  8  1  0  0  0  0
 10 19  1  0  0  0  0
 11  7  1  0  0  0  0
 11 16  1  6  0  0  0
 12  1  1  0  0  0  0
 13  7  1  0  0  0  0
 14 18  1  6  0  0  0
 14 11  1  0  0  0  0
 15 21  2  0  0  0  0
 15 20  1  0  0  0  0
 16  3  1  0  0  0  0
 17  8  2  0  0  0  0
 18  6  2  0  0  0  0
 20 10  2  0  0  0  0
 21 17  1  0  0  0  0
 22 26  1  0  0  0  0
 22 25  1  0  0  0  0
 23 24  2  0  0  0  0
 23 12  1  0  0  0  0
 25 24  1  0  0  0  0
 26 27  1  0  0  0  0
 27 23  1  0  0  0  0
M  END
>  <MODEL>
6

>  <REMARK>
 VINA RESULT:      -7.8      3.646      8.819
  Name = 
  1 active torsions:
  status: ('A' for Active; 'I' for Inactive)
    1  A    between atoms: C_9  and  N_15
                            x       y       z     vdW  Elec       q    Type
                         _______ _______ _______ _____ _____    ______ ____

>  <TORSDO>
F 1

$$$$
