=
 OpenBabel11052414153D

 34 36  0  0  1  0  0  0  0  0999 V2000
  188.3090  177.0680  144.9470 C   0  0  2  0  0  3  0  0  0  0  0  0
  186.4900  177.9450  143.5160 N   0  0  0  0  0  0  0  0  0  0  0  0
  186.0460  177.5370  145.9080 C   0  0  0  0  0  1  0  0  0  0  0  0
  189.2330  177.2340  143.7320 C   0  0  1  0  0  3  0  0  0  0  0  0
  187.4300  178.3500  142.6140 O   0  0  0  0  0  0  0  0  0  0  0  0
  188.3380  177.2840  142.4900 C   0  0  1  0  0  3  0  0  0  0  0  0
  187.0720  177.9960  144.8750 C   0  0  1  0  0  3  0  0  0  0  0  0
  189.3480  178.2740  138.9750 C   0  0  0  0  0  0  0  0  0  0  0  0
  190.4810  177.4810  138.7680 C   0  0  0  0  0  3  0  0  0  0  0  0
  189.1030  177.3470  141.2030 C   0  0  0  0  0  0  0  0  0  0  0  0
  190.9250  176.6180  139.7730 C   0  0  0  0  0  3  0  0  0  0  0  0
  188.6590  178.2040  140.1890 C   0  0  0  0  0  3  0  0  0  0  0  0
  190.2370  176.5500  140.9890 C   0  0  0  0  0  3  0  0  0  0  0  0
  188.9180  179.1090  138.0000 F   0  0  0  0  0  0  0  0  0  0  0  0
  189.0550  178.3550  146.8400 O   0  0  0  0  0  1  0  0  0  0  0  0
  189.0660  177.0750  146.2860 C   0  0  2  0  0  3  0  0  0  0  0  0
  190.4380  176.6170  146.1230 N   0  0  0  0  0  2  0  0  0  0  0  0
  191.1030  176.7880  147.4040 C   0  0  0  0  0  2  0  0  0  0  0  0
  193.1790  175.9780  148.5730 N   0  0  0  0  0  1  0  0  0  0  0  0
  192.2510  175.8480  147.5030 C   0  0  0  0  0  0  0  0  0  0  0  0
  192.5120  175.0500  146.5220 N   0  0  0  0  0  2  0  0  0  0  0  0
  190.7490  179.4420  143.9320 C   0  0  0  0  0  3  0  0  0  0  0  0
  190.0690  178.4490  143.8420 C   0  0  0  0  0  0  0  0  0  0  0  0
  185.4160  178.9270  143.4300 C   0  0  0  0  0  2  0  0  0  0  0  0
  183.9270  178.3540  141.5080 C   0  0  0  0  0  3  0  0  0  0  0  0
  184.2050  178.2970  142.8150 C   0  0  0  0  0  3  0  0  0  0  0  0
  184.7740  179.0710  140.4940 C   0  0  0  0  0  2  0  0  0  0  0  0
  182.3770  179.4850  138.7940 O   0  0  0  0  0  1  0  0  0  0  0  0
  184.5710  178.5820  139.0860 C   0  0  0  0  0  0  0  0  0  0  0  0
  183.1480  178.3340  138.6270 C   0  0  2  0  0  3  0  0  0  0  0  0
  184.1250  176.8430  136.8570 C   0  0  0  0  0  2  0  0  0  0  0  0
  185.4750  177.5290  137.0080 C   0  0  0  0  0  2  0  0  0  0  0  0
  185.6220  178.1150  138.3840 C   0  0  0  0  0  3  0  0  0  0  0  0
  183.0330  177.8530  137.1790 C   0  0  0  0  0  2  0  0  0  0  0  0
  1 16  1  1  0  0  0
  2  7  1  0  0  0  0
  4 23  1  1  0  0  0
  4  1  1  0  0  0  0
  5  2  1  0  0  0  0
  6 10  1  6  0  0  0
  6  5  1  0  0  0  0
  6  4  1  0  0  0  0
  7  1  1  0  0  0  0
  7  3  1  1  0  0  0
  8 12  1  0  0  0  0
  9  8  2  0  0  0  0
  9 11  1  0  0  0  0
 11 13  2  0  0  0  0
 12 10  2  0  0  0  0
 13 10  1  0  0  0  0
 14  8  1  0  0  0  0
 16 15  1  6  0  0  0
 17 16  1  0  0  0  0
 17 18  1  0  0  0  0
 18 20  1  0  0  0  0
 20 19  1  0  0  0  0
 21 20  2  0  0  0  0
 23 22  3  0  0  0  0
 24  2  1  0  0  0  0
 25 26  2  0  0  0  0
 26 24  1  0  0  0  0
 27 25  1  0  0  0  0
 29 27  1  0  0  0  0
 30 28  1  6  0  0  0
 30 29  1  0  0  0  0
 31 32  1  0  0  0  0
 31 34  1  0  0  0  0
 32 33  1  0  0  0  0
 33 29  2  0  0  0  0
 34 30  1  0  0  0  0
M  END
>  <MODEL>
1

>  <REMARK>
 VINA RESULT:      -8.1      0.000      0.000
  Name = 
  10 active torsions:
  status: ('A' for Active; 'I' for Inactive)
    1  A    between atoms: C_3  and  C_13
    2  A    between atoms: C_3  and  C_17
    3  A    between atoms: C_4  and  C_15
    4  A    between atoms: N_5  and  C_18
    5  A    between atoms: C_6  and  C_9
    6  A    between atoms: C_9  and  N_25
    7  A    between atoms: C_12  and  C_28
    8  A    between atoms: C_15  and  N_25
    9  A    between atoms: C_18  and  C_29
   10  A    between atoms: C_21  and  C_32
                            x       y       z     vdW  Elec       q    Type
                         _______ _______ _______ _____ _____    ______ ____

>  <TORSDO>
F 10

$$$$
=
 OpenBabel11052414153D

 34 36  0  0  1  0  0  0  0  0999 V2000
  189.1580  177.9330  138.4350 C   0  0  2  0  0  3  0  0  0  0  0  0
  190.3820  177.0770  140.4090 N   0  0  0  0  0  0  0  0  0  0  0  0
  188.4410  178.5610  140.7490 C   0  0  0  0  0  1  0  0  0  0  0  0
  190.0560  177.0200  137.5860 C   0  0  1  0  0  3  0  0  0  0  0  0
  190.8990  176.0850  139.6260 O   0  0  0  0  0  0  0  0  0  0  0  0
  191.2960  176.7020  138.4270 C   0  0  1  0  0  3  0  0  0  0  0  0
  189.0420  177.4440  139.8990 C   0  0  1  0  0  3  0  0  0  0  0  0
  194.2780  175.8210  136.2620 C   0  0  0  0  0  0  0  0  0  0  0  0
  194.2500  174.4240  136.2890 C   0  0  0  0  0  3  0  0  0  0  0  0
  192.3240  175.8920  137.6960 C   0  0  0  0  0  0  0  0  0  0  0  0
  193.2590  173.7570  137.0150 C   0  0  0  0  0  3  0  0  0  0  0  0
  193.3150  176.5540  136.9620 C   0  0  0  0  0  3  0  0  0  0  0  0
  192.2960  174.4900  137.7170 C   0  0  0  0  0  3  0  0  0  0  0  0
  195.2380  176.4660  135.5580 F   0  0  0  0  0  0  0  0  0  0  0  0
  187.9130  179.5320  137.1350 O   0  0  0  0  0  1  0  0  0  0  0  0
  187.8280  178.2810  137.7450 C   0  0  2  0  0  3  0  0  0  0  0  0
  186.7200  178.2660  138.6900 N   0  0  0  0  0  2  0  0  0  0  0  0
  185.4960  178.1710  137.9140 C   0  0  0  0  0  2  0  0  0  0  0  0
  183.0460  178.2640  138.4820 N   0  0  0  0  0  2  0  0  0  0  0  0
  184.3650  178.7520  138.6870 C   0  0  0  0  0  0  0  0  0  0  0  0
  184.5510  179.8190  139.3900 N   0  0  0  0  0  1  0  0  0  0  0  0
  188.7750  174.7810  136.8420 C   0  0  0  0  0  3  0  0  0  0  0  0
  189.3520  175.7860  137.1770 C   0  0  0  0  0  0  0  0  0  0  0  0
  190.2320  176.4910  141.7360 C   0  0  0  0  0  2  0  0  0  0  0  0
  191.4180  177.6890  143.5790 C   0  0  0  0  0  3  0  0  0  0  0  0
  191.4340  176.8140  142.5680 C   0  0  0  0  0  3  0  0  0  0  0  0
  190.2070  178.4750  143.9980 C   0  0  0  0  0  2  0  0  0  0  0  0
  187.3850  177.5600  143.9090 O   0  0  0  0  0  1  0  0  0  0  0  0
  189.4300  177.8350  145.1150 C   0  0  0  0  0  0  0  0  0  0  0  0
  187.9250  178.0090  145.1150 C   0  0  2  0  0  3  0  0  0  0  0  0
  187.9990  177.4830  147.5690 C   0  0  0  0  0  2  0  0  0  0  0  0
  189.3580  176.8200  147.3970 C   0  0  0  0  0  2  0  0  0  0  0  0
  190.0790  177.3860  146.2070 C   0  0  0  0  0  3  0  0  0  0  0  0
  187.2140  177.3150  146.2780 C   0  0  0  0  0  2  0  0  0  0  0  0
  1 16  1  6  0  0  0
  1  7  1  0  0  0  0
  2 24  1  0  0  0  0
  4 23  1  1  0  0  0
  4  6  1  0  0  0  0
  4  1  1  0  0  0  0
  5  2  1  0  0  0  0
  6 10  1  6  0  0  0
  6  5  1  0  0  0  0
  7  2  1  0  0  0  0
  7  3  1  1  0  0  0
  8  9  2  0  0  0  0
  8 12  1  0  0  0  0
  9 11  1  0  0  0  0
 10 13  1  0  0  0  0
 11 13  2  0  0  0  0
 12 10  2  0  0  0  0
 14  8  1  0  0  0  0
 16 15  1  1  0  0  0
 16 17  1  0  0  0  0
 18 20  1  0  0  0  0
 18 17  1  0  0  0  0
 19 20  2  0  0  0  0
 20 21  1  0  0  0  0
 22 23  3  0  0  0  0
 24 26  1  0  0  0  0
 25 27  1  0  0  0  0
 26 25  2  0  0  0  0
 27 29  1  0  0  0  0
 29 30  1  0  0  0  0
 29 33  2  0  0  0  0
 30 28  1  6  0  0  0
 30 34  1  0  0  0  0
 32 31  1  0  0  0  0
 33 32  1  0  0  0  0
 34 31  1  0  0  0  0
M  END
>  <MODEL>
2

>  <REMARK>
 VINA RESULT:      -7.9      3.309      8.115
  Name = 
  10 active torsions:
  status: ('A' for Active; 'I' for Inactive)
    1  A    between atoms: C_3  and  C_13
    2  A    between atoms: C_3  and  C_17
    3  A    between atoms: C_4  and  C_15
    4  A    between atoms: N_5  and  C_18
    5  A    between atoms: C_6  and  C_9
    6  A    between atoms: C_9  and  N_25
    7  A    between atoms: C_12  and  C_28
    8  A    between atoms: C_15  and  N_25
    9  A    between atoms: C_18  and  C_29
   10  A    between atoms: C_21  and  C_32
                            x       y       z     vdW  Elec       q    Type
                         _______ _______ _______ _____ _____    ______ ____

>  <TORSDO>
F 10

$$$$
=
 OpenBabel11052414153D

 34 36  0  0  1  0  0  0  0  0999 V2000
  181.5950  179.0430  140.8710 C   0  0  2  0  0  3  0  0  0  0  0  0
  183.1070  179.0830  142.8310 N   0  0  0  0  0  0  0  0  0  0  0  0
  180.7010  179.5170  143.1610 C   0  0  0  0  0  1  0  0  0  0  0  0
  182.8040  178.5660  140.0520 C   0  0  1  0  0  3  0  0  0  0  0  0
  184.0180  178.3670  142.1090 O   0  0  0  0  0  0  0  0  0  0  0  0
  184.0600  178.9600  140.8360 C   0  0  1  0  0  3  0  0  0  0  0  0
  181.7450  178.7230  142.3790 C   0  0  1  0  0  3  0  0  0  0  0  0
  187.7390  178.3230  140.1900 C   0  0  0  0  0  0  0  0  0  0  0  0
  187.7540  178.0970  138.8110 C   0  0  0  0  0  3  0  0  0  0  0  0
  185.3370  178.6480  140.1150 C   0  0  0  0  0  0  0  0  0  0  0  0
  186.5640  178.1490  138.0800 C   0  0  0  0  0  3  0  0  0  0  0  0
  186.5330  178.6010  140.8400 C   0  0  0  0  0  3  0  0  0  0  0  0
  185.3570  178.4250  138.7310 C   0  0  0  0  0  3  0  0  0  0  0  0
  188.8930  178.2740  140.8980 F   0  0  0  0  0  0  0  0  0  0  0  0
  179.4020  179.7580  140.1820 O   0  0  0  0  0  1  0  0  0  0  0  0
  180.2470  178.6510  140.2420 C   0  0  2  0  0  3  0  0  0  0  0  0
  179.6050  177.5770  140.9880 N   0  0  0  0  0  2  0  0  0  0  0  0
  179.0510  176.6510  140.0150 C   0  0  0  0  0  2  0  0  0  0  0  0
  179.4020  174.1970  139.5800 N   0  0  0  0  0  2  0  0  0  0  0  0
  179.2010  175.2560  140.5080 C   0  0  0  0  0  0  0  0  0  0  0  0
  178.9560  174.9840  141.7460 N   0  0  0  0  0  1  0  0  0  0  0  0
  182.7170  175.9210  139.6020 C   0  0  0  0  0  3  0  0  0  0  0  0
  182.7580  177.1100  139.8040 C   0  0  0  0  0  0  0  0  0  0  0  0
  183.2710  178.6460  144.2120 C   0  0  0  0  0  2  0  0  0  0  0  0
  185.5080  178.9480  145.2840 C   0  0  0  0  0  3  0  0  0  0  0  0
  184.3420  179.4580  144.8730 C   0  0  0  0  0  3  0  0  0  0  0  0
  185.8870  177.4980  145.1580 C   0  0  0  0  0  2  0  0  0  0  0  0
  187.7800  177.2020  147.4250 O   0  0  0  0  0  1  0  0  0  0  0  0
  187.3710  177.2690  145.0710 C   0  0  0  0  0  0  0  0  0  0  0  0
  188.2260  177.7550  146.2240 C   0  0  2  0  0  3  0  0  0  0  0  0
  190.1620  177.7170  144.6250 C   0  0  0  0  0  2  0  0  0  0  0  0
  189.4070  176.7610  143.7150 C   0  0  0  0  0  2  0  0  0  0  0  0
  187.9230  176.9160  143.8940 C   0  0  0  0  0  3  0  0  0  0  0  0
  189.7200  177.4690  146.0590 C   0  0  0  0  0  2  0  0  0  0  0  0
  1 16  1  6  0  0  0
  1  7  1  0  0  0  0
  2 24  1  0  0  0  0
  4 23  1  1  0  0  0
  4  6  1  0  0  0  0
  4  1  1  0  0  0  0
  5  2  1  0  0  0  0
  6 10  1  6  0  0  0
  6  5  1  0  0  0  0
  7  2  1  0  0  0  0
  7  3  1  1  0  0  0
  8 12  1  0  0  0  0
  8 14  1  0  0  0  0
  9  8  2  0  0  0  0
 10 12  2  0  0  0  0
 11 13  2  0  0  0  0
 11  9  1  0  0  0  0
 13 10  1  0  0  0  0
 16 15  1  1  0  0  0
 16 17  1  0  0  0  0
 18 20  1  0  0  0  0
 18 17  1  0  0  0  0
 19 20  2  0  0  0  0
 20 21  1  0  0  0  0
 22 23  3  0  0  0  0
 24 26  1  0  0  0  0
 26 25  2  0  0  0  0
 27 25  1  0  0  0  0
 29 27  1  0  0  0  0
 29 30  1  0  0  0  0
 30 28  1  1  0  0  0
 31 34  1  0  0  0  0
 32 33  1  0  0  0  0
 32 31  1  0  0  0  0
 33 29  2  0  0  0  0
 34 30  1  0  0  0  0
M  END
>  <MODEL>
3

>  <REMARK>
 VINA RESULT:      -7.8      3.727      8.446
  Name = 
  10 active torsions:
  status: ('A' for Active; 'I' for Inactive)
    1  A    between atoms: C_3  and  C_13
    2  A    between atoms: C_3  and  C_17
    3  A    between atoms: C_4  and  C_15
    4  A    between atoms: N_5  and  C_18
    5  A    between atoms: C_6  and  C_9
    6  A    between atoms: C_9  and  N_25
    7  A    between atoms: C_12  and  C_28
    8  A    between atoms: C_15  and  N_25
    9  A    between atoms: C_18  and  C_29
   10  A    between atoms: C_21  and  C_32
                            x       y       z     vdW  Elec       q    Type
                         _______ _______ _______ _____ _____    ______ ____

>  <TORSDO>
F 10

$$$$
=
 OpenBabel11052414153D

 34 36  0  0  1  0  0  0  0  0999 V2000
  188.9050  177.7060  137.9460 C   0  0  2  0  0  3  0  0  0  0  0  0
  190.3630  177.1300  139.8620 N   0  0  0  0  0  0  0  0  0  0  0  0
  188.4150  178.5970  140.2330 C   0  0  0  0  0  1  0  0  0  0  0  0
  189.7410  176.7180  137.1190 C   0  0  1  0  0  3  0  0  0  0  0  0
  190.8300  176.0620  139.1520 O   0  0  0  0  0  0  0  0  0  0  0  0
  191.0750  176.5360  137.8510 C   0  0  1  0  0  3  0  0  0  0  0  0
  188.9640  177.3990  139.4630 C   0  0  1  0  0  3  0  0  0  0  0  0
  193.6860  173.8790  137.1580 C   0  0  0  0  0  0  0  0  0  0  0  0
  193.9010  174.0380  135.7870 C   0  0  0  0  0  3  0  0  0  0  0  0
  192.0490  175.6670  137.1140 C   0  0  0  0  0  0  0  0  0  0  0  0
  193.1960  175.0130  135.0760 C   0  0  0  0  0  3  0  0  0  0  0  0
  192.7630  174.6940  137.8210 C   0  0  0  0  0  3  0  0  0  0  0  0
  192.2710  175.8270  135.7380 C   0  0  0  0  0  3  0  0  0  0  0  0
  194.3700  172.9350  137.8470 F   0  0  0  0  0  0  0  0  0  0  0  0
  187.3220  179.2790  137.0420 O   0  0  0  0  0  1  0  0  0  0  0  0
  187.4970  177.9340  137.3710 C   0  0  2  0  0  3  0  0  0  0  0  0
  186.4660  177.5160  138.3090 N   0  0  0  0  0  2  0  0  0  0  0  0
  185.2230  178.1390  137.8870 C   0  0  0  0  0  2  0  0  0  0  0  0
  183.8000  177.9540  139.9550 N   0  0  0  0  0  1  0  0  0  0  0  0
  184.5510  178.7630  139.0580 C   0  0  0  0  0  0  0  0  0  0  0  0
  184.4870  180.0490  139.1500 N   0  0  0  0  0  2  0  0  0  0  0  0
  188.4730  174.3740  136.7970 C   0  0  0  0  0  3  0  0  0  0  0  0
  189.0440  175.4260  136.9410 C   0  0  0  0  0  0  0  0  0  0  0  0
  190.3770  176.7080  141.2580 C   0  0  0  0  0  2  0  0  0  0  0  0
  191.7420  177.2330  143.2840 C   0  0  0  0  0  3  0  0  0  0  0  0
  191.4540  177.4430  141.9950 C   0  0  0  0  0  3  0  0  0  0  0  0
  191.0140  176.2550  144.1640 C   0  0  0  0  0  2  0  0  0  0  0  0
  191.8210  177.1370  146.8800 O   0  0  0  0  0  1  0  0  0  0  0  0
  190.1390  176.9110  145.1970 C   0  0  0  0  0  0  0  0  0  0  0  0
  190.5080  176.7200  146.6540 C   0  0  2  0  0  3  0  0  0  0  0  0
  188.1250  177.2980  147.1940 C   0  0  0  0  0  2  0  0  0  0  0  0
  187.9700  177.9730  145.8390 C   0  0  0  0  0  2  0  0  0  0  0  0
  188.9310  177.3900  144.8410 C   0  0  0  0  0  3  0  0  0  0  0  0
  189.5740  177.4310  147.6350 C   0  0  0  0  0  2  0  0  0  0  0  0
  1 16  1  6  0  0  0
  1  7  1  0  0  0  0
  2 24  1  0  0  0  0
  4 23  1  1  0  0  0
  4  6  1  0  0  0  0
  4  1  1  0  0  0  0
  5  2  1  0  0  0  0
  6 10  1  6  0  0  0
  6  5  1  0  0  0  0
  7  2  1  0  0  0  0
  7  3  1  1  0  0  0
  8 12  1  0  0  0  0
  8 14  1  0  0  0  0
  9  8  2  0  0  0  0
 10 12  2  0  0  0  0
 11 13  2  0  0  0  0
 11  9  1  0  0  0  0
 13 10  1  0  0  0  0
 16 15  1  1  0  0  0
 16 17  1  0  0  0  0
 18 17  1  0  0  0  0
 18 20  1  0  0  0  0
 20 21  2  0  0  0  0
 20 19  1  0  0  0  0
 22 23  3  0  0  0  0
 24 26  1  0  0  0  0
 25 27  1  0  0  0  0
 26 25  2  0  0  0  0
 27 29  1  0  0  0  0
 29 30  1  0  0  0  0
 30 28  1  6  0  0  0
 30 34  1  0  0  0  0
 31 34  1  0  0  0  0
 32 31  1  0  0  0  0
 33 29  2  0  0  0  0
 33 32  1  0  0  0  0
M  END
>  <MODEL>
4

>  <REMARK>
 VINA RESULT:      -7.7      3.512      8.533
  Name = 
  10 active torsions:
  status: ('A' for Active; 'I' for Inactive)
    1  A    between atoms: C_3  and  C_13
    2  A    between atoms: C_3  and  C_17
    3  A    between atoms: C_4  and  C_15
    4  A    between atoms: N_5  and  C_18
    5  A    between atoms: C_6  and  C_9
    6  A    between atoms: C_9  and  N_25
    7  A    between atoms: C_12  and  C_28
    8  A    between atoms: C_15  and  N_25
    9  A    between atoms: C_18  and  C_29
   10  A    between atoms: C_21  and  C_32
                            x       y       z     vdW  Elec       q    Type
                         _______ _______ _______ _____ _____    ______ ____

>  <TORSDO>
F 10

$$$$
=
 OpenBabel11052414153D

 34 36  0  0  1  0  0  0  0  0999 V2000
  182.0390  179.0650  140.8830 C   0  0  2  0  0  3  0  0  0  0  0  0
  183.6760  178.9120  142.7320 N   0  0  0  0  0  0  0  0  0  0  0  0
  181.3130  179.3860  143.2570 C   0  0  0  0  0  1  0  0  0  0  0  0
  183.1750  178.6190  139.9500 C   0  0  1  0  0  3  0  0  0  0  0  0
  184.5140  178.2280  141.9000 O   0  0  0  0  0  0  0  0  0  0  0  0
  184.4920  178.9160  140.6740 C   0  0  1  0  0  3  0  0  0  0  0  0
  182.2770  178.6260  142.3480 C   0  0  1  0  0  3  0  0  0  0  0  0
  188.1000  178.2410  139.7330 C   0  0  0  0  0  0  0  0  0  0  0  0
  188.0150  178.1090  138.3440 C   0  0  0  0  0  3  0  0  0  0  0  0
  185.7080  178.6250  139.8470 C   0  0  0  0  0  0  0  0  0  0  0  0
  186.7790  178.2370  137.7030 C   0  0  0  0  0  3  0  0  0  0  0  0
  186.9490  178.5020  140.4830 C   0  0  0  0  0  3  0  0  0  0  0  0
  185.6280  178.4960  138.4530 C   0  0  0  0  0  3  0  0  0  0  0  0
  189.2970  178.1180  140.3530 F   0  0  0  0  0  0  0  0  0  0  0  0
  180.2200  177.4940  140.7270 O   0  0  0  0  0  1  0  0  0  0  0  0
  180.6410  178.7600  140.3190 C   0  0  2  0  0  3  0  0  0  0  0  0
  180.6260  178.8420  138.8650 N   0  0  0  0  0  2  0  0  0  0  0  0
  180.0050  180.1070  138.5130 C   0  0  0  0  0  2  0  0  0  0  0  0
  181.8640  181.7950  138.3410 N   0  0  0  0  0  1  0  0  0  0  0  0
  180.9470  180.9190  137.6970 C   0  0  0  0  0  0  0  0  0  0  0  0
  180.8010  180.9750  136.4150 N   0  0  0  0  0  2  0  0  0  0  0  0
  182.9760  176.0200  139.3070 C   0  0  0  0  0  3  0  0  0  0  0  0
  183.0650  177.1880  139.5980 C   0  0  0  0  0  0  0  0  0  0  0  0
  183.9170  178.3660  144.0630 C   0  0  0  0  0  2  0  0  0  0  0  0
  185.5970  179.0560  145.7780 C   0  0  0  0  0  3  0  0  0  0  0  0
  184.6430  179.3750  144.8980 C   0  0  0  0  0  3  0  0  0  0  0  0
  186.0500  177.6500  146.0610 C   0  0  0  0  0  2  0  0  0  0  0  0
  188.6200  176.9460  147.3670 O   0  0  0  0  0  1  0  0  0  0  0  0
  187.3380  177.2830  145.3780 C   0  0  0  0  0  0  0  0  0  0  0  0
  188.6310  177.5660  146.1170 C   0  0  2  0  0  3  0  0  0  0  0  0
  189.7680  177.4900  143.8790 C   0  0  0  0  0  2  0  0  0  0  0  0
  188.5990  176.7080  143.2990 C   0  0  0  0  0  2  0  0  0  0  0  0
  187.3370  176.9930  144.0620 C   0  0  0  0  0  3  0  0  0  0  0  0
  189.8910  177.1490  145.3560 C   0  0  0  0  0  2  0  0  0  0  0  0
  1 16  1  6  0  0  0
  1  7  1  0  0  0  0
  2 24  1  0  0  0  0
  4 23  1  1  0  0  0
  4  6  1  0  0  0  0
  4  1  1  0  0  0  0
  5  2  1  0  0  0  0
  6 10  1  6  0  0  0
  6  5  1  0  0  0  0
  7  2  1  0  0  0  0
  7  3  1  1  0  0  0
  8 14  1  0  0  0  0
  8 12  1  0  0  0  0
  9  8  2  0  0  0  0
 10 12  2  0  0  0  0
 11  9  1  0  0  0  0
 11 13  2  0  0  0  0
 13 10  1  0  0  0  0
 16 15  1  6  0  0  0
 17 16  1  0  0  0  0
 18 17  1  0  0  0  0
 20 19  1  0  0  0  0
 20 18  1  0  0  0  0
 21 20  2  0  0  0  0
 22 23  3  0  0  0  0
 24 26  1  0  0  0  0
 25 27  1  0  0  0  0
 26 25  2  0  0  0  0
 29 27  1  0  0  0  0
 29 30  1  0  0  0  0
 30 28  1  1  0  0  0
 31 34  1  0  0  0  0
 32 31  1  0  0  0  0
 32 33  1  0  0  0  0
 33 29  2  0  0  0  0
 34 30  1  0  0  0  0
M  END
>  <MODEL>
5

>  <REMARK>
 VINA RESULT:      -7.6      3.549      8.491
  Name = 
  10 active torsions:
  status: ('A' for Active; 'I' for Inactive)
    1  A    between atoms: C_3  and  C_13
    2  A    between atoms: C_3  and  C_17
    3  A    between atoms: C_4  and  C_15
    4  A    between atoms: N_5  and  C_18
    5  A    between atoms: C_6  and  C_9
    6  A    between atoms: C_9  and  N_25
    7  A    between atoms: C_12  and  C_28
    8  A    between atoms: C_15  and  N_25
    9  A    between atoms: C_18  and  C_29
   10  A    between atoms: C_21  and  C_32
                            x       y       z     vdW  Elec       q    Type
                         _______ _______ _______ _____ _____    ______ ____

>  <TORSDO>
F 10

$$$$
=
 OpenBabel11052414153D

 34 36  0  0  1  0  0  0  0  0999 V2000
  188.3260  177.0840  145.0680 C   0  0  2  0  0  3  0  0  0  0  0  0
  186.4640  177.8450  143.6260 N   0  0  0  0  0  0  0  0  0  0  0  0
  186.0490  177.4770  146.0300 C   0  0  0  0  0  1  0  0  0  0  0  0
  189.2370  177.2610  143.8440 C   0  0  1  0  0  3  0  0  0  0  0  0
  187.3820  178.2700  142.7090 O   0  0  0  0  0  0  0  0  0  0  0  0
  188.3350  177.2410  142.6070 C   0  0  1  0  0  3  0  0  0  0  0  0
  187.0500  177.9550  144.9800 C   0  0  1  0  0  3  0  0  0  0  0  0
  189.2220  178.0850  139.0200 C   0  0  0  0  0  0  0  0  0  0  0  0
  190.4500  177.4350  138.8680 C   0  0  0  0  0  3  0  0  0  0  0  0
  189.0910  177.3070  141.3130 C   0  0  0  0  0  0  0  0  0  0  0  0
  190.9990  176.7160  139.9330 C   0  0  0  0  0  3  0  0  0  0  0  0
  188.5430  178.0180  140.2400 C   0  0  0  0  0  3  0  0  0  0  0  0
  190.3210  176.6520  141.1550 C   0  0  0  0  0  3  0  0  0  0  0  0
  188.6900  178.7800  137.9870 F   0  0  0  0  0  0  0  0  0  0  0  0
  188.8830  178.3970  147.0080 O   0  0  0  0  0  1  0  0  0  0  0  0
  189.0880  177.1570  146.4020 C   0  0  2  0  0  3  0  0  0  0  0  0
  190.5140  176.9280  146.2130 N   0  0  0  0  0  2  0  0  0  0  0  0
  191.0080  176.2820  147.4180 C   0  0  0  0  0  2  0  0  0  0  0  0
  192.4970  174.8790  145.9520 N   0  0  0  0  0  2  0  0  0  0  0  0
  192.3210  175.6400  147.1400 C   0  0  0  0  0  0  0  0  0  0  0  0
  193.2260  175.6110  148.0600 N   0  0  0  0  0  1  0  0  0  0  0  0
  190.6610  179.5330  143.9830 C   0  0  0  0  0  3  0  0  0  0  0  0
  190.0200  178.5130  143.9200 C   0  0  0  0  0  0  0  0  0  0  0  0
  185.3480  178.7780  143.5220 C   0  0  0  0  0  2  0  0  0  0  0  0
  184.3950  179.0180  141.2260 C   0  0  0  0  0  3  0  0  0  0  0  0
  185.3050  179.3610  142.1440 C   0  0  0  0  0  3  0  0  0  0  0  0
  183.3180  177.9930  141.4450 C   0  0  0  0  0  2  0  0  0  0  0  0
  181.0630  177.9020  139.5170 O   0  0  0  0  0  1  0  0  0  0  0  0
  181.9490  178.5880  141.6290 C   0  0  0  0  0  0  0  0  0  0  0  0
  181.1840  178.9900  140.3830 C   0  0  2  0  0  3  0  0  0  0  0  0
  179.8330  180.5010  141.8660 C   0  0  0  0  0  2  0  0  0  0  0  0
  180.2460  179.6920  143.0860 C   0  0  0  0  0  2  0  0  0  0  0  0
  181.5610  179.0060  142.8500 C   0  0  0  0  0  3  0  0  0  0  0  0
  179.7970  179.5720  140.6620 C   0  0  0  0  0  2  0  0  0  0  0  0
  1 16  1  1  0  0  0
  2  7  1  0  0  0  0
  4 23  1  1  0  0  0
  4  1  1  0  0  0  0
  5  2  1  0  0  0  0
  6 10  1  6  0  0  0
  6  5  1  0  0  0  0
  6  4  1  0  0  0  0
  7  1  1  0  0  0  0
  7  3  1  1  0  0  0
  8 12  1  0  0  0  0
  9  8  2  0  0  0  0
  9 11  1  0  0  0  0
 11 13  2  0  0  0  0
 12 10  2  0  0  0  0
 13 10  1  0  0  0  0
 14  8  1  0  0  0  0
 16 15  1  6  0  0  0
 17 16  1  0  0  0  0
 17 18  1  0  0  0  0
 19 20  2  0  0  0  0
 20 18  1  0  0  0  0
 20 21  1  0  0  0  0
 23 22  3  0  0  0  0
 24  2  1  0  0  0  0
 25 27  1  0  0  0  0
 25 26  2  0  0  0  0
 26 24  1  0  0  0  0
 27 29  1  0  0  0  0
 29 33  2  0  0  0  0
 30 28  1  6  0  0  0
 30 34  1  0  0  0  0
 30 29  1  0  0  0  0
 31 32  1  0  0  0  0
 33 32  1  0  0  0  0
 34 31  1  0  0  0  0
M  END
>  <MODEL>
6

>  <REMARK>
 VINA RESULT:      -7.5      1.617      2.628
  Name = 
  10 active torsions:
  status: ('A' for Active; 'I' for Inactive)
    1  A    between atoms: C_3  and  C_13
    2  A    between atoms: C_3  and  C_17
    3  A    between atoms: C_4  and  C_15
    4  A    between atoms: N_5  and  C_18
    5  A    between atoms: C_6  and  C_9
    6  A    between atoms: C_9  and  N_25
    7  A    between atoms: C_12  and  C_28
    8  A    between atoms: C_15  and  N_25
    9  A    between atoms: C_18  and  C_29
   10  A    between atoms: C_21  and  C_32
                            x       y       z     vdW  Elec       q    Type
                         _______ _______ _______ _____ _____    ______ ____

>  <TORSDO>
F 10

$$$$
=
 OpenBabel11052414153D

 34 36  0  0  1  0  0  0  0  0999 V2000
  184.8170  177.8720  139.2750 C   0  0  2  0  0  3  0  0  0  0  0  0
  185.1340  178.5070  141.6460 N   0  0  0  0  0  0  0  0  0  0  0  0
  187.1140  178.0240  140.2570 C   0  0  0  0  0  1  0  0  0  0  0  0
  183.3240  178.1720  139.4800 C   0  0  1  0  0  3  0  0  0  0  0  0
  183.8790  179.0430  141.6440 O   0  0  0  0  0  0  0  0  0  0  0  0
  183.0580  178.1100  140.9870 C   0  0  1  0  0  3  0  0  0  0  0  0
  185.7110  178.6260  140.2900 C   0  0  1  0  0  3  0  0  0  0  0  0
  179.9240  179.4150  142.6720 C   0  0  0  0  0  0  0  0  0  0  0  0
  178.9310  178.6340  142.0750 C   0  0  0  0  0  3  0  0  0  0  0  0
  181.6130  178.2860  141.3470 C   0  0  0  0  0  0  0  0  0  0  0  0
  179.2740  177.6760  141.1170 C   0  0  0  0  0  3  0  0  0  0  0  0
  181.2630  179.2390  142.3110 C   0  0  0  0  0  3  0  0  0  0  0  0
  180.6130  177.5010  140.7540 C   0  0  0  0  0  3  0  0  0  0  0  0
  179.5910  180.3420  143.6010 F   0  0  0  0  0  0  0  0  0  0  0  0
  185.7430  176.7420  137.3620 O   0  0  0  0  0  1  0  0  0  0  0  0
  185.2550  177.9710  137.8040 C   0  0  2  0  0  3  0  0  0  0  0  0
  186.2680  179.0010  137.6200 N   0  0  0  0  0  2  0  0  0  0  0  0
  187.1680  178.5360  136.5780 C   0  0  0  0  0  2  0  0  0  0  0  0
  189.1210  179.7520  137.5980 N   0  0  0  0  0  1  0  0  0  0  0  0
  188.5680  178.5480  137.0810 C   0  0  0  0  0  0  0  0  0  0  0  0
  189.3340  177.5310  136.8700 N   0  0  0  0  0  2  0  0  0  0  0  0
  182.6390  180.5590  138.4600 C   0  0  0  0  0  3  0  0  0  0  0  0
  182.9480  179.4870  138.9200 C   0  0  0  0  0  0  0  0  0  0  0  0
  185.9120  179.3360  142.5600 C   0  0  0  0  0  2  0  0  0  0  0  0
  185.2800  178.6780  144.8850 C   0  0  0  0  0  3  0  0  0  0  0  0
  185.1630  179.5090  143.8450 C   0  0  0  0  0  3  0  0  0  0  0  0
  186.1550  177.4550  144.8950 C   0  0  0  0  0  2  0  0  0  0  0  0
  188.8810  177.8010  143.7760 O   0  0  0  0  0  1  0  0  0  0  0  0
  187.4320  177.6340  145.6690 C   0  0  0  0  0  0  0  0  0  0  0  0
  188.7200  177.1780  145.0150 C   0  0  2  0  0  3  0  0  0  0  0  0
  189.7000  177.0800  147.3250 C   0  0  0  0  0  2  0  0  0  0  0  0
  188.6140  178.0140  147.8370 C   0  0  0  0  0  2  0  0  0  0  0  0
  187.3800  177.9130  146.9860 C   0  0  0  0  0  3  0  0  0  0  0  0
  189.9700  177.4100  145.8650 C   0  0  0  0  0  2  0  0  0  0  0  0
  1 16  1  6  0  0  0
  1  4  1  0  0  0  0
  1  7  1  0  0  0  0
  2 24  1  0  0  0  0
  4 23  1  1  0  0  0
  4  6  1  0  0  0  0
  5  2  1  0  0  0  0
  6 10  1  6  0  0  0
  6  5  1  0  0  0  0
  7  3  1  1  0  0  0
  7  2  1  0  0  0  0
  8 14  1  0  0  0  0
  9  8  2  0  0  0  0
 10 12  2  0  0  0  0
 11  9  1  0  0  0  0
 12  8  1  0  0  0  0
 13 11  2  0  0  0  0
 13 10  1  0  0  0  0
 16 15  1  1  0  0  0
 17 16  1  0  0  0  0
 18 20  1  0  0  0  0
 18 17  1  0  0  0  0
 20 19  1  0  0  0  0
 21 20  2  0  0  0  0
 22 23  3  0  0  0  0
 24 26  1  0  0  0  0
 25 27  1  0  0  0  0
 26 25  2  0  0  0  0
 27 29  1  0  0  0  0
 29 33  2  0  0  0  0
 30 28  1  6  0  0  0
 30 29  1  0  0  0  0
 30 34  1  0  0  0  0
 31 32  1  0  0  0  0
 33 32  1  0  0  0  0
 34 31  1  0  0  0  0
M  END
>  <MODEL>
7

>  <REMARK>
 VINA RESULT:      -7.1      3.881      8.772
  Name = 
  10 active torsions:
  status: ('A' for Active; 'I' for Inactive)
    1  A    between atoms: C_3  and  C_13
    2  A    between atoms: C_3  and  C_17
    3  A    between atoms: C_4  and  C_15
    4  A    between atoms: N_5  and  C_18
    5  A    between atoms: C_6  and  C_9
    6  A    between atoms: C_9  and  N_25
    7  A    between atoms: C_12  and  C_28
    8  A    between atoms: C_15  and  N_25
    9  A    between atoms: C_18  and  C_29
   10  A    between atoms: C_21  and  C_32
                            x       y       z     vdW  Elec       q    Type
                         _______ _______ _______ _____ _____    ______ ____

>  <TORSDO>
F 10

$$$$
=
 OpenBabel11052414153D

 34 36  0  0  1  0  0  0  0  0999 V2000
  188.3370  178.3520  141.7920 C   0  0  2  0  0  3  0  0  0  0  0  0
  186.4300  178.5140  143.3610 N   0  0  0  0  0  0  0  0  0  0  0  0
  186.0640  179.0000  140.9700 C   0  0  0  0  0  1  0  0  0  0  0  0
  189.1540  177.8020  142.9720 C   0  0  1  0  0  3  0  0  0  0  0  0
  187.1230  177.7370  144.2430 O   0  0  0  0  0  0  0  0  0  0  0  0
  188.4370  178.2360  144.2540 C   0  0  1  0  0  3  0  0  0  0  0  0
  186.8160  178.1400  141.9830 C   0  0  1  0  0  3  0  0  0  0  0  0
  189.1600  177.5830  147.9160 C   0  0  0  0  0  0  0  0  0  0  0  0
  190.4990  177.1870  147.8780 C   0  0  0  0  0  3  0  0  0  0  0  0
  189.1680  177.8570  145.5060 C   0  0  0  0  0  0  0  0  0  0  0  0
  191.1780  177.1280  146.6570 C   0  0  0  0  0  3  0  0  0  0  0  0
  188.4970  177.9210  146.7330 C   0  0  0  0  0  3  0  0  0  0  0  0
  190.5140  177.4630  145.4730 C   0  0  0  0  0  3  0  0  0  0  0  0
  188.5030  177.6410  149.0990 F   0  0  0  0  0  0  0  0  0  0  0  0
  190.2320  177.5400  140.5470 O   0  0  0  0  0  1  0  0  0  0  0  0
  188.8980  177.9320  140.4230 C   0  0  2  0  0  3  0  0  0  0  0  0
  188.7880  179.0100  139.4510 N   0  0  0  0  0  2  0  0  0  0  0  0
  189.0130  178.4280  138.1380 C   0  0  0  0  0  2  0  0  0  0  0  0
  186.6000  178.6240  137.4530 N   0  0  0  0  0  2  0  0  0  0  0  0
  187.7540  177.8150  137.6380 C   0  0  0  0  0  0  0  0  0  0  0  0
  187.6540  176.5300  137.5610 N   0  0  0  0  0  1  0  0  0  0  0  0
  189.4060  175.1330  142.8460 C   0  0  0  0  0  3  0  0  0  0  0  0
  189.2940  176.3320  142.9040 C   0  0  0  0  0  0  0  0  0  0  0  0
  185.0250  178.1760  143.5610 C   0  0  0  0  0  2  0  0  0  0  0  0
  183.0090  179.4420  144.3180 C   0  0  0  0  0  3  0  0  0  0  0  0
  184.3370  179.2920  144.2840 C   0  0  0  0  0  3  0  0  0  0  0  0
  182.0380  178.5300  143.6200 C   0  0  0  0  0  2  0  0  0  0  0  0
  180.0960  180.6770  142.9660 O   0  0  0  0  0  1  0  0  0  0  0  0
  181.6450  179.0040  142.2480 C   0  0  0  0  0  0  0  0  0  0  0  0
  180.2660  179.6100  142.0820 C   0  0  2  0  0  3  0  0  0  0  0  0
  180.4770  179.0790  139.6360 C   0  0  0  0  0  2  0  0  0  0  0  0
  181.9890  178.9940  139.7730 C   0  0  0  0  0  2  0  0  0  0  0  0
  182.3770  178.6330  141.1790 C   0  0  0  0  0  3  0  0  0  0  0  0
  179.9560  180.0780  140.6590 C   0  0  0  0  0  2  0  0  0  0  0  0
  1 16  1  6  0  0  0
  1  7  1  0  0  0  0
  1  4  1  0  0  0  0
  2 24  1  0  0  0  0
  2  5  1  0  0  0  0
  4 23  1  6  0  0  0
  4  6  1  0  0  0  0
  5  6  1  0  0  0  0
  6 10  1  1  0  0  0
  7  3  1  6  0  0  0
  7  2  1  0  0  0  0
  8 14  1  0  0  0  0
  9  8  1  0  0  0  0
 10 12  1  0  0  0  0
 11  9  2  0  0  0  0
 12  8  2  0  0  0  0
 13 10  2  0  0  0  0
 13 11  1  0  0  0  0
 16 15  1  1  0  0  0
 17 16  1  0  0  0  0
 18 17  1  0  0  0  0
 19 20  2  0  0  0  0
 20 18  1  0  0  0  0
 21 20  1  0  0  0  0
 22 23  3  0  0  0  0
 24 26  1  0  0  0  0
 26 25  2  0  0  0  0
 27 25  1  0  0  0  0
 29 27  1  0  0  0  0
 30 29  1  0  0  0  0
 30 28  1  1  0  0  0
 31 32  1  0  0  0  0
 31 34  1  0  0  0  0
 32 33  1  0  0  0  0
 33 29  2  0  0  0  0
 34 30  1  0  0  0  0
M  END
>  <MODEL>
8

>  <REMARK>
 VINA RESULT:      -7.0      3.522      6.220
  Name = 
  10 active torsions:
  status: ('A' for Active; 'I' for Inactive)
    1  A    between atoms: C_3  and  C_13
    2  A    between atoms: C_3  and  C_17
    3  A    between atoms: C_4  and  C_15
    4  A    between atoms: N_5  and  C_18
    5  A    between atoms: C_6  and  C_9
    6  A    between atoms: C_9  and  N_25
    7  A    between atoms: C_12  and  C_28
    8  A    between atoms: C_15  and  N_25
    9  A    between atoms: C_18  and  C_29
   10  A    between atoms: C_21  and  C_32
                            x       y       z     vdW  Elec       q    Type
                         _______ _______ _______ _____ _____    ______ ____

>  <TORSDO>
F 10

$$$$
=
 OpenBabel11052414153D

 34 36  0  0  1  0  0  0  0  0999 V2000
  181.5880  178.9500  140.8280 C   0  0  2  0  0  3  0  0  0  0  0  0
  183.2560  179.0280  142.6550 N   0  0  0  0  0  0  0  0  0  0  0  0
  180.8760  179.4020  143.1850 C   0  0  0  0  0  1  0  0  0  0  0  0
  182.7360  178.5040  139.9100 C   0  0  1  0  0  3  0  0  0  0  0  0
  184.1220  178.3360  141.8590 O   0  0  0  0  0  0  0  0  0  0  0  0
  184.0430  178.9290  140.5880 C   0  0  1  0  0  3  0  0  0  0  0  0
  181.8710  178.6350  142.3170 C   0  0  1  0  0  3  0  0  0  0  0  0
  186.2480  178.2090  137.5910 C   0  0  0  0  0  0  0  0  0  0  0  0
  187.5080  178.0950  138.1830 C   0  0  0  0  0  3  0  0  0  0  0  0
  185.2630  178.6490  139.7630 C   0  0  0  0  0  0  0  0  0  0  0  0
  187.6510  178.2530  139.5640 C   0  0  0  0  0  3  0  0  0  0  0  0
  185.1260  178.4830  138.3810 C   0  0  0  0  0  3  0  0  0  0  0  0
  186.5300  178.5290  140.3540 C   0  0  0  0  0  3  0  0  0  0  0  0
  186.1100  178.0550  136.2530 F   0  0  0  0  0  0  0  0  0  0  0  0
  179.9330  177.2070  140.6840 O   0  0  0  0  0  1  0  0  0  0  0  0
  180.2030  178.5240  140.3120 C   0  0  2  0  0  3  0  0  0  0  0  0
  180.1120  178.6580  138.8650 N   0  0  0  0  0  2  0  0  0  0  0  0
  179.4950  179.9450  138.5920 C   0  0  0  0  0  2  0  0  0  0  0  0
  180.4420  182.2060  138.0230 N   0  0  0  0  0  1  0  0  0  0  0  0
  180.4360  180.7990  137.8190 C   0  0  0  0  0  0  0  0  0  0  0  0
  181.1010  180.2920  136.8350 N   0  0  0  0  0  2  0  0  0  0  0  0
  182.6810  175.8560  139.4670 C   0  0  0  0  0  3  0  0  0  0  0  0
  182.7070  177.0460  139.6650 C   0  0  0  0  0  0  0  0  0  0  0  0
  183.5450  178.5970  144.0180 C   0  0  0  0  0  2  0  0  0  0  0  0
  185.3070  179.3800  145.6060 C   0  0  0  0  0  3  0  0  0  0  0  0
  184.3420  179.6510  144.7220 C   0  0  0  0  0  3  0  0  0  0  0  0
  185.7040  177.9910  146.0240 C   0  0  0  0  0  2  0  0  0  0  0  0
  188.0130  177.8430  144.1660 O   0  0  0  0  0  1  0  0  0  0  0  0
  187.1560  177.8660  146.3970 C   0  0  0  0  0  0  0  0  0  0  0  0
  188.0820  177.1970  145.4010 C   0  0  2  0  0  3  0  0  0  0  0  0
  189.6310  176.7750  147.3320 C   0  0  0  0  0  2  0  0  0  0  0  0
  188.9550  177.8790  148.1310 C   0  0  0  0  0  2  0  0  0  0  0  0
  187.5380  178.0760  147.6720 C   0  0  0  0  0  3  0  0  0  0  0  0
  189.5410  177.1250  145.8550 C   0  0  0  0  0  2  0  0  0  0  0  0
  1 16  1  6  0  0  0
  1  7  1  0  0  0  0
  2 24  1  0  0  0  0
  4 23  1  1  0  0  0
  4  6  1  0  0  0  0
  4  1  1  0  0  0  0
  5  2  1  0  0  0  0
  6 10  1  6  0  0  0
  6  5  1  0  0  0  0
  7  2  1  0  0  0  0
  7  3  1  1  0  0  0
  8  9  2  0  0  0  0
  8 12  1  0  0  0  0
  9 11  1  0  0  0  0
 10 13  1  0  0  0  0
 11 13  2  0  0  0  0
 12 10  2  0  0  0  0
 14  8  1  0  0  0  0
 16 15  1  6  0  0  0
 17 16  1  0  0  0  0
 18 17  1  0  0  0  0
 20 19  1  0  0  0  0
 20 18  1  0  0  0  0
 21 20  2  0  0  0  0
 22 23  3  0  0  0  0
 24 26  1  0  0  0  0
 25 27  1  0  0  0  0
 26 25  2  0  0  0  0
 27 29  1  0  0  0  0
 29 33  2  0  0  0  0
 30 28  1  6  0  0  0
 30 34  1  0  0  0  0
 30 29  1  0  0  0  0
 31 32  1  0  0  0  0
 33 32  1  0  0  0  0
 34 31  1  0  0  0  0
M  END
>  <MODEL>
9

>  <REMARK>
 VINA RESULT:      -7.0      3.792      8.916
  Name = 
  10 active torsions:
  status: ('A' for Active; 'I' for Inactive)
    1  A    between atoms: C_3  and  C_13
    2  A    between atoms: C_3  and  C_17
    3  A    between atoms: C_4  and  C_15
    4  A    between atoms: N_5  and  C_18
    5  A    between atoms: C_6  and  C_9
    6  A    between atoms: C_9  and  N_25
    7  A    between atoms: C_12  and  C_28
    8  A    between atoms: C_15  and  N_25
    9  A    between atoms: C_18  and  C_29
   10  A    between atoms: C_21  and  C_32
                            x       y       z     vdW  Elec       q    Type
                         _______ _______ _______ _____ _____    ______ ____

>  <TORSDO>
F 10

$$$$
