=
 OpenBabel11052416543D

 32 38  0  0  1  0  0  0  0  0999 V2000
  185.9060  176.9720  137.5740 C   0  0  0  0  0  2  0  0  0  0  0  0
  188.5340  178.1970  141.7000 C   0  0  2  0  0  3  0  0  0  0  0  0
  186.8760  178.2000  139.7990 C   0  0  2  0  0  3  0  0  0  0  0  0
  188.8390  176.7210  139.6170 C   0  0  0  0  0  2  0  0  0  0  0  0
  187.4340  177.1620  137.5540 C   0  0  2  0  0  3  0  0  0  0  0  0
  190.0000  176.2990  141.7050 N   0  0  0  0  0  2  0  0  0  0  0  0
  189.4980  177.3670  140.8460 C   0  0  2  0  0  3  0  0  0  0  0  0
  189.1080  176.2030  142.8640 C   0  0  2  0  0  3  0  0  0  0  0  0
  187.9500  177.1830  142.6400 C   0  0  1  0  0  3  0  0  0  0  0  0
  185.1410  178.0550  138.3720 C   0  0  0  0  0  2  0  0  0  0  0  0
  187.9870  177.7300  138.8730 C   0  0  1  0  0  3  0  0  0  0  0  0
  185.9740  178.9670  139.0540 O   0  0  0  0  0  0  0  0  0  0  0  0
  187.4880  179.0150  140.9250 C   0  0  0  0  0  2  0  0  0  0  0  0
  186.0780  178.1550  144.0000 C   0  0  0  0  0  0  0  0  0  0  0  0
  185.9320  178.5780  145.3730 C   0  0  1  0  0  3  0  0  0  0  0  0
  186.9740  178.1240  147.3260 C   0  0  0  0  0  0  0  0  0  0  0  0
  185.6960  178.0360  147.5420 N   0  0  0  0  0  0  0  0  0  0  0  0
  185.0280  178.2440  146.2850 C   0  0  0  0  0  2  0  0  0  0  0  0
  188.0590  177.8750  145.1360 N   0  0  0  0  0  2  0  0  0  0  0  0
  184.8140  178.0040  142.7940 Cl  0  0  0  0  0  0  0  0  0  0  0  0
  188.0060  177.8750  148.3670 C   0  0  0  0  0  1  0  0  0  0  0  0
  187.3610  177.7950  143.8790 C   0  0  0  0  0  0  0  0  0  0  0  0
  187.2180  178.4390  145.9380 C   0  0  1  0  0  3  0  0  0  0  0  0
  189.0500  177.6630  135.4740 C   0  0  0  0  0  0  0  0  0  0  0  0
  188.8870  176.1340  135.3860 C   0  0  0  0  0  2  0  0  0  0  0  0
  190.1380  176.6780  135.9350 C   0  0  0  0  0  2  0  0  0  0  0  0
  189.1860  178.6020  136.6730 C   0  0  0  0  0  2  0  0  0  0  0  0
  187.8400  178.0720  136.3830 C   0  0  2  0  0  3  0  0  0  0  0  0
  189.9100  176.4830  144.1340 C   0  0  0  0  0  2  0  0  0  0  0  0
  191.3450  176.8420  143.7870 C   0  0  0  0  0  2  0  0  0  0  0  0
  190.9700  179.2020  143.8290 O   0  0  0  0  0  1  0  0  0  0  0  0
  191.7150  178.1770  144.4140 C   0  0  0  0  0  2  0  0  0  0  0  0
  1 10  1  0  0  0  0
  2 13  1  6  0  0  0
  2  9  1  0  0  0  0
  3 13  1  1  0  0  0
  5  1  1  1  0  0  0
  5 11  1  0  0  0  0
  6  8  1  0  0  0  0
  7  4  1  6  0  0  0
  7  2  1  0  0  0  0
  7  6  1  0  0  0  0
  8 29  1  1  0  0  0
  9  8  1  0  0  0  0
  9 22  1  1  0  0  0
 10 12  1  0  0  0  0
 11  4  1  1  0  0  0
 11  3  1  0  0  0  0
 12  3  1  0  0  0  0
 14 15  1  0  0  0  0
 15 23  1  0  0  0  0
 15 18  1  1  0  0  0
 16 17  2  0  0  0  0
 16 21  1  0  0  0  0
 18 17  1  0  0  0  0
 20 14  1  0  0  0  0
 22 14  2  0  0  0  0
 22 19  1  0  0  0  0
 23 19  1  6  0  0  0
 23 16  1  0  0  0  0
 24 26  1  0  0  0  0
 24 28  1  0  0  0  0
 24 27  1  0  0  0  0
 25 24  1  0  0  0  0
 25 26  1  0  0  0  0
 28 27  1  1  0  0  0
 28  5  1  0  0  0  0
 30 29  1  0  0  0  0
 30 32  1  0  0  0  0
 31 32  1  0  0  0  0
M  END
>  <MODEL>
1

>  <REMARK>
 VINA RESULT:      -8.1      0.000      0.000
  Name = 
  5 active torsions:
  status: ('A' for Active; 'I' for Inactive)
    1  A    between atoms: C_5  and  C_25
    2  A    between atoms: C_12  and  C_24
    3  A    between atoms: C_15  and  C_26
    4  A    between atoms: C_16  and  C_31
    5  A    between atoms: C_25  and  C_26
                            x       y       z     vdW  Elec       q    Type
                         _______ _______ _______ _____ _____    ______ ____

>  <TORSDO>
F 5

$$$$
=
 OpenBabel11052416543D

 32 38  0  0  1  0  0  0  0  0999 V2000
  188.9620  175.8120  143.2010 C   0  0  0  0  0  2  0  0  0  0  0  0
  185.2640  179.1510  142.4280 C   0  0  2  0  0  3  0  0  0  0  0  0
  187.3820  177.7980  142.2220 C   0  0  2  0  0  3  0  0  0  0  0  0
  186.1820  177.7430  144.3740 C   0  0  0  0  0  2  0  0  0  0  0  0
  188.5510  176.8480  144.2620 C   0  0  2  0  0  3  0  0  0  0  0  0
  183.8840  178.5160  144.2840 N   0  0  0  0  0  2  0  0  0  0  0  0
  185.2520  178.8870  143.9370 C   0  0  2  0  0  3  0  0  0  0  0  0
  183.1910  178.1570  143.0430 C   0  0  2  0  0  3  0  0  0  0  0  0
  184.2210  178.2060  141.9070 C   0  0  1  0  0  3  0  0  0  0  0  0
  189.0700  176.3790  141.7650 C   0  0  0  0  0  2  0  0  0  0  0  0
  187.5470  177.8870  143.7310 C   0  0  1  0  0  3  0  0  0  0  0  0
  188.6530  177.7220  141.6420 O   0  0  0  0  0  0  0  0  0  0  0  0
  186.6320  179.0260  141.7360 C   0  0  0  0  0  2  0  0  0  0  0  0
  183.0810  177.7510  139.7190 C   0  0  0  0  0  0  0  0  0  0  0  0
  182.6360  178.5690  138.6140 C   0  0  1  0  0  3  0  0  0  0  0  0
  182.0880  180.7420  138.3270 C   0  0  0  0  0  0  0  0  0  0  0  0
  181.1510  180.0330  137.7750 N   0  0  0  0  0  0  0  0  0  0  0  0
  181.4500  178.6480  138.0240 C   0  0  0  0  0  2  0  0  0  0  0  0
  183.5930  179.9610  140.1050 N   0  0  0  0  0  2  0  0  0  0  0  0
  182.7600  176.0470  139.9750 Cl  0  0  0  0  0  0  0  0  0  0  0  0
  182.0840  182.2290  138.3670 C   0  0  0  0  0  1  0  0  0  0  0  0
  183.6890  178.5970  140.5580 C   0  0  0  0  0  0  0  0  0  0  0  0
  183.0760  179.8740  138.9240 C   0  0  1  0  0  3  0  0  0  0  0  0
  189.9370  177.7650  146.3660 C   0  0  0  0  0  0  0  0  0  0  0  0
  189.3520  176.4530  146.9210 C   0  0  0  0  0  2  0  0  0  0  0  0
  188.7330  177.7250  147.3210 C   0  0  0  0  0  2  0  0  0  0  0  0
  189.3490  178.8250  145.4340 C   0  0  0  0  0  2  0  0  0  0  0  0
  189.7950  177.5600  144.8180 C   0  0  2  0  0  3  0  0  0  0  0  0
  182.0110  179.1050  142.8410 C   0  0  0  0  0  2  0  0  0  0  0  0
  180.7630  178.5490  143.5050 C   0  0  0  0  0  2  0  0  0  0  0  0
  179.9830  180.6950  142.8020 O   0  0  0  0  0  1  0  0  0  0  0  0
  179.5610  179.4170  143.1690 C   0  0  0  0  0  2  0  0  0  0  0  0
  2 13  1  6  0  0  0
  2  7  1  0  0  0  0
  3 13  1  6  0  0  0
  3 11  1  0  0  0  0
  5  1  1  6  0  0  0
  5 28  1  0  0  0  0
  7  6  1  0  0  0  0
  7  4  1  6  0  0  0
  8 29  1  6  0  0  0
  8  6  1  0  0  0  0
  9 22  1  6  0  0  0
  9  2  1  0  0  0  0
  9  8  1  0  0  0  0
 10  1  1  0  0  0  0
 11  5  1  0  0  0  0
 11  4  1  1  0  0  0
 12 10  1  0  0  0  0
 12  3  1  0  0  0  0
 14 20  1  0  0  0  0
 14 22  2  0  0  0  0
 15 18  1  1  0  0  0
 15 23  1  0  0  0  0
 15 14  1  0  0  0  0
 16 21  1  0  0  0  0
 17 18  1  0  0  0  0
 17 16  2  0  0  0  0
 19 22  1  0  0  0  0
 23 16  1  1  0  0  0
 23 19  1  0  0  0  0
 24 25  1  0  0  0  0
 24 26  1  0  0  0  0
 25 26  1  0  0  0  0
 27 24  1  0  0  0  0
 28 27  1  6  0  0  0
 28 24  1  0  0  0  0
 29 30  1  0  0  0  0
 31 32  1  0  0  0  0
 32 30  1  0  0  0  0
M  END
>  <MODEL>
2

>  <REMARK>
 VINA RESULT:      -7.7      3.840      8.004
  Name = 
  5 active torsions:
  status: ('A' for Active; 'I' for Inactive)
    1  A    between atoms: C_5  and  C_25
    2  A    between atoms: C_12  and  C_24
    3  A    between atoms: C_15  and  C_26
    4  A    between atoms: C_16  and  C_31
    5  A    between atoms: C_25  and  C_26
                            x       y       z     vdW  Elec       q    Type
                         _______ _______ _______ _____ _____    ______ ____

>  <TORSDO>
F 5

$$$$
=
 OpenBabel11052416543D

 32 38  0  0  1  0  0  0  0  0999 V2000
  189.2840  175.6390  137.4370 C   0  0  0  0  0  2  0  0  0  0  0  0
  189.1760  178.0170  141.8830 C   0  0  2  0  0  3  0  0  0  0  0  0
  188.8710  177.4200  139.4510 C   0  0  2  0  0  3  0  0  0  0  0  0
  190.5590  176.1730  140.7430 C   0  0  0  0  0  2  0  0  0  0  0  0
  190.5640  175.9950  138.2140 C   0  0  2  0  0  3  0  0  0  0  0  0
  190.3390  176.3460  143.1530 N   0  0  0  0  0  2  0  0  0  0  0  0
  190.4320  177.1400  141.9310 C   0  0  2  0  0  3  0  0  0  0  0  0
  188.9470  176.3990  143.6130 C   0  0  2  0  0  3  0  0  0  0  0  0
  188.1400  177.1680  142.5600 C   0  0  1  0  0  3  0  0  0  0  0  0
  188.2310  176.7720  137.3920 C   0  0  0  0  0  2  0  0  0  0  0  0
  190.2970  176.8940  139.4360 C   0  0  1  0  0  3  0  0  0  0  0  0
  188.5610  177.8990  138.1740 O   0  0  0  0  0  0  0  0  0  0  0  0
  188.7660  178.5230  140.4900 C   0  0  0  0  0  2  0  0  0  0  0  0
  185.9910  178.4390  142.3070 C   0  0  0  0  0  0  0  0  0  0  0  0
  185.0390  179.0200  143.2260 C   0  0  1  0  0  3  0  0  0  0  0  0
  184.4700  178.6950  145.3880 C   0  0  0  0  0  0  0  0  0  0  0  0
  183.3680  178.7400  144.7030 N   0  0  0  0  0  0  0  0  0  0  0  0
  183.7240  178.8650  143.3150 C   0  0  0  0  0  2  0  0  0  0  0  0
  186.6790  178.1160  144.4800 N   0  0  0  0  0  2  0  0  0  0  0  0
  185.8230  178.2650  140.5710 Cl  0  0  0  0  0  0  0  0  0  0  0  0
  184.5200  178.4730  146.8580 C   0  0  0  0  0  1  0  0  0  0  0  0
  186.9740  177.9600  143.0790 C   0  0  0  0  0  0  0  0  0  0  0  0
  185.6050  178.8350  144.5060 C   0  0  1  0  0  3  0  0  0  0  0  0
  192.8490  175.8770  136.8160 C   0  0  0  0  0  0  0  0  0  0  0  0
  192.2880  174.4570  136.6240 C   0  0  0  0  0  2  0  0  0  0  0  0
  193.3870  174.6560  137.5800 C   0  0  0  0  0  2  0  0  0  0  0  0
  192.8470  176.8160  138.0230 C   0  0  0  0  0  2  0  0  0  0  0  0
  191.5800  176.6730  137.2800 C   0  0  2  0  0  3  0  0  0  0  0  0
  188.9070  177.0360  145.0010 C   0  0  0  0  0  2  0  0  0  0  0  0
  190.3120  177.3610  145.4780 C   0  0  0  0  0  2  0  0  0  0  0  0
  191.7500  176.7910  147.3000 O   0  0  0  0  0  1  0  0  0  0  0  0
  190.4300  177.1040  146.9720 C   0  0  0  0  0  2  0  0  0  0  0  0
  2 13  1  6  0  0  0
  2  7  1  0  0  0  0
  2  9  1  0  0  0  0
  3 13  1  1  0  0  0
  5  1  1  6  0  0  0
  5 11  1  0  0  0  0
  6  8  1  0  0  0  0
  7  4  1  6  0  0  0
  7  6  1  0  0  0  0
  8 29  1  1  0  0  0
  9 22  1  1  0  0  0
  9  8  1  0  0  0  0
 10  1  1  0  0  0  0
 10 12  1  0  0  0  0
 11  3  1  0  0  0  0
 11  4  1  1  0  0  0
 12  3  1  0  0  0  0
 14 22  2  0  0  0  0
 14 15  1  0  0  0  0
 15 18  1  1  0  0  0
 15 23  1  0  0  0  0
 16 21  1  0  0  0  0
 17 16  2  0  0  0  0
 18 17  1  0  0  0  0
 20 14  1  0  0  0  0
 22 19  1  0  0  0  0
 23 19  1  6  0  0  0
 23 16  1  0  0  0  0
 24 28  1  0  0  0  0
 24 26  1  0  0  0  0
 24 27  1  0  0  0  0
 25 24  1  0  0  0  0
 25 26  1  0  0  0  0
 28 27  1  1  0  0  0
 28  5  1  0  0  0  0
 29 30  1  0  0  0  0
 30 32  1  0  0  0  0
 32 31  1  0  0  0  0
M  END
>  <MODEL>
3

>  <REMARK>
 VINA RESULT:      -7.3      2.185      2.868
  Name = 
  5 active torsions:
  status: ('A' for Active; 'I' for Inactive)
    1  A    between atoms: C_5  and  C_25
    2  A    between atoms: C_12  and  C_24
    3  A    between atoms: C_15  and  C_26
    4  A    between atoms: C_16  and  C_31
    5  A    between atoms: C_25  and  C_26
                            x       y       z     vdW  Elec       q    Type
                         _______ _______ _______ _____ _____    ______ ____

>  <TORSDO>
F 5

$$$$
=
 OpenBabel11052416543D

 32 38  0  0  1  0  0  0  0  0999 V2000
  186.7650  178.7010  145.2480 C   0  0  0  0  0  2  0  0  0  0  0  0
  190.1150  176.2080  142.4200 C   0  0  2  0  0  3  0  0  0  0  0  0
  187.9850  176.9860  143.5250 C   0  0  2  0  0  3  0  0  0  0  0  0
  190.1260  177.6950  144.5180 C   0  0  0  0  0  2  0  0  0  0  0  0
  187.9900  177.9920  145.8520 C   0  0  2  0  0  3  0  0  0  0  0  0
  192.0560  177.4620  143.0660 N   0  0  0  0  0  2  0  0  0  0  0  0
  190.9160  176.7340  143.6160 C   0  0  2  0  0  3  0  0  0  0  0  0
  191.7670  177.7420  141.6570 C   0  0  2  0  0  3  0  0  0  0  0  0
  190.3400  177.2580  141.3710 C   0  0  1  0  0  3  0  0  0  0  0  0
  186.0210  177.8780  144.1690 C   0  0  0  0  0  2  0  0  0  0  0  0
  188.7530  177.1310  144.8290 C   0  0  1  0  0  3  0  0  0  0  0  0
  186.6570  176.6660  143.8270 O   0  0  0  0  0  0  0  0  0  0  0  0
  188.6340  175.8940  142.6910 C   0  0  0  0  0  2  0  0  0  0  0  0
  189.3750  177.4380  139.0610 C   0  0  0  0  0  0  0  0  0  0  0  0
  189.4860  176.6590  137.8500 C   0  0  1  0  0  3  0  0  0  0  0  0
  190.9800  175.1940  136.9970 C   0  0  0  0  0  0  0  0  0  0  0  0
  190.6950  176.0430  136.0570 N   0  0  0  0  0  0  0  0  0  0  0  0
  189.8060  177.0270  136.6160 C   0  0  0  0  0  2  0  0  0  0  0  0
  190.7350  175.6140  139.4060 N   0  0  0  0  0  2  0  0  0  0  0  0
  188.6080  179.0030  139.2520 Cl  0  0  0  0  0  0  0  0  0  0  0  0
  191.9480  174.0760  136.8350 C   0  0  0  0  0  1  0  0  0  0  0  0
  190.0830  176.7650  139.9750 C   0  0  0  0  0  0  0  0  0  0  0  0
  190.2650  175.5370  138.2050 C   0  0  1  0  0  3  0  0  0  0  0  0
  188.1370  177.4460  148.4730 C   0  0  0  0  0  0  0  0  0  0  0  0
  188.1730  178.9860  148.4680 C   0  0  0  0  0  2  0  0  0  0  0  0
  189.4290  178.2530  148.6850 C   0  0  0  0  0  2  0  0  0  0  0  0
  188.7620  176.4130  147.5350 C   0  0  0  0  0  2  0  0  0  0  0  0
  187.5640  177.1260  147.0490 C   0  0  2  0  0  3  0  0  0  0  0  0
  192.8280  177.0680  140.7890 C   0  0  0  0  0  2  0  0  0  0  0  0
  193.2150  177.9660  139.6270 C   0  0  0  0  0  2  0  0  0  0  0  0
  194.2890  176.0030  138.7900 O   0  0  0  0  0  1  0  0  0  0  0  0
  193.5550  177.1260  138.4070 C   0  0  0  0  0  2  0  0  0  0  0  0
  2 13  1  1  0  0  0
  2  7  1  0  0  0  0
  3 13  1  6  0  0  0
  3 12  1  0  0  0  0
  3 11  1  0  0  0  0
  5  1  1  6  0  0  0
  5 28  1  0  0  0  0
  6  7  1  0  0  0  0
  7  4  1  6  0  0  0
  8 29  1  6  0  0  0
  8  6  1  0  0  0  0
  9 22  1  6  0  0  0
  9  8  1  0  0  0  0
  9  2  1  0  0  0  0
 10  1  1  0  0  0  0
 11  4  1  6  0  0  0
 11  5  1  0  0  0  0
 12 10  1  0  0  0  0
 14 20  1  0  0  0  0
 14 22  2  0  0  0  0
 15 18  1  6  0  0  0
 15 23  1  0  0  0  0
 15 14  1  0  0  0  0
 17 18  1  0  0  0  0
 17 16  2  0  0  0  0
 19 22  1  0  0  0  0
 21 16  1  0  0  0  0
 23 16  1  6  0  0  0
 23 19  1  0  0  0  0
 24 26  1  0  0  0  0
 25 24  1  0  0  0  0
 25 26  1  0  0  0  0
 27 24  1  0  0  0  0
 28 27  1  6  0  0  0
 28 24  1  0  0  0  0
 30 29  1  0  0  0  0
 32 31  1  0  0  0  0
 32 30  1  0  0  0  0
M  END
>  <MODEL>
4

>  <REMARK>
 VINA RESULT:      -6.5      2.844      8.043
  Name = 
  5 active torsions:
  status: ('A' for Active; 'I' for Inactive)
    1  A    between atoms: C_5  and  C_25
    2  A    between atoms: C_12  and  C_24
    3  A    between atoms: C_15  and  C_26
    4  A    between atoms: C_16  and  C_31
    5  A    between atoms: C_25  and  C_26
                            x       y       z     vdW  Elec       q    Type
                         _______ _______ _______ _____ _____    ______ ____

>  <TORSDO>
F 5

$$$$
=
 OpenBabel11052416543D

 32 38  0  0  1  0  0  0  0  0999 V2000
  180.5880  177.7900  142.5390 C   0  0  0  0  0  2  0  0  0  0  0  0
  185.3840  179.2790  142.9970 C   0  0  2  0  0  3  0  0  0  0  0  0
  182.9150  178.9250  143.3730 C   0  0  2  0  0  3  0  0  0  0  0  0
  183.8300  178.4080  141.1430 C   0  0  0  0  0  2  0  0  0  0  0  0
  181.3180  178.5770  141.4350 C   0  0  2  0  0  3  0  0  0  0  0  0
  186.2420  178.1550  141.0590 N   0  0  0  0  0  2  0  0  0  0  0  0
  185.1790  179.0560  141.4950 C   0  0  2  0  0  3  0  0  0  0  0  0
  186.8080  177.5230  142.2550 C   0  0  2  0  0  3  0  0  0  0  0  0
  185.9740  177.9780  143.4590 C   0  0  1  0  0  3  0  0  0  0  0  0
  180.8280  178.3300  143.9690 C   0  0  0  0  0  2  0  0  0  0  0  0
  182.6970  179.0970  141.8780 C   0  0  1  0  0  3  0  0  0  0  0  0
  181.7730  179.3760  144.0420 O   0  0  0  0  0  0  0  0  0  0  0  0
  184.1410  179.7230  143.7850 C   0  0  0  0  0  2  0  0  0  0  0  0
  186.1180  178.2110  145.9530 C   0  0  0  0  0  0  0  0  0  0  0  0
  187.1920  178.1700  146.9180 C   0  0  1  0  0  3  0  0  0  0  0  0
  189.2750  177.2980  146.9860 C   0  0  0  0  0  0  0  0  0  0  0  0
  188.6830  176.9660  148.0930 N   0  0  0  0  0  0  0  0  0  0  0  0
  187.3290  177.4480  148.0230 C   0  0  0  0  0  2  0  0  0  0  0  0
  188.1330  177.8860  144.8910 N   0  0  0  0  0  2  0  0  0  0  0  0
  184.3960  178.2540  146.2810 Cl  0  0  0  0  0  0  0  0  0  0  0  0
  190.6640  176.8940  146.6390 C   0  0  0  0  0  1  0  0  0  0  0  0
  186.7140  178.0930  144.7610 C   0  0  0  0  0  0  0  0  0  0  0  0
  188.3710  178.0520  146.1500 C   0  0  1  0  0  3  0  0  0  0  0  0
  179.8740  179.7380  139.4960 C   0  0  0  0  0  0  0  0  0  0  0  0
  179.5360  178.2500  139.2930 C   0  0  0  0  0  2  0  0  0  0  0  0
  180.4880  178.8880  138.3720 C   0  0  0  0  0  2  0  0  0  0  0  0
  181.1780  180.4410  139.8770 C   0  0  0  0  0  2  0  0  0  0  0  0
  180.4460  179.7500  140.9560 C   0  0  2  0  0  3  0  0  0  0  0  0
  188.2870  177.8910  142.3580 C   0  0  0  0  0  2  0  0  0  0  0  0
  189.0630  177.3100  141.1890 C   0  0  0  0  0  2  0  0  0  0  0  0
  190.1790  175.6290  142.4700 O   0  0  0  0  0  1  0  0  0  0  0  0
  190.3930  176.7520  141.6700 C   0  0  0  0  0  2  0  0  0  0  0  0
  1 10  1  0  0  0  0
  2  9  1  0  0  0  0
  2 13  1  1  0  0  0
  3 13  1  1  0  0  0
  3 12  1  0  0  0  0
  5 11  1  0  0  0  0
  5  1  1  1  0  0  0
  6  7  1  0  0  0  0
  6  8  1  0  0  0  0
  7  4  1  1  0  0  0
  7  2  1  0  0  0  0
  8 29  1  1  0  0  0
  8  9  1  0  0  0  0
  9 22  1  1  0  0  0
 10 12  1  0  0  0  0
 11  4  1  6  0  0  0
 11  3  1  0  0  0  0
 14 20  1  0  0  0  0
 14 15  1  0  0  0  0
 15 18  1  1  0  0  0
 16 17  2  0  0  0  0
 18 17  1  0  0  0  0
 21 16  1  0  0  0  0
 22 19  1  0  0  0  0
 22 14  2  0  0  0  0
 23 19  1  6  0  0  0
 23 15  1  0  0  0  0
 23 16  1  0  0  0  0
 24 27  1  0  0  0  0
 24 28  1  0  0  0  0
 25 24  1  0  0  0  0
 26 25  1  0  0  0  0
 26 24  1  0  0  0  0
 28 27  1  6  0  0  0
 28  5  1  0  0  0  0
 30 32  1  0  0  0  0
 30 29  1  0  0  0  0
 32 31  1  0  0  0  0
M  END
>  <MODEL>
5

>  <REMARK>
 VINA RESULT:      -6.4      3.497      5.483
  Name = 
  5 active torsions:
  status: ('A' for Active; 'I' for Inactive)
    1  A    between atoms: C_5  and  C_25
    2  A    between atoms: C_12  and  C_24
    3  A    between atoms: C_15  and  C_26
    4  A    between atoms: C_16  and  C_31
    5  A    between atoms: C_25  and  C_26
                            x       y       z     vdW  Elec       q    Type
                         _______ _______ _______ _____ _____    ______ ____

>  <TORSDO>
F 5

$$$$
=
 OpenBabel11052416543D

 32 38  0  0  1  0  0  0  0  0999 V2000
  190.3820  174.8880  135.9270 C   0  0  0  0  0  2  0  0  0  0  0  0
  189.6420  178.0920  139.7490 C   0  0  2  0  0  3  0  0  0  0  0  0
  189.6520  177.0020  137.4750 C   0  0  2  0  0  3  0  0  0  0  0  0
  191.2330  176.1580  139.1680 C   0  0  0  0  0  2  0  0  0  0  0  0
  191.5440  175.4800  136.7450 C   0  0  2  0  0  3  0  0  0  0  0  0
  190.7230  176.7940  141.4530 N   0  0  0  0  0  2  0  0  0  0  0  0
  190.9220  177.3320  140.1110 C   0  0  2  0  0  3  0  0  0  0  0  0
  189.2860  176.8410  141.7420 C   0  0  2  0  0  3  0  0  0  0  0  0
  188.5740  177.3260  140.4740 C   0  0  1  0  0  3  0  0  0  0  0  0
  189.2900  175.9130  135.5390 C   0  0  0  0  0  2  0  0  0  0  0  0
  191.0930  176.5830  137.7190 C   0  0  1  0  0  3  0  0  0  0  0  0
  189.4730  177.1940  136.1020 O   0  0  0  0  0  0  0  0  0  0  0  0
  189.3750  178.2800  138.2470 C   0  0  0  0  0  2  0  0  0  0  0  0
  186.3600  178.2770  139.7720 C   0  0  0  0  0  0  0  0  0  0  0  0
  185.3070  179.0030  140.4420 C   0  0  1  0  0  3  0  0  0  0  0  0
  184.6130  179.2440  142.5790 C   0  0  0  0  0  0  0  0  0  0  0  0
  183.5600  178.9960  141.8590 N   0  0  0  0  0  0  0  0  0  0  0  0
  184.0030  178.7610  140.5100 C   0  0  0  0  0  2  0  0  0  0  0  0
  186.9160  178.6360  141.9760 N   0  0  0  0  0  2  0  0  0  0  0  0
  186.3270  177.6120  138.1500 Cl  0  0  0  0  0  0  0  0  0  0  0  0
  184.5760  179.4460  144.0520 C   0  0  0  0  0  1  0  0  0  0  0  0
  187.3190  178.1230  140.6920 C   0  0  0  0  0  0  0  0  0  0  0  0
  185.7930  179.2340  141.7480 C   0  0  1  0  0  3  0  0  0  0  0  0
  194.0960  175.4840  135.9230 C   0  0  0  0  0  0  0  0  0  0  0  0
  193.8660  173.9930  136.2310 C   0  0  0  0  0  2  0  0  0  0  0  0
  194.6260  174.8010  137.1950 C   0  0  0  0  0  2  0  0  0  0  0  0
  193.6150  176.7520  136.6290 C   0  0  0  0  0  2  0  0  0  0  0  0
  192.6300  176.0260  135.8030 C   0  0  2  0  0  3  0  0  0  0  0  0
  189.0540  177.7380  142.9570 C   0  0  0  0  0  2  0  0  0  0  0  0
  189.2350  176.9490  144.2430 C   0  0  0  0  0  2  0  0  0  0  0  0
  187.8950  177.7490  146.0520 O   0  0  0  0  0  1  0  0  0  0  0  0
  189.1440  177.8780  145.4430 C   0  0  0  0  0  2  0  0  0  0  0  0
  2 13  1  6  0  0  0
  2  7  1  0  0  0  0
  2  9  1  0  0  0  0
  3 11  1  0  0  0  0
  3 13  1  1  0  0  0
  5  1  1  6  0  0  0
  5 11  1  0  0  0  0
  6  8  1  0  0  0  0
  7  4  1  6  0  0  0
  7  6  1  0  0  0  0
  8 29  1  1  0  0  0
  9 22  1  1  0  0  0
  9  8  1  0  0  0  0
 10  1  1  0  0  0  0
 10 12  1  0  0  0  0
 11  4  1  1  0  0  0
 12  3  1  0  0  0  0
 14 15  1  0  0  0  0
 14 22  2  0  0  0  0
 15 18  1  1  0  0  0
 15 23  1  0  0  0  0
 16 21  1  0  0  0  0
 17 16  2  0  0  0  0
 18 17  1  0  0  0  0
 20 14  1  0  0  0  0
 22 19  1  0  0  0  0
 23 19  1  1  0  0  0
 23 16  1  0  0  0  0
 24 25  1  0  0  0  0
 24 27  1  0  0  0  0
 24 26  1  0  0  0  0
 25 26  1  0  0  0  0
 28 24  1  0  0  0  0
 28 27  1  1  0  0  0
 28  5  1  0  0  0  0
 29 30  1  0  0  0  0
 30 32  1  0  0  0  0
 32 31  1  0  0  0  0
M  END
>  <MODEL>
6

>  <REMARK>
 VINA RESULT:      -6.3      2.809      4.234
  Name = 
  5 active torsions:
  status: ('A' for Active; 'I' for Inactive)
    1  A    between atoms: C_5  and  C_25
    2  A    between atoms: C_12  and  C_24
    3  A    between atoms: C_15  and  C_26
    4  A    between atoms: C_16  and  C_31
    5  A    between atoms: C_25  and  C_26
                            x       y       z     vdW  Elec       q    Type
                         _______ _______ _______ _____ _____    ______ ____

>  <TORSDO>
F 5

$$$$
=
 OpenBabel11052416543D

 32 38  0  0  1  0  0  0  0  0999 V2000
  186.2930  179.3780  146.0910 C   0  0  0  0  0  2  0  0  0  0  0  0
  188.7740  176.8330  142.5140 C   0  0  2  0  0  3  0  0  0  0  0  0
  186.9790  177.7190  144.0480 C   0  0  2  0  0  3  0  0  0  0  0  0
  189.3290  178.1000  144.6810 C   0  0  0  0  0  2  0  0  0  0  0  0
  187.5100  178.4890  146.4040 C   0  0  2  0  0  3  0  0  0  0  0  0
  190.9350  177.8080  142.8860 N   0  0  0  0  0  2  0  0  0  0  0  0
  189.8290  177.1530  143.5780 C   0  0  2  0  0  3  0  0  0  0  0  0
  190.4410  178.2520  141.5790 C   0  0  2  0  0  3  0  0  0  0  0  0
  188.9380  177.9500  141.5240 C   0  0  1  0  0  3  0  0  0  0  0  0
  185.2790  178.7450  145.1090 C   0  0  0  0  0  2  0  0  0  0  0  0
  187.9740  177.6560  145.1950 C   0  0  1  0  0  3  0  0  0  0  0  0
  185.6950  177.5120  144.5630 O   0  0  0  0  0  0  0  0  0  0  0  0
  187.3370  176.6510  143.0280 C   0  0  0  0  0  2  0  0  0  0  0  0
  187.1860  178.0270  139.7290 C   0  0  0  0  0  0  0  0  0  0  0  0
  187.1210  177.5940  138.3530 C   0  0  1  0  0  3  0  0  0  0  0  0
  188.6210  177.1480  136.7230 C   0  0  0  0  0  0  0  0  0  0  0  0
  187.7020  177.9060  136.2040 N   0  0  0  0  0  0  0  0  0  0  0  0
  186.7870  178.2600  137.2550 C   0  0  0  0  0  2  0  0  0  0  0  0
  189.1610  177.0160  139.1170 N   0  0  0  0  0  2  0  0  0  0  0  0
  186.0130  179.0020  140.5930 Cl  0  0  0  0  0  0  0  0  0  0  0  0
  189.8040  176.6510  135.9700 C   0  0  0  0  0  1  0  0  0  0  0  0
  188.3850  177.6240  140.1660 C   0  0  0  0  0  0  0  0  0  0  0  0
  188.3420  176.9220  138.1220 C   0  0  1  0  0  3  0  0  0  0  0  0
  188.3050  177.2890  148.6660 C   0  0  0  0  0  0  0  0  0  0  0  0
  188.9890  178.6630  148.7810 C   0  0  0  0  0  2  0  0  0  0  0  0
  189.8020  177.5030  148.3890 C   0  0  0  0  0  2  0  0  0  0  0  0
  188.0640  176.3710  147.4660 C   0  0  0  0  0  2  0  0  0  0  0  0
  187.1980  177.5600  147.5890 C   0  0  2  0  0  3  0  0  0  0  0  0
  191.2460  177.5580  140.4820 C   0  0  0  0  0  2  0  0  0  0  0  0
  192.7170  177.5030  140.8550 C   0  0  0  0  0  2  0  0  0  0  0  0
  194.6810  176.3980  140.0600 O   0  0  0  0  0  1  0  0  0  0  0  0
  193.5490  177.1010  139.6470 C   0  0  0  0  0  2  0  0  0  0  0  0
  2 13  1  1  0  0  0
  2  7  1  0  0  0  0
  3 13  1  6  0  0  0
  3 12  1  0  0  0  0
  3 11  1  0  0  0  0
  5  1  1  6  0  0  0
  5 28  1  0  0  0  0
  6  7  1  0  0  0  0
  7  4  1  1  0  0  0
  8 29  1  6  0  0  0
  8  6  1  0  0  0  0
  9 22  1  6  0  0  0
  9  8  1  0  0  0  0
  9  2  1  0  0  0  0
 10  1  1  0  0  0  0
 11  4  1  6  0  0  0
 11  5  1  0  0  0  0
 12 10  1  0  0  0  0
 14 22  2  0  0  0  0
 14 20  1  0  0  0  0
 15 18  1  6  0  0  0
 15 14  1  0  0  0  0
 17 16  2  0  0  0  0
 17 18  1  0  0  0  0
 19 22  1  0  0  0  0
 21 16  1  0  0  0  0
 23 16  1  6  0  0  0
 23 15  1  0  0  0  0
 23 19  1  0  0  0  0
 24 25  1  0  0  0  0
 26 24  1  0  0  0  0
 26 25  1  0  0  0  0
 27 24  1  0  0  0  0
 28 27  1  6  0  0  0
 28 24  1  0  0  0  0
 29 30  1  0  0  0  0
 32 31  1  0  0  0  0
 32 30  1  0  0  0  0
M  END
>  <MODEL>
7

>  <REMARK>
 VINA RESULT:      -6.3      2.402      7.709
  Name = 
  5 active torsions:
  status: ('A' for Active; 'I' for Inactive)
    1  A    between atoms: C_5  and  C_25
    2  A    between atoms: C_12  and  C_24
    3  A    between atoms: C_15  and  C_26
    4  A    between atoms: C_16  and  C_31
    5  A    between atoms: C_25  and  C_26
                            x       y       z     vdW  Elec       q    Type
                         _______ _______ _______ _____ _____    ______ ____

>  <TORSDO>
F 5

$$$$
=
 OpenBabel11052416543D

 32 38  0  0  1  0  0  0  0  0999 V2000
  190.6200  175.7600  146.5390 C   0  0  0  0  0  2  0  0  0  0  0  0
  188.5290  178.6950  143.0110 C   0  0  2  0  0  3  0  0  0  0  0  0
  190.1790  177.5410  144.5320 C   0  0  2  0  0  3  0  0  0  0  0  0
  187.7930  177.4650  145.1470 C   0  0  0  0  0  2  0  0  0  0  0  0
  189.5310  176.7970  146.8670 C   0  0  2  0  0  3  0  0  0  0  0  0
  186.2550  178.0110  143.3520 N   0  0  0  0  0  2  0  0  0  0  0  0
  187.4330  178.4960  144.0640 C   0  0  2  0  0  3  0  0  0  0  0  0
  186.6940  177.5340  142.0370 C   0  0  2  0  0  3  0  0  0  0  0  0
  188.2240  177.6320  141.9960 C   0  0  1  0  0  3  0  0  0  0  0  0
  191.7170  176.2720  145.5750 C   0  0  0  0  0  2  0  0  0  0  0  0
  189.1920  177.7110  145.6760 C   0  0  1  0  0  3  0  0  0  0  0  0
  191.4750  177.5620  145.0570 O   0  0  0  0  0  0  0  0  0  0  0  0
  189.9740  178.6700  143.5360 C   0  0  0  0  0  2  0  0  0  0  0  0
  190.0160  177.4500  140.2500 C   0  0  0  0  0  0  0  0  0  0  0  0
  190.1360  177.8570  138.8690 C   0  0  1  0  0  3  0  0  0  0  0  0
  188.6990  178.3390  137.1920 C   0  0  0  0  0  0  0  0  0  0  0  0
  189.5980  177.5340  136.7100 N   0  0  0  0  0  0  0  0  0  0  0  0
  190.4690  177.1580  137.7910 C   0  0  0  0  0  2  0  0  0  0  0  0
  188.1040  178.5340  139.5690 N   0  0  0  0  0  2  0  0  0  0  0  0
  191.1230  176.4400  141.1590 Cl  0  0  0  0  0  0  0  0  0  0  0  0
  187.5590  178.8730  136.4010 C   0  0  0  0  0  1  0  0  0  0  0  0
  188.8260  177.9120  140.6480 C   0  0  0  0  0  0  0  0  0  0  0  0
  188.9520  178.5760  138.5940 C   0  0  1  0  0  3  0  0  0  0  0  0
  188.8570  178.3080  148.9770 C   0  0  0  0  0  0  0  0  0  0  0  0
  187.7680  177.2200  149.0070 C   0  0  0  0  0  2  0  0  0  0  0  0
  187.4200  178.5510  148.4880 C   0  0  0  0  0  2  0  0  0  0  0  0
  189.5320  179.0380  147.8150 C   0  0  0  0  0  2  0  0  0  0  0  0
  189.9570  177.6480  148.0750 C   0  0  2  0  0  3  0  0  0  0  0  0
  185.9980  178.3550  140.9530 C   0  0  0  0  0  2  0  0  0  0  0  0
  184.5690  178.6720  141.3610 C   0  0  0  0  0  2  0  0  0  0  0  0
  184.6790  179.8640  139.2930 O   0  0  0  0  0  1  0  0  0  0  0  0
  183.8000  179.2380  140.1780 C   0  0  0  0  0  2  0  0  0  0  0  0
  2 13  1  1  0  0  0
  2  7  1  0  0  0  0
  3 13  1  6  0  0  0
  3 12  1  0  0  0  0
  3 11  1  0  0  0  0
  5  1  1  6  0  0  0
  5 28  1  0  0  0  0
  6  7  1  0  0  0  0
  7  4  1  1  0  0  0
  8 29  1  6  0  0  0
  8  6  1  0  0  0  0
  9 22  1  6  0  0  0
  9  8  1  0  0  0  0
  9  2  1  0  0  0  0
 10  1  1  0  0  0  0
 11  4  1  6  0  0  0
 11  5  1  0  0  0  0
 12 10  1  0  0  0  0
 14 22  2  0  0  0  0
 14 20  1  0  0  0  0
 15 18  1  6  0  0  0
 15 14  1  0  0  0  0
 17 16  2  0  0  0  0
 17 18  1  0  0  0  0
 19 22  1  0  0  0  0
 21 16  1  0  0  0  0
 23 16  1  6  0  0  0
 23 15  1  0  0  0  0
 23 19  1  0  0  0  0
 24 25  1  0  0  0  0
 26 24  1  0  0  0  0
 26 25  1  0  0  0  0
 27 24  1  0  0  0  0
 28 27  1  6  0  0  0
 28 24  1  0  0  0  0
 29 30  1  0  0  0  0
 31 32  1  0  0  0  0
 32 30  1  0  0  0  0
M  END
>  <MODEL>
8

>  <REMARK>
 VINA RESULT:      -6.0      2.308      8.458
  Name = 
  5 active torsions:
  status: ('A' for Active; 'I' for Inactive)
    1  A    between atoms: C_5  and  C_25
    2  A    between atoms: C_12  and  C_24
    3  A    between atoms: C_15  and  C_26
    4  A    between atoms: C_16  and  C_31
    5  A    between atoms: C_25  and  C_26
                            x       y       z     vdW  Elec       q    Type
                         _______ _______ _______ _____ _____    ______ ____

>  <TORSDO>
F 5

$$$$
=
 OpenBabel11052416543D

 32 38  0  0  1  0  0  0  0  0999 V2000
  188.4230  178.9530  147.7320 C   0  0  0  0  0  2  0  0  0  0  0  0
  187.0390  177.1470  143.2320 C   0  0  2  0  0  3  0  0  0  0  0  0
  187.1430  177.6860  145.6940 C   0  0  2  0  0  3  0  0  0  0  0  0
  189.1700  178.0630  144.3420 C   0  0  0  0  0  2  0  0  0  0  0  0
  189.3540  178.0810  146.8710 C   0  0  2  0  0  3  0  0  0  0  0  0
  188.8020  178.1430  141.9450 N   0  0  0  0  0  2  0  0  0  0  0  0
  188.5570  177.3340  143.1350 C   0  0  2  0  0  3  0  0  0  0  0  0
  187.5340  178.7730  141.5670 C   0  0  2  0  0  3  0  0  0  0  0  0
  186.5000  178.4180  142.6420 C   0  0  1  0  0  3  0  0  0  0  0  0
  186.9630  178.4460  147.8050 C   0  0  0  0  0  2  0  0  0  0  0  0
  188.6490  177.4800  145.6410 C   0  0  1  0  0  3  0  0  0  0  0  0
  186.6930  177.3400  146.9720 O   0  0  0  0  0  0  0  0  0  0  0  0
  186.4920  176.8180  144.6300 C   0  0  0  0  0  2  0  0  0  0  0  0
  184.0120  178.5790  142.9240 C   0  0  0  0  0  0  0  0  0  0  0  0
  182.8770  178.4370  142.0410 C   0  0  1  0  0  3  0  0  0  0  0  0
  182.5290  178.5900  139.8140 C   0  0  0  0  0  0  0  0  0  0  0  0
  181.5950  179.2790  140.3980 N   0  0  0  0  0  0  0  0  0  0  0  0
  181.8570  179.2530  141.8120 C   0  0  0  0  0  2  0  0  0  0  0  0
  184.7160  178.0530  140.7970 N   0  0  0  0  0  2  0  0  0  0  0  0
  184.0040  179.1500  144.5810 Cl  0  0  0  0  0  0  0  0  0  0  0  0
  182.6590  178.4590  138.3380 C   0  0  0  0  0  1  0  0  0  0  0  0
  185.0790  178.2950  142.1690 C   0  0  0  0  0  0  0  0  0  0  0  0
  183.4240  178.0360  140.8030 C   0  0  1  0  0  3  0  0  0  0  0  0
  191.2510  176.2170  147.2140 C   0  0  0  0  0  0  0  0  0  0  0  0
  192.0480  177.3640  146.5660 C   0  0  0  0  0  2  0  0  0  0  0  0
  191.6730  176.2100  145.7350 C   0  0  0  0  0  2  0  0  0  0  0  0
  189.8340  175.6970  146.9640 C   0  0  0  0  0  2  0  0  0  0  0  0
  189.9650  176.9570  147.7230 C   0  0  2  0  0  3  0  0  0  0  0  0
  187.1460  178.3060  140.1650 C   0  0  0  0  0  2  0  0  0  0  0  0
  188.3700  177.8190  139.4090 C   0  0  0  0  0  2  0  0  0  0  0  0
  188.9720  179.5620  137.8890 O   0  0  0  0  0  1  0  0  0  0  0  0
  188.3340  178.3240  137.9750 C   0  0  0  0  0  2  0  0  0  0  0  0
  1 10  1  0  0  0  0
  2 13  1  1  0  0  0
  3 13  1  6  0  0  0
  3 12  1  0  0  0  0
  5 28  1  0  0  0  0
  5  1  1  1  0  0  0
  6  7  1  0  0  0  0
  7  2  1  0  0  0  0
  7  4  1  1  0  0  0
  8 29  1  6  0  0  0
  8  6  1  0  0  0  0
  8  9  1  0  0  0  0
  9 22  1  6  0  0  0
  9  2  1  0  0  0  0
 11  4  1  6  0  0  0
 11  3  1  0  0  0  0
 11  5  1  0  0  0  0
 12 10  1  0  0  0  0
 14 20  1  0  0  0  0
 15 18  1  6  0  0  0
 15 14  1  0  0  0  0
 16 17  2  0  0  0  0
 17 18  1  0  0  0  0
 19 23  1  0  0  0  0
 19 22  1  0  0  0  0
 21 16  1  0  0  0  0
 22 14  2  0  0  0  0
 23 16  1  6  0  0  0
 23 15  1  0  0  0  0
 24 28  1  0  0  0  0
 25 24  1  0  0  0  0
 26 25  1  0  0  0  0
 26 24  1  0  0  0  0
 27 24  1  0  0  0  0
 28 27  1  6  0  0  0
 30 29  1  0  0  0  0
 31 32  1  0  0  0  0
 32 30  1  0  0  0  0
M  END
>  <MODEL>
9

>  <REMARK>
 VINA RESULT:      -5.9      2.942      7.317
  Name = 
  5 active torsions:
  status: ('A' for Active; 'I' for Inactive)
    1  A    between atoms: C_5  and  C_25
    2  A    between atoms: C_12  and  C_24
    3  A    between atoms: C_15  and  C_26
    4  A    between atoms: C_16  and  C_31
    5  A    between atoms: C_25  and  C_26
                            x       y       z     vdW  Elec       q    Type
                         _______ _______ _______ _____ _____    ______ ____

>  <TORSDO>
F 5

$$$$
