=
 OpenBabel11052412533D

 25 28  0  0  1  0  0  0  0  0999 V2000
  187.2630  178.1770  145.6100 C   0  0  0  0  0  0  0  0  0  0  0  0
  188.5630  177.6960  145.4170 C   0  0  0  0  0  0  0  0  0  0  0  0
  187.3360  177.7350  147.9790 C   0  0  0  0  0  3  0  0  0  0  0  0
  186.3200  178.8140  144.6500 C   0  0  2  0  0  3  0  0  0  0  0  0
  189.9190  176.5630  143.7380 N   0  0  0  0  0  0  0  0  0  0  0  0
  183.5700  178.7200  143.7980 C   0  0  0  0  0  3  0  0  0  0  0  0
  188.6360  177.2330  147.8200 C   0  0  0  0  0  3  0  0  0  0  0  0
  185.1520  179.0540  145.5700 C   0  0  0  0  0  0  0  0  0  0  0  0
  183.8100  179.2360  145.0110 C   0  0  0  0  0  3  0  0  0  0  0  0
  190.6600  176.5940  146.4670 C   0  0  2  0  0  3  0  0  0  0  0  0
  191.2950  176.5910  147.7100 O   0  0  0  0  0  1  0  0  0  0  0  0
  189.1600  177.7740  144.0390 C   0  0  0  0  0  2  0  0  0  0  0  0
  184.6180  177.9480  143.0760 C   0  0  0  0  0  3  0  0  0  0  0  0
  186.6820  178.2180  146.8530 C   0  0  0  0  0  0  0  0  0  0  0  0
  185.3590  178.7260  146.8070 N   0  0  0  0  0  0  0  0  0  0  0  0
  191.5620  177.2970  145.4610 C   0  0  0  0  0  2  0  0  0  0  0  0
  185.8920  177.9340  143.5020 C   0  0  0  0  0  3  0  0  0  0  0  0
  191.3390  176.7700  144.0410 C   0  0  0  0  0  2  0  0  0  0  0  0
  189.2800  177.2250  146.5600 C   0  0  0  0  0  0  0  0  0  0  0  0
  189.7620  176.2080  142.3240 C   0  0  0  0  0  2  0  0  0  0  0  0
  188.6630  177.7410  140.6760 C   0  0  0  0  0  1  0  0  0  0  0  0
  189.9690  177.3840  141.3620 C   0  0  2  0  0  3  0  0  0  0  0  0
  191.0000  177.0350  140.3420 C   0  0  0  0  0  0  0  0  0  0  0  0
  192.1200  177.6050  140.3680 O   0  0  0  0  0  1  0  0  0  0  0  0
  190.7330  176.0830  139.3660 O   0  0  0  0  0  0  0  0  0  0  0  0
  1 14  1  0  0  0  0
  2  1  2  0  0  0  0
  2 19  1  0  0  0  0
  4 17  1  6  0  0  0
  4  8  1  0  0  0  0
  4  1  1  0  0  0  0
  5 12  1  0  0  0  0
  5 18  1  0  0  0  0
  6  9  2  0  0  0  0
  7  3  1  0  0  0  0
  8 15  2  0  0  0  0
  9  8  1  0  0  0  0
 10 19  1  0  0  0  0
 10 11  1  1  0  0  0
 12  2  1  0  0  0  0
 13 17  2  0  0  0  0
 13  6  1  0  0  0  0
 14  3  2  0  0  0  0
 15 14  1  0  0  0  0
 16 10  1  0  0  0  0
 18 16  1  0  0  0  0
 19  7  2  0  0  0  0
 20  5  1  0  0  0  0
 22 21  1  6  0  0  0
 22 20  1  0  0  0  0
 23 24  1  0  0  0  0
 23 22  1  0  0  0  0
 25 23  2  0  0  0  0
M  END
>  <MODEL>
1

>  <REMARK>
 VINA RESULT:     -10.2      0.000      0.000
  Name = 
  3 active torsions:
  status: ('A' for Active; 'I' for Inactive)
    1  A    between atoms: C_2  and  C_25
    2  A    between atoms: N_6  and  C_15
    3  A    between atoms: C_15  and  C_25
                            x       y       z     vdW  Elec       q    Type
                         _______ _______ _______ _____ _____    ______ ____

>  <TORSDO>
F 3

$$$$
=
 OpenBabel11052412533D

 25 28  0  0  1  0  0  0  0  0999 V2000
  187.4220  177.6510  145.3100 C   0  0  0  0  0  0  0  0  0  0  0  0
  186.6270  178.0310  144.2230 C   0  0  0  0  0  0  0  0  0  0  0  0
  185.8210  178.4810  146.9100 C   0  0  0  0  0  3  0  0  0  0  0  0
  188.7110  176.9070  145.3460 C   0  0  2  0  0  3  0  0  0  0  0  0
  186.8330  178.8020  141.9200 N   0  0  0  0  0  0  0  0  0  0  0  0
  191.3230  176.9860  146.5580 C   0  0  0  0  0  3  0  0  0  0  0  0
  185.0040  178.8880  145.8450 C   0  0  0  0  0  3  0  0  0  0  0  0
  188.9420  176.8800  146.8340 C   0  0  0  0  0  0  0  0  0  0  0  0
  190.2950  176.6700  147.3570 C   0  0  0  0  0  3  0  0  0  0  0  0
  184.4600  179.1940  143.4060 C   0  0  2  0  0  3  0  0  0  0  0  0
  183.1590  179.3770  143.8810 O   0  0  0  0  0  1  0  0  0  0  0  0
  187.0990  177.6960  142.8360 C   0  0  0  0  0  2  0  0  0  0  0  0
  191.0900  177.5750  145.2120 C   0  0  0  0  0  3  0  0  0  0  0  0
  187.0190  177.8470  146.6070 C   0  0  0  0  0  0  0  0  0  0  0  0
  187.9880  177.4010  147.5400 N   0  0  0  0  0  0  0  0  0  0  0  0
  184.4090  178.2910  142.1810 C   0  0  0  0  0  2  0  0  0  0  0  0
  189.8630  177.6010  144.6640 C   0  0  0  0  0  3  0  0  0  0  0  0
  185.5640  178.5820  141.2200 C   0  0  0  0  0  2  0  0  0  0  0  0
  185.3690  178.6540  144.4980 C   0  0  0  0  0  0  0  0  0  0  0  0
  187.9220  178.9210  140.9440 C   0  0  0  0  0  2  0  0  0  0  0  0
  189.8870  177.3730  140.8280 C   0  0  0  0  0  1  0  0  0  0  0  0
  188.4380  177.5740  140.4230 C   0  0  2  0  0  3  0  0  0  0  0  0
  188.3140  177.5200  138.9380 C   0  0  0  0  0  0  0  0  0  0  0  0
  188.7640  176.5270  138.3110 O   0  0  0  0  0  1  0  0  0  0  0  0
  187.7020  178.5560  138.2420 O   0  0  0  0  0  0  0  0  0  0  0  0
  1  4  1  0  0  0  0
  1 14  1  0  0  0  0
  2 19  1  0  0  0  0
  2  1  2  0  0  0  0
  4 17  1  6  0  0  0
  4  8  1  0  0  0  0
  5 12  1  0  0  0  0
  6  9  2  0  0  0  0
  7  3  1  0  0  0  0
  8  9  1  0  0  0  0
  8 15  2  0  0  0  0
 10 11  1  1  0  0  0
 10 19  1  0  0  0  0
 12  2  1  0  0  0  0
 13  6  1  0  0  0  0
 14  3  2  0  0  0  0
 14 15  1  0  0  0  0
 16 10  1  0  0  0  0
 17 13  2  0  0  0  0
 18  5  1  0  0  0  0
 18 16  1  0  0  0  0
 19  7  2  0  0  0  0
 20  5  1  0  0  0  0
 22 21  1  6  0  0  0
 22 20  1  0  0  0  0
 23 22  1  0  0  0  0
 24 23  1  0  0  0  0
 25 23  2  0  0  0  0
M  END
>  <MODEL>
2

>  <REMARK>
 VINA RESULT:      -9.9      2.523      4.957
  Name = 
  3 active torsions:
  status: ('A' for Active; 'I' for Inactive)
    1  A    between atoms: C_2  and  C_25
    2  A    between atoms: N_6  and  C_15
    3  A    between atoms: C_15  and  C_25
                            x       y       z     vdW  Elec       q    Type
                         _______ _______ _______ _____ _____    ______ ____

>  <TORSDO>
F 3

$$$$
=
 OpenBabel11052412533D

 25 28  0  0  1  0  0  0  0  0999 V2000
  186.7850  177.9240  143.2450 C   0  0  0  0  0  0  0  0  0  0  0  0
  187.6950  177.7370  142.1980 C   0  0  0  0  0  0  0  0  0  0  0  0
  185.2600  179.1590  141.8430 C   0  0  0  0  0  3  0  0  0  0  0  0
  186.8020  177.4030  144.6400 C   0  0  2  0  0  3  0  0  0  0  0  0
  190.0890  177.5140  141.8050 N   0  0  0  0  0  0  0  0  0  0  0  0
  186.4140  178.2530  147.3640 C   0  0  0  0  0  3  0  0  0  0  0  0
  186.1550  179.0030  140.7750 C   0  0  0  0  0  3  0  0  0  0  0  0
  185.5230  178.0130  145.1500 C   0  0  0  0  0  0  0  0  0  0  0  0
  185.3220  178.1840  146.5910 C   0  0  0  0  0  3  0  0  0  0  0  0
  188.3070  178.2220  139.7270 C   0  0  2  0  0  3  0  0  0  0  0  0
  187.6210  178.4420  138.5310 O   0  0  0  0  0  1  0  0  0  0  0  0
  188.9260  176.9160  142.4550 C   0  0  0  0  0  2  0  0  0  0  0  0
  187.7760  178.2100  146.7670 C   0  0  0  0  0  3  0  0  0  0  0  0
  185.5980  178.5890  143.0640 C   0  0  0  0  0  0  0  0  0  0  0  0
  184.8450  178.6720  144.2630 N   0  0  0  0  0  0  0  0  0  0  0  0
  189.0500  176.8960  139.6260 C   0  0  0  0  0  2  0  0  0  0  0  0
  187.9630  177.8760  145.4790 C   0  0  0  0  0  3  0  0  0  0  0  0
  190.3100  176.8910  140.4950 C   0  0  0  0  0  2  0  0  0  0  0  0
  187.3630  178.2780  140.9170 C   0  0  0  0  0  0  0  0  0  0  0  0
  191.2810  177.3390  142.6420 C   0  0  0  0  0  2  0  0  0  0  0  0
  191.7250  179.1220  144.3430 C   0  0  0  0  0  1  0  0  0  0  0  0
  191.0830  177.7680  144.1010 C   0  0  2  0  0  3  0  0  0  0  0  0
  191.6770  176.7530  145.0170 C   0  0  0  0  0  0  0  0  0  0  0  0
  191.8350  177.0280  146.2340 O   0  0  0  0  0  1  0  0  0  0  0  0
  192.0550  175.5040  144.5380 O   0  0  0  0  0  0  0  0  0  0  0  0
  1  4  1  0  0  0  0
  2 12  1  0  0  0  0
  2  1  2  0  0  0  0
  3 14  2  0  0  0  0
  4  8  1  0  0  0  0
  4 17  1  1  0  0  0
  5 12  1  0  0  0  0
  5 20  1  0  0  0  0
  7 19  2  0  0  0  0
  7  3  1  0  0  0  0
  8  9  1  0  0  0  0
  9  6  2  0  0  0  0
 10 11  1  6  0  0  0
 10 19  1  0  0  0  0
 13  6  1  0  0  0  0
 14  1  1  0  0  0  0
 14 15  1  0  0  0  0
 15  8  2  0  0  0  0
 16 10  1  0  0  0  0
 16 18  1  0  0  0  0
 17 13  2  0  0  0  0
 18  5  1  0  0  0  0
 19  2  1  0  0  0  0
 20 22  1  0  0  0  0
 22 21  1  6  0  0  0
 22 23  1  0  0  0  0
 23 24  1  0  0  0  0
 25 23  2  0  0  0  0
M  END
>  <MODEL>
3

>  <REMARK>
 VINA RESULT:      -9.6      1.865      4.824
  Name = 
  3 active torsions:
  status: ('A' for Active; 'I' for Inactive)
    1  A    between atoms: C_2  and  C_25
    2  A    between atoms: N_6  and  C_15
    3  A    between atoms: C_15  and  C_25
                            x       y       z     vdW  Elec       q    Type
                         _______ _______ _______ _____ _____    ______ ____

>  <TORSDO>
F 3

$$$$
=
 OpenBabel11052412533D

 25 28  0  0  1  0  0  0  0  0999 V2000
  185.8810  178.5030  144.7150 C   0  0  0  0  0  0  0  0  0  0  0  0
  187.2090  178.0710  144.8050 C   0  0  0  0  0  0  0  0  0  0  0  0
  185.5140  178.2190  147.0810 C   0  0  0  0  0  3  0  0  0  0  0  0
  185.1170  179.0320  143.5510 C   0  0  2  0  0  3  0  0  0  0  0  0
  188.8960  176.8950  143.4990 N   0  0  0  0  0  0  0  0  0  0  0  0
  182.5850  178.7550  142.2060 C   0  0  0  0  0  3  0  0  0  0  0  0
  186.8360  177.7690  147.2070 C   0  0  0  0  0  3  0  0  0  0  0  0
  183.7880  179.2770  144.2150 C   0  0  0  0  0  0  0  0  0  0  0  0
  182.5720  179.3590  143.4020 C   0  0  0  0  0  3  0  0  0  0  0  0
  189.1030  177.1380  146.3080 C   0  0  2  0  0  3  0  0  0  0  0  0
  189.4880  177.2450  147.6460 O   0  0  0  0  0  1  0  0  0  0  0  0
  188.0540  178.0860  143.5630 C   0  0  0  0  0  2  0  0  0  0  0  0
  183.7770  177.9870  141.7520 C   0  0  0  0  0  3  0  0  0  0  0  0
  185.0720  178.5980  145.8200 C   0  0  0  0  0  0  0  0  0  0  0  0
  183.7660  179.0400  145.4890 N   0  0  0  0  0  0  0  0  0  0  0  0
  190.1560  177.8150  145.4410 C   0  0  0  0  0  2  0  0  0  0  0  0
  184.9460  178.0600  142.4100 C   0  0  0  0  0  3  0  0  0  0  0  0
  190.2250  177.1870  144.0470 C   0  0  0  0  0  2  0  0  0  0  0  0
  187.7100  177.7090  146.0940 C   0  0  0  0  0  0  0  0  0  0  0  0
  189.0240  176.4420  142.1090 C   0  0  0  0  0  2  0  0  0  0  0  0
  188.4470  177.8930  140.1520 C   0  0  0  0  0  1  0  0  0  0  0  0
  189.5310  177.5230  141.1480 C   0  0  2  0  0  3  0  0  0  0  0  0
  190.7410  177.0380  140.4250 C   0  0  0  0  0  0  0  0  0  0  0  0
  190.6320  176.1130  139.5790 O   0  0  0  0  0  0  0  0  0  0  0  0
  191.9880  177.5990  140.6760 O   0  0  0  0  0  1  0  0  0  0  0  0
  1  2  2  0  0  0  0
  1 14  1  0  0  0  0
  2 19  1  0  0  0  0
  3  7  1  0  0  0  0
  4 17  1  6  0  0  0
  4  8  1  0  0  0  0
  4  1  1  0  0  0  0
  5 12  1  0  0  0  0
  5 18  1  0  0  0  0
  6  9  2  0  0  0  0
  8 15  2  0  0  0  0
  9  8  1  0  0  0  0
 10 11  1  1  0  0  0
 12  2  1  0  0  0  0
 13  6  1  0  0  0  0
 13 17  2  0  0  0  0
 14  3  2  0  0  0  0
 15 14  1  0  0  0  0
 16 10  1  0  0  0  0
 18 16  1  0  0  0  0
 19 10  1  0  0  0  0
 19  7  2  0  0  0  0
 20  5  1  0  0  0  0
 22 21  1  6  0  0  0
 22 20  1  0  0  0  0
 23 25  1  0  0  0  0
 23 22  1  0  0  0  0
 24 23  2  0  0  0  0
M  END
>  <MODEL>
4

>  <REMARK>
 VINA RESULT:      -9.5      1.096      1.649
  Name = 
  3 active torsions:
  status: ('A' for Active; 'I' for Inactive)
    1  A    between atoms: C_2  and  C_25
    2  A    between atoms: N_6  and  C_15
    3  A    between atoms: C_15  and  C_25
                            x       y       z     vdW  Elec       q    Type
                         _______ _______ _______ _____ _____    ______ ____

>  <TORSDO>
F 3

$$$$
=
 OpenBabel11052412533D

 25 28  0  0  1  0  0  0  0  0999 V2000
  186.9130  177.9140  143.0230 C   0  0  0  0  0  0  0  0  0  0  0  0
  188.2730  177.6510  142.8260 C   0  0  0  0  0  0  0  0  0  0  0  0
  186.6090  178.6260  140.7390 C   0  0  0  0  0  3  0  0  0  0  0  0
  186.0510  177.6880  144.2160 C   0  0  2  0  0  3  0  0  0  0  0  0
  190.3890  177.6850  144.0330 N   0  0  0  0  0  0  0  0  0  0  0  0
  184.0680  179.0000  145.8410 C   0  0  0  0  0  3  0  0  0  0  0  0
  187.9710  178.3850  140.5090 C   0  0  0  0  0  3  0  0  0  0  0  0
  184.7420  178.2060  143.6800 C   0  0  0  0  0  0  0  0  0  0  0  0
  183.6920  178.6300  144.6100 C   0  0  0  0  0  3  0  0  0  0  0  0
  190.2960  177.7150  141.2070 C   0  0  2  0  0  3  0  0  0  0  0  0
  190.5050  177.5980  139.8310 O   0  0  0  0  0  1  0  0  0  0  0  0
  189.0650  177.0740  143.9650 C   0  0  0  0  0  2  0  0  0  0  0  0
  185.5050  179.0270  146.2240 C   0  0  0  0  0  3  0  0  0  0  0  0
  186.1060  178.3620  142.0060 C   0  0  0  0  0  0  0  0  0  0  0  0
  184.7730  178.5770  142.4380 N   0  0  0  0  0  0  0  0  0  0  0  0
  190.9190  176.5110  141.9000 C   0  0  0  0  0  2  0  0  0  0  0  0
  186.4470  178.4730  145.4410 C   0  0  0  0  0  3  0  0  0  0  0  0
  191.3660  176.8510  143.3240 C   0  0  0  0  0  2  0  0  0  0  0  0
  188.8170  177.8760  141.5230 C   0  0  0  0  0  0  0  0  0  0  0  0
  190.8000  177.8450  145.4320 C   0  0  0  0  0  2  0  0  0  0  0  0
  189.4720  176.9540  147.3600 C   0  0  0  0  0  1  0  0  0  0  0  0
  190.5130  176.6190  146.3070 C   0  0  2  0  0  3  0  0  0  0  0  0
  191.7690  176.1550  146.9640 C   0  0  0  0  0  0  0  0  0  0  0  0
  192.4310  175.2160  146.4520 O   0  0  0  0  0  0  0  0  0  0  0  0
  192.2150  176.7530  148.1370 O   0  0  0  0  0  1  0  0  0  0  0  0
  1  4  1  0  0  0  0
  2  1  1  0  0  0  0
  2 12  1  0  0  0  0
  3 14  1  0  0  0  0
  4 17  1  1  0  0  0
  5 20  1  0  0  0  0
  6 13  1  0  0  0  0
  7  3  2  0  0  0  0
  7 19  1  0  0  0  0
  8  4  1  0  0  0  0
  8  9  1  0  0  0  0
  9  6  2  0  0  0  0
 10 11  1  6  0  0  0
 10 19  1  0  0  0  0
 10 16  1  0  0  0  0
 12  5  1  0  0  0  0
 14 15  1  0  0  0  0
 14  1  2  0  0  0  0
 15  8  2  0  0  0  0
 16 18  1  0  0  0  0
 17 13  2  0  0  0  0
 18  5  1  0  0  0  0
 19  2  2  0  0  0  0
 20 22  1  0  0  0  0
 22 23  1  0  0  0  0
 22 21  1  1  0  0  0
 23 25  1  0  0  0  0
 24 23  2  0  0  0  0
M  END
>  <MODEL>
5

>  <REMARK>
 VINA RESULT:      -9.4      1.443      4.819
  Name = 
  3 active torsions:
  status: ('A' for Active; 'I' for Inactive)
    1  A    between atoms: C_2  and  C_25
    2  A    between atoms: N_6  and  C_15
    3  A    between atoms: C_15  and  C_25
                            x       y       z     vdW  Elec       q    Type
                         _______ _______ _______ _____ _____    ______ ____

>  <TORSDO>
F 3

$$$$
=
 OpenBabel11052412533D

 25 28  0  0  1  0  0  0  0  0999 V2000
  188.7520  177.2550  143.9190 C   0  0  0  0  0  0  0  0  0  0  0  0
  187.7980  177.6180  144.8760 C   0  0  0  0  0  0  0  0  0  0  0  0
  190.5210  177.1760  145.5550 C   0  0  0  0  0  3  0  0  0  0  0  0
  188.5930  176.9440  142.4710 C   0  0  2  0  0  3  0  0  0  0  0  0
  185.7500  178.9220  145.0900 N   0  0  0  0  0  0  0  0  0  0  0  0
  189.7640  177.5230  139.9030 C   0  0  0  0  0  3  0  0  0  0  0  0
  189.5950  177.5510  146.5380 C   0  0  0  0  0  3  0  0  0  0  0  0
  190.0280  176.6470  142.1210 C   0  0  0  0  0  0  0  0  0  0  0  0
  190.4720  176.7390  140.7280 C   0  0  0  0  0  3  0  0  0  0  0  0
  187.3090  178.2320  147.3460 C   0  0  2  0  0  3  0  0  0  0  0  0
  187.8270  177.9020  148.6000 O   0  0  0  0  0  1  0  0  0  0  0  0
  186.3670  177.7670  144.4420 C   0  0  0  0  0  2  0  0  0  0  0  0
  188.6040  178.3080  140.4060 C   0  0  0  0  0  3  0  0  0  0  0  0
  190.0620  177.0170  144.2540 C   0  0  0  0  0  0  0  0  0  0  0  0
  190.8490  176.6810  143.1240 N   0  0  0  0  0  0  0  0  0  0  0  0
  185.9010  177.6610  147.2330 C   0  0  0  0  0  2  0  0  0  0  0  0
  188.0900  178.0890  141.6280 C   0  0  0  0  0  3  0  0  0  0  0  0
  185.0290  178.4980  146.2950 C   0  0  0  0  0  2  0  0  0  0  0  0
  188.2280  177.7540  146.2320 C   0  0  0  0  0  0  0  0  0  0  0  0
  184.8230  179.5830  144.1650 C   0  0  0  0  0  2  0  0  0  0  0  0
  184.6490  179.0030  141.7350 C   0  0  0  0  0  1  0  0  0  0  0  0
  184.1930  178.6370  143.1360 C   0  0  2  0  0  3  0  0  0  0  0  0
  182.7060  178.7080  143.2200 C   0  0  0  0  0  0  0  0  0  0  0  0
  182.1410  178.6450  144.3430 O   0  0  0  0  0  1  0  0  0  0  0  0
  181.9380  178.8430  142.0700 O   0  0  0  0  0  0  0  0  0  0  0  0
  1 14  2  0  0  0  0
  1  2  1  0  0  0  0
  2 19  2  0  0  0  0
  3  7  2  0  0  0  0
  4 17  1  6  0  0  0
  4  1  1  0  0  0  0
  5 18  1  0  0  0  0
  6 13  1  0  0  0  0
  6  9  2  0  0  0  0
  8  4  1  0  0  0  0
  8 15  2  0  0  0  0
  9  8  1  0  0  0  0
 10 11  1  1  0  0  0
 12  2  1  0  0  0  0
 12  5  1  0  0  0  0
 13 17  2  0  0  0  0
 14  3  1  0  0  0  0
 15 14  1  0  0  0  0
 16 10  1  0  0  0  0
 18 16  1  0  0  0  0
 19  7  1  0  0  0  0
 19 10  1  0  0  0  0
 20  5  1  0  0  0  0
 22 21  1  6  0  0  0
 22 23  1  0  0  0  0
 22 20  1  0  0  0  0
 23 24  1  0  0  0  0
 25 23  2  0  0  0  0
M  END
>  <MODEL>
6

>  <REMARK>
 VINA RESULT:      -9.3      3.046      5.779
  Name = 
  3 active torsions:
  status: ('A' for Active; 'I' for Inactive)
    1  A    between atoms: C_2  and  C_25
    2  A    between atoms: N_6  and  C_15
    3  A    between atoms: C_15  and  C_25
                            x       y       z     vdW  Elec       q    Type
                         _______ _______ _______ _____ _____    ______ ____

>  <TORSDO>
F 3

$$$$
=
 OpenBabel11052412533D

 25 28  0  0  1  0  0  0  0  0999 V2000
  187.8110  178.0860  143.3400 C   0  0  0  0  0  0  0  0  0  0  0  0
  187.6140  177.9820  144.7210 C   0  0  0  0  0  0  0  0  0  0  0  0
  185.4540  178.3670  142.9150 C   0  0  0  0  0  3  0  0  0  0  0  0
  189.0710  178.1170  142.5470 C   0  0  2  0  0  3  0  0  0  0  0  0
  188.5620  176.8830  146.6790 N   0  0  0  0  0  0  0  0  0  0  0  0
  190.2810  176.9700  140.1980 C   0  0  0  0  0  3  0  0  0  0  0  0
  185.2170  178.2530  144.2920 C   0  0  0  0  0  3  0  0  0  0  0  0
  188.4920  178.2440  141.1630 C   0  0  0  0  0  0  0  0  0  0  0  0
  189.2920  177.8520  139.9990 C   0  0  0  0  0  3  0  0  0  0  0  0
  185.9230  177.8970  146.6830 C   0  0  2  0  0  3  0  0  0  0  0  0
  184.6640  178.4310  146.9680 O   0  0  0  0  0  1  0  0  0  0  0  0
  188.8180  177.8450  145.6100 C   0  0  0  0  0  2  0  0  0  0  0  0
  190.5170  176.3780  141.5420 C   0  0  0  0  0  3  0  0  0  0  0  0
  186.7690  178.2970  142.4720 C   0  0  0  0  0  0  0  0  0  0  0  0
  187.2010  178.3530  141.1230 N   0  0  0  0  0  0  0  0  0  0  0  0
  186.9440  178.5260  147.6210 C   0  0  0  0  0  2  0  0  0  0  0  0
  189.9070  176.8650  142.6360 C   0  0  0  0  0  3  0  0  0  0  0  0
  188.1180  177.5810  147.8890 C   0  0  0  0  0  2  0  0  0  0  0  0
  186.2770  178.0860  145.2170 C   0  0  0  0  0  0  0  0  0  0  0  0
  189.7790  176.1170  146.9690 C   0  0  0  0  0  2  0  0  0  0  0  0
  191.6810  176.3770  145.3600 C   0  0  0  0  0  1  0  0  0  0  0  0
  191.0770  176.8740  146.6610 C   0  0  2  0  0  3  0  0  0  0  0  0
  192.0510  176.6900  147.7750 C   0  0  0  0  0  0  0  0  0  0  0  0
  192.0600  177.5030  148.7350 O   0  0  0  0  0  1  0  0  0  0  0  0
  192.9480  175.6280  147.7620 O   0  0  0  0  0  0  0  0  0  0  0  0
  1  2  1  0  0  0  0
  2 19  2  0  0  0  0
  2 12  1  0  0  0  0
  3  7  2  0  0  0  0
  4 17  1  6  0  0  0
  4  1  1  0  0  0  0
  5 20  1  0  0  0  0
  5 18  1  0  0  0  0
  6 13  1  0  0  0  0
  7 19  1  0  0  0  0
  8  4  1  0  0  0  0
  9  6  2  0  0  0  0
  9  8  1  0  0  0  0
 10 11  1  6  0  0  0
 10 16  1  0  0  0  0
 12  5  1  0  0  0  0
 13 17  2  0  0  0  0
 14  3  1  0  0  0  0
 14  1  2  0  0  0  0
 15  8  2  0  0  0  0
 15 14  1  0  0  0  0
 16 18  1  0  0  0  0
 19 10  1  0  0  0  0
 22 21  1  6  0  0  0
 22 20  1  0  0  0  0
 22 23  1  0  0  0  0
 23 24  1  0  0  0  0
 25 23  2  0  0  0  0
M  END
>  <MODEL>
7

>  <REMARK>
 VINA RESULT:      -8.6      2.726      5.559
  Name = 
  3 active torsions:
  status: ('A' for Active; 'I' for Inactive)
    1  A    between atoms: C_2  and  C_25
    2  A    between atoms: N_6  and  C_15
    3  A    between atoms: C_15  and  C_25
                            x       y       z     vdW  Elec       q    Type
                         _______ _______ _______ _____ _____    ______ ____

>  <TORSDO>
F 3

$$$$
=
 OpenBabel11052412533D

 25 28  0  0  1  0  0  0  0  0999 V2000
  186.7330  177.9050  143.7960 C   0  0  0  0  0  0  0  0  0  0  0  0
  186.5280  178.1260  142.4300 C   0  0  0  0  0  0  0  0  0  0  0  0
  184.6310  178.9290  144.3860 C   0  0  0  0  0  3  0  0  0  0  0  0
  187.8300  177.1870  144.5020 C   0  0  2  0  0  3  0  0  0  0  0  0
  187.7820  178.5780  140.3890 N   0  0  0  0  0  0  0  0  0  0  0  0
  189.6250  177.4580  146.7380 C   0  0  0  0  0  3  0  0  0  0  0  0
  184.3980  179.1770  143.0260 C   0  0  0  0  0  3  0  0  0  0  0  0
  187.3700  177.3650  145.9250 C   0  0  0  0  0  0  0  0  0  0  0  0
  188.3330  177.2430  147.0220 C   0  0  0  0  0  3  0  0  0  0  0  0
  185.0180  179.1430  140.5850 C   0  0  2  0  0  3  0  0  0  0  0  0
  183.6540  179.3750  140.3980 O   0  0  0  0  0  1  0  0  0  0  0  0
  187.5520  177.6090  141.4580 C   0  0  0  0  0  2  0  0  0  0  0  0
  190.0490  177.8560  145.3690 C   0  0  0  0  0  3  0  0  0  0  0  0
  185.8030  178.2720  144.7370 C   0  0  0  0  0  0  0  0  0  0  0  0
  186.2290  177.9680  146.0550 N   0  0  0  0  0  0  0  0  0  0  0  0
  185.4740  178.0810  139.5940 C   0  0  0  0  0  2  0  0  0  0  0  0
  189.2000  177.7940  144.3290 C   0  0  0  0  0  3  0  0  0  0  0  0
  186.9500  178.2510  139.2260 C   0  0  0  0  0  2  0  0  0  0  0  0
  185.3150  178.7660  142.0280 C   0  0  0  0  0  0  0  0  0  0  0  0
  189.1960  178.5740  140.0010 C   0  0  0  0  0  2  0  0  0  0  0  0
  191.0970  177.3380  141.0630 C   0  0  0  0  0  1  0  0  0  0  0  0
  189.8810  177.2120  140.1630 C   0  0  2  0  0  3  0  0  0  0  0  0
  190.2890  176.6830  138.8300 C   0  0  0  0  0  0  0  0  0  0  0  0
  190.8150  175.5430  138.7460 O   0  0  0  0  0  1  0  0  0  0  0  0
  190.0910  177.4380  137.6800 O   0  0  0  0  0  0  0  0  0  0  0  0
  1  4  1  0  0  0  0
  1 14  1  0  0  0  0
  2  1  2  0  0  0  0
  3 14  2  0  0  0  0
  4 17  1  1  0  0  0
  4  8  1  0  0  0  0
  5 12  1  0  0  0  0
  6  9  2  0  0  0  0
  7  3  1  0  0  0  0
  8 15  2  0  0  0  0
  8  9  1  0  0  0  0
 10 11  1  1  0  0  0
 10 19  1  0  0  0  0
 12  2  1  0  0  0  0
 13  6  1  0  0  0  0
 14 15  1  0  0  0  0
 16 10  1  0  0  0  0
 17 13  2  0  0  0  0
 18 16  1  0  0  0  0
 18  5  1  0  0  0  0
 19  2  1  0  0  0  0
 19  7  2  0  0  0  0
 20 22  1  0  0  0  0
 20  5  1  0  0  0  0
 22 21  1  1  0  0  0
 23 22  1  0  0  0  0
 24 23  1  0  0  0  0
 25 23  2  0  0  0  0
M  END
>  <MODEL>
8

>  <REMARK>
 VINA RESULT:      -8.5      2.406      5.051
  Name = 
  3 active torsions:
  status: ('A' for Active; 'I' for Inactive)
    1  A    between atoms: C_2  and  C_25
    2  A    between atoms: N_6  and  C_15
    3  A    between atoms: C_15  and  C_25
                            x       y       z     vdW  Elec       q    Type
                         _______ _______ _______ _____ _____    ______ ____

>  <TORSDO>
F 3

$$$$
=
 OpenBabel11052412533D

 25 28  0  0  1  0  0  0  0  0999 V2000
  187.1050  178.2590  144.5270 C   0  0  0  0  0  0  0  0  0  0  0  0
  188.3280  177.8940  143.9520 C   0  0  0  0  0  0  0  0  0  0  0  0
  187.7780  177.4850  146.7090 C   0  0  0  0  0  3  0  0  0  0  0  0
  185.9360  178.9660  143.9360 C   0  0  2  0  0  3  0  0  0  0  0  0
  189.2510  177.1030  141.8400 N   0  0  0  0  0  0  0  0  0  0  0  0
  183.0640  178.8210  143.7730 C   0  0  0  0  0  3  0  0  0  0  0  0
  189.0100  177.0950  146.1650 C   0  0  0  0  0  3  0  0  0  0  0  0
  185.0290  178.9960  145.1380 C   0  0  0  0  0  0  0  0  0  0  0  0
  183.5850  179.1710  144.9560 C   0  0  0  0  0  3  0  0  0  0  0  0
  190.6490  176.7880  144.2780 C   0  0  2  0  0  3  0  0  0  0  0  0
  191.5740  176.6460  145.3140 O   0  0  0  0  0  1  0  0  0  0  0  0
  188.5600  178.2070  142.5010 C   0  0  0  0  0  2  0  0  0  0  0  0
  183.9180  178.2290  142.7070 C   0  0  0  0  0  3  0  0  0  0  0  0
  186.8520  178.0830  145.8650 C   0  0  0  0  0  0  0  0  0  0  0  0
  185.5470  178.5070  146.2210 N   0  0  0  0  0  0  0  0  0  0  0  0
  191.2530  177.6850  143.2050 C   0  0  0  0  0  2  0  0  0  0  0  0
  185.2580  178.2350  142.8040 C   0  0  0  0  0  3  0  0  0  0  0  0
  190.6960  177.3540  141.8180 C   0  0  0  0  0  2  0  0  0  0  0  0
  189.3200  177.3090  144.8000 C   0  0  0  0  0  0  0  0  0  0  0  0
  188.7550  176.9460  140.4680 C   0  0  0  0  0  2  0  0  0  0  0  0
  186.7130  178.2650  139.8660 C   0  0  0  0  0  1  0  0  0  0  0  0
  188.2310  178.2460  139.8460 C   0  0  2  0  0  3  0  0  0  0  0  0
  188.7220  178.3750  138.4430 C   0  0  0  0  0  0  0  0  0  0  0  0
  188.8330  177.3480  137.7250 O   0  0  0  0  0  0  0  0  0  0  0  0
  189.0550  179.6200  137.9230 O   0  0  0  0  0  1  0  0  0  0  0  0
  1 14  1  0  0  0  0
  2  1  2  0  0  0  0
  2 19  1  0  0  0  0
  4 17  1  6  0  0  0
  4  1  1  0  0  0  0
  4  8  1  0  0  0  0
  5 12  1  0  0  0  0
  6  9  2  0  0  0  0
  7  3  1  0  0  0  0
  8 15  2  0  0  0  0
  9  8  1  0  0  0  0
 10 19  1  0  0  0  0
 10 11  1  1  0  0  0
 12  2  1  0  0  0  0
 13 17  2  0  0  0  0
 13  6  1  0  0  0  0
 14 15  1  0  0  0  0
 14  3  2  0  0  0  0
 16 10  1  0  0  0  0
 18  5  1  0  0  0  0
 18 16  1  0  0  0  0
 19  7  2  0  0  0  0
 20  5  1  0  0  0  0
 22 21  1  6  0  0  0
 22 20  1  0  0  0  0
 23 22  1  0  0  0  0
 24 23  2  0  0  0  0
 25 23  1  0  0  0  0
M  END
>  <MODEL>
9

>  <REMARK>
 VINA RESULT:      -8.5      1.559      2.062
  Name = 
  3 active torsions:
  status: ('A' for Active; 'I' for Inactive)
    1  A    between atoms: C_2  and  C_25
    2  A    between atoms: N_6  and  C_15
    3  A    between atoms: C_15  and  C_25
                            x       y       z     vdW  Elec       q    Type
                         _______ _______ _______ _____ _____    ______ ____

>  <TORSDO>
F 3

$$$$
