=
 OpenBabel11052416453D

 32 36  0  0  0  0  0  0  0  0999 V2000
  188.5250  177.8000  141.3570 C   0  0  0  0  0  0  0  0  0  0  0  0
  191.8010  176.4080  144.7150 C   0  0  0  0  0  3  0  0  0  0  0  0
  190.8570  176.6110  145.7210 C   0  0  0  0  0  3  0  0  0  0  0  0
  186.2150  178.4700  142.1440 C   0  0  0  0  0  0  0  0  0  0  0  0
  185.3970  178.6260  143.2160 N   0  0  0  0  0  0  0  0  0  0  0  0
  189.1800  177.8080  138.9970 C   0  0  0  0  0  0  0  0  0  0  0  0
  190.7800  177.1510  140.6770 C   0  0  0  0  0  3  0  0  0  0  0  0
  184.7420  178.6260  145.3200 C   0  0  0  0  0  0  0  0  0  0  0  0
  191.4610  176.6520  143.3840 C   0  0  0  0  0  3  0  0  0  0  0  0
  189.8310  177.3480  141.6940 C   0  0  0  0  0  0  0  0  0  0  0  0
  190.1730  177.1020  143.0360 C   0  0  0  0  0  0  0  0  0  0  0  0
  187.9260  177.7560  143.7430 C   0  0  0  0  0  0  0  0  0  0  0  0
  183.7020  179.0460  144.4980 C   0  0  0  0  0  3  0  0  0  0  0  0
  190.4770  177.3960  139.3390 C   0  0  0  0  0  0  0  0  0  0  0  0
  184.1370  179.0350  143.2120 N   0  0  0  0  0  0  0  0  0  0  0  0
  188.8090  177.9860  137.6710 O   0  0  0  0  0  1  0  0  0  0  0  0
  189.5760  177.0570  145.3950 C   0  0  0  0  0  3  0  0  0  0  0  0
  189.2190  177.3060  144.0580 C   0  0  0  0  0  0  0  0  0  0  0  0
  187.0260  177.9440  144.7540 N   0  0  0  0  0  0  0  0  0  0  0  0
  188.2320  178.0120  140.0000 C   0  0  0  0  0  3  0  0  0  0  0  0
  185.6660  178.7900  140.7880 C   0  0  0  0  0  1  0  0  0  0  0  0
  184.7220  178.4830  146.8010 C   0  0  0  0  0  1  0  0  0  0  0  0
  187.5540  178.0120  142.3820 C   0  0  0  0  0  0  0  0  0  0  0  0
  185.7820  178.3760  144.4640 C   0  0  0  0  0  0  0  0  0  0  0  0
  191.4740  177.1790  138.3790 O   0  0  0  0  0  0  0  0  0  0  0  0
  191.5710  174.9000  138.1520 O   0  0  0  0  0  0  0  0  0  0  0  0
  192.1970  175.9890  138.2570 C   0  0  0  0  0  0  0  0  0  0  0  0
  193.5940  176.0010  138.3020 O   0  0  0  0  0  0  0  0  0  0  0  0
  194.3710  174.9200  137.8070 C   0  0  0  0  0  2  0  0  0  0  0  0
  195.2470  174.4040  138.8920 C   0  0  0  0  0  0  0  0  0  0  0  0
  195.7950  175.2810  139.8180 O   0  0  0  0  0  1  0  0  0  0  0  0
  195.4600  173.1690  138.9930 O   0  0  0  0  0  0  0  0  0  0  0  0
  1 10  1  0  0  0  0
  1 23  1  0  0  0  0
  2  3  1  0  0  0  0
  4 23  2  0  0  0  0
  4  5  1  0  0  0  0
  5 24  1  0  0  0  0
  6 14  2  0  0  0  0
  6 20  1  0  0  0  0
  7 10  2  0  0  0  0
  8 22  1  0  0  0  0
  9  2  2  0  0  0  0
 10 11  1  0  0  0  0
 11  9  1  0  0  0  0
 11 18  2  0  0  0  0
 12 18  1  0  0  0  0
 12 19  2  0  0  0  0
 13  8  1  0  0  0  0
 14  7  1  0  0  0  0
 15  5  1  0  0  0  0
 15 13  2  0  0  0  0
 16  6  1  0  0  0  0
 17  3  2  0  0  0  0
 18 17  1  0  0  0  0
 20  1  2  0  0  0  0
 21  4  1  0  0  0  0
 23 12  1  0  0  0  0
 24 19  1  0  0  0  0
 24  8  2  0  0  0  0
 25 14  1  0  0  0  0
 26 27  2  0  0  0  0
 27 28  1  0  0  0  0
 27 25  1  0  0  0  0
 29 28  1  0  0  0  0
 29 30  1  0  0  0  0
 30 32  2  0  0  0  0
 30 31  1  0  0  0  0
M  END
>  <MODEL>
1

>  <REMARK>
 VINA RESULT:     -10.2      0.000      0.000
  Name = 
  5 active torsions:
  status: ('A' for Active; 'I' for Inactive)
    1  A    between atoms: C_1  and  C_10
    2  A    between atoms: C_10  and  O_24
    3  A    between atoms: O_12  and  C_19
    4  A    between atoms: O_12  and  C_21
    5  A    between atoms: C_19  and  O_24
                            x       y       z     vdW  Elec       q    Type
                         _______ _______ _______ _____ _____    ______ ____

>  <TORSDO>
F 5

$$$$
=
 OpenBabel11052416453D

 32 36  0  0  0  0  0  0  0  0999 V2000
  187.8930  177.9950  142.3830 C   0  0  0  0  0  0  0  0  0  0  0  0
  183.2210  179.0450  143.3900 C   0  0  0  0  0  3  0  0  0  0  0  0
  183.4840  178.9110  144.7530 C   0  0  0  0  0  3  0  0  0  0  0  0
  189.4560  177.5170  144.3160 C   0  0  0  0  0  0  0  0  0  0  0  0
  189.5740  177.4160  145.6640 N   0  0  0  0  0  0  0  0  0  0  0  0
  188.6220  177.9640  140.0460 C   0  0  0  0  0  0  0  0  0  0  0  0
  186.3210  178.4550  140.5710 C   0  0  0  0  0  3  0  0  0  0  0  0
  188.9840  177.4420  147.7870 C   0  0  0  0  0  0  0  0  0  0  0  0
  184.2460  178.8520  142.4620 C   0  0  0  0  0  3  0  0  0  0  0  0
  186.5810  178.3260  141.9460 C   0  0  0  0  0  0  0  0  0  0  0  0
  185.5490  178.5210  142.8820 C   0  0  0  0  0  0  0  0  0  0  0  0
  187.1000  178.0550  144.7120 C   0  0  0  0  0  0  0  0  0  0  0  0
  190.3330  177.1260  147.6720 C   0  0  0  0  0  3  0  0  0  0  0  0
  187.3180  178.2570  139.6180 C   0  0  0  0  0  0  0  0  0  0  0  0
  190.6640  177.1180  146.3550 N   0  0  0  0  0  0  0  0  0  0  0  0
  189.6650  177.8390  139.1370 O   0  0  0  0  0  1  0  0  0  0  0  0
  184.7690  178.5830  145.1860 C   0  0  0  0  0  3  0  0  0  0  0  0
  185.8110  178.3860  144.2630 C   0  0  0  0  0  0  0  0  0  0  0  0
  187.3230  177.9300  146.0540 N   0  0  0  0  0  0  0  0  0  0  0  0
  188.8900  177.8280  141.4080 C   0  0  0  0  0  3  0  0  0  0  0  0
  190.6750  177.2660  143.4830 C   0  0  0  0  0  1  0  0  0  0  0  0
  188.1880  177.5640  149.0380 C   0  0  0  0  0  1  0  0  0  0  0  0
  188.1690  177.8520  143.7760 C   0  0  0  0  0  0  0  0  0  0  0  0
  188.5560  177.6130  146.4980 C   0  0  0  0  0  0  0  0  0  0  0  0
  186.9850  178.4000  138.2650 O   0  0  0  0  0  0  0  0  0  0  0  0
  186.3330  176.4800  137.1970 O   0  0  0  0  0  0  0  0  0  0  0  0
  186.0210  177.6280  137.6120 C   0  0  0  0  0  0  0  0  0  0  0  0
  184.7420  178.1410  137.3780 O   0  0  0  0  0  0  0  0  0  0  0  0
  183.6920  178.0020  138.3240 C   0  0  0  0  0  2  0  0  0  0  0  0
  183.2080  179.3490  138.7270 C   0  0  0  0  0  0  0  0  0  0  0  0
  184.1180  180.3630  138.9910 O   0  0  0  0  0  1  0  0  0  0  0  0
  181.9730  179.5790  138.7910 O   0  0  0  0  0  0  0  0  0  0  0  0
  1 23  1  0  0  0  0
  2  3  1  0  0  0  0
  3 17  2  0  0  0  0
  4  5  1  0  0  0  0
  5 15  1  0  0  0  0
  5 24  1  0  0  0  0
  6 20  1  0  0  0  0
  7 10  2  0  0  0  0
  8 22  1  0  0  0  0
  9 11  1  0  0  0  0
  9  2  2  0  0  0  0
 10  1  1  0  0  0  0
 10 11  1  0  0  0  0
 11 18  2  0  0  0  0
 12 19  2  0  0  0  0
 13  8  1  0  0  0  0
 14  6  2  0  0  0  0
 14  7  1  0  0  0  0
 15 13  2  0  0  0  0
 16  6  1  0  0  0  0
 18 12  1  0  0  0  0
 18 17  1  0  0  0  0
 19 24  1  0  0  0  0
 20  1  2  0  0  0  0
 21  4  1  0  0  0  0
 23  4  2  0  0  0  0
 23 12  1  0  0  0  0
 24  8  2  0  0  0  0
 25 14  1  0  0  0  0
 26 27  2  0  0  0  0
 27 25  1  0  0  0  0
 28 27  1  0  0  0  0
 28 29  1  0  0  0  0
 29 30  1  0  0  0  0
 30 32  2  0  0  0  0
 30 31  1  0  0  0  0
M  END
>  <MODEL>
2

>  <REMARK>
 VINA RESULT:     -10.1      3.149      6.667
  Name = 
  5 active torsions:
  status: ('A' for Active; 'I' for Inactive)
    1  A    between atoms: C_1  and  C_10
    2  A    between atoms: C_10  and  O_24
    3  A    between atoms: O_12  and  C_19
    4  A    between atoms: O_12  and  C_21
    5  A    between atoms: C_19  and  O_24
                            x       y       z     vdW  Elec       q    Type
                         _______ _______ _______ _____ _____    ______ ____

>  <TORSDO>
F 5

$$$$
=
 OpenBabel11052416453D

 32 36  0  0  0  0  0  0  0  0999 V2000
  186.6410  178.2680  142.1690 C   0  0  0  0  0  0  0  0  0  0  0  0
  186.3120  178.0920  147.0480 C   0  0  0  0  0  3  0  0  0  0  0  0
  184.9360  178.3030  146.9640 C   0  0  0  0  0  3  0  0  0  0  0  0
  184.5220  178.6550  140.8400 C   0  0  0  0  0  0  0  0  0  0  0  0
  183.1810  178.8560  140.9010 N   0  0  0  0  0  0  0  0  0  0  0  0
  188.8320  177.9680  141.1190 C   0  0  0  0  0  0  0  0  0  0  0  0
  188.6440  177.9110  143.5220 C   0  0  0  0  0  3  0  0  0  0  0  0
  181.1800  179.1180  141.7840 C   0  0  0  0  0  0  0  0  0  0  0  0
  187.0780  178.0300  145.8830 C   0  0  0  0  0  3  0  0  0  0  0  0
  187.2550  178.1180  143.4430 C   0  0  0  0  0  0  0  0  0  0  0  0
  186.4820  178.1790  144.6160 C   0  0  0  0  0  0  0  0  0  0  0  0
  184.4660  178.5480  143.2850 C   0  0  0  0  0  0  0  0  0  0  0  0
  181.1020  179.1970  140.3970 C   0  0  0  0  0  3  0  0  0  0  0  0
  189.4390  177.8550  142.3790 C   0  0  0  0  0  0  0  0  0  0  0  0
  182.3480  179.0320  139.8850 N   0  0  0  0  0  0  0  0  0  0  0  0
  189.5730  177.8390  139.9510 O   0  0  0  0  0  1  0  0  0  0  0  0
  184.3300  178.4540  145.7160 C   0  0  0  0  0  3  0  0  0  0  0  0
  185.0880  178.3940  144.5350 C   0  0  0  0  0  0  0  0  0  0  0  0
  183.1160  178.7550  143.2390 N   0  0  0  0  0  0  0  0  0  0  0  0
  187.4570  178.1800  141.0300 C   0  0  0  0  0  3  0  0  0  0  0  0
  185.1680  178.6270  139.4890 C   0  0  0  0  0  1  0  0  0  0  0  0
  180.0630  179.2420  142.7590 C   0  0  0  0  0  1  0  0  0  0  0  0
  185.2340  178.4880  142.0750 C   0  0  0  0  0  0  0  0  0  0  0  0
  182.5060  178.9040  142.0460 C   0  0  0  0  0  0  0  0  0  0  0  0
  190.8160  177.6480  142.5350 O   0  0  0  0  0  0  0  0  0  0  0  0
  192.0260  178.9670  143.9670 O   0  0  0  0  0  0  0  0  0  0  0  0
  191.5050  177.8430  143.7360 C   0  0  0  0  0  0  0  0  0  0  0  0
  191.6560  176.7920  144.6440 O   0  0  0  0  0  0  0  0  0  0  0  0
  190.9620  176.7650  145.8840 C   0  0  0  0  0  2  0  0  0  0  0  0
  191.8920  176.3370  146.9620 C   0  0  0  0  0  0  0  0  0  0  0  0
  192.0550  177.1260  148.0920 O   0  0  0  0  0  1  0  0  0  0  0  0
  192.5020  175.2410  146.8670 O   0  0  0  0  0  0  0  0  0  0  0  0
  1 10  1  0  0  0  0
  3  2  1  0  0  0  0
  4  5  1  0  0  0  0
  4 23  2  0  0  0  0
  5 24  1  0  0  0  0
  6 14  2  0  0  0  0
  8 24  2  0  0  0  0
  8 22  1  0  0  0  0
  9  2  2  0  0  0  0
 10  7  2  0  0  0  0
 10 11  1  0  0  0  0
 11  9  1  0  0  0  0
 12 18  1  0  0  0  0
 13  8  1  0  0  0  0
 14 25  1  0  0  0  0
 14  7  1  0  0  0  0
 15 13  2  0  0  0  0
 15  5  1  0  0  0  0
 16  6  1  0  0  0  0
 17  3  2  0  0  0  0
 18 11  2  0  0  0  0
 18 17  1  0  0  0  0
 19 12  2  0  0  0  0
 20  6  1  0  0  0  0
 20  1  2  0  0  0  0
 21  4  1  0  0  0  0
 23  1  1  0  0  0  0
 23 12  1  0  0  0  0
 24 19  1  0  0  0  0
 25 27  1  0  0  0  0
 27 26  2  0  0  0  0
 27 28  1  0  0  0  0
 28 29  1  0  0  0  0
 29 30  1  0  0  0  0
 30 31  1  0  0  0  0
 32 30  2  0  0  0  0
M  END
>  <MODEL>
3

>  <REMARK>
 VINA RESULT:     -10.0      3.295      5.190
  Name = 
  5 active torsions:
  status: ('A' for Active; 'I' for Inactive)
    1  A    between atoms: C_1  and  C_10
    2  A    between atoms: C_10  and  O_24
    3  A    between atoms: O_12  and  C_19
    4  A    between atoms: O_12  and  C_21
    5  A    between atoms: C_19  and  O_24
                            x       y       z     vdW  Elec       q    Type
                         _______ _______ _______ _____ _____    ______ ____

>  <TORSDO>
F 5

$$$$
=
 OpenBabel11052416453D

 32 36  0  0  0  0  0  0  0  0999 V2000
  185.9570  178.3890  141.9320 C   0  0  0  0  0  0  0  0  0  0  0  0
  186.4570  178.0870  146.7900 C   0  0  0  0  0  3  0  0  0  0  0  0
  185.0890  178.3050  146.9460 C   0  0  0  0  0  3  0  0  0  0  0  0
  183.6470  178.8160  140.9910 C   0  0  0  0  0  0  0  0  0  0  0  0
  182.3370  179.0190  141.2830 N   0  0  0  0  0  0  0  0  0  0  0  0
  187.9370  178.1110  140.5190 C   0  0  0  0  0  0  0  0  0  0  0  0
  188.1570  177.9910  142.9170 C   0  0  0  0  0  3  0  0  0  0  0  0
  180.5160  179.2640  142.4980 C   0  0  0  0  0  0  0  0  0  0  0  0
  187.0150  178.0540  145.5110 C   0  0  0  0  0  3  0  0  0  0  0  0
  186.7770  178.2040  143.0790 C   0  0  0  0  0  0  0  0  0  0  0  0
  186.2140  178.2370  144.3680 C   0  0  0  0  0  0  0  0  0  0  0  0
  184.0040  178.6460  143.4070 C   0  0  0  0  0  0  0  0  0  0  0  0
  180.2050  179.3790  141.1480 C   0  0  0  0  0  3  0  0  0  0  0  0
  188.7480  177.9630  141.6550 C   0  0  0  0  0  0  0  0  0  0  0  0
  181.3460  179.2230  140.4280 N   0  0  0  0  0  0  0  0  0  0  0  0
  188.4690  178.0090  139.2390 O   0  0  0  0  0  1  0  0  0  0  0  0
  184.2810  178.4890  145.8230 C   0  0  0  0  0  3  0  0  0  0  0  0
  184.8280  178.4580  144.5290 C   0  0  0  0  0  0  0  0  0  0  0  0
  182.6670  178.8570  143.5960 N   0  0  0  0  0  0  0  0  0  0  0  0
  186.5680  178.3280  140.6690 C   0  0  0  0  0  3  0  0  0  0  0  0
  184.0550  178.8210  139.5500 C   0  0  0  0  0  1  0  0  0  0  0  0
  179.5810  179.3640  143.6520 C   0  0  0  0  0  1  0  0  0  0  0  0
  184.5560  178.6150  142.0830 C   0  0  0  0  0  0  0  0  0  0  0  0
  181.8660  179.0390  142.5270 C   0  0  0  0  0  0  0  0  0  0  0  0
  190.1290  177.7480  141.5700 O   0  0  0  0  0  0  0  0  0  0  0  0
  190.5080  175.6350  142.3750 O   0  0  0  0  0  0  0  0  0  0  0  0
  190.8320  176.8530  142.3820 C   0  0  0  0  0  0  0  0  0  0  0  0
  191.8470  177.3110  143.2270 O   0  0  0  0  0  0  0  0  0  0  0  0
  191.5660  178.0490  144.4070 C   0  0  0  0  0  2  0  0  0  0  0  0
  191.2410  177.1100  145.5130 C   0  0  0  0  0  0  0  0  0  0  0  0
  191.9880  175.9530  145.6830 O   0  0  0  0  0  0  0  0  0  0  0  0
  190.3130  177.3840  146.3170 O   0  0  0  0  0  1  0  0  0  0  0  0
  1 23  1  0  0  0  0
  1 10  1  0  0  0  0
  2  3  1  0  0  0  0
  4  5  1  0  0  0  0
  4 23  2  0  0  0  0
  5 24  1  0  0  0  0
  6 20  1  0  0  0  0
  6 14  2  0  0  0  0
  7 10  2  0  0  0  0
  8 24  2  0  0  0  0
  8 22  1  0  0  0  0
  9  2  2  0  0  0  0
 10 11  1  0  0  0  0
 11 18  2  0  0  0  0
 11  9  1  0  0  0  0
 12 19  2  0  0  0  0
 12 18  1  0  0  0  0
 13  8  1  0  0  0  0
 14  7  1  0  0  0  0
 15 13  2  0  0  0  0
 15  5  1  0  0  0  0
 16  6  1  0  0  0  0
 17  3  2  0  0  0  0
 18 17  1  0  0  0  0
 20  1  2  0  0  0  0
 21  4  1  0  0  0  0
 23 12  1  0  0  0  0
 24 19  1  0  0  0  0
 25 14  1  0  0  0  0
 25 27  1  0  0  0  0
 26 27  2  0  0  0  0
 27 28  1  0  0  0  0
 28 29  1  0  0  0  0
 29 30  1  0  0  0  0
 30 31  2  0  0  0  0
 30 32  1  0  0  0  0
M  END
>  <MODEL>
4

>  <REMARK>
 VINA RESULT:     -10.0      3.008      4.906
  Name = 
  5 active torsions:
  status: ('A' for Active; 'I' for Inactive)
    1  A    between atoms: C_1  and  C_10
    2  A    between atoms: C_10  and  O_24
    3  A    between atoms: O_12  and  C_19
    4  A    between atoms: O_12  and  C_21
    5  A    between atoms: C_19  and  O_24
                            x       y       z     vdW  Elec       q    Type
                         _______ _______ _______ _____ _____    ______ ____

>  <TORSDO>
F 5

$$$$
=
 OpenBabel11052416453D

 32 36  0  0  0  0  0  0  0  0999 V2000
  187.0340  178.1430  141.8230 C   0  0  0  0  0  0  0  0  0  0  0  0
  183.4430  178.9110  145.0580 C   0  0  0  0  0  3  0  0  0  0  0  0
  184.3170  178.6060  146.1010 C   0  0  0  0  0  3  0  0  0  0  0  0
  189.3080  177.4620  142.6990 C   0  0  0  0  0  0  0  0  0  0  0  0
  190.0490  177.1890  143.8030 N   0  0  0  0  0  0  0  0  0  0  0  0
  186.5620  178.4420  139.4390 C   0  0  0  0  0  0  0  0  0  0  0  0
  184.8060  178.7900  141.0540 C   0  0  0  0  0  3  0  0  0  0  0  0
  190.5400  176.9170  145.9340 C   0  0  0  0  0  0  0  0  0  0  0  0
  183.8960  178.8720  143.7390 C   0  0  0  0  0  3  0  0  0  0  0  0
  185.6840  178.4890  142.1110 C   0  0  0  0  0  0  0  0  0  0  0  0
  185.2290  178.5290  143.4410 C   0  0  0  0  0  0  0  0  0  0  0  0
  187.4450  177.8730  144.2340 C   0  0  0  0  0  0  0  0  0  0  0  0
  191.6610  176.6600  145.1510 C   0  0  0  0  0  3  0  0  0  0  0  0
  185.2230  178.7490  139.7250 C   0  0  0  0  0  0  0  0  0  0  0  0
  191.3250  176.8350  143.8470 N   0  0  0  0  0  0  0  0  0  0  0  0
  187.0420  178.4690  138.1360 O   0  0  0  0  0  1  0  0  0  0  0  0
  185.6400  178.2630  145.8240 C   0  0  0  0  0  3  0  0  0  0  0  0
  186.1110  178.2200  144.5000 C   0  0  0  0  0  0  0  0  0  0  0  0
  188.2740  177.5790  145.2800 N   0  0  0  0  0  0  0  0  0  0  0  0
  187.4400  178.1360  140.4790 C   0  0  0  0  0  3  0  0  0  0  0  0
  189.9750  177.3600  141.3620 C   0  0  0  0  0  1  0  0  0  0  0  0
  190.4400  176.8500  147.4170 C   0  0  0  0  0  1  0  0  0  0  0  0
  187.9330  177.8260  142.8860 C   0  0  0  0  0  0  0  0  0  0  0  0
  189.5580  177.2440  145.0380 C   0  0  0  0  0  0  0  0  0  0  0  0
  184.2920  179.0590  138.7250 O   0  0  0  0  0  0  0  0  0  0  0  0
  183.2330  181.0870  138.8680 O   0  0  0  0  0  0  0  0  0  0  0  0
  183.1470  179.8320  138.9360 C   0  0  0  0  0  0  0  0  0  0  0  0
  181.9330  179.2220  139.2670 O   0  0  0  0  0  0  0  0  0  0  0  0
  180.8980  179.9260  139.9370 C   0  0  0  0  0  2  0  0  0  0  0  0
  180.7970  179.4420  141.3400 C   0  0  0  0  0  0  0  0  0  0  0  0
  180.3280  180.2890  142.3340 O   0  0  0  0  0  1  0  0  0  0  0  0
  181.1000  178.2540  141.6170 O   0  0  0  0  0  0  0  0  0  0  0  0
  1 10  1  0  0  0  0
  1 23  1  0  0  0  0
  2  3  1  0  0  0  0
  4 23  2  0  0  0  0
  4  5  1  0  0  0  0
  5 15  1  0  0  0  0
  5 24  1  0  0  0  0
  6 14  2  0  0  0  0
  6 20  1  0  0  0  0
  7 10  2  0  0  0  0
  8 22  1  0  0  0  0
  9  2  2  0  0  0  0
 10 11  1  0  0  0  0
 11  9  1  0  0  0  0
 11 18  2  0  0  0  0
 12 18  1  0  0  0  0
 12 19  2  0  0  0  0
 13  8  1  0  0  0  0
 14  7  1  0  0  0  0
 15 13  2  0  0  0  0
 16  6  1  0  0  0  0
 17  3  2  0  0  0  0
 18 17  1  0  0  0  0
 20  1  2  0  0  0  0
 21  4  1  0  0  0  0
 23 12  1  0  0  0  0
 24 19  1  0  0  0  0
 24  8  2  0  0  0  0
 25 27  1  0  0  0  0
 25 14  1  0  0  0  0
 26 27  2  0  0  0  0
 27 28  1  0  0  0  0
 28 29  1  0  0  0  0
 29 30  1  0  0  0  0
 30 32  2  0  0  0  0
 30 31  1  0  0  0  0
M  END
>  <MODEL>
5

>  <REMARK>
 VINA RESULT:      -9.9      3.777      7.873
  Name = 
  5 active torsions:
  status: ('A' for Active; 'I' for Inactive)
    1  A    between atoms: C_1  and  C_10
    2  A    between atoms: C_10  and  O_24
    3  A    between atoms: O_12  and  C_19
    4  A    between atoms: O_12  and  C_21
    5  A    between atoms: C_19  and  O_24
                            x       y       z     vdW  Elec       q    Type
                         _______ _______ _______ _____ _____    ______ ____

>  <TORSDO>
F 5

$$$$
=
 OpenBabel11052416453D

 32 36  0  0  0  0  0  0  0  0999 V2000
  187.9590  177.9870  142.2860 C   0  0  0  0  0  0  0  0  0  0  0  0
  183.2330  178.9840  143.0710 C   0  0  0  0  0  3  0  0  0  0  0  0
  183.4300  178.8430  144.4440 C   0  0  0  0  0  3  0  0  0  0  0  0
  189.4300  177.5120  144.2890 C   0  0  0  0  0  0  0  0  0  0  0  0
  189.4830  177.4040  145.6410 N   0  0  0  0  0  0  0  0  0  0  0  0
  188.8000  177.9790  139.9870 C   0  0  0  0  0  0  0  0  0  0  0  0
  186.4710  178.4430  140.4020 C   0  0  0  0  0  3  0  0  0  0  0  0
  188.7910  177.4090  147.7330 C   0  0  0  0  0  0  0  0  0  0  0  0
  184.3030  178.8080  142.1930 C   0  0  0  0  0  3  0  0  0  0  0  0
  186.6660  178.3080  141.7880 C   0  0  0  0  0  0  0  0  0  0  0  0
  185.5880  178.4870  142.6730 C   0  0  0  0  0  0  0  0  0  0  0  0
  187.0530  178.0240  144.5740 C   0  0  0  0  0  0  0  0  0  0  0  0
  190.1480  177.1080  147.6820 C   0  0  0  0  0  3  0  0  0  0  0  0
  187.5160  178.2620  139.4980 C   0  0  0  0  0  0  0  0  0  0  0  0
  190.5420  177.1120  146.3830 N   0  0  0  0  0  0  0  0  0  0  0  0
  189.8870  177.8700  139.1290 O   0  0  0  0  0  1  0  0  0  0  0  0
  184.6960  178.5260  144.9370 C   0  0  0  0  0  3  0  0  0  0  0  0
  185.7840  178.3450  144.0650 C   0  0  0  0  0  0  0  0  0  0  0  0
  187.2110  177.8930  145.9250 N   0  0  0  0  0  0  0  0  0  0  0  0
  189.0030  177.8370  141.3590 C   0  0  0  0  0  3  0  0  0  0  0  0
  190.6910  177.2790  143.5150 C   0  0  0  0  0  1  0  0  0  0  0  0
  187.9340  177.5150  148.9450 C   0  0  0  0  0  1  0  0  0  0  0  0
  188.1680  177.8380  143.6900 C   0  0  0  0  0  0  0  0  0  0  0  0
  188.4250  177.5850  146.4250 C   0  0  0  0  0  0  0  0  0  0  0  0
  187.2470  178.4110  138.1310 O   0  0  0  0  0  0  0  0  0  0  0  0
  185.5150  177.2110  137.2290 O   0  0  0  0  0  0  0  0  0  0  0  0
  186.7590  177.3860  137.3140 C   0  0  0  0  0  0  0  0  0  0  0  0
  187.6420  176.5370  136.6410 O   0  0  0  0  0  0  0  0  0  0  0  0
  188.0760  175.3070  137.2040 C   0  0  0  0  0  2  0  0  0  0  0  0
  189.5510  175.1860  137.0510 C   0  0  0  0  0  0  0  0  0  0  0  0
  190.2170  174.0960  137.5920 O   0  0  0  0  0  1  0  0  0  0  0  0
  190.1880  176.0520  136.3980 O   0  0  0  0  0  0  0  0  0  0  0  0
  1 23  1  0  0  0  0
  2  3  1  0  0  0  0
  3 17  2  0  0  0  0
  4  5  1  0  0  0  0
  5 15  1  0  0  0  0
  5 24  1  0  0  0  0
  6 20  1  0  0  0  0
  7 10  2  0  0  0  0
  8 22  1  0  0  0  0
  9 11  1  0  0  0  0
  9  2  2  0  0  0  0
 10  1  1  0  0  0  0
 10 11  1  0  0  0  0
 11 18  2  0  0  0  0
 12 19  2  0  0  0  0
 13  8  1  0  0  0  0
 14  6  2  0  0  0  0
 14  7  1  0  0  0  0
 15 13  2  0  0  0  0
 16  6  1  0  0  0  0
 18 12  1  0  0  0  0
 18 17  1  0  0  0  0
 19 24  1  0  0  0  0
 20  1  2  0  0  0  0
 21  4  1  0  0  0  0
 23  4  2  0  0  0  0
 23 12  1  0  0  0  0
 24  8  2  0  0  0  0
 25 14  1  0  0  0  0
 26 27  2  0  0  0  0
 27 25  1  0  0  0  0
 28 29  1  0  0  0  0
 28 27  1  0  0  0  0
 30 29  1  0  0  0  0
 30 31  1  0  0  0  0
 32 30  2  0  0  0  0
M  END
>  <MODEL>
6

>  <REMARK>
 VINA RESULT:      -9.9      2.618      5.136
  Name = 
  5 active torsions:
  status: ('A' for Active; 'I' for Inactive)
    1  A    between atoms: C_1  and  C_10
    2  A    between atoms: C_10  and  O_24
    3  A    between atoms: O_12  and  C_19
    4  A    between atoms: O_12  and  C_21
    5  A    between atoms: C_19  and  O_24
                            x       y       z     vdW  Elec       q    Type
                         _______ _______ _______ _____ _____    ______ ____

>  <TORSDO>
F 5

$$$$
=
 OpenBabel11052416453D

 32 36  0  0  0  0  0  0  0  0999 V2000
  189.1300  177.5530  142.2150 C   0  0  0  0  0  0  0  0  0  0  0  0
  184.4010  178.8080  142.2880 C   0  0  0  0  0  3  0  0  0  0  0  0
  184.4150  178.7850  143.6820 C   0  0  0  0  0  3  0  0  0  0  0  0
  190.3090  177.2030  144.4270 C   0  0  0  0  0  0  0  0  0  0  0  0
  190.1850  177.2160  145.7790 N   0  0  0  0  0  0  0  0  0  0  0  0
  190.2550  177.3010  140.0550 C   0  0  0  0  0  0  0  0  0  0  0  0
  187.9190  177.8950  140.1210 C   0  0  0  0  0  3  0  0  0  0  0  0
  189.2350  177.4410  147.7530 C   0  0  0  0  0  0  0  0  0  0  0  0
  185.5640  178.5090  141.5760 C   0  0  0  0  0  3  0  0  0  0  0  0
  187.9290  177.8790  141.5270 C   0  0  0  0  0  0  0  0  0  0  0  0
  186.7580  178.1820  142.2450 C   0  0  0  0  0  0  0  0  0  0  0  0
  187.9450  177.8350  144.3530 C   0  0  0  0  0  0  0  0  0  0  0  0
  190.5690  177.0810  147.9060 C   0  0  0  0  0  3  0  0  0  0  0  0
  189.0590  177.5900  139.3800 C   0  0  0  0  0  0  0  0  0  0  0  0
  191.1250  176.9510  146.6740 N   0  0  0  0  0  0  0  0  0  0  0  0
  191.4350  177.0700  139.3590 O   0  0  0  0  0  1  0  0  0  0  0  0
  185.5910  178.4630  144.3610 C   0  0  0  0  0  3  0  0  0  0  0  0
  186.7690  178.1590  143.6570 C   0  0  0  0  0  0  0  0  0  0  0  0
  187.9240  177.8210  145.7200 N   0  0  0  0  0  0  0  0  0  0  0  0
  190.2740  177.2770  141.4490 C   0  0  0  0  0  3  0  0  0  0  0  0
  191.6440  176.8490  143.8470 C   0  0  0  0  0  1  0  0  0  0  0  0
  188.2380  177.6910  148.8290 C   0  0  0  0  0  1  0  0  0  0  0  0
  189.1520  177.5240  143.6420 C   0  0  0  0  0  0  0  0  0  0  0  0
  189.0470  177.5110  146.3990 C   0  0  0  0  0  0  0  0  0  0  0  0
  188.9740  177.6240  137.9820 O   0  0  0  0  0  0  0  0  0  0  0  0
  189.0530  179.7970  137.2560 O   0  0  0  0  0  0  0  0  0  0  0  0
  188.4420  178.6950  137.2570 C   0  0  0  0  0  0  0  0  0  0  0  0
  187.2250  178.5590  136.5840 O   0  0  0  0  0  0  0  0  0  0  0  0
  186.4030  177.4120  136.7420 C   0  0  0  0  0  2  0  0  0  0  0  0
  185.2410  177.7500  137.6050 C   0  0  0  0  0  0  0  0  0  0  0  0
  185.1990  178.9710  138.2650 O   0  0  0  0  0  1  0  0  0  0  0  0
  184.2790  176.9460  137.7080 O   0  0  0  0  0  0  0  0  0  0  0  0
  1 23  1  0  0  0  0
  2  3  1  0  0  0  0
  3 17  2  0  0  0  0
  4  5  1  0  0  0  0
  5 24  1  0  0  0  0
  5 15  1  0  0  0  0
  6 20  1  0  0  0  0
  7 10  2  0  0  0  0
  8 13  1  0  0  0  0
  8 22  1  0  0  0  0
  9 11  1  0  0  0  0
  9  2  2  0  0  0  0
 10  1  1  0  0  0  0
 10 11  1  0  0  0  0
 11 18  2  0  0  0  0
 12 19  2  0  0  0  0
 14  6  2  0  0  0  0
 14  7  1  0  0  0  0
 15 13  2  0  0  0  0
 16  6  1  0  0  0  0
 18 12  1  0  0  0  0
 18 17  1  0  0  0  0
 19 24  1  0  0  0  0
 20  1  2  0  0  0  0
 21  4  1  0  0  0  0
 23 12  1  0  0  0  0
 23  4  2  0  0  0  0
 24  8  2  0  0  0  0
 25 14  1  0  0  0  0
 26 27  2  0  0  0  0
 27 25  1  0  0  0  0
 28 29  1  0  0  0  0
 28 27  1  0  0  0  0
 29 30  1  0  0  0  0
 30 32  2  0  0  0  0
 30 31  1  0  0  0  0
M  END
>  <MODEL>
7

>  <REMARK>
 VINA RESULT:      -9.9      2.484      5.849
  Name = 
  5 active torsions:
  status: ('A' for Active; 'I' for Inactive)
    1  A    between atoms: C_1  and  C_10
    2  A    between atoms: C_10  and  O_24
    3  A    between atoms: O_12  and  C_19
    4  A    between atoms: O_12  and  C_21
    5  A    between atoms: C_19  and  O_24
                            x       y       z     vdW  Elec       q    Type
                         _______ _______ _______ _____ _____    ______ ____

>  <TORSDO>
F 5

$$$$
=
 OpenBabel11052416453D

 32 36  0  0  0  0  0  0  0  0999 V2000
  188.2980  177.8720  141.3660 C   0  0  0  0  0  0  0  0  0  0  0  0
  191.6820  176.3720  144.5670 C   0  0  0  0  0  3  0  0  0  0  0  0
  190.7770  176.5580  145.6120 C   0  0  0  0  0  3  0  0  0  0  0  0
  186.0240  178.5410  142.2530 C   0  0  0  0  0  0  0  0  0  0  0  0
  185.2470  178.6780  143.3580 N   0  0  0  0  0  0  0  0  0  0  0  0
  188.8660  177.9330  138.9850 C   0  0  0  0  0  0  0  0  0  0  0  0
  190.5210  177.2220  140.5880 C   0  0  0  0  0  3  0  0  0  0  0  0
  184.6700  178.6310  145.4840 C   0  0  0  0  0  0  0  0  0  0  0  0
  191.2950  176.6510  143.2550 C   0  0  0  0  0  3  0  0  0  0  0  0
  189.6110  177.4010  141.6440 C   0  0  0  0  0  0  0  0  0  0  0  0
  189.9990  177.1200  142.9660 C   0  0  0  0  0  0  0  0  0  0  0  0
  187.7860  177.7740  143.7710 C   0  0  0  0  0  0  0  0  0  0  0  0
  183.6040  179.0800  144.7110 C   0  0  0  0  0  3  0  0  0  0  0  0
  190.1710  177.5020  139.2680 C   0  0  0  0  0  0  0  0  0  0  0  0
  183.9920  179.0970  143.4100 N   0  0  0  0  0  0  0  0  0  0  0  0
  188.4480  178.1470  137.6770 O   0  0  0  0  0  1  0  0  0  0  0  0
  189.4890  177.0220  145.3430 C   0  0  0  0  0  3  0  0  0  0  0  0
  189.0860  177.3070  144.0270 C   0  0  0  0  0  0  0  0  0  0  0  0
  186.9250  177.9450  144.8180 N   0  0  0  0  0  0  0  0  0  0  0  0
  187.9580  178.1200  140.0260 C   0  0  0  0  0  3  0  0  0  0  0  0
  185.4290  178.8990  140.9260 C   0  0  0  0  0  1  0  0  0  0  0  0
  184.7030  178.4520  146.9610 C   0  0  0  0  0  1  0  0  0  0  0  0
  187.3670  178.0670  142.4300 C   0  0  0  0  0  0  0  0  0  0  0  0
  185.6750  178.3940  144.5850 C   0  0  0  0  0  0  0  0  0  0  0  0
  191.1310  177.3010  138.2670 O   0  0  0  0  0  0  0  0  0  0  0  0
  193.3350  176.7070  138.4780 O   0  0  0  0  0  0  0  0  0  0  0  0
  192.1390  176.3360  138.3340 C   0  0  0  0  0  0  0  0  0  0  0  0
  191.8320  174.9800  138.1940 O   0  0  0  0  0  0  0  0  0  0  0  0
  191.4360  174.4250  136.9480 C   0  0  0  0  0  2  0  0  0  0  0  0
  189.9640  174.2110  136.9460 C   0  0  0  0  0  0  0  0  0  0  0  0
  189.1130  175.2490  136.5920 O   0  0  0  0  0  0  0  0  0  0  0  0
  189.4930  173.0800  137.2280 O   0  0  0  0  0  1  0  0  0  0  0  0
  1 10  1  0  0  0  0
  1 23  1  0  0  0  0
  2  3  1  0  0  0  0
  4 23  2  0  0  0  0
  4  5  1  0  0  0  0
  5 15  1  0  0  0  0
  5 24  1  0  0  0  0
  6 14  2  0  0  0  0
  6 20  1  0  0  0  0
  7 10  2  0  0  0  0
  8 22  1  0  0  0  0
  9  2  2  0  0  0  0
 10 11  1  0  0  0  0
 11  9  1  0  0  0  0
 11 18  2  0  0  0  0
 12 18  1  0  0  0  0
 12 19  2  0  0  0  0
 13  8  1  0  0  0  0
 14  7  1  0  0  0  0
 15 13  2  0  0  0  0
 16  6  1  0  0  0  0
 17  3  2  0  0  0  0
 18 17  1  0  0  0  0
 20  1  2  0  0  0  0
 21  4  1  0  0  0  0
 23 12  1  0  0  0  0
 24 19  1  0  0  0  0
 24  8  2  0  0  0  0
 25 27  1  0  0  0  0
 25 14  1  0  0  0  0
 27 26  2  0  0  0  0
 28 27  1  0  0  0  0
 29 28  1  0  0  0  0
 30 29  1  0  0  0  0
 30 32  1  0  0  0  0
 31 30  2  0  0  0  0
M  END
>  <MODEL>
8

>  <REMARK>
 VINA RESULT:      -9.6      1.252      2.146
  Name = 
  5 active torsions:
  status: ('A' for Active; 'I' for Inactive)
    1  A    between atoms: C_1  and  C_10
    2  A    between atoms: C_10  and  O_24
    3  A    between atoms: O_12  and  C_19
    4  A    between atoms: O_12  and  C_21
    5  A    between atoms: C_19  and  O_24
                            x       y       z     vdW  Elec       q    Type
                         _______ _______ _______ _____ _____    ______ ____

>  <TORSDO>
F 5

$$$$
=
 OpenBabel11052416453D

 32 36  0  0  0  0  0  0  0  0999 V2000
  185.9530  178.2800  143.4500 C   0  0  0  0  0  0  0  0  0  0  0  0
  189.3330  177.6780  139.9640 C   0  0  0  0  0  3  0  0  0  0  0  0
  190.2860  177.3800  140.9380 C   0  0  0  0  0  3  0  0  0  0  0  0
  186.6490  177.9560  145.8620 C   0  0  0  0  0  0  0  0  0  0  0  0
  187.6700  177.6510  146.7030 N   0  0  0  0  0  0  0  0  0  0  0  0
  183.6680  178.8680  142.7940 C   0  0  0  0  0  0  0  0  0  0  0  0
  185.3600  178.5880  141.1000 C   0  0  0  0  0  3  0  0  0  0  0  0
  189.7030  177.1090  147.3570 C   0  0  0  0  0  0  0  0  0  0  0  0
  188.0230  177.9760  140.3420 C   0  0  0  0  0  3  0  0  0  0  0  0
  186.3230  178.2810  142.0770 C   0  0  0  0  0  0  0  0  0  0  0  0
  187.6440  177.9800  141.6980 C   0  0  0  0  0  0  0  0  0  0  0  0
  188.2640  177.6760  144.0420 C   0  0  0  0  0  0  0  0  0  0  0  0
  188.8690  177.2440  148.4610 C   0  0  0  0  0  3  0  0  0  0  0  0
  184.0470  178.9010  141.4430 C   0  0  0  0  0  0  0  0  0  0  0  0
  187.6270  177.5780  148.0250 N   0  0  0  0  0  0  0  0  0  0  0  0
  182.3520  179.0930  143.1770 O   0  0  0  0  0  1  0  0  0  0  0  0
  189.9270  177.3800  142.2860 C   0  0  0  0  0  3  0  0  0  0  0  0
  188.6120  177.6780  142.6810 C   0  0  0  0  0  0  0  0  0  0  0  0
  189.2220  177.3800  144.9700 N   0  0  0  0  0  0  0  0  0  0  0  0
  184.6170  178.5700  143.7720 C   0  0  0  0  0  3  0  0  0  0  0  0
  185.3090  178.2530  146.4610 C   0  0  0  0  0  1  0  0  0  0  0  0
  191.1480  176.7530  147.3540 C   0  0  0  0  0  1  0  0  0  0  0  0
  186.9230  177.9790  144.4530 C   0  0  0  0  0  0  0  0  0  0  0  0
  188.9000  177.3750  146.2800 C   0  0  0  0  0  0  0  0  0  0  0  0
  183.1420  179.1990  140.4160 O   0  0  0  0  0  0  0  0  0  0  0  0
  184.1460  180.5050  138.8220 O   0  0  0  0  0  0  0  0  0  0  0  0
  183.5170  179.4470  139.0930 C   0  0  0  0  0  0  0  0  0  0  0  0
  183.1550  178.5590  138.0760 O   0  0  0  0  0  0  0  0  0  0  0  0
  183.8800  177.3620  137.8310 C   0  0  0  0  0  2  0  0  0  0  0  0
  183.0420  176.1910  138.2030 C   0  0  0  0  0  0  0  0  0  0  0  0
  182.6850  175.9860  139.5290 O   0  0  0  0  0  1  0  0  0  0  0  0
  182.6250  175.4090  137.3110 O   0  0  0  0  0  0  0  0  0  0  0  0
  1 20  1  0  0  0  0
  1 23  1  0  0  0  0
  2  9  2  0  0  0  0
  2  3  1  0  0  0  0
  3 17  2  0  0  0  0
  4 21  1  0  0  0  0
  4  5  1  0  0  0  0
  5 15  1  0  0  0  0
  6 16  1  0  0  0  0
  6 20  2  0  0  0  0
  7 14  2  0  0  0  0
  7 10  1  0  0  0  0
  8 13  1  0  0  0  0
  9 11  1  0  0  0  0
 10  1  2  0  0  0  0
 11 10  1  0  0  0  0
 11 18  2  0  0  0  0
 12 23  1  0  0  0  0
 12 19  2  0  0  0  0
 14  6  1  0  0  0  0
 15 13  2  0  0  0  0
 17 18  1  0  0  0  0
 18 12  1  0  0  0  0
 19 24  1  0  0  0  0
 22  8  1  0  0  0  0
 23  4  2  0  0  0  0
 24  5  1  0  0  0  0
 24  8  2  0  0  0  0
 25 14  1  0  0  0  0
 26 27  2  0  0  0  0
 27 25  1  0  0  0  0
 28 27  1  0  0  0  0
 29 28  1  0  0  0  0
 29 30  1  0  0  0  0
 30 31  1  0  0  0  0
 32 30  2  0  0  0  0
M  END
>  <MODEL>
9

>  <REMARK>
 VINA RESULT:      -9.6      4.939      7.025
  Name = 
  5 active torsions:
  status: ('A' for Active; 'I' for Inactive)
    1  A    between atoms: C_1  and  C_10
    2  A    between atoms: C_10  and  O_24
    3  A    between atoms: O_12  and  C_19
    4  A    between atoms: O_12  and  C_21
    5  A    between atoms: C_19  and  O_24
                            x       y       z     vdW  Elec       q    Type
                         _______ _______ _______ _____ _____    ______ ____

>  <TORSDO>
F 5

$$$$
