=
 OpenBabel11052413513D

 27 30  0  0  1  0  0  0  0  0999 V2000
  187.5250  178.4910  141.6140 N   0  0  0  0  0  2  0  0  0  0  0  0
  188.0740  177.9190  143.9900 C   0  0  2  0  0  3  0  0  0  0  0  0
  189.5410  176.5180  142.5920 C   0  0  0  0  0  2  0  0  0  0  0  0
  190.5270  177.0770  138.9850 C   0  0  0  0  0  3  0  0  0  0  0  0
  189.6010  178.0330  138.5650 C   0  0  0  0  0  0  0  0  0  0  0  0
  187.0510  177.8250  142.8230 C   0  0  1  0  0  3  0  0  0  0  0  0
  188.5490  177.9890  140.7520 C   0  0  0  0  0  0  0  0  0  0  0  0
  189.4570  177.5680  143.6280 N   0  0  1  0  0  0  0  0  0  0  0  0
  190.4790  176.5870  140.2920 C   0  0  0  0  0  3  0  0  0  0  0  0
  189.6530  178.5170  137.3000 F   0  0  0  0  0  0  0  0  0  0  0  0
  188.6190  178.4880  139.4470 C   0  0  0  0  0  3  0  0  0  0  0  0
  189.5010  177.0410  141.1840 C   0  0  0  0  0  0  0  0  0  0  0  0
  184.3440  179.9590  144.4340 C   0  0  0  0  0  3  0  0  0  0  0  0
  185.7140  178.3920  143.1870 C   0  0  0  0  0  0  0  0  0  0  0  0
  184.5660  177.8970  142.5560 C   0  0  0  0  0  3  0  0  0  0  0  0
  183.3110  178.4260  142.8700 C   0  0  0  0  0  3  0  0  0  0  0  0
  183.1990  179.4550  143.8090 C   0  0  0  0  0  3  0  0  0  0  0  0
  185.6000  179.4320  144.1220 C   0  0  0  0  0  3  0  0  0  0  0  0
  191.0060  179.2220  144.5300 C   0  0  0  0  0  2  0  0  0  0  0  0
  191.7090  178.4820  143.4150 C   0  0  0  0  0  2  0  0  0  0  0  0
  190.2230  178.7750  143.3080 C   0  0  0  0  0  3  0  0  0  0  0  0
  187.6810  177.1170  145.2440 C   0  0  2  0  0  3  0  0  0  0  0  0
  186.2250  177.3040  145.6580 C   0  0  0  0  0  1  0  0  0  0  0  0
  188.5040  178.2200  147.2080 O   0  0  0  0  0  0  0  0  0  0  0  0
  188.6460  177.2750  146.3880 C   0  0  0  0  0  0  0  0  0  0  0  0
  190.8970  176.7590  147.2620 C   0  0  0  0  0  1  0  0  0  0  0  0
  189.7190  176.3970  146.5580 O   0  0  0  0  0  0  0  0  0  0  0  0
  1  6  1  0  0  0  0
  2 22  1  1  0  0  0
  3  8  1  0  0  0  0
  4  9  1  0  0  0  0
  5  4  2  0  0  0  0
  5 11  1  0  0  0  0
  6 14  1  1  0  0  0
  6  2  1  0  0  0  0
  7 12  1  0  0  0  0
  7  1  1  0  0  0  0
  8 21  1  6  0  0  0
  8  2  1  0  0  0  0
  9 12  2  0  0  0  0
 10  5  1  0  0  0  0
 11  7  2  0  0  0  0
 12  3  1  0  0  0  0
 14 18  2  0  0  0  0
 15 16  2  0  0  0  0
 15 14  1  0  0  0  0
 16 17  1  0  0  0  0
 17 13  2  0  0  0  0
 18 13  1  0  0  0  0
 20 19  1  0  0  0  0
 21 20  1  0  0  0  0
 21 19  1  0  0  0  0
 22 23  1  1  0  0  0
 22 25  1  0  0  0  0
 25 27  1  0  0  0  0
 25 24  2  0  0  0  0
 27 26  1  0  0  0  0
M  END
>  <MODEL>
1

>  <REMARK>
 VINA RESULT:      -7.8      0.000      0.000
  Name = 
  5 active torsions:
  status: ('A' for Active; 'I' for Inactive)
    1  A    between atoms: C_2  and  C_6
    2  A    between atoms: C_6  and  C_17
    3  A    between atoms: C_9  and  C_15
    4  A    between atoms: C_14  and  N_19
    5  A    between atoms: O_16  and  C_17
                            x       y       z     vdW  Elec       q    Type
                         _______ _______ _______ _____ _____    ______ ____

>  <TORSDO>
F 5

$$$$
=
 OpenBabel11052413513D

 27 30  0  0  1  0  0  0  0  0999 V2000
  187.6670  178.0880  142.6780 N   0  0  0  0  0  2  0  0  0  0  0  0
  188.6660  177.9610  144.9710 C   0  0  2  0  0  3  0  0  0  0  0  0
  190.0740  176.5420  143.5310 C   0  0  0  0  0  2  0  0  0  0  0  0
  190.3800  176.6470  139.7640 C   0  0  0  0  0  3  0  0  0  0  0  0
  189.2710  177.4100  139.3930 C   0  0  0  0  0  0  0  0  0  0  0  0
  187.4930  177.5670  144.0290 C   0  0  1  0  0  3  0  0  0  0  0  0
  188.6010  177.5830  141.7200 C   0  0  0  0  0  0  0  0  0  0  0  0
  190.0090  177.7230  144.4170 N   0  0  1  0  0  0  0  0  0  0  0  0
  190.6120  176.3630  141.1110 C   0  0  0  0  0  3  0  0  0  0  0  0
  189.0500  177.6940  138.0870 F   0  0  0  0  0  0  0  0  0  0  0  0
  188.3880  177.8770  140.3690 C   0  0  0  0  0  3  0  0  0  0  0  0
  189.7350  176.8310  142.0960 C   0  0  0  0  0  0  0  0  0  0  0  0
  184.5240  178.1740  146.3290 C   0  0  0  0  0  3  0  0  0  0  0  0
  186.1650  178.0220  144.5490 C   0  0  0  0  0  0  0  0  0  0  0  0
  185.3320  178.7860  143.7220 C   0  0  0  0  0  3  0  0  0  0  0  0
  184.0960  179.2350  144.1960 C   0  0  0  0  0  3  0  0  0  0  0  0
  183.6900  178.9280  145.4970 C   0  0  0  0  0  3  0  0  0  0  0  0
  185.7600  177.7240  145.8580 C   0  0  0  0  0  3  0  0  0  0  0  0
  191.6310  179.5240  144.6830 C   0  0  0  0  0  2  0  0  0  0  0  0
  191.9920  178.7500  143.4360 C   0  0  0  0  0  2  0  0  0  0  0  0
  190.5340  178.9470  143.8070 C   0  0  0  0  0  3  0  0  0  0  0  0
  188.5970  177.3220  146.3700 C   0  0  2  0  0  3  0  0  0  0  0  0
  187.6750  178.0600  147.3340 C   0  0  0  0  0  1  0  0  0  0  0  0
  190.4510  177.7880  147.8190 O   0  0  0  0  0  0  0  0  0  0  0  0
  189.9480  177.0160  146.9600 C   0  0  0  0  0  0  0  0  0  0  0  0
  192.0510  175.7260  146.8680 C   0  0  0  0  0  1  0  0  0  0  0  0
  190.6740  175.8900  146.5640 O   0  0  0  0  0  0  0  0  0  0  0  0
  1  6  1  0  0  0  0
  2 22  1  1  0  0  0
  3  8  1  0  0  0  0
  4  9  1  0  0  0  0
  5  4  2  0  0  0  0
  5 11  1  0  0  0  0
  6 14  1  1  0  0  0
  6  2  1  0  0  0  0
  7 12  1  0  0  0  0
  7  1  1  0  0  0  0
  8 21  1  6  0  0  0
  8  2  1  0  0  0  0
  9 12  2  0  0  0  0
 10  5  1  0  0  0  0
 11  7  2  0  0  0  0
 12  3  1  0  0  0  0
 14 18  2  0  0  0  0
 15 16  2  0  0  0  0
 15 14  1  0  0  0  0
 16 17  1  0  0  0  0
 17 13  2  0  0  0  0
 18 13  1  0  0  0  0
 20 21  1  0  0  0  0
 20 19  1  0  0  0  0
 21 19  1  0  0  0  0
 22 25  1  0  0  0  0
 22 23  1  1  0  0  0
 25 24  2  0  0  0  0
 27 26  1  0  0  0  0
 27 25  1  0  0  0  0
M  END
>  <MODEL>
2

>  <REMARK>
 VINA RESULT:      -7.2      1.109      1.454
  Name = 
  5 active torsions:
  status: ('A' for Active; 'I' for Inactive)
    1  A    between atoms: C_2  and  C_6
    2  A    between atoms: C_6  and  C_17
    3  A    between atoms: C_9  and  C_15
    4  A    between atoms: C_14  and  N_19
    5  A    between atoms: O_16  and  C_17
                            x       y       z     vdW  Elec       q    Type
                         _______ _______ _______ _____ _____    ______ ____

>  <TORSDO>
F 5

$$$$
=
 OpenBabel11052413513D

 27 30  0  0  1  0  0  0  0  0999 V2000
  185.7880  178.8060  139.9840 N   0  0  0  0  0  2  0  0  0  0  0  0
  184.4110  178.1630  137.9930 C   0  0  2  0  0  3  0  0  0  0  0  0
  183.0810  177.5470  139.9730 C   0  0  0  0  0  2  0  0  0  0  0  0
  183.4280  178.8680  143.4990 C   0  0  0  0  0  3  0  0  0  0  0  0
  184.6780  179.4880  143.4660 C   0  0  0  0  0  0  0  0  0  0  0  0
  185.6590  177.8690  138.8730 C   0  0  1  0  0  3  0  0  0  0  0  0
  184.9670  178.8050  141.1550 C   0  0  0  0  0  0  0  0  0  0  0  0
  183.1600  178.3620  138.7440 N   0  0  1  0  0  0  0  0  0  0  0  0
  182.9360  178.2290  142.3590 C   0  0  0  0  0  3  0  0  0  0  0  0
  185.1520  180.1170  144.5690 F   0  0  0  0  0  0  0  0  0  0  0  0
  185.4410  179.4580  142.2970 C   0  0  0  0  0  3  0  0  0  0  0  0
  183.6920  178.1980  141.1820 C   0  0  0  0  0  0  0  0  0  0  0  0
  188.2380  178.6390  136.1850 C   0  0  0  0  0  3  0  0  0  0  0  0
  186.9320  177.8860  138.0850 C   0  0  0  0  0  0  0  0  0  0  0  0
  188.0430  177.1820  138.5650 C   0  0  0  0  0  3  0  0  0  0  0  0
  189.2450  177.2010  137.8510 C   0  0  0  0  0  3  0  0  0  0  0  0
  189.3430  177.9270  136.6610 C   0  0  0  0  0  3  0  0  0  0  0  0
  187.0350  178.6220  136.8960 C   0  0  0  0  0  3  0  0  0  0  0  0
  181.8710  180.2890  137.9870 C   0  0  0  0  0  2  0  0  0  0  0  0
  181.4880  180.0040  139.4220 C   0  0  0  0  0  2  0  0  0  0  0  0
  182.9200  179.7900  138.9650 C   0  0  0  0  0  3  0  0  0  0  0  0
  184.1550  177.1210  136.8890 C   0  0  2  0  0  3  0  0  0  0  0  0
  182.8010  177.2750  136.2040 C   0  0  0  0  0  1  0  0  0  0  0  0
  183.6200  175.0840  138.0380 O   0  0  0  0  0  0  0  0  0  0  0  0
  184.4440  175.7060  137.3160 C   0  0  0  0  0  0  0  0  0  0  0  0
  186.1840  175.1910  135.6420 C   0  0  0  0  0  1  0  0  0  0  0  0
  185.6260  175.0630  136.9410 O   0  0  0  0  0  0  0  0  0  0  0  0
  1  7  1  0  0  0  0
  2 22  1  6  0  0  0
  2  8  1  0  0  0  0
  2  6  1  0  0  0  0
  3 12  1  0  0  0  0
  5  4  1  0  0  0  0
  5 10  1  0  0  0  0
  6 14  1  6  0  0  0
  6  1  1  0  0  0  0
  7 12  2  0  0  0  0
  7 11  1  0  0  0  0
  8 21  1  1  0  0  0
  8  3  1  0  0  0  0
  9  4  2  0  0  0  0
 11  5  2  0  0  0  0
 12  9  1  0  0  0  0
 13 17  2  0  0  0  0
 13 18  1  0  0  0  0
 14 15  1  0  0  0  0
 16 15  2  0  0  0  0
 17 16  1  0  0  0  0
 18 14  2  0  0  0  0
 19 21  1  0  0  0  0
 19 20  1  0  0  0  0
 21 20  1  0  0  0  0
 22 23  1  1  0  0  0
 22 25  1  0  0  0  0
 25 24  2  0  0  0  0
 26 27  1  0  0  0  0
 27 25  1  0  0  0  0
M  END
>  <MODEL>
3

>  <REMARK>
 VINA RESULT:      -6.8      4.836      8.312
  Name = 
  5 active torsions:
  status: ('A' for Active; 'I' for Inactive)
    1  A    between atoms: C_2  and  C_6
    2  A    between atoms: C_6  and  C_17
    3  A    between atoms: C_9  and  C_15
    4  A    between atoms: C_14  and  N_19
    5  A    between atoms: O_16  and  C_17
                            x       y       z     vdW  Elec       q    Type
                         _______ _______ _______ _____ _____    ______ ____

>  <TORSDO>
F 5

$$$$
=
 OpenBabel11052413513D

 27 30  0  0  1  0  0  0  0  0999 V2000
  192.3910  176.8520  139.1450 N   0  0  0  0  0  2  0  0  0  0  0  0
  191.0050  176.3390  137.1220 C   0  0  2  0  0  3  0  0  0  0  0  0
  189.5000  176.1090  139.0580 C   0  0  0  0  0  2  0  0  0  0  0  0
  189.9340  177.5750  142.5170 C   0  0  0  0  0  3  0  0  0  0  0  0
  191.2770  177.9530  142.5170 C   0  0  0  0  0  0  0  0  0  0  0  0
  192.1380  175.8820  138.0840 C   0  0  1  0  0  3  0  0  0  0  0  0
  191.5340  177.0780  140.2680 C   0  0  0  0  0  0  0  0  0  0  0  0
  189.7820  176.8130  137.7910 N   0  0  1  0  0  0  0  0  0  0  0  0
  189.3820  176.9620  141.3900 C   0  0  0  0  0  3  0  0  0  0  0  0
  191.8110  178.5570  143.6060 F   0  0  0  0  0  0  0  0  0  0  0  0
  192.0710  177.7080  141.3950 C   0  0  0  0  0  3  0  0  0  0  0  0
  190.1690  176.7170  140.2600 C   0  0  0  0  0  0  0  0  0  0  0  0
  195.0180  176.1240  135.6090 C   0  0  0  0  0  3  0  0  0  0  0  0
  193.4250  175.6150  137.3670 C   0  0  0  0  0  0  0  0  0  0  0  0
  194.2750  174.6080  137.8400 C   0  0  0  0  0  3  0  0  0  0  0  0
  195.4890  174.3560  137.1940 C   0  0  0  0  0  3  0  0  0  0  0  0
  195.8600  175.1110  136.0780 C   0  0  0  0  0  3  0  0  0  0  0  0
  193.8040  176.3790  136.2530 C   0  0  0  0  0  3  0  0  0  0  0  0
  188.9220  178.8890  136.8440 C   0  0  0  0  0  2  0  0  0  0  0  0
  188.4110  178.7750  138.2620 C   0  0  0  0  0  2  0  0  0  0  0  0
  189.8010  178.2720  137.9170 C   0  0  0  0  0  3  0  0  0  0  0  0
  190.6090  175.2910  136.0670 C   0  0  2  0  0  3  0  0  0  0  0  0
  189.3060  175.6140  135.3440 C   0  0  0  0  0  1  0  0  0  0  0  0
  189.7960  173.4530  137.3760 O   0  0  0  0  0  0  0  0  0  0  0  0
  190.6700  173.8740  136.5730 C   0  0  0  0  0  0  0  0  0  0  0  0
  192.3220  173.0980  134.9110 C   0  0  0  0  0  1  0  0  0  0  0  0
  191.6930  173.0080  136.1800 O   0  0  0  0  0  0  0  0  0  0  0  0
  1  7  1  0  0  0  0
  2 22  1  6  0  0  0
  2  8  1  0  0  0  0
  2  6  1  0  0  0  0
  3 12  1  0  0  0  0
  5  4  1  0  0  0  0
  5 10  1  0  0  0  0
  6 14  1  6  0  0  0
  6  1  1  0  0  0  0
  7 11  1  0  0  0  0
  8 21  1  1  0  0  0
  8  3  1  0  0  0  0
  9  4  2  0  0  0  0
 11  5  2  0  0  0  0
 12  7  2  0  0  0  0
 12  9  1  0  0  0  0
 13 17  2  0  0  0  0
 13 18  1  0  0  0  0
 14 15  1  0  0  0  0
 16 15  2  0  0  0  0
 17 16  1  0  0  0  0
 18 14  2  0  0  0  0
 19 21  1  0  0  0  0
 19 20  1  0  0  0  0
 21 20  1  0  0  0  0
 22 23  1  1  0  0  0
 22 25  1  0  0  0  0
 25 24  2  0  0  0  0
 26 27  1  0  0  0  0
 27 25  1  0  0  0  0
M  END
>  <MODEL>
4

>  <REMARK>
 VINA RESULT:      -6.5      4.789      8.976
  Name = 
  5 active torsions:
  status: ('A' for Active; 'I' for Inactive)
    1  A    between atoms: C_2  and  C_6
    2  A    between atoms: C_6  and  C_17
    3  A    between atoms: C_9  and  C_15
    4  A    between atoms: C_14  and  N_19
    5  A    between atoms: O_16  and  C_17
                            x       y       z     vdW  Elec       q    Type
                         _______ _______ _______ _____ _____    ______ ____

>  <TORSDO>
F 5

$$$$
=
 OpenBabel11052413513D

 27 30  0  0  1  0  0  0  0  0999 V2000
  191.2370  175.6410  139.0330 N   0  0  0  0  0  2  0  0  0  0  0  0
  189.0650  176.8810  138.8940 C   0  0  2  0  0  3  0  0  0  0  0  0
  190.0880  177.0380  136.6590 C   0  0  0  0  0  2  0  0  0  0  0  0
  192.7550  174.8100  135.1690 C   0  0  0  0  0  3  0  0  0  0  0  0
  193.2450  174.1370  136.2890 C   0  0  0  0  0  0  0  0  0  0  0  0
  190.5210  176.8450  139.4400 C   0  0  1  0  0  3  0  0  0  0  0  0
  191.7290  175.3870  137.7150 C   0  0  0  0  0  0  0  0  0  0  0  0
  188.9370  176.5750  137.4590 N   0  0  1  0  0  0  0  0  0  0  0  0
  191.7420  175.7600  135.3140 C   0  0  0  0  0  3  0  0  0  0  0  0
  194.2210  173.2080  136.1490 F   0  0  0  0  0  0  0  0  0  0  0  0
  192.7310  174.4240  137.5560 C   0  0  0  0  0  3  0  0  0  0  0  0
  191.2180  176.0500  136.5780 C   0  0  0  0  0  0  0  0  0  0  0  0
  189.8260  176.2630  143.1350 C   0  0  0  0  0  3  0  0  0  0  0  0
  190.5750  176.9510  140.9320 C   0  0  0  0  0  0  0  0  0  0  0  0
  191.4930  177.8280  141.5230 C   0  0  0  0  0  3  0  0  0  0  0  0
  191.5700  177.9280  142.9150 C   0  0  0  0  0  3  0  0  0  0  0  0
  190.7370  177.1480  143.7210 C   0  0  0  0  0  3  0  0  0  0  0  0
  189.7470  176.1620  141.7430 C   0  0  0  0  0  3  0  0  0  0  0  0
  187.1210  175.0010  137.0460 C   0  0  0  0  0  2  0  0  0  0  0  0
  188.0650  174.9450  135.8670 C   0  0  0  0  0  2  0  0  0  0  0  0
  188.6150  175.1590  137.2660 C   0  0  0  0  0  3  0  0  0  0  0  0
  188.3130  178.1930  139.1810 C   0  0  2  0  0  3  0  0  0  0  0  0
  187.8450  178.3260  140.6260 C   0  0  0  0  0  1  0  0  0  0  0  0
  187.4550  179.3060  137.2370 O   0  0  0  0  0  0  0  0  0  0  0  0
  187.2320  178.5000  138.1790 C   0  0  0  0  0  0  0  0  0  0  0  0
  184.8090  178.6620  138.6240 C   0  0  0  0  0  1  0  0  0  0  0  0
  185.9660  177.9170  138.2770 O   0  0  0  0  0  0  0  0  0  0  0  0
  1  6  1  0  0  0  0
  2 22  1  6  0  0  0
  2  6  1  0  0  0  0
  3  8  1  0  0  0  0
  4  9  2  0  0  0  0
  4  5  1  0  0  0  0
  5 11  2  0  0  0  0
  6 14  1  1  0  0  0
  7  1  1  0  0  0  0
  8 21  1  1  0  0  0
  8  2  1  0  0  0  0
  9 12  1  0  0  0  0
 10  5  1  0  0  0  0
 11  7  1  0  0  0  0
 12  3  1  0  0  0  0
 12  7  2  0  0  0  0
 13 17  1  0  0  0  0
 14 15  2  0  0  0  0
 14 18  1  0  0  0  0
 15 16  1  0  0  0  0
 16 17  2  0  0  0  0
 18 13  2  0  0  0  0
 19 21  1  0  0  0  0
 20 19  1  0  0  0  0
 20 21  1  0  0  0  0
 22 23  1  1  0  0  0
 24 25  2  0  0  0  0
 25 27  1  0  0  0  0
 25 22  1  0  0  0  0
 27 26  1  0  0  0  0
M  END
>  <MODEL>
5

>  <REMARK>
 VINA RESULT:      -6.5      4.200      7.028
  Name = 
  5 active torsions:
  status: ('A' for Active; 'I' for Inactive)
    1  A    between atoms: C_2  and  C_6
    2  A    between atoms: C_6  and  C_17
    3  A    between atoms: C_9  and  C_15
    4  A    between atoms: C_14  and  N_19
    5  A    between atoms: O_16  and  C_17
                            x       y       z     vdW  Elec       q    Type
                         _______ _______ _______ _____ _____    ______ ____

>  <TORSDO>
F 5

$$$$
=
 OpenBabel11052413513D

 27 30  0  0  1  0  0  0  0  0999 V2000
  191.3280  176.1070  138.7210 N   0  0  0  0  0  2  0  0  0  0  0  0
  188.9790  176.0550  137.8510 C   0  0  2  0  0  3  0  0  0  0  0  0
  190.4380  176.2080  135.8730 C   0  0  0  0  0  2  0  0  0  0  0  0
  194.1050  175.3190  135.6240 C   0  0  0  0  0  3  0  0  0  0  0  0
  194.4860  175.2340  136.9640 C   0  0  0  0  0  0  0  0  0  0  0  0
  190.0830  176.8590  138.5950 C   0  0  1  0  0  3  0  0  0  0  0  0
  192.2410  175.8510  137.6500 C   0  0  0  0  0  0  0  0  0  0  0  0
  189.4160  175.4240  136.5950 N   0  0  1  0  0  0  0  0  0  0  0  0
  192.7910  175.6530  135.2920 C   0  0  0  0  0  3  0  0  0  0  0  0
  195.7580  174.9000  137.2870 F   0  0  0  0  0  0  0  0  0  0  0  0
  193.5550  175.4970  137.9710 C   0  0  0  0  0  3  0  0  0  0  0  0
  191.8500  175.9130  136.2950 C   0  0  0  0  0  0  0  0  0  0  0  0
  188.2210  178.6180  141.4080 C   0  0  0  0  0  3  0  0  0  0  0  0
  189.6510  177.2980  139.9590 C   0  0  0  0  0  0  0  0  0  0  0  0
  190.2640  176.7340  141.0850 C   0  0  0  0  0  3  0  0  0  0  0  0
  189.8610  177.1180  142.3680 C   0  0  0  0  0  3  0  0  0  0  0  0
  188.8420  178.0610  142.5300 C   0  0  0  0  0  3  0  0  0  0  0  0
  188.6210  178.2350  140.1250 C   0  0  0  0  0  3  0  0  0  0  0  0
  188.6270  173.1180  136.5130 C   0  0  0  0  0  2  0  0  0  0  0  0
  189.7600  173.2600  135.5220 C   0  0  0  0  0  2  0  0  0  0  0  0
  189.7980  174.0300  136.8300 C   0  0  0  0  0  3  0  0  0  0  0  0
  187.6930  176.8530  137.5740 C   0  0  2  0  0  3  0  0  0  0  0  0
  186.4950  175.9790  137.2200 C   0  0  0  0  0  1  0  0  0  0  0  0
  188.2220  179.1350  137.0560 O   0  0  0  0  0  0  0  0  0  0  0  0
  187.8900  178.0010  136.6190 C   0  0  0  0  0  0  0  0  0  0  0  0
  186.4980  178.2310  134.5940 C   0  0  0  0  0  1  0  0  0  0  0  0
  187.6980  177.8430  135.2450 O   0  0  0  0  0  0  0  0  0  0  0  0
  2 22  1  6  0  0  0
  2  6  1  0  0  0  0
  3 12  1  0  0  0  0
  3  8  1  0  0  0  0
  4  5  1  0  0  0  0
  5 10  1  0  0  0  0
  5 11  2  0  0  0  0
  6  1  1  0  0  0  0
  6 14  1  1  0  0  0
  7 11  1  0  0  0  0
  7  1  1  0  0  0  0
  8 21  1  1  0  0  0
  8  2  1  0  0  0  0
  9  4  2  0  0  0  0
  9 12  1  0  0  0  0
 12  7  2  0  0  0  0
 13 17  1  0  0  0  0
 14 18  1  0  0  0  0
 14 15  2  0  0  0  0
 15 16  1  0  0  0  0
 16 17  2  0  0  0  0
 18 13  2  0  0  0  0
 19 21  1  0  0  0  0
 20 19  1  0  0  0  0
 20 21  1  0  0  0  0
 22 23  1  6  0  0  0
 25 24  2  0  0  0  0
 25 22  1  0  0  0  0
 26 27  1  0  0  0  0
 27 25  1  0  0  0  0
M  END
>  <MODEL>
6

>  <REMARK>
 VINA RESULT:      -6.4      4.693      7.565
  Name = 
  5 active torsions:
  status: ('A' for Active; 'I' for Inactive)
    1  A    between atoms: C_2  and  C_6
    2  A    between atoms: C_6  and  C_17
    3  A    between atoms: C_9  and  C_15
    4  A    between atoms: C_14  and  N_19
    5  A    between atoms: O_16  and  C_17
                            x       y       z     vdW  Elec       q    Type
                         _______ _______ _______ _____ _____    ______ ____

>  <TORSDO>
F 5

$$$$
=
 OpenBabel11052413513D

 27 30  0  0  1  0  0  0  0  0999 V2000
  183.9190  178.4180  139.9980 N   0  0  0  0  0  2  0  0  0  0  0  0
  182.4550  178.5910  137.9730 C   0  0  2  0  0  3  0  0  0  0  0  0
  180.9400  178.2580  139.8860 C   0  0  0  0  0  2  0  0  0  0  0  0
  181.6550  178.8880  143.5450 C   0  0  0  0  0  3  0  0  0  0  0  0
  183.0460  179.0030  143.5640 C   0  0  0  0  0  0  0  0  0  0  0  0
  183.4840  177.7470  138.7780 C   0  0  1  0  0  3  0  0  0  0  0  0
  183.1240  178.5670  141.1780 C   0  0  0  0  0  0  0  0  0  0  0  0
  181.3460  179.1390  138.7710 N   0  0  1  0  0  0  0  0  0  0  0  0
  180.9930  178.6290  142.3430 C   0  0  0  0  0  3  0  0  0  0  0  0
  183.6880  179.2640  144.7280 F   0  0  0  0  0  0  0  0  0  0  0  0
  183.7750  178.8460  142.3840 C   0  0  0  0  0  3  0  0  0  0  0  0
  181.7160  178.4750  141.1550 C   0  0  0  0  0  0  0  0  0  0  0  0
  186.9300  177.8970  137.1720 C   0  0  0  0  0  3  0  0  0  0  0  0
  184.6940  177.3960  137.9690 C   0  0  0  0  0  0  0  0  0  0  0  0
  184.7280  176.1760  137.2830 C   0  0  0  0  0  3  0  0  0  0  0  0
  185.8560  175.8230  136.5370 C   0  0  0  0  0  3  0  0  0  0  0  0
  186.9560  176.6830  136.4790 C   0  0  0  0  0  3  0  0  0  0  0  0
  185.8030  178.2530  137.9180 C   0  0  0  0  0  3  0  0  0  0  0  0
  181.0770  181.4850  138.1640 C   0  0  0  0  0  2  0  0  0  0  0  0
  180.3490  181.2530  139.4690 C   0  0  0  0  0  2  0  0  0  0  0  0
  181.6430  180.5130  139.1830 C   0  0  0  0  0  3  0  0  0  0  0  0
  181.8640  177.8700  136.7480 C   0  0  2  0  0  3  0  0  0  0  0  0
  181.3430  178.8170  135.6730 C   0  0  0  0  0  1  0  0  0  0  0  0
  179.6520  176.9560  136.9100 O   0  0  0  0  0  0  0  0  0  0  0  0
  180.8840  176.7830  137.1040 C   0  0  0  0  0  0  0  0  0  0  0  0
  180.4600  174.7600  138.4530 C   0  0  0  0  0  1  0  0  0  0  0  0
  181.3120  175.5780  137.6660 O   0  0  0  0  0  0  0  0  0  0  0  0
  1  7  1  0  0  0  0
  2 22  1  6  0  0  0
  2  8  1  0  0  0  0
  2  6  1  0  0  0  0
  3 12  1  0  0  0  0
  4  5  1  0  0  0  0
  5 10  1  0  0  0  0
  6 14  1  6  0  0  0
  6  1  1  0  0  0  0
  7 11  1  0  0  0  0
  8 21  1  1  0  0  0
  8  3  1  0  0  0  0
  9  4  2  0  0  0  0
 11  5  2  0  0  0  0
 12  7  2  0  0  0  0
 12  9  1  0  0  0  0
 13 18  1  0  0  0  0
 15 14  1  0  0  0  0
 16 15  2  0  0  0  0
 17 16  1  0  0  0  0
 17 13  2  0  0  0  0
 18 14  2  0  0  0  0
 19 21  1  0  0  0  0
 19 20  1  0  0  0  0
 21 20  1  0  0  0  0
 22 23  1  6  0  0  0
 22 25  1  0  0  0  0
 24 25  2  0  0  0  0
 25 27  1  0  0  0  0
 27 26  1  0  0  0  0
M  END
>  <MODEL>
7

>  <REMARK>
 VINA RESULT:      -6.3      5.977      9.357
  Name = 
  5 active torsions:
  status: ('A' for Active; 'I' for Inactive)
    1  A    between atoms: C_2  and  C_6
    2  A    between atoms: C_6  and  C_17
    3  A    between atoms: C_9  and  C_15
    4  A    between atoms: C_14  and  N_19
    5  A    between atoms: O_16  and  C_17
                            x       y       z     vdW  Elec       q    Type
                         _______ _______ _______ _____ _____    ______ ____

>  <TORSDO>
F 5

$$$$
=
 OpenBabel11052413513D

 27 30  0  0  1  0  0  0  0  0999 V2000
  182.7940  180.5180  139.1220 N   0  0  0  0  0  2  0  0  0  0  0  0
  182.0090  178.1400  139.0710 C   0  0  2  0  0  3  0  0  0  0  0  0
  180.0580  179.5180  138.4700 C   0  0  0  0  0  2  0  0  0  0  0  0
  180.0420  183.0620  137.1510 C   0  0  0  0  0  3  0  0  0  0  0  0
  181.3410  183.4910  137.4270 C   0  0  0  0  0  0  0  0  0  0  0  0
  182.4640  179.3520  139.9340 C   0  0  1  0  0  3  0  0  0  0  0  0
  181.8380  181.3520  138.4610 C   0  0  0  0  0  0  0  0  0  0  0  0
  180.9940  178.4540  138.0520 N   0  0  1  0  0  0  0  0  0  0  0  0
  179.6410  181.7740  137.5130 C   0  0  0  0  0  3  0  0  0  0  0  0
  181.7340  184.7370  137.0670 F   0  0  0  0  0  0  0  0  0  0  0  0
  182.2350  182.6370  138.0770 C   0  0  0  0  0  3  0  0  0  0  0  0
  180.5320  180.9100  138.1610 C   0  0  0  0  0  0  0  0  0  0  0  0
  184.5760  178.3470  142.9340 C   0  0  0  0  0  3  0  0  0  0  0  0
  183.6390  179.0270  140.8020 C   0  0  0  0  0  0  0  0  0  0  0  0
  184.9260  179.0530  140.2500 C   0  0  0  0  0  3  0  0  0  0  0  0
  186.0340  178.7360  141.0410 C   0  0  0  0  0  3  0  0  0  0  0  0
  185.8600  178.3840  142.3820 C   0  0  0  0  0  3  0  0  0  0  0  0
  183.4670  178.6640  142.1460 C   0  0  0  0  0  3  0  0  0  0  0  0
  181.5950  177.4410  135.9170 C   0  0  0  0  0  2  0  0  0  0  0  0
  180.6090  178.5550  135.6450 C   0  0  0  0  0  2  0  0  0  0  0  0
  181.6320  178.7050  136.7570 C   0  0  0  0  0  3  0  0  0  0  0  0
  181.5200  176.9300  139.8870 C   0  0  2  0  0  3  0  0  0  0  0  0
  181.6090  175.6070  139.1330 C   0  0  0  0  0  1  0  0  0  0  0  0
  179.2190  176.3810  140.2820 O   0  0  0  0  0  0  0  0  0  0  0  0
  180.1840  177.1460  140.5460 C   0  0  0  0  0  0  0  0  0  0  0  0
  179.8890  177.9960  142.8450 C   0  0  0  0  0  1  0  0  0  0  0  0
  179.9790  178.1980  141.4430 O   0  0  0  0  0  0  0  0  0  0  0  0
  1  6  1  0  0  0  0
  2 22  1  1  0  0  0
  2  6  1  0  0  0  0
  4  5  2  0  0  0  0
  4  9  1  0  0  0  0
  5 11  1  0  0  0  0
  6 14  1  6  0  0  0
  7  1  1  0  0  0  0
  8 21  1  6  0  0  0
  8  3  1  0  0  0  0
  8  2  1  0  0  0  0
  9 12  2  0  0  0  0
 10  5  1  0  0  0  0
 11  7  2  0  0  0  0
 12  7  1  0  0  0  0
 12  3  1  0  0  0  0
 14 18  1  0  0  0  0
 15 14  2  0  0  0  0
 15 16  1  0  0  0  0
 16 17  2  0  0  0  0
 17 13  1  0  0  0  0
 18 13  2  0  0  0  0
 19 21  1  0  0  0  0
 20 19  1  0  0  0  0
 20 21  1  0  0  0  0
 22 23  1  6  0  0  0
 22 25  1  0  0  0  0
 24 25  2  0  0  0  0
 25 27  1  0  0  0  0
 27 26  1  0  0  0  0
M  END
>  <MODEL>
8

>  <REMARK>
 VINA RESULT:      -6.3      6.128      9.097
  Name = 
  5 active torsions:
  status: ('A' for Active; 'I' for Inactive)
    1  A    between atoms: C_2  and  C_6
    2  A    between atoms: C_6  and  C_17
    3  A    between atoms: C_9  and  C_15
    4  A    between atoms: C_14  and  N_19
    5  A    between atoms: O_16  and  C_17
                            x       y       z     vdW  Elec       q    Type
                         _______ _______ _______ _____ _____    ______ ____

>  <TORSDO>
F 5

$$$$
=
 OpenBabel11052413513D

 27 30  0  0  1  0  0  0  0  0999 V2000
  192.2980  176.7540  139.1120 N   0  0  0  0  0  2  0  0  0  0  0  0
  190.8700  176.3730  137.0900 C   0  0  2  0  0  3  0  0  0  0  0  0
  189.3630  176.2130  139.0320 C   0  0  0  0  0  2  0  0  0  0  0  0
  189.9150  177.5870  142.5120 C   0  0  0  0  0  3  0  0  0  0  0  0
  191.2810  177.8720  142.5090 C   0  0  0  0  0  0  0  0  0  0  0  0
  191.9740  175.8230  138.0370 C   0  0  1  0  0  3  0  0  0  0  0  0
  191.4650  177.0190  140.2440 C   0  0  0  0  0  0  0  0  0  0  0  0
  189.6850  176.9180  137.7740 N   0  0  1  0  0  0  0  0  0  0  0  0
  189.3160  177.0330  141.3780 C   0  0  0  0  0  3  0  0  0  0  0  0
  191.8610  178.4190  143.6050 F   0  0  0  0  0  0  0  0  0  0  0  0
  192.0500  177.5920  141.3780 C   0  0  0  0  0  3  0  0  0  0  0  0
  190.0780  176.7530  140.2390 C   0  0  0  0  0  0  0  0  0  0  0  0
  194.9830  176.0350  135.7190 C   0  0  0  0  0  3  0  0  0  0  0  0
  193.2350  175.4800  137.3070 C   0  0  0  0  0  0  0  0  0  0  0  0
  193.8800  174.2690  137.5870 C   0  0  0  0  0  3  0  0  0  0  0  0
  195.0690  173.9400  136.9280 C   0  0  0  0  0  3  0  0  0  0  0  0
  195.6190  174.8210  135.9930 C   0  0  0  0  0  3  0  0  0  0  0  0
  193.7960  176.3670  136.3760 C   0  0  0  0  0  3  0  0  0  0  0  0
  188.9970  179.0640  136.8440 C   0  0  0  0  0  2  0  0  0  0  0  0
  188.4470  178.9650  138.2480 C   0  0  0  0  0  2  0  0  0  0  0  0
  189.8060  178.3700  137.9250 C   0  0  0  0  0  3  0  0  0  0  0  0
  190.3970  175.3730  136.0200 C   0  0  2  0  0  3  0  0  0  0  0  0
  189.9420  176.0330  134.7230 C   0  0  0  0  0  1  0  0  0  0  0  0
  189.8270  173.3780  137.2250 O   0  0  0  0  0  0  0  0  0  0  0  0
  189.4190  174.3520  136.5400 C   0  0  0  0  0  0  0  0  0  0  0  0
  187.0820  173.6530  136.9230 C   0  0  0  0  0  1  0  0  0  0  0  0
  188.0530  174.4520  136.2650 O   0  0  0  0  0  0  0  0  0  0  0  0
  1  7  1  0  0  0  0
  2 22  1  6  0  0  0
  2  8  1  0  0  0  0
  2  6  1  0  0  0  0
  3 12  1  0  0  0  0
  5  4  1  0  0  0  0
  5 10  1  0  0  0  0
  6 14  1  6  0  0  0
  6  1  1  0  0  0  0
  7 11  1  0  0  0  0
  8 21  1  1  0  0  0
  8  3  1  0  0  0  0
  9  4  2  0  0  0  0
 11  5  2  0  0  0  0
 12  7  2  0  0  0  0
 12  9  1  0  0  0  0
 13 17  2  0  0  0  0
 13 18  1  0  0  0  0
 14 15  1  0  0  0  0
 16 15  2  0  0  0  0
 17 16  1  0  0  0  0
 18 14  2  0  0  0  0
 19 21  1  0  0  0  0
 19 20  1  0  0  0  0
 21 20  1  0  0  0  0
 22 23  1  6  0  0  0
 22 25  1  0  0  0  0
 25 24  2  0  0  0  0
 27 25  1  0  0  0  0
 27 26  1  0  0  0  0
M  END
>  <MODEL>
9

>  <REMARK>
 VINA RESULT:      -6.3      4.798      8.873
  Name = 
  5 active torsions:
  status: ('A' for Active; 'I' for Inactive)
    1  A    between atoms: C_2  and  C_6
    2  A    between atoms: C_6  and  C_17
    3  A    between atoms: C_9  and  C_15
    4  A    between atoms: C_14  and  N_19
    5  A    between atoms: O_16  and  C_17
                            x       y       z     vdW  Elec       q    Type
                         _______ _______ _______ _____ _____    ______ ____

>  <TORSDO>
F 5

$$$$
