=
 OpenBabel11052413393D

 27 31  0  0  1  0  0  0  0  0999 V2000
  187.5560  177.9260  142.2290 N   0  0  0  0  0  0  0  0  0  0  0  0
  186.7160  177.4850  144.3340 C   0  0  2  0  0  3  0  0  0  0  0  0
  189.9780  176.9050  142.8060 N   0  0  0  0  0  0  0  0  0  0  0  0
  189.6290  177.4920  147.5220 C   0  0  0  0  0  3  0  0  0  0  0  0
  191.0020  177.3230  147.5970 C   0  0  0  0  0  3  0  0  0  0  0  0
  187.6380  177.1290  146.4920 N   0  0  0  0  0  2  0  0  0  0  0  0
  191.0200  176.5630  145.3020 C   0  0  0  0  0  0  0  0  0  0  0  0
  190.1690  177.3060  139.0720 C   0  0  0  0  0  2  0  0  0  0  0  0
  191.7840  175.9910  144.2890 O   0  0  0  0  0  1  0  0  0  0  0  0
  189.3240  178.4980  139.0490 N   0  0  0  0  0  0  0  0  0  0  0  0
  189.6270  176.8820  145.1360 C   0  0  0  0  0  0  0  0  0  0  0  0
  187.7840  177.5160  143.5110 C   0  0  0  0  0  0  0  0  0  0  0  0
  191.6840  176.8180  146.5030 C   0  0  0  0  0  3  0  0  0  0  0  0
  188.9220  177.2050  146.3520 C   0  0  0  0  0  0  0  0  0  0  0  0
  188.4770  177.8380  141.2460 C   0  0  0  0  0  0  0  0  0  0  0  0
  189.1060  177.0360  143.8520 C   0  0  0  0  0  0  0  0  0  0  0  0
  190.7590  177.1180  140.4710 C   0  0  0  0  0  2  0  0  0  0  0  0
  186.7350  176.5950  145.5090 C   0  0  0  0  0  2  0  0  0  0  0  0
  188.8890  178.6770  137.6760 C   0  0  0  0  0  1  0  0  0  0  0  0
  188.1220  178.2270  139.8390 C   0  0  0  0  0  2  0  0  0  0  0  0
  189.7000  177.2440  141.5260 C   0  0  0  0  0  0  0  0  0  0  0  0
  182.9570  179.3580  143.4050 C   0  0  0  0  0  3  0  0  0  0  0  0
  185.4260  178.1570  144.0130 C   0  0  0  0  0  0  0  0  0  0  0  0
  184.9160  178.1220  142.7040 C   0  0  0  0  0  3  0  0  0  0  0  0
  183.6910  178.7220  142.4010 C   0  0  0  0  0  3  0  0  0  0  0  0
  183.4450  179.3900  144.7130 C   0  0  0  0  0  3  0  0  0  0  0  0
  184.6700  178.7890  145.0160 C   0  0  0  0  0  3  0  0  0  0  0  0
  1 12  1  0  0  0  0
  2 23  1  6  0  0  0
  2 18  1  0  0  0  0
  3 16  1  0  0  0  0
  4  5  1  0  0  0  0
  7 13  1  0  0  0  0
  8 17  1  0  0  0  0
  9  7  1  0  0  0  0
 10  8  1  0  0  0  0
 10 20  1  0  0  0  0
 11  7  2  0  0  0  0
 11 14  1  0  0  0  0
 12 16  2  0  0  0  0
 12  2  1  0  0  0  0
 13  5  2  0  0  0  0
 14  6  1  0  0  0  0
 14  4  2  0  0  0  0
 15 21  1  0  0  0  0
 15  1  2  0  0  0  0
 16 11  1  0  0  0  0
 17 21  1  0  0  0  0
 18  6  1  0  0  0  0
 19 10  1  0  0  0  0
 20 15  1  0  0  0  0
 21  3  2  0  0  0  0
 22 26  1  0  0  0  0
 23 27  1  0  0  0  0
 24 23  2  0  0  0  0
 25 24  1  0  0  0  0
 25 22  2  0  0  0  0
 26 27  2  0  0  0  0
M  END
>  <MODEL>
1

>  <REMARK>
 VINA RESULT:     -10.6      0.000      0.000
  Name = 
  1 active torsions:
  status: ('A' for Active; 'I' for Inactive)
    1  A    between atoms: C_2  and  C_9
                            x       y       z     vdW  Elec       q    Type
                         _______ _______ _______ _____ _____    ______ ____

>  <TORSDO>
F 1

$$$$
=
 OpenBabel11052413393D

 27 31  0  0  1  0  0  0  0  0999 V2000
  187.5090  177.9360  142.8300 N   0  0  0  0  0  0  0  0  0  0  0  0
  189.7770  177.7360  142.4470 C   0  0  2  0  0  3  0  0  0  0  0  0
  187.8090  178.0760  145.5000 N   0  0  0  0  0  0  0  0  0  0  0  0
  192.0260  175.8590  145.6200 C   0  0  0  0  0  3  0  0  0  0  0  0
  191.8320  175.6660  146.9780 C   0  0  0  0  0  3  0  0  0  0  0  0
  191.6590  177.0320  143.7110 N   0  0  0  0  0  2  0  0  0  0  0  0
  189.9690  177.2050  146.9180 C   0  0  0  0  0  0  0  0  0  0  0  0
  184.2100  179.0730  145.0660 C   0  0  0  0  0  2  0  0  0  0  0  0
  189.0480  177.9220  147.6770 O   0  0  0  0  0  1  0  0  0  0  0  0
  183.9980  178.2070  143.9080 N   0  0  0  0  0  0  0  0  0  0  0  0
  190.0350  177.3030  145.4840 C   0  0  0  0  0  0  0  0  0  0  0  0
  188.7650  177.7700  143.3380 C   0  0  0  0  0  0  0  0  0  0  0  0
  190.8350  176.3720  147.6280 C   0  0  0  0  0  3  0  0  0  0  0  0
  191.2090  176.7200  144.8830 C   0  0  0  0  0  0  0  0  0  0  0  0
  186.4230  178.1710  143.5960 C   0  0  0  0  0  0  0  0  0  0  0  0
  188.9280  177.7670  144.7760 C   0  0  0  0  0  0  0  0  0  0  0  0
  185.4170  178.5810  145.8660 C   0  0  0  0  0  2  0  0  0  0  0  0
  191.1390  178.0890  142.8870 C   0  0  0  0  0  2  0  0  0  0  0  0
  182.7810  178.6620  143.2620 C   0  0  0  0  0  1  0  0  0  0  0  0
  185.0880  178.4320  142.9580 C   0  0  0  0  0  2  0  0  0  0  0  0
  186.5890  178.3160  144.9660 C   0  0  0  0  0  0  0  0  0  0  0  0
  189.1960  177.2680  138.2110 C   0  0  0  0  0  3  0  0  0  0  0  0
  189.5620  177.5520  140.9840 C   0  0  0  0  0  0  0  0  0  0  0  0
  188.5980  178.3170  140.3080 C   0  0  0  0  0  3  0  0  0  0  0  0
  188.4120  178.1730  138.9310 C   0  0  0  0  0  3  0  0  0  0  0  0
  190.1670  176.5100  138.8670 C   0  0  0  0  0  3  0  0  0  0  0  0
  190.3540  176.6540  140.2450 C   0  0  0  0  0  3  0  0  0  0  0  0
  1 12  2  0  0  0  0
  1 15  1  0  0  0  0
  2 23  1  6  0  0  0
  2 18  1  0  0  0  0
  2 12  1  0  0  0  0
  4  5  1  0  0  0  0
  5 13  2  0  0  0  0
  6 14  1  0  0  0  0
  7 13  1  0  0  0  0
  7  9  1  0  0  0  0
  8 17  1  0  0  0  0
 10  8  1  0  0  0  0
 11  7  2  0  0  0  0
 12 16  1  0  0  0  0
 14 11  1  0  0  0  0
 14  4  2  0  0  0  0
 15 21  2  0  0  0  0
 16 11  1  0  0  0  0
 16  3  2  0  0  0  0
 18  6  1  0  0  0  0
 19 10  1  0  0  0  0
 20 15  1  0  0  0  0
 20 10  1  0  0  0  0
 21  3  1  0  0  0  0
 21 17  1  0  0  0  0
 22 26  2  0  0  0  0
 22 25  1  0  0  0  0
 24 23  1  0  0  0  0
 25 24  2  0  0  0  0
 26 27  1  0  0  0  0
 27 23  2  0  0  0  0
M  END
>  <MODEL>
2

>  <REMARK>
 VINA RESULT:     -10.4      1.585      5.232
  Name = 
  1 active torsions:
  status: ('A' for Active; 'I' for Inactive)
    1  A    between atoms: C_2  and  C_9
                            x       y       z     vdW  Elec       q    Type
                         _______ _______ _______ _____ _____    ______ ____

>  <TORSDO>
F 1

$$$$
=
 OpenBabel11052413393D

 27 31  0  0  1  0  0  0  0  0999 V2000
  186.6760  178.0770  142.1670 N   0  0  0  0  0  0  0  0  0  0  0  0
  188.9470  178.0660  142.5860 C   0  0  2  0  0  3  0  0  0  0  0  0
  186.0380  178.4180  144.7590 N   0  0  0  0  0  0  0  0  0  0  0  0
  190.0980  176.6200  146.4890 C   0  0  0  0  0  3  0  0  0  0  0  0
  189.4660  176.4980  147.7150 C   0  0  0  0  0  3  0  0  0  0  0  0
  190.3270  177.6260  144.4660 N   0  0  0  0  0  2  0  0  0  0  0  0
  187.6370  177.8480  146.8930 C   0  0  0  0  0  0  0  0  0  0  0  0
  182.7450  179.0410  143.0550 C   0  0  0  0  0  2  0  0  0  0  0  0
  186.4680  178.5230  147.2290 O   0  0  0  0  0  1  0  0  0  0  0  0
  182.9980  178.0860  141.9790 N   0  0  0  0  0  0  0  0  0  0  0  0
  188.1820  177.8580  145.5600 C   0  0  0  0  0  0  0  0  0  0  0  0
  187.6920  178.0630  143.0800 C   0  0  0  0  0  0  0  0  0  0  0  0
  188.2620  177.1480  147.9260 C   0  0  0  0  0  3  0  0  0  0  0  0
  189.5260  177.3500  145.4440 C   0  0  0  0  0  0  0  0  0  0  0  0
  185.3810  178.2570  142.5010 C   0  0  0  0  0  0  0  0  0  0  0  0
  187.3550  178.1700  144.4830 C   0  0  0  0  0  0  0  0  0  0  0  0
  183.6370  178.7180  144.2550 C   0  0  0  0  0  2  0  0  0  0  0  0
  190.0500  178.5740  143.4200 C   0  0  0  0  0  2  0  0  0  0  0  0
  182.0470  178.3810  140.9230 C   0  0  0  0  0  1  0  0  0  0  0  0
  184.3300  178.3490  141.4310 C   0  0  0  0  0  2  0  0  0  0  0  0
  185.0600  178.5070  143.8280 C   0  0  0  0  0  0  0  0  0  0  0  0
  189.8880  177.2630  138.4660 C   0  0  0  0  0  3  0  0  0  0  0  0
  189.2570  177.7670  141.1590 C   0  0  0  0  0  0  0  0  0  0  0  0
  188.6780  178.5330  140.1340 C   0  0  0  0  0  3  0  0  0  0  0  0
  188.9880  178.2800  138.7950 C   0  0  0  0  0  3  0  0  0  0  0  0
  190.4810  176.5020  139.4750 C   0  0  0  0  0  3  0  0  0  0  0  0
  190.1720  176.7560  140.8140 C   0  0  0  0  0  3  0  0  0  0  0  0
  1 15  2  0  0  0  0
  1 12  1  0  0  0  0
  2 23  1  6  0  0  0
  2 12  1  0  0  0  0
  2 18  1  0  0  0  0
  4  5  1  0  0  0  0
  5 13  2  0  0  0  0
  6 14  1  0  0  0  0
  7  9  1  0  0  0  0
  7 13  1  0  0  0  0
  8 17  1  0  0  0  0
 10  8  1  0  0  0  0
 11  7  2  0  0  0  0
 12 16  2  0  0  0  0
 14 11  1  0  0  0  0
 14  4  2  0  0  0  0
 15 21  1  0  0  0  0
 16  3  1  0  0  0  0
 16 11  1  0  0  0  0
 18  6  1  0  0  0  0
 19 10  1  0  0  0  0
 20 10  1  0  0  0  0
 20 15  1  0  0  0  0
 21 17  1  0  0  0  0
 21  3  2  0  0  0  0
 22 25  2  0  0  0  0
 22 26  1  0  0  0  0
 24 23  2  0  0  0  0
 25 24  1  0  0  0  0
 26 27  2  0  0  0  0
 27 23  1  0  0  0  0
M  END
>  <MODEL>
3

>  <REMARK>
 VINA RESULT:      -9.9      1.965      5.281
  Name = 
  1 active torsions:
  status: ('A' for Active; 'I' for Inactive)
    1  A    between atoms: C_2  and  C_9
                            x       y       z     vdW  Elec       q    Type
                         _______ _______ _______ _____ _____    ______ ____

>  <TORSDO>
F 1

$$$$
=
 OpenBabel11052413393D

 27 31  0  0  1  0  0  0  0  0999 V2000
  187.4240  178.0450  142.3430 N   0  0  0  0  0  0  0  0  0  0  0  0
  185.6920  178.7030  143.7200 C   0  0  2  0  0  3  0  0  0  0  0  0
  186.0700  178.6280  140.0920 N   0  0  0  0  0  0  0  0  0  0  0  0
  181.7360  178.2760  142.0430 C   0  0  0  0  0  3  0  0  0  0  0  0
  181.2180  178.1950  140.7600 C   0  0  0  0  0  3  0  0  0  0  0  0
  183.3430  178.9590  143.4940 N   0  0  0  0  0  2  0  0  0  0  0  0
  183.3620  178.8600  139.8650 C   0  0  0  0  0  0  0  0  0  0  0  0
  189.5510  178.0700  138.7860 C   0  0  0  0  0  2  0  0  0  0  0  0
  184.0590  179.2480  138.7250 O   0  0  0  0  0  1  0  0  0  0  0  0
  189.8770  177.0520  139.7810 N   0  0  0  0  0  0  0  0  0  0  0  0
  183.9780  178.7940  141.1650 C   0  0  0  0  0  0  0  0  0  0  0  0
  186.1270  178.4500  142.4690 C   0  0  0  0  0  0  0  0  0  0  0  0
  182.0190  178.5300  139.6830 C   0  0  0  0  0  3  0  0  0  0  0  0
  183.0640  178.6460  142.2700 C   0  0  0  0  0  0  0  0  0  0  0  0
  188.0550  177.9300  141.1550 C   0  0  0  0  0  0  0  0  0  0  0  0
  185.3650  178.6940  141.2630 C   0  0  0  0  0  0  0  0  0  0  0  0
  188.0320  178.1960  138.6530 C   0  0  0  0  0  2  0  0  0  0  0  0
  184.5510  179.6140  143.9180 C   0  0  0  0  0  2  0  0  0  0  0  0
  191.3210  176.9080  139.7750 C   0  0  0  0  0  1  0  0  0  0  0  0
  189.5110  177.5630  141.1030 C   0  0  0  0  0  2  0  0  0  0  0  0
  187.3790  178.3010  140.0000 C   0  0  0  0  0  0  0  0  0  0  0  0
  187.8760  177.4960  147.2240 C   0  0  0  0  0  3  0  0  0  0  0  0
  186.4310  178.2660  144.9380 C   0  0  0  0  0  0  0  0  0  0  0  0
  187.6120  177.5150  144.8190 C   0  0  0  0  0  3  0  0  0  0  0  0
  188.3280  177.1280  145.9540 C   0  0  0  0  0  3  0  0  0  0  0  0
  186.7110  178.2530  147.3580 C   0  0  0  0  0  3  0  0  0  0  0  0
  185.9950  178.6400  146.2220 C   0  0  0  0  0  3  0  0  0  0  0  0
  1 12  1  0  0  0  0
  2 18  1  0  0  0  0
  2 23  1  1  0  0  0
  3 16  1  0  0  0  0
  4 14  1  0  0  0  0
  5  4  2  0  0  0  0
  6 18  1  0  0  0  0
  7 11  1  0  0  0  0
  8 10  1  0  0  0  0
  9  7  1  0  0  0  0
 10 20  1  0  0  0  0
 11 16  1  0  0  0  0
 11 14  2  0  0  0  0
 12  2  1  0  0  0  0
 13  7  2  0  0  0  0
 13  5  1  0  0  0  0
 14  6  1  0  0  0  0
 15  1  2  0  0  0  0
 16 12  2  0  0  0  0
 17  8  1  0  0  0  0
 17 21  1  0  0  0  0
 19 10  1  0  0  0  0
 20 15  1  0  0  0  0
 21  3  2  0  0  0  0
 21 15  1  0  0  0  0
 22 26  1  0  0  0  0
 23 27  1  0  0  0  0
 24 23  2  0  0  0  0
 24 25  1  0  0  0  0
 25 22  2  0  0  0  0
 27 26  2  0  0  0  0
M  END
>  <MODEL>
4

>  <REMARK>
 VINA RESULT:      -9.5      2.645      5.899
  Name = 
  1 active torsions:
  status: ('A' for Active; 'I' for Inactive)
    1  A    between atoms: C_2  and  C_9
                            x       y       z     vdW  Elec       q    Type
                         _______ _______ _______ _____ _____    ______ ____

>  <TORSDO>
F 1

$$$$
=
 OpenBabel11052413393D

 27 31  0  0  1  0  0  0  0  0999 V2000
  186.3860  178.3660  141.9590 N   0  0  0  0  0  0  0  0  0  0  0  0
  187.8730  177.4260  143.4550 C   0  0  2  0  0  3  0  0  0  0  0  0
  187.9110  177.7700  139.8230 N   0  0  0  0  0  0  0  0  0  0  0  0
  192.0130  177.4930  142.2330 C   0  0  0  0  0  3  0  0  0  0  0  0
  192.6770  177.5920  141.0200 C   0  0  0  0  0  3  0  0  0  0  0  0
  190.1890  176.9130  143.4550 N   0  0  0  0  0  2  0  0  0  0  0  0
  190.5850  177.2390  139.8610 C   0  0  0  0  0  0  0  0  0  0  0  0
  184.6780  178.8100  138.2090 C   0  0  0  0  0  2  0  0  0  0  0  0
  189.9820  177.0050  138.6290 O   0  0  0  0  0  1  0  0  0  0  0  0
  184.3570  179.7960  139.2380 N   0  0  0  0  0  0  0  0  0  0  0  0
  189.8390  177.2950  141.0910 C   0  0  0  0  0  0  0  0  0  0  0  0
  187.6100  177.8060  142.1880 C   0  0  0  0  0  0  0  0  0  0  0  0
  191.9690  177.4200  139.8440 C   0  0  0  0  0  3  0  0  0  0  0  0
  190.6360  177.2660  142.2930 C   0  0  0  0  0  0  0  0  0  0  0  0
  185.9080  178.6280  140.7240 C   0  0  0  0  0  0  0  0  0  0  0  0
  188.4700  177.5500  141.0530 C   0  0  0  0  0  0  0  0  0  0  0  0
  186.1800  178.5160  138.2250 C   0  0  0  0  0  2  0  0  0  0  0  0
  188.8780  176.3780  143.7020 C   0  0  0  0  0  2  0  0  0  0  0  0
  182.9470  180.1070  139.0930 C   0  0  0  0  0  1  0  0  0  0  0  0
  184.5150  179.1640  140.5490 C   0  0  0  0  0  2  0  0  0  0  0  0
  186.6630  178.2530  139.6210 C   0  0  0  0  0  0  0  0  0  0  0  0
  185.4780  178.6410  146.8160 C   0  0  0  0  0  3  0  0  0  0  0  0
  187.0550  177.8710  144.6200 C   0  0  0  0  0  0  0  0  0  0  0  0
  185.7150  178.2510  144.4400 C   0  0  0  0  0  3  0  0  0  0  0  0
  184.9320  178.6380  145.5300 C   0  0  0  0  0  3  0  0  0  0  0  0
  186.8050  178.2530  147.0120 C   0  0  0  0  0  3  0  0  0  0  0  0
  187.5870  177.8650  145.9210 C   0  0  0  0  0  3  0  0  0  0  0  0
  1 12  1  0  0  0  0
  2 18  1  0  0  0  0
  2 23  1  6  0  0  0
  3 16  1  0  0  0  0
  4 14  1  0  0  0  0
  5  4  2  0  0  0  0
  6 18  1  0  0  0  0
  7 11  1  0  0  0  0
  8 17  1  0  0  0  0
  8 10  1  0  0  0  0
  9  7  1  0  0  0  0
 10 20  1  0  0  0  0
 11 14  2  0  0  0  0
 12  2  1  0  0  0  0
 13  7  2  0  0  0  0
 13  5  1  0  0  0  0
 14  6  1  0  0  0  0
 15  1  2  0  0  0  0
 16 11  1  0  0  0  0
 16 12  2  0  0  0  0
 17 21  1  0  0  0  0
 19 10  1  0  0  0  0
 20 15  1  0  0  0  0
 21  3  2  0  0  0  0
 21 15  1  0  0  0  0
 22 26  1  0  0  0  0
 23 27  1  0  0  0  0
 24 23  2  0  0  0  0
 24 25  1  0  0  0  0
 25 22  2  0  0  0  0
 27 26  2  0  0  0  0
M  END
>  <MODEL>
5

>  <REMARK>
 VINA RESULT:      -9.4      2.301      4.330
  Name = 
  1 active torsions:
  status: ('A' for Active; 'I' for Inactive)
    1  A    between atoms: C_2  and  C_9
                            x       y       z     vdW  Elec       q    Type
                         _______ _______ _______ _____ _____    ______ ____

>  <TORSDO>
F 1

$$$$
=
 OpenBabel11052413393D

 27 31  0  0  1  0  0  0  0  0999 V2000
  187.0910  177.9020  143.9190 N   0  0  0  0  0  0  0  0  0  0  0  0
  186.3750  178.5260  141.8140 C   0  0  2  0  0  3  0  0  0  0  0  0
  189.6540  177.6370  143.1430 N   0  0  0  0  0  0  0  0  0  0  0  0
  188.6830  176.9320  138.5310 C   0  0  0  0  0  3  0  0  0  0  0  0
  189.9700  176.4390  138.3850 C   0  0  0  0  0  3  0  0  0  0  0  0
  187.1740  178.2530  139.5960 N   0  0  0  0  0  2  0  0  0  0  0  0
  190.5250  177.2700  140.5860 C   0  0  0  0  0  0  0  0  0  0  0  0
  189.9490  177.4690  146.8880 C   0  0  0  0  0  2  0  0  0  0  0  0
  191.5470  177.4950  141.5030 O   0  0  0  0  0  1  0  0  0  0  0  0
  188.6570  176.8110  147.0680 N   0  0  0  0  0  0  0  0  0  0  0  0
  189.1600  177.6480  140.8400 C   0  0  0  0  0  0  0  0  0  0  0  0
  187.3740  178.0640  142.5930 C   0  0  0  0  0  0  0  0  0  0  0  0
  190.8950  176.6490  139.3920 C   0  0  0  0  0  3  0  0  0  0  0  0
  188.2870  177.6000  139.6920 C   0  0  0  0  0  0  0  0  0  0  0  0
  188.0270  177.6250  144.8500 C   0  0  0  0  0  0  0  0  0  0  0  0
  188.7350  177.8490  142.1510 C   0  0  0  0  0  0  0  0  0  0  0  0
  190.4420  177.2580  145.4550 C   0  0  0  0  0  2  0  0  0  0  0  0
  186.7020  179.2160  140.5540 C   0  0  0  0  0  2  0  0  0  0  0  0
  188.3050  176.9560  148.4680 C   0  0  0  0  0  1  0  0  0  0  0  0
  187.6520  177.5500  146.3030 C   0  0  0  0  0  2  0  0  0  0  0  0
  189.3590  177.5610  144.4610 C   0  0  0  0  0  0  0  0  0  0  0  0
  182.2670  178.6870  143.0800 C   0  0  0  0  0  3  0  0  0  0  0  0
  184.9510  178.5560  142.2550 C   0  0  0  0  0  0  0  0  0  0  0  0
  184.6240  178.9420  143.5650 C   0  0  0  0  0  3  0  0  0  0  0  0
  183.2900  179.0030  143.9770 C   0  0  0  0  0  3  0  0  0  0  0  0
  182.5770  178.3130  141.7710 C   0  0  0  0  0  3  0  0  0  0  0  0
  183.9110  178.2530  141.3590 C   0  0  0  0  0  3  0  0  0  0  0  0
  1 15  1  0  0  0  0
  2 23  1  1  0  0  0
  2 12  1  0  0  0  0
  3 21  1  0  0  0  0
  4 14  1  0  0  0  0
  5  4  2  0  0  0  0
  5 13  1  0  0  0  0
  6 14  1  0  0  0  0
  6 18  1  0  0  0  0
  7 11  1  0  0  0  0
  7  9  1  0  0  0  0
  8 10  1  0  0  0  0
 10 19  1  0  0  0  0
 11 16  1  0  0  0  0
 12  1  2  0  0  0  0
 13  7  2  0  0  0  0
 14 11  2  0  0  0  0
 15 20  1  0  0  0  0
 16 12  1  0  0  0  0
 16  3  2  0  0  0  0
 17  8  1  0  0  0  0
 18  2  1  0  0  0  0
 20 10  1  0  0  0  0
 21 15  2  0  0  0  0
 21 17  1  0  0  0  0
 22 25  1  0  0  0  0
 23 24  1  0  0  0  0
 24 25  2  0  0  0  0
 26 22  2  0  0  0  0
 27 26  1  0  0  0  0
 27 23  2  0  0  0  0
M  END
>  <MODEL>
6

>  <REMARK>
 VINA RESULT:      -9.0      1.368      5.394
  Name = 
  1 active torsions:
  status: ('A' for Active; 'I' for Inactive)
    1  A    between atoms: C_2  and  C_9
                            x       y       z     vdW  Elec       q    Type
                         _______ _______ _______ _____ _____    ______ ____

>  <TORSDO>
F 1

$$$$
=
 OpenBabel11052413393D

 27 31  0  0  1  0  0  0  0  0999 V2000
  187.9220  177.7910  143.7140 N   0  0  0  0  0  0  0  0  0  0  0  0
  186.4790  178.5860  142.0960 C   0  0  2  0  0  3  0  0  0  0  0  0
  189.9870  177.5900  142.0010 N   0  0  0  0  0  0  0  0  0  0  0  0
  187.3120  177.2690  138.0690 C   0  0  0  0  0  3  0  0  0  0  0  0
  188.4300  176.7890  137.4060 C   0  0  0  0  0  3  0  0  0  0  0  0
  186.3640  178.4970  139.7280 N   0  0  0  0  0  2  0  0  0  0  0  0
  189.8070  177.4350  139.2840 C   0  0  0  0  0  0  0  0  0  0  0  0
  191.6800  177.1130  145.3240 C   0  0  0  0  0  2  0  0  0  0  0  0
  191.1080  177.5840  139.7550 O   0  0  0  0  0  1  0  0  0  0  0  0
  190.5340  176.4420  145.9330 N   0  0  0  0  0  0  0  0  0  0  0  0
  188.6540  177.7910  140.0680 C   0  0  0  0  0  0  0  0  0  0  0  0
  187.6840  178.0610  142.3970 C   0  0  0  0  0  0  0  0  0  0  0  0
  189.6750  176.9150  137.9960 C   0  0  0  0  0  3  0  0  0  0  0  0
  187.4090  177.8390  139.3410 C   0  0  0  0  0  0  0  0  0  0  0  0
  189.1330  177.4370  144.1930 C   0  0  0  0  0  0  0  0  0  0  0  0
  188.7670  177.8830  141.4540 C   0  0  0  0  0  0  0  0  0  0  0  0
  191.5840  177.0210  143.8000 C   0  0  0  0  0  2  0  0  0  0  0  0
  186.3230  179.3780  140.8630 C   0  0  0  0  0  2  0  0  0  0  0  0
  190.7460  176.4710  147.3680 C   0  0  0  0  0  1  0  0  0  0  0  0
  189.3370  177.2420  145.6690 C   0  0  0  0  0  2  0  0  0  0  0  0
  190.2140  177.4050  143.3210 C   0  0  0  0  0  0  0  0  0  0  0  0
  183.1790  178.6410  144.8560 C   0  0  0  0  0  3  0  0  0  0  0  0
  185.3320  178.5790  143.0480 C   0  0  0  0  0  0  0  0  0  0  0  0
  185.5620  178.6040  144.4340 C   0  0  0  0  0  3  0  0  0  0  0  0
  184.4920  178.6300  145.3330 C   0  0  0  0  0  3  0  0  0  0  0  0
  182.9360  178.6290  143.4810 C   0  0  0  0  0  3  0  0  0  0  0  0
  184.0060  178.6040  142.5820 C   0  0  0  0  0  3  0  0  0  0  0  0
  1 15  1  0  0  0  0
  2 12  1  0  0  0  0
  2 23  1  1  0  0  0
  3 21  1  0  0  0  0
  4 14  1  0  0  0  0
  5 13  1  0  0  0  0
  5  4  2  0  0  0  0
  6 18  1  0  0  0  0
  7  9  1  0  0  0  0
  7 11  1  0  0  0  0
  8 10  1  0  0  0  0
 10 19  1  0  0  0  0
 11 16  1  0  0  0  0
 12  1  2  0  0  0  0
 13  7  2  0  0  0  0
 14  6  1  0  0  0  0
 14 11  2  0  0  0  0
 15 20  1  0  0  0  0
 16  3  2  0  0  0  0
 16 12  1  0  0  0  0
 17  8  1  0  0  0  0
 18  2  1  0  0  0  0
 20 10  1  0  0  0  0
 21 17  1  0  0  0  0
 21 15  2  0  0  0  0
 22 25  1  0  0  0  0
 23 24  1  0  0  0  0
 24 25  2  0  0  0  0
 26 22  2  0  0  0  0
 27 23  2  0  0  0  0
 27 26  1  0  0  0  0
M  END
>  <MODEL>
7

>  <REMARK>
 VINA RESULT:      -9.0      1.670      5.454
  Name = 
  1 active torsions:
  status: ('A' for Active; 'I' for Inactive)
    1  A    between atoms: C_2  and  C_9
                            x       y       z     vdW  Elec       q    Type
                         _______ _______ _______ _____ _____    ______ ____

>  <TORSDO>
F 1

$$$$
=
 OpenBabel11052413393D

 27 31  0  0  1  0  0  0  0  0999 V2000
  189.4560  177.2310  143.0030 N   0  0  0  0  0  0  0  0  0  0  0  0
  188.7610  177.8070  145.1290 C   0  0  2  0  0  3  0  0  0  0  0  0
  187.3520  178.4180  141.8200 N   0  0  0  0  0  0  0  0  0  0  0  0
  184.4920  178.2190  145.6270 C   0  0  0  0  0  3  0  0  0  0  0  0
  183.4240  178.4630  144.7780 C   0  0  0  0  0  3  0  0  0  0  0  0
  186.6970  178.3920  146.1420 N   0  0  0  0  0  2  0  0  0  0  0  0
  184.9740  179.0230  143.0100 C   0  0  0  0  0  0  0  0  0  0  0  0
  189.5980  177.7080  138.8890 C   0  0  0  0  0  2  0  0  0  0  0  0
  185.1110  179.5440  141.7270 O   0  0  0  0  0  1  0  0  0  0  0  0
  190.1380  176.4780  139.4630 N   0  0  0  0  0  0  0  0  0  0  0  0
  186.1030  178.6220  143.8080 C   0  0  0  0  0  0  0  0  0  0  0  0
  188.4890  177.7590  143.8090 C   0  0  0  0  0  0  0  0  0  0  0  0
  183.6690  178.9060  143.4900 C   0  0  0  0  0  3  0  0  0  0  0  0
  185.8130  178.3690  145.1970 C   0  0  0  0  0  0  0  0  0  0  0  0
  189.4100  177.2800  141.6550 C   0  0  0  0  0  0  0  0  0  0  0  0
  187.3160  178.3330  143.1850 C   0  0  0  0  0  0  0  0  0  0  0  0
  188.2610  178.0450  139.5520 C   0  0  0  0  0  2  0  0  0  0  0  0
  188.0670  178.7940  145.9750 C   0  0  0  0  0  2  0  0  0  0  0  0
  191.3410  176.1600  138.7170 C   0  0  0  0  0  1  0  0  0  0  0  0
  190.5560  176.7540  140.8380 C   0  0  0  0  0  2  0  0  0  0  0  0
  188.3610  177.9560  141.0470 C   0  0  0  0  0  0  0  0  0  0  0  0
  192.0330  175.6730  146.9310 C   0  0  0  0  0  3  0  0  0  0  0  0
  189.8800  177.0460  145.7530 C   0  0  0  0  0  0  0  0  0  0  0  0
  190.9880  176.6560  144.9820 C   0  0  0  0  0  3  0  0  0  0  0  0
  192.0560  175.9700  145.5660 C   0  0  0  0  0  3  0  0  0  0  0  0
  190.9440  176.0650  147.7120 C   0  0  0  0  0  3  0  0  0  0  0  0
  189.8770  176.7530  147.1280 C   0  0  0  0  0  3  0  0  0  0  0  0
  1 12  1  0  0  0  0
  2 23  1  6  0  0  0
  2 18  1  0  0  0  0
  3 16  1  0  0  0  0
  5  4  2  0  0  0  0
  7 13  2  0  0  0  0
  7 11  1  0  0  0  0
  8 10  1  0  0  0  0
  8 17  1  0  0  0  0
  9  7  1  0  0  0  0
 10 20  1  0  0  0  0
 11 14  2  0  0  0  0
 12  2  1  0  0  0  0
 13  5  1  0  0  0  0
 14  4  1  0  0  0  0
 14  6  1  0  0  0  0
 15  1  2  0  0  0  0
 16 11  1  0  0  0  0
 16 12  2  0  0  0  0
 17 21  1  0  0  0  0
 18  6  1  0  0  0  0
 19 10  1  0  0  0  0
 20 15  1  0  0  0  0
 21 15  1  0  0  0  0
 21  3  2  0  0  0  0
 22 26  1  0  0  0  0
 23 27  1  0  0  0  0
 24 25  1  0  0  0  0
 24 23  2  0  0  0  0
 25 22  2  0  0  0  0
 27 26  2  0  0  0  0
M  END
>  <MODEL>
8

>  <REMARK>
 VINA RESULT:      -8.8      1.873      5.331
  Name = 
  1 active torsions:
  status: ('A' for Active; 'I' for Inactive)
    1  A    between atoms: C_2  and  C_9
                            x       y       z     vdW  Elec       q    Type
                         _______ _______ _______ _____ _____    ______ ____

>  <TORSDO>
F 1

$$$$
=
 OpenBabel11052413393D

 27 31  0  0  1  0  0  0  0  0999 V2000
  187.6280  177.9880  142.8870 N   0  0  0  0  0  0  0  0  0  0  0  0
  185.8200  178.7220  141.6520 C   0  0  2  0  0  3  0  0  0  0  0  0
  189.2520  177.8800  140.7450 N   0  0  0  0  0  0  0  0  0  0  0  0
  185.7640  177.4470  137.5270 C   0  0  0  0  0  3  0  0  0  0  0  0
  186.7190  177.0170  136.6200 C   0  0  0  0  0  3  0  0  0  0  0  0
  185.1700  178.6300  139.3720 N   0  0  0  0  0  2  0  0  0  0  0  0
  188.4610  177.7210  138.1400 C   0  0  0  0  0  0  0  0  0  0  0  0
  191.6800  177.4740  143.5860 C   0  0  0  0  0  2  0  0  0  0  0  0
  189.8280  177.9250  138.3030 O   0  0  0  0  0  1  0  0  0  0  0  0
  190.7340  176.7530  144.4340 N   0  0  0  0  0  0  0  0  0  0  0  0
  187.5040  178.0250  139.1710 C   0  0  0  0  0  0  0  0  0  0  0  0
  187.0840  178.2490  141.6630 C   0  0  0  0  0  0  0  0  0  0  0  0
  188.0600  177.1970  136.9110 C   0  0  0  0  0  3  0  0  0  0  0  0
  186.1250  178.0190  138.7490 C   0  0  0  0  0  0  0  0  0  0  0  0
  188.9310  177.6870  143.0720 C   0  0  0  0  0  0  0  0  0  0  0  0
  187.9280  178.1200  140.4950 C   0  0  0  0  0  0  0  0  0  0  0  0
  191.2410  177.3800  142.1240 C   0  0  0  0  0  2  0  0  0  0  0  0
  185.3530  179.5070  140.4970 C   0  0  0  0  0  2  0  0  0  0  0  0
  191.2680  176.7890  145.7830 C   0  0  0  0  0  1  0  0  0  0  0  0
  189.4750  177.5000  144.4600 C   0  0  0  0  0  2  0  0  0  0  0  0
  189.7830  177.7030  141.9760 C   0  0  0  0  0  0  0  0  0  0  0  0
  183.2430  178.6280  145.0950 C   0  0  0  0  0  3  0  0  0  0  0  0
  184.9230  178.6630  142.8410 C   0  0  0  0  0  0  0  0  0  0  0  0
  185.4650  178.6760  144.1370 C   0  0  0  0  0  3  0  0  0  0  0  0
  184.6300  178.6540  145.2580 C   0  0  0  0  0  3  0  0  0  0  0  0
  182.6900  178.6270  143.8130 C   0  0  0  0  0  3  0  0  0  0  0  0
  183.5250  178.6510  142.6920 C   0  0  0  0  0  3  0  0  0  0  0  0
  1 15  1  0  0  0  0
  2 12  1  0  0  0  0
  2 23  1  1  0  0  0
  3 21  1  0  0  0  0
  4 14  1  0  0  0  0
  5 13  1  0  0  0  0
  5  4  2  0  0  0  0
  6 18  1  0  0  0  0
  7  9  1  0  0  0  0
  7 11  1  0  0  0  0
  8 10  1  0  0  0  0
 10 20  1  0  0  0  0
 10 19  1  0  0  0  0
 11 16  1  0  0  0  0
 12  1  2  0  0  0  0
 13  7  2  0  0  0  0
 14 11  2  0  0  0  0
 14  6  1  0  0  0  0
 15 20  1  0  0  0  0
 16  3  2  0  0  0  0
 16 12  1  0  0  0  0
 17  8  1  0  0  0  0
 18  2  1  0  0  0  0
 21 17  1  0  0  0  0
 21 15  2  0  0  0  0
 22 25  1  0  0  0  0
 23 24  1  0  0  0  0
 24 25  2  0  0  0  0
 26 22  2  0  0  0  0
 27 23  2  0  0  0  0
 27 26  1  0  0  0  0
M  END
>  <MODEL>
9

>  <REMARK>
 VINA RESULT:      -8.7      2.102      5.728
  Name = 
  1 active torsions:
  status: ('A' for Active; 'I' for Inactive)
    1  A    between atoms: C_2  and  C_9
                            x       y       z     vdW  Elec       q    Type
                         _______ _______ _______ _____ _____    ______ ____

>  <TORSDO>
F 1

$$$$
