=
 OpenBabel11052414203D

 34 40  0  0  1  0  0  0  0  0999 V2000
  187.2500  178.4140  146.8110 C   0  0  2  0  0  3  0  0  0  0  0  0
  189.4800  177.7120  146.1580 C   0  0  2  0  0  3  0  0  0  0  0  0
  187.5760  177.3040  144.4710 C   0  0  1  0  0  3  0  0  0  0  0  0
  188.1010  179.1710  142.8800 O   0  0  0  0  0  0  0  0  0  0  0  0
  189.0550  178.1720  148.5610 C   0  0  0  0  0  2  0  0  0  0  0  0
  189.8740  177.3230  147.5740 C   0  0  0  0  0  2  0  0  0  0  0  0
  190.0530  177.9300  143.7810 C   0  0  1  0  0  3  0  0  0  0  0  0
  188.0020  177.3940  145.9560 C   0  0  2  0  0  3  0  0  0  0  0  0
  189.3390  175.5730  142.7930 C   0  0  0  0  0  1  0  0  0  0  0  0
  187.5410  178.1030  148.2820 C   0  0  0  0  0  2  0  0  0  0  0  0
  186.1030  177.6420  144.1750 C   0  0  2  0  0  3  0  0  0  0  0  0
  185.7620  178.4140  146.5200 C   0  0  0  0  0  2  0  0  0  0  0  0
  190.3490  177.1320  145.0590 C   0  0  0  0  0  2  0  0  0  0  0  0
  186.9600  178.9150  142.0750 C   0  0  0  0  0  2  0  0  0  0  0  0
  185.9280  177.9270  142.6750 C   0  0  2  0  0  3  0  0  0  0  0  0
  189.4670  177.0880  142.6410 C   0  0  1  0  0  0  0  0  0  0  0  0
  188.5400  177.9700  143.4710 C   0  0  1  0  0  0  0  0  0  0  0  0
  185.5680  178.7730  145.0560 C   0  0  0  0  0  2  0  0  0  0  0  0
  182.2570  178.8460  142.8530 C   0  0  0  0  0  0  0  0  0  0  0  0
  181.8790  178.7810  141.5070 C   0  0  0  0  0  3  0  0  0  0  0  0
  184.5180  178.2070  142.2540 C   0  0  0  0  0  0  0  0  0  0  0  0
  182.8190  178.4340  140.5340 C   0  0  0  0  0  3  0  0  0  0  0  0
  183.5740  178.5620  143.2240 C   0  0  0  0  0  3  0  0  0  0  0  0
  184.1370  178.1500  140.9040 C   0  0  0  0  0  3  0  0  0  0  0  0
  181.3450  179.1840  143.7960 F   0  0  0  0  0  0  0  0  0  0  0  0
  189.5360  176.8850  140.2770 C   0  0  0  0  0  3  0  0  0  0  0  0
  189.7540  177.5970  141.3220 N   0  0  0  0  0  0  0  0  0  0  0  0
  189.8410  177.4350  138.9250 C   0  0  0  0  0  2  0  0  0  0  0  0
  188.8010  178.4740  138.5250 C   0  0  0  0  0  3  0  0  0  0  0  0
  187.3950  177.8730  138.6000 C   0  0  0  0  0  2  0  0  0  0  0  0
  187.2670  177.7410  136.2020 O   0  0  0  0  0  0  0  0  0  0  0  0
  188.6370  178.0190  136.0580 C   0  0  0  0  0  2  0  0  0  0  0  0
  189.0780  179.0290  137.1210 C   0  0  0  0  0  2  0  0  0  0  0  0
  187.1340  176.9860  137.3800 C   0  0  0  0  0  2  0  0  0  0  0  0
  1 12  1  1  0  0  0
  1 10  1  0  0  0  0
  2 13  1  6  0  0  0
  2  6  1  0  0  0  0
  3  8  1  0  0  0  0
  4 17  1  0  0  0  0
  6  5  1  0  0  0  0
  7 13  1  0  0  0  0
  8  2  1  0  0  0  0
  8  1  1  0  0  0  0
 10  5  1  0  0  0  0
 11  3  1  0  0  0  0
 11 18  1  0  0  0  0
 14 15  1  0  0  0  0
 14  4  1  0  0  0  0
 15 11  1  0  0  0  0
 16  9  1  0  0  0  0
 16 17  1  0  0  0  0
 16  7  1  0  0  0  0
 17  7  1  0  0  0  0
 17  3  1  0  0  0  0
 18 12  1  0  0  0  0
 19 23  1  0  0  0  0
 19 25  1  0  0  0  0
 20 19  2  0  0  0  0
 21 15  1  0  0  0  0
 21 23  2  0  0  0  0
 22 24  2  0  0  0  0
 22 20  1  0  0  0  0
 24 21  1  0  0  0  0
 26 27  2  0  0  0  0
 27 16  1  0  0  0  0
 28 26  1  0  0  0  0
 29 30  1  0  0  0  0
 29 28  1  0  0  0  0
 31 34  1  0  0  0  0
 32 31  1  0  0  0  0
 32 33  1  0  0  0  0
 33 29  1  0  0  0  0
 34 30  1  0  0  0  0
M  END
>  <MODEL>
1

>  <REMARK>
 VINA RESULT:     -10.7      0.000      0.000
  Name = 
  4 active torsions:
  status: ('A' for Active; 'I' for Inactive)
    1  A    between atoms: C_3  and  C_13
    2  A    between atoms: C_11  and  C_13
    3  A    between atoms: C_12  and  C_28
    4  A    between atoms: N_17  and  C_29
                            x       y       z     vdW  Elec       q    Type
                         _______ _______ _______ _____ _____    ______ ____

>  <TORSDO>
F 4

$$$$
=
 OpenBabel11052414203D

 34 40  0  0  1  0  0  0  0  0999 V2000
  187.0970  178.6290  146.3930 C   0  0  2  0  0  3  0  0  0  0  0  0
  189.3120  177.6530  146.2070 C   0  0  2  0  0  3  0  0  0  0  0  0
  187.7020  177.3050  144.2260 C   0  0  1  0  0  3  0  0  0  0  0  0
  188.7100  178.9720  142.6480 O   0  0  0  0  0  0  0  0  0  0  0  0
  188.5250  178.3490  148.4580 C   0  0  0  0  0  2  0  0  0  0  0  0
  189.4020  177.3430  147.6930 C   0  0  0  0  0  2  0  0  0  0  0  0
  190.3170  177.6170  143.9680 C   0  0  1  0  0  3  0  0  0  0  0  0
  187.8660  177.4720  145.7560 C   0  0  2  0  0  3  0  0  0  0  0  0
  189.5240  175.2730  143.0130 C   0  0  0  0  0  1  0  0  0  0  0  0
  187.0870  178.4110  147.9080 C   0  0  0  0  0  2  0  0  0  0  0  0
  186.3530  177.7660  143.6440 C   0  0  2  0  0  3  0  0  0  0  0  0
  185.6940  178.7560  145.8330 C   0  0  0  0  0  2  0  0  0  0  0  0
  190.2890  176.9000  145.3260 C   0  0  0  0  0  2  0  0  0  0  0  0
  187.7080  178.7690  141.6630 C   0  0  0  0  0  2  0  0  0  0  0  0
  186.4800  177.9430  142.1220 C   0  0  2  0  0  3  0  0  0  0  0  0
  189.8490  176.7500  142.7940 C   0  0  1  0  0  0  0  0  0  0  0  0
  188.8980  177.7850  143.3830 C   0  0  1  0  0  0  0  0  0  0  0  0
  185.8040  179.0130  144.3380 C   0  0  0  0  0  2  0  0  0  0  0  0
  182.7900  178.5100  141.4730 C   0  0  0  0  0  0  0  0  0  0  0  0
  182.8080  179.0780  140.1950 C   0  0  0  0  0  3  0  0  0  0  0  0
  185.2080  178.3310  141.4320 C   0  0  0  0  0  0  0  0  0  0  0  0
  184.0230  179.2770  139.5350 C   0  0  0  0  0  3  0  0  0  0  0  0
  183.9880  178.1400  142.0910 C   0  0  0  0  0  3  0  0  0  0  0  0
  185.2220  178.9070  140.1520 C   0  0  0  0  0  3  0  0  0  0  0  0
  181.6120  178.3190  142.1130 F   0  0  0  0  0  0  0  0  0  0  0  0
  190.2180  176.4040  140.4750 C   0  0  0  0  0  3  0  0  0  0  0  0
  190.4210  177.1170  141.5210 N   0  0  0  0  0  0  0  0  0  0  0  0
  190.8210  176.8070  139.1710 C   0  0  0  0  0  2  0  0  0  0  0  0
  191.0670  175.5830  138.2970 C   0  0  0  0  0  3  0  0  0  0  0  0
  192.5520  175.4770  137.9410 C   0  0  0  0  0  2  0  0  0  0  0  0
  192.1180  176.2140  135.6930 O   0  0  0  0  0  0  0  0  0  0  0  0
  190.8060  176.6010  136.0140 C   0  0  0  0  0  2  0  0  0  0  0  0
  190.2060  175.6220  137.0270 C   0  0  0  0  0  2  0  0  0  0  0  0
  192.9010  176.4720  136.8310 C   0  0  0  0  0  2  0  0  0  0  0  0
  1 12  1  6  0  0  0
  1 10  1  0  0  0  0
  2 13  1  6  0  0  0
  2  6  1  0  0  0  0
  3  8  1  0  0  0  0
  4 17  1  0  0  0  0
  6  5  1  0  0  0  0
  7 13  1  0  0  0  0
  8  2  1  0  0  0  0
  8  1  1  0  0  0  0
 10  5  1  0  0  0  0
 11  3  1  0  0  0  0
 11 18  1  0  0  0  0
 14 15  1  0  0  0  0
 14  4  1  0  0  0  0
 15 11  1  0  0  0  0
 16  9  1  0  0  0  0
 16 17  1  0  0  0  0
 16  7  1  0  0  0  0
 17  7  1  0  0  0  0
 17  3  1  0  0  0  0
 18 12  1  0  0  0  0
 19 23  1  0  0  0  0
 19 25  1  0  0  0  0
 20 19  2  0  0  0  0
 21 23  2  0  0  0  0
 21 15  1  0  0  0  0
 22 24  2  0  0  0  0
 22 20  1  0  0  0  0
 24 21  1  0  0  0  0
 26 27  2  0  0  0  0
 27 16  1  0  0  0  0
 28 26  1  0  0  0  0
 29 28  1  0  0  0  0
 30 29  1  0  0  0  0
 31 32  1  0  0  0  0
 31 34  1  0  0  0  0
 32 33  1  0  0  0  0
 33 29  1  0  0  0  0
 34 30  1  0  0  0  0
M  END
>  <MODEL>
2

>  <REMARK>
 VINA RESULT:      -9.5      1.651      2.110
  Name = 
  4 active torsions:
  status: ('A' for Active; 'I' for Inactive)
    1  A    between atoms: C_3  and  C_13
    2  A    between atoms: C_11  and  C_13
    3  A    between atoms: C_12  and  C_28
    4  A    between atoms: N_17  and  C_29
                            x       y       z     vdW  Elec       q    Type
                         _______ _______ _______ _____ _____    ______ ____

>  <TORSDO>
F 4

$$$$
=
 OpenBabel11052414203D

 34 40  0  0  1  0  0  0  0  0999 V2000
  185.6110  177.9770  145.5230 C   0  0  2  0  0  3  0  0  0  0  0  0
  185.2100  178.5190  143.1910 C   0  0  2  0  0  3  0  0  0  0  0  0
  187.6640  178.3130  143.9470 C   0  0  1  0  0  3  0  0  0  0  0  0
  188.1580  176.0640  142.9550 O   0  0  0  0  0  0  0  0  0  0  0  0
  183.3400  178.8150  144.7990 C   0  0  0  0  0  2  0  0  0  0  0  0
  183.9700  179.3430  143.4990 C   0  0  0  0  0  2  0  0  0  0  0  0
  186.7900  177.5910  141.5570 C   0  0  1  0  0  3  0  0  0  0  0  0
  186.2150  178.7060  144.3240 C   0  0  2  0  0  3  0  0  0  0  0  0
  188.6270  179.4960  141.3790 C   0  0  0  0  0  1  0  0  0  0  0  0
  184.3560  178.7410  145.9560 C   0  0  0  0  0  2  0  0  0  0  0  0
  188.5560  177.8490  145.1140 C   0  0  2  0  0  3  0  0  0  0  0  0
  186.6030  177.8350  146.6610 C   0  0  0  0  0  2  0  0  0  0  0  0
  185.8280  178.7570  141.8280 C   0  0  0  0  0  2  0  0  0  0  0  0
  189.4650  176.0160  143.5070 C   0  0  0  0  0  2  0  0  0  0  0  0
  189.7830  177.1050  144.5630 C   0  0  2  0  0  3  0  0  0  0  0  0
  188.2540  178.0150  141.3910 C   0  0  1  0  0  0  0  0  0  0  0  0
  187.7980  177.4040  142.7120 C   0  0  1  0  0  0  0  0  0  0  0  0
  187.7900  177.0300  146.1540 C   0  0  0  0  0  2  0  0  0  0  0  0
  191.7010  176.9230  147.8260 C   0  0  0  0  0  0  0  0  0  0  0  0
  192.5460  175.8310  147.6020 C   0  0  0  0  0  3  0  0  0  0  0  0
  190.7610  176.6580  145.6060 C   0  0  0  0  0  0  0  0  0  0  0  0
  192.4980  175.1490  146.3830 C   0  0  0  0  0  3  0  0  0  0  0  0
  190.8090  177.3330  146.8310 C   0  0  0  0  0  3  0  0  0  0  0  0
  191.6060  175.5580  145.3880 C   0  0  0  0  0  3  0  0  0  0  0  0
  191.7470  177.5830  149.0080 F   0  0  0  0  0  0  0  0  0  0  0  0
  189.8520  177.5940  139.6870 C   0  0  0  0  0  3  0  0  0  0  0  0
  189.0360  177.1310  140.5610 N   0  0  0  0  0  0  0  0  0  0  0  0
  190.6490  176.6590  138.8420 C   0  0  0  0  0  2  0  0  0  0  0  0
  190.4440  176.9690  137.3650 C   0  0  0  0  0  3  0  0  0  0  0  0
  188.9550  177.1680  137.0670 C   0  0  0  0  0  2  0  0  0  0  0  0
  188.8330  175.0230  135.9870 O   0  0  0  0  0  0  0  0  0  0  0  0
  190.1010  174.6480  136.4620 C   0  0  0  0  0  2  0  0  0  0  0  0
  191.0320  175.8640  136.4760 C   0  0  0  0  0  2  0  0  0  0  0  0
  188.2460  175.8130  136.9900 C   0  0  0  0  0  2  0  0  0  0  0  0
  1 10  1  1  0  0  0
  1 12  1  0  0  0  0
  2 13  1  6  0  0  0
  2  6  1  0  0  0  0
  2  8  1  0  0  0  0
  3  8  1  0  0  0  0
  3 11  1  0  0  0  0
  4 14  1  0  0  0  0
  5 10  1  0  0  0  0
  6  5  1  0  0  0  0
  7 13  1  0  0  0  0
  7 17  1  0  0  0  0
  8  1  1  0  0  0  0
  9 16  1  0  0  0  0
 11 18  1  0  0  0  0
 14 15  1  0  0  0  0
 15 11  1  0  0  0  0
 15 21  1  0  0  0  0
 16  7  1  0  0  0  0
 16 17  1  0  0  0  0
 17  4  1  0  0  0  0
 17  3  1  0  0  0  0
 18 12  1  0  0  0  0
 19 25  1  0  0  0  0
 20 19  1  0  0  0  0
 21 23  1  0  0  0  0
 22 20  2  0  0  0  0
 23 19  2  0  0  0  0
 24 21  2  0  0  0  0
 24 22  1  0  0  0  0
 26 27  2  0  0  0  0
 27 16  1  0  0  0  0
 28 26  1  0  0  0  0
 29 28  1  0  0  0  0
 30 29  1  0  0  0  0
 31 32  1  0  0  0  0
 31 34  1  0  0  0  0
 32 33  1  0  0  0  0
 33 29  1  0  0  0  0
 34 30  1  0  0  0  0
M  END
>  <MODEL>
3

>  <REMARK>
 VINA RESULT:      -8.4      2.690      5.705
  Name = 
  4 active torsions:
  status: ('A' for Active; 'I' for Inactive)
    1  A    between atoms: C_3  and  C_13
    2  A    between atoms: C_11  and  C_13
    3  A    between atoms: C_12  and  C_28
    4  A    between atoms: N_17  and  C_29
                            x       y       z     vdW  Elec       q    Type
                         _______ _______ _______ _____ _____    ______ ____

>  <TORSDO>
F 4

$$$$
=
 OpenBabel11052414203D

 34 40  0  0  1  0  0  0  0  0999 V2000
  191.8470  176.5810  137.3220 C   0  0  2  0  0  3  0  0  0  0  0  0
  190.0410  176.7830  135.7120 C   0  0  2  0  0  3  0  0  0  0  0  0
  189.3870  176.5640  138.1940 C   0  0  1  0  0  3  0  0  0  0  0  0
  188.7800  178.9600  138.6170 O   0  0  0  0  0  0  0  0  0  0  0  0
  192.2970  176.1730  134.8690 C   0  0  0  0  0  2  0  0  0  0  0  0
  190.7850  176.0040  134.6390 C   0  0  0  0  0  2  0  0  0  0  0  0
  188.0510  178.0240  136.4370 C   0  0  1  0  0  3  0  0  0  0  0  0
  190.3900  176.1930  137.0750 C   0  0  2  0  0  3  0  0  0  0  0  0
  186.5230  176.1170  137.4710 C   0  0  0  0  0  1  0  0  0  0  0  0
  192.7140  175.8250  136.3110 C   0  0  0  0  0  2  0  0  0  0  0  0
  189.9600  176.5940  139.6230 C   0  0  2  0  0  3  0  0  0  0  0  0
  192.2750  176.3040  138.7500 C   0  0  0  0  0  2  0  0  0  0  0  0
  188.5450  176.9080  135.5040 C   0  0  0  0  0  2  0  0  0  0  0  0
  188.5410  178.7410  139.9990 C   0  0  0  0  0  2  0  0  0  0  0  0
  189.0070  177.3680  140.5470 C   0  0  2  0  0  3  0  0  0  0  0  0
  187.0430  177.5540  137.4920 C   0  0  1  0  0  0  0  0  0  0  0  0
  188.4940  177.7830  137.8970 C   0  0  1  0  0  0  0  0  0  0  0  0
  191.3930  177.1270  139.6740 C   0  0  0  0  0  2  0  0  0  0  0  0
  190.3830  178.6520  143.8350 C   0  0  0  0  0  0  0  0  0  0  0  0
  190.1950  177.5500  144.6750 C   0  0  0  0  0  3  0  0  0  0  0  0
  189.4290  177.4100  141.9840 C   0  0  0  0  0  0  0  0  0  0  0  0
  189.6220  176.3780  144.1730 C   0  0  0  0  0  3  0  0  0  0  0  0
  189.9970  178.5830  142.4940 C   0  0  0  0  0  3  0  0  0  0  0  0
  189.2360  176.3080  142.8310 C   0  0  0  0  0  3  0  0  0  0  0  0
  190.9370  179.7880  144.3230 F   0  0  0  0  0  0  0  0  0  0  0  0
  185.1220  178.2920  138.6750 C   0  0  0  0  0  3  0  0  0  0  0  0
  186.1290  178.5790  137.9350 N   0  0  0  0  0  0  0  0  0  0  0  0
  184.1920  179.3710  139.1200 C   0  0  0  0  0  2  0  0  0  0  0  0
  182.7910  179.1250  138.5750 C   0  0  0  0  0  3  0  0  0  0  0  0
  181.7500  179.8180  139.4580 C   0  0  0  0  0  2  0  0  0  0  0  0
  181.0720  177.7120  140.4000 O   0  0  0  0  0  0  0  0  0  0  0  0
  182.1760  177.0430  139.8430 C   0  0  0  0  0  2  0  0  0  0  0  0
  182.4930  177.6230  138.4620 C   0  0  0  0  0  2  0  0  0  0  0  0
  181.5130  179.0040  140.7330 C   0  0  0  0  0  2  0  0  0  0  0  0
  1 10  1  6  0  0  0
  1 12  1  0  0  0  0
  2  6  1  6  0  0  0
  2  8  1  0  0  0  0
  3 11  1  0  0  0  0
  4 14  1  0  0  0  0
  5 10  1  0  0  0  0
  6  5  1  0  0  0  0
  7 16  1  0  0  0  0
  7 17  1  0  0  0  0
  8  1  1  0  0  0  0
  8  3  1  0  0  0  0
  9 16  1  0  0  0  0
 11 18  1  0  0  0  0
 11 15  1  0  0  0  0
 12 18  1  0  0  0  0
 13  2  1  0  0  0  0
 13  7  1  0  0  0  0
 14 15  1  0  0  0  0
 15 21  1  0  0  0  0
 16 17  1  0  0  0  0
 16 27  1  0  0  0  0
 17  3  1  0  0  0  0
 17  4  1  0  0  0  0
 19 25  1  0  0  0  0
 19 20  1  0  0  0  0
 21 23  1  0  0  0  0
 21 24  2  0  0  0  0
 22 20  2  0  0  0  0
 23 19  2  0  0  0  0
 24 22  1  0  0  0  0
 26 28  1  0  0  0  0
 27 26  2  0  0  0  0
 29 28  1  0  0  0  0
 29 30  1  0  0  0  0
 30 34  1  0  0  0  0
 31 34  1  0  0  0  0
 32 31  1  0  0  0  0
 33 29  1  0  0  0  0
 33 32  1  0  0  0  0
M  END
>  <MODEL>
4

>  <REMARK>
 VINA RESULT:      -8.2      3.199      7.994
  Name = 
  4 active torsions:
  status: ('A' for Active; 'I' for Inactive)
    1  A    between atoms: C_3  and  C_13
    2  A    between atoms: C_11  and  C_13
    3  A    between atoms: C_12  and  C_28
    4  A    between atoms: N_17  and  C_29
                            x       y       z     vdW  Elec       q    Type
                         _______ _______ _______ _____ _____    ______ ____

>  <TORSDO>
F 4

$$$$
=
 OpenBabel11052414203D

 34 40  0  0  1  0  0  0  0  0999 V2000
  191.9690  177.3980  140.5340 C   0  0  2  0  0  3  0  0  0  0  0  0
  191.3000  177.1910  138.2100 C   0  0  2  0  0  3  0  0  0  0  0  0
  189.4820  176.8190  139.9970 C   0  0  1  0  0  3  0  0  0  0  0  0
  188.2900  179.0120  139.7580 O   0  0  0  0  0  0  0  0  0  0  0  0
  193.7250  177.1140  138.7400 C   0  0  0  0  0  2  0  0  0  0  0  0
  192.6360  176.6060  137.7800 C   0  0  0  0  0  2  0  0  0  0  0  0
  189.0330  177.9430  137.6440 C   0  0  1  0  0  3  0  0  0  0  0  0
  190.9760  176.6900  139.6140 C   0  0  2  0  0  3  0  0  0  0  0  0
  187.5940  175.7360  137.9510 C   0  0  0  0  0  1  0  0  0  0  0  0
  193.3690  176.8630  140.2180 C   0  0  0  0  0  2  0  0  0  0  0  0
  189.1870  176.9720  141.5010 C   0  0  2  0  0  3  0  0  0  0  0  0
  191.6160  177.2210  141.9980 C   0  0  0  0  0  2  0  0  0  0  0  0
  190.1530  176.9730  137.2420 C   0  0  0  0  0  2  0  0  0  0  0  0
  187.4000  178.7380  140.8300 C   0  0  0  0  0  2  0  0  0  0  0  0
  187.7590  177.5050  141.6970 C   0  0  2  0  0  3  0  0  0  0  0  0
  187.7320  177.2530  138.0690 C   0  0  1  0  0  0  0  0  0  0  0  0
  188.6670  177.8040  139.1390 C   0  0  1  0  0  0  0  0  0  0  0  0
  190.2370  177.8170  142.2260 C   0  0  0  0  0  2  0  0  0  0  0  0
  185.6420  178.2720  144.7440 C   0  0  0  0  0  0  0  0  0  0  0  0
  186.4800  177.8620  145.7860 C   0  0  0  0  0  3  0  0  0  0  0  0
  187.3340  177.6370  143.1270 C   0  0  0  0  0  0  0  0  0  0  0  0
  187.7430  177.3360  145.5020 C   0  0  0  0  0  3  0  0  0  0  0  0
  186.0680  178.1570  143.4180 C   0  0  0  0  0  3  0  0  0  0  0  0
  188.1690  177.2200  144.1760 C   0  0  0  0  0  3  0  0  0  0  0  0
  184.4170  178.7810  145.0200 F   0  0  0  0  0  0  0  0  0  0  0  0
  185.3840  177.5910  138.1610 C   0  0  0  0  0  3  0  0  0  0  0  0
  186.5440  178.0410  137.8490 N   0  0  0  0  0  0  0  0  0  0  0  0
  184.1720  178.4270  137.9240 C   0  0  0  0  0  2  0  0  0  0  0  0
  183.9470  179.3830  139.0890 C   0  0  0  0  0  3  0  0  0  0  0  0
  183.8040  178.6010  140.3970 C   0  0  0  0  0  2  0  0  0  0  0  0
  181.4320  178.9960  140.4340 O   0  0  0  0  0  0  0  0  0  0  0  0
  181.4350  179.4770  139.1130 C   0  0  0  0  0  2  0  0  0  0  0  0
  182.7170  180.2710  138.8510 C   0  0  0  0  0  2  0  0  0  0  0  0
  182.4060  177.9840  140.4930 C   0  0  0  0  0  2  0  0  0  0  0  0
  1 10  1  1  0  0  0
  1 12  1  0  0  0  0
  2 13  1  6  0  0  0
  2  8  1  0  0  0  0
  3 11  1  0  0  0  0
  4 14  1  0  0  0  0
  5 10  1  0  0  0  0
  6  2  1  0  0  0  0
  6  5  1  0  0  0  0
  7 16  1  0  0  0  0
  7 17  1  0  0  0  0
  8  3  1  0  0  0  0
  8  1  1  0  0  0  0
  9 16  1  0  0  0  0
 11 15  1  0  0  0  0
 11 18  1  0  0  0  0
 12 18  1  0  0  0  0
 13  7  1  0  0  0  0
 14 15  1  0  0  0  0
 15 21  1  0  0  0  0
 16 17  1  0  0  0  0
 17  4  1  0  0  0  0
 17  3  1  0  0  0  0
 19 25  1  0  0  0  0
 19 20  1  0  0  0  0
 21 23  1  0  0  0  0
 21 24  2  0  0  0  0
 22 20  2  0  0  0  0
 23 19  2  0  0  0  0
 24 22  1  0  0  0  0
 27 16  1  0  0  0  0
 27 26  2  0  0  0  0
 28 26  1  0  0  0  0
 28 29  1  0  0  0  0
 29 30  1  0  0  0  0
 30 34  1  0  0  0  0
 31 34  1  0  0  0  0
 32 31  1  0  0  0  0
 33 29  1  0  0  0  0
 33 32  1  0  0  0  0
M  END
>  <MODEL>
5

>  <REMARK>
 VINA RESULT:      -8.2      2.419      6.163
  Name = 
  4 active torsions:
  status: ('A' for Active; 'I' for Inactive)
    1  A    between atoms: C_3  and  C_13
    2  A    between atoms: C_11  and  C_13
    3  A    between atoms: C_12  and  C_28
    4  A    between atoms: N_17  and  C_29
                            x       y       z     vdW  Elec       q    Type
                         _______ _______ _______ _____ _____    ______ ____

>  <TORSDO>
F 4

$$$$
=
 OpenBabel11052414203D

 34 40  0  0  1  0  0  0  0  0999 V2000
  189.4580  177.3710  146.5160 C   0  0  2  0  0  3  0  0  0  0  0  0
  187.1080  177.9420  146.7270 C   0  0  2  0  0  3  0  0  0  0  0  0
  188.2160  178.3400  144.4350 C   0  0  1  0  0  3  0  0  0  0  0  0
  187.2470  176.3720  143.2210 O   0  0  0  0  0  0  0  0  0  0  0  0
  188.4260  177.6280  148.8080 C   0  0  0  0  0  2  0  0  0  0  0  0
  187.2490  178.3890  148.1730 C   0  0  0  0  0  2  0  0  0  0  0  0
  185.7020  177.5750  144.7470 C   0  0  1  0  0  3  0  0  0  0  0  0
  188.3820  178.3110  145.9740 C   0  0  2  0  0  3  0  0  0  0  0  0
  185.8550  179.9040  143.4870 C   0  0  0  0  0  1  0  0  0  0  0  0
  189.7190  177.7460  147.9780 C   0  0  0  0  0  2  0  0  0  0  0  0
  189.4890  178.0500  143.6190 C   0  0  2  0  0  3  0  0  0  0  0  0
  190.7260  177.4180  145.6880 C   0  0  0  0  0  2  0  0  0  0  0  0
  185.8590  178.4260  146.0160 C   0  0  0  0  0  2  0  0  0  0  0  0
  187.9860  176.6330  142.0380 C   0  0  0  0  0  2  0  0  0  0  0  0
  189.1080  177.6940  142.1740 C   0  0  2  0  0  3  0  0  0  0  0  0
  185.7700  178.3790  143.4440 C   0  0  1  0  0  0  0  0  0  0  0  0
  186.9890  177.5830  143.8940 C   0  0  1  0  0  0  0  0  0  0  0  0
  190.3810  176.9910  144.2710 C   0  0  0  0  0  2  0  0  0  0  0  0
  191.1070  176.7720  139.0900 C   0  0  0  0  0  0  0  0  0  0  0  0
  192.4170  177.0230  139.5110 C   0  0  0  0  0  3  0  0  0  0  0  0
  190.2720  177.4520  141.2630 C   0  0  0  0  0  0  0  0  0  0  0  0
  192.6570  177.4920  140.8060 C   0  0  0  0  0  3  0  0  0  0  0  0
  190.0380  176.9890  139.9630 C   0  0  0  0  0  3  0  0  0  0  0  0
  191.5880  177.7090  141.6800 C   0  0  0  0  0  3  0  0  0  0  0  0
  190.8760  176.3190  137.8350 F   0  0  0  0  0  0  0  0  0  0  0  0
  184.0100  178.3690  141.8510 C   0  0  0  0  0  3  0  0  0  0  0  0
  185.0410  177.7900  142.3470 N   0  0  0  0  0  0  0  0  0  0  0  0
  183.2750  177.7390  140.7170 C   0  0  0  0  0  2  0  0  0  0  0  0
  183.1940  178.6980  139.5360 C   0  0  0  0  0  3  0  0  0  0  0  0
  182.5990  177.9880  138.3160 C   0  0  0  0  0  2  0  0  0  0  0  0
  184.7590  177.8720  137.2660 O   0  0  0  0  0  0  0  0  0  0  0  0
  185.4160  178.2570  138.4470 C   0  0  0  0  0  2  0  0  0  0  0  0
  184.5710  179.2880  139.2010 C   0  0  0  0  0  2  0  0  0  0  0  0
  183.6540  177.0960  137.6570 C   0  0  0  0  0  2  0  0  0  0  0  0
  1 12  1  6  0  0  0
  1 10  1  0  0  0  0
  2 13  1  6  0  0  0
  2  6  1  0  0  0  0
  3  8  1  0  0  0  0
  4 17  1  0  0  0  0
  6  5  1  0  0  0  0
  7 13  1  0  0  0  0
  8  1  1  0  0  0  0
  8  2  1  0  0  0  0
 10  5  1  0  0  0  0
 11 18  1  0  0  0  0
 11  3  1  0  0  0  0
 14 15  1  0  0  0  0
 14  4  1  0  0  0  0
 15 11  1  0  0  0  0
 16  9  1  0  0  0  0
 16 17  1  0  0  0  0
 16  7  1  0  0  0  0
 17  3  1  0  0  0  0
 17  7  1  0  0  0  0
 18 12  1  0  0  0  0
 19 20  2  0  0  0  0
 19 23  1  0  0  0  0
 20 22  1  0  0  0  0
 21 24  1  0  0  0  0
 21 15  1  0  0  0  0
 22 24  2  0  0  0  0
 23 21  2  0  0  0  0
 25 19  1  0  0  0  0
 26 27  2  0  0  0  0
 27 16  1  0  0  0  0
 28 26  1  0  0  0  0
 29 28  1  0  0  0  0
 30 29  1  0  0  0  0
 31 34  1  0  0  0  0
 31 32  1  0  0  0  0
 32 33  1  0  0  0  0
 33 29  1  0  0  0  0
 34 30  1  0  0  0  0
M  END
>  <MODEL>
6

>  <REMARK>
 VINA RESULT:      -8.1      2.704      5.494
  Name = 
  4 active torsions:
  status: ('A' for Active; 'I' for Inactive)
    1  A    between atoms: C_3  and  C_13
    2  A    between atoms: C_11  and  C_13
    3  A    between atoms: C_12  and  C_28
    4  A    between atoms: N_17  and  C_29
                            x       y       z     vdW  Elec       q    Type
                         _______ _______ _______ _____ _____    ______ ____

>  <TORSDO>
F 4

$$$$
=
 OpenBabel11052414203D

 34 40  0  0  1  0  0  0  0  0999 V2000
  189.2510  177.1470  138.6990 C   0  0  2  0  0  3  0  0  0  0  0  0
  191.3620  176.9500  139.8810 C   0  0  2  0  0  3  0  0  0  0  0  0
  189.4060  178.0540  141.1420 C   0  0  1  0  0  3  0  0  0  0  0  0
  188.8140  176.1310  142.6390 O   0  0  0  0  0  0  0  0  0  0  0  0
  191.3740  176.6810  137.4120 C   0  0  0  0  0  2  0  0  0  0  0  0
  192.1920  177.1580  138.6240 C   0  0  0  0  0  2  0  0  0  0  0  0
  191.2390  176.5360  142.2970 C   0  0  1  0  0  3  0  0  0  0  0  0
  190.1030  177.8060  139.7830 C   0  0  2  0  0  3  0  0  0  0  0  0
  191.2380  178.9880  143.3080 C   0  0  0  0  0  1  0  0  0  0  0  0
  189.9730  177.3210  137.3600 C   0  0  0  0  0  2  0  0  0  0  0  0
  187.8870  178.3020  141.0790 C   0  0  2  0  0  3  0  0  0  0  0  0
  187.8450  177.7130  138.6590 C   0  0  0  0  0  2  0  0  0  0  0  0
  192.1000  177.1590  141.1890 C   0  0  0  0  0  2  0  0  0  0  0  0
  187.6950  176.8030  143.1960 C   0  0  0  0  0  2  0  0  0  0  0  0
  187.2730  178.1080  142.4750 C   0  0  2  0  0  3  0  0  0  0  0  0
  190.7560  177.5390  143.3510 C   0  0  1  0  0  0  0  0  0  0  0  0
  189.7920  177.0740  142.2650 C   0  0  1  0  0  0  0  0  0  0  0  0
  187.1940  177.4570  140.0080 C   0  0  0  0  0  2  0  0  0  0  0  0
  183.8120  178.6880  143.9040 C   0  0  0  0  0  0  0  0  0  0  0  0
  183.0630  178.9400  142.7500 C   0  0  0  0  0  3  0  0  0  0  0  0
  185.8020  178.3850  142.5530 C   0  0  0  0  0  0  0  0  0  0  0  0
  183.6820  178.9190  141.4970 C   0  0  0  0  0  3  0  0  0  0  0  0
  185.1790  178.4140  143.8050 C   0  0  0  0  0  3  0  0  0  0  0  0
  185.0490  178.6450  141.3970 C   0  0  0  0  0  3  0  0  0  0  0  0
  183.2110  178.7090  145.1180 F   0  0  0  0  0  0  0  0  0  0  0  0
  190.2650  177.7030  145.6680 C   0  0  0  0  0  3  0  0  0  0  0  0
  190.5160  176.9620  144.6520 N   0  0  0  0  0  0  0  0  0  0  0  0
  190.0210  177.0810  147.0010 C   0  0  0  0  0  2  0  0  0  0  0  0
  188.5660  176.6460  147.1270 C   0  0  0  0  0  3  0  0  0  0  0  0
  187.6850  177.4560  146.1720 C   0  0  0  0  0  2  0  0  0  0  0  0
  186.8010  178.7450  148.0010 O   0  0  0  0  0  0  0  0  0  0  0  0
  187.7690  178.2480  148.8920 C   0  0  0  0  0  2  0  0  0  0  0  0
  188.0670  176.7810  148.5730 C   0  0  0  0  0  2  0  0  0  0  0  0
  187.4290  178.8520  146.7480 C   0  0  0  0  0  2  0  0  0  0  0  0
  1 10  1  6  0  0  0
  1  8  1  0  0  0  0
  2  6  1  6  0  0  0
  2 13  1  0  0  0  0
  3 17  1  0  0  0  0
  4 14  1  0  0  0  0
  5  6  1  0  0  0  0
  7 16  1  0  0  0  0
  8  2  1  0  0  0  0
  8  3  1  0  0  0  0
  9 16  1  0  0  0  0
 10  5  1  0  0  0  0
 11  3  1  0  0  0  0
 11 15  1  0  0  0  0
 12  1  1  0  0  0  0
 12 18  1  0  0  0  0
 13  7  1  0  0  0  0
 15 21  1  0  0  0  0
 15 14  1  0  0  0  0
 16 27  1  0  0  0  0
 17  7  1  0  0  0  0
 17  4  1  0  0  0  0
 17 16  1  0  0  0  0
 18 11  1  0  0  0  0
 19 25  1  0  0  0  0
 20 19  2  0  0  0  0
 21 23  2  0  0  0  0
 22 20  1  0  0  0  0
 23 19  1  0  0  0  0
 24 22  2  0  0  0  0
 24 21  1  0  0  0  0
 26 28  1  0  0  0  0
 27 26  2  0  0  0  0
 28 29  1  0  0  0  0
 29 33  1  0  0  0  0
 30 34  1  0  0  0  0
 30 29  1  0  0  0  0
 31 32  1  0  0  0  0
 33 32  1  0  0  0  0
 34 31  1  0  0  0  0
M  END
>  <MODEL>
7

>  <REMARK>
 VINA RESULT:      -7.7      1.849      6.611
  Name = 
  4 active torsions:
  status: ('A' for Active; 'I' for Inactive)
    1  A    between atoms: C_3  and  C_13
    2  A    between atoms: C_11  and  C_13
    3  A    between atoms: C_12  and  C_28
    4  A    between atoms: N_17  and  C_29
                            x       y       z     vdW  Elec       q    Type
                         _______ _______ _______ _____ _____    ______ ____

>  <TORSDO>
F 4

$$$$
