=
 OpenBabel11052413373D

 28 29  0  0  1  0  0  0  0  0999 V2000
  187.5830  177.1850  145.1020 C   0  0  0  0  0  2  0  0  0  0  0  0
  186.3750  177.6870  145.8750 C   0  0  2  0  0  3  0  0  0  0  0  0
  185.6950  178.7980  145.0890 C   0  0  0  0  0  2  0  0  0  0  0  0
  184.1990  178.8000  145.3590 C   0  0  0  0  0  2  0  0  0  0  0  0
  183.4050  178.5790  141.6720 C   0  0  0  0  0  3  0  0  0  0  0  0
  183.4480  178.7860  144.0740 C   0  0  0  0  0  0  0  0  0  0  0  0
  181.3690  178.8880  142.8560 C   0  0  0  0  0  0  0  0  0  0  0  0
  184.1300  178.6090  142.8670 C   0  0  0  0  0  3  0  0  0  0  0  0
  182.0580  178.9210  144.0720 C   0  0  0  0  0  3  0  0  0  0  0  0
  180.0220  179.0110  142.8390 F   0  0  0  0  0  0  0  0  0  0  0  0
  182.0520  178.7200  141.6920 N   0  0  0  0  0  0  0  0  0  0  0  0
  186.8180  178.2140  147.2320 C   0  0  0  0  0  2  0  0  0  0  0  0
  189.2500  178.2790  148.4570 S   0  0  0  0  0  1  0  0  0  0  0  0
  187.8590  177.2940  147.8390 C   0  0  0  0  0  2  0  0  0  0  0  0
  187.1610  176.6850  143.7250 C   0  0  0  0  0  2  0  0  0  0  0  0
  188.5280  177.9640  141.9360 C   0  0  2  0  0  0  0  0  0  0  0  0
  190.4870  177.6270  143.1680 C   0  0  1  0  0  3  0  0  0  0  0  0
  189.6580  178.6540  142.5440 N   0  0  0  0  0  2  0  0  0  0  0  0
  190.9840  178.1010  144.3820 O   0  0  0  0  0  1  0  0  0  0  0  0
  189.6360  176.3950  143.4110 C   0  0  2  0  0  3  0  0  0  0  0  0
  190.2510  175.2830  142.8350 O   0  0  0  0  0  1  0  0  0  0  0  0
  187.4000  178.7910  141.9790 O   0  0  0  0  0  1  0  0  0  0  0  0
  188.3200  176.6630  142.7170 C   0  0  1  0  0  3  0  0  0  0  0  0
  188.8610  177.6490  140.4810 C   0  0  0  0  0  2  0  0  0  0  0  0
  188.5980  178.7510  139.6640 O   0  0  0  0  0  0  0  0  0  0  0  0
  187.7620  178.2770  138.7100 N   0  0  0  0  0  2  0  0  0  0  0  0
  188.4330  178.4470  137.4320 C   0  0  0  0  0  2  0  0  0  0  0  0
  188.9800  179.7280  137.3560 O   0  0  0  0  0  1  0  0  0  0  0  0
  1  2  1  0  0  0  0
  2  3  1  6  0  0  0
  2 12  1  0  0  0  0
  3  4  1  0  0  0  0
  5 11  2  0  0  0  0
  5  8  1  0  0  0  0
  6  4  1  0  0  0  0
  7  9  2  0  0  0  0
  8  6  2  0  0  0  0
  9  6  1  0  0  0  0
 10  7  1  0  0  0  0
 11  7  1  0  0  0  0
 12 14  1  0  0  0  0
 14 13  1  0  0  0  0
 15  1  1  0  0  0  0
 16 22  1  1  0  0  0
 16 18  1  0  0  0  0
 16 23  1  0  0  0  0
 17 20  1  0  0  0  0
 17 19  1  1  0  0  0
 18 17  1  0  0  0  0
 20 21  1  6  0  0  0
 23 20  1  0  0  0  0
 23 15  1  1  0  0  0
 24 16  1  0  0  0  0
 25 24  1  0  0  0  0
 26 25  1  0  0  0  0
 27 26  1  0  0  0  0
 28 27  1  0  0  0  0
M  END
>  <MODEL>
1

>  <REMARK>
 VINA RESULT:      -7.5      0.000      0.000
  Name = 
  12 active torsions:
  status: ('A' for Active; 'I' for Inactive)
    1  A    between atoms: C_1  and  C_11
    2  A    between atoms: O_6  and  N_8
    3  A    between atoms: O_6  and  C_11
    4  A    between atoms: N_8  and  C_22
    5  A    between atoms: C_9  and  C_18
    6  A    between atoms: C_10  and  C_14
    7  A    between atoms: C_10  and  C_17
    8  A    between atoms: C_10  and  C_25
    9  A    between atoms: C_14  and  C_18
   10  A    between atoms: C_17  and  C_19
   11  A    between atoms: C_19  and  C_27
   12  A    between atoms: C_20  and  C_25
                            x       y       z     vdW  Elec       q    Type
                         _______ _______ _______ _____ _____    ______ ____

>  <TORSDO>
F 12

$$$$
=
 OpenBabel11052413373D

 28 29  0  0  1  0  0  0  0  0999 V2000
  187.5850  177.1990  145.0010 C   0  0  0  0  0  2  0  0  0  0  0  0
  186.3790  177.6890  145.7860 C   0  0  2  0  0  3  0  0  0  0  0  0
  185.7070  178.8250  145.0290 C   0  0  0  0  0  2  0  0  0  0  0  0
  184.2070  178.8060  145.2670 C   0  0  0  0  0  2  0  0  0  0  0  0
  181.4500  178.9460  142.6870 C   0  0  0  0  0  3  0  0  0  0  0  0
  183.4840  178.7500  143.9660 C   0  0  0  0  0  0  0  0  0  0  0  0
  183.4910  178.4600  141.5730 C   0  0  0  0  0  0  0  0  0  0  0  0
  182.1070  178.9840  143.9200 C   0  0  0  0  0  3  0  0  0  0  0  0
  184.1840  178.4920  142.7850 C   0  0  0  0  0  3  0  0  0  0  0  0
  184.1560  178.2170  140.4200 F   0  0  0  0  0  0  0  0  0  0  0  0
  182.1500  178.6850  141.5500 N   0  0  0  0  0  0  0  0  0  0  0  0
  186.8240  178.1760  147.1560 C   0  0  0  0  0  2  0  0  0  0  0  0
  189.2260  178.2590  148.4390 S   0  0  0  0  0  1  0  0  0  0  0  0
  187.8950  177.2610  147.7180 C   0  0  0  0  0  2  0  0  0  0  0  0
  187.1680  176.7810  143.5950 C   0  0  0  0  0  2  0  0  0  0  0  0
  188.5840  178.0240  141.8190 C   0  0  2  0  0  0  0  0  0  0  0  0
  190.5140  177.6830  143.0960 C   0  0  1  0  0  3  0  0  0  0  0  0
  189.7080  178.7100  142.4420 N   0  0  0  0  0  2  0  0  0  0  0  0
  190.9900  178.1670  144.3140 O   0  0  0  0  0  1  0  0  0  0  0  0
  189.6450  176.4630  143.3360 C   0  0  2  0  0  3  0  0  0  0  0  0
  190.2610  175.3380  142.7870 O   0  0  0  0  0  1  0  0  0  0  0  0
  187.4640  178.8620  141.8280 O   0  0  0  0  0  1  0  0  0  0  0  0
  188.3470  176.7350  142.6120 C   0  0  1  0  0  3  0  0  0  0  0  0
  188.9440  177.6870  140.3750 C   0  0  0  0  0  2  0  0  0  0  0  0
  188.1460  178.4100  139.4850 O   0  0  0  0  0  0  0  0  0  0  0  0
  189.0270  179.0290  138.6640 N   0  0  0  0  0  2  0  0  0  0  0  0
  188.6720  178.6620  137.3030 C   0  0  0  0  0  2  0  0  0  0  0  0
  189.6250  177.7810  136.7910 O   0  0  0  0  0  1  0  0  0  0  0  0
  2  1  1  6  0  0  0
  2 12  1  0  0  0  0
  3  4  1  0  0  0  0
  3  2  1  0  0  0  0
  5  8  1  0  0  0  0
  6  4  1  0  0  0  0
  7  9  2  0  0  0  0
  8  6  2  0  0  0  0
  9  6  1  0  0  0  0
 10  7  1  0  0  0  0
 11  7  1  0  0  0  0
 11  5  2  0  0  0  0
 12 14  1  0  0  0  0
 14 13  1  0  0  0  0
 15  1  1  0  0  0  0
 16 22  1  1  0  0  0
 16 18  1  0  0  0  0
 16 23  1  0  0  0  0
 17 20  1  0  0  0  0
 17 19  1  1  0  0  0
 18 17  1  0  0  0  0
 20 21  1  6  0  0  0
 23 20  1  0  0  0  0
 23 15  1  1  0  0  0
 24 16  1  0  0  0  0
 25 24  1  0  0  0  0
 26 25  1  0  0  0  0
 27 26  1  0  0  0  0
 28 27  1  0  0  0  0
M  END
>  <MODEL>
2

>  <REMARK>
 VINA RESULT:      -7.5      1.055      1.389
  Name = 
  12 active torsions:
  status: ('A' for Active; 'I' for Inactive)
    1  A    between atoms: C_1  and  C_11
    2  A    between atoms: O_6  and  N_8
    3  A    between atoms: O_6  and  C_11
    4  A    between atoms: N_8  and  C_22
    5  A    between atoms: C_9  and  C_18
    6  A    between atoms: C_10  and  C_14
    7  A    between atoms: C_10  and  C_17
    8  A    between atoms: C_10  and  C_25
    9  A    between atoms: C_14  and  C_18
   10  A    between atoms: C_17  and  C_19
   11  A    between atoms: C_19  and  C_27
   12  A    between atoms: C_20  and  C_25
                            x       y       z     vdW  Elec       q    Type
                         _______ _______ _______ _____ _____    ______ ____

>  <TORSDO>
F 12

$$$$
=
 OpenBabel11052413373D

 28 29  0  0  1  0  0  0  0  0999 V2000
  188.5970  177.7760  141.0530 C   0  0  0  0  0  2  0  0  0  0  0  0
  189.0830  177.1100  142.3300 C   0  0  2  0  0  3  0  0  0  0  0  0
  187.8880  176.6340  143.1410 C   0  0  0  0  0  2  0  0  0  0  0  0
  187.9580  177.1780  144.5580 C   0  0  0  0  0  2  0  0  0  0  0  0
  185.1040  178.5200  146.6390 C   0  0  0  0  0  3  0  0  0  0  0  0
  186.6430  177.7600  144.9460 C   0  0  0  0  0  0  0  0  0  0  0  0
  184.5050  178.7010  144.3480 C   0  0  0  0  0  0  0  0  0  0  0  0
  186.3350  177.9540  146.2950 C   0  0  0  0  0  3  0  0  0  0  0  0
  185.7260  178.1410  143.9630 C   0  0  0  0  0  3  0  0  0  0  0  0
  183.6100  179.0800  143.4070 F   0  0  0  0  0  0  0  0  0  0  0  0
  184.2220  178.8770  145.6660 N   0  0  0  0  0  0  0  0  0  0  0  0
  189.8970  178.1030  143.1460 C   0  0  0  0  0  2  0  0  0  0  0  0
  191.5850  176.0760  143.8250 S   0  0  0  0  0  1  0  0  0  0  0  0
  191.3660  177.7310  143.1160 C   0  0  0  0  0  2  0  0  0  0  0  0
  189.3890  177.2650  139.8540 C   0  0  0  0  0  2  0  0  0  0  0  0
  188.4910  178.3440  137.6790 C   0  0  2  0  0  0  0  0  0  0  0  0
  189.4480  176.6250  136.4130 C   0  0  1  0  0  3  0  0  0  0  0  0
  189.3870  178.0770  136.5610 N   0  0  0  0  0  2  0  0  0  0  0  0
  190.7490  176.2430  136.0930 O   0  0  0  0  0  1  0  0  0  0  0  0
  189.0340  175.9840  137.7240 C   0  0  2  0  0  3  0  0  0  0  0  0
  188.0030  175.0740  137.4920 O   0  0  0  0  0  1  0  0  0  0  0  0
  188.9050  179.5050  138.3400 O   0  0  0  0  0  1  0  0  0  0  0  0
  188.5290  177.1140  138.5910 C   0  0  1  0  0  3  0  0  0  0  0  0
  187.0760  178.5520  137.1450 C   0  0  0  0  0  2  0  0  0  0  0  0
  186.1350  177.9820  138.0060 O   0  0  0  0  0  0  0  0  0  0  0  0
  185.3820  179.0270  138.4250 N   0  0  0  0  0  2  0  0  0  0  0  0
  184.8900  178.6930  139.7520 C   0  0  0  0  0  2  0  0  0  0  0  0
  185.4960  179.5200  140.6990 O   0  0  0  0  0  1  0  0  0  0  0  0
  2  1  1  6  0  0  0
  2  3  1  0  0  0  0
  2 12  1  0  0  0  0
  3  4  1  0  0  0  0
  4  6  1  0  0  0  0
  6  8  2  0  0  0  0
  7 11  1  0  0  0  0
  8  5  1  0  0  0  0
  9  7  2  0  0  0  0
  9  6  1  0  0  0  0
 10  7  1  0  0  0  0
 11  5  2  0  0  0  0
 14 12  1  0  0  0  0
 14 13  1  0  0  0  0
 15  1  1  0  0  0  0
 16 22  1  1  0  0  0
 16 23  1  0  0  0  0
 17 19  1  1  0  0  0
 17 18  1  0  0  0  0
 17 20  1  0  0  0  0
 18 16  1  0  0  0  0
 20 21  1  6  0  0  0
 20 23  1  0  0  0  0
 23 15  1  1  0  0  0
 24 16  1  0  0  0  0
 24 25  1  0  0  0  0
 25 26  1  0  0  0  0
 26 27  1  0  0  0  0
 27 28  1  0  0  0  0
M  END
>  <MODEL>
3

>  <REMARK>
 VINA RESULT:      -7.2      2.900      4.798
  Name = 
  12 active torsions:
  status: ('A' for Active; 'I' for Inactive)
    1  A    between atoms: C_1  and  C_11
    2  A    between atoms: O_6  and  N_8
    3  A    between atoms: O_6  and  C_11
    4  A    between atoms: N_8  and  C_22
    5  A    between atoms: C_9  and  C_18
    6  A    between atoms: C_10  and  C_14
    7  A    between atoms: C_10  and  C_17
    8  A    between atoms: C_10  and  C_25
    9  A    between atoms: C_14  and  C_18
   10  A    between atoms: C_17  and  C_19
   11  A    between atoms: C_19  and  C_27
   12  A    between atoms: C_20  and  C_25
                            x       y       z     vdW  Elec       q    Type
                         _______ _______ _______ _____ _____    ______ ____

>  <TORSDO>
F 12

$$$$
=
 OpenBabel11052413373D

 28 29  0  0  1  0  0  0  0  0999 V2000
  187.9060  176.7860  144.5350 C   0  0  0  0  0  2  0  0  0  0  0  0
  186.5520  177.2660  145.0320 C   0  0  2  0  0  3  0  0  0  0  0  0
  186.1010  178.4610  144.2060 C   0  0  0  0  0  2  0  0  0  0  0  0
  184.6960  178.8800  144.6020 C   0  0  0  0  0  2  0  0  0  0  0  0
  181.5740  178.9240  142.4760 C   0  0  0  0  0  3  0  0  0  0  0  0
  183.7710  178.7220  143.4460 C   0  0  0  0  0  0  0  0  0  0  0  0
  183.3750  178.1410  141.1400 C   0  0  0  0  0  0  0  0  0  0  0  0
  182.4210  179.0600  143.5790 C   0  0  0  0  0  3  0  0  0  0  0  0
  184.2550  178.2650  142.2180 C   0  0  0  0  0  3  0  0  0  0  0  0
  183.8300  177.7050  139.9420 F   0  0  0  0  0  0  0  0  0  0  0  0
  182.0630  178.4690  141.2910 N   0  0  0  0  0  0  0  0  0  0  0  0
  186.6560  177.6620  146.4970 C   0  0  0  0  0  2  0  0  0  0  0  0
  188.4800  178.2110  148.4450 S   0  0  0  0  0  1  0  0  0  0  0  0
  187.9390  177.1230  147.0990 C   0  0  0  0  0  2  0  0  0  0  0  0
  187.8780  176.5950  143.0230 C   0  0  0  0  0  2  0  0  0  0  0  0
  190.2190  176.6920  141.9220 C   0  0  2  0  0  0  0  0  0  0  0  0
  189.2590  177.3830  139.9040 C   0  0  1  0  0  3  0  0  0  0  0  0
  190.1360  176.3800  140.5010 N   0  0  0  0  0  2  0  0  0  0  0  0
  188.4520  176.7820  138.9390 O   0  0  0  0  0  1  0  0  0  0  0  0
  188.3910  177.9830  140.9940 C   0  0  2  0  0  3  0  0  0  0  0  0
  188.5180  179.3720  140.9770 O   0  0  0  0  0  1  0  0  0  0  0  0
  190.3730  175.5080  142.6510 O   0  0  0  0  0  1  0  0  0  0  0  0
  188.9350  177.4390  142.2950 C   0  0  1  0  0  3  0  0  0  0  0  0
  191.4300  177.5890  142.1640 C   0  0  0  0  0  2  0  0  0  0  0  0
  191.1620  178.5190  143.1720 O   0  0  0  0  0  0  0  0  0  0  0  0
  192.0590  178.2340  144.1460 N   0  0  0  0  0  2  0  0  0  0  0  0
  191.3120  177.6830  145.2650 C   0  0  0  0  0  2  0  0  0  0  0  0
  191.7810  176.4020  145.5560 O   0  0  0  0  0  1  0  0  0  0  0  0
  1  2  1  0  0  0  0
  2  3  1  6  0  0  0
  2 12  1  0  0  0  0
  3  4  1  0  0  0  0
  5  8  1  0  0  0  0
  6  8  2  0  0  0  0
  6  4  1  0  0  0  0
  7 11  1  0  0  0  0
  7  9  2  0  0  0  0
  9  6  1  0  0  0  0
 10  7  1  0  0  0  0
 11  5  2  0  0  0  0
 12 14  1  0  0  0  0
 14 13  1  0  0  0  0
 15  1  1  0  0  0  0
 16 24  1  0  0  0  0
 16 23  1  0  0  0  0
 16 22  1  1  0  0  0
 17 19  1  6  0  0  0
 17 18  1  0  0  0  0
 17 20  1  0  0  0  0
 18 16  1  0  0  0  0
 20 21  1  1  0  0  0
 20 23  1  0  0  0  0
 23 15  1  6  0  0  0
 24 25  1  0  0  0  0
 25 26  1  0  0  0  0
 26 27  1  0  0  0  0
 27 28  1  0  0  0  0
M  END
>  <MODEL>
4

>  <REMARK>
 VINA RESULT:      -7.2      1.749      3.812
  Name = 
  12 active torsions:
  status: ('A' for Active; 'I' for Inactive)
    1  A    between atoms: C_1  and  C_11
    2  A    between atoms: O_6  and  N_8
    3  A    between atoms: O_6  and  C_11
    4  A    between atoms: N_8  and  C_22
    5  A    between atoms: C_9  and  C_18
    6  A    between atoms: C_10  and  C_14
    7  A    between atoms: C_10  and  C_17
    8  A    between atoms: C_10  and  C_25
    9  A    between atoms: C_14  and  C_18
   10  A    between atoms: C_17  and  C_19
   11  A    between atoms: C_19  and  C_27
   12  A    between atoms: C_20  and  C_25
                            x       y       z     vdW  Elec       q    Type
                         _______ _______ _______ _____ _____    ______ ____

>  <TORSDO>
F 12

$$$$
=
 OpenBabel11052413373D

 28 29  0  0  1  0  0  0  0  0999 V2000
  187.2110  178.5830  141.7480 C   0  0  0  0  0  2  0  0  0  0  0  0
  186.3930  178.3300  143.0040 C   0  0  2  0  0  3  0  0  0  0  0  0
  187.0150  177.1880  143.7930 C   0  0  0  0  0  2  0  0  0  0  0  0
  187.2220  177.5960  145.2420 C   0  0  0  0  0  2  0  0  0  0  0  0
  190.3060  176.9530  147.3270 C   0  0  0  0  0  3  0  0  0  0  0  0
  188.6410  177.3770  145.6370 C   0  0  0  0  0  0  0  0  0  0  0  0
  190.9660  177.1190  145.0520 C   0  0  0  0  0  0  0  0  0  0  0  0
  188.9700  177.1760  146.9800 C   0  0  0  0  0  3  0  0  0  0  0  0
  189.6430  177.3430  144.6640 C   0  0  0  0  0  3  0  0  0  0  0  0
  191.9460  177.0780  144.1200 F   0  0  0  0  0  0  0  0  0  0  0  0
  191.2670  176.9310  146.3650 N   0  0  0  0  0  0  0  0  0  0  0  0
  184.9650  177.9730  142.6210 C   0  0  0  0  0  2  0  0  0  0  0  0
  183.6770  178.9340  144.8210 S   0  0  0  0  0  1  0  0  0  0  0  0
  184.0150  179.0760  143.0450 C   0  0  0  0  0  2  0  0  0  0  0  0
  188.2460  177.4800  141.5580 C   0  0  0  0  0  2  0  0  0  0  0  0
  190.4550  176.8270  140.3750 C   0  0  2  0  0  0  0  0  0  0  0  0
  189.3650  176.8310  138.3050 C   0  0  1  0  0  3  0  0  0  0  0  0
  190.1880  176.0160  139.1940 N   0  0  0  0  0  2  0  0  0  0  0  0
  188.4010  176.0300  137.6950 O   0  0  0  0  0  1  0  0  0  0  0  0
  188.6870  177.9130  139.1240 C   0  0  2  0  0  3  0  0  0  0  0  0
  188.9590  179.1610  138.5620 O   0  0  0  0  0  1  0  0  0  0  0  0
  190.5570  175.9970  141.4960 O   0  0  0  0  0  1  0  0  0  0  0  0
  189.3040  177.8310  140.5010 C   0  0  1  0  0  3  0  0  0  0  0  0
  191.7730  177.5700  140.1820 C   0  0  0  0  0  2  0  0  0  0  0  0
  192.8080  176.6750  139.9010 O   0  0  0  0  0  0  0  0  0  0  0  0
  193.2900  177.0770  138.7010 N   0  0  0  0  0  2  0  0  0  0  0  0
  193.5340  175.8790  137.9160 C   0  0  0  0  0  2  0  0  0  0  0  0
  194.3420  176.1910  136.8210 O   0  0  0  0  0  1  0  0  0  0  0  0
  2  1  1  6  0  0  0
  2  3  1  0  0  0  0
  3  4  1  0  0  0  0
  4  6  1  0  0  0  0
  6  8  2  0  0  0  0
  7 11  1  0  0  0  0
  8  5  1  0  0  0  0
  9  7  2  0  0  0  0
  9  6  1  0  0  0  0
 10  7  1  0  0  0  0
 11  5  2  0  0  0  0
 12  2  1  0  0  0  0
 12 14  1  0  0  0  0
 14 13  1  0  0  0  0
 15  1  1  0  0  0  0
 16 23  1  0  0  0  0
 16 22  1  1  0  0  0
 17 19  1  1  0  0  0
 17 20  1  0  0  0  0
 17 18  1  0  0  0  0
 18 16  1  0  0  0  0
 20 21  1  6  0  0  0
 20 23  1  0  0  0  0
 23 15  1  1  0  0  0
 24 16  1  0  0  0  0
 25 24  1  0  0  0  0
 26 25  1  0  0  0  0
 27 26  1  0  0  0  0
 28 27  1  0  0  0  0
M  END
>  <MODEL>
5

>  <REMARK>
 VINA RESULT:      -7.0      3.791      6.140
  Name = 
  12 active torsions:
  status: ('A' for Active; 'I' for Inactive)
    1  A    between atoms: C_1  and  C_11
    2  A    between atoms: O_6  and  N_8
    3  A    between atoms: O_6  and  C_11
    4  A    between atoms: N_8  and  C_22
    5  A    between atoms: C_9  and  C_18
    6  A    between atoms: C_10  and  C_14
    7  A    between atoms: C_10  and  C_17
    8  A    between atoms: C_10  and  C_25
    9  A    between atoms: C_14  and  C_18
   10  A    between atoms: C_17  and  C_19
   11  A    between atoms: C_19  and  C_27
   12  A    between atoms: C_20  and  C_25
                            x       y       z     vdW  Elec       q    Type
                         _______ _______ _______ _____ _____    ______ ____

>  <TORSDO>
F 12

$$$$
=
 OpenBabel11052413373D

 28 29  0  0  1  0  0  0  0  0999 V2000
  186.8130  177.3180  143.6900 C   0  0  0  0  0  2  0  0  0  0  0  0
  186.2740  177.5580  145.0910 C   0  0  2  0  0  3  0  0  0  0  0  0
  185.0580  178.4700  145.0180 C   0  0  0  0  0  2  0  0  0  0  0  0
  184.9400  179.0870  143.6350 C   0  0  0  0  0  2  0  0  0  0  0  0
  182.0250  178.4910  141.3070 C   0  0  0  0  0  3  0  0  0  0  0  0
  183.5520  178.9250  143.1210 C   0  0  0  0  0  0  0  0  0  0  0  0
  181.1720  178.8380  143.4960 C   0  0  0  0  0  0  0  0  0  0  0  0
  183.3340  178.6600  141.7660 C   0  0  0  0  0  3  0  0  0  0  0  0
  182.4660  179.0100  143.9950 C   0  0  0  0  0  3  0  0  0  0  0  0
  180.1100  178.9110  144.3320 F   0  0  0  0  0  0  0  0  0  0  0  0
  180.9810  178.5850  142.1740 N   0  0  0  0  0  0  0  0  0  0  0  0
  187.3520  178.2040  145.9490 C   0  0  0  0  0  2  0  0  0  0  0  0
  188.3230  177.8860  148.4740 S   0  0  0  0  0  1  0  0  0  0  0  0
  186.9100  178.2540  147.3990 C   0  0  0  0  0  2  0  0  0  0  0  0
  187.9430  176.2950  143.7240 C   0  0  0  0  0  2  0  0  0  0  0  0
  190.4140  175.9890  143.0160 C   0  0  2  0  0  0  0  0  0  0  0  0
  190.1810  177.6790  141.4150 C   0  0  1  0  0  3  0  0  0  0  0  0
  190.5870  176.2890  141.6010 N   0  0  0  0  0  2  0  0  0  0  0  0
  189.4930  177.8070  140.2090 O   0  0  0  0  0  1  0  0  0  0  0  0
  189.2760  178.0790  142.5640 C   0  0  2  0  0  3  0  0  0  0  0  0
  189.7740  179.2350  143.1670 O   0  0  0  0  0  1  0  0  0  0  0  0
  190.0650  174.6440  143.1680 O   0  0  0  0  0  1  0  0  0  0  0  0
  189.3290  176.9310  143.5460 C   0  0  1  0  0  3  0  0  0  0  0  0
  191.7300  176.2500  143.7440 C   0  0  0  0  0  2  0  0  0  0  0  0
  191.4930  176.7690  145.0200 O   0  0  0  0  0  0  0  0  0  0  0  0
  192.0530  175.8690  145.8630 N   0  0  0  0  0  2  0  0  0  0  0  0
  191.6630  176.2490  147.2110 C   0  0  0  0  0  2  0  0  0  0  0  0
  192.7340  176.0450  148.0830 O   0  0  0  0  0  1  0  0  0  0  0  0
  1 15  1  0  0  0  0
  2  1  1  6  0  0  0
  2 12  1  0  0  0  0
  3  2  1  0  0  0  0
  4  3  1  0  0  0  0
  5  8  2  0  0  0  0
  5 11  1  0  0  0  0
  6  4  1  0  0  0  0
  6  9  2  0  0  0  0
  7  9  1  0  0  0  0
  7 10  1  0  0  0  0
  8  6  1  0  0  0  0
 11  7  2  0  0  0  0
 12 14  1  0  0  0  0
 14 13  1  0  0  0  0
 16 22  1  1  0  0  0
 16 23  1  0  0  0  0
 16 24  1  0  0  0  0
 17 19  1  6  0  0  0
 17 18  1  0  0  0  0
 17 20  1  0  0  0  0
 18 16  1  0  0  0  0
 20 21  1  1  0  0  0
 20 23  1  0  0  0  0
 23 15  1  6  0  0  0
 24 25  1  0  0  0  0
 25 26  1  0  0  0  0
 26 27  1  0  0  0  0
 27 28  1  0  0  0  0
M  END
>  <MODEL>
6

>  <REMARK>
 VINA RESULT:      -6.9      1.887      4.222
  Name = 
  12 active torsions:
  status: ('A' for Active; 'I' for Inactive)
    1  A    between atoms: C_1  and  C_11
    2  A    between atoms: O_6  and  N_8
    3  A    between atoms: O_6  and  C_11
    4  A    between atoms: N_8  and  C_22
    5  A    between atoms: C_9  and  C_18
    6  A    between atoms: C_10  and  C_14
    7  A    between atoms: C_10  and  C_17
    8  A    between atoms: C_10  and  C_25
    9  A    between atoms: C_14  and  C_18
   10  A    between atoms: C_17  and  C_19
   11  A    between atoms: C_19  and  C_27
   12  A    between atoms: C_20  and  C_25
                            x       y       z     vdW  Elec       q    Type
                         _______ _______ _______ _____ _____    ______ ____

>  <TORSDO>
F 12

$$$$
=
 OpenBabel11052413373D

 28 29  0  0  1  0  0  0  0  0999 V2000
  186.4370  178.4620  141.5310 C   0  0  0  0  0  2  0  0  0  0  0  0
  185.7190  178.6650  142.8560 C   0  0  2  0  0  3  0  0  0  0  0  0
  186.3020  177.7240  143.8990 C   0  0  0  0  0  2  0  0  0  0  0  0
  186.0060  178.2350  145.2990 C   0  0  0  0  0  2  0  0  0  0  0  0
  188.1550  177.9340  148.3920 C   0  0  0  0  0  3  0  0  0  0  0  0
  187.1700  177.9810  146.1920 C   0  0  0  0  0  0  0  0  0  0  0  0
  189.4450  177.2510  146.5180 C   0  0  0  0  0  0  0  0  0  0  0  0
  187.0570  178.1970  147.5680 C   0  0  0  0  0  3  0  0  0  0  0  0
  188.3690  177.4990  145.6620 C   0  0  0  0  0  3  0  0  0  0  0  0
  190.6110  176.7780  146.0200 F   0  0  0  0  0  0  0  0  0  0  0  0
  189.3160  177.4730  147.8540 N   0  0  0  0  0  0  0  0  0  0  0  0
  184.2340  178.3840  142.6810 C   0  0  0  0  0  2  0  0  0  0  0  0
  182.1240  178.4350  140.9600 S   0  0  0  0  0  1  0  0  0  0  0  0
  183.9030  178.1950  141.2130 C   0  0  0  0  0  2  0  0  0  0  0  0
  187.9400  178.6440  141.7090 C   0  0  0  0  0  2  0  0  0  0  0  0
  189.6660  177.5290  140.1350 C   0  0  2  0  0  0  0  0  0  0  0  0
  191.0540  177.0650  141.9600 C   0  0  1  0  0  3  0  0  0  0  0  0
  191.0190  177.7010  140.6470 N   0  0  0  0  0  2  0  0  0  0  0  0
  191.8290  177.8300  142.8300 O   0  0  0  0  0  1  0  0  0  0  0  0
  189.6360  176.9660  142.4910 C   0  0  2  0  0  3  0  0  0  0  0  0
  189.3610  175.6440  142.8420 O   0  0  0  0  0  1  0  0  0  0  0  0
  189.3260  178.6270  139.3390 O   0  0  0  0  0  1  0  0  0  0  0  0
  188.7410  177.3850  141.3480 C   0  0  1  0  0  3  0  0  0  0  0  0
  189.6120  176.2610  139.2880 C   0  0  0  0  0  2  0  0  0  0  0  0
  190.8970  175.8670  138.9050 O   0  0  0  0  0  0  0  0  0  0  0  0
  190.6970  174.8270  138.0610 N   0  0  0  0  0  2  0  0  0  0  0  0
  189.5230  175.1450  137.2640 C   0  0  0  0  0  2  0  0  0  0  0  0
  189.0160  173.9790  136.6900 O   0  0  0  0  0  1  0  0  0  0  0  0
  1 15  1  0  0  0  0
  2  1  1  6  0  0  0
  2  3  1  0  0  0  0
  3  4  1  0  0  0  0
  4  6  1  0  0  0  0
  6  8  1  0  0  0  0
  7 11  2  0  0  0  0
  8  5  2  0  0  0  0
  9  6  2  0  0  0  0
  9  7  1  0  0  0  0
 10  7  1  0  0  0  0
 11  5  1  0  0  0  0
 12  2  1  0  0  0  0
 13 14  1  0  0  0  0
 14 12  1  0  0  0  0
 16 22  1  6  0  0  0
 16 18  1  0  0  0  0
 16 23  1  0  0  0  0
 17 20  1  0  0  0  0
 17 19  1  1  0  0  0
 18 17  1  0  0  0  0
 20 21  1  6  0  0  0
 23 15  1  1  0  0  0
 23 20  1  0  0  0  0
 24 16  1  0  0  0  0
 25 24  1  0  0  0  0
 26 25  1  0  0  0  0
 27 26  1  0  0  0  0
 28 27  1  0  0  0  0
M  END
>  <MODEL>
7

>  <REMARK>
 VINA RESULT:      -6.9      3.789      5.397
  Name = 
  12 active torsions:
  status: ('A' for Active; 'I' for Inactive)
    1  A    between atoms: C_1  and  C_11
    2  A    between atoms: O_6  and  N_8
    3  A    between atoms: O_6  and  C_11
    4  A    between atoms: N_8  and  C_22
    5  A    between atoms: C_9  and  C_18
    6  A    between atoms: C_10  and  C_14
    7  A    between atoms: C_10  and  C_17
    8  A    between atoms: C_10  and  C_25
    9  A    between atoms: C_14  and  C_18
   10  A    between atoms: C_17  and  C_19
   11  A    between atoms: C_19  and  C_27
   12  A    between atoms: C_20  and  C_25
                            x       y       z     vdW  Elec       q    Type
                         _______ _______ _______ _____ _____    ______ ____

>  <TORSDO>
F 12

$$$$
=
 OpenBabel11052413373D

 28 29  0  0  1  0  0  0  0  0999 V2000
  188.7810  177.5390  141.1220 C   0  0  0  0  0  2  0  0  0  0  0  0
  189.2750  176.8990  142.4090 C   0  0  2  0  0  3  0  0  0  0  0  0
  188.1290  176.8080  143.4040 C   0  0  0  0  0  2  0  0  0  0  0  0
  186.9370  177.6150  142.9150 C   0  0  0  0  0  2  0  0  0  0  0  0
  184.0580  178.9510  144.9630 C   0  0  0  0  0  3  0  0  0  0  0  0
  186.1120  178.0600  144.0720 C   0  0  0  0  0  0  0  0  0  0  0  0
  185.8170  178.3610  146.4460 C   0  0  0  0  0  0  0  0  0  0  0  0
  184.8230  178.5570  143.8620 C   0  0  0  0  0  3  0  0  0  0  0  0
  186.6120  177.9540  145.3720 C   0  0  0  0  0  3  0  0  0  0  0  0
  186.2850  178.2600  147.7110 F   0  0  0  0  0  0  0  0  0  0  0  0
  184.5660  178.8470  146.2210 N   0  0  0  0  0  0  0  0  0  0  0  0
  190.4020  177.7360  142.9960 C   0  0  0  0  0  2  0  0  0  0  0  0
  191.2990  176.9450  145.4440 S   0  0  0  0  0  1  0  0  0  0  0  0
  190.1640  177.9760  144.4740 C   0  0  0  0  0  2  0  0  0  0  0  0
  189.7320  177.2230  139.9730 C   0  0  0  0  0  2  0  0  0  0  0  0
  188.7930  178.0580  137.7090 C   0  0  2  0  0  0  0  0  0  0  0  0
  190.1310  176.5160  136.5670 C   0  0  1  0  0  3  0  0  0  0  0  0
  189.7930  177.9340  136.6570 N   0  0  0  0  0  2  0  0  0  0  0  0
  191.4990  176.3750  136.3390 O   0  0  0  0  0  1  0  0  0  0  0  0
  189.7590  175.8430  137.8750 C   0  0  2  0  0  3  0  0  0  0  0  0
  188.9310  174.7510  137.6170 O   0  0  0  0  0  1  0  0  0  0  0  0
  188.9420  179.2930  138.3490 O   0  0  0  0  0  1  0  0  0  0  0  0
  188.9980  176.8810  138.6680 C   0  0  1  0  0  3  0  0  0  0  0  0
  187.4020  177.9840  137.0850 C   0  0  0  0  0  2  0  0  0  0  0  0
  186.5810  178.9960  137.5880 O   0  0  0  0  0  0  0  0  0  0  0  0
  185.5180  178.3410  138.1150 N   0  0  0  0  0  2  0  0  0  0  0  0
  185.4970  178.6380  139.5380 C   0  0  0  0  0  2  0  0  0  0  0  0
  184.6900  179.7520  139.7730 O   0  0  0  0  0  1  0  0  0  0  0  0
  2  1  1  6  0  0  0
  2 12  1  0  0  0  0
  2  3  1  0  0  0  0
  4  3  1  0  0  0  0
  4  6  1  0  0  0  0
  5 11  1  0  0  0  0
  6  9  2  0  0  0  0
  7 10  1  0  0  0  0
  8  6  1  0  0  0  0
  8  5  2  0  0  0  0
  9  7  1  0  0  0  0
 11  7  2  0  0  0  0
 12 14  1  0  0  0  0
 14 13  1  0  0  0  0
 15  1  1  0  0  0  0
 16 22  1  1  0  0  0
 16 23  1  0  0  0  0
 17 19  1  1  0  0  0
 17 18  1  0  0  0  0
 17 20  1  0  0  0  0
 18 16  1  0  0  0  0
 20 21  1  6  0  0  0
 20 23  1  0  0  0  0
 23 15  1  1  0  0  0
 24 25  1  0  0  0  0
 24 16  1  0  0  0  0
 25 26  1  0  0  0  0
 26 27  1  0  0  0  0
 27 28  1  0  0  0  0
M  END
>  <MODEL>
8

>  <REMARK>
 VINA RESULT:      -6.8      3.135      4.786
  Name = 
  12 active torsions:
  status: ('A' for Active; 'I' for Inactive)
    1  A    between atoms: C_1  and  C_11
    2  A    between atoms: O_6  and  N_8
    3  A    between atoms: O_6  and  C_11
    4  A    between atoms: N_8  and  C_22
    5  A    between atoms: C_9  and  C_18
    6  A    between atoms: C_10  and  C_14
    7  A    between atoms: C_10  and  C_17
    8  A    between atoms: C_10  and  C_25
    9  A    between atoms: C_14  and  C_18
   10  A    between atoms: C_17  and  C_19
   11  A    between atoms: C_19  and  C_27
   12  A    between atoms: C_20  and  C_25
                            x       y       z     vdW  Elec       q    Type
                         _______ _______ _______ _____ _____    ______ ____

>  <TORSDO>
F 12

$$$$
=
 OpenBabel11052413373D

 28 29  0  0  1  0  0  0  0  0999 V2000
  187.1150  178.5740  141.2490 C   0  0  0  0  0  2  0  0  0  0  0  0
  186.3980  178.7990  142.5690 C   0  0  2  0  0  3  0  0  0  0  0  0
  186.4730  177.5340  143.4110 C   0  0  0  0  0  2  0  0  0  0  0  0
  186.1210  177.8380  144.8570 C   0  0  0  0  0  2  0  0  0  0  0  0
  189.6810  177.2340  145.9690 C   0  0  0  0  0  3  0  0  0  0  0  0
  187.3260  177.6840  145.7190 C   0  0  0  0  0  0  0  0  0  0  0  0
  188.3820  177.7660  147.8850 C   0  0  0  0  0  0  0  0  0  0  0  0
  188.5580  177.3540  145.1460 C   0  0  0  0  0  3  0  0  0  0  0  0
  187.2360  177.8980  147.0960 C   0  0  0  0  0  3  0  0  0  0  0  0
  188.3110  177.9760  149.2200 F   0  0  0  0  0  0  0  0  0  0  0  0
  189.5700  177.4390  147.3090 N   0  0  0  0  0  0  0  0  0  0  0  0
  184.9420  179.1560  142.3060 C   0  0  0  0  0  2  0  0  0  0  0  0
  182.5910  178.5890  141.0540 S   0  0  0  0  0  1  0  0  0  0  0  0
  184.3620  178.2480  141.2400 C   0  0  0  0  0  2  0  0  0  0  0  0
  188.4520  177.8790  141.4830 C   0  0  0  0  0  2  0  0  0  0  0  0
  190.3700  176.8430  140.0860 C   0  0  2  0  0  0  0  0  0  0  0  0
  189.0520  176.9670  138.1570 C   0  0  1  0  0  3  0  0  0  0  0  0
  189.8370  176.0540  138.9830 N   0  0  0  0  0  2  0  0  0  0  0  0
  187.9060  176.3160  137.7010 O   0  0  0  0  0  1  0  0  0  0  0  0
  188.6580  178.1670  138.9970 C   0  0  2  0  0  3  0  0  0  0  0  0
  189.0530  179.3380  138.3500 O   0  0  0  0  0  1  0  0  0  0  0  0
  190.4740  176.0390  141.2250 O   0  0  0  0  0  1  0  0  0  0  0  0
  189.4160  178.0230  140.2970 C   0  0  1  0  0  3  0  0  0  0  0  0
  191.7560  177.3560  139.7070 C   0  0  0  0  0  2  0  0  0  0  0  0
  192.2030  176.7490  138.5320 O   0  0  0  0  0  0  0  0  0  0  0  0
  193.5360  176.5900  138.7170 N   0  0  0  0  0  2  0  0  0  0  0  0
  193.9330  175.4100  137.9660 C   0  0  0  0  0  2  0  0  0  0  0  0
  195.2250  175.0320  138.3350 O   0  0  0  0  0  1  0  0  0  0  0  0
  1 15  1  0  0  0  0
  2  1  1  6  0  0  0
  2  3  1  0  0  0  0
  3  4  1  0  0  0  0
  4  6  1  0  0  0  0
  5 11  1  0  0  0  0
  6  9  2  0  0  0  0
  7 10  1  0  0  0  0
  8  6  1  0  0  0  0
  8  5  2  0  0  0  0
  9  7  1  0  0  0  0
 11  7  2  0  0  0  0
 12  2  1  0  0  0  0
 13 14  1  0  0  0  0
 14 12  1  0  0  0  0
 16 23  1  0  0  0  0
 16 22  1  1  0  0  0
 17 19  1  1  0  0  0
 17 18  1  0  0  0  0
 17 20  1  0  0  0  0
 18 16  1  0  0  0  0
 20 21  1  6  0  0  0
 20 23  1  0  0  0  0
 23 15  1  1  0  0  0
 24 16  1  0  0  0  0
 25 26  1  0  0  0  0
 25 24  1  0  0  0  0
 27 28  1  0  0  0  0
 27 26  1  0  0  0  0
M  END
>  <MODEL>
9

>  <REMARK>
 VINA RESULT:      -6.8      3.925      6.022
  Name = 
  12 active torsions:
  status: ('A' for Active; 'I' for Inactive)
    1  A    between atoms: C_1  and  C_11
    2  A    between atoms: O_6  and  N_8
    3  A    between atoms: O_6  and  C_11
    4  A    between atoms: N_8  and  C_22
    5  A    between atoms: C_9  and  C_18
    6  A    between atoms: C_10  and  C_14
    7  A    between atoms: C_10  and  C_17
    8  A    between atoms: C_10  and  C_25
    9  A    between atoms: C_14  and  C_18
   10  A    between atoms: C_17  and  C_19
   11  A    between atoms: C_19  and  C_27
   12  A    between atoms: C_20  and  C_25
                            x       y       z     vdW  Elec       q    Type
                         _______ _______ _______ _____ _____    ______ ____

>  <TORSDO>
F 12

$$$$
