=
 OpenBabel11052414393D

 32 37  0  0  1  0  0  0  0  0999 V2000
  189.6150  177.0760  142.8390 C   0  0  1  0  0  3  0  0  0  0  0  0
  187.7650  177.6870  144.5680 C   0  0  0  0  0  0  0  0  0  0  0  0
  191.0990  177.4460  142.6920 C   0  0  0  0  0  2  0  0  0  0  0  0
  189.1330  177.0870  144.3250 C   0  0  2  0  0  3  0  0  0  0  0  0
  187.3580  177.9200  145.8850 C   0  0  0  0  0  0  0  0  0  0  0  0
  183.2530  178.7070  143.0630 C   0  0  0  0  0  3  0  0  0  0  0  0
  186.8560  177.9050  143.5180 C   0  0  0  0  0  0  0  0  0  0  0  0
  183.8160  179.0640  145.4840 C   0  0  0  0  0  2  0  0  0  0  0  0
  185.1800  178.5260  145.1560 C   0  0  0  0  0  0  0  0  0  0  0  0
  188.3070  177.7610  146.9420 N   0  0  0  0  0  0  0  0  0  0  0  0
  190.2170  177.5160  145.3500 C   0  0  2  0  0  3  0  0  0  0  0  0
  186.0880  178.3350  146.1480 N   0  0  0  0  0  0  0  0  0  0  0  0
  191.2790  176.4370  145.5950 C   0  0  0  0  0  2  0  0  0  0  0  0
  191.5740  175.5560  144.3780 C   0  0  0  0  0  2  0  0  0  0  0  0
  187.2680  177.6220  142.1050 C   0  0  0  0  0  2  0  0  0  0  0  0
  189.7120  178.0640  146.6940 C   0  0  0  0  0  2  0  0  0  0  0  0
  188.7470  177.9370  141.9080 C   0  0  2  0  0  3  0  0  0  0  0  0
  185.5470  178.3210  143.8140 C   0  0  0  0  0  0  0  0  0  0  0  0
  187.8670  177.5930  148.3170 C   0  0  0  0  0  1  0  0  0  0  0  0
  192.0500  176.3350  143.1500 C   0  0  0  0  0  2  0  0  0  0  0  0
  182.7750  178.5560  144.4830 C   0  0  0  0  0  2  0  0  0  0  0  0
  184.5430  178.5510  142.7540 C   0  0  0  0  0  3  0  0  0  0  0  0
  188.6000  178.0430  138.1050 C   0  0  0  0  0  0  0  0  0  0  0  0
  187.7700  178.4760  137.1250 F   0  0  0  0  0  0  0  0  0  0  0  0
  189.1170  177.7570  140.4610 C   0  0  0  0  0  0  0  0  0  0  0  0
  189.8100  177.4330  137.7640 C   0  0  0  0  0  3  0  0  0  0  0  0
  190.3300  177.1440  140.1090 C   0  0  0  0  0  3  0  0  0  0  0  0
  188.2500  178.2050  139.4510 C   0  0  0  0  0  0  0  0  0  0  0  0
  187.0430  178.8140  139.7800 O   0  0  0  0  0  1  0  0  0  0  0  0
  190.6740  176.9790  138.7650 C   0  0  0  0  0  0  0  0  0  0  0  0
  193.0880  176.9110  139.2580 C   0  0  0  0  0  1  0  0  0  0  0  0
  191.9720  176.3460  138.4000 C   0  0  0  0  0  2  0  0  0  0  0  0
  1  3  1  1  0  0  0
  1  4  1  0  0  0  0
  2  5  1  0  0  0  0
  3 20  1  0  0  0  0
  4  2  1  6  0  0  0
  4 11  1  0  0  0  0
  5 12  2  0  0  0  0
  5 10  1  0  0  0  0
  6 21  1  0  0  0  0
  7 18  1  0  0  0  0
  7  2  2  0  0  0  0
  9  8  1  0  0  0  0
  9 12  1  0  0  0  0
 10 19  1  0  0  0  0
 11 13  1  1  0  0  0
 11 16  1  0  0  0  0
 14 13  1  0  0  0  0
 15  7  1  0  0  0  0
 16 10  1  0  0  0  0
 17 25  1  6  0  0  0
 17 15  1  0  0  0  0
 17  1  1  0  0  0  0
 18  9  2  0  0  0  0
 20 14  1  0  0  0  0
 21  8  1  0  0  0  0
 22  6  2  0  0  0  0
 22 18  1  0  0  0  0
 23 28  1  0  0  0  0
 24 23  1  0  0  0  0
 26 23  2  0  0  0  0
 26 30  1  0  0  0  0
 27 25  1  0  0  0  0
 28 29  1  0  0  0  0
 28 25  2  0  0  0  0
 30 27  2  0  0  0  0
 32 30  1  0  0  0  0
 32 31  1  0  0  0  0
M  END
>  <MODEL>
1

>  <REMARK>
 VINA RESULT:     -11.5      0.000      0.000
  Name = 
  2 active torsions:
  status: ('A' for Active; 'I' for Inactive)
    1  A    between atoms: C_15  and  C_26
    2  A    between atoms: C_16  and  C_27
                            x       y       z     vdW  Elec       q    Type
                         _______ _______ _______ _____ _____    ______ ____

>  <TORSDO>
F 2

$$$$
=
 OpenBabel11052414393D

 32 37  0  0  1  0  0  0  0  0999 V2000
  189.0200  177.8820  142.9720 C   0  0  1  0  0  3  0  0  0  0  0  0
  187.9530  178.0410  140.6000 C   0  0  0  0  0  0  0  0  0  0  0  0
  189.9610  176.8750  143.6500 C   0  0  0  0  0  2  0  0  0  0  0  0
  189.2200  177.9500  141.4240 C   0  0  2  0  0  3  0  0  0  0  0  0
  188.0430  177.8960  139.2120 C   0  0  0  0  0  0  0  0  0  0  0  0
  183.3150  179.4130  140.0910 C   0  0  0  0  0  3  0  0  0  0  0  0
  186.7180  178.3820  141.1780 C   0  0  0  0  0  0  0  0  0  0  0  0
  184.5490  178.5950  138.0640 C   0  0  0  0  0  2  0  0  0  0  0  0
  185.7500  178.4600  138.9570 C   0  0  0  0  0  0  0  0  0  0  0  0
  189.2850  177.4840  138.6370 N   0  0  0  0  0  0  0  0  0  0  0  0
  190.2810  176.9630  140.8680 C   0  0  2  0  0  3  0  0  0  0  0  0
  186.9490  178.1020  138.4290 N   0  0  0  0  0  0  0  0  0  0  0  0
  191.7230  177.3860  141.1770 C   0  0  0  0  0  2  0  0  0  0  0  0
  191.8870  178.1420  142.4980 C   0  0  0  0  0  2  0  0  0  0  0  0
  186.6180  178.5770  142.6610 C   0  0  0  0  0  2  0  0  0  0  0  0
  190.1570  176.5850  139.3840 C   0  0  0  0  0  2  0  0  0  0  0  0
  187.5620  177.6270  143.3890 C   0  0  2  0  0  3  0  0  0  0  0  0
  185.6050  178.6010  140.3490 C   0  0  0  0  0  0  0  0  0  0  0  0
  189.5590  177.7020  137.2270 C   0  0  0  0  0  1  0  0  0  0  0  0
  191.4140  177.3580  143.7240 C   0  0  0  0  0  2  0  0  0  0  0  0
  183.5680  179.6290  138.6230 C   0  0  0  0  0  2  0  0  0  0  0  0
  184.2850  178.9760  140.8980 C   0  0  0  0  0  3  0  0  0  0  0  0
  185.9040  178.0830  146.7860 C   0  0  0  0  0  0  0  0  0  0  0  0
  184.6670  178.2860  147.3010 F   0  0  0  0  0  0  0  0  0  0  0  0
  187.3680  177.7550  144.8750 C   0  0  0  0  0  0  0  0  0  0  0  0
  187.0010  177.9840  147.6450 C   0  0  0  0  0  3  0  0  0  0  0  0
  188.4640  177.6590  145.7460 C   0  0  0  0  0  3  0  0  0  0  0  0
  186.0830  177.9700  145.4010 C   0  0  0  0  0  0  0  0  0  0  0  0
  184.9840  178.0690  144.5540 O   0  0  0  0  0  1  0  0  0  0  0  0
  188.2830  177.7770  147.1260 C   0  0  0  0  0  0  0  0  0  0  0  0
  190.5700  176.8900  147.3660 C   0  0  0  0  0  1  0  0  0  0  0  0
  189.4490  177.6530  148.0450 C   0  0  0  0  0  2  0  0  0  0  0  0
  1 17  1  0  0  0  0
  1  3  1  6  0  0  0
  2  7  1  0  0  0  0
  3 20  1  0  0  0  0
  4  2  1  6  0  0  0
  4  1  1  0  0  0  0
  5  2  2  0  0  0  0
  6 22  2  0  0  0  0
  7 15  1  0  0  0  0
  8 21  1  0  0  0  0
  8  9  1  0  0  0  0
  9 18  1  0  0  0  0
 10  5  1  0  0  0  0
 10 16  1  0  0  0  0
 11 16  1  6  0  0  0
 11 13  1  0  0  0  0
 11  4  1  0  0  0  0
 12  9  2  0  0  0  0
 12  5  1  0  0  0  0
 13 14  1  0  0  0  0
 14 20  1  0  0  0  0
 15 17  1  0  0  0  0
 17 25  1  1  0  0  0
 18 22  1  0  0  0  0
 18  7  2  0  0  0  0
 19 10  1  0  0  0  0
 21  6  1  0  0  0  0
 23 24  1  0  0  0  0
 23 26  1  0  0  0  0
 25 28  1  0  0  0  0
 25 27  2  0  0  0  0
 27 30  1  0  0  0  0
 28 23  2  0  0  0  0
 29 28  1  0  0  0  0
 30 26  2  0  0  0  0
 30 32  1  0  0  0  0
 31 32  1  0  0  0  0
M  END
>  <MODEL>
2

>  <REMARK>
 VINA RESULT:     -10.9      3.343      6.331
  Name = 
  2 active torsions:
  status: ('A' for Active; 'I' for Inactive)
    1  A    between atoms: C_15  and  C_26
    2  A    between atoms: C_16  and  C_27
                            x       y       z     vdW  Elec       q    Type
                         _______ _______ _______ _____ _____    ______ ____

>  <TORSDO>
F 2

$$$$
=
 OpenBabel11052414393D

 32 37  0  0  1  0  0  0  0  0999 V2000
  188.4820  178.2240  143.0700 C   0  0  1  0  0  3  0  0  0  0  0  0
  189.2980  177.8220  140.6300 C   0  0  0  0  0  0  0  0  0  0  0  0
  188.7280  177.5070  144.4070 C   0  0  0  0  0  2  0  0  0  0  0  0
  189.6750  178.0730  142.0740 C   0  0  2  0  0  3  0  0  0  0  0  0
  190.3040  177.4710  139.7240 C   0  0  0  0  0  0  0  0  0  0  0  0
  186.2090  178.3220  136.9050 C   0  0  0  0  0  3  0  0  0  0  0  0
  187.9930  178.0470  140.1560 C   0  0  0  0  0  0  0  0  0  0  0  0
  188.4980  177.3970  136.4450 C   0  0  0  0  0  2  0  0  0  0  0  0
  188.7800  177.6060  137.9060 C   0  0  0  0  0  0  0  0  0  0  0  0
  191.6120  177.1780  140.2200 N   0  0  0  0  0  0  0  0  0  0  0  0
  190.8430  177.1940  142.5970 C   0  0  2  0  0  3  0  0  0  0  0  0
  190.0250  177.3660  138.3950 N   0  0  0  0  0  0  0  0  0  0  0  0
  191.6920  177.8900  143.6680 C   0  0  0  0  0  2  0  0  0  0  0  0
  190.9130  178.8670  144.5520 C   0  0  0  0  0  2  0  0  0  0  0  0
  186.9150  178.4600  141.1120 C   0  0  0  0  0  2  0  0  0  0  0  0
  191.7580  176.5650  141.5350 C   0  0  0  0  0  2  0  0  0  0  0  0
  187.1280  177.8070  142.4730 C   0  0  2  0  0  3  0  0  0  0  0  0
  187.7310  177.9450  138.7800 C   0  0  0  0  0  0  0  0  0  0  0  0
  192.7640  177.2060  139.3360 C   0  0  0  0  0  1  0  0  0  0  0  0
  189.7430  178.2250  145.3030 C   0  0  0  0  0  2  0  0  0  0  0  0
  187.3860  178.3360  135.9660 C   0  0  0  0  0  2  0  0  0  0  0  0
  186.3840  178.1850  138.2220 C   0  0  0  0  0  3  0  0  0  0  0  0
  183.6160  178.5960  143.7100 C   0  0  0  0  0  0  0  0  0  0  0  0
  182.3640  178.7390  143.2120 F   0  0  0  0  0  0  0  0  0  0  0  0
  185.9800  178.1410  143.3840 C   0  0  0  0  0  0  0  0  0  0  0  0
  183.8340  178.7530  145.0820 C   0  0  0  0  0  3  0  0  0  0  0  0
  186.1890  178.3020  144.7620 C   0  0  0  0  0  3  0  0  0  0  0  0
  184.6850  178.2910  142.8590 C   0  0  0  0  0  0  0  0  0  0  0  0
  184.4570  178.1370  141.4950 O   0  0  0  0  0  1  0  0  0  0  0  0
  185.1210  178.6110  145.6080 C   0  0  0  0  0  0  0  0  0  0  0  0
  186.7520  178.3110  147.4320 C   0  0  0  0  0  1  0  0  0  0  0  0
  185.3490  178.7600  147.0730 C   0  0  0  0  0  2  0  0  0  0  0  0
  1  3  1  1  0  0  0
  3 20  1  0  0  0  0
  4  2  1  6  0  0  0
  4 11  1  0  0  0  0
  4  1  1  0  0  0  0
  5 10  1  0  0  0  0
  5  2  2  0  0  0  0
  6 22  2  0  0  0  0
  7  2  1  0  0  0  0
  7 15  1  0  0  0  0
  8  9  1  0  0  0  0
  9 12  2  0  0  0  0
  9 18  1  0  0  0  0
 10 16  1  0  0  0  0
 11 16  1  6  0  0  0
 11 13  1  0  0  0  0
 12  5  1  0  0  0  0
 13 14  1  0  0  0  0
 14 20  1  0  0  0  0
 15 17  1  0  0  0  0
 17  1  1  0  0  0  0
 17 25  1  1  0  0  0
 18  7  2  0  0  0  0
 19 10  1  0  0  0  0
 21  8  1  0  0  0  0
 21  6  1  0  0  0  0
 22 18  1  0  0  0  0
 23 26  1  0  0  0  0
 24 23  1  0  0  0  0
 25 27  2  0  0  0  0
 26 30  2  0  0  0  0
 27 30  1  0  0  0  0
 28 25  1  0  0  0  0
 28 23  2  0  0  0  0
 29 28  1  0  0  0  0
 30 32  1  0  0  0  0
 32 31  1  0  0  0  0
M  END
>  <MODEL>
3

>  <REMARK>
 VINA RESULT:     -10.5      2.819      6.611
  Name = 
  2 active torsions:
  status: ('A' for Active; 'I' for Inactive)
    1  A    between atoms: C_15  and  C_26
    2  A    between atoms: C_16  and  C_27
                            x       y       z     vdW  Elec       q    Type
                         _______ _______ _______ _____ _____    ______ ____

>  <TORSDO>
F 2

$$$$
=
 OpenBabel11052414393D

 32 37  0  0  1  0  0  0  0  0999 V2000
  184.5760  178.8460  141.9330 C   0  0  1  0  0  3  0  0  0  0  0  0
  187.0830  178.1430  141.8840 C   0  0  0  0  0  0  0  0  0  0  0  0
  183.3560  178.3830  142.7440 C   0  0  0  0  0  2  0  0  0  0  0  0
  185.9210  178.6600  142.7040 C   0  0  2  0  0  3  0  0  0  0  0  0
  188.2530  177.7570  142.5460 C   0  0  0  0  0  0  0  0  0  0  0  0
  189.4220  177.7160  137.6410 C   0  0  0  0  0  3  0  0  0  0  0  0
  187.0590  178.1530  140.4790 C   0  0  0  0  0  0  0  0  0  0  0  0
  190.5940  176.9710  139.7330 C   0  0  0  0  0  2  0  0  0  0  0  0
  189.3760  177.4390  140.4770 C   0  0  0  0  0  0  0  0  0  0  0  0
  188.2500  177.6840  143.9740 N   0  0  0  0  0  0  0  0  0  0  0  0
  185.7750  178.0020  144.1030 C   0  0  2  0  0  3  0  0  0  0  0  0
  189.3620  177.4110  141.8350 N   0  0  0  0  0  0  0  0  0  0  0  0
  185.1820  178.9450  145.1570 C   0  0  0  0  0  2  0  0  0  0  0  0
  184.1870  179.9660  144.6000 C   0  0  0  0  0  2  0  0  0  0  0  0
  185.8240  178.6020  139.7590 C   0  0  0  0  0  2  0  0  0  0  0  0
  187.0240  177.3090  144.6690 C   0  0  0  0  0  2  0  0  0  0  0  0
  184.5760  178.2010  140.5380 C   0  0  2  0  0  3  0  0  0  0  0  0
  188.2190  177.8050  139.7660 C   0  0  0  0  0  0  0  0  0  0  0  0
  189.4970  177.6880  144.7200 C   0  0  0  0  0  1  0  0  0  0  0  0
  182.9880  179.3360  143.8860 C   0  0  0  0  0  2  0  0  0  0  0  0
  190.7260  177.7000  138.3920 C   0  0  0  0  0  2  0  0  0  0  0  0
  188.2580  177.8120  138.2890 C   0  0  0  0  0  3  0  0  0  0  0  0
  181.2940  177.8890  138.6330 C   0  0  0  0  0  0  0  0  0  0  0  0
  180.4170  176.9270  138.2590 F   0  0  0  0  0  0  0  0  0  0  0  0
  183.3460  178.5570  139.7490 C   0  0  0  0  0  0  0  0  0  0  0  0
  181.0470  179.2200  138.2880 C   0  0  0  0  0  3  0  0  0  0  0  0
  183.0900  179.8910  139.3960 C   0  0  0  0  0  3  0  0  0  0  0  0
  182.4420  177.5540  139.3620 C   0  0  0  0  0  0  0  0  0  0  0  0
  182.6800  176.2250  139.7010 O   0  0  0  0  0  1  0  0  0  0  0  0
  181.9470  180.2220  138.6640 C   0  0  0  0  0  0  0  0  0  0  0  0
  180.7840  181.7140  137.0840 C   0  0  0  0  0  1  0  0  0  0  0  0
  181.6720  181.6430  138.3120 C   0  0  0  0  0  2  0  0  0  0  0  0
  1  4  1  0  0  0  0
  1  3  1  1  0  0  0
  2  5  1  0  0  0  0
  3 20  1  0  0  0  0
  4  2  1  6  0  0  0
  4 11  1  0  0  0  0
  5 10  1  0  0  0  0
  6 22  2  0  0  0  0
  6 21  1  0  0  0  0
  7  2  2  0  0  0  0
  8  9  1  0  0  0  0
  9 12  1  0  0  0  0
 10 16  1  0  0  0  0
 10 19  1  0  0  0  0
 11 16  1  1  0  0  0
 11 13  1  0  0  0  0
 12  5  2  0  0  0  0
 14 13  1  0  0  0  0
 15  7  1  0  0  0  0
 15 17  1  0  0  0  0
 17 25  1  6  0  0  0
 17  1  1  0  0  0  0
 18  9  2  0  0  0  0
 18  7  1  0  0  0  0
 20 14  1  0  0  0  0
 21  8  1  0  0  0  0
 22 18  1  0  0  0  0
 23 28  1  0  0  0  0
 24 23  1  0  0  0  0
 26 23  2  0  0  0  0
 26 30  1  0  0  0  0
 27 25  1  0  0  0  0
 28 29  1  0  0  0  0
 28 25  2  0  0  0  0
 30 27  2  0  0  0  0
 31 32  1  0  0  0  0
 32 30  1  0  0  0  0
M  END
>  <MODEL>
4

>  <REMARK>
 VINA RESULT:     -10.0      3.279      6.978
  Name = 
  2 active torsions:
  status: ('A' for Active; 'I' for Inactive)
    1  A    between atoms: C_15  and  C_26
    2  A    between atoms: C_16  and  C_27
                            x       y       z     vdW  Elec       q    Type
                         _______ _______ _______ _____ _____    ______ ____

>  <TORSDO>
F 2

$$$$
=
 OpenBabel11052414393D

 32 37  0  0  1  0  0  0  0  0999 V2000
  184.1740  178.8250  141.7500 C   0  0  1  0  0  3  0  0  0  0  0  0
  186.6460  178.3790  141.0610 C   0  0  0  0  0  0  0  0  0  0  0  0
  183.2340  178.2110  142.7980 C   0  0  0  0  0  2  0  0  0  0  0  0
  185.6770  178.7450  142.1640 C   0  0  2  0  0  3  0  0  0  0  0  0
  187.9710  178.0860  141.3990 C   0  0  0  0  0  0  0  0  0  0  0  0
  187.9090  178.3510  136.3630 C   0  0  0  0  0  3  0  0  0  0  0  0
  186.2790  178.4400  139.7050 C   0  0  0  0  0  0  0  0  0  0  0  0
  189.6160  177.6470  138.0660 C   0  0  0  0  0  2  0  0  0  0  0  0
  188.5800  177.9620  139.1070 C   0  0  0  0  0  0  0  0  0  0  0  0
  188.3220  177.9600  142.7790 N   0  0  0  0  0  0  0  0  0  0  0  0
  185.9350  178.0230  143.5150 C   0  0  2  0  0  3  0  0  0  0  0  0
  188.8990  177.8810  140.4250 N   0  0  0  0  0  0  0  0  0  0  0  0
  185.5360  178.8610  144.7360 C   0  0  0  0  0  2  0  0  0  0  0  0
  184.3490  179.7970  144.4950 C   0  0  0  0  0  2  0  0  0  0  0  0
  184.8710  178.7900  139.3290 C   0  0  0  0  0  2  0  0  0  0  0  0
  187.3400  177.4370  143.7230 C   0  0  0  0  0  2  0  0  0  0  0  0
  183.8910  178.2370  140.3580 C   0  0  2  0  0  3  0  0  0  0  0  0
  187.2570  178.2370  138.7160 C   0  0  0  0  0  0  0  0  0  0  0  0
  189.7080  178.0600  143.2050 C   0  0  0  0  0  1  0  0  0  0  0  0
  183.0730  179.0780  144.0520 C   0  0  0  0  0  2  0  0  0  0  0  0
  189.3530  178.4360  136.7790 C   0  0  0  0  0  2  0  0  0  0  0  0
  186.9340  178.3040  137.2750 C   0  0  0  0  0  3  0  0  0  0  0  0
  180.2890  177.6700  139.2640 C   0  0  0  0  0  0  0  0  0  0  0  0
  179.4380  176.6390  139.0410 F   0  0  0  0  0  0  0  0  0  0  0  0
  182.4800  178.4980  139.9080 C   0  0  0  0  0  0  0  0  0  0  0  0
  179.8450  178.9820  139.0820 C   0  0  0  0  0  3  0  0  0  0  0  0
  182.0250  179.8120  139.7210 C   0  0  0  0  0  3  0  0  0  0  0  0
  181.6050  177.4240  139.6750 C   0  0  0  0  0  0  0  0  0  0  0  0
  182.0370  176.1130  139.8540 O   0  0  0  0  0  1  0  0  0  0  0  0
  180.7140  180.0540  139.3060 C   0  0  0  0  0  0  0  0  0  0  0  0
  181.0230  182.1430  138.0330 C   0  0  0  0  0  1  0  0  0  0  0  0
  180.2330  181.4530  139.1290 C   0  0  0  0  0  2  0  0  0  0  0  0
  1  4  1  0  0  0  0
  1  3  1  1  0  0  0
  2  5  1  0  0  0  0
  3 20  1  0  0  0  0
  4  2  1  6  0  0  0
  4 11  1  0  0  0  0
  5 10  1  0  0  0  0
  6 21  1  0  0  0  0
  6 22  2  0  0  0  0
  7  2  2  0  0  0  0
  8  9  1  0  0  0  0
  9 12  1  0  0  0  0
 10 19  1  0  0  0  0
 10 16  1  0  0  0  0
 11 16  1  1  0  0  0
 11 13  1  0  0  0  0
 12  5  2  0  0  0  0
 14 13  1  0  0  0  0
 15  7  1  0  0  0  0
 15 17  1  0  0  0  0
 17 25  1  6  0  0  0
 17  1  1  0  0  0  0
 18  9  2  0  0  0  0
 18  7  1  0  0  0  0
 20 14  1  0  0  0  0
 21  8  1  0  0  0  0
 22 18  1  0  0  0  0
 23 28  1  0  0  0  0
 24 23  1  0  0  0  0
 26 23  2  0  0  0  0
 26 30  1  0  0  0  0
 27 25  1  0  0  0  0
 28 29  1  0  0  0  0
 28 25  2  0  0  0  0
 30 27  2  0  0  0  0
 31 32  1  0  0  0  0
 32 30  1  0  0  0  0
M  END
>  <MODEL>
5

>  <REMARK>
 VINA RESULT:     -10.0      3.532      7.499
  Name = 
  2 active torsions:
  status: ('A' for Active; 'I' for Inactive)
    1  A    between atoms: C_15  and  C_26
    2  A    between atoms: C_16  and  C_27
                            x       y       z     vdW  Elec       q    Type
                         _______ _______ _______ _____ _____    ______ ____

>  <TORSDO>
F 2

$$$$
=
 OpenBabel11052414393D

 32 37  0  0  1  0  0  0  0  0999 V2000
  185.9540  178.4180  144.5360 C   0  0  1  0  0  3  0  0  0  0  0  0
  188.3590  177.7570  143.7850 C   0  0  0  0  0  0  0  0  0  0  0  0
  184.9840  177.8780  145.5990 C   0  0  0  0  0  2  0  0  0  0  0  0
  187.4520  178.1950  144.9150 C   0  0  2  0  0  3  0  0  0  0  0  0
  189.6580  177.3390  144.0900 C   0  0  0  0  0  0  0  0  0  0  0  0
  189.5110  177.6800  139.0600 C   0  0  0  0  0  3  0  0  0  0  0  0
  187.9700  177.8700  142.4390 C   0  0  0  0  0  0  0  0  0  0  0  0
  191.1830  176.7980  140.7140 C   0  0  0  0  0  2  0  0  0  0  0  0
  190.2030  177.1930  141.7820 C   0  0  0  0  0  0  0  0  0  0  0  0
  190.0260  177.1610  145.4600 N   0  0  0  0  0  0  0  0  0  0  0  0
  187.6720  177.4330  146.2510 C   0  0  2  0  0  3  0  0  0  0  0  0
  190.5420  177.0640  143.0920 N   0  0  0  0  0  0  0  0  0  0  0  0
  187.3780  178.2860  147.4900 C   0  0  0  0  0  2  0  0  0  0  0  0
  186.2770  179.3310  147.2890 C   0  0  0  0  0  2  0  0  0  0  0  0
  186.5920  178.3530  142.1000 C   0  0  0  0  0  2  0  0  0  0  0  0
  189.0210  176.7180  146.4190 C   0  0  0  0  0  2  0  0  0  0  0  0
  185.5880  177.8780  143.1440 C   0  0  2  0  0  3  0  0  0  0  0  0
  188.9030  177.5930  141.4260 C   0  0  0  0  0  0  0  0  0  0  0  0
  191.4240  177.1280  145.8540 C   0  0  0  0  0  1  0  0  0  0  0  0
  184.9310  178.7380  146.8660 C   0  0  0  0  0  2  0  0  0  0  0  0
  190.9660  177.6270  139.4440 C   0  0  0  0  0  2  0  0  0  0  0  0
  188.5560  177.7100  139.9940 C   0  0  0  0  0  3  0  0  0  0  0  0
  182.5460  178.6510  140.9880 C   0  0  0  0  0  0  0  0  0  0  0  0
  182.1980  178.6630  139.6790 F   0  0  0  0  0  0  0  0  0  0  0  0
  184.1970  178.2740  142.7310 C   0  0  0  0  0  0  0  0  0  0  0  0
  181.6020  179.0000  141.9570 C   0  0  0  0  0  3  0  0  0  0  0  0
  183.2420  178.6280  143.6960 C   0  0  0  0  0  3  0  0  0  0  0  0
  183.8440  178.2880  141.3710 C   0  0  0  0  0  0  0  0  0  0  0  0
  184.7770  177.9410  140.3990 O   0  0  0  0  0  1  0  0  0  0  0  0
  181.9500  178.9940  143.3110 C   0  0  0  0  0  0  0  0  0  0  0  0
  179.6770  178.5270  144.1430 C   0  0  0  0  0  1  0  0  0  0  0  0
  180.9360  179.3480  144.3440 C   0  0  0  0  0  2  0  0  0  0  0  0
  1  4  1  0  0  0  0
  1  3  1  1  0  0  0
  2  5  1  0  0  0  0
  3 20  1  0  0  0  0
  4  2  1  6  0  0  0
  4 11  1  0  0  0  0
  5 10  1  0  0  0  0
  6 21  1  0  0  0  0
  6 22  2  0  0  0  0
  7  2  2  0  0  0  0
  8  9  1  0  0  0  0
  9 12  1  0  0  0  0
 10 19  1  0  0  0  0
 10 16  1  0  0  0  0
 11 16  1  1  0  0  0
 11 13  1  0  0  0  0
 12  5  2  0  0  0  0
 14 13  1  0  0  0  0
 15  7  1  0  0  0  0
 15 17  1  0  0  0  0
 17 25  1  6  0  0  0
 17  1  1  0  0  0  0
 18  9  2  0  0  0  0
 18  7  1  0  0  0  0
 20 14  1  0  0  0  0
 21  8  1  0  0  0  0
 22 18  1  0  0  0  0
 23 28  2  0  0  0  0
 23 26  1  0  0  0  0
 24 23  1  0  0  0  0
 25 27  2  0  0  0  0
 26 30  2  0  0  0  0
 28 25  1  0  0  0  0
 29 28  1  0  0  0  0
 30 27  1  0  0  0  0
 30 32  1  0  0  0  0
 31 32  1  0  0  0  0
M  END
>  <MODEL>
6

>  <REMARK>
 VINA RESULT:      -9.9      1.953      6.570
  Name = 
  2 active torsions:
  status: ('A' for Active; 'I' for Inactive)
    1  A    between atoms: C_15  and  C_26
    2  A    between atoms: C_16  and  C_27
                            x       y       z     vdW  Elec       q    Type
                         _______ _______ _______ _____ _____    ______ ____

>  <TORSDO>
F 2

$$$$
=
 OpenBabel11052414393D

 32 37  0  0  1  0  0  0  0  0999 V2000
  187.2760  177.8020  144.0590 C   0  0  1  0  0  3  0  0  0  0  0  0
  187.3170  177.9720  141.4600 C   0  0  0  0  0  0  0  0  0  0  0  0
  186.7910  178.7350  145.1790 C   0  0  0  0  0  2  0  0  0  0  0  0
  186.4870  177.9960  142.7250 C   0  0  2  0  0  3  0  0  0  0  0  0
  186.7140  178.3450  140.2540 C   0  0  0  0  0  0  0  0  0  0  0  0
  191.2090  176.4520  138.9700 C   0  0  0  0  0  3  0  0  0  0  0  0
  188.6320  177.4760  141.4480 C   0  0  0  0  0  0  0  0  0  0  0  0
  189.3880  177.6540  137.7270 C   0  0  0  0  0  2  0  0  0  0  0  0
  188.6510  177.7070  139.0350 C   0  0  0  0  0  0  0  0  0  0  0  0
  185.4020  178.9110  140.2810 N   0  0  0  0  0  0  0  0  0  0  0  0
  185.4120  179.1170  142.7710 C   0  0  2  0  0  3  0  0  0  0  0  0
  187.3890  178.2110  139.0800 N   0  0  0  0  0  0  0  0  0  0  0  0
  184.1650  178.7280  143.5730 C   0  0  0  0  0  2  0  0  0  0  0  0
  184.4390  177.7770  144.7410 C   0  0  0  0  0  2  0  0  0  0  0  0
  189.2740  177.0380  142.7290 C   0  0  0  0  0  2  0  0  0  0  0  0
  184.9960  179.7230  141.4220 C   0  0  0  0  0  2  0  0  0  0  0  0
  188.8000  177.9070  143.8890 C   0  0  2  0  0  3  0  0  0  0  0  0
  189.3050  177.3340  140.2230 C   0  0  0  0  0  0  0  0  0  0  0  0
  184.5820  178.9400  139.0820 C   0  0  0  0  0  1  0  0  0  0  0  0
  185.4350  178.3260  145.7660 C   0  0  0  0  0  2  0  0  0  0  0  0
  190.3850  176.4910  137.7110 C   0  0  0  0  0  2  0  0  0  0  0  0
  190.6820  176.8040  140.1460 C   0  0  0  0  0  3  0  0  0  0  0  0
  191.4320  176.4670  146.2320 C   0  0  0  0  0  0  0  0  0  0  0  0
  192.5970  175.7790  146.1620 F   0  0  0  0  0  0  0  0  0  0  0  0
  189.5380  177.5280  145.1430 C   0  0  0  0  0  0  0  0  0  0  0  0
  190.9210  176.8320  147.4810 C   0  0  0  0  0  3  0  0  0  0  0  0
  189.0320  177.8890  146.4020 C   0  0  0  0  0  3  0  0  0  0  0  0
  190.7440  176.8120  145.0630 C   0  0  0  0  0  0  0  0  0  0  0  0
  191.2610  176.4440  143.8250 O   0  0  0  0  0  1  0  0  0  0  0  0
  189.7180  177.5390  147.5670 C   0  0  0  0  0  0  0  0  0  0  0  0
  187.6920  178.1970  148.8070 C   0  0  0  0  0  1  0  0  0  0  0  0
  189.1850  177.9440  148.8970 C   0  0  0  0  0  2  0  0  0  0  0  0
  1  3  1  1  0  0  0
  3 20  1  0  0  0  0
  4  2  1  6  0  0  0
  4 11  1  0  0  0  0
  4  1  1  0  0  0  0
  5 10  1  0  0  0  0
  5  2  2  0  0  0  0
  6 22  2  0  0  0  0
  7  2  1  0  0  0  0
  7 15  1  0  0  0  0
  8  9  1  0  0  0  0
  9 12  2  0  0  0  0
  9 18  1  0  0  0  0
 10 16  1  0  0  0  0
 11 16  1  6  0  0  0
 11 13  1  0  0  0  0
 12  5  1  0  0  0  0
 13 14  1  0  0  0  0
 14 20  1  0  0  0  0
 15 17  1  0  0  0  0
 17  1  1  0  0  0  0
 17 25  1  1  0  0  0
 18  7  2  0  0  0  0
 19 10  1  0  0  0  0
 21  8  1  0  0  0  0
 21  6  1  0  0  0  0
 22 18  1  0  0  0  0
 23 26  1  0  0  0  0
 24 23  1  0  0  0  0
 25 27  2  0  0  0  0
 26 30  2  0  0  0  0
 27 30  1  0  0  0  0
 28 25  1  0  0  0  0
 28 23  2  0  0  0  0
 29 28  1  0  0  0  0
 30 32  1  0  0  0  0
 31 32  1  0  0  0  0
M  END
>  <MODEL>
7

>  <REMARK>
 VINA RESULT:      -9.7      2.959      7.339
  Name = 
  2 active torsions:
  status: ('A' for Active; 'I' for Inactive)
    1  A    between atoms: C_15  and  C_26
    2  A    between atoms: C_16  and  C_27
                            x       y       z     vdW  Elec       q    Type
                         _______ _______ _______ _____ _____    ______ ____

>  <TORSDO>
F 2

$$$$
=
 OpenBabel11052414393D

 32 37  0  0  1  0  0  0  0  0999 V2000
  189.6300  177.1280  143.0880 C   0  0  1  0  0  3  0  0  0  0  0  0
  187.6710  177.7590  144.6840 C   0  0  0  0  0  0  0  0  0  0  0  0
  191.1120  177.5250  143.0140 C   0  0  0  0  0  2  0  0  0  0  0  0
  189.0620  177.1800  144.5420 C   0  0  2  0  0  3  0  0  0  0  0  0
  187.1830  178.0290  145.9660 C   0  0  0  0  0  0  0  0  0  0  0  0
  183.2350  178.6280  142.8850 C   0  0  0  0  0  3  0  0  0  0  0  0
  186.8200  177.9200  143.5760 C   0  0  0  0  0  0  0  0  0  0  0  0
  183.6490  179.0810  145.3200 C   0  0  0  0  0  2  0  0  0  0  0  0
  185.0400  178.5610  145.0910 C   0  0  0  0  0  0  0  0  0  0  0  0
  188.0720  177.9290  147.0820 N   0  0  0  0  0  0  0  0  0  0  0  0
  190.0760  177.6690  145.6120 C   0  0  2  0  0  3  0  0  0  0  0  0
  185.8920  178.4260  146.1400 N   0  0  0  0  0  0  0  0  0  0  0  0
  191.1430  176.6230  145.9570 C   0  0  0  0  0  2  0  0  0  0  0  0
  191.5250  175.7060  144.7920 C   0  0  0  0  0  2  0  0  0  0  0  0
  187.3200  177.5970  142.2010 C   0  0  0  0  0  2  0  0  0  0  0  0
  189.4830  178.2530  146.9030 C   0  0  0  0  0  2  0  0  0  0  0  0
  188.8010  177.9370  142.0770 C   0  0  2  0  0  3  0  0  0  0  0  0
  185.4880  178.3180  143.7800 C   0  0  0  0  0  0  0  0  0  0  0  0
  187.5550  177.7990  148.4330 C   0  0  0  0  0  1  0  0  0  0  0  0
  192.0570  176.4520  143.5660 C   0  0  0  0  0  2  0  0  0  0  0  0
  182.6780  178.5150  144.2790 C   0  0  0  0  0  2  0  0  0  0  0  0
  184.5440  178.4880  142.6560 C   0  0  0  0  0  3  0  0  0  0  0  0
  190.4480  176.3740  139.0210 C   0  0  0  0  0  0  0  0  0  0  0  0
  191.1880  175.2850  138.7030 F   0  0  0  0  0  0  0  0  0  0  0  0
  189.2590  177.7140  140.6620 C   0  0  0  0  0  0  0  0  0  0  0  0
  190.1030  177.2890  138.0230 C   0  0  0  0  0  3  0  0  0  0  0  0
  188.9180  178.6280  139.6530 C   0  0  0  0  0  3  0  0  0  0  0  0
  190.0290  176.5840  140.3410 C   0  0  0  0  0  0  0  0  0  0  0  0
  190.3770  175.6670  141.3280 O   0  0  0  0  0  1  0  0  0  0  0  0
  189.3420  178.4190  138.3380 C   0  0  0  0  0  0  0  0  0  0  0  0
  187.6400  178.9720  136.6420 C   0  0  0  0  0  1  0  0  0  0  0  0
  188.9590  179.3830  137.2690 C   0  0  0  0  0  2  0  0  0  0  0  0
  1  3  1  1  0  0  0
  1  4  1  0  0  0  0
  2  5  1  0  0  0  0
  3 20  1  0  0  0  0
  4  2  1  6  0  0  0
  4 11  1  0  0  0  0
  5 12  2  0  0  0  0
  5 10  1  0  0  0  0
  6 21  1  0  0  0  0
  7 18  1  0  0  0  0
  7  2  2  0  0  0  0
  9  8  1  0  0  0  0
  9 12  1  0  0  0  0
 10 19  1  0  0  0  0
 11 13  1  1  0  0  0
 11 16  1  0  0  0  0
 14 13  1  0  0  0  0
 15  7  1  0  0  0  0
 16 10  1  0  0  0  0
 17 25  1  6  0  0  0
 17 15  1  0  0  0  0
 17  1  1  0  0  0  0
 18  9  2  0  0  0  0
 20 14  1  0  0  0  0
 21  8  1  0  0  0  0
 22  6  2  0  0  0  0
 22 18  1  0  0  0  0
 23 28  1  0  0  0  0
 24 23  1  0  0  0  0
 26 30  1  0  0  0  0
 26 23  2  0  0  0  0
 27 25  1  0  0  0  0
 28 25  2  0  0  0  0
 28 29  1  0  0  0  0
 30 27  2  0  0  0  0
 31 32  1  0  0  0  0
 32 30  1  0  0  0  0
M  END
>  <MODEL>
8

>  <REMARK>
 VINA RESULT:      -9.6      1.392      2.032
  Name = 
  2 active torsions:
  status: ('A' for Active; 'I' for Inactive)
    1  A    between atoms: C_15  and  C_26
    2  A    between atoms: C_16  and  C_27
                            x       y       z     vdW  Elec       q    Type
                         _______ _______ _______ _____ _____    ______ ____

>  <TORSDO>
F 2

$$$$
=
 OpenBabel11052414393D

 32 37  0  0  1  0  0  0  0  0999 V2000
  187.4930  178.2560  141.1330 C   0  0  1  0  0  3  0  0  0  0  0  0
  184.9680  178.4130  140.5160 C   0  0  0  0  0  0  0  0  0  0  0  0
  188.6480  177.3530  140.6720 C   0  0  0  0  0  2  0  0  0  0  0  0
  186.4010  178.4510  140.0330 C   0  0  2  0  0  3  0  0  0  0  0  0
  183.9400  178.3710  139.5680 C   0  0  0  0  0  0  0  0  0  0  0  0
  181.6420  179.1410  143.9900 C   0  0  0  0  0  3  0  0  0  0  0  0
  184.6430  178.5370  141.8780 C   0  0  0  0  0  0  0  0  0  0  0  0
  180.8490  178.6370  141.6610 C   0  0  0  0  0  2  0  0  0  0  0  0
  182.2980  178.6170  141.2660 C   0  0  0  0  0  0  0  0  0  0  0  0
  184.2750  178.1770  138.1910 N   0  0  0  0  0  0  0  0  0  0  0  0
  186.6610  177.6620  138.7210 C   0  0  2  0  0  3  0  0  0  0  0  0
  182.6400  178.4680  139.9600 N   0  0  0  0  0  0  0  0  0  0  0  0
  187.7800  178.2650  137.8630 C   0  0  0  0  0  2  0  0  0  0  0  0
  188.8880  178.9520  138.6650 C   0  0  0  0  0  2  0  0  0  0  0  0
  185.7360  178.6210  142.8990 C   0  0  0  0  0  2  0  0  0  0  0  0
  185.4350  177.3650  137.8440 C   0  0  0  0  0  2  0  0  0  0  0  0
  186.9280  177.7700  142.4770 C   0  0  2  0  0  3  0  0  0  0  0  0
  183.2940  178.6480  142.2580 C   0  0  0  0  0  0  0  0  0  0  0  0
  183.3300  178.5200  137.1420 C   0  0  0  0  0  1  0  0  0  0  0  0
  189.5870  178.0310  139.6690 C   0  0  0  0  0  2  0  0  0  0  0  0
  180.6390  179.4840  142.9210 C   0  0  0  0  0  2  0  0  0  0  0  0
  182.8930  178.7960  143.6730 C   0  0  0  0  0  3  0  0  0  0  0  0
  188.5810  177.4480  145.8920 C   0  0  0  0  0  0  0  0  0  0  0  0
  188.2440  177.1310  147.1650 F   0  0  0  0  0  0  0  0  0  0  0  0
  187.9680  177.7760  143.5640 C   0  0  0  0  0  0  0  0  0  0  0  0
  189.9060  177.7730  145.5890 C   0  0  0  0  0  3  0  0  0  0  0  0
  189.3010  178.1020  143.2700 C   0  0  0  0  0  3  0  0  0  0  0  0
  187.6100  177.4500  144.8830 C   0  0  0  0  0  0  0  0  0  0  0  0
  186.2930  177.1250  145.1940 O   0  0  0  0  0  1  0  0  0  0  0  0
  190.2670  178.1040  144.2800 C   0  0  0  0  0  0  0  0  0  0  0  0
  192.0550  177.8610  142.6000 C   0  0  0  0  0  1  0  0  0  0  0  0
  191.6830  178.4310  143.9560 C   0  0  0  0  0  2  0  0  0  0  0  0
  1  3  1  6  0  0  0
  1 17  1  0  0  0  0
  2  7  1  0  0  0  0
  4  2  1  1  0  0  0
  4  1  1  0  0  0  0
  5 12  1  0  0  0  0
  5  2  2  0  0  0  0
  7 18  2  0  0  0  0
  7 15  1  0  0  0  0
  8 21  1  0  0  0  0
  9  8  1  0  0  0  0
  9 18  1  0  0  0  0
 10  5  1  0  0  0  0
 11 16  1  6  0  0  0
 11  4  1  0  0  0  0
 12  9  2  0  0  0  0
 13 14  1  0  0  0  0
 13 11  1  0  0  0  0
 14 20  1  0  0  0  0
 16 10  1  0  0  0  0
 17 15  1  0  0  0  0
 17 25  1  1  0  0  0
 18 22  1  0  0  0  0
 19 10  1  0  0  0  0
 20  3  1  0  0  0  0
 21  6  1  0  0  0  0
 22  6  2  0  0  0  0
 23 24  1  0  0  0  0
 25 28  1  0  0  0  0
 26 23  1  0  0  0  0
 27 25  2  0  0  0  0
 27 30  1  0  0  0  0
 28 29  1  0  0  0  0
 28 23  2  0  0  0  0
 30 26  2  0  0  0  0
 31 32  1  0  0  0  0
 32 30  1  0  0  0  0
M  END
>  <MODEL>
9

>  <REMARK>
 VINA RESULT:      -9.4      3.326      6.101
  Name = 
  2 active torsions:
  status: ('A' for Active; 'I' for Inactive)
    1  A    between atoms: C_15  and  C_26
    2  A    between atoms: C_16  and  C_27
                            x       y       z     vdW  Elec       q    Type
                         _______ _______ _______ _____ _____    ______ ____

>  <TORSDO>
F 2

$$$$
