=
 OpenBabel11052415013D

 55 60  0  0  1  0  0  0  0  0999 V2000
  180.2360  178.2700  138.6920 C   0  0  1  0  0  3  0  0  0  0  0  0
  184.1900  178.1480  138.8980 C   0  0  2  0  0  0  0  0  0  0  0  0
  182.0210  179.4800  139.5100 C   0  0  0  0  0  2  0  0  0  0  0  0
  184.9010  177.2150  136.8430 C   0  0  1  0  0  0  0  0  0  0  0  0
  181.9090  177.9980  136.8490 O   0  0  0  0  0  0  0  0  0  0  0  0
  183.8600  177.0180  137.9280 C   0  0  2  0  0  3  0  0  0  0  0  0
  183.3320  179.4340  138.7170 C   0  0  1  0  0  3  0  0  0  0  0  0
  181.3610  178.2380  139.5480 O   0  0  0  0  0  0  0  0  0  0  0  0
  185.6530  178.4350  138.5430 C   0  0  0  0  0  2  0  0  0  0  0  0
  179.2310  179.3710  139.0170 C   0  0  0  0  0  1  0  0  0  0  0  0
  184.0640  180.5860  139.0190 O   0  0  0  0  0  1  0  0  0  0  0  0
  185.8890  178.1470  137.1830 O   0  0  0  0  0  0  0  0  0  0  0  0
  184.1290  177.6870  140.2150 O   0  0  0  0  0  1  0  0  0  0  0  0
  182.4090  176.8330  137.4570 C   0  0  0  0  0  2  0  0  0  0  0  0
  185.3140  176.0740  135.9220 C   0  0  2  0  0  0  0  0  0  0  0  0
  180.5420  178.1400  137.1790 C   0  0  1  0  0  3  0  0  0  0  0  0
  184.4970  177.2480  135.3770 C   0  0  0  0  0  2  0  0  0  0  0  0
  183.2490  172.3120  136.3280 C   0  0  0  0  0  3  0  0  0  0  0  0
  184.5850  174.7680  136.0870 C   0  0  0  0  0  0  0  0  0  0  0  0
  183.5780  174.4170  135.1770 C   0  0  0  0  0  3  0  0  0  0  0  0
  184.2490  172.6570  137.2390 C   0  0  0  0  0  3  0  0  0  0  0  0
  182.9110  173.1930  135.2990 C   0  0  0  0  0  3  0  0  0  0  0  0
  184.9130  173.8820  137.1220 C   0  0  0  0  0  3  0  0  0  0  0  0
  179.6790  177.0750  136.4990 C   0  0  0  0  0  2  0  0  0  0  0  0
  178.9760  176.1920  137.5170 C   0  0  0  0  0  2  0  0  0  0  0  0
  179.0490  174.7980  137.1050 N   0  0  0  0  0  2  0  0  0  0  0  0
  179.9520  172.7640  138.0560 C   0  0  0  0  0  1  0  0  0  0  0  0
  180.2100  174.2260  137.7590 C   0  0  0  0  0  2  0  0  0  0  0  0
  186.7830  176.0550  135.5180 C   0  0  0  0  0  2  0  0  0  0  0  0
  187.5730  175.5400  136.5510 O   0  0  0  0  0  0  0  0  0  0  0  0
  189.4830  176.1800  135.4600 O   0  0  0  0  0  1  0  0  0  0  0  0
  188.6970  176.3720  136.5990 C   0  0  2  0  0  3  0  0  0  0  0  0
  189.1390  175.1960  138.5940 O   0  0  0  0  0  0  0  0  0  0  0  0
  189.5060  176.0690  137.8200 C   0  0  0  0  0  0  0  0  0  0  0  0
  190.8060  176.8140  138.0450 C   0  0  2  0  0  3  0  0  0  0  0  0
  191.7150  174.5190  137.5220 C   0  0  0  0  0  3  0  0  0  0  0  0
  192.5110  173.8180  136.7020 C   0  0  0  0  0  3  0  0  0  0  0  0
  193.1630  176.5630  137.1640 C   0  0  0  0  0  2  0  0  0  0  0  0
  194.2940  175.5680  136.9330 C   0  0  0  0  0  2  0  0  0  0  0  0
  193.7630  174.4020  136.1030 C   0  0  0  0  0  2  0  0  0  0  0  0
  192.0520  175.9180  138.0010 C   0  0  1  0  0  3  0  0  0  0  0  0
  189.4100  178.1510  139.3690 C   0  0  0  0  0  1  0  0  0  0  0  0
  190.7980  177.7180  139.2210 N   0  0  0  0  0  0  0  0  0  0  0  0
  191.2250  177.0510  140.4080 N   0  0  0  0  0  0  0  0  0  0  0  0
  192.4370  177.5740  140.7490 O   0  0  0  0  0  1  0  0  0  0  0  0
  191.8420  176.9940  143.3240 O   0  0  0  0  0  1  0  0  0  0  0  0
  189.4330  176.1320  141.8730 C   0  0  0  0  0  2  0  0  0  0  0  0
  188.7100  176.2470  143.2260 C   0  0  0  0  0  2  0  0  0  0  0  0
  190.9680  177.9350  142.7700 C   0  0  2  0  0  3  0  0  0  0  0  0
  189.9500  178.3750  143.8280 C   0  0  0  0  0  2  0  0  0  0  0  0
  188.5760  177.7020  143.6850 C   0  0  2  0  0  3  0  0  0  0  0  0
  190.2820  177.3670  141.5070 C   0  0  1  0  0  3  0  0  0  0  0  0
  187.7950  177.8260  144.9590 C   0  0  0  0  0  0  0  0  0  0  0  0
  188.3910  177.6230  146.0900 N   0  0  0  0  0  1  0  0  0  0  0  0
  186.3730  177.9600  144.9300 N   0  0  0  0  0  2  0  0  0  0  0  0
  1 10  1  6  0  0  0
  1  8  1  0  0  0  0
  2 13  1  1  0  0  0
  3  8  1  0  0  0  0
  4 17  1  6  0  0  0
  4 12  1  0  0  0  0
  4  6  1  0  0  0  0
  5 16  1  0  0  0  0
  5 14  1  0  0  0  0
  6 14  1  6  0  0  0
  6  2  1  0  0  0  0
  7  2  1  0  0  0  0
  7 11  1  1  0  0  0
  7  3  1  0  0  0  0
  9  2  1  0  0  0  0
 12  9  1  0  0  0  0
 15 29  1  6  0  0  0
 15 19  1  0  0  0  0
 15  4  1  0  0  0  0
 16 24  1  1  0  0  0
 16  1  1  0  0  0  0
 17 15  1  0  0  0  0
 18 21  1  0  0  0  0
 19 23  1  0  0  0  0
 20 22  1  0  0  0  0
 20 19  2  0  0  0  0
 22 18  2  0  0  0  0
 23 21  2  0  0  0  0
 24 25  1  0  0  0  0
 26 25  1  0  0  0  0
 26 28  1  0  0  0  0
 28 27  1  0  0  0  0
 29 30  1  0  0  0  0
 30 32  1  0  0  0  0
 32 31  1  6  0  0  0
 32 34  1  0  0  0  0
 34 33  2  0  0  0  0
 35 34  1  1  0  0  0
 35 43  1  0  0  0  0
 36 41  1  0  0  0  0
 37 36  2  0  0  0  0
 38 41  1  0  0  0  0
 39 38  1  0  0  0  0
 40 37  1  0  0  0  0
 40 39  1  0  0  0  0
 41 35  1  6  0  0  0
 43 42  1  0  0  0  0
 43 44  1  0  0  0  0
 44 45  1  0  0  0  0
 47 48  1  0  0  0  0
 48 51  1  0  0  0  0
 49 46  1  1  0  0  0
 49 50  1  0  0  0  0
 51 50  1  0  0  0  0
 51 53  1  1  0  0  0
 52 44  1  6  0  0  0
 52 47  1  0  0  0  0
 52 49  1  0  0  0  0
 53 54  1  0  0  0  0
 55 53  2  0  0  0  0
M  END
>  <MODEL>
1

>  <REMARK>
 VINA RESULT:      -6.5      0.000      0.000
  Name = 
  15 active torsions:
  status: ('A' for Active; 'I' for Inactive)
    1  A    between atoms: N_3  and  C_25
    2  A    between atoms: N_3  and  C_38
    3  A    between atoms: C_10  and  C_48
    4  A    between atoms: C_19  and  C_37
    5  A    between atoms: C_19  and  C_45
    6  A    between atoms: C_26  and  C_45
    7  A    between atoms: C_27  and  C_51
    8  A    between atoms: C_29  and  C_38
    9  A    between atoms: C_29  and  C_53
   10  A    between atoms: N_33  and  N_49
   11  A    between atoms: N_33  and  C_52
   12  A    between atoms: C_35  and  O_40
   13  A    between atoms: C_35  and  C_51
   14  A    between atoms: C_37  and  O_40
   15  A    between atoms: C_45  and  N_49
                            x       y       z     vdW  Elec       q    Type
                         _______ _______ _______ _____ _____    ______ ____

>  <TORSDO>
F 15

$$$$
=
 OpenBabel11052415013D

 55 60  0  0  1  0  0  0  0  0999 V2000
  189.2190  171.2150  135.4420 C   0  0  1  0  0  3  0  0  0  0  0  0
  186.2060  173.3690  136.8470 C   0  0  2  0  0  0  0  0  0  0  0  0
  186.9260  171.1390  135.6790 C   0  0  0  0  0  2  0  0  0  0  0  0
  186.7520  175.6180  136.3530 C   0  0  1  0  0  0  0  0  0  0  0  0
  188.5850  173.5800  134.9190 O   0  0  0  0  0  0  0  0  0  0  0  0
  187.3770  174.3450  136.8910 C   0  0  2  0  0  3  0  0  0  0  0  0
  186.1590  172.4630  135.5820 C   0  0  1  0  0  3  0  0  0  0  0  0
  188.1480  171.2650  136.3650 O   0  0  0  0  0  0  0  0  0  0  0  0
  185.0100  174.3280  136.8530 C   0  0  0  0  0  2  0  0  0  0  0  0
  189.2590  169.9480  134.5940 C   0  0  0  0  0  1  0  0  0  0  0  0
  184.8440  172.1760  135.2050 O   0  0  0  0  0  1  0  0  0  0  0  0
  185.3590  175.5430  136.2280 O   0  0  0  0  0  0  0  0  0  0  0  0
  186.1730  172.6020  138.0140 O   0  0  0  0  0  1  0  0  0  0  0  0
  188.7230  173.9310  136.2740 C   0  0  0  0  0  2  0  0  0  0  0  0
  187.3470  176.9860  136.6590 C   0  0  2  0  0  0  0  0  0  0  0  0
  189.4620  172.5110  134.6280 C   0  0  1  0  0  3  0  0  0  0  0  0
  187.4310  176.4070  135.2450 C   0  0  0  0  0  2  0  0  0  0  0  0
  191.0260  177.1220  138.9010 C   0  0  0  0  0  3  0  0  0  0  0  0
  188.6260  177.0100  137.4510 C   0  0  0  0  0  0  0  0  0  0  0  0
  189.8530  177.1240  136.7830 C   0  0  0  0  0  3  0  0  0  0  0  0
  189.8070  177.0060  139.5730 C   0  0  0  0  0  3  0  0  0  0  0  0
  191.0500  177.1780  137.5070 C   0  0  0  0  0  3  0  0  0  0  0  0
  188.6110  176.9470  138.8510 C   0  0  0  0  0  3  0  0  0  0  0  0
  190.9270  172.9530  134.6580 C   0  0  0  0  0  2  0  0  0  0  0  0
  191.7360  172.1380  135.6540 C   0  0  0  0  0  2  0  0  0  0  0  0
  192.6300  173.0070  136.4030 N   0  0  0  0  0  2  0  0  0  0  0  0
  194.8360  172.2480  137.0470 C   0  0  0  0  0  1  0  0  0  0  0  0
  193.9710  172.7540  135.9120 C   0  0  0  0  0  2  0  0  0  0  0  0
  186.3390  178.1130  136.8460 C   0  0  0  0  0  2  0  0  0  0  0  0
  186.3330  178.5540  138.1740 O   0  0  0  0  0  0  0  0  0  0  0  0
  184.1660  178.0530  137.6190 O   0  0  0  0  0  1  0  0  0  0  0  0
  185.0760  178.1910  138.6710 C   0  0  2  0  0  3  0  0  0  0  0  0
  184.2770  180.3430  139.2100 O   0  0  0  0  0  0  0  0  0  0  0  0
  184.5830  179.2330  139.6240 C   0  0  0  0  0  0  0  0  0  0  0  0
  184.4100  178.8730  141.0860 C   0  0  2  0  0  3  0  0  0  0  0  0
  181.9350  179.0720  140.6430 C   0  0  0  0  0  3  0  0  0  0  0  0
  180.7230  178.5910  140.9590 C   0  0  0  0  0  3  0  0  0  0  0  0
  182.7610  178.4920  142.9640 C   0  0  0  0  0  2  0  0  0  0  0  0
  181.3140  178.7010  143.3960 C   0  0  0  0  0  2  0  0  0  0  0  0
  180.3920  178.0930  142.3420 C   0  0  0  0  0  2  0  0  0  0  0  0
  183.0400  179.2560  141.6640 C   0  0  1  0  0  3  0  0  0  0  0  0
  184.9280  179.6020  143.2510 C   0  0  0  0  0  1  0  0  0  0  0  0
  185.5330  179.2970  141.9560 N   0  0  0  0  0  0  0  0  0  0  0  0
  186.5070  178.2660  142.1100 N   0  0  0  0  0  0  0  0  0  0  0  0
  187.5560  178.5790  141.2970 O   0  0  0  0  0  1  0  0  0  0  0  0
  188.2350  176.1900  143.3710 O   0  0  0  0  0  1  0  0  0  0  0  0
  185.9570  177.6910  144.4700 C   0  0  0  0  0  2  0  0  0  0  0  0
  186.5160  177.3140  145.8520 C   0  0  0  0  0  2  0  0  0  0  0  0
  188.3600  177.5470  143.6840 C   0  0  2  0  0  3  0  0  0  0  0  0
  188.9090  177.6980  145.1070 C   0  0  0  0  0  2  0  0  0  0  0  0
  187.8350  178.0310  146.1550 C   0  0  2  0  0  3  0  0  0  0  0  0
  187.0080  178.2760  143.5050 C   0  0  1  0  0  3  0  0  0  0  0  0
  188.3390  177.7360  147.5360 C   0  0  0  0  0  0  0  0  0  0  0  0
  189.6020  177.8630  147.7900 N   0  0  0  0  0  2  0  0  0  0  0  0
  187.4870  177.1250  148.5050 N   0  0  0  0  0  1  0  0  0  0  0  0
  1 10  1  6  0  0  0
  1  8  1  0  0  0  0
  2  9  1  0  0  0  0
  2  6  1  0  0  0  0
  2 13  1  1  0  0  0
  3  8  1  0  0  0  0
  4 17  1  6  0  0  0
  4 15  1  0  0  0  0
  4  6  1  0  0  0  0
  5 14  1  0  0  0  0
  6 14  1  6  0  0  0
  7 11  1  1  0  0  0
  7  3  1  0  0  0  0
  7  2  1  0  0  0  0
 12  4  1  0  0  0  0
 12  9  1  0  0  0  0
 15 29  1  1  0  0  0
 15 19  1  0  0  0  0
 16 24  1  1  0  0  0
 16  5  1  0  0  0  0
 16  1  1  0  0  0  0
 17 15  1  0  0  0  0
 18 21  1  0  0  0  0
 19 23  1  0  0  0  0
 20 19  2  0  0  0  0
 20 22  1  0  0  0  0
 22 18  2  0  0  0  0
 23 21  2  0  0  0  0
 24 25  1  0  0  0  0
 25 26  1  0  0  0  0
 28 26  1  0  0  0  0
 28 27  1  0  0  0  0
 29 30  1  0  0  0  0
 30 32  1  0  0  0  0
 32 31  1  6  0  0  0
 32 34  1  0  0  0  0
 33 34  2  0  0  0  0
 35 34  1  6  0  0  0
 35 43  1  0  0  0  0
 36 37  2  0  0  0  0
 36 41  1  0  0  0  0
 37 40  1  0  0  0  0
 38 39  1  0  0  0  0
 40 39  1  0  0  0  0
 41 35  1  6  0  0  0
 41 38  1  0  0  0  0
 43 44  1  0  0  0  0
 43 42  1  0  0  0  0
 45 44  1  0  0  0  0
 47 48  1  0  0  0  0
 48 51  1  0  0  0  0
 49 46  1  1  0  0  0
 49 50  1  0  0  0  0
 50 51  1  0  0  0  0
 51 53  1  1  0  0  0
 52 44  1  6  0  0  0
 52 49  1  0  0  0  0
 52 47  1  0  0  0  0
 53 54  2  0  0  0  0
 53 55  1  0  0  0  0
M  END
>  <MODEL>
2

>  <REMARK>
 VINA RESULT:      -5.8      2.973      8.328
  Name = 
  15 active torsions:
  status: ('A' for Active; 'I' for Inactive)
    1  A    between atoms: N_3  and  C_25
    2  A    between atoms: N_3  and  C_38
    3  A    between atoms: C_10  and  C_48
    4  A    between atoms: C_19  and  C_37
    5  A    between atoms: C_19  and  C_45
    6  A    between atoms: C_26  and  C_45
    7  A    between atoms: C_27  and  C_51
    8  A    between atoms: C_29  and  C_38
    9  A    between atoms: C_29  and  C_53
   10  A    between atoms: N_33  and  N_49
   11  A    between atoms: N_33  and  C_52
   12  A    between atoms: C_35  and  O_40
   13  A    between atoms: C_35  and  C_51
   14  A    between atoms: C_37  and  O_40
   15  A    between atoms: C_45  and  N_49
                            x       y       z     vdW  Elec       q    Type
                         _______ _______ _______ _____ _____    ______ ____

>  <TORSDO>
F 15

$$$$
=
 OpenBabel11052415013D

 55 60  0  0  1  0  0  0  0  0999 V2000
  185.7640  178.0080  145.2150 C   0  0  1  0  0  3  0  0  0  0  0  0
  188.6170  176.6190  142.8430 C   0  0  2  0  0  0  0  0  0  0  0  0
  187.8910  177.1210  145.3080 C   0  0  0  0  0  2  0  0  0  0  0  0
  188.5430  177.9740  140.9050 C   0  0  1  0  0  0  0  0  0  0  0  0
  186.8450  179.0950  143.2350 O   0  0  0  0  0  0  0  0  0  0  0  0
  187.6260  177.2400  141.8640 C   0  0  2  0  0  3  0  0  0  0  0  0
  188.8430  177.4370  144.1480 C   0  0  1  0  0  3  0  0  0  0  0  0
  186.5690  176.8930  144.8840 O   0  0  0  0  0  0  0  0  0  0  0  0
  189.9000  176.5980  142.0050 C   0  0  0  0  0  2  0  0  0  0  0  0
  185.7510  178.3550  146.7010 C   0  0  0  0  0  1  0  0  0  0  0  0
  190.1540  177.3080  144.6150 O   0  0  0  0  0  1  0  0  0  0  0  0
  189.8980  177.6670  141.0860 O   0  0  0  0  0  0  0  0  0  0  0  0
  188.2480  175.3040  143.1340 O   0  0  0  0  0  1  0  0  0  0  0  0
  186.4290  178.0350  142.4090 C   0  0  0  0  0  2  0  0  0  0  0  0
  188.0960  178.3290  139.4930 C   0  0  2  0  0  0  0  0  0  0  0  0
  185.9210  179.2440  144.2940 C   0  0  1  0  0  3  0  0  0  0  0  0
  188.2810  179.4270  140.5410 C   0  0  0  0  0  2  0  0  0  0  0  0
  184.0290  177.4160  138.3980 C   0  0  0  0  0  3  0  0  0  0  0  0
  186.6790  177.9870  139.1210 C   0  0  0  0  0  0  0  0  0  0  0  0
  185.6250  178.7670  139.6170 C   0  0  0  0  0  3  0  0  0  0  0  0
  185.0730  176.6330  137.9030 C   0  0  0  0  0  3  0  0  0  0  0  0
  184.3030  178.4810  139.2570 C   0  0  0  0  0  3  0  0  0  0  0  0
  186.3940  176.9140  138.2650 C   0  0  0  0  0  3  0  0  0  0  0  0
  184.5740  179.7800  143.8020 C   0  0  0  0  0  2  0  0  0  0  0  0
  183.5490  178.6670  143.6580 C   0  0  0  0  0  2  0  0  0  0  0  0
  182.3240  179.0220  144.3580 N   0  0  0  0  0  2  0  0  0  0  0  0
  180.0060  178.3930  144.0600 C   0  0  0  0  0  1  0  0  0  0  0  0
  181.2480  178.9400  143.3890 C   0  0  0  0  0  2  0  0  0  0  0  0
  189.1790  178.2550  138.4240 C   0  0  0  0  0  2  0  0  0  0  0  0
  188.9640  177.1620  137.5770 O   0  0  0  0  0  0  0  0  0  0  0  0
  188.2260  178.0970  135.6190 O   0  0  0  0  0  1  0  0  0  0  0  0
  189.3410  177.6080  136.3050 C   0  0  2  0  0  3  0  0  0  0  0  0
  190.7080  176.7240  134.6000 O   0  0  0  0  0  0  0  0  0  0  0  0
  189.9500  176.4840  135.5290 C   0  0  0  0  0  0  0  0  0  0  0  0
  189.6640  175.0560  135.9510 C   0  0  2  0  0  3  0  0  0  0  0  0
  187.2700  174.9050  135.1670 C   0  0  0  0  0  3  0  0  0  0  0  0
  186.2250  174.0830  134.9920 C   0  0  0  0  0  3  0  0  0  0  0  0
  188.0600  173.4750  137.1000 C   0  0  0  0  0  2  0  0  0  0  0  0
  186.5860  173.1330  137.2860 C   0  0  0  0  0  2  0  0  0  0  0  0
  185.9510  172.9240  135.9140 C   0  0  0  0  0  2  0  0  0  0  0  0
  188.2030  174.8090  136.3580 C   0  0  1  0  0  3  0  0  0  0  0  0
  191.3790  173.4810  136.2050 C   0  0  0  0  0  1  0  0  0  0  0  0
  190.6280  174.5030  136.9310 N   0  0  0  0  0  0  0  0  0  0  0  0
  191.5220  175.5010  137.4210 N   0  0  0  0  0  0  0  0  0  0  0  0
  191.3930  175.5270  138.7770 O   0  0  0  0  0  1  0  0  0  0  0  0
  193.9710  176.4170  138.8520 O   0  0  0  0  0  1  0  0  0  0  0  0
  193.5040  175.9640  135.9840 C   0  0  0  0  0  2  0  0  0  0  0  0
  195.0340  175.8780  135.8600 C   0  0  0  0  0  2  0  0  0  0  0  0
  193.8510  175.1200  138.3460 C   0  0  2  0  0  3  0  0  0  0  0  0
  195.2420  174.5650  138.0190 C   0  0  0  0  0  2  0  0  0  0  0  0
  195.5960  174.6180  136.5240 C   0  0  2  0  0  3  0  0  0  0  0  0
  192.9150  175.0960  137.1160 C   0  0  1  0  0  3  0  0  0  0  0  0
  197.0760  174.4840  136.3290 C   0  0  0  0  0  0  0  0  0  0  0  0
  197.8550  175.4410  136.7200 N   0  0  0  0  0  1  0  0  0  0  0  0
  197.6130  173.4210  135.5410 N   0  0  0  0  0  2  0  0  0  0  0  0
  1 10  1  1  0  0  0
  2 13  1  1  0  0  0
  2  7  1  0  0  0  0
  4 17  1  1  0  0  0
  4 12  1  0  0  0  0
  4  6  1  0  0  0  0
  5 16  1  0  0  0  0
  6 14  1  1  0  0  0
  6  2  1  0  0  0  0
  7 11  1  1  0  0  0
  7  3  1  0  0  0  0
  8  1  1  0  0  0  0
  8  3  1  0  0  0  0
  9  2  1  0  0  0  0
 12  9  1  0  0  0  0
 14  5  1  0  0  0  0
 15 29  1  6  0  0  0
 15 17  1  0  0  0  0
 15  4  1  0  0  0  0
 16 24  1  6  0  0  0
 16  1  1  0  0  0  0
 18 22  1  0  0  0  0
 19 15  1  0  0  0  0
 19 20  1  0  0  0  0
 21 23  1  0  0  0  0
 21 18  2  0  0  0  0
 22 20  2  0  0  0  0
 23 19  2  0  0  0  0
 25 24  1  0  0  0  0
 25 26  1  0  0  0  0
 28 27  1  0  0  0  0
 28 26  1  0  0  0  0
 30 29  1  0  0  0  0
 32 31  1  6  0  0  0
 32 30  1  0  0  0  0
 33 34  2  0  0  0  0
 34 32  1  0  0  0  0
 35 34  1  1  0  0  0
 35 43  1  0  0  0  0
 36 41  1  0  0  0  0
 37 36  2  0  0  0  0
 37 40  1  0  0  0  0
 38 39  1  0  0  0  0
 40 39  1  0  0  0  0
 41 35  1  6  0  0  0
 41 38  1  0  0  0  0
 42 43  1  0  0  0  0
 43 44  1  0  0  0  0
 44 45  1  0  0  0  0
 47 52  1  0  0  0  0
 48 47  1  0  0  0  0
 48 51  1  0  0  0  0
 49 46  1  6  0  0  0
 50 49  1  0  0  0  0
 51 53  1  1  0  0  0
 51 50  1  0  0  0  0
 52 44  1  1  0  0  0
 52 49  1  0  0  0  0
 53 54  1  0  0  0  0
 55 53  2  0  0  0  0
M  END
>  <MODEL>
3

>  <REMARK>
 VINA RESULT:      -5.1      3.276      7.177
  Name = 
  15 active torsions:
  status: ('A' for Active; 'I' for Inactive)
    1  A    between atoms: N_3  and  C_25
    2  A    between atoms: N_3  and  C_38
    3  A    between atoms: C_10  and  C_48
    4  A    between atoms: C_19  and  C_37
    5  A    between atoms: C_19  and  C_45
    6  A    between atoms: C_26  and  C_45
    7  A    between atoms: C_27  and  C_51
    8  A    between atoms: C_29  and  C_38
    9  A    between atoms: C_29  and  C_53
   10  A    between atoms: N_33  and  N_49
   11  A    between atoms: N_33  and  C_52
   12  A    between atoms: C_35  and  O_40
   13  A    between atoms: C_35  and  C_51
   14  A    between atoms: C_37  and  O_40
   15  A    between atoms: C_45  and  N_49
                            x       y       z     vdW  Elec       q    Type
                         _______ _______ _______ _____ _____    ______ ____

>  <TORSDO>
F 15

$$$$
=
 OpenBabel11052415013D

 55 60  0  0  1  0  0  0  0  0999 V2000
  192.8440  173.0420  135.7720 C   0  0  1  0  0  3  0  0  0  0  0  0
  189.1640  174.0020  136.8800 C   0  0  2  0  0  0  0  0  0  0  0  0
  190.6450  172.5300  135.3000 C   0  0  0  0  0  2  0  0  0  0  0  0
  189.2260  176.3220  137.3360 C   0  0  1  0  0  0  0  0  0  0  0  0
  191.7680  175.2990  135.9000 O   0  0  0  0  0  0  0  0  0  0  0  0
  190.0200  175.0530  137.5780 C   0  0  2  0  0  3  0  0  0  0  0  0
  189.6110  173.6550  135.4300 C   0  0  1  0  0  3  0  0  0  0  0  0
  191.6240  172.5690  136.3090 O   0  0  0  0  0  0  0  0  0  0  0  0
  187.7940  174.6900  136.8590 C   0  0  0  0  0  2  0  0  0  0  0  0
  193.3750  172.2190  134.6010 C   0  0  0  0  0  1  0  0  0  0  0  0
  188.5190  173.3370  134.6170 O   0  0  0  0  0  1  0  0  0  0  0  0
  187.9540  176.0890  136.7980 O   0  0  0  0  0  0  0  0  0  0  0  0
  189.0770  172.8500  137.6660 O   0  0  0  0  0  1  0  0  0  0  0  0
  191.5250  175.1200  137.2740 C   0  0  0  0  0  2  0  0  0  0  0  0
  189.3850  177.5420  138.2340 C   0  0  2  0  0  0  0  0  0  0  0  0
  192.9240  174.5710  135.5380 C   0  0  1  0  0  3  0  0  0  0  0  0
  189.9060  177.5710  136.7960 C   0  0  0  0  0  2  0  0  0  0  0  0
  192.3730  177.3650  141.3350 C   0  0  0  0  0  3  0  0  0  0  0  0
  190.4210  177.4570  139.3220 C   0  0  0  0  0  0  0  0  0  0  0  0
  191.7760  177.6140  139.0030 C   0  0  0  0  0  3  0  0  0  0  0  0
  191.0240  177.2050  141.6600 C   0  0  0  0  0  3  0  0  0  0  0  0
  192.7500  177.5660  140.0070 C   0  0  0  0  0  3  0  0  0  0  0  0
  190.0510  177.2470  140.6580 C   0  0  0  0  0  3  0  0  0  0  0  0
  194.1930  175.1870  136.1320 C   0  0  0  0  0  2  0  0  0  0  0  0
  194.7470  174.3380  137.2650 C   0  0  0  0  0  2  0  0  0  0  0  0
  195.3410  175.1900  138.2840 N   0  0  0  0  0  2  0  0  0  0  0  0
  196.8000  175.1580  140.2140 C   0  0  0  0  0  1  0  0  0  0  0  0
  196.0570  174.3190  139.1960 C   0  0  0  0  0  2  0  0  0  0  0  0
  188.1130  178.3420  138.4850 C   0  0  0  0  0  2  0  0  0  0  0  0
  187.1470  177.5500  139.1150 O   0  0  0  0  0  0  0  0  0  0  0  0
  186.1690  178.6920  137.3860 O   0  0  0  0  0  1  0  0  0  0  0  0
  185.9330  177.9220  138.5280 C   0  0  2  0  0  3  0  0  0  0  0  0
  184.7030  179.8190  139.1950 O   0  0  0  0  0  0  0  0  0  0  0  0
  185.1140  178.7100  139.5010 C   0  0  0  0  0  0  0  0  0  0  0  0
  184.7550  178.0870  140.8360 C   0  0  2  0  0  3  0  0  0  0  0  0
  182.5110  179.2190  141.0520 C   0  0  0  0  0  3  0  0  0  0  0  0
  181.3110  179.3890  140.4790 C   0  0  0  0  0  3  0  0  0  0  0  0
  182.6700  176.9160  140.0150 C   0  0  0  0  0  2  0  0  0  0  0  0
  181.1470  176.9160  140.0840 C   0  0  0  0  0  2  0  0  0  0  0  0
  180.6360  178.2980  139.6880 C   0  0  0  0  0  2  0  0  0  0  0  0
  183.2470  177.8930  141.0470 C   0  0  1  0  0  3  0  0  0  0  0  0
  184.6550  178.2750  143.1690 C   0  0  0  0  0  1  0  0  0  0  0  0
  185.4150  178.7210  142.0030 N   0  0  0  0  0  0  0  0  0  0  0  0
  186.7770  178.3160  142.1300 N   0  0  0  0  0  0  0  0  0  0  0  0
  187.5360  179.2450  141.4830 O   0  0  0  0  0  1  0  0  0  0  0  0
  188.4840  176.3180  143.5390 O   0  0  0  0  0  1  0  0  0  0  0  0
  186.0600  177.7180  144.4390 C   0  0  0  0  0  2  0  0  0  0  0  0
  186.5190  177.3680  145.8650 C   0  0  0  0  0  2  0  0  0  0  0  0
  188.5230  177.6800  143.8540 C   0  0  2  0  0  3  0  0  0  0  0  0
  188.9460  177.8550  145.3170 C   0  0  0  0  0  2  0  0  0  0  0  0
  187.7760  178.1420  146.2720 C   0  0  2  0  0  3  0  0  0  0  0  0
  187.1610  178.3490  143.5620 C   0  0  1  0  0  3  0  0  0  0  0  0
  188.1770  177.8700  147.6910 C   0  0  0  0  0  0  0  0  0  0  0  0
  189.3150  177.3010  147.9290 N   0  0  0  0  0  2  0  0  0  0  0  0
  187.2410  178.0400  148.7560 N   0  0  0  0  0  1  0  0  0  0  0  0
  1 10  1  6  0  0  0
  1  8  1  0  0  0  0
  2  6  1  0  0  0  0
  2 13  1  1  0  0  0
  3  7  1  0  0  0  0
  3  8  1  0  0  0  0
  4 17  1  6  0  0  0
  4  6  1  0  0  0  0
  4 15  1  0  0  0  0
  5 14  1  0  0  0  0
  6 14  1  6  0  0  0
  7 11  1  6  0  0  0
  7  2  1  0  0  0  0
  9  2  1  0  0  0  0
 12  9  1  0  0  0  0
 12  4  1  0  0  0  0
 15 29  1  1  0  0  0
 15 19  1  0  0  0  0
 16  1  1  0  0  0  0
 16  5  1  0  0  0  0
 16 24  1  1  0  0  0
 17 15  1  0  0  0  0
 18 21  1  0  0  0  0
 19 23  1  0  0  0  0
 20 19  2  0  0  0  0
 20 22  1  0  0  0  0
 22 18  2  0  0  0  0
 23 21  2  0  0  0  0
 24 25  1  0  0  0  0
 25 26  1  0  0  0  0
 26 28  1  0  0  0  0
 28 27  1  0  0  0  0
 29 30  1  0  0  0  0
 32 31  1  6  0  0  0
 32 30  1  0  0  0  0
 32 34  1  0  0  0  0
 33 34  2  0  0  0  0
 35 34  1  6  0  0  0
 35 43  1  0  0  0  0
 37 36  2  0  0  0  0
 38 39  1  0  0  0  0
 38 41  1  0  0  0  0
 40 39  1  0  0  0  0
 40 37  1  0  0  0  0
 41 35  1  6  0  0  0
 41 36  1  0  0  0  0
 43 44  1  0  0  0  0
 43 42  1  0  0  0  0
 45 44  1  0  0  0  0
 47 48  1  0  0  0  0
 48 51  1  0  0  0  0
 49 46  1  1  0  0  0
 49 50  1  0  0  0  0
 50 51  1  0  0  0  0
 51 53  1  1  0  0  0
 52 44  1  6  0  0  0
 52 49  1  0  0  0  0
 52 47  1  0  0  0  0
 53 54  2  0  0  0  0
 53 55  1  0  0  0  0
M  END
>  <MODEL>
4

>  <REMARK>
 VINA RESULT:      -5.1      2.975      9.209
  Name = 
  15 active torsions:
  status: ('A' for Active; 'I' for Inactive)
    1  A    between atoms: N_3  and  C_25
    2  A    between atoms: N_3  and  C_38
    3  A    between atoms: C_10  and  C_48
    4  A    between atoms: C_19  and  C_37
    5  A    between atoms: C_19  and  C_45
    6  A    between atoms: C_26  and  C_45
    7  A    between atoms: C_27  and  C_51
    8  A    between atoms: C_29  and  C_38
    9  A    between atoms: C_29  and  C_53
   10  A    between atoms: N_33  and  N_49
   11  A    between atoms: N_33  and  C_52
   12  A    between atoms: C_35  and  O_40
   13  A    between atoms: C_35  and  C_51
   14  A    between atoms: C_37  and  O_40
   15  A    between atoms: C_45  and  N_49
                            x       y       z     vdW  Elec       q    Type
                         _______ _______ _______ _____ _____    ______ ____

>  <TORSDO>
F 15

$$$$
=
 OpenBabel11052415013D

 55 60  0  0  1  0  0  0  0  0999 V2000
  180.0470  178.2280  138.2030 C   0  0  1  0  0  3  0  0  0  0  0  0
  183.8560  177.9340  139.2540 C   0  0  2  0  0  0  0  0  0  0  0  0
  181.6510  179.3330  139.4400 C   0  0  0  0  0  2  0  0  0  0  0  0
  184.9670  177.0460  137.3620 C   0  0  1  0  0  0  0  0  0  0  0  0
  182.0720  177.9530  136.7550 O   0  0  0  0  0  0  0  0  0  0  0  0
  183.7080  176.8540  138.1870 C   0  0  2  0  0  3  0  0  0  0  0  0
  183.1010  179.2600  138.9480 C   0  0  1  0  0  3  0  0  0  0  0  0
  180.9580  178.1180  139.2800 O   0  0  0  0  0  0  0  0  0  0  0  0
  185.3700  178.1730  139.2360 C   0  0  0  0  0  2  0  0  0  0  0  0
  179.0320  179.3580  138.3510 C   0  0  0  0  0  1  0  0  0  0  0  0
  183.7860  180.3690  139.4520 O   0  0  0  0  0  1  0  0  0  0  0  0
  185.8870  177.9240  137.9480 O   0  0  0  0  0  0  0  0  0  0  0  0
  183.4940  177.4290  140.5050 O   0  0  0  0  0  1  0  0  0  0  0  0
  182.3890  176.7470  137.4050 C   0  0  0  0  0  2  0  0  0  0  0  0
  185.5320  175.9230  136.5030 C   0  0  2  0  0  0  0  0  0  0  0  0
  180.6710  178.1400  136.7880 C   0  0  1  0  0  3  0  0  0  0  0  0
  184.8930  177.1490  135.8470 C   0  0  0  0  0  2  0  0  0  0  0  0
  183.2940  172.2470  136.2780 C   0  0  0  0  0  3  0  0  0  0  0  0
  184.7420  174.6440  136.4480 C   0  0  0  0  0  0  0  0  0  0  0  0
  183.7400  174.4880  135.4810 C   0  0  0  0  0  3  0  0  0  0  0  0
  184.2890  172.3960  137.2460 C   0  0  0  0  0  3  0  0  0  0  0  0
  183.0160  173.2940  135.3980 C   0  0  0  0  0  3  0  0  0  0  0  0
  185.0100  173.5900  137.3340 C   0  0  0  0  0  3  0  0  0  0  0  0
  179.9430  177.1360  135.8900 C   0  0  0  0  0  2  0  0  0  0  0  0
  179.1440  177.8370  134.8040 C   0  0  0  0  0  2  0  0  0  0  0  0
  178.9690  179.2420  135.1390 N   0  0  0  0  0  2  0  0  0  0  0  0
  180.1700  181.3420  135.1900 C   0  0  0  0  0  1  0  0  0  0  0  0
  180.1160  179.9480  134.6000 C   0  0  0  0  0  2  0  0  0  0  0  0
  187.0520  175.8580  136.4260 C   0  0  0  0  0  2  0  0  0  0  0  0
  187.4640  175.3920  135.1720 O   0  0  0  0  0  0  0  0  0  0  0  0
  188.6100  173.9970  136.5840 O   0  0  0  0  0  1  0  0  0  0  0  0
  188.6830  174.7470  135.4070 C   0  0  2  0  0  3  0  0  0  0  0  0
  189.8010  176.7260  134.7820 O   0  0  0  0  0  0  0  0  0  0  0  0
  189.7810  175.7550  135.5250 C   0  0  0  0  0  0  0  0  0  0  0  0
  190.8230  175.5860  136.6140 C   0  0  2  0  0  3  0  0  0  0  0  0
  189.8890  177.8440  137.2420 C   0  0  0  0  0  3  0  0  0  0  0  0
  189.1970  178.5240  138.1690 C   0  0  0  0  0  3  0  0  0  0  0  0
  190.7530  176.2890  139.0420 C   0  0  0  0  0  2  0  0  0  0  0  0
  190.5920  177.4820  139.9760 C   0  0  0  0  0  2  0  0  0  0  0  0
  189.2880  178.2010  139.6380 C   0  0  0  0  0  2  0  0  0  0  0  0
  190.8970  176.7680  137.5920 C   0  0  1  0  0  3  0  0  0  0  0  0
  193.0240  176.3310  136.3190 C   0  0  0  0  0  1  0  0  0  0  0  0
  192.1580  175.1700  136.1220 N   0  0  0  0  0  0  0  0  0  0  0  0
  192.6710  174.0560  136.8510 N   0  0  0  0  0  0  0  0  0  0  0  0
  192.4630  172.9460  136.0890 O   0  0  0  0  0  1  0  0  0  0  0  0
  194.7050  171.8860  136.6580 O   0  0  0  0  0  1  0  0  0  0  0  0
  194.5320  174.1690  138.5020 C   0  0  0  0  0  2  0  0  0  0  0  0
  196.0350  173.9470  138.7450 C   0  0  0  0  0  2  0  0  0  0  0  0
  194.9630  173.1840  136.2100 C   0  0  2  0  0  3  0  0  0  0  0  0
  196.4670  173.4670  136.2930 C   0  0  0  0  0  2  0  0  0  0  0  0
  196.8750  174.3040  137.5160 C   0  0  2  0  0  3  0  0  0  0  0  0
  194.1360  174.2150  137.0120 C   0  0  1  0  0  3  0  0  0  0  0  0
  198.3460  174.1740  137.7750 C   0  0  0  0  0  0  0  0  0  0  0  0
  198.8910  174.8880  138.7080 N   0  0  0  0  0  1  0  0  0  0  0  0
  199.1790  173.4350  136.8810 N   0  0  0  0  0  2  0  0  0  0  0  0
  1 10  1  6  0  0  0
  1  8  1  0  0  0  0
  2 13  1  1  0  0  0
  4 17  1  6  0  0  0
  4 12  1  0  0  0  0
  4  6  1  0  0  0  0
  5 16  1  0  0  0  0
  5 14  1  0  0  0  0
  6 14  1  6  0  0  0
  6  2  1  0  0  0  0
  7  2  1  0  0  0  0
  7  3  1  0  0  0  0
  7 11  1  1  0  0  0
  8  3  1  0  0  0  0
  9  2  1  0  0  0  0
 12  9  1  0  0  0  0
 15 29  1  6  0  0  0
 15  4  1  0  0  0  0
 16 24  1  1  0  0  0
 16  1  1  0  0  0  0
 17 15  1  0  0  0  0
 18 21  1  0  0  0  0
 19 15  1  0  0  0  0
 19 23  1  0  0  0  0
 20 19  2  0  0  0  0
 21 23  2  0  0  0  0
 22 20  1  0  0  0  0
 22 18  2  0  0  0  0
 25 26  1  0  0  0  0
 25 24  1  0  0  0  0
 28 26  1  0  0  0  0
 28 27  1  0  0  0  0
 30 32  1  0  0  0  0
 30 29  1  0  0  0  0
 32 34  1  0  0  0  0
 32 31  1  1  0  0  0
 33 34  2  0  0  0  0
 35 34  1  6  0  0  0
 36 41  1  0  0  0  0
 36 37  2  0  0  0  0
 37 40  1  0  0  0  0
 38 39  1  0  0  0  0
 40 39  1  0  0  0  0
 41 35  1  6  0  0  0
 41 38  1  0  0  0  0
 43 42  1  0  0  0  0
 43 35  1  0  0  0  0
 43 44  1  0  0  0  0
 45 44  1  0  0  0  0
 47 48  1  0  0  0  0
 49 50  1  0  0  0  0
 49 46  1  1  0  0  0
 49 52  1  0  0  0  0
 50 51  1  0  0  0  0
 51 53  1  1  0  0  0
 51 48  1  0  0  0  0
 52 44  1  1  0  0  0
 52 47  1  0  0  0  0
 53 54  1  0  0  0  0
 55 53  2  0  0  0  0
M  END
>  <MODEL>
5

>  <REMARK>
 VINA RESULT:      -5.1      3.212      5.419
  Name = 
  15 active torsions:
  status: ('A' for Active; 'I' for Inactive)
    1  A    between atoms: N_3  and  C_25
    2  A    between atoms: N_3  and  C_38
    3  A    between atoms: C_10  and  C_48
    4  A    between atoms: C_19  and  C_37
    5  A    between atoms: C_19  and  C_45
    6  A    between atoms: C_26  and  C_45
    7  A    between atoms: C_27  and  C_51
    8  A    between atoms: C_29  and  C_38
    9  A    between atoms: C_29  and  C_53
   10  A    between atoms: N_33  and  N_49
   11  A    between atoms: N_33  and  C_52
   12  A    between atoms: C_35  and  O_40
   13  A    between atoms: C_35  and  C_51
   14  A    between atoms: C_37  and  O_40
   15  A    between atoms: C_45  and  N_49
                            x       y       z     vdW  Elec       q    Type
                         _______ _______ _______ _____ _____    ______ ____

>  <TORSDO>
F 15

$$$$
=
 OpenBabel11052415013D

 55 60  0  0  1  0  0  0  0  0999 V2000
  190.2720  176.8450  146.5320 C   0  0  1  0  0  3  0  0  0  0  0  0
  190.2510  176.1680  142.6290 C   0  0  2  0  0  0  0  0  0  0  0  0
  191.5970  175.9570  144.8650 C   0  0  0  0  0  2  0  0  0  0  0  0
  189.1240  178.0150  141.6730 C   0  0  1  0  0  0  0  0  0  0  0  0
  189.8440  178.4410  144.6510 O   0  0  0  0  0  0  0  0  0  0  0  0
  189.0200  177.0450  142.8330 C   0  0  2  0  0  3  0  0  0  0  0  0
  191.4940  176.5830  143.4690 C   0  0  1  0  0  3  0  0  0  0  0  0
  190.3520  175.8650  145.5150 O   0  0  0  0  0  0  0  0  0  0  0  0
  190.5290  176.3780  141.1360 C   0  0  0  0  0  2  0  0  0  0  0  0
  191.3820  176.7580  147.5770 C   0  0  0  0  0  1  0  0  0  0  0  0
  192.6860  176.3200  142.7860 O   0  0  0  0  0  1  0  0  0  0  0  0
  190.1060  177.6630  140.7390 O   0  0  0  0  0  0  0  0  0  0  0  0
  189.9290  174.8260  142.8410 O   0  0  0  0  0  1  0  0  0  0  0  0
  188.7580  177.6600  144.2170 C   0  0  0  0  0  2  0  0  0  0  0  0
  187.9020  178.7560  141.1460 C   0  0  2  0  0  0  0  0  0  0  0  0
  189.9920  178.2900  146.0480 C   0  0  1  0  0  3  0  0  0  0  0  0
  188.9960  179.5140  141.9010 C   0  0  0  0  0  2  0  0  0  0  0  0
  184.2110  178.1870  143.2980 C   0  0  0  0  0  3  0  0  0  0  0  0
  186.6060  178.5410  141.8790 C   0  0  0  0  0  0  0  0  0  0  0  0
  186.6260  178.0510  143.1920 C   0  0  0  0  0  3  0  0  0  0  0  0
  184.1840  178.6730  141.9890 C   0  0  0  0  0  3  0  0  0  0  0  0
  185.4310  177.8720  143.8980 C   0  0  0  0  0  3  0  0  0  0  0  0
  185.3760  178.8470  141.2800 C   0  0  0  0  0  3  0  0  0  0  0  0
  188.8440  178.9500  146.8170 C   0  0  0  0  0  2  0  0  0  0  0  0
  188.4460  178.1320  148.0340 C   0  0  0  0  0  2  0  0  0  0  0  0
  187.0790  177.6540  147.8900 N   0  0  0  0  0  2  0  0  0  0  0  0
  184.9220  178.2530  146.9710 C   0  0  0  0  0  1  0  0  0  0  0  0
  186.3070  178.7470  147.3310 C   0  0  0  0  0  2  0  0  0  0  0  0
  187.8700  178.9820  139.6390 C   0  0  0  0  0  2  0  0  0  0  0  0
  187.6160  177.7820  138.9650 O   0  0  0  0  0  0  0  0  0  0  0  0
  188.7300  179.1880  137.5380 O   0  0  0  0  0  1  0  0  0  0  0  0
  188.3670  177.8610  137.7880 C   0  0  2  0  0  3  0  0  0  0  0  0
  187.1190  178.1110  135.8030 O   0  0  0  0  0  0  0  0  0  0  0  0
  187.5700  177.3370  136.6360 C   0  0  0  0  0  0  0  0  0  0  0  0
  187.3850  175.8400  136.4880 C   0  0  2  0  0  3  0  0  0  0  0  0
  189.5840  176.0430  135.2670 C   0  0  0  0  0  3  0  0  0  0  0  0
  190.9170  175.9770  135.3940 C   0  0  0  0  0  3  0  0  0  0  0  0
  189.3310  174.3640  137.1440 C   0  0  0  0  0  2  0  0  0  0  0  0
  190.6900  173.8410  136.6920 C   0  0  0  0  0  2  0  0  0  0  0  0
  191.5880  175.0290  136.3540 C   0  0  0  0  0  2  0  0  0  0  0  0
  188.6400  175.1050  135.9930 C   0  0  1  0  0  3  0  0  0  0  0  0
  186.6060  174.4430  134.7760 C   0  0  0  0  0  1  0  0  0  0  0  0
  186.1650  175.4450  135.7450 N   0  0  0  0  0  0  0  0  0  0  0  0
  185.1760  174.8820  136.6050 N   0  0  0  0  0  0  0  0  0  0  0  0
  185.8320  174.1420  137.5430 O   0  0  0  0  0  1  0  0  0  0  0  0
  182.4080  174.7680  137.7070 O   0  0  0  0  0  1  0  0  0  0  0  0
  183.8120  176.9460  136.3150 C   0  0  0  0  0  2  0  0  0  0  0  0
  182.7630  177.8780  136.9450 C   0  0  0  0  0  2  0  0  0  0  0  0
  183.4300  175.4790  138.3430 C   0  0  2  0  0  3  0  0  0  0  0  0
  182.8260  176.6320  139.1520 C   0  0  0  0  0  2  0  0  0  0  0  0
  182.9380  178.0010  138.4610 C   0  0  2  0  0  3  0  0  0  0  0  0
  184.4730  175.9760  137.3160 C   0  0  1  0  0  3  0  0  0  0  0  0
  181.9740  178.9760  139.0670 C   0  0  0  0  0  0  0  0  0  0  0  0
  180.9760  178.5310  139.7620 N   0  0  0  0  0  1  0  0  0  0  0  0
  182.0240  180.3600  138.7190 N   0  0  0  0  0  2  0  0  0  0  0  0
  1 10  1  6  0  0  0
  2  6  1  0  0  0  0
  2 13  1  1  0  0  0
  2  7  1  0  0  0  0
  3  8  1  0  0  0  0
  4 17  1  1  0  0  0
  4  6  1  0  0  0  0
  5 16  1  0  0  0  0
  6 14  1  1  0  0  0
  7 11  1  6  0  0  0
  7  3  1  0  0  0  0
  8  1  1  0  0  0  0
  9  2  1  0  0  0  0
 12  9  1  0  0  0  0
 12  4  1  0  0  0  0
 14  5  1  0  0  0  0
 15 29  1  6  0  0  0
 15  4  1  0  0  0  0
 15 19  1  0  0  0  0
 15 17  1  0  0  0  0
 16  1  1  0  0  0  0
 16 24  1  1  0  0  0
 18 22  1  0  0  0  0
 19 20  1  0  0  0  0
 20 22  2  0  0  0  0
 21 18  2  0  0  0  0
 23 19  2  0  0  0  0
 23 21  1  0  0  0  0
 24 25  1  0  0  0  0
 26 25  1  0  0  0  0
 27 28  1  0  0  0  0
 28 26  1  0  0  0  0
 30 29  1  0  0  0  0
 32 31  1  6  0  0  0
 32 30  1  0  0  0  0
 33 34  2  0  0  0  0
 34 32  1  0  0  0  0
 35 34  1  6  0  0  0
 36 37  2  0  0  0  0
 36 41  1  0  0  0  0
 37 40  1  0  0  0  0
 39 38  1  0  0  0  0
 40 39  1  0  0  0  0
 41 35  1  1  0  0  0
 41 38  1  0  0  0  0
 42 43  1  0  0  0  0
 43 35  1  0  0  0  0
 43 44  1  0  0  0  0
 44 45  1  0  0  0  0
 47 48  1  0  0  0  0
 47 52  1  0  0  0  0
 48 51  1  0  0  0  0
 49 46  1  6  0  0  0
 49 50  1  0  0  0  0
 51 53  1  1  0  0  0
 51 50  1  0  0  0  0
 52 44  1  6  0  0  0
 52 49  1  0  0  0  0
 53 54  1  0  0  0  0
 55 53  2  0  0  0  0
M  END
>  <MODEL>
6

>  <REMARK>
 VINA RESULT:      -4.9      2.786      8.571
  Name = 
  15 active torsions:
  status: ('A' for Active; 'I' for Inactive)
    1  A    between atoms: N_3  and  C_25
    2  A    between atoms: N_3  and  C_38
    3  A    between atoms: C_10  and  C_48
    4  A    between atoms: C_19  and  C_37
    5  A    between atoms: C_19  and  C_45
    6  A    between atoms: C_26  and  C_45
    7  A    between atoms: C_27  and  C_51
    8  A    between atoms: C_29  and  C_38
    9  A    between atoms: C_29  and  C_53
   10  A    between atoms: N_33  and  N_49
   11  A    between atoms: N_33  and  C_52
   12  A    between atoms: C_35  and  O_40
   13  A    between atoms: C_35  and  C_51
   14  A    between atoms: C_37  and  O_40
   15  A    between atoms: C_45  and  N_49
                            x       y       z     vdW  Elec       q    Type
                         _______ _______ _______ _____ _____    ______ ____

>  <TORSDO>
F 15

$$$$
=
 OpenBabel11052415013D

 55 60  0  0  1  0  0  0  0  0999 V2000
  190.3920  176.8650  146.5350 C   0  0  1  0  0  3  0  0  0  0  0  0
  190.3260  176.1900  142.6320 C   0  0  2  0  0  0  0  0  0  0  0  0
  191.6990  175.9810  144.8520 C   0  0  0  0  0  2  0  0  0  0  0  0
  189.1830  178.0350  141.6900 C   0  0  1  0  0  0  0  0  0  0  0  0
  189.9380  178.4610  144.6600 O   0  0  0  0  0  0  0  0  0  0  0  0
  189.0950  177.0630  142.8520 C   0  0  2  0  0  3  0  0  0  0  0  0
  191.5780  176.6070  143.4580 C   0  0  1  0  0  3  0  0  0  0  0  0
  190.4620  175.8860  145.5170 O   0  0  0  0  0  0  0  0  0  0  0  0
  190.5860  176.4010  141.1370 C   0  0  0  0  0  2  0  0  0  0  0  0
  191.5130  176.7810  147.5670 C   0  0  0  0  0  1  0  0  0  0  0  0
  192.7620  176.3470  142.7620 O   0  0  0  0  0  1  0  0  0  0  0  0
  190.1560  177.6850  140.7450 O   0  0  0  0  0  0  0  0  0  0  0  0
  190.0090  174.8460  142.8480 O   0  0  0  0  0  1  0  0  0  0  0  0
  188.8480  177.6780  144.2390 C   0  0  0  0  0  2  0  0  0  0  0  0
  187.9540  178.7730  141.1780 C   0  0  2  0  0  0  0  0  0  0  0  0
  190.1020  178.3100  146.0550 C   0  0  1  0  0  3  0  0  0  0  0  0
  189.0550  179.5330  141.9210 C   0  0  0  0  0  2  0  0  0  0  0  0
  184.2990  178.1740  143.3830 C   0  0  0  0  0  3  0  0  0  0  0  0
  186.6670  178.5540  141.9260 C   0  0  0  0  0  0  0  0  0  0  0  0
  186.6490  177.7030  143.0390 C   0  0  0  0  0  3  0  0  0  0  0  0
  184.3090  179.0210  142.2730 C   0  0  0  0  0  3  0  0  0  0  0  0
  185.4670  177.5120  143.7640 C   0  0  0  0  0  3  0  0  0  0  0  0
  185.4880  179.2100  141.5450 C   0  0  0  0  0  3  0  0  0  0  0  0
  188.9620  178.9670  146.8370 C   0  0  0  0  0  2  0  0  0  0  0  0
  188.5460  178.1230  148.0310 C   0  0  0  0  0  2  0  0  0  0  0  0
  187.2610  177.4910  147.7720 N   0  0  0  0  0  2  0  0  0  0  0  0
  185.0330  178.2740  147.2470 C   0  0  0  0  0  1  0  0  0  0  0  0
  186.5070  178.3990  146.9290 C   0  0  0  0  0  2  0  0  0  0  0  0
  187.9040  178.9990  139.6720 C   0  0  0  0  0  2  0  0  0  0  0  0
  187.6270  177.8030  139.0010 O   0  0  0  0  0  0  0  0  0  0  0  0
  189.0020  179.1140  137.7200 O   0  0  0  0  0  1  0  0  0  0  0  0
  188.3150  177.8990  137.7870 C   0  0  2  0  0  3  0  0  0  0  0  0
  187.0470  178.8130  136.0220 O   0  0  0  0  0  0  0  0  0  0  0  0
  187.3530  177.8060  136.6450 C   0  0  0  0  0  0  0  0  0  0  0  0
  186.8200  176.4470  136.2400 C   0  0  2  0  0  3  0  0  0  0  0  0
  184.8260  177.0270  137.6730 C   0  0  0  0  0  3  0  0  0  0  0  0
  183.6670  177.7000  137.7150 C   0  0  0  0  0  3  0  0  0  0  0  0
  184.5390  176.7080  135.1790 C   0  0  0  0  0  2  0  0  0  0  0  0
  183.0440  176.7710  135.4690 C   0  0  0  0  0  2  0  0  0  0  0  0
  182.7880  177.8640  136.5030 C   0  0  0  0  0  2  0  0  0  0  0  0
  185.3050  176.2880  136.4390 C   0  0  1  0  0  3  0  0  0  0  0  0
  186.5860  174.3180  137.1890 C   0  0  0  0  0  1  0  0  0  0  0  0
  187.5880  175.3020  136.7850 N   0  0  0  0  0  0  0  0  0  0  0  0
  188.4590  174.7310  135.8090 N   0  0  0  0  0  0  0  0  0  0  0  0
  188.0710  175.2120  134.5940 O   0  0  0  0  0  1  0  0  0  0  0  0
  190.9630  173.4360  134.8410 O   0  0  0  0  0  1  0  0  0  0  0  0
  190.3580  174.7130  137.4200 C   0  0  0  0  0  2  0  0  0  0  0  0
  191.8810  174.8330  137.5940 C   0  0  0  0  0  2  0  0  0  0  0  0
  190.8370  174.8250  134.9360 C   0  0  2  0  0  3  0  0  0  0  0  0
  192.2180  175.4520  135.1590 C   0  0  0  0  0  2  0  0  0  0  0  0
  192.4950  175.8420  136.6200 C   0  0  2  0  0  3  0  0  0  0  0  0
  189.8400  175.2090  136.0540 C   0  0  1  0  0  3  0  0  0  0  0  0
  193.9650  176.0270  136.8440 C   0  0  0  0  0  0  0  0  0  0  0  0
  194.6360  176.7960  136.0470 N   0  0  0  0  0  2  0  0  0  0  0  0
  194.6650  175.2150  137.7870 N   0  0  0  0  0  1  0  0  0  0  0  0
  1 10  1  6  0  0  0
  2 13  1  1  0  0  0
  2  6  1  0  0  0  0
  2  7  1  0  0  0  0
  3  8  1  0  0  0  0
  4 17  1  1  0  0  0
  4  6  1  0  0  0  0
  5 16  1  0  0  0  0
  6 14  1  1  0  0  0
  7 11  1  6  0  0  0
  7  3  1  0  0  0  0
  8  1  1  0  0  0  0
  9  2  1  0  0  0  0
 12  9  1  0  0  0  0
 12  4  1  0  0  0  0
 14  5  1  0  0  0  0
 15 29  1  6  0  0  0
 15  4  1  0  0  0  0
 15 17  1  0  0  0  0
 15 19  1  0  0  0  0
 16  1  1  0  0  0  0
 16 24  1  1  0  0  0
 18 22  1  0  0  0  0
 19 20  1  0  0  0  0
 20 22  2  0  0  0  0
 21 18  2  0  0  0  0
 23 19  2  0  0  0  0
 23 21  1  0  0  0  0
 24 25  1  0  0  0  0
 26 25  1  0  0  0  0
 28 27  1  0  0  0  0
 28 26  1  0  0  0  0
 30 29  1  0  0  0  0
 32 31  1  1  0  0  0
 32 30  1  0  0  0  0
 33 34  2  0  0  0  0
 34 32  1  0  0  0  0
 35 34  1  1  0  0  0
 35 43  1  0  0  0  0
 36 37  2  0  0  0  0
 38 39  1  0  0  0  0
 38 41  1  0  0  0  0
 39 40  1  0  0  0  0
 40 37  1  0  0  0  0
 41 35  1  6  0  0  0
 41 36  1  0  0  0  0
 43 42  1  0  0  0  0
 44 43  1  0  0  0  0
 45 44  1  0  0  0  0
 47 48  1  0  0  0  0
 49 46  1  1  0  0  0
 49 50  1  0  0  0  0
 49 52  1  0  0  0  0
 50 51  1  0  0  0  0
 51 53  1  6  0  0  0
 51 48  1  0  0  0  0
 52 44  1  6  0  0  0
 52 47  1  0  0  0  0
 53 55  1  0  0  0  0
 54 53  2  0  0  0  0
M  END
>  <MODEL>
7

>  <REMARK>
 VINA RESULT:      -4.9      2.962      9.053
  Name = 
  15 active torsions:
  status: ('A' for Active; 'I' for Inactive)
    1  A    between atoms: N_3  and  C_25
    2  A    between atoms: N_3  and  C_38
    3  A    between atoms: C_10  and  C_48
    4  A    between atoms: C_19  and  C_37
    5  A    between atoms: C_19  and  C_45
    6  A    between atoms: C_26  and  C_45
    7  A    between atoms: C_27  and  C_51
    8  A    between atoms: C_29  and  C_38
    9  A    between atoms: C_29  and  C_53
   10  A    between atoms: N_33  and  N_49
   11  A    between atoms: N_33  and  C_52
   12  A    between atoms: C_35  and  O_40
   13  A    between atoms: C_35  and  C_51
   14  A    between atoms: C_37  and  O_40
   15  A    between atoms: C_45  and  N_49
                            x       y       z     vdW  Elec       q    Type
                         _______ _______ _______ _____ _____    ______ ____

>  <TORSDO>
F 15

$$$$
=
 OpenBabel11052415013D

 55 60  0  0  1  0  0  0  0  0999 V2000
  180.2670  177.1460  136.8060 C   0  0  1  0  0  3  0  0  0  0  0  0
  183.6610  177.8240  138.7330 C   0  0  2  0  0  0  0  0  0  0  0  0
  181.2040  178.6230  138.3110 C   0  0  0  0  0  2  0  0  0  0  0  0
  185.3780  177.2410  137.2130 C   0  0  1  0  0  0  0  0  0  0  0  0
  182.5850  177.3880  135.8910 O   0  0  0  0  0  0  0  0  0  0  0  0
  184.0440  176.7400  137.7310 C   0  0  2  0  0  3  0  0  0  0  0  0
  182.7020  178.9170  138.1770 C   0  0  1  0  0  3  0  0  0  0  0  0
  180.8880  177.2720  138.0710 O   0  0  0  0  0  0  0  0  0  0  0  0
  185.0290  178.4370  139.0540 C   0  0  0  0  0  2  0  0  0  0  0  0
  179.0020  177.9850  136.6410 C   0  0  0  0  0  1  0  0  0  0  0  0
  182.9540  180.1640  138.7560 O   0  0  0  0  0  1  0  0  0  0  0  0
  185.8860  178.3240  137.9410 O   0  0  0  0  0  0  0  0  0  0  0  0
  183.1420  177.2470  139.8940 O   0  0  0  0  0  1  0  0  0  0  0  0
  183.0200  176.3020  136.6710 C   0  0  0  0  0  2  0  0  0  0  0  0
  186.3910  176.2950  136.5820 C   0  0  2  0  0  0  0  0  0  0  0  0
  181.2160  177.2150  135.5840 C   0  0  1  0  0  3  0  0  0  0  0  0
  185.6500  177.3180  135.7180 C   0  0  0  0  0  2  0  0  0  0  0  0
  185.1370  172.1920  136.1710 C   0  0  0  0  0  3  0  0  0  0  0  0
  185.9750  174.8580  136.4250 C   0  0  0  0  0  0  0  0  0  0  0  0
  185.7940  174.0600  137.5630 C   0  0  0  0  0  3  0  0  0  0  0  0
  185.3180  172.9800  135.0330 C   0  0  0  0  0  3  0  0  0  0  0  0
  185.3790  172.7300  137.4360 C   0  0  0  0  0  3  0  0  0  0  0  0
  185.7380  174.3070  135.1570 C   0  0  0  0  0  3  0  0  0  0  0  0
  180.9940  176.0590  134.6070 C   0  0  0  0  0  2  0  0  0  0  0  0
  180.1270  174.9700  135.2180 C   0  0  0  0  0  2  0  0  0  0  0  0
  180.8960  173.7460  135.3740 N   0  0  0  0  0  2  0  0  0  0  0  0
  179.9620  171.5350  135.0710 C   0  0  0  0  0  1  0  0  0  0  0  0
  180.0070  172.7610  135.9580 C   0  0  0  0  0  2  0  0  0  0  0  0
  187.8530  176.6150  136.8660 C   0  0  0  0  0  2  0  0  0  0  0  0
  188.2290  176.1320  138.1240 O   0  0  0  0  0  0  0  0  0  0  0  0
  189.4510  178.0540  137.8660 O   0  0  0  0  0  1  0  0  0  0  0  0
  188.7890  177.2320  138.7830 C   0  0  2  0  0  3  0  0  0  0  0  0
  190.6370  175.9720  139.5280 O   0  0  0  0  0  0  0  0  0  0  0  0
  189.7570  176.7670  139.8240 C   0  0  0  0  0  0  0  0  0  0  0  0
  189.6650  177.3410  141.2240 C   0  0  2  0  0  3  0  0  0  0  0  0
  191.2900  178.1860  142.9590 C   0  0  0  0  0  3  0  0  0  0  0  0
  191.6880  178.0700  144.2350 C   0  0  0  0  0  3  0  0  0  0  0  0
  190.5780  175.7570  142.9700 C   0  0  0  0  0  2  0  0  0  0  0  0
  191.6740  175.5700  144.0130 C   0  0  0  0  0  2  0  0  0  0  0  0
  191.6490  176.7570  144.9730 C   0  0  0  0  0  2  0  0  0  0  0  0
  190.8660  176.9990  142.1170 C   0  0  1  0  0  3  0  0  0  0  0  0
  188.6190  176.0200  142.8510 C   0  0  0  0  0  1  0  0  0  0  0  0
  188.3670  177.1010  141.9000 N   0  0  0  0  0  0  0  0  0  0  0  0
  187.9050  178.2580  142.5940 N   0  0  0  0  0  0  0  0  0  0  0  0
  188.2080  179.3390  141.8210 O   0  0  0  0  0  1  0  0  0  0  0  0
  186.0510  180.5900  142.6850 O   0  0  0  0  0  1  0  0  0  0  0  0
  186.0000  178.0620  144.1870 C   0  0  0  0  0  2  0  0  0  0  0  0
  184.5140  178.3680  144.4380 C   0  0  0  0  0  2  0  0  0  0  0  0
  185.7040  179.3920  142.0520 C   0  0  2  0  0  3  0  0  0  0  0  0
  184.1810  179.2230  142.0740 C   0  0  0  0  0  2  0  0  0  0  0  0
  183.6790  178.2560  143.1590 C   0  0  2  0  0  3  0  0  0  0  0  0
  186.4290  178.1960  142.7110 C   0  0  1  0  0  3  0  0  0  0  0  0
  182.2170  178.4670  143.4140 C   0  0  0  0  0  0  0  0  0  0  0  0
  181.4850  179.0090  142.4950 N   0  0  0  0  0  2  0  0  0  0  0  0
  181.6710  178.2690  144.7190 N   0  0  0  0  0  1  0  0  0  0  0  0
  1 10  1  6  0  0  0
  1  8  1  0  0  0  0
  2  9  1  0  0  0  0
  2 13  1  1  0  0  0
  4 17  1  6  0  0  0
  4  6  1  0  0  0  0
  4 12  1  0  0  0  0
  5 14  1  0  0  0  0
  6 14  1  6  0  0  0
  6  2  1  0  0  0  0
  7  3  1  0  0  0  0
  7  2  1  0  0  0  0
  7 11  1  1  0  0  0
  8  3  1  0  0  0  0
 12  9  1  0  0  0  0
 15 29  1  1  0  0  0
 15  4  1  0  0  0  0
 16 24  1  1  0  0  0
 16  5  1  0  0  0  0
 16  1  1  0  0  0  0
 17 15  1  0  0  0  0
 18 22  1  0  0  0  0
 19 15  1  0  0  0  0
 19 20  1  0  0  0  0
 21 23  1  0  0  0  0
 21 18  2  0  0  0  0
 22 20  2  0  0  0  0
 23 19  2  0  0  0  0
 24 25  1  0  0  0  0
 25 26  1  0  0  0  0
 26 28  1  0  0  0  0
 27 28  1  0  0  0  0
 29 30  1  0  0  0  0
 30 32  1  0  0  0  0
 32 31  1  6  0  0  0
 32 34  1  0  0  0  0
 33 34  2  0  0  0  0
 35 34  1  6  0  0  0
 35 43  1  0  0  0  0
 36 37  2  0  0  0  0
 37 40  1  0  0  0  0
 38 39  1  0  0  0  0
 39 40  1  0  0  0  0
 41 35  1  1  0  0  0
 41 36  1  0  0  0  0
 41 38  1  0  0  0  0
 43 44  1  0  0  0  0
 43 42  1  0  0  0  0
 45 44  1  0  0  0  0
 47 48  1  0  0  0  0
 49 50  1  0  0  0  0
 49 46  1  1  0  0  0
 49 52  1  0  0  0  0
 50 51  1  0  0  0  0
 51 53  1  1  0  0  0
 51 48  1  0  0  0  0
 52 44  1  1  0  0  0
 52 47  1  0  0  0  0
 53 55  1  0  0  0  0
 54 53  2  0  0  0  0
M  END
>  <MODEL>
8

>  <REMARK>
 VINA RESULT:      -4.8      2.354      3.968
  Name = 
  15 active torsions:
  status: ('A' for Active; 'I' for Inactive)
    1  A    between atoms: N_3  and  C_25
    2  A    between atoms: N_3  and  C_38
    3  A    between atoms: C_10  and  C_48
    4  A    between atoms: C_19  and  C_37
    5  A    between atoms: C_19  and  C_45
    6  A    between atoms: C_26  and  C_45
    7  A    between atoms: C_27  and  C_51
    8  A    between atoms: C_29  and  C_38
    9  A    between atoms: C_29  and  C_53
   10  A    between atoms: N_33  and  N_49
   11  A    between atoms: N_33  and  C_52
   12  A    between atoms: C_35  and  O_40
   13  A    between atoms: C_35  and  C_51
   14  A    between atoms: C_37  and  O_40
   15  A    between atoms: C_45  and  N_49
                            x       y       z     vdW  Elec       q    Type
                         _______ _______ _______ _____ _____    ______ ____

>  <TORSDO>
F 15

$$$$
=
 OpenBabel11052415013D

 55 60  0  0  1  0  0  0  0  0999 V2000
  179.9790  174.2090  136.6040 C   0  0  1  0  0  3  0  0  0  0  0  0
  183.6490  175.6680  136.2940 C   0  0  2  0  0  0  0  0  0  0  0  0
  182.1120  173.5680  136.0050 C   0  0  0  0  0  2  0  0  0  0  0  0
  183.8870  177.1700  138.1060 C   0  0  1  0  0  0  0  0  0  0  0  0
  181.3580  175.4010  138.3200 O   0  0  0  0  0  0  0  0  0  0  0  0
  182.8980  176.7750  137.0260 C   0  0  2  0  0  3  0  0  0  0  0  0
  183.2840  174.2240  136.7450 C   0  0  1  0  0  3  0  0  0  0  0  0
  181.0640  174.4670  135.7340 O   0  0  0  0  0  0  0  0  0  0  0  0
  185.1000  175.9870  136.6680 C   0  0  0  0  0  2  0  0  0  0  0  0
  179.4370  172.7840  136.5260 C   0  0  0  0  0  1  0  0  0  0  0  0
  184.3850  173.3670  136.6620 O   0  0  0  0  0  1  0  0  0  0  0  0
  185.1530  176.5960  137.9380 O   0  0  0  0  0  0  0  0  0  0  0  0
  183.4970  175.8150  134.9130 O   0  0  0  0  0  1  0  0  0  0  0  0
  181.4510  176.5270  137.4820 C   0  0  0  0  0  2  0  0  0  0  0  0
  183.8300  178.5380  138.7740 C   0  0  2  0  0  0  0  0  0  0  0  0
  180.1440  174.7280  138.0540 C   0  0  1  0  0  3  0  0  0  0  0  0
  183.4460  177.2810  139.5580 C   0  0  0  0  0  2  0  0  0  0  0  0
  180.6430  181.1990  137.6170 C   0  0  0  0  0  3  0  0  0  0  0  0
  182.7010  179.4470  138.3680 C   0  0  0  0  0  0  0  0  0  0  0  0
  182.2890  180.4690  139.2340 C   0  0  0  0  0  3  0  0  0  0  0  0
  181.0470  180.1820  136.7500 C   0  0  0  0  0  3  0  0  0  0  0  0
  181.2600  181.3410  138.8600 C   0  0  0  0  0  3  0  0  0  0  0  0
  182.0700  179.3060  137.1240 C   0  0  0  0  0  3  0  0  0  0  0  0
  178.9310  175.5330  138.5270 C   0  0  0  0  0  2  0  0  0  0  0  0
  178.9980  175.8160  140.0190 C   0  0  0  0  0  2  0  0  0  0  0  0
  179.3500  177.2090  140.2480 N   0  0  0  0  0  2  0  0  0  0  0  0
  180.6990  178.3990  141.8660 C   0  0  0  0  0  1  0  0  0  0  0  0
  179.6320  177.3450  141.6640 C   0  0  0  0  0  2  0  0  0  0  0  0
  185.1780  179.1490  139.1350 C   0  0  0  0  0  2  0  0  0  0  0  0
  186.2050  178.5520  138.3940 O   0  0  0  0  0  0  0  0  0  0  0  0
  187.0200  179.0140  140.4860 O   0  0  0  0  0  1  0  0  0  0  0  0
  187.1980  178.2460  139.3310 C   0  0  2  0  0  3  0  0  0  0  0  0
  188.6890  179.4090  137.9220 O   0  0  0  0  0  0  0  0  0  0  0  0
  188.5490  178.5220  138.7530 C   0  0  0  0  0  0  0  0  0  0  0  0
  189.7410  177.7320  139.2560 C   0  0  2  0  0  3  0  0  0  0  0  0
  188.8440  176.0530  137.6010 C   0  0  0  0  0  3  0  0  0  0  0  0
  188.9600  175.5750  136.3530 C   0  0  0  0  0  3  0  0  0  0  0  0
  191.3060  176.6410  137.5950 C   0  0  0  0  0  2  0  0  0  0  0  0
  191.4530  175.4780  136.6200 C   0  0  0  0  0  2  0  0  0  0  0  0
  190.2850  175.5060  135.6390 C   0  0  0  0  0  2  0  0  0  0  0  0
  190.0370  176.4650  138.4390 C   0  0  1  0  0  3  0  0  0  0  0  0
  188.7870  176.3840  140.9160 C   0  0  0  0  0  1  0  0  0  0  0  0
  189.7340  177.4780  140.7160 N   0  0  0  0  0  0  0  0  0  0  0  0
  191.0210  177.0970  141.1970 N   0  0  0  0  0  0  0  0  0  0  0  0
  191.9140  178.0150  140.7300 O   0  0  0  0  0  1  0  0  0  0  0  0
  190.3440  174.8960  143.0910 O   0  0  0  0  0  1  0  0  0  0  0  0
  189.7010  177.7630  143.2010 C   0  0  0  0  0  2  0  0  0  0  0  0
  189.4710  177.5420  144.7060 C   0  0  0  0  0  2  0  0  0  0  0  0
  191.3370  175.8380  143.3750 C   0  0  2  0  0  3  0  0  0  0  0  0
  191.4730  175.9980  144.8940 C   0  0  0  0  0  2  0  0  0  0  0  0
  190.7760  177.2490  145.4520 C   0  0  2  0  0  3  0  0  0  0  0  0
  191.0310  177.1830  142.6770 C   0  0  1  0  0  3  0  0  0  0  0  0
  190.5690  177.1200  146.9310 C   0  0  0  0  0  0  0  0  0  0  0  0
  191.5970  177.1300  147.7170 N   0  0  0  0  0  1  0  0  0  0  0  0
  189.2860  176.7810  147.4590 N   0  0  0  0  0  2  0  0  0  0  0  0
  1 10  1  1  0  0  0
  1 16  1  0  0  0  0
  2 13  1  6  0  0  0
  2  9  1  0  0  0  0
  2  7  1  0  0  0  0
  2  6  1  0  0  0  0
  3  7  1  0  0  0  0
  4 15  1  0  0  0  0
  4 17  1  1  0  0  0
  6 14  1  1  0  0  0
  6  4  1  0  0  0  0
  7 11  1  6  0  0  0
  8  3  1  0  0  0  0
  8  1  1  0  0  0  0
  9 12  1  0  0  0  0
 12  4  1  0  0  0  0
 14  5  1  0  0  0  0
 15 29  1  1  0  0  0
 15 17  1  0  0  0  0
 16  5  1  0  0  0  0
 16 24  1  6  0  0  0
 18 22  1  0  0  0  0
 19 15  1  0  0  0  0
 19 20  1  0  0  0  0
 21 23  1  0  0  0  0
 21 18  2  0  0  0  0
 22 20  2  0  0  0  0
 23 19  2  0  0  0  0
 24 25  1  0  0  0  0
 25 26  1  0  0  0  0
 26 28  1  0  0  0  0
 28 27  1  0  0  0  0
 30 29  1  0  0  0  0
 30 32  1  0  0  0  0
 32 31  1  1  0  0  0
 33 34  2  0  0  0  0
 34 32  1  0  0  0  0
 35 34  1  6  0  0  0
 35 43  1  0  0  0  0
 36 41  1  0  0  0  0
 37 36  2  0  0  0  0
 38 41  1  0  0  0  0
 39 38  1  0  0  0  0
 40 37  1  0  0  0  0
 40 39  1  0  0  0  0
 41 35  1  6  0  0  0
 43 42  1  0  0  0  0
 43 44  1  0  0  0  0
 45 44  1  0  0  0  0
 47 48  1  0  0  0  0
 48 51  1  0  0  0  0
 49 46  1  1  0  0  0
 49 50  1  0  0  0  0
 50 51  1  0  0  0  0
 51 53  1  1  0  0  0
 52 44  1  6  0  0  0
 52 47  1  0  0  0  0
 52 49  1  0  0  0  0
 53 55  2  0  0  0  0
 53 54  1  0  0  0  0
M  END
>  <MODEL>
9

>  <REMARK>
 VINA RESULT:      -4.5      2.036      4.445
  Name = 
  15 active torsions:
  status: ('A' for Active; 'I' for Inactive)
    1  A    between atoms: N_3  and  C_25
    2  A    between atoms: N_3  and  C_38
    3  A    between atoms: C_10  and  C_48
    4  A    between atoms: C_19  and  C_37
    5  A    between atoms: C_19  and  C_45
    6  A    between atoms: C_26  and  C_45
    7  A    between atoms: C_27  and  C_51
    8  A    between atoms: C_29  and  C_38
    9  A    between atoms: C_29  and  C_53
   10  A    between atoms: N_33  and  N_49
   11  A    between atoms: N_33  and  C_52
   12  A    between atoms: C_35  and  O_40
   13  A    between atoms: C_35  and  C_51
   14  A    between atoms: C_37  and  O_40
   15  A    between atoms: C_45  and  N_49
                            x       y       z     vdW  Elec       q    Type
                         _______ _______ _______ _____ _____    ______ ____

>  <TORSDO>
F 15

$$$$
