=
 OpenBabel11052416063D

 43 48  0  0  1  0  0  0  0  0999 V2000
  184.8480  178.5350  144.1010 C   0  0  0  0  0  3  0  0  0  0  0  0
  191.3620  176.3120  146.8900 C   0  0  0  0  0  0  0  0  0  0  0  0
  187.1470  177.9070  144.6450 C   0  0  0  0  0  0  0  0  0  0  0  0
  187.8160  178.5450  141.9350 C   0  0  2  0  0  3  0  0  0  0  0  0
  189.1250  177.1140  146.4290 C   0  0  0  0  0  0  0  0  0  0  0  0
  191.6450  176.3070  145.5210 C   0  0  0  0  0  3  0  0  0  0  0  0
  192.4000  175.8860  147.8630 C   0  0  0  0  0  1  0  0  0  0  0  0
  189.4030  177.1140  145.0440 C   0  0  0  0  0  0  0  0  0  0  0  0
  190.1020  176.7130  147.3450 C   0  0  0  0  0  3  0  0  0  0  0  0
  190.6700  176.7050  144.6010 C   0  0  0  0  0  3  0  0  0  0  0  0
  188.6240  177.4600  142.6500 C   0  0  0  0  0  2  0  0  0  0  0  0
  188.4060  177.5220  144.1400 C   0  0  0  0  0  0  0  0  0  0  0  0
  186.9130  177.8910  145.9870 N   0  0  0  0  0  0  0  0  0  0  0  0
  186.1040  178.3390  143.6960 C   0  0  0  0  0  0  0  0  0  0  0  0
  186.4520  178.5220  142.3530 O   0  0  0  0  0  0  0  0  0  0  0  0
  187.8640  177.5070  146.8780 C   0  0  0  0  0  3  0  0  0  0  0  0
  182.4060  178.3260  141.1760 C   0  0  0  0  0  2  0  0  0  0  0  0
  181.2300  178.3290  142.0510 N   0  0  0  0  0  0  0  0  0  0  0  0
  182.4340  179.0170  143.9210 C   0  0  0  0  0  2  0  0  0  0  0  0
  183.6440  177.9880  141.9990 C   0  0  0  0  0  2  0  0  0  0  0  0
  183.7610  178.9620  143.1700 C   0  0  2  0  0  3  0  0  0  0  0  0
  181.3660  179.3760  142.9860 N   0  0  0  0  0  2  0  0  0  0  0  0
  178.9310  177.8980  141.7130 O   0  0  0  0  0  1  0  0  0  0  0  0
  180.0460  178.5970  141.2360 C   0  0  0  0  0  2  0  0  0  0  0  0
  187.8940  178.3560  140.4600 C   0  0  0  0  0  0  0  0  0  0  0  0
  186.8810  178.5990  139.7500 O   0  0  0  0  0  0  0  0  0  0  0  0
  189.0850  177.9090  139.8830 O   0  0  0  0  0  0  0  0  0  0  0  0
  189.1790  177.5500  138.5110 C   0  0  1  0  0  3  0  0  0  0  0  0
  189.8070  178.5640  137.8090 F   0  0  0  0  0  0  0  0  0  0  0  0
  189.9910  176.2740  138.3660 C   0  0  0  0  0  2  0  0  0  0  0  0
  189.5920  175.5090  137.1110 C   0  0  2  0  0  3  0  0  0  0  0  0
  188.4570  176.2570  135.2340 O   0  0  0  0  0  0  0  0  0  0  0  0
  190.5300  175.7120  136.0980 O   0  0  0  0  0  0  0  0  0  0  0  0
  188.2840  176.0300  136.5950 C   0  0  1  0  0  3  0  0  0  0  0  0
  189.8430  176.4150  135.0940 C   0  0  0  0  0  2  0  0  0  0  0  0
  185.8390  175.4610  137.0430 N   0  0  0  0  0  0  0  0  0  0  0  0
  187.1910  175.0290  136.8270 C   0  0  0  0  0  0  0  0  0  0  0  0
  183.6310  175.0260  137.9970 C   0  0  0  0  0  2  0  0  0  0  0  0
  184.2720  177.1730  137.8120 C   0  0  0  0  0  2  0  0  0  0  0  0
  183.2300  176.2800  137.5050 O   0  0  0  0  0  0  0  0  0  0  0  0
  185.4870  176.8780  136.9320 C   0  0  0  0  0  2  0  0  0  0  0  0
  184.7650  174.4700  137.1370 C   0  0  0  0  0  2  0  0  0  0  0  0
  187.4750  173.8010  136.8710 O   0  0  0  0  0  0  0  0  0  0  0  0
  2  9  1  0  0  0  0
  2  7  1  0  0  0  0
  3 13  1  0  0  0  0
  4 25  1  6  0  0  0
  4 15  1  0  0  0  0
  4 11  1  0  0  0  0
  5 16  1  0  0  0  0
  5  9  2  0  0  0  0
  6  2  2  0  0  0  0
  8  5  1  0  0  0  0
 10  8  2  0  0  0  0
 10  6  1  0  0  0  0
 11 12  1  0  0  0  0
 12  3  2  0  0  0  0
 12  8  1  0  0  0  0
 13 16  2  0  0  0  0
 14  1  2  0  0  0  0
 14  3  1  0  0  0  0
 15 14  1  0  0  0  0
 17 20  1  0  0  0  0
 17 18  1  0  0  0  0
 18 22  1  0  0  0  0
 20 21  1  0  0  0  0
 21 19  1  0  0  0  0
 21  1  1  1  0  0  0
 22 19  1  0  0  0  0
 24 23  1  0  0  0  0
 24 18  1  0  0  0  0
 26 25  2  0  0  0  0
 27 25  1  0  0  0  0
 28 29  1  6  0  0  0
 28 27  1  0  0  0  0
 30 28  1  0  0  0  0
 31 30  1  1  0  0  0
 32 34  1  0  0  0  0
 33 31  1  0  0  0  0
 34 37  1  6  0  0  0
 34 31  1  0  0  0  0
 35 32  1  0  0  0  0
 35 33  1  0  0  0  0
 36 42  1  0  0  0  0
 37 43  2  0  0  0  0
 37 36  1  0  0  0  0
 40 39  1  0  0  0  0
 40 38  1  0  0  0  0
 41 36  1  0  0  0  0
 41 39  1  0  0  0  0
 42 38  1  0  0  0  0
M  END
>  <MODEL>
1

>  <REMARK>
 VINA RESULT:     -10.4      0.000      0.000
  Name = 
  8 active torsions:
  status: ('A' for Active; 'I' for Inactive)
    1  A    between atoms: C_1  and  C_35
    2  A    between atoms: C_2  and  O_6
    3  A    between atoms: C_2  and  C_13
    4  A    between atoms: C_3  and  C_4
    5  A    between atoms: C_3  and  C_12
    6  A    between atoms: O_6  and  C_12
    7  A    between atoms: C_14  and  C_22
    8  A    between atoms: N_19  and  C_37
                            x       y       z     vdW  Elec       q    Type
                         _______ _______ _______ _____ _____    ______ ____

>  <TORSDO>
F 8

$$$$
=
 OpenBabel11052416063D

 43 48  0  0  1  0  0  0  0  0999 V2000
  184.9620  178.4020  143.5620 C   0  0  0  0  0  3  0  0  0  0  0  0
  191.3090  176.4010  146.8560 C   0  0  0  0  0  0  0  0  0  0  0  0
  187.2320  177.8530  144.2850 C   0  0  0  0  0  0  0  0  0  0  0  0
  188.0890  178.5210  141.6360 C   0  0  2  0  0  3  0  0  0  0  0  0
  189.0890  177.1250  146.2200 C   0  0  0  0  0  0  0  0  0  0  0  0
  191.6990  176.4090  145.5130 C   0  0  0  0  0  3  0  0  0  0  0  0
  192.2820  176.0100  147.9080 C   0  0  0  0  0  1  0  0  0  0  0  0
  189.4750  177.1390  144.8610 C   0  0  0  0  0  0  0  0  0  0  0  0
  190.0050  176.7560  147.2100 C   0  0  0  0  0  3  0  0  0  0  0  0
  190.7870  176.7760  144.5190 C   0  0  0  0  0  3  0  0  0  0  0  0
  188.8760  177.4640  142.4130 C   0  0  0  0  0  2  0  0  0  0  0  0
  188.5380  177.5140  143.8810 C   0  0  0  0  0  0  0  0  0  0  0  0
  186.8930  177.8250  145.6040 N   0  0  0  0  0  0  0  0  0  0  0  0
  186.2520  178.2510  143.2570 C   0  0  0  0  0  0  0  0  0  0  0  0
  186.6980  178.4500  141.9450 O   0  0  0  0  0  0  0  0  0  0  0  0
  187.7840  177.4730  146.5680 C   0  0  0  0  0  3  0  0  0  0  0  0
  182.7160  178.0850  140.4930 C   0  0  0  0  0  2  0  0  0  0  0  0
  181.4860  178.1130  141.2880 N   0  0  0  0  0  0  0  0  0  0  0  0
  182.5640  178.8680  143.2080 C   0  0  0  0  0  2  0  0  0  0  0  0
  183.8980  177.7800  141.4050 C   0  0  0  0  0  2  0  0  0  0  0  0
  183.9370  178.7930  142.5480 C   0  0  2  0  0  3  0  0  0  0  0  0
  181.5590  179.1910  142.1940 N   0  0  0  0  0  2  0  0  0  0  0  0
  180.2020  177.2960  139.4780 O   0  0  0  0  0  1  0  0  0  0  0  0
  180.3570  178.3480  140.3890 C   0  0  0  0  0  2  0  0  0  0  0  0
  188.2890  178.3390  140.1720 C   0  0  0  0  0  0  0  0  0  0  0  0
  187.3310  178.5600  139.3830 O   0  0  0  0  0  0  0  0  0  0  0  0
  189.5330  177.9230  139.6920 O   0  0  0  0  0  0  0  0  0  0  0  0
  189.6990  177.3460  138.4030 C   0  0  1  0  0  3  0  0  0  0  0  0
  189.7480  178.3480  137.4500 F   0  0  0  0  0  0  0  0  0  0  0  0
  190.9950  176.5550  138.3540 C   0  0  0  0  0  2  0  0  0  0  0  0
  191.0850  175.7260  137.0800 C   0  0  2  0  0  3  0  0  0  0  0  0
  191.4580  173.4530  136.8290 O   0  0  0  0  0  0  0  0  0  0  0  0
  189.8590  175.1210  136.8060 O   0  0  0  0  0  0  0  0  0  0  0  0
  192.0790  174.6190  137.2650 C   0  0  1  0  0  3  0  0  0  0  0  0
  190.0910  173.7410  136.9360 C   0  0  0  0  0  2  0  0  0  0  0  0
  194.6020  174.4500  136.9370 N   0  0  0  0  0  0  0  0  0  0  0  0
  193.3200  174.8870  136.4650 C   0  0  0  0  0  0  0  0  0  0  0  0
  197.0310  174.7280  136.9580 C   0  0  0  0  0  2  0  0  0  0  0  0
  196.0740  173.8690  138.8020 C   0  0  0  0  0  2  0  0  0  0  0  0
  197.0930  173.6510  137.8590 O   0  0  0  0  0  0  0  0  0  0  0  0
  194.7080  173.6420  138.1540 C   0  0  0  0  0  2  0  0  0  0  0  0
  195.7820  174.6030  136.0850 C   0  0  0  0  0  2  0  0  0  0  0  0
  193.2320  175.5360  135.3860 O   0  0  0  0  0  0  0  0  0  0  0  0
  2  9  1  0  0  0  0
  2  7  1  0  0  0  0
  3 13  1  0  0  0  0
  4 25  1  6  0  0  0
  4 15  1  0  0  0  0
  4 11  1  0  0  0  0
  5 16  1  0  0  0  0
  5  9  2  0  0  0  0
  6  2  2  0  0  0  0
  8  5  1  0  0  0  0
 10  8  2  0  0  0  0
 10  6  1  0  0  0  0
 11 12  1  0  0  0  0
 12  3  2  0  0  0  0
 12  8  1  0  0  0  0
 13 16  2  0  0  0  0
 14  1  2  0  0  0  0
 14  3  1  0  0  0  0
 15 14  1  0  0  0  0
 17 18  1  0  0  0  0
 17 20  1  0  0  0  0
 18 22  1  0  0  0  0
 20 21  1  0  0  0  0
 21 19  1  0  0  0  0
 21  1  1  1  0  0  0
 22 19  1  0  0  0  0
 23 24  1  0  0  0  0
 24 18  1  0  0  0  0
 26 25  2  0  0  0  0
 27 25  1  0  0  0  0
 28 29  1  6  0  0  0
 28 27  1  0  0  0  0
 30 28  1  0  0  0  0
 31 34  1  0  0  0  0
 31 30  1  1  0  0  0
 32 35  1  0  0  0  0
 32 34  1  0  0  0  0
 33 35  1  0  0  0  0
 33 31  1  0  0  0  0
 34 37  1  6  0  0  0
 36 41  1  0  0  0  0
 37 36  1  0  0  0  0
 38 40  1  0  0  0  0
 40 39  1  0  0  0  0
 41 39  1  0  0  0  0
 42 36  1  0  0  0  0
 42 38  1  0  0  0  0
 43 37  2  0  0  0  0
M  END
>  <MODEL>
2

>  <REMARK>
 VINA RESULT:     -10.1      2.863      4.751
  Name = 
  8 active torsions:
  status: ('A' for Active; 'I' for Inactive)
    1  A    between atoms: C_1  and  C_35
    2  A    between atoms: C_2  and  O_6
    3  A    between atoms: C_2  and  C_13
    4  A    between atoms: C_3  and  C_4
    5  A    between atoms: C_3  and  C_12
    6  A    between atoms: O_6  and  C_12
    7  A    between atoms: C_14  and  C_22
    8  A    between atoms: N_19  and  C_37
                            x       y       z     vdW  Elec       q    Type
                         _______ _______ _______ _____ _____    ______ ____

>  <TORSDO>
F 8

$$$$
=
 OpenBabel11052416063D

 43 48  0  0  1  0  0  0  0  0999 V2000
  187.9320  178.1630  146.1150 C   0  0  0  0  0  3  0  0  0  0  0  0
  181.4490  178.9790  142.5880 C   0  0  0  0  0  0  0  0  0  0  0  0
  185.9980  178.2700  144.6240 C   0  0  0  0  0  0  0  0  0  0  0  0
  187.7210  177.3130  142.5460 C   0  0  2  0  0  3  0  0  0  0  0  0
  183.2980  178.6950  144.1240 C   0  0  0  0  0  0  0  0  0  0  0  0
  182.3210  178.8260  141.5060 C   0  0  0  0  0  3  0  0  0  0  0  0
  180.0020  179.2130  142.3460 C   0  0  0  0  0  1  0  0  0  0  0  0
  184.1860  178.5360  143.0370 C   0  0  0  0  0  0  0  0  0  0  0  0
  181.9360  178.9160  143.8960 C   0  0  0  0  0  3  0  0  0  0  0  0
  183.6840  178.6060  141.7280 C   0  0  0  0  0  3  0  0  0  0  0  0
  186.5520  178.2230  142.1640 C   0  0  0  0  0  2  0  0  0  0  0  0
  185.5510  178.3140  143.2890 C   0  0  0  0  0  0  0  0  0  0  0  0
  185.1140  178.4300  145.6490 N   0  0  0  0  0  0  0  0  0  0  0  0
  187.4300  178.0310  144.8860 C   0  0  0  0  0  0  0  0  0  0  0  0
  188.2600  177.6820  143.8150 O   0  0  0  0  0  0  0  0  0  0  0  0
  183.7890  178.6380  145.4280 C   0  0  0  0  0  3  0  0  0  0  0  0
  191.0240  177.3090  148.1830 C   0  0  0  0  0  2  0  0  0  0  0  0
  191.3320  176.1220  147.3830 N   0  0  0  0  0  0  0  0  0  0  0  0
  189.8800  176.7160  145.6630 C   0  0  0  0  0  2  0  0  0  0  0  0
  189.5840  177.7330  147.9190 C   0  0  0  0  0  2  0  0  0  0  0  0
  189.3780  177.9410  146.4200 C   0  0  2  0  0  3  0  0  0  0  0  0
  191.2790  176.4710  146.0170 N   0  0  0  0  0  2  0  0  0  0  0  0
  193.1860  176.3390  148.8340 O   0  0  0  0  0  1  0  0  0  0  0  0
  192.6970  175.6950  147.6910 C   0  0  0  0  0  2  0  0  0  0  0  0
  188.7850  177.3800  141.5080 C   0  0  0  0  0  0  0  0  0  0  0  0
  189.8490  176.7220  141.6680 O   0  0  0  0  0  0  0  0  0  0  0  0
  188.5940  178.1700  140.3730 O   0  0  0  0  0  0  0  0  0  0  0  0
  188.4440  177.6140  139.0730 C   0  0  1  0  0  3  0  0  0  0  0  0
  187.4400  178.2830  138.3960 F   0  0  0  0  0  0  0  0  0  0  0  0
  189.7430  177.7580  138.2970 C   0  0  0  0  0  2  0  0  0  0  0  0
  190.5380  176.4600  138.3120 C   0  0  2  0  0  3  0  0  0  0  0  0
  191.8180  175.5030  136.6340 O   0  0  0  0  0  0  0  0  0  0  0  0
  191.8790  176.7140  138.6010 O   0  0  0  0  0  0  0  0  0  0  0  0
  190.5040  175.8300  136.9510 C   0  0  1  0  0  3  0  0  0  0  0  0
  192.5810  176.3620  137.4360 C   0  0  0  0  0  2  0  0  0  0  0  0
  188.2970  174.6490  136.4650 N   0  0  0  0  0  0  0  0  0  0  0  0
  189.6430  174.6020  136.9610 C   0  0  0  0  0  0  0  0  0  0  0  0
  186.0280  173.7410  136.4820 C   0  0  0  0  0  2  0  0  0  0  0  0
  186.2610  175.9280  136.0170 C   0  0  0  0  0  2  0  0  0  0  0  0
  185.6800  174.7360  135.5520 O   0  0  0  0  0  0  0  0  0  0  0  0
  187.7790  175.8690  135.8420 C   0  0  0  0  0  2  0  0  0  0  0  0
  187.5160  173.4160  136.3620 C   0  0  0  0  0  2  0  0  0  0  0  0
  190.0990  173.5310  137.4470 O   0  0  0  0  0  0  0  0  0  0  0  0
  2  9  1  0  0  0  0
  3 14  1  0  0  0  0
  3 13  1  0  0  0  0
  4 25  1  6  0  0  0
  4 15  1  0  0  0  0
  5 16  1  0  0  0  0
  6 10  1  0  0  0  0
  6  2  2  0  0  0  0
  7  2  1  0  0  0  0
  8 12  1  0  0  0  0
  8  5  1  0  0  0  0
  9  5  2  0  0  0  0
 10  8  2  0  0  0  0
 11  4  1  0  0  0  0
 11 12  1  0  0  0  0
 12  3  2  0  0  0  0
 14  1  2  0  0  0  0
 15 14  1  0  0  0  0
 16 13  2  0  0  0  0
 18 24  1  0  0  0  0
 18 17  1  0  0  0  0
 19 22  1  0  0  0  0
 19 21  1  0  0  0  0
 20 17  1  0  0  0  0
 21  1  1  1  0  0  0
 21 20  1  0  0  0  0
 22 18  1  0  0  0  0
 24 23  1  0  0  0  0
 25 26  2  0  0  0  0
 27 25  1  0  0  0  0
 28 29  1  6  0  0  0
 28 27  1  0  0  0  0
 30 28  1  0  0  0  0
 31 30  1  6  0  0  0
 31 33  1  0  0  0  0
 32 34  1  0  0  0  0
 32 35  1  0  0  0  0
 34 37  1  1  0  0  0
 34 31  1  0  0  0  0
 35 33  1  0  0  0  0
 36 37  1  0  0  0  0
 37 43  2  0  0  0  0
 40 39  1  0  0  0  0
 40 38  1  0  0  0  0
 41 39  1  0  0  0  0
 41 36  1  0  0  0  0
 42 36  1  0  0  0  0
 42 38  1  0  0  0  0
M  END
>  <MODEL>
3

>  <REMARK>
 VINA RESULT:      -9.6      2.434      6.599
  Name = 
  8 active torsions:
  status: ('A' for Active; 'I' for Inactive)
    1  A    between atoms: C_1  and  C_35
    2  A    between atoms: C_2  and  O_6
    3  A    between atoms: C_2  and  C_13
    4  A    between atoms: C_3  and  C_4
    5  A    between atoms: C_3  and  C_12
    6  A    between atoms: O_6  and  C_12
    7  A    between atoms: C_14  and  C_22
    8  A    between atoms: N_19  and  C_37
                            x       y       z     vdW  Elec       q    Type
                         _______ _______ _______ _____ _____    ______ ____

>  <TORSDO>
F 8

$$$$
=
 OpenBabel11052416063D

 43 48  0  0  1  0  0  0  0  0999 V2000
  184.1200  178.7420  140.7980 C   0  0  0  0  0  3  0  0  0  0  0  0
  187.8930  177.6340  147.0980 C   0  0  0  0  0  0  0  0  0  0  0  0
  185.7030  178.4420  142.6370 C   0  0  0  0  0  0  0  0  0  0  0  0
  187.7940  178.7540  140.7060 C   0  0  2  0  0  3  0  0  0  0  0  0
  186.3140  178.1240  145.3290 C   0  0  0  0  0  0  0  0  0  0  0  0
  188.9060  177.4640  146.1490 C   0  0  0  0  0  3  0  0  0  0  0  0
  188.1930  177.4640  148.5420 C   0  0  0  0  0  1  0  0  0  0  0  0
  187.3320  177.9560  144.3640 C   0  0  0  0  0  0  0  0  0  0  0  0
  186.5970  177.9620  146.6890 C   0  0  0  0  0  3  0  0  0  0  0  0
  188.6280  177.6230  144.7880 C   0  0  0  0  0  3  0  0  0  0  0  0
  188.0550  177.8740  141.9290 C   0  0  0  0  0  2  0  0  0  0  0  0
  187.0260  178.1240  143.0020 C   0  0  0  0  0  0  0  0  0  0  0  0
  184.7450  178.5930  143.5940 N   0  0  0  0  0  0  0  0  0  0  0  0
  185.3840  178.6240  141.2080 C   0  0  0  0  0  0  0  0  0  0  0  0
  186.4340  178.6490  140.2840 O   0  0  0  0  0  0  0  0  0  0  0  0
  185.0200  178.4430  144.9160 C   0  0  0  0  0  3  0  0  0  0  0  0
  183.0980  177.7460  137.2590 C   0  0  0  0  0  2  0  0  0  0  0  0
  181.8120  178.4420  137.3450 N   0  0  0  0  0  0  0  0  0  0  0  0
  182.4140  179.6330  139.2530 C   0  0  0  0  0  2  0  0  0  0  0  0
  183.6650  177.5610  138.6610 C   0  0  0  0  0  2  0  0  0  0  0  0
  183.7560  178.9160  139.3600 C   0  0  2  0  0  3  0  0  0  0  0  0
  182.0360  179.7430  137.8430 N   0  0  0  0  0  2  0  0  0  0  0  0
  180.9820  179.8940  135.6740 O   0  0  0  0  0  1  0  0  0  0  0  0
  181.2560  178.5600  135.9980 C   0  0  0  0  0  2  0  0  0  0  0  0
  188.6990  178.3660  139.5900 C   0  0  0  0  0  0  0  0  0  0  0  0
  189.7720  177.7550  139.8460 O   0  0  0  0  0  0  0  0  0  0  0  0
  188.3500  178.6850  138.2760 O   0  0  0  0  0  0  0  0  0  0  0  0
  188.4440  177.7450  137.2130 C   0  0  1  0  0  3  0  0  0  0  0  0
  189.7500  177.6860  136.7600 F   0  0  0  0  0  0  0  0  0  0  0  0
  188.0290  176.3670  137.7020 C   0  0  0  0  0  2  0  0  0  0  0  0
  188.1270  175.3360  136.5870 C   0  0  2  0  0  3  0  0  0  0  0  0
  188.6570  173.0830  136.7130 O   0  0  0  0  0  0  0  0  0  0  0  0
  186.9390  174.6120  136.4880 O   0  0  0  0  0  0  0  0  0  0  0  0
  189.2070  174.3460  136.9070 C   0  0  1  0  0  3  0  0  0  0  0  0
  187.2780  173.2950  136.8410 C   0  0  0  0  0  2  0  0  0  0  0  0
  191.6250  175.0640  136.5280 N   0  0  0  0  0  0  0  0  0  0  0  0
  190.3900  174.5490  136.0070 C   0  0  0  0  0  0  0  0  0  0  0  0
  193.7220  176.2590  136.1430 C   0  0  0  0  0  2  0  0  0  0  0  0
  192.8120  176.4030  138.1940 C   0  0  0  0  0  2  0  0  0  0  0  0
  194.0020  176.0990  137.5120 O   0  0  0  0  0  0  0  0  0  0  0  0
  191.7830  175.2960  137.9650 C   0  0  0  0  0  2  0  0  0  0  0  0
  192.8060  175.1330  135.6660 C   0  0  0  0  0  2  0  0  0  0  0  0
  190.2810  174.3000  134.7750 O   0  0  0  0  0  0  0  0  0  0  0  0
  1 14  2  0  0  0  0
  2  7  1  0  0  0  0
  3 12  2  0  0  0  0
  3 13  1  0  0  0  0
  4 25  1  6  0  0  0
  4 11  1  0  0  0  0
  5  9  2  0  0  0  0
  6  2  2  0  0  0  0
  8 10  2  0  0  0  0
  8  5  1  0  0  0  0
  9  2  1  0  0  0  0
 10  6  1  0  0  0  0
 11 12  1  0  0  0  0
 12  8  1  0  0  0  0
 13 16  2  0  0  0  0
 14  3  1  0  0  0  0
 15  4  1  0  0  0  0
 15 14  1  0  0  0  0
 16  5  1  0  0  0  0
 17 18  1  0  0  0  0
 17 20  1  0  0  0  0
 18 22  1  0  0  0  0
 19 21  1  0  0  0  0
 20 21  1  0  0  0  0
 21  1  1  1  0  0  0
 22 19  1  0  0  0  0
 23 24  1  0  0  0  0
 24 18  1  0  0  0  0
 25 26  2  0  0  0  0
 27 25  1  0  0  0  0
 28 29  1  1  0  0  0
 28 30  1  0  0  0  0
 28 27  1  0  0  0  0
 31 34  1  0  0  0  0
 31 30  1  1  0  0  0
 32 35  1  0  0  0  0
 32 34  1  0  0  0  0
 33 31  1  0  0  0  0
 33 35  1  0  0  0  0
 34 37  1  6  0  0  0
 36 41  1  0  0  0  0
 37 36  1  0  0  0  0
 38 40  1  0  0  0  0
 40 39  1  0  0  0  0
 41 39  1  0  0  0  0
 42 38  1  0  0  0  0
 42 36  1  0  0  0  0
 43 37  2  0  0  0  0
M  END
>  <MODEL>
4

>  <REMARK>
 VINA RESULT:      -9.6      2.449      4.483
  Name = 
  8 active torsions:
  status: ('A' for Active; 'I' for Inactive)
    1  A    between atoms: C_1  and  C_35
    2  A    between atoms: C_2  and  O_6
    3  A    between atoms: C_2  and  C_13
    4  A    between atoms: C_3  and  C_4
    5  A    between atoms: C_3  and  C_12
    6  A    between atoms: O_6  and  C_12
    7  A    between atoms: C_14  and  C_22
    8  A    between atoms: N_19  and  C_37
                            x       y       z     vdW  Elec       q    Type
                         _______ _______ _______ _____ _____    ______ ____

>  <TORSDO>
F 8

$$$$
=
 OpenBabel11052416063D

 43 48  0  0  1  0  0  0  0  0999 V2000
  187.9580  178.1340  146.0530 C   0  0  0  0  0  3  0  0  0  0  0  0
  181.5680  179.0010  142.3700 C   0  0  0  0  0  0  0  0  0  0  0  0
  186.0630  178.2620  144.5140 C   0  0  0  0  0  0  0  0  0  0  0  0
  187.8390  177.3310  142.4690 C   0  0  2  0  0  3  0  0  0  0  0  0
  183.3770  178.6950  143.9500 C   0  0  0  0  0  0  0  0  0  0  0  0
  182.4690  178.8620  141.3090 C   0  0  0  0  0  3  0  0  0  0  0  0
  180.1280  179.2400  142.0940 C   0  0  0  0  0  1  0  0  0  0  0  0
  184.2930  178.5510  142.8840 C   0  0  0  0  0  0  0  0  0  0  0  0
  182.0220  178.9200  143.6900 C   0  0  0  0  0  3  0  0  0  0  0  0
  183.8250  178.6380  141.5640 C   0  0  0  0  0  3  0  0  0  0  0  0
  186.6810  178.2470  142.0690 C   0  0  0  0  0  2  0  0  0  0  0  0
  185.6510  178.3240  143.1680 C   0  0  0  0  0  0  0  0  0  0  0  0
  185.1530  178.4090  145.5170 N   0  0  0  0  0  0  0  0  0  0  0  0
  187.4880  178.0190  144.8100 C   0  0  0  0  0  0  0  0  0  0  0  0
  188.3450  177.6840  143.7560 O   0  0  0  0  0  0  0  0  0  0  0  0
  183.8350  178.6210  145.2650 C   0  0  0  0  0  3  0  0  0  0  0  0
  190.9910  177.2140  148.1780 C   0  0  0  0  0  2  0  0  0  0  0  0
  191.3310  176.0600  147.3420 N   0  0  0  0  0  0  0  0  0  0  0  0
  189.9270  176.7150  145.6040 C   0  0  0  0  0  2  0  0  0  0  0  0
  189.5570  177.6410  147.8880 C   0  0  0  0  0  2  0  0  0  0  0  0
  189.3950  177.9070  146.3930 C   0  0  2  0  0  3  0  0  0  0  0  0
  191.3160  176.4630  145.9900 N   0  0  0  0  0  2  0  0  0  0  0  0
  193.1920  176.3320  148.7740 O   0  0  0  0  0  1  0  0  0  0  0  0
  192.6870  175.6280  147.6740 C   0  0  0  0  0  2  0  0  0  0  0  0
  188.9300  177.4110  141.4600 C   0  0  0  0  0  0  0  0  0  0  0  0
  189.9230  176.6400  141.5580 O   0  0  0  0  0  0  0  0  0  0  0  0
  188.8420  178.3400  140.4210 O   0  0  0  0  0  0  0  0  0  0  0  0
  188.3460  177.9980  139.1330 C   0  0  1  0  0  3  0  0  0  0  0  0
  186.9840  178.2320  139.0830 F   0  0  0  0  0  0  0  0  0  0  0  0
  189.0310  178.8460  138.0740 C   0  0  0  0  0  2  0  0  0  0  0  0
  188.8190  178.2640  136.6820 C   0  0  2  0  0  3  0  0  0  0  0  0
  187.9030  176.2270  136.0670 O   0  0  0  0  0  0  0  0  0  0  0  0
  187.5120  178.4960  136.2520 O   0  0  0  0  0  0  0  0  0  0  0  0
  189.0000  176.7760  136.7230 C   0  0  1  0  0  3  0  0  0  0  0  0
  186.9230  177.2250  136.1570 C   0  0  0  0  0  2  0  0  0  0  0  0
  191.4840  176.2080  136.7920 N   0  0  0  0  0  0  0  0  0  0  0  0
  190.2750  176.3830  136.0390 C   0  0  0  0  0  0  0  0  0  0  0  0
  193.9280  176.2130  136.8570 C   0  0  0  0  0  2  0  0  0  0  0  0
  192.8420  176.7530  138.7510 C   0  0  0  0  0  2  0  0  0  0  0  0
  193.8380  175.9100  138.2270 O   0  0  0  0  0  0  0  0  0  0  0  0
  191.4680  176.3060  138.2530 C   0  0  0  0  0  2  0  0  0  0  0  0
  192.6860  175.6980  136.1310 C   0  0  0  0  0  2  0  0  0  0  0  0
  190.2870  176.2430  134.7850 O   0  0  0  0  0  0  0  0  0  0  0  0
  2  9  1  0  0  0  0
  3 14  1  0  0  0  0
  3 13  1  0  0  0  0
  4 25  1  6  0  0  0
  4 15  1  0  0  0  0
  5 16  1  0  0  0  0
  6 10  1  0  0  0  0
  6  2  2  0  0  0  0
  7  2  1  0  0  0  0
  8 12  1  0  0  0  0
  8  5  1  0  0  0  0
  9  5  2  0  0  0  0
 10  8  2  0  0  0  0
 11  4  1  0  0  0  0
 11 12  1  0  0  0  0
 12  3  2  0  0  0  0
 14  1  2  0  0  0  0
 15 14  1  0  0  0  0
 16 13  2  0  0  0  0
 18 24  1  0  0  0  0
 18 17  1  0  0  0  0
 19 22  1  0  0  0  0
 19 21  1  0  0  0  0
 20 17  1  0  0  0  0
 21  1  1  1  0  0  0
 21 20  1  0  0  0  0
 22 18  1  0  0  0  0
 24 23  1  0  0  0  0
 25 26  2  0  0  0  0
 27 25  1  0  0  0  0
 28 29  1  1  0  0  0
 28 27  1  0  0  0  0
 30 28  1  0  0  0  0
 31 34  1  0  0  0  0
 31 30  1  1  0  0  0
 32 35  1  0  0  0  0
 32 34  1  0  0  0  0
 33 31  1  0  0  0  0
 34 37  1  6  0  0  0
 35 33  1  0  0  0  0
 36 41  1  0  0  0  0
 37 36  1  0  0  0  0
 38 40  1  0  0  0  0
 40 39  1  0  0  0  0
 41 39  1  0  0  0  0
 42 36  1  0  0  0  0
 42 38  1  0  0  0  0
 43 37  2  0  0  0  0
M  END
>  <MODEL>
5

>  <REMARK>
 VINA RESULT:      -9.6      2.697      7.259
  Name = 
  8 active torsions:
  status: ('A' for Active; 'I' for Inactive)
    1  A    between atoms: C_1  and  C_35
    2  A    between atoms: C_2  and  O_6
    3  A    between atoms: C_2  and  C_13
    4  A    between atoms: C_3  and  C_4
    5  A    between atoms: C_3  and  C_12
    6  A    between atoms: O_6  and  C_12
    7  A    between atoms: C_14  and  C_22
    8  A    between atoms: N_19  and  C_37
                            x       y       z     vdW  Elec       q    Type
                         _______ _______ _______ _____ _____    ______ ____

>  <TORSDO>
F 8

$$$$
=
 OpenBabel11052416063D

 43 48  0  0  1  0  0  0  0  0999 V2000
  191.0170  176.0360  137.6990 C   0  0  0  0  0  3  0  0  0  0  0  0
  184.4570  179.1700  139.2120 C   0  0  0  0  0  0  0  0  0  0  0  0
  189.0260  177.1560  138.5700 C   0  0  0  0  0  0  0  0  0  0  0  0
  190.4310  177.4240  141.0510 C   0  0  2  0  0  3  0  0  0  0  0  0
  186.4830  178.2370  138.2720 C   0  0  0  0  0  0  0  0  0  0  0  0
  184.9850  179.0290  140.4990 C   0  0  0  0  0  3  0  0  0  0  0  0
  183.0970  179.7400  139.0270 C   0  0  0  0  0  1  0  0  0  0  0  0
  187.0260  178.0930  139.5690 C   0  0  0  0  0  0  0  0  0  0  0  0
  185.2030  178.7730  138.0990 C   0  0  0  0  0  3  0  0  0  0  0  0
  186.2640  178.4930  140.6770 C   0  0  0  0  0  3  0  0  0  0  0  0
  188.9060  177.3020  141.0850 C   0  0  0  0  0  2  0  0  0  0  0  0
  188.3160  177.5530  139.7200 C   0  0  0  0  0  0  0  0  0  0  0  0
  188.4690  177.3050  137.3350 N   0  0  0  0  0  0  0  0  0  0  0  0
  190.3800  176.5940  138.7300 C   0  0  0  0  0  0  0  0  0  0  0  0
  190.9810  176.6390  139.9930 O   0  0  0  0  0  0  0  0  0  0  0  0
  187.2280  177.8320  137.1650 C   0  0  0  0  0  3  0  0  0  0  0  0
  193.8920  173.6030  137.0860 C   0  0  0  0  0  2  0  0  0  0  0  0
  194.7300  174.6250  136.4520 N   0  0  0  0  0  0  0  0  0  0  0  0
  193.4080  176.3890  137.1990 C   0  0  0  0  0  2  0  0  0  0  0  0
  192.4480  174.0900  137.1240 C   0  0  0  0  0  2  0  0  0  0  0  0
  192.3840  175.4470  137.8230 C   0  0  2  0  0  3  0  0  0  0  0  0
  194.7340  175.7750  137.2690 N   0  0  0  0  0  2  0  0  0  0  0  0
  197.0260  175.0870  136.7760 O   0  0  0  0  0  1  0  0  0  0  0  0
  196.0990  174.1180  136.3720 C   0  0  0  0  0  2  0  0  0  0  0  0
  191.0100  176.9930  142.3520 C   0  0  0  0  0  0  0  0  0  0  0  0
  190.6880  175.8730  142.8330 O   0  0  0  0  0  0  0  0  0  0  0  0
  191.9000  177.8340  143.0240 O   0  0  0  0  0  0  0  0  0  0  0  0
  191.5390  178.5380  144.2050 C   0  0  1  0  0  3  0  0  0  0  0  0
  191.5670  179.8990  143.9600 F   0  0  0  0  0  0  0  0  0  0  0  0
  190.1360  178.1420  144.6350 C   0  0  0  0  0  2  0  0  0  0  0  0
  190.0300  178.0560  146.1510 C   0  0  2  0  0  3  0  0  0  0  0  0
  189.6060  176.2130  147.4910 O   0  0  0  0  0  0  0  0  0  0  0  0
  191.2430  177.6400  146.7010 O   0  0  0  0  0  0  0  0  0  0  0  0
  189.0110  177.0230  146.5290 C   0  0  1  0  0  3  0  0  0  0  0  0
  190.9800  176.3830  147.2690 C   0  0  0  0  0  2  0  0  0  0  0  0
  186.6190  177.8620  146.2550 N   0  0  0  0  0  0  0  0  0  0  0  0
  187.7780  177.6770  147.0800 C   0  0  0  0  0  0  0  0  0  0  0  0
  184.5730  179.1090  145.7710 C   0  0  0  0  0  2  0  0  0  0  0  0
  185.6400  178.1600  144.0340 C   0  0  0  0  0  2  0  0  0  0  0  0
  184.3860  178.2670  144.6610 O   0  0  0  0  0  0  0  0  0  0  0  0
  186.5820  177.3190  144.8960 C   0  0  0  0  0  2  0  0  0  0  0  0
  185.3830  178.3810  146.8430 C   0  0  0  0  0  2  0  0  0  0  0  0
  187.7810  178.1000  148.2680 O   0  0  0  0  0  0  0  0  0  0  0  0
  1 14  2  0  0  0  0
  2  6  1  0  0  0  0
  3 14  1  0  0  0  0
  3 12  1  0  0  0  0
  4 11  1  0  0  0  0
  4 25  1  1  0  0  0
  5  8  1  0  0  0  0
  6 10  2  0  0  0  0
  7  2  1  0  0  0  0
  8 12  2  0  0  0  0
  8 10  1  0  0  0  0
  9  5  1  0  0  0  0
  9  2  2  0  0  0  0
 12 11  1  0  0  0  0
 13  3  2  0  0  0  0
 14 15  1  0  0  0  0
 15  4  1  0  0  0  0
 16 13  1  0  0  0  0
 16  5  2  0  0  0  0
 17 20  1  0  0  0  0
 18 17  1  0  0  0  0
 18 22  1  0  0  0  0
 19 22  1  0  0  0  0
 19 21  1  0  0  0  0
 20 21  1  0  0  0  0
 21  1  1  6  0  0  0
 24 18  1  0  0  0  0
 24 23  1  0  0  0  0
 25 26  2  0  0  0  0
 25 27  1  0  0  0  0
 27 28  1  0  0  0  0
 28 29  1  6  0  0  0
 28 30  1  0  0  0  0
 31 30  1  6  0  0  0
 31 34  1  0  0  0  0
 31 33  1  0  0  0  0
 33 35  1  0  0  0  0
 34 37  1  1  0  0  0
 34 32  1  0  0  0  0
 35 32  1  0  0  0  0
 36 42  1  0  0  0  0
 36 37  1  0  0  0  0
 37 43  2  0  0  0  0
 38 42  1  0  0  0  0
 39 40  1  0  0  0  0
 39 41  1  0  0  0  0
 40 38  1  0  0  0  0
 41 36  1  0  0  0  0
M  END
>  <MODEL>
6

>  <REMARK>
 VINA RESULT:      -9.6      3.714      9.913
  Name = 
  8 active torsions:
  status: ('A' for Active; 'I' for Inactive)
    1  A    between atoms: C_1  and  C_35
    2  A    between atoms: C_2  and  O_6
    3  A    between atoms: C_2  and  C_13
    4  A    between atoms: C_3  and  C_4
    5  A    between atoms: C_3  and  C_12
    6  A    between atoms: O_6  and  C_12
    7  A    between atoms: C_14  and  C_22
    8  A    between atoms: N_19  and  C_37
                            x       y       z     vdW  Elec       q    Type
                         _______ _______ _______ _____ _____    ______ ____

>  <TORSDO>
F 8

$$$$
=
 OpenBabel11052416063D

 43 48  0  0  1  0  0  0  0  0999 V2000
  187.9310  178.1420  145.9720 C   0  0  0  0  0  3  0  0  0  0  0  0
  181.5600  179.0030  142.2550 C   0  0  0  0  0  0  0  0  0  0  0  0
  186.0440  178.2680  144.4230 C   0  0  0  0  0  0  0  0  0  0  0  0
  187.8310  177.3370  142.3880 C   0  0  2  0  0  3  0  0  0  0  0  0
  183.3600  178.6990  143.8440 C   0  0  0  0  0  0  0  0  0  0  0  0
  182.4660  178.8640  141.1990 C   0  0  0  0  0  3  0  0  0  0  0  0
  180.1210  179.2400  141.9710 C   0  0  0  0  0  1  0  0  0  0  0  0
  184.2820  178.5550  142.7840 C   0  0  0  0  0  0  0  0  0  0  0  0
  182.0060  178.9230  143.5770 C   0  0  0  0  0  3  0  0  0  0  0  0
  183.8210  178.6410  141.4610 C   0  0  0  0  0  3  0  0  0  0  0  0
  186.6740  178.2530  141.9810 C   0  0  0  0  0  2  0  0  0  0  0  0
  185.6390  178.3290  143.0750 C   0  0  0  0  0  0  0  0  0  0  0  0
  185.1280  178.4150  145.4210 N   0  0  0  0  0  0  0  0  0  0  0  0
  187.4670  178.0260  144.7270 C   0  0  0  0  0  0  0  0  0  0  0  0
  188.3310  177.6910  143.6780 O   0  0  0  0  0  0  0  0  0  0  0  0
  183.8110  178.6260  145.1630 C   0  0  0  0  0  3  0  0  0  0  0  0
  190.9510  177.1870  148.1000 C   0  0  0  0  0  2  0  0  0  0  0  0
  191.3070  176.0590  147.2360 N   0  0  0  0  0  0  0  0  0  0  0  0
  189.9150  176.7510  145.5030 C   0  0  0  0  0  2  0  0  0  0  0  0
  189.5160  177.6110  147.8080 C   0  0  0  0  0  2  0  0  0  0  0  0
  189.3660  177.9170  146.3190 C   0  0  2  0  0  3  0  0  0  0  0  0
  191.3020  176.4980  145.8950 N   0  0  0  0  0  2  0  0  0  0  0  0
  193.1810  176.3580  148.6460 O   0  0  0  0  0  1  0  0  0  0  0  0
  192.6640  175.6280  147.5690 C   0  0  0  0  0  2  0  0  0  0  0  0
  188.9270  177.4180  141.3850 C   0  0  0  0  0  0  0  0  0  0  0  0
  190.1260  177.4080  141.7740 O   0  0  0  0  0  0  0  0  0  0  0  0
  188.6150  177.5050  140.0260 O   0  0  0  0  0  0  0  0  0  0  0  0
  189.4310  178.2120  139.1000 C   0  0  1  0  0  3  0  0  0  0  0  0
  190.5250  177.4360  138.7610 F   0  0  0  0  0  0  0  0  0  0  0  0
  188.6360  178.5200  137.8420 C   0  0  0  0  0  2  0  0  0  0  0  0
  188.5430  177.2990  136.9380 C   0  0  2  0  0  3  0  0  0  0  0  0
  187.3860  177.0300  134.9480 O   0  0  0  0  0  0  0  0  0  0  0  0
  189.4620  177.3970  135.8930 O   0  0  0  0  0  0  0  0  0  0  0  0
  187.1830  177.2370  136.3090 C   0  0  1  0  0  3  0  0  0  0  0  0
  188.6870  177.5030  134.7270 C   0  0  0  0  0  2  0  0  0  0  0  0
  184.9770  176.2760  137.1520 N   0  0  0  0  0  0  0  0  0  0  0  0
  186.3810  176.1160  136.8990 C   0  0  0  0  0  0  0  0  0  0  0  0
  182.9930  175.6280  138.4230 C   0  0  0  0  0  2  0  0  0  0  0  0
  183.0800  177.7370  137.6480 C   0  0  0  0  0  2  0  0  0  0  0  0
  182.2740  176.5860  137.6870 O   0  0  0  0  0  0  0  0  0  0  0  0
  184.2840  177.4980  136.7370 C   0  0  0  0  0  2  0  0  0  0  0  0
  184.1840  175.1320  137.6050 C   0  0  0  0  0  2  0  0  0  0  0  0
  186.9590  175.0390  137.2100 O   0  0  0  0  0  0  0  0  0  0  0  0
  2  9  1  0  0  0  0
  3 14  1  0  0  0  0
  3 13  1  0  0  0  0
  4 25  1  6  0  0  0
  4 15  1  0  0  0  0
  5 16  1  0  0  0  0
  6 10  1  0  0  0  0
  6  2  2  0  0  0  0
  7  2  1  0  0  0  0
  8 12  1  0  0  0  0
  8  5  1  0  0  0  0
  9  5  2  0  0  0  0
 10  8  2  0  0  0  0
 11  4  1  0  0  0  0
 11 12  1  0  0  0  0
 12  3  2  0  0  0  0
 14  1  2  0  0  0  0
 15 14  1  0  0  0  0
 16 13  2  0  0  0  0
 18 24  1  0  0  0  0
 18 17  1  0  0  0  0
 19 22  1  0  0  0  0
 19 21  1  0  0  0  0
 20 17  1  0  0  0  0
 21  1  1  1  0  0  0
 21 20  1  0  0  0  0
 22 18  1  0  0  0  0
 24 23  1  0  0  0  0
 25 26  2  0  0  0  0
 27 25  1  0  0  0  0
 28 29  1  6  0  0  0
 28 27  1  0  0  0  0
 30 28  1  0  0  0  0
 31 30  1  1  0  0  0
 32 34  1  0  0  0  0
 33 31  1  0  0  0  0
 34 37  1  1  0  0  0
 34 31  1  0  0  0  0
 35 32  1  0  0  0  0
 35 33  1  0  0  0  0
 36 42  1  0  0  0  0
 37 36  1  0  0  0  0
 37 43  2  0  0  0  0
 39 40  1  0  0  0  0
 40 38  1  0  0  0  0
 41 36  1  0  0  0  0
 41 39  1  0  0  0  0
 42 38  1  0  0  0  0
M  END
>  <MODEL>
7

>  <REMARK>
 VINA RESULT:      -9.4      2.136      6.435
  Name = 
  8 active torsions:
  status: ('A' for Active; 'I' for Inactive)
    1  A    between atoms: C_1  and  C_35
    2  A    between atoms: C_2  and  O_6
    3  A    between atoms: C_2  and  C_13
    4  A    between atoms: C_3  and  C_4
    5  A    between atoms: C_3  and  C_12
    6  A    between atoms: O_6  and  C_12
    7  A    between atoms: C_14  and  C_22
    8  A    between atoms: N_19  and  C_37
                            x       y       z     vdW  Elec       q    Type
                         _______ _______ _______ _____ _____    ______ ____

>  <TORSDO>
F 8

$$$$
=
 OpenBabel11052416063D

 43 48  0  0  1  0  0  0  0  0999 V2000
  183.9530  178.4860  141.2620 C   0  0  0  0  0  3  0  0  0  0  0  0
  187.9700  177.8900  147.4790 C   0  0  0  0  0  0  0  0  0  0  0  0
  185.6070  178.3200  143.0550 C   0  0  0  0  0  0  0  0  0  0  0  0
  187.6170  178.3670  141.0170 C   0  0  2  0  0  3  0  0  0  0  0  0
  186.3280  178.2520  145.7380 C   0  0  0  0  0  0  0  0  0  0  0  0
  188.9340  177.5910  146.5120 C   0  0  0  0  0  3  0  0  0  0  0  0
  188.3300  177.8550  148.9200 C   0  0  0  0  0  1  0  0  0  0  0  0
  187.2970  177.9540  144.7530 C   0  0  0  0  0  0  0  0  0  0  0  0
  186.6680  178.2180  147.0940 C   0  0  0  0  0  3  0  0  0  0  0  0
  188.6000  177.6230  145.1550 C   0  0  0  0  0  3  0  0  0  0  0  0
  187.9080  177.6040  142.3110 C   0  0  0  0  0  2  0  0  0  0  0  0
  186.9350  177.9960  143.3950 C   0  0  0  0  0  0  0  0  0  0  0  0
  184.6970  178.5980  144.0310 N   0  0  0  0  0  0  0  0  0  0  0  0
  185.2300  178.3670  141.6300 C   0  0  0  0  0  0  0  0  0  0  0  0
  186.2380  178.2650  140.6650 O   0  0  0  0  0  0  0  0  0  0  0  0
  185.0280  178.5720  145.3490 C   0  0  0  0  0  3  0  0  0  0  0  0
  182.3140  177.3190  138.0200 C   0  0  0  0  0  2  0  0  0  0  0  0
  181.3530  178.4240  138.0110 N   0  0  0  0  0  0  0  0  0  0  0  0
  182.5030  179.6380  139.6300 C   0  0  0  0  0  2  0  0  0  0  0  0
  182.9200  177.1910  139.4130 C   0  0  0  0  0  2  0  0  0  0  0  0
  183.5290  178.5280  139.8310 C   0  0  2  0  0  3  0  0  0  0  0  0
  182.0490  179.6300  138.2390 N   0  0  0  0  0  2  0  0  0  0  0  0
  181.0650  179.6930  136.0370 O   0  0  0  0  0  1  0  0  0  0  0  0
  180.7390  178.4960  136.6860 C   0  0  0  0  0  2  0  0  0  0  0  0
  188.4600  177.8380  139.9090 C   0  0  0  0  0  0  0  0  0  0  0  0
  189.6920  177.6550  140.1010 O   0  0  0  0  0  0  0  0  0  0  0  0
  187.8760  177.5550  138.6730 O   0  0  0  0  0  0  0  0  0  0  0  0
  188.0280  178.4060  137.5440 C   0  0  1  0  0  3  0  0  0  0  0  0
  189.1010  179.2560  137.7460 F   0  0  0  0  0  0  0  0  0  0  0  0
  188.2870  177.5730  136.3000 C   0  0  0  0  0  2  0  0  0  0  0  0
  189.2530  176.4320  136.5940 C   0  0  2  0  0  3  0  0  0  0  0  0
  190.1570  174.8640  135.1470 O   0  0  0  0  0  0  0  0  0  0  0  0
  190.5630  176.8190  136.3100 O   0  0  0  0  0  0  0  0  0  0  0  0
  188.9460  175.2670  135.7010 C   0  0  1  0  0  3  0  0  0  0  0  0
  190.9640  176.0070  135.2360 C   0  0  0  0  0  2  0  0  0  0  0  0
  186.9060  173.9640  136.5020 N   0  0  0  0  0  0  0  0  0  0  0  0
  188.3290  174.1490  136.4890 C   0  0  0  0  0  0  0  0  0  0  0  0
  184.9170  173.1210  137.6450 C   0  0  0  0  0  2  0  0  0  0  0  0
  184.6580  174.9050  136.3010 C   0  0  0  0  0  2  0  0  0  0  0  0
  184.1560  173.6210  136.5740 O   0  0  0  0  0  0  0  0  0  0  0  0
  186.0430  174.7960  135.6620 C   0  0  0  0  0  2  0  0  0  0  0  0
  186.3310  172.7940  137.1680 C   0  0  0  0  0  2  0  0  0  0  0  0
  189.0710  173.3930  137.1740 O   0  0  0  0  0  0  0  0  0  0  0  0
  1 14  2  0  0  0  0
  2  7  1  0  0  0  0
  3 12  2  0  0  0  0
  3 13  1  0  0  0  0
  4 25  1  6  0  0  0
  4 11  1  0  0  0  0
  5  9  2  0  0  0  0
  6  2  2  0  0  0  0
  8 10  2  0  0  0  0
  8  5  1  0  0  0  0
  9  2  1  0  0  0  0
 10  6  1  0  0  0  0
 11 12  1  0  0  0  0
 12  8  1  0  0  0  0
 13 16  2  0  0  0  0
 14  3  1  0  0  0  0
 15  4  1  0  0  0  0
 15 14  1  0  0  0  0
 16  5  1  0  0  0  0
 17 20  1  0  0  0  0
 18 17  1  0  0  0  0
 18 22  1  0  0  0  0
 19 21  1  0  0  0  0
 20 21  1  0  0  0  0
 21  1  1  1  0  0  0
 22 19  1  0  0  0  0
 23 24  1  0  0  0  0
 24 18  1  0  0  0  0
 25 26  2  0  0  0  0
 27 25  1  0  0  0  0
 28 29  1  1  0  0  0
 28 27  1  0  0  0  0
 30 28  1  0  0  0  0
 31 30  1  6  0  0  0
 32 35  1  0  0  0  0
 32 34  1  0  0  0  0
 33 31  1  0  0  0  0
 34 37  1  1  0  0  0
 34 31  1  0  0  0  0
 35 33  1  0  0  0  0
 36 42  1  0  0  0  0
 37 36  1  0  0  0  0
 37 43  2  0  0  0  0
 39 40  1  0  0  0  0
 40 38  1  0  0  0  0
 41 39  1  0  0  0  0
 41 36  1  0  0  0  0
 42 38  1  0  0  0  0
M  END
>  <MODEL>
8

>  <REMARK>
 VINA RESULT:      -9.4      2.192      2.875
  Name = 
  8 active torsions:
  status: ('A' for Active; 'I' for Inactive)
    1  A    between atoms: C_1  and  C_35
    2  A    between atoms: C_2  and  O_6
    3  A    between atoms: C_2  and  C_13
    4  A    between atoms: C_3  and  C_4
    5  A    between atoms: C_3  and  C_12
    6  A    between atoms: O_6  and  C_12
    7  A    between atoms: C_14  and  C_22
    8  A    between atoms: N_19  and  C_37
                            x       y       z     vdW  Elec       q    Type
                         _______ _______ _______ _____ _____    ______ ____

>  <TORSDO>
F 8

$$$$
=
 OpenBabel11052416063D

 43 48  0  0  1  0  0  0  0  0999 V2000
  187.5130  178.1580  145.9500 C   0  0  0  0  0  3  0  0  0  0  0  0
  180.9000  179.0280  142.6840 C   0  0  0  0  0  0  0  0  0  0  0  0
  185.5350  178.3320  144.5240 C   0  0  0  0  0  0  0  0  0  0  0  0
  187.2450  177.7160  142.3110 C   0  0  2  0  0  3  0  0  0  0  0  0
  182.8030  178.6670  144.1360 C   0  0  0  0  0  0  0  0  0  0  0  0
  181.7490  179.0480  141.5730 C   0  0  0  0  0  3  0  0  0  0  0  0
  179.4370  179.2110  142.5030 C   0  0  0  0  0  1  0  0  0  0  0  0
  183.6680  178.6840  143.0180 C   0  0  0  0  0  0  0  0  0  0  0  0
  181.4260  178.8400  143.9650 C   0  0  0  0  0  3  0  0  0  0  0  0
  183.1260  178.8780  141.7380 C   0  0  0  0  0  3  0  0  0  0  0  0
  186.0210  178.6010  142.0640 C   0  0  0  0  0  2  0  0  0  0  0  0
  185.0490  178.5070  143.2120 C   0  0  0  0  0  0  0  0  0  0  0  0
  184.6720  178.3260  145.5790 N   0  0  0  0  0  0  0  0  0  0  0  0
  186.9840  178.1420  144.7250 C   0  0  0  0  0  0  0  0  0  0  0  0
  187.8000  177.9650  143.6020 O   0  0  0  0  0  0  0  0  0  0  0  0
  183.3330  178.4870  145.4130 C   0  0  0  0  0  3  0  0  0  0  0  0
  190.7020  177.2720  147.8490 C   0  0  0  0  0  2  0  0  0  0  0  0
  191.0400  176.1780  146.9350 N   0  0  0  0  0  0  0  0  0  0  0  0
  189.5100  176.8540  145.3160 C   0  0  0  0  0  2  0  0  0  0  0  0
  189.2360  177.6470  147.6630 C   0  0  0  0  0  2  0  0  0  0  0  0
  188.9750  177.9800  146.1950 C   0  0  2  0  0  3  0  0  0  0  0  0
  190.9290  176.6460  145.6090 N   0  0  0  0  0  2  0  0  0  0  0  0
  192.8260  176.0720  148.4810 O   0  0  0  0  0  1  0  0  0  0  0  0
  192.4310  175.7920  147.1670 C   0  0  0  0  0  2  0  0  0  0  0  0
  188.2750  177.9590  141.2650 C   0  0  0  0  0  0  0  0  0  0  0  0
  188.2050  178.9990  140.5560 O   0  0  0  0  0  0  0  0  0  0  0  0
  189.3040  177.0330  141.0810 O   0  0  0  0  0  0  0  0  0  0  0  0
  190.6770  177.3910  141.1690 C   0  0  1  0  0  3  0  0  0  0  0  0
  191.2920  176.6340  142.1500 F   0  0  0  0  0  0  0  0  0  0  0  0
  191.3660  177.1290  139.8400 C   0  0  0  0  0  2  0  0  0  0  0  0
  190.4010  176.5190  138.8320 C   0  0  2  0  0  3  0  0  0  0  0  0
  190.5150  176.4950  136.5180 O   0  0  0  0  0  0  0  0  0  0  0  0
  190.8410  175.2550  138.4400 O   0  0  0  0  0  0  0  0  0  0  0  0
  190.3620  177.3630  137.5930 C   0  0  1  0  0  3  0  0  0  0  0  0
  191.1530  175.3780  137.0760 C   0  0  0  0  0  2  0  0  0  0  0  0
  187.8180  177.3760  137.4180 N   0  0  0  0  0  0  0  0  0  0  0  0
  189.0570  178.0970  137.4970 C   0  0  0  0  0  0  0  0  0  0  0  0
  185.4790  177.3080  136.7110 C   0  0  0  0  0  2  0  0  0  0  0  0
  186.5930  175.3560  136.7880 C   0  0  0  0  0  2  0  0  0  0  0  0
  185.4200  175.9990  137.2190 O   0  0  0  0  0  0  0  0  0  0  0  0
  187.8000  175.9170  137.5390 C   0  0  0  0  0  2  0  0  0  0  0  0
  186.5490  178.1050  137.4560 C   0  0  0  0  0  2  0  0  0  0  0  0
  189.0580  179.3570  137.4460 O   0  0  0  0  0  0  0  0  0  0  0  0
  2  9  1  0  0  0  0
  3 14  1  0  0  0  0
  3 13  1  0  0  0  0
  4 25  1  6  0  0  0
  4 15  1  0  0  0  0
  5 16  1  0  0  0  0
  6 10  1  0  0  0  0
  6  2  2  0  0  0  0
  7  2  1  0  0  0  0
  8 12  1  0  0  0  0
  8  5  1  0  0  0  0
  9  5  2  0  0  0  0
 10  8  2  0  0  0  0
 11  4  1  0  0  0  0
 11 12  1  0  0  0  0
 12  3  2  0  0  0  0
 14  1  2  0  0  0  0
 15 14  1  0  0  0  0
 16 13  2  0  0  0  0
 18 24  1  0  0  0  0
 18 17  1  0  0  0  0
 19 22  1  0  0  0  0
 19 21  1  0  0  0  0
 20 17  1  0  0  0  0
 21  1  1  1  0  0  0
 21 20  1  0  0  0  0
 22 18  1  0  0  0  0
 24 23  1  0  0  0  0
 26 25  2  0  0  0  0
 27 28  1  0  0  0  0
 27 25  1  0  0  0  0
 28 29  1  1  0  0  0
 30 28  1  0  0  0  0
 31 30  1  1  0  0  0
 32 35  1  0  0  0  0
 32 34  1  0  0  0  0
 33 31  1  0  0  0  0
 34 37  1  6  0  0  0
 34 31  1  0  0  0  0
 35 33  1  0  0  0  0
 36 42  1  0  0  0  0
 36 37  1  0  0  0  0
 36 41  1  0  0  0  0
 38 40  1  0  0  0  0
 38 42  1  0  0  0  0
 39 40  1  0  0  0  0
 39 41  1  0  0  0  0
 43 37  2  0  0  0  0
M  END
>  <MODEL>
9

>  <REMARK>
 VINA RESULT:      -9.4      2.339      6.649
  Name = 
  8 active torsions:
  status: ('A' for Active; 'I' for Inactive)
    1  A    between atoms: C_1  and  C_35
    2  A    between atoms: C_2  and  O_6
    3  A    between atoms: C_2  and  C_13
    4  A    between atoms: C_3  and  C_4
    5  A    between atoms: C_3  and  C_12
    6  A    between atoms: O_6  and  C_12
    7  A    between atoms: C_14  and  C_22
    8  A    between atoms: N_19  and  C_37
                            x       y       z     vdW  Elec       q    Type
                         _______ _______ _______ _____ _____    ______ ____

>  <TORSDO>
F 8

$$$$
