=
 OpenBabel11052415183D

 37 41  0  0  1  0  0  0  0  0999 V2000
  186.0830  178.2980  139.5660 C   0  0  0  0  0  0  0  0  0  0  0  0
  185.3140  177.2650  137.5530 O   0  0  0  0  0  0  0  0  0  0  0  0
  184.6720  178.5350  140.0630 C   0  0  2  0  0  3  0  0  0  0  0  0
  186.2420  178.1890  138.0590 C   0  0  2  0  0  3  0  0  0  0  0  0
  184.5180  178.1670  141.5350 C   0  0  0  0  0  2  0  0  0  0  0  0
  187.6470  177.7660  137.6370 C   0  0  0  0  0  2  0  0  0  0  0  0
  184.0360  177.8330  137.7120 C   0  0  2  0  0  3  0  0  0  0  0  0
  187.1520  178.4140  140.3980 C   0  0  0  0  0  0  0  0  0  0  0  0
  188.6820  178.5660  138.4080 C   0  0  0  0  0  2  0  0  0  0  0  0
  188.5590  178.2320  139.8890 C   0  0  0  0  0  2  0  0  0  0  0  0
  183.6290  177.8070  139.2010 C   0  0  2  0  0  3  0  0  0  0  0  0
  185.5840  178.9040  142.3320 C   0  0  2  0  0  3  0  0  0  0  0  0
  186.9790  178.4550  141.8980 C   0  0  0  0  0  2  0  0  0  0  0  0
  182.1100  179.8620  139.0120 C   0  0  0  0  0  2  0  0  0  0  0  0
  181.5540  180.0240  137.6060 C   0  0  0  0  0  2  0  0  0  0  0  0
  179.3760  178.7880  137.7630 N   0  0  0  0  0  0  0  0  0  0  0  0
  180.0290  180.1050  137.6810 C   0  0  2  0  0  3  0  0  0  0  0  0
  179.7160  178.0980  139.0150 C   0  0  0  0  0  2  0  0  0  0  0  0
  181.1090  177.4470  138.9960 C   0  0  1  0  0  3  0  0  0  0  0  0
  179.6590  177.9530  136.5940 C   0  0  0  0  0  1  0  0  0  0  0  0
  182.2280  178.3950  139.4580 C   0  0  1  0  0  3  0  0  0  0  0  0
  180.2670  175.1110  139.2250 C   0  0  0  0  0  1  0  0  0  0  0  0
  181.0990  176.2030  139.8710 C   0  0  0  0  0  2  0  0  0  0  0  0
  180.4410  182.0040  136.1110 C   0  0  0  0  0  1  0  0  0  0  0  0
  179.4610  180.9240  136.5270 C   0  0  0  0  0  2  0  0  0  0  0  0
  184.1470  179.0070  144.3720 C   0  0  0  0  0  3  0  0  0  0  0  0
  185.3900  178.7070  143.8010 C   0  0  0  0  0  0  0  0  0  0  0  0
  186.4270  178.2240  144.6150 C   0  0  0  0  0  3  0  0  0  0  0  0
  187.3220  177.5370  146.8430 C   0  0  0  0  0  1  0  0  0  0  0  0
  184.9780  178.3490  146.5500 C   0  0  0  0  0  3  0  0  0  0  0  0
  186.2200  178.0470  145.9860 C   0  0  0  0  0  0  0  0  0  0  0  0
  183.9420  178.8300  145.7430 C   0  0  0  0  0  3  0  0  0  0  0  0
  183.1010  177.1000  136.9310 O   0  0  0  0  0  0  0  0  0  0  0  0
  183.3570  175.7950  136.5120 C   0  0  0  0  0  0  0  0  0  0  0  0
  183.6670  175.5850  135.3090 O   0  0  0  0  0  0  0  0  0  0  0  0
  183.2760  174.7360  137.4190 O   0  0  0  0  0  0  0  0  0  0  0  0
  184.3670  173.8590  137.6470 C   0  0  0  0  0  1  0  0  0  0  0  0
  1  3  1  0  0  0  0
  1  8  2  0  0  0  0
  2  7  1  0  0  0  0
  2  4  1  0  0  0  0
  3  5  1  1  0  0  0
  4  6  1  1  0  0  0
  4  1  1  0  0  0  0
  5 12  1  0  0  0  0
  6  9  1  0  0  0  0
  7 33  1  6  0  0  0
  7 11  1  0  0  0  0
  8 13  1  0  0  0  0
  9 10  1  0  0  0  0
 10  8  1  0  0  0  0
 11 21  1  6  0  0  0
 11  3  1  0  0  0  0
 12 27  1  1  0  0  0
 13 12  1  0  0  0  0
 15 17  1  0  0  0  0
 15 14  1  0  0  0  0
 16 18  1  0  0  0  0
 17 25  1  6  0  0  0
 17 16  1  0  0  0  0
 19 18  1  0  0  0  0
 19 21  1  0  0  0  0
 19 23  1  1  0  0  0
 20 16  1  0  0  0  0
 21 14  1  6  0  0  0
 22 23  1  0  0  0  0
 24 25  1  0  0  0  0
 26 32  1  0  0  0  0
 27 26  2  0  0  0  0
 27 28  1  0  0  0  0
 28 31  2  0  0  0  0
 31 30  1  0  0  0  0
 31 29  1  0  0  0  0
 32 30  2  0  0  0  0
 34 33  1  0  0  0  0
 34 36  1  0  0  0  0
 35 34  2  0  0  0  0
 36 37  1  0  0  0  0
M  END
>  <MODEL>
1

>  <REMARK>
 VINA RESULT:      -7.7      0.000      0.000
  Name = 
  7 active torsions:
  status: ('A' for Active; 'I' for Inactive)
    1  A    between atoms: O_3  and  C_21
    2  A    between atoms: C_6  and  C_31
    3  A    between atoms: C_17  and  C_23
    4  A    between atoms: C_20  and  O_25
    5  A    between atoms: C_21  and  O_25
    6  A    between atoms: C_27  and  C_33
    7  A    between atoms: C_29  and  C_36
                            x       y       z     vdW  Elec       q    Type
                         _______ _______ _______ _____ _____    ______ ____

>  <TORSDO>
F 7

$$$$
=
 OpenBabel11052415183D

 37 41  0  0  1  0  0  0  0  0999 V2000
  185.0130  178.2410  143.7870 C   0  0  0  0  0  0  0  0  0  0  0  0
  182.9250  179.3960  143.6380 O   0  0  0  0  0  0  0  0  0  0  0  0
  184.9720  177.8410  142.3270 C   0  0  2  0  0  3  0  0  0  0  0  0
  183.6660  178.5080  144.4360 C   0  0  2  0  0  3  0  0  0  0  0  0
  186.3170  178.0520  141.6410 C   0  0  0  0  0  2  0  0  0  0  0  0
  183.7860  179.0860  145.8440 C   0  0  0  0  0  2  0  0  0  0  0  0
  182.5930  178.7100  142.4550 C   0  0  2  0  0  3  0  0  0  0  0  0
  186.1570  178.1360  144.5150 C   0  0  0  0  0  0  0  0  0  0  0  0
  184.8190  178.3050  146.6370 C   0  0  0  0  0  2  0  0  0  0  0  0
  186.1830  178.4840  145.9810 C   0  0  0  0  0  2  0  0  0  0  0  0
  183.8460  178.5580  141.5650 C   0  0  2  0  0  3  0  0  0  0  0  0
  187.3890  177.3330  142.4470 C   0  0  2  0  0  3  0  0  0  0  0  0
  187.4970  177.9380  143.8470 C   0  0  0  0  0  2  0  0  0  0  0  0
  182.5760  176.6640  140.3970 C   0  0  0  0  0  2  0  0  0  0  0  0
  181.1330  177.0470  140.1100 C   0  0  0  0  0  2  0  0  0  0  0  0
  181.2940  177.9810  137.7870 N   0  0  0  0  0  0  0  0  0  0  0  0
  180.8530  176.8500  138.6200 C   0  0  2  0  0  3  0  0  0  0  0  0
  182.7560  178.1300  137.8160 C   0  0  0  0  0  2  0  0  0  0  0  0
  183.2760  178.8160  139.0900 C   0  0  1  0  0  3  0  0  0  0  0  0
  180.6180  179.2310  138.1430 C   0  0  0  0  0  1  0  0  0  0  0  0
  183.5630  177.8330  140.2360 C   0  0  1  0  0  3  0  0  0  0  0  0
  185.6190  178.6720  138.2470 C   0  0  0  0  0  1  0  0  0  0  0  0
  184.5370  179.6020  138.7630 C   0  0  0  0  0  2  0  0  0  0  0  0
  178.9320  175.3830  139.2530 C   0  0  0  0  0  1  0  0  0  0  0  0
  179.3830  176.5310  138.3710 C   0  0  0  0  0  2  0  0  0  0  0  0
  189.8860  177.3430  142.4990 C   0  0  0  0  0  3  0  0  0  0  0  0
  188.7080  177.3720  141.7430 C   0  0  0  0  0  0  0  0  0  0  0  0
  188.7840  177.4350  140.3430 C   0  0  0  0  0  3  0  0  0  0  0  0
  190.1050  177.5370  138.2250 C   0  0  0  0  0  1  0  0  0  0  0  0
  191.2020  177.4400  140.4680 C   0  0  0  0  0  3  0  0  0  0  0  0
  190.0290  177.4690  139.7080 C   0  0  0  0  0  0  0  0  0  0  0  0
  191.1300  177.3770  141.8630 C   0  0  0  0  0  3  0  0  0  0  0  0
  181.5820  179.4320  141.7660 O   0  0  0  0  0  0  0  0  0  0  0  0
  180.3490  179.7120  142.3540 C   0  0  0  0  0  0  0  0  0  0  0  0
  179.8820  180.8790  142.2790 O   0  0  0  0  0  0  0  0  0  0  0  0
  179.6390  178.7050  143.0130 O   0  0  0  0  0  0  0  0  0  0  0  0
  179.4260  178.7310  144.4150 C   0  0  0  0  0  1  0  0  0  0  0  0
  1  4  1  0  0  0  0
  1  8  2  0  0  0  0
  2  4  1  0  0  0  0
  3  5  1  6  0  0  0
  3  1  1  0  0  0  0
  4  6  1  1  0  0  0
  5 12  1  0  0  0  0
  6  9  1  0  0  0  0
  7 33  1  6  0  0  0
  7  2  1  0  0  0  0
  8 10  1  0  0  0  0
 10  9  1  0  0  0  0
 11 21  1  6  0  0  0
 11  3  1  0  0  0  0
 11  7  1  0  0  0  0
 12 27  1  6  0  0  0
 12 13  1  0  0  0  0
 13  8  1  0  0  0  0
 15 14  1  0  0  0  0
 16 18  1  0  0  0  0
 16 20  1  0  0  0  0
 16 17  1  0  0  0  0
 17 25  1  1  0  0  0
 17 15  1  0  0  0  0
 18 19  1  0  0  0  0
 19 23  1  6  0  0  0
 19 21  1  0  0  0  0
 21 14  1  1  0  0  0
 22 23  1  0  0  0  0
 25 24  1  0  0  0  0
 27 26  2  0  0  0  0
 28 27  1  0  0  0  0
 29 31  1  0  0  0  0
 30 32  2  0  0  0  0
 31 28  2  0  0  0  0
 31 30  1  0  0  0  0
 32 26  1  0  0  0  0
 33 34  1  0  0  0  0
 34 36  1  0  0  0  0
 35 34  2  0  0  0  0
 36 37  1  0  0  0  0
M  END
>  <MODEL>
2

>  <REMARK>
 VINA RESULT:      -7.7      2.811      5.936
  Name = 
  7 active torsions:
  status: ('A' for Active; 'I' for Inactive)
    1  A    between atoms: O_3  and  C_21
    2  A    between atoms: C_6  and  C_31
    3  A    between atoms: C_17  and  C_23
    4  A    between atoms: C_20  and  O_25
    5  A    between atoms: C_21  and  O_25
    6  A    between atoms: C_27  and  C_33
    7  A    between atoms: C_29  and  C_36
                            x       y       z     vdW  Elec       q    Type
                         _______ _______ _______ _____ _____    ______ ____

>  <TORSDO>
F 7

$$$$
=
 OpenBabel11052415183D

 37 41  0  0  1  0  0  0  0  0999 V2000
  187.1540  178.1680  140.2950 C   0  0  0  0  0  0  0  0  0  0  0  0
  189.1110  178.5450  141.6160 O   0  0  0  0  0  0  0  0  0  0  0  0
  186.2770  178.0130  141.5200 C   0  0  2  0  0  3  0  0  0  0  0  0
  188.6270  177.8510  140.4940 C   0  0  2  0  0  3  0  0  0  0  0  0
  184.9650  178.7770  141.3800 C   0  0  0  0  0  2  0  0  0  0  0  0
  189.4830  178.2060  139.2820 C   0  0  0  0  0  2  0  0  0  0  0  0
  188.4940  177.9820  142.7490 C   0  0  2  0  0  3  0  0  0  0  0  0
  186.6160  178.3480  139.0600 C   0  0  0  0  0  0  0  0  0  0  0  0
  188.8110  177.7120  138.0120 C   0  0  0  0  0  2  0  0  0  0  0  0
  187.4890  178.4480  137.8350 C   0  0  0  0  0  2  0  0  0  0  0  0
  187.0120  178.4110  142.8090 C   0  0  2  0  0  3  0  0  0  0  0  0
  184.2930  178.3520  140.0820 C   0  0  2  0  0  3  0  0  0  0  0  0
  185.1650  178.7280  138.8840 C   0  0  0  0  0  2  0  0  0  0  0  0
  187.1370  176.9000  144.8750 C   0  0  0  0  0  2  0  0  0  0  0  0
  187.8410  177.5880  146.0330 C   0  0  0  0  0  2  0  0  0  0  0  0
  185.9200  178.6270  147.2680 N   0  0  0  0  0  0  0  0  0  0  0  0
  186.9290  177.5560  147.2600 C   0  0  2  0  0  3  0  0  0  0  0  0
  184.9650  178.4720  146.1610 C   0  0  0  0  0  2  0  0  0  0  0  0
  185.5150  178.9490  144.8070 C   0  0  1  0  0  3  0  0  0  0  0  0
  186.5230  179.9610  147.2750 C   0  0  0  0  0  1  0  0  0  0  0  0
  186.2670  177.8520  144.0360 C   0  0  1  0  0  3  0  0  0  0  0  0
  183.0460  178.9440  144.4570 C   0  0  0  0  0  1  0  0  0  0  0  0
  184.3730  179.4820  143.9540 C   0  0  0  0  0  2  0  0  0  0  0  0
  189.1970  177.8560  148.2630 C   0  0  0  0  0  1  0  0  0  0  0  0
  187.7380  177.5610  148.5520 C   0  0  0  0  0  2  0  0  0  0  0  0
  181.9600  178.6410  140.9240 C   0  0  0  0  0  3  0  0  0  0  0  0
  182.9280  178.9510  139.9620 C   0  0  0  0  0  0  0  0  0  0  0  0
  182.6030  179.8160  138.9050 C   0  0  0  0  0  3  0  0  0  0  0  0
  180.9800  181.2790  137.6940 C   0  0  0  0  0  1  0  0  0  0  0  0
  180.3580  180.0510  139.7790 C   0  0  0  0  0  3  0  0  0  0  0  0
  181.3200  180.3630  138.8150 C   0  0  0  0  0  0  0  0  0  0  0  0
  180.6770  179.1900  140.8330 C   0  0  0  0  0  3  0  0  0  0  0  0
  189.1810  178.4140  143.9150 O   0  0  0  0  0  0  0  0  0  0  0  0
  190.5690  178.5490  143.9420 C   0  0  0  0  0  0  0  0  0  0  0  0
  191.0750  179.7020  143.9160 O   0  0  0  0  0  0  0  0  0  0  0  0
  191.3860  177.4170  144.0040 O   0  0  0  0  0  0  0  0  0  0  0  0
  191.5110  176.6470  145.1890 C   0  0  0  0  0  1  0  0  0  0  0  0
  1  4  1  0  0  0  0
  1  3  1  0  0  0  0
  2  7  1  0  0  0  0
  3  5  1  6  0  0  0
  3 11  1  0  0  0  0
  4  6  1  6  0  0  0
  4  2  1  0  0  0  0
  7 11  1  0  0  0  0
  7 33  1  1  0  0  0
  8  1  2  0  0  0  0
  9  6  1  0  0  0  0
 10  9  1  0  0  0  0
 10  8  1  0  0  0  0
 11 21  1  1  0  0  0
 12 27  1  6  0  0  0
 12  5  1  0  0  0  0
 13  8  1  0  0  0  0
 13 12  1  0  0  0  0
 14 15  1  0  0  0  0
 15 17  1  0  0  0  0
 16 20  1  0  0  0  0
 17 16  1  0  0  0  0
 17 25  1  1  0  0  0
 18 16  1  0  0  0  0
 19 23  1  6  0  0  0
 19 18  1  0  0  0  0
 21 19  1  0  0  0  0
 21 14  1  1  0  0  0
 23 22  1  0  0  0  0
 24 25  1  0  0  0  0
 27 26  2  0  0  0  0
 28 27  1  0  0  0  0
 29 31  1  0  0  0  0
 30 32  2  0  0  0  0
 31 28  2  0  0  0  0
 31 30  1  0  0  0  0
 32 26  1  0  0  0  0
 33 34  1  0  0  0  0
 34 36  1  0  0  0  0
 35 34  2  0  0  0  0
 36 37  1  0  0  0  0
M  END
>  <MODEL>
3

>  <REMARK>
 VINA RESULT:      -7.3      3.652      8.223
  Name = 
  7 active torsions:
  status: ('A' for Active; 'I' for Inactive)
    1  A    between atoms: O_3  and  C_21
    2  A    between atoms: C_6  and  C_31
    3  A    between atoms: C_17  and  C_23
    4  A    between atoms: C_20  and  O_25
    5  A    between atoms: C_21  and  O_25
    6  A    between atoms: C_27  and  C_33
    7  A    between atoms: C_29  and  C_36
                            x       y       z     vdW  Elec       q    Type
                         _______ _______ _______ _____ _____    ______ ____

>  <TORSDO>
F 7

$$$$
=
 OpenBabel11052415183D

 37 41  0  0  1  0  0  0  0  0999 V2000
  181.4640  179.0590  141.3270 C   0  0  0  0  0  0  0  0  0  0  0  0
  180.9660  179.6530  139.0660 O   0  0  0  0  0  0  0  0  0  0  0  0
  182.6090  178.1600  140.9080 C   0  0  2  0  0  3  0  0  0  0  0  0
  180.3800  179.2750  140.2850 C   0  0  2  0  0  3  0  0  0  0  0  0
  183.8420  178.3670  141.7800 C   0  0  0  0  0  2  0  0  0  0  0  0
  179.3590  180.3320  140.6960 C   0  0  0  0  0  2  0  0  0  0  0  0
  181.6740  178.5370  138.5820 C   0  0  2  0  0  3  0  0  0  0  0  0
  181.3090  179.4470  142.6200 C   0  0  0  0  0  0  0  0  0  0  0  0
  178.9310  180.1060  142.1360 C   0  0  0  0  0  2  0  0  0  0  0  0
  180.1390  180.2970  143.0450 C   0  0  0  0  0  2  0  0  0  0  0  0
  182.9530  178.3220  139.4190 C   0  0  2  0  0  3  0  0  0  0  0  0
  183.4370  178.2100  143.2390 C   0  0  2  0  0  3  0  0  0  0  0  0
  182.4230  179.2860  143.6270 C   0  0  0  0  0  2  0  0  0  0  0  0
  183.0020  175.8110  138.9100 C   0  0  0  0  0  2  0  0  0  0  0  0
  182.3980  175.5010  137.5500 C   0  0  0  0  0  2  0  0  0  0  0  0
  184.4160  175.5470  136.0610 N   0  0  0  0  0  0  0  0  0  0  0  0
  183.4100  174.7040  136.7260 C   0  0  2  0  0  3  0  0  0  0  0  0
  185.2750  176.2310  137.0390 C   0  0  0  0  0  2  0  0  0  0  0  0
  184.6120  177.4620  137.6800 C   0  0  1  0  0  3  0  0  0  0  0  0
  183.8150  176.4930  135.1190 C   0  0  0  0  0  1  0  0  0  0  0  0
  183.7980  177.1260  138.9400 C   0  0  1  0  0  3  0  0  0  0  0  0
  187.0450  177.8350  138.0830 C   0  0  0  0  0  1  0  0  0  0  0  0
  185.6790  178.4920  138.0190 C   0  0  0  0  0  2  0  0  0  0  0  0
  183.3150  172.4030  135.7580 C   0  0  0  0  0  1  0  0  0  0  0  0
  182.7120  173.7940  135.7220 C   0  0  0  0  0  2  0  0  0  0  0  0
  184.5100  178.8190  145.4090 C   0  0  0  0  0  3  0  0  0  0  0  0
  184.6310  178.2480  144.1370 C   0  0  0  0  0  0  0  0  0  0  0  0
  185.8670  177.7220  143.7280 C   0  0  0  0  0  3  0  0  0  0  0  0
  188.2750  177.2100  144.1490 C   0  0  0  0  0  1  0  0  0  0  0  0
  186.8420  178.3400  145.8560 C   0  0  0  0  0  3  0  0  0  0  0  0
  186.9690  177.7690  144.5870 C   0  0  0  0  0  0  0  0  0  0  0  0
  185.6130  178.8650  146.2670 C   0  0  0  0  0  3  0  0  0  0  0  0
  182.0060  178.7520  137.2180 O   0  0  0  0  0  0  0  0  0  0  0  0
  181.0530  179.1620  136.2850 C   0  0  0  0  0  0  0  0  0  0  0  0
  180.3180  178.2990  135.7370 O   0  0  0  0  0  0  0  0  0  0  0  0
  180.9140  180.5160  135.9700 O   0  0  0  0  0  0  0  0  0  0  0  0
  180.6070  180.9530  134.6560 C   0  0  0  0  0  1  0  0  0  0  0  0
  1  8  2  0  0  0  0
  2  4  1  0  0  0  0
  3  1  1  0  0  0  0
  3  5  1  1  0  0  0
  4  6  1  1  0  0  0
  4  1  1  0  0  0  0
  5 12  1  0  0  0  0
  6  9  1  0  0  0  0
  7 33  1  6  0  0  0
  7  2  1  0  0  0  0
  7 11  1  0  0  0  0
  8 10  1  0  0  0  0
  8 13  1  0  0  0  0
  9 10  1  0  0  0  0
 11 21  1  6  0  0  0
 11  3  1  0  0  0  0
 12 13  1  0  0  0  0
 12 27  1  1  0  0  0
 15 14  1  0  0  0  0
 16 17  1  0  0  0  0
 16 18  1  0  0  0  0
 17 25  1  6  0  0  0
 17 15  1  0  0  0  0
 18 19  1  0  0  0  0
 19 23  1  1  0  0  0
 19 21  1  0  0  0  0
 20 16  1  0  0  0  0
 21 14  1  6  0  0  0
 23 22  1  0  0  0  0
 25 24  1  0  0  0  0
 26 32  1  0  0  0  0
 27 26  2  0  0  0  0
 28 27  1  0  0  0  0
 28 31  2  0  0  0  0
 29 31  1  0  0  0  0
 30 32  2  0  0  0  0
 31 30  1  0  0  0  0
 34 33  1  0  0  0  0
 35 34  2  0  0  0  0
 36 34  1  0  0  0  0
 37 36  1  0  0  0  0
M  END
>  <MODEL>
4

>  <REMARK>
 VINA RESULT:      -7.1      2.333      5.394
  Name = 
  7 active torsions:
  status: ('A' for Active; 'I' for Inactive)
    1  A    between atoms: O_3  and  C_21
    2  A    between atoms: C_6  and  C_31
    3  A    between atoms: C_17  and  C_23
    4  A    between atoms: C_20  and  O_25
    5  A    between atoms: C_21  and  O_25
    6  A    between atoms: C_27  and  C_33
    7  A    between atoms: C_29  and  C_36
                            x       y       z     vdW  Elec       q    Type
                         _______ _______ _______ _____ _____    ______ ____

>  <TORSDO>
F 7

$$$$
=
 OpenBabel11052415183D

 37 41  0  0  1  0  0  0  0  0999 V2000
  185.9250  178.3000  144.5890 C   0  0  0  0  0  0  0  0  0  0  0  0
  187.9470  177.1240  144.0970 O   0  0  0  0  0  0  0  0  0  0  0  0
  185.7070  178.6680  143.1360 C   0  0  2  0  0  3  0  0  0  0  0  0
  187.3650  178.0360  144.9940 C   0  0  2  0  0  3  0  0  0  0  0  0
  184.2590  178.4540  142.7070 C   0  0  0  0  0  2  0  0  0  0  0  0
  187.4960  177.4900  146.4130 C   0  0  0  0  0  2  0  0  0  0  0  0
  188.0650  177.7800  142.8580 C   0  0  2  0  0  3  0  0  0  0  0  0
  184.9300  178.4320  145.5070 C   0  0  0  0  0  0  0  0  0  0  0  0
  186.6250  178.2980  147.3600 C   0  0  0  0  0  2  0  0  0  0  0  0
  185.1650  178.1170  146.9620 C   0  0  0  0  0  2  0  0  0  0  0  0
  186.6750  177.9240  142.2030 C   0  0  2  0  0  3  0  0  0  0  0  0
  183.3520  179.2000  143.6740 C   0  0  2  0  0  3  0  0  0  0  0  0
  183.4940  178.6280  145.0850 C   0  0  0  0  0  2  0  0  0  0  0  0
  188.1470  179.0030  140.4050 C   0  0  0  0  0  2  0  0  0  0  0  0
  188.8210  177.9600  139.5290 C   0  0  0  0  0  2  0  0  0  0  0  0
  187.1850  177.7300  137.6400 N   0  0  0  0  0  0  0  0  0  0  0  0
  188.4940  178.2540  138.0640 C   0  0  2  0  0  3  0  0  0  0  0  0
  186.0850  178.4000  138.3480 C   0  0  0  0  0  2  0  0  0  0  0  0
  185.8720  177.8780  139.7790 C   0  0  1  0  0  3  0  0  0  0  0  0
  187.1000  176.2740  137.7670 C   0  0  0  0  0  1  0  0  0  0  0  0
  186.7200  178.6170  140.8280 C   0  0  1  0  0  3  0  0  0  0  0  0
  183.6100  178.5630  138.9840 C   0  0  0  0  0  1  0  0  0  0  0  0
  184.3990  177.9860  140.1440 C   0  0  0  0  0  2  0  0  0  0  0  0
  190.6620  177.0190  137.9310 C   0  0  0  0  0  1  0  0  0  0  0  0
  189.6020  177.7620  137.1400 C   0  0  0  0  0  2  0  0  0  0  0  0
  180.9200  178.8950  144.1530 C   0  0  0  0  0  3  0  0  0  0  0  0
  181.9290  179.1580  143.2180 C   0  0  0  0  0  0  0  0  0  0  0  0
  181.5880  179.3780  141.8740 C   0  0  0  0  0  3  0  0  0  0  0  0
  179.8940  179.5670  140.0490 C   0  0  0  0  0  1  0  0  0  0  0  0
  179.2470  179.0710  142.4110 C   0  0  0  0  0  3  0  0  0  0  0  0
  180.2500  179.3340  141.4730 C   0  0  0  0  0  0  0  0  0  0  0  0
  179.5820  178.8510  143.7500 C   0  0  0  0  0  3  0  0  0  0  0  0
  188.9340  177.0330  142.0170 O   0  0  0  0  0  0  0  0  0  0  0  0
  190.1350  176.5040  142.4860 C   0  0  0  0  0  0  0  0  0  0  0  0
  190.1800  175.2940  142.8340 O   0  0  0  0  0  0  0  0  0  0  0  0
  191.2760  177.3070  142.5630 O   0  0  0  0  0  0  0  0  0  0  0  0
  191.6800  177.9220  143.7760 C   0  0  0  0  0  1  0  0  0  0  0  0
  1  4  1  0  0  0  0
  1  8  2  0  0  0  0
  2  4  1  0  0  0  0
  3  5  1  6  0  0  0
  3  1  1  0  0  0  0
  4  6  1  1  0  0  0
  5 12  1  0  0  0  0
  6  9  1  0  0  0  0
  7 33  1  6  0  0  0
  7  2  1  0  0  0  0
  8 10  1  0  0  0  0
 10  9  1  0  0  0  0
 11 21  1  6  0  0  0
 11  7  1  0  0  0  0
 11  3  1  0  0  0  0
 12 27  1  6  0  0  0
 12 13  1  0  0  0  0
 13  8  1  0  0  0  0
 15 14  1  0  0  0  0
 16 20  1  0  0  0  0
 16 17  1  0  0  0  0
 16 18  1  0  0  0  0
 17 25  1  6  0  0  0
 17 15  1  0  0  0  0
 18 19  1  0  0  0  0
 19 23  1  1  0  0  0
 19 21  1  0  0  0  0
 21 14  1  6  0  0  0
 22 23  1  0  0  0  0
 25 24  1  0  0  0  0
 27 26  2  0  0  0  0
 28 27  1  0  0  0  0
 29 31  1  0  0  0  0
 30 32  2  0  0  0  0
 31 28  2  0  0  0  0
 31 30  1  0  0  0  0
 32 26  1  0  0  0  0
 33 34  1  0  0  0  0
 34 36  1  0  0  0  0
 34 35  2  0  0  0  0
 36 37  1  0  0  0  0
M  END
>  <MODEL>
5

>  <REMARK>
 VINA RESULT:      -6.9      3.463      7.138
  Name = 
  7 active torsions:
  status: ('A' for Active; 'I' for Inactive)
    1  A    between atoms: O_3  and  C_21
    2  A    between atoms: C_6  and  C_31
    3  A    between atoms: C_17  and  C_23
    4  A    between atoms: C_20  and  O_25
    5  A    between atoms: C_21  and  O_25
    6  A    between atoms: C_27  and  C_33
    7  A    between atoms: C_29  and  C_36
                            x       y       z     vdW  Elec       q    Type
                         _______ _______ _______ _____ _____    ______ ____

>  <TORSDO>
F 7

$$$$
=
 OpenBabel11052415183D

 37 41  0  0  1  0  0  0  0  0999 V2000
  189.1890  177.5090  142.9340 C   0  0  0  0  0  0  0  0  0  0  0  0
  190.6660  176.3020  141.4930 O   0  0  0  0  0  0  0  0  0  0  0  0
  188.4000  178.0670  141.7670 C   0  0  2  0  0  3  0  0  0  0  0  0
  190.6270  177.1220  142.6330 C   0  0  2  0  0  3  0  0  0  0  0  0
  186.8970  177.9840  142.0050 C   0  0  0  0  0  2  0  0  0  0  0  0
  191.3040  176.3960  143.7920 C   0  0  0  0  0  2  0  0  0  0  0  0
  190.3010  177.1020  140.3940 C   0  0  2  0  0  3  0  0  0  0  0  0
  188.7100  177.5750  144.2040 C   0  0  0  0  0  0  0  0  0  0  0  0
  191.0180  177.1220  145.0950 C   0  0  0  0  0  2  0  0  0  0  0  0
  189.5200  177.0680  145.3700 C   0  0  0  0  0  2  0  0  0  0  0  0
  188.7860  177.3980  140.4390 C   0  0  2  0  0  3  0  0  0  0  0  0
  186.5800  178.6480  143.3380 C   0  0  2  0  0  3  0  0  0  0  0  0
  187.2610  177.8960  144.4820 C   0  0  0  0  0  2  0  0  0  0  0  0
  189.4280  178.5940  138.2660 C   0  0  0  0  0  2  0  0  0  0  0  0
  189.5180  177.6280  137.0960 C   0  0  0  0  0  2  0  0  0  0  0  0
  187.2020  177.7510  136.1400 N   0  0  0  0  0  0  0  0  0  0  0  0
  188.6140  178.1270  135.9680 C   0  0  2  0  0  3  0  0  0  0  0  0
  186.6150  178.3980  137.3220 C   0  0  0  0  0  2  0  0  0  0  0  0
  186.9960  177.7150  138.6460 C   0  0  1  0  0  3  0  0  0  0  0  0
  187.0110  176.3000  136.1700 C   0  0  0  0  0  1  0  0  0  0  0  0
  188.3000  178.2550  139.2550 C   0  0  1  0  0  3  0  0  0  0  0  0
  184.6750  178.5590  138.9890 C   0  0  0  0  0  1  0  0  0  0  0  0
  185.8600  177.8750  139.6450 C   0  0  0  0  0  2  0  0  0  0  0  0
  190.3250  176.7570  134.7670 C   0  0  0  0  0  1  0  0  0  0  0  0
  189.1340  177.6820  134.6050 C   0  0  0  0  0  2  0  0  0  0  0  0
  184.6160  178.9170  144.8570 C   0  0  0  0  0  3  0  0  0  0  0  0
  185.1040  178.7360  143.5570 C   0  0  0  0  0  0  0  0  0  0  0  0
  184.2010  178.6440  142.4850 C   0  0  0  0  0  3  0  0  0  0  0  0
  181.8740  178.6310  141.5790 C   0  0  0  0  0  1  0  0  0  0  0  0
  182.3450  178.9100  144.0160 C   0  0  0  0  0  3  0  0  0  0  0  0
  182.8260  178.7300  142.7160 C   0  0  0  0  0  0  0  0  0  0  0  0
  183.2400  179.0030  145.0860 C   0  0  0  0  0  3  0  0  0  0  0  0
  190.6380  176.4230  139.1920 O   0  0  0  0  0  0  0  0  0  0  0  0
  191.9620  176.2560  138.7890 C   0  0  0  0  0  0  0  0  0  0  0  0
  192.8480  177.0200  139.2560 O   0  0  0  0  0  0  0  0  0  0  0  0
  192.3000  175.2470  137.8840 O   0  0  0  0  0  0  0  0  0  0  0  0
  191.3310  174.3540  137.3600 C   0  0  0  0  0  1  0  0  0  0  0  0
  1  8  2  0  0  0  0
  2  4  1  0  0  0  0
  3  5  1  1  0  0  0
  3  1  1  0  0  0  0
  4  1  1  0  0  0  0
  4  6  1  1  0  0  0
  5 12  1  0  0  0  0
  6  9  1  0  0  0  0
  7 33  1  6  0  0  0
  7 11  1  0  0  0  0
  7  2  1  0  0  0  0
  8 13  1  0  0  0  0
  8 10  1  0  0  0  0
  9 10  1  0  0  0  0
 11 21  1  6  0  0  0
 11  3  1  0  0  0  0
 12 27  1  1  0  0  0
 12 13  1  0  0  0  0
 15 14  1  0  0  0  0
 16 20  1  0  0  0  0
 16 18  1  0  0  0  0
 17 25  1  6  0  0  0
 17 16  1  0  0  0  0
 17 15  1  0  0  0  0
 18 19  1  0  0  0  0
 19 21  1  0  0  0  0
 19 23  1  1  0  0  0
 21 14  1  6  0  0  0
 22 23  1  0  0  0  0
 25 24  1  0  0  0  0
 26 32  1  0  0  0  0
 27 26  2  0  0  0  0
 28 31  2  0  0  0  0
 28 27  1  0  0  0  0
 29 31  1  0  0  0  0
 30 32  2  0  0  0  0
 31 30  1  0  0  0  0
 34 33  1  0  0  0  0
 34 35  2  0  0  0  0
 36 34  1  0  0  0  0
 37 36  1  0  0  0  0
M  END
>  <MODEL>
6

>  <REMARK>
 VINA RESULT:      -6.7      3.835      6.561
  Name = 
  7 active torsions:
  status: ('A' for Active; 'I' for Inactive)
    1  A    between atoms: O_3  and  C_21
    2  A    between atoms: C_6  and  C_31
    3  A    between atoms: C_17  and  C_23
    4  A    between atoms: C_20  and  O_25
    5  A    between atoms: C_21  and  O_25
    6  A    between atoms: C_27  and  C_33
    7  A    between atoms: C_29  and  C_36
                            x       y       z     vdW  Elec       q    Type
                         _______ _______ _______ _____ _____    ______ ____

>  <TORSDO>
F 7

$$$$
=
 OpenBabel11052415183D

 37 41  0  0  1  0  0  0  0  0999 V2000
  188.4400  177.7730  139.8970 C   0  0  0  0  0  0  0  0  0  0  0  0
  187.1550  177.2480  137.9500 O   0  0  0  0  0  0  0  0  0  0  0  0
  187.2390  178.3540  140.6140 C   0  0  2  0  0  3  0  0  0  0  0  0
  188.3760  177.7950  138.3790 C   0  0  2  0  0  3  0  0  0  0  0  0
  187.1570  177.8820  142.0610 C   0  0  0  0  0  2  0  0  0  0  0  0
  189.5220  177.0290  137.7220 C   0  0  0  0  0  2  0  0  0  0  0  0
  186.1410  178.1450  138.3380 C   0  0  2  0  0  3  0  0  0  0  0  0
  189.5840  177.4730  140.5660 C   0  0  0  0  0  0  0  0  0  0  0  0
  190.8370  177.3960  138.3870 C   0  0  0  0  0  2  0  0  0  0  0  0
  190.7960  176.9450  139.8420 C   0  0  0  0  0  2  0  0  0  0  0  0
  185.9280  178.0690  139.8650 C   0  0  2  0  0  3  0  0  0  0  0  0
  188.4850  178.1770  142.7430 C   0  0  2  0  0  3  0  0  0  0  0  0
  189.6130  177.3910  142.0740 C   0  0  0  0  0  2  0  0  0  0  0  0
  184.2160  179.8740  139.2490 C   0  0  0  0  0  2  0  0  0  0  0  0
  182.9660  179.2740  138.6260 C   0  0  0  0  0  2  0  0  0  0  0  0
  181.4850  178.9640  140.6280 N   0  0  0  0  0  0  0  0  0  0  0  0
  181.7420  179.7500  139.4110 C   0  0  2  0  0  3  0  0  0  0  0  0
  182.5690  179.1230  141.6080 C   0  0  0  0  0  2  0  0  0  0  0  0
  183.8150  178.2830  141.2840 C   0  0  1  0  0  3  0  0  0  0  0  0
  181.2270  177.5530  140.3350 C   0  0  0  0  0  1  0  0  0  0  0  0
  184.8160  179.0090  140.3700 C   0  0  1  0  0  3  0  0  0  0  0  0
  183.9060  178.6310  143.7520 C   0  0  0  0  0  1  0  0  0  0  0  0
  184.5040  177.8780  142.5780 C   0  0  0  0  0  2  0  0  0  0  0  0
  180.8940  180.0370  137.0780 C   0  0  0  0  0  1  0  0  0  0  0  0
  180.5030  179.8030  138.5250 C   0  0  0  0  0  2  0  0  0  0  0  0
  187.1810  177.9470  144.8600 C   0  0  0  0  0  3  0  0  0  0  0  0
  188.4170  177.8780  144.2060 C   0  0  0  0  0  0  0  0  0  0  0  0
  189.5660  177.5280  144.9330 C   0  0  0  0  0  3  0  0  0  0  0  0
  190.6950  176.8830  147.0650 C   0  0  0  0  0  1  0  0  0  0  0  0
  188.2390  177.3230  146.9470 C   0  0  0  0  0  3  0  0  0  0  0  0
  189.4750  177.2520  146.3000 C   0  0  0  0  0  0  0  0  0  0  0  0
  187.0920  177.6710  146.2270 C   0  0  0  0  0  3  0  0  0  0  0  0
  184.9410  177.8140  137.6540 O   0  0  0  0  0  0  0  0  0  0  0  0
  184.9240  176.9010  136.5990 C   0  0  0  0  0  0  0  0  0  0  0  0
  185.3720  177.2520  135.4760 O   0  0  0  0  0  0  0  0  0  0  0  0
  184.4210  175.6120  136.7920 O   0  0  0  0  0  0  0  0  0  0  0  0
  183.7060  175.2530  137.9640 C   0  0  0  0  0  1  0  0  0  0  0  0
  1  8  2  0  0  0  0
  1  3  1  0  0  0  0
  2  7  1  0  0  0  0
  2  4  1  0  0  0  0
  3  5  1  1  0  0  0
  4  6  1  6  0  0  0
  4  1  1  0  0  0  0
  5 12  1  0  0  0  0
  6  9  1  0  0  0  0
  7 33  1  6  0  0  0
  7 11  1  0  0  0  0
  8 13  1  0  0  0  0
  9 10  1  0  0  0  0
 10  8  1  0  0  0  0
 11 21  1  1  0  0  0
 11  3  1  0  0  0  0
 12 27  1  1  0  0  0
 13 12  1  0  0  0  0
 15 14  1  0  0  0  0
 15 17  1  0  0  0  0
 16 18  1  0  0  0  0
 17 25  1  6  0  0  0
 17 16  1  0  0  0  0
 19 18  1  0  0  0  0
 19 23  1  1  0  0  0
 20 16  1  0  0  0  0
 21 14  1  6  0  0  0
 21 19  1  0  0  0  0
 23 22  1  0  0  0  0
 24 25  1  0  0  0  0
 26 32  1  0  0  0  0
 27 26  2  0  0  0  0
 27 28  1  0  0  0  0
 28 31  2  0  0  0  0
 31 30  1  0  0  0  0
 31 29  1  0  0  0  0
 32 30  2  0  0  0  0
 34 36  1  0  0  0  0
 34 33  1  0  0  0  0
 35 34  2  0  0  0  0
 36 37  1  0  0  0  0
M  END
>  <MODEL>
7

>  <REMARK>
 VINA RESULT:      -6.7      1.688      3.014
  Name = 
  7 active torsions:
  status: ('A' for Active; 'I' for Inactive)
    1  A    between atoms: O_3  and  C_21
    2  A    between atoms: C_6  and  C_31
    3  A    between atoms: C_17  and  C_23
    4  A    between atoms: C_20  and  O_25
    5  A    between atoms: C_21  and  O_25
    6  A    between atoms: C_27  and  C_33
    7  A    between atoms: C_29  and  C_36
                            x       y       z     vdW  Elec       q    Type
                         _______ _______ _______ _____ _____    ______ ____

>  <TORSDO>
F 7

$$$$
=
 OpenBabel11052415183D

 37 41  0  0  1  0  0  0  0  0999 V2000
  186.6140  178.1040  141.7730 C   0  0  0  0  0  0  0  0  0  0  0  0
  187.2310  178.8830  139.5990 O   0  0  0  0  0  0  0  0  0  0  0  0
  187.9720  177.4740  142.0060 C   0  0  2  0  0  3  0  0  0  0  0  0
  186.1990  178.2590  140.3190 C   0  0  2  0  0  3  0  0  0  0  0  0
  188.5070  177.7780  143.4000 C   0  0  0  0  0  2  0  0  0  0  0  0
  184.9150  179.0650  140.1480 C   0  0  0  0  0  2  0  0  0  0  0  0
  188.3050  177.9740  139.5430 C   0  0  2  0  0  3  0  0  0  0  0  0
  185.7400  178.2930  142.7960 C   0  0  0  0  0  0  0  0  0  0  0  0
  183.8690  178.5900  141.1420 C   0  0  0  0  0  2  0  0  0  0  0  0
  184.3680  178.8700  142.5540 C   0  0  0  0  0  2  0  0  0  0  0  0
  188.9860  177.8780  140.9250 C   0  0  2  0  0  3  0  0  0  0  0  0
  187.4560  177.3710  144.4220 C   0  0  2  0  0  3  0  0  0  0  0  0
  186.1850  178.2000  144.2360 C   0  0  0  0  0  2  0  0  0  0  0  0
  190.2720  176.0460  139.6770 C   0  0  0  0  0  2  0  0  0  0  0  0
  191.1790  176.6260  138.6040 C   0  0  0  0  0  2  0  0  0  0  0  0
  193.3440  176.8980  139.8430 N   0  0  0  0  0  0  0  0  0  0  0  0
  192.6050  176.1240  138.8320 C   0  0  2  0  0  3  0  0  0  0  0  0
  192.7420  176.7530  141.1760 C   0  0  0  0  0  2  0  0  0  0  0  0
  191.4860  177.6180  141.3770 C   0  0  1  0  0  3  0  0  0  0  0  0
  193.4890  178.3060  139.4680 C   0  0  0  0  0  1  0  0  0  0  0  0
  190.1890  176.9150  140.9430 C   0  0  1  0  0  3  0  0  0  0  0  0
  191.6810  176.8440  143.7400 C   0  0  0  0  0  1  0  0  0  0  0  0
  191.3820  178.0280  142.8380 C   0  0  0  0  0  2  0  0  0  0  0  0
  194.1040  174.7240  137.4050 C   0  0  0  0  0  1  0  0  0  0  0  0
  193.3830  176.0530  137.5230 C   0  0  0  0  0  2  0  0  0  0  0  0
  187.1400  177.9940  146.8200 C   0  0  0  0  0  3  0  0  0  0  0  0
  187.9820  177.5000  145.8160 C   0  0  0  0  0  0  0  0  0  0  0  0
  189.2990  177.1330  146.1340 C   0  0  0  0  0  3  0  0  0  0  0  0
  191.1620  176.8740  147.7770 C   0  0  0  0  0  1  0  0  0  0  0  0
  188.9220  177.7570  148.4430 C   0  0  0  0  0  3  0  0  0  0  0  0
  189.7660  177.2630  147.4450 C   0  0  0  0  0  0  0  0  0  0  0  0
  187.6100  178.1240  148.1300 C   0  0  0  0  0  3  0  0  0  0  0  0
  189.2350  178.4130  138.5620 O   0  0  0  0  0  0  0  0  0  0  0  0
  188.8480  178.6790  137.2490 C   0  0  0  0  0  0  0  0  0  0  0  0
  188.2430  179.7530  136.9920 O   0  0  0  0  0  0  0  0  0  0  0  0
  189.1350  177.7650  136.2320 O   0  0  0  0  0  0  0  0  0  0  0  0
  188.1840  176.8090  135.7920 C   0  0  0  0  0  1  0  0  0  0  0  0
  1  3  1  0  0  0  0
  1  8  2  0  0  0  0
  2  4  1  0  0  0  0
  3  5  1  1  0  0  0
  4  6  1  1  0  0  0
  4  1  1  0  0  0  0
  5 12  1  0  0  0  0
  6  9  1  0  0  0  0
  7 33  1  6  0  0  0
  7  2  1  0  0  0  0
  7 11  1  0  0  0  0
  8 13  1  0  0  0  0
  9 10  1  0  0  0  0
 10  8  1  0  0  0  0
 11 21  1  6  0  0  0
 11  3  1  0  0  0  0
 12 27  1  1  0  0  0
 13 12  1  0  0  0  0
 15 17  1  0  0  0  0
 15 14  1  0  0  0  0
 16 18  1  0  0  0  0
 17 25  1  6  0  0  0
 17 16  1  0  0  0  0
 18 19  1  0  0  0  0
 19 23  1  1  0  0  0
 20 16  1  0  0  0  0
 21 14  1  6  0  0  0
 21 19  1  0  0  0  0
 23 22  1  0  0  0  0
 24 25  1  0  0  0  0
 26 32  1  0  0  0  0
 27 28  1  0  0  0  0
 27 26  2  0  0  0  0
 28 31  2  0  0  0  0
 31 29  1  0  0  0  0
 31 30  1  0  0  0  0
 32 30  2  0  0  0  0
 34 33  1  0  0  0  0
 35 34  2  0  0  0  0
 36 34  1  0  0  0  0
 37 36  1  0  0  0  0
M  END
>  <MODEL>
8

>  <REMARK>
 VINA RESULT:      -6.7      4.291      7.991
  Name = 
  7 active torsions:
  status: ('A' for Active; 'I' for Inactive)
    1  A    between atoms: O_3  and  C_21
    2  A    between atoms: C_6  and  C_31
    3  A    between atoms: C_17  and  C_23
    4  A    between atoms: C_20  and  O_25
    5  A    between atoms: C_21  and  O_25
    6  A    between atoms: C_27  and  C_33
    7  A    between atoms: C_29  and  C_36
                            x       y       z     vdW  Elec       q    Type
                         _______ _______ _______ _____ _____    ______ ____

>  <TORSDO>
F 7

$$$$
=
 OpenBabel11052415183D

 37 41  0  0  1  0  0  0  0  0999 V2000
  187.3340  178.1180  145.7400 C   0  0  0  0  0  0  0  0  0  0  0  0
  188.7910  176.8100  147.1120 O   0  0  0  0  0  0  0  0  0  0  0  0
  188.1670  177.8670  144.5000 C   0  0  2  0  0  3  0  0  0  0  0  0
  188.0730  178.0170  147.0630 C   0  0  2  0  0  3  0  0  0  0  0  0
  187.3020  177.5210  143.2930 C   0  0  0  0  0  2  0  0  0  0  0  0
  187.1450  178.0930  148.2720 C   0  0  0  0  0  2  0  0  0  0  0  0
  189.8240  176.9050  146.1610 C   0  0  2  0  0  3  0  0  0  0  0  0
  186.0770  178.6270  145.6530 C   0  0  0  0  0  0  0  0  0  0  0  0
  186.1540  179.2300  148.0930 C   0  0  0  0  0  2  0  0  0  0  0  0
  185.2690  178.9270  146.8900 C   0  0  0  0  0  2  0  0  0  0  0  0
  189.2400  176.7920  144.7360 C   0  0  2  0  0  3  0  0  0  0  0  0
  186.2540  178.6110  143.1210 C   0  0  2  0  0  3  0  0  0  0  0  0
  185.3310  178.6590  144.3400 C   0  0  0  0  0  2  0  0  0  0  0  0
  190.2840  175.6470  142.6950 C   0  0  0  0  0  2  0  0  0  0  0  0
  189.4550  175.8690  141.4400 C   0  0  0  0  0  2  0  0  0  0  0  0
  190.5200  177.9240  140.4700 N   0  0  0  0  0  0  0  0  0  0  0  0
  190.3490  176.4660  140.3520 C   0  0  2  0  0  3  0  0  0  0  0  0
  191.2390  178.2820  141.7000 C   0  0  0  0  0  2  0  0  0  0  0  0
  190.3550  178.2470  142.9580 C   0  0  1  0  0  3  0  0  0  0  0  0
  189.2500  178.6440  140.3590 C   0  0  0  0  0  1  0  0  0  0  0  0
  190.3130  176.8660  143.6330 C   0  0  1  0  0  3  0  0  0  0  0  0
  192.2850  179.0040  144.3430 C   0  0  0  0  0  1  0  0  0  0  0  0
  190.8470  179.2880  143.9530 C   0  0  0  0  0  2  0  0  0  0  0  0
  191.0300  175.8600  138.0270 C   0  0  0  0  0  1  0  0  0  0  0  0
  189.8570  176.0860  138.9610 C   0  0  0  0  0  2  0  0  0  0  0  0
  184.0980  178.1510  141.9480 C   0  0  0  0  0  3  0  0  0  0  0  0
  185.4710  178.4100  141.8630 C   0  0  0  0  0  0  0  0  0  0  0  0
  186.0870  178.4780  140.6030 C   0  0  0  0  0  3  0  0  0  0  0  0
  185.9900  178.3610  138.1100 C   0  0  0  0  0  1  0  0  0  0  0  0
  183.9630  178.0300  139.5320 C   0  0  0  0  0  3  0  0  0  0  0  0
  185.3330  178.2880  139.4420 C   0  0  0  0  0  0  0  0  0  0  0  0
  183.3460  177.9610  140.7850 C   0  0  0  0  0  3  0  0  0  0  0  0
  190.7660  175.8660  146.3930 O   0  0  0  0  0  0  0  0  0  0  0  0
  191.8820  176.0550  147.2070 C   0  0  0  0  0  0  0  0  0  0  0  0
  192.8490  175.2530  147.1200 O   0  0  0  0  0  0  0  0  0  0  0  0
  191.9270  177.1270  148.1020 O   0  0  0  0  0  0  0  0  0  0  0  0
  192.8040  177.1360  149.2170 C   0  0  0  0  0  1  0  0  0  0  0  0
  1  4  1  0  0  0  0
  3  5  1  6  0  0  0
  3 11  1  0  0  0  0
  3  1  1  0  0  0  0
  4  2  1  0  0  0  0
  4  6  1  1  0  0  0
  7 33  1  1  0  0  0
  7  2  1  0  0  0  0
  8  1  2  0  0  0  0
  8 10  1  0  0  0  0
  9  6  1  0  0  0  0
 10  9  1  0  0  0  0
 11 21  1  6  0  0  0
 11  7  1  0  0  0  0
 12 27  1  6  0  0  0
 12  5  1  0  0  0  0
 12 13  1  0  0  0  0
 13  8  1  0  0  0  0
 15 14  1  0  0  0  0
 16 18  1  0  0  0  0
 17 25  1  6  0  0  0
 17 16  1  0  0  0  0
 17 15  1  0  0  0  0
 18 19  1  0  0  0  0
 19 21  1  0  0  0  0
 19 23  1  1  0  0  0
 20 16  1  0  0  0  0
 21 14  1  6  0  0  0
 23 22  1  0  0  0  0
 24 25  1  0  0  0  0
 27 26  1  0  0  0  0
 28 27  2  0  0  0  0
 29 31  1  0  0  0  0
 30 32  1  0  0  0  0
 31 30  2  0  0  0  0
 31 28  1  0  0  0  0
 32 26  2  0  0  0  0
 33 34  1  0  0  0  0
 34 36  1  0  0  0  0
 35 34  2  0  0  0  0
 36 37  1  0  0  0  0
M  END
>  <MODEL>
9

>  <REMARK>
 VINA RESULT:      -6.2      5.026      9.633
  Name = 
  7 active torsions:
  status: ('A' for Active; 'I' for Inactive)
    1  A    between atoms: O_3  and  C_21
    2  A    between atoms: C_6  and  C_31
    3  A    between atoms: C_17  and  C_23
    4  A    between atoms: C_20  and  O_25
    5  A    between atoms: C_21  and  O_25
    6  A    between atoms: C_27  and  C_33
    7  A    between atoms: C_29  and  C_36
                            x       y       z     vdW  Elec       q    Type
                         _______ _______ _______ _____ _____    ______ ____

>  <TORSDO>
F 7

$$$$
