=
 OpenBabel11052412443D

 25 28  0  0  0  0  0  0  0  0999 V2000
  187.0210  177.8580  145.1280 C   0  0  0  0  0  0  0  0  0  0  0  0
  188.2480  177.4120  144.5920 C   0  0  0  0  0  0  0  0  0  0  0  0
  187.9310  177.7900  147.3900 C   0  0  0  0  0  3  0  0  0  0  0  0
  185.8280  178.1700  144.4450 C   0  0  0  0  0  0  0  0  0  0  0  0
  190.1150  176.8530  141.4380 C   0  0  0  0  0  0  0  0  0  0  0  0
  183.3110  178.8770  143.4520 C   0  0  0  0  0  3  0  0  0  0  0  0
  189.1500  177.3470  146.8680 C   0  0  0  0  0  3  0  0  0  0  0  0
  184.8070  178.5810  145.3010 C   0  0  0  0  0  0  0  0  0  0  0  0
  183.5450  178.9380  144.8330 C   0  0  0  0  0  3  0  0  0  0  0  0
  190.6260  176.7030  144.9550 C   0  0  0  0  0  0  0  0  0  0  0  0
  191.9480  176.3060  146.0430 Cl  0  0  0  0  0  0  0  0  0  0  0  0
  190.4000  176.7850  140.1660 C   0  0  0  0  0  3  0  0  0  0  0  0
  188.4030  177.1540  143.1160 C   0  0  0  0  0  2  0  0  0  0  0  0
  184.3290  178.4650  142.5740 C   0  0  0  0  0  3  0  0  0  0  0  0
  186.8890  178.0380  146.5050 C   0  0  0  0  0  0  0  0  0  0  0  0
  185.3390  178.5720  146.8990 S   0  0  0  0  0  0  0  0  0  0  0  0
  190.8320  176.6190  143.6760 N   0  0  0  0  0  0  0  0  0  0  0  0
  185.5940  178.1090  143.0670 C   0  0  0  0  0  3  0  0  0  0  0  0
  189.8250  176.9200  142.7070 C   0  0  0  0  0  0  0  0  0  0  0  0
  189.3200  177.1540  145.4830 C   0  0  0  0  0  0  0  0  0  0  0  0
  189.4020  177.0840  139.1290 C   0  0  0  0  0  0  0  0  0  0  0  0
  189.1630  176.2500  138.2130 O   0  0  0  0  0  0  0  0  0  0  0  0
  188.6790  178.3620  139.1580 C   0  0  0  0  0  0  0  0  0  0  0  0
  187.5640  178.5200  139.9720 O   0  0  0  0  0  1  0  0  0  0  0  0
  189.0640  179.3250  138.4430 O   0  0  0  0  0  0  0  0  0  0  0  0
  1 15  1  0  0  0  0
  2  1  2  0  0  0  0
  2 20  1  0  0  0  0
  4  1  1  0  0  0  0
  4  8  1  0  0  0  0
  5 19  2  0  0  0  0
  6  9  1  0  0  0  0
  7  3  1  0  0  0  0
  8 16  1  0  0  0  0
  9  8  2  0  0  0  0
 10 20  1  0  0  0  0
 10 11  1  0  0  0  0
 12  5  2  0  0  0  0
 13  2  1  0  0  0  0
 14 18  1  0  0  0  0
 14  6  2  0  0  0  0
 15 16  1  0  0  0  0
 15  3  2  0  0  0  0
 17 10  2  0  0  0  0
 18  4  2  0  0  0  0
 19 13  1  0  0  0  0
 19 17  1  0  0  0  0
 20  7  2  0  0  0  0
 21 23  1  0  0  0  0
 21 12  1  0  0  0  0
 22 21  2  0  0  0  0
 23 24  1  0  0  0  0
 25 23  2  0  0  0  0
M  END
>  <MODEL>
1

>  <REMARK>
 VINA RESULT:     -11.5      0.000      0.000
  Name = 
  2 active torsions:
  status: ('A' for Active; 'I' for Inactive)
    1  A    between atoms: C_2  and  C_21
    2  A    between atoms: C_15  and  C_21
                            x       y       z     vdW  Elec       q    Type
                         _______ _______ _______ _____ _____    ______ ____

>  <TORSDO>
F 2

$$$$
=
 OpenBabel11052412443D

 25 28  0  0  0  0  0  0  0  0999 V2000
  187.1250  177.8730  145.3280 C   0  0  0  0  0  0  0  0  0  0  0  0
  188.4130  177.4730  144.9130 C   0  0  0  0  0  0  0  0  0  0  0  0
  187.7910  177.7470  147.6710 C   0  0  0  0  0  3  0  0  0  0  0  0
  186.0030  178.1810  144.5320 C   0  0  0  0  0  0  0  0  0  0  0  0
  190.6180  177.0640  141.9600 C   0  0  0  0  0  0  0  0  0  0  0  0
  183.5880  178.8640  143.2990 C   0  0  0  0  0  3  0  0  0  0  0  0
  189.0700  177.3500  147.2690 C   0  0  0  0  0  3  0  0  0  0  0  0
  184.8870  178.5390  145.2870 C   0  0  0  0  0  0  0  0  0  0  0  0
  183.6730  178.8840  144.6990 C   0  0  0  0  0  3  0  0  0  0  0  0
  190.7570  176.8060  145.5050 C   0  0  0  0  0  0  0  0  0  0  0  0
  191.9660  176.4010  146.7150 Cl  0  0  0  0  0  0  0  0  0  0  0  0
  191.0380  177.0460  140.7250 C   0  0  0  0  0  3  0  0  0  0  0  0
  188.7300  177.2690  143.4540 C   0  0  0  0  0  2  0  0  0  0  0  0
  184.7040  178.5050  142.5220 C   0  0  0  0  0  3  0  0  0  0  0  0
  186.8440  178.0020  146.6890 C   0  0  0  0  0  0  0  0  0  0  0  0
  185.2470  178.4880  146.9310 S   0  0  0  0  0  0  0  0  0  0  0  0
  191.1000  176.7690  144.2540 N   0  0  0  0  0  0  0  0  0  0  0  0
  185.9190  178.1620  143.1350 C   0  0  0  0  0  3  0  0  0  0  0  0
  190.1930  177.0810  143.1920 C   0  0  0  0  0  0  0  0  0  0  0  0
  189.3910  177.2080  145.9040 C   0  0  0  0  0  0  0  0  0  0  0  0
  190.1480  177.3580  139.5970 C   0  0  0  0  0  0  0  0  0  0  0  0
  189.2560  178.2440  139.7130 O   0  0  0  0  0  0  0  0  0  0  0  0
  190.2950  176.6340  138.3280 C   0  0  0  0  0  0  0  0  0  0  0  0
  190.6230  175.2830  138.3240 O   0  0  0  0  0  1  0  0  0  0  0  0
  190.1240  177.2320  137.2330 O   0  0  0  0  0  0  0  0  0  0  0  0
  1 15  1  0  0  0  0
  2  1  2  0  0  0  0
  2 20  1  0  0  0  0
  4  8  1  0  0  0  0
  4  1  1  0  0  0  0
  5 19  2  0  0  0  0
  6  9  1  0  0  0  0
  7  3  1  0  0  0  0
  8 16  1  0  0  0  0
  9  8  2  0  0  0  0
 10 20  1  0  0  0  0
 10 11  1  0  0  0  0
 12  5  2  0  0  0  0
 13  2  1  0  0  0  0
 14 18  1  0  0  0  0
 14  6  2  0  0  0  0
 15 16  1  0  0  0  0
 15  3  2  0  0  0  0
 17 10  2  0  0  0  0
 18  4  2  0  0  0  0
 19 13  1  0  0  0  0
 19 17  1  0  0  0  0
 20  7  2  0  0  0  0
 21 22  2  0  0  0  0
 21 12  1  0  0  0  0
 23 21  1  0  0  0  0
 24 23  1  0  0  0  0
 25 23  2  0  0  0  0
M  END
>  <MODEL>
2

>  <REMARK>
 VINA RESULT:     -11.0      0.828      1.374
  Name = 
  2 active torsions:
  status: ('A' for Active; 'I' for Inactive)
    1  A    between atoms: C_2  and  C_21
    2  A    between atoms: C_15  and  C_21
                            x       y       z     vdW  Elec       q    Type
                         _______ _______ _______ _____ _____    ______ ____

>  <TORSDO>
F 2

$$$$
=
 OpenBabel11052412443D

 25 28  0  0  0  0  0  0  0  0999 V2000
  189.4400  177.3920  144.1000 C   0  0  0  0  0  0  0  0  0  0  0  0
  188.4210  177.7210  145.0180 C   0  0  0  0  0  0  0  0  0  0  0  0
  190.9560  176.8100  145.9210 C   0  0  0  0  0  3  0  0  0  0  0  0
  189.4050  177.4480  142.6920 C   0  0  0  0  0  0  0  0  0  0  0  0
  184.8350  178.6120  145.3230 C   0  0  0  0  0  0  0  0  0  0  0  0
  189.7090  177.4240  139.9120 C   0  0  0  0  0  3  0  0  0  0  0  0
  189.9520  177.1340  146.8380 C   0  0  0  0  0  3  0  0  0  0  0  0
  190.6030  177.0470  142.1040 C   0  0  0  0  0  0  0  0  0  0  0  0
  190.7820  177.0260  140.7240 C   0  0  0  0  0  3  0  0  0  0  0  0
  187.6390  177.9070  147.3950 C   0  0  0  0  0  0  0  0  0  0  0  0
  187.9710  177.8220  149.1180 Cl  0  0  0  0  0  0  0  0  0  0  0  0
  183.6020  178.9010  145.0060 C   0  0  0  0  0  3  0  0  0  0  0  0
  187.0950  178.2600  144.5460 C   0  0  0  0  0  2  0  0  0  0  0  0
  188.4930  177.8320  140.4880 C   0  0  0  0  0  3  0  0  0  0  0  0
  190.6770  176.9450  144.5670 C   0  0  0  0  0  0  0  0  0  0  0  0
  191.7240  176.6180  143.2860 S   0  0  0  0  0  0  0  0  0  0  0  0
  186.4410  178.2280  147.0120 N   0  0  0  0  0  0  0  0  0  0  0  0
  188.3340  177.8450  141.8830 C   0  0  0  0  0  3  0  0  0  0  0  0
  186.0670  178.3240  145.6340 C   0  0  0  0  0  0  0  0  0  0  0  0
  188.6910  177.5890  146.4040 C   0  0  0  0  0  0  0  0  0  0  0  0
  183.1650  179.0130  143.6070 C   0  0  0  0  0  0  0  0  0  0  0  0
  181.9610  179.2720  143.3330 O   0  0  0  0  0  0  0  0  0  0  0  0
  184.1350  178.8190  142.5210 C   0  0  0  0  0  0  0  0  0  0  0  0
  185.0850  179.7950  142.2460 O   0  0  0  0  0  1  0  0  0  0  0  0
  184.1110  177.7670  141.8300 O   0  0  0  0  0  0  0  0  0  0  0  0
  1 15  1  0  0  0  0
  1  2  2  0  0  0  0
  2 20  1  0  0  0  0
  3  7  1  0  0  0  0
  4  1  1  0  0  0  0
  5 19  2  0  0  0  0
  6 14  2  0  0  0  0
  6  9  1  0  0  0  0
  8  4  1  0  0  0  0
  8 16  1  0  0  0  0
  9  8  2  0  0  0  0
 10 11  1  0  0  0  0
 12  5  2  0  0  0  0
 13  2  1  0  0  0  0
 13 19  1  0  0  0  0
 14 18  1  0  0  0  0
 15  3  2  0  0  0  0
 16 15  1  0  0  0  0
 17 10  2  0  0  0  0
 18  4  2  0  0  0  0
 19 17  1  0  0  0  0
 20  7  2  0  0  0  0
 20 10  1  0  0  0  0
 21 12  1  0  0  0  0
 22 21  2  0  0  0  0
 23 21  1  0  0  0  0
 24 23  1  0  0  0  0
 25 23  2  0  0  0  0
M  END
>  <MODEL>
3

>  <REMARK>
 VINA RESULT:     -10.4      2.949      5.589
  Name = 
  2 active torsions:
  status: ('A' for Active; 'I' for Inactive)
    1  A    between atoms: C_2  and  C_21
    2  A    between atoms: C_15  and  C_21
                            x       y       z     vdW  Elec       q    Type
                         _______ _______ _______ _____ _____    ______ ____

>  <TORSDO>
F 2

$$$$
=
 OpenBabel11052412443D

 25 28  0  0  0  0  0  0  0  0999 V2000
  186.2850  178.2680  144.3330 C   0  0  0  0  0  0  0  0  0  0  0  0
  186.4000  178.4110  142.9340 C   0  0  0  0  0  0  0  0  0  0  0  0
  183.9140  178.8370  144.2410 C   0  0  0  0  0  3  0  0  0  0  0  0
  187.2840  177.9230  145.2650 C   0  0  0  0  0  0  0  0  0  0  0  0
  188.6640  177.8860  140.0450 C   0  0  0  0  0  0  0  0  0  0  0  0
  188.9790  177.2690  147.3910 C   0  0  0  0  0  3  0  0  0  0  0  0
  184.0190  178.9810  142.8550 C   0  0  0  0  0  3  0  0  0  0  0  0
  186.8080  177.8760  146.5750 C   0  0  0  0  0  0  0  0  0  0  0  0
  187.6300  177.5540  147.6510 C   0  0  0  0  0  3  0  0  0  0  0  0
  185.3270  178.9140  140.7230 C   0  0  0  0  0  0  0  0  0  0  0  0
  183.9310  179.4350  139.7920 Cl  0  0  0  0  0  0  0  0  0  0  0  0
  189.7190  177.5770  139.3420 C   0  0  0  0  0  3  0  0  0  0  0  0
  187.7290  178.2430  142.2440 C   0  0  0  0  0  2  0  0  0  0  0  0
  189.4750  177.3110  146.0760 C   0  0  0  0  0  3  0  0  0  0  0  0
  185.0520  178.4810  144.9530 C   0  0  0  0  0  0  0  0  0  0  0  0
  185.1680  178.2530  146.6190 S   0  0  0  0  0  0  0  0  0  0  0  0
  186.4220  178.6280  140.0870 N   0  0  0  0  0  0  0  0  0  0  0  0
  188.6290  177.6390  145.0050 C   0  0  0  0  0  3  0  0  0  0  0  0
  187.6130  178.1950  140.7510 C   0  0  0  0  0  0  0  0  0  0  0  0
  185.2470  178.7750  142.1940 C   0  0  0  0  0  0  0  0  0  0  0  0
  190.9680  177.1270  139.9730 C   0  0  0  0  0  0  0  0  0  0  0  0
  191.9720  176.8360  139.2660 O   0  0  0  0  0  0  0  0  0  0  0  0
  191.0480  177.0120  141.4350 C   0  0  0  0  0  0  0  0  0  0  0  0
  190.4420  175.9460  142.0900 O   0  0  0  0  0  0  0  0  0  0  0  0
  191.6660  177.8800  142.1060 O   0  0  0  0  0  1  0  0  0  0  0  0
  1 15  2  0  0  0  0
  1  4  1  0  0  0  0
  2  1  1  0  0  0  0
  3 15  1  0  0  0  0
  4  8  1  0  0  0  0
  5 19  2  0  0  0  0
  6  9  1  0  0  0  0
  7  3  2  0  0  0  0
  8 16  1  0  0  0  0
  8  9  2  0  0  0  0
 10 20  1  0  0  0  0
 11 10  1  0  0  0  0
 12 21  1  0  0  0  0
 12  5  2  0  0  0  0
 13  2  1  0  0  0  0
 14  6  2  0  0  0  0
 15 16  1  0  0  0  0
 17 10  2  0  0  0  0
 17 19  1  0  0  0  0
 18  4  2  0  0  0  0
 18 14  1  0  0  0  0
 19 13  1  0  0  0  0
 20  7  1  0  0  0  0
 20  2  2  0  0  0  0
 21 23  1  0  0  0  0
 22 21  2  0  0  0  0
 23 24  2  0  0  0  0
 23 25  1  0  0  0  0
M  END
>  <MODEL>
4

>  <REMARK>
 VINA RESULT:     -10.4      2.938      4.660
  Name = 
  2 active torsions:
  status: ('A' for Active; 'I' for Inactive)
    1  A    between atoms: C_2  and  C_21
    2  A    between atoms: C_15  and  C_21
                            x       y       z     vdW  Elec       q    Type
                         _______ _______ _______ _____ _____    ______ ____

>  <TORSDO>
F 2

$$$$
=
 OpenBabel11052412443D

 25 28  0  0  0  0  0  0  0  0999 V2000
  187.6790  177.8280  145.6630 C   0  0  0  0  0  0  0  0  0  0  0  0
  186.8930  178.1910  144.5490 C   0  0  0  0  0  0  0  0  0  0  0  0
  185.7840  178.1570  147.1640 C   0  0  0  0  0  3  0  0  0  0  0  0
  189.0370  177.4510  145.6940 C   0  0  0  0  0  0  0  0  0  0  0  0
  186.8340  178.3430  140.8450 C   0  0  0  0  0  0  0  0  0  0  0  0
  191.6800  176.6610  146.1480 C   0  0  0  0  0  3  0  0  0  0  0  0
  184.9990  178.5190  146.0660 C   0  0  0  0  0  3  0  0  0  0  0  0
  189.4880  177.1580  146.9800 C   0  0  0  0  0  0  0  0  0  0  0  0
  190.7980  176.7640  147.2340 C   0  0  0  0  0  3  0  0  0  0  0  0
  184.6780  178.9080  143.6170 C   0  0  0  0  0  0  0  0  0  0  0  0
  183.0140  179.4180  143.8640 Cl  0  0  0  0  0  0  0  0  0  0  0  0
  187.2100  178.2530  139.5980 C   0  0  0  0  0  3  0  0  0  0  0  0
  187.4920  178.2670  143.1680 C   0  0  0  0  0  2  0  0  0  0  0  0
  191.2420  176.9510  144.8440 C   0  0  0  0  0  3  0  0  0  0  0  0
  187.1120  177.8170  146.9380 C   0  0  0  0  0  0  0  0  0  0  0  0
  188.2440  177.3530  148.0980 S   0  0  0  0  0  0  0  0  0  0  0  0
  185.1270  178.8360  142.4010 N   0  0  0  0  0  0  0  0  0  0  0  0
  189.9170  177.3480  144.6100 C   0  0  0  0  0  3  0  0  0  0  0  0
  186.4640  178.4320  142.0910 C   0  0  0  0  0  0  0  0  0  0  0  0
  185.5360  178.5410  144.7640 C   0  0  0  0  0  0  0  0  0  0  0  0
  188.5720  177.8440  139.2250 C   0  0  0  0  0  0  0  0  0  0  0  0
  189.2160  177.0350  139.9480 O   0  0  0  0  0  0  0  0  0  0  0  0
  189.1880  178.3800  138.0050 C   0  0  0  0  0  0  0  0  0  0  0  0
  189.0560  179.7260  137.6850 O   0  0  0  0  0  1  0  0  0  0  0  0
  189.8400  177.6240  137.2380 O   0  0  0  0  0  0  0  0  0  0  0  0
  1  4  1  0  0  0  0
  1 15  2  0  0  0  0
  2 20  2  0  0  0  0
  2  1  1  0  0  0  0
  4  8  1  0  0  0  0
  5 19  2  0  0  0  0
  6  9  1  0  0  0  0
  7  3  2  0  0  0  0
  8  9  2  0  0  0  0
  8 16  1  0  0  0  0
 10 11  1  0  0  0  0
 10 20  1  0  0  0  0
 12  5  2  0  0  0  0
 13  2  1  0  0  0  0
 14  6  2  0  0  0  0
 15  3  1  0  0  0  0
 15 16  1  0  0  0  0
 17 10  2  0  0  0  0
 18 14  1  0  0  0  0
 18  4  2  0  0  0  0
 19 17  1  0  0  0  0
 19 13  1  0  0  0  0
 20  7  1  0  0  0  0
 21 12  1  0  0  0  0
 21 22  2  0  0  0  0
 23 21  1  0  0  0  0
 24 23  1  0  0  0  0
 25 23  2  0  0  0  0
M  END
>  <MODEL>
5

>  <REMARK>
 VINA RESULT:     -10.3      2.739      4.710
  Name = 
  2 active torsions:
  status: ('A' for Active; 'I' for Inactive)
    1  A    between atoms: C_2  and  C_21
    2  A    between atoms: C_15  and  C_21
                            x       y       z     vdW  Elec       q    Type
                         _______ _______ _______ _____ _____    ______ ____

>  <TORSDO>
F 2

$$$$
=
 OpenBabel11052412443D

 25 28  0  0  0  0  0  0  0  0999 V2000
  186.9070  178.1320  142.4000 C   0  0  0  0  0  0  0  0  0  0  0  0
  186.9420  177.9100  143.7930 C   0  0  0  0  0  0  0  0  0  0  0  0
  184.5940  178.8960  142.5330 C   0  0  0  0  0  3  0  0  0  0  0  0
  187.9300  177.9250  141.4530 C   0  0  0  0  0  0  0  0  0  0  0  0
  189.1660  177.0810  146.6410 C   0  0  0  0  0  0  0  0  0  0  0  0
  189.6980  177.6470  139.3040 C   0  0  0  0  0  3  0  0  0  0  0  0
  184.6200  178.6790  143.9140 C   0  0  0  0  0  3  0  0  0  0  0  0
  187.5400  178.2520  140.1550 C   0  0  0  0  0  0  0  0  0  0  0  0
  188.4000  178.1230  139.0680 C   0  0  0  0  0  3  0  0  0  0  0  0
  185.7830  177.9860  146.0170 C   0  0  0  0  0  0  0  0  0  0  0  0
  184.3310  178.2530  146.9680 Cl  0  0  0  0  0  0  0  0  0  0  0  0
  190.2320  176.7670  147.3270 C   0  0  0  0  0  3  0  0  0  0  0  0
  188.1650  177.3320  144.4570 C   0  0  0  0  0  2  0  0  0  0  0  0
  190.1080  177.3120  140.6060 C   0  0  0  0  0  3  0  0  0  0  0  0
  185.7430  178.6180  141.8040 C   0  0  0  0  0  0  0  0  0  0  0  0
  185.9480  178.7990  140.1400 S   0  0  0  0  0  0  0  0  0  0  0  0
  186.8700  177.6330  146.6340 N   0  0  0  0  0  0  0  0  0  0  0  0
  189.2260  177.4500  141.6890 C   0  0  0  0  0  3  0  0  0  0  0  0
  188.1040  177.3920  145.9530 C   0  0  0  0  0  0  0  0  0  0  0  0
  185.7770  178.1880  144.5510 C   0  0  0  0  0  0  0  0  0  0  0  0
  191.5250  176.5090  146.6770 C   0  0  0  0  0  0  0  0  0  0  0  0
  192.5030  176.0810  147.3490 O   0  0  0  0  0  0  0  0  0  0  0  0
  191.6810  176.7520  145.2370 C   0  0  0  0  0  0  0  0  0  0  0  0
  191.7140  175.6870  144.3450 O   0  0  0  0  0  0  0  0  0  0  0  0
  191.7870  177.9280  144.8010 O   0  0  0  0  0  1  0  0  0  0  0  0
  1  2  2  0  0  0  0
  2 13  1  0  0  0  0
  2 20  1  0  0  0  0
  3  7  1  0  0  0  0
  4 18  1  0  0  0  0
  4  1  1  0  0  0  0
  5 12  2  0  0  0  0
  6 14  1  0  0  0  0
  7 20  2  0  0  0  0
  8  4  2  0  0  0  0
  9  6  2  0  0  0  0
  9  8  1  0  0  0  0
 10 17  2  0  0  0  0
 10 11  1  0  0  0  0
 13 19  1  0  0  0  0
 14 18  2  0  0  0  0
 15  1  1  0  0  0  0
 15  3  2  0  0  0  0
 16  8  1  0  0  0  0
 16 15  1  0  0  0  0
 19 17  1  0  0  0  0
 19  5  2  0  0  0  0
 20 10  1  0  0  0  0
 21 12  1  0  0  0  0
 21 22  2  0  0  0  0
 23 21  1  0  0  0  0
 24 23  2  0  0  0  0
 25 23  1  0  0  0  0
M  END
>  <MODEL>
6

>  <REMARK>
 VINA RESULT:     -10.0      3.640      5.962
  Name = 
  2 active torsions:
  status: ('A' for Active; 'I' for Inactive)
    1  A    between atoms: C_2  and  C_21
    2  A    between atoms: C_15  and  C_21
                            x       y       z     vdW  Elec       q    Type
                         _______ _______ _______ _____ _____    ______ ____

>  <TORSDO>
F 2

$$$$
=
 OpenBabel11052412443D

 25 28  0  0  0  0  0  0  0  0999 V2000
  187.1870  177.7500  144.8980 C   0  0  0  0  0  0  0  0  0  0  0  0
  188.1870  177.3400  143.9890 C   0  0  0  0  0  0  0  0  0  0  0  0
  188.6660  177.3190  146.7900 C   0  0  0  0  0  3  0  0  0  0  0  0
  185.8820  178.2030  144.6200 C   0  0  0  0  0  0  0  0  0  0  0  0
  189.0850  177.1740  140.3960 C   0  0  0  0  0  0  0  0  0  0  0  0
  183.2520  179.1420  144.4650 C   0  0  0  0  0  3  0  0  0  0  0  0
  189.6610  176.9100  145.8970 C   0  0  0  0  0  3  0  0  0  0  0  0
  185.1650  178.5240  145.7720 C   0  0  0  0  0  0  0  0  0  0  0  0
  183.8550  178.9930  145.7230 C   0  0  0  0  0  3  0  0  0  0  0  0
  190.5130  176.4960  143.5830 C   0  0  0  0  0  0  0  0  0  0  0  0
  192.0450  175.8940  144.1990 Cl  0  0  0  0  0  0  0  0  0  0  0  0
  189.0110  177.2810  139.0980 C   0  0  0  0  0  3  0  0  0  0  0  0
  187.9170  177.2940  142.5080 C   0  0  0  0  0  2  0  0  0  0  0  0
  183.9610  178.8230  143.2930 C   0  0  0  0  0  3  0  0  0  0  0  0
  187.4470  177.7320  146.2690 C   0  0  0  0  0  0  0  0  0  0  0  0
  186.1060  178.2630  147.1430 S   0  0  0  0  0  0  0  0  0  0  0  0
  190.3600  176.5900  142.2970 N   0  0  0  0  0  0  0  0  0  0  0  0
  185.2810  178.3520  143.3650 C   0  0  0  0  0  3  0  0  0  0  0  0
  189.1540  177.0680  141.6940 C   0  0  0  0  0  0  0  0  0  0  0  0
  189.4360  176.9140  144.5060 C   0  0  0  0  0  0  0  0  0  0  0  0
  187.7960  177.7650  138.4270 C   0  0  0  0  0  0  0  0  0  0  0  0
  187.0570  178.6240  138.9830 O   0  0  0  0  0  0  0  0  0  0  0  0
  187.4370  177.2460  137.1010 C   0  0  0  0  0  0  0  0  0  0  0  0
  187.8260  175.9680  136.7180 O   0  0  0  0  0  1  0  0  0  0  0  0
  186.7740  177.9570  136.3000 O   0  0  0  0  0  0  0  0  0  0  0  0
  1 15  2  0  0  0  0
  2 20  2  0  0  0  0
  2  1  1  0  0  0  0
  4  1  1  0  0  0  0
  4  8  1  0  0  0  0
  5 19  2  0  0  0  0
  6  9  1  0  0  0  0
  7  3  2  0  0  0  0
  8 16  1  0  0  0  0
  9  8  2  0  0  0  0
 10 11  1  0  0  0  0
 10 20  1  0  0  0  0
 12  5  2  0  0  0  0
 13  2  1  0  0  0  0
 14 18  1  0  0  0  0
 14  6  2  0  0  0  0
 15  3  1  0  0  0  0
 15 16  1  0  0  0  0
 17 10  2  0  0  0  0
 18  4  2  0  0  0  0
 19 17  1  0  0  0  0
 19 13  1  0  0  0  0
 20  7  1  0  0  0  0
 21 22  2  0  0  0  0
 21 12  1  0  0  0  0
 23 21  1  0  0  0  0
 24 23  1  0  0  0  0
 25 23  2  0  0  0  0
M  END
>  <MODEL>
7

>  <REMARK>
 VINA RESULT:     -10.0      1.295      1.721
  Name = 
  2 active torsions:
  status: ('A' for Active; 'I' for Inactive)
    1  A    between atoms: C_2  and  C_21
    2  A    between atoms: C_15  and  C_21
                            x       y       z     vdW  Elec       q    Type
                         _______ _______ _______ _____ _____    ______ ____

>  <TORSDO>
F 2

$$$$
=
 OpenBabel11052412443D

 25 28  0  0  0  0  0  0  0  0999 V2000
  188.7020  177.6030  143.3950 C   0  0  0  0  0  0  0  0  0  0  0  0
  187.3590  177.8910  143.7180 C   0  0  0  0  0  0  0  0  0  0  0  0
  189.2570  177.3220  145.7540 C   0  0  0  0  0  3  0  0  0  0  0  0
  189.3060  177.5490  142.1230 C   0  0  0  0  0  0  0  0  0  0  0  0
  183.9790  178.4190  142.2870 C   0  0  0  0  0  0  0  0  0  0  0  0
  190.8410  177.3480  139.7940 C   0  0  0  0  0  3  0  0  0  0  0  0
  187.9280  177.6080  146.0830 C   0  0  0  0  0  3  0  0  0  0  0  0
  190.6630  177.2330  142.1820 C   0  0  0  0  0  0  0  0  0  0  0  0
  191.4500  177.1270  141.0390 C   0  0  0  0  0  3  0  0  0  0  0  0
  185.5730  178.1720  145.4580 C   0  0  0  0  0  0  0  0  0  0  0  0
  185.0910  178.2530  147.1450 Cl  0  0  0  0  0  0  0  0  0  0  0  0
  183.0100  178.5520  141.4230 C   0  0  0  0  0  3  0  0  0  0  0  0
  186.3630  178.2500  142.6460 C   0  0  0  0  0  2  0  0  0  0  0  0
  189.4740  177.6670  139.7160 C   0  0  0  0  0  3  0  0  0  0  0  0
  189.6160  177.3250  144.4130 C   0  0  0  0  0  0  0  0  0  0  0  0
  191.1480  177.0150  143.7800 S   0  0  0  0  0  0  0  0  0  0  0  0
  184.6630  178.3350  144.5460 N   0  0  0  0  0  0  0  0  0  0  0  0
  188.6990  177.7690  140.8820 C   0  0  0  0  0  3  0  0  0  0  0  0
  184.9510  178.2870  143.1460 C   0  0  0  0  0  0  0  0  0  0  0  0
  186.9770  177.8930  145.0840 C   0  0  0  0  0  0  0  0  0  0  0  0
  183.2510  178.5110  139.9740 C   0  0  0  0  0  0  0  0  0  0  0  0
  182.5190  177.8080  139.2240 O   0  0  0  0  0  0  0  0  0  0  0  0
  184.3510  179.2920  139.3930 C   0  0  0  0  0  0  0  0  0  0  0  0
  185.5900  178.7010  139.1700 O   0  0  0  0  0  1  0  0  0  0  0  0
  184.1800  180.5030  139.0930 O   0  0  0  0  0  0  0  0  0  0  0  0
  1  2  2  0  0  0  0
  1 15  1  0  0  0  0
  2 20  1  0  0  0  0
  3  7  1  0  0  0  0
  4  8  1  0  0  0  0
  4  1  1  0  0  0  0
  5 19  2  0  0  0  0
  6  9  1  0  0  0  0
  8 16  1  0  0  0  0
  9  8  2  0  0  0  0
 10 11  1  0  0  0  0
 12  5  2  0  0  0  0
 13 19  1  0  0  0  0
 13  2  1  0  0  0  0
 14  6  2  0  0  0  0
 14 18  1  0  0  0  0
 15  3  2  0  0  0  0
 16 15  1  0  0  0  0
 17 10  2  0  0  0  0
 18  4  2  0  0  0  0
 19 17  1  0  0  0  0
 20 10  1  0  0  0  0
 20  7  2  0  0  0  0
 21 12  1  0  0  0  0
 22 21  2  0  0  0  0
 23 21  1  0  0  0  0
 24 23  1  0  0  0  0
 25 23  2  0  0  0  0
M  END
>  <MODEL>
8

>  <REMARK>
 VINA RESULT:      -9.9      2.996      5.427
  Name = 
  2 active torsions:
  status: ('A' for Active; 'I' for Inactive)
    1  A    between atoms: C_2  and  C_21
    2  A    between atoms: C_15  and  C_21
                            x       y       z     vdW  Elec       q    Type
                         _______ _______ _______ _____ _____    ______ ____

>  <TORSDO>
F 2

$$$$
=
 OpenBabel11052412443D

 25 28  0  0  0  0  0  0  0  0999 V2000
  185.2990  178.3030  144.0510 C   0  0  0  0  0  0  0  0  0  0  0  0
  186.6600  177.9350  143.9930 C   0  0  0  0  0  0  0  0  0  0  0  0
  185.4160  178.5310  146.4770 C   0  0  0  0  0  3  0  0  0  0  0  0
  184.3790  178.4310  142.9910 C   0  0  0  0  0  0  0  0  0  0  0  0
  189.4930  177.2830  141.6920 C   0  0  0  0  0  0  0  0  0  0  0  0
  182.2890  178.7890  141.1680 C   0  0  0  0  0  3  0  0  0  0  0  0
  186.7650  178.1670  146.4290 C   0  0  0  0  0  3  0  0  0  0  0  0
  183.1090  178.8140  143.4200 C   0  0  0  0  0  0  0  0  0  0  0  0
  182.0510  178.9980  142.5340 C   0  0  0  0  0  3  0  0  0  0  0  0
  188.8280  177.5040  145.1790 C   0  0  0  0  0  0  0  0  0  0  0  0
  189.7410  177.3410  146.6720 Cl  0  0  0  0  0  0  0  0  0  0  0  0
  190.1850  177.1290  140.5960 C   0  0  0  0  0  3  0  0  0  0  0  0
  187.3090  177.5620  142.6850 C   0  0  0  0  0  2  0  0  0  0  0  0
  183.5640  178.4030  140.7170 C   0  0  0  0  0  3  0  0  0  0  0  0
  184.7100  178.5930  145.2830 C   0  0  0  0  0  0  0  0  0  0  0  0
  183.0860  179.0030  145.0930 S   0  0  0  0  0  0  0  0  0  0  0  0
  189.4480  177.3250  144.0530 N   0  0  0  0  0  0  0  0  0  0  0  0
  184.6170  178.2220  141.6270 C   0  0  0  0  0  3  0  0  0  0  0  0
  188.7980  177.4350  142.7840 C   0  0  0  0  0  0  0  0  0  0  0  0
  187.3940  177.8670  145.2040 C   0  0  0  0  0  0  0  0  0  0  0  0
  189.5660  177.2310  139.2660 C   0  0  0  0  0  0  0  0  0  0  0  0
  189.8250  176.3770  138.3740 O   0  0  0  0  0  0  0  0  0  0  0  0
  188.6430  178.3350  138.9730 C   0  0  0  0  0  0  0  0  0  0  0  0
  187.3070  178.2510  139.3470 O   0  0  0  0  0  1  0  0  0  0  0  0
  189.0550  179.3650  138.3780 O   0  0  0  0  0  0  0  0  0  0  0  0
  1 15  1  0  0  0  0
  2  1  2  0  0  0  0
  2 20  1  0  0  0  0
  4  8  1  0  0  0  0
  4  1  1  0  0  0  0
  5 19  2  0  0  0  0
  6  9  1  0  0  0  0
  7  3  1  0  0  0  0
  8 16  1  0  0  0  0
  9  8  2  0  0  0  0
 10 20  1  0  0  0  0
 10 11  1  0  0  0  0
 12  5  2  0  0  0  0
 13 19  1  0  0  0  0
 13  2  1  0  0  0  0
 14  6  2  0  0  0  0
 14 18  1  0  0  0  0
 15  3  2  0  0  0  0
 16 15  1  0  0  0  0
 17 10  2  0  0  0  0
 18  4  2  0  0  0  0
 19 17  1  0  0  0  0
 20  7  2  0  0  0  0
 21 12  1  0  0  0  0
 22 21  2  0  0  0  0
 23 21  1  0  0  0  0
 23 24  1  0  0  0  0
 25 23  2  0  0  0  0
M  END
>  <MODEL>
9

>  <REMARK>
 VINA RESULT:      -9.8      1.252      1.903
  Name = 
  2 active torsions:
  status: ('A' for Active; 'I' for Inactive)
    1  A    between atoms: C_2  and  C_21
    2  A    between atoms: C_15  and  C_21
                            x       y       z     vdW  Elec       q    Type
                         _______ _______ _______ _____ _____    ______ ____

>  <TORSDO>
F 2

$$$$
