=
 OpenBabel11052413533D

 27 30  0  0  1  0  0  0  0  0999 V2000
  187.4340  177.6550  142.2130 C   0  0  2  0  0  3  0  0  0  0  0  0
  187.2820  177.1740  143.6380 C   0  0  0  0  0  2  0  0  0  0  0  0
  189.3740  178.3150  143.4690 N   0  0  1  0  0  0  0  0  0  0  0  0
  190.7740  178.0980  143.4850 N   0  0  0  0  0  2  0  0  0  0  0  0
  188.7750  178.3800  142.1140 C   0  0  1  0  0  3  0  0  0  0  0  0
  188.6900  177.2380  144.1830 C   0  0  1  0  0  3  0  0  0  0  0  0
  190.6360  177.0220  141.3290 N   0  0  0  0  0  0  0  0  0  0  0  0
  189.5980  177.7290  141.0200 C   0  0  0  0  0  0  0  0  0  0  0  0
  191.0960  177.0190  142.6460 N   0  0  0  0  0  2  0  0  0  0  0  0
  189.7220  177.3650  147.8860 C   0  0  0  0  0  3  0  0  0  0  0  0
  188.5580  177.8930  148.4460 C   0  0  0  0  0  3  0  0  0  0  0  0
  187.5340  177.9450  146.2580 C   0  0  0  0  0  3  0  0  0  0  0  0
  188.6940  177.4080  145.6810 C   0  0  0  0  0  0  0  0  0  0  0  0
  187.4640  178.1830  147.6310 C   0  0  0  0  0  3  0  0  0  0  0  0
  189.8060  177.1190  146.5050 C   0  0  0  0  0  0  0  0  0  0  0  0
  192.0190  176.0300  146.7450 C   0  0  0  0  0  1  0  0  0  0  0  0
  190.9760  176.5860  145.9520 O   0  0  0  0  0  0  0  0  0  0  0  0
  189.1920  177.8350  139.6060 C   0  0  0  0  0  0  0  0  0  0  0  0
  188.8120  178.9420  139.1380 O   0  0  0  0  0  0  0  0  0  0  0  0
  189.2040  176.6900  138.7600 N   0  0  0  0  0  1  0  0  0  0  0  0
  186.2710  178.4150  141.7200 N   0  0  0  0  0  2  0  0  0  0  0  0
  182.5110  178.8620  143.7130 C   0  0  0  0  0  2  0  0  0  0  0  0
  185.0410  178.3130  142.5210 C   0  0  1  0  0  3  0  0  0  0  0  0
  184.9210  179.3430  143.6230 C   0  0  0  0  0  3  0  0  0  0  0  0
  183.7340  179.5920  144.1890 C   0  0  0  0  0  3  0  0  0  0  0  0
  182.5270  178.8050  142.1870 C   0  0  0  0  0  2  0  0  0  0  0  0
  183.7700  178.0540  141.6790 C   0  0  0  0  0  2  0  0  0  0  0  0
  1 21  1  1  0  0  0
  1  2  1  0  0  0  0
  2  6  1  0  0  0  0
  3  4  1  6  0  0  0
  3  6  1  0  0  0  0
  5  8  1  6  0  0  0
  5  1  1  0  0  0  0
  5  3  1  0  0  0  0
  6 13  1  1  0  0  0
  7  9  1  0  0  0  0
  8  7  2  0  0  0  0
  9  4  1  0  0  0  0
 10 11  1  0  0  0  0
 12 14  1  0  0  0  0
 13 12  2  0  0  0  0
 13 15  1  0  0  0  0
 14 11  2  0  0  0  0
 15 10  2  0  0  0  0
 17 15  1  0  0  0  0
 17 16  1  0  0  0  0
 18  8  1  0  0  0  0
 19 18  2  0  0  0  0
 20 18  1  0  0  0  0
 22 25  1  0  0  0  0
 23 21  1  6  0  0  0
 23 24  1  0  0  0  0
 24 25  2  0  0  0  0
 26 22  1  0  0  0  0
 27 26  1  0  0  0  0
 27 23  1  0  0  0  0
M  END
>  <MODEL>
1

>  <REMARK>
 VINA RESULT:      -9.6      0.000      0.000
  Name = 
  5 active torsions:
  status: ('A' for Active; 'I' for Inactive)
    1  A    between atoms: C_1  and  N_15
    2  A    between atoms: C_9  and  N_15
    3  A    between atoms: C_10  and  C_24
    4  A    between atoms: C_14  and  C_19
    5  A    between atoms: C_17  and  O_21
                            x       y       z     vdW  Elec       q    Type
                         _______ _______ _______ _____ _____    ______ ____

>  <TORSDO>
F 5

$$$$
=
 OpenBabel11052413533D

 27 30  0  0  1  0  0  0  0  0999 V2000
  187.2270  178.0420  142.0770 C   0  0  2  0  0  3  0  0  0  0  0  0
  186.9880  177.5780  143.4960 C   0  0  0  0  0  2  0  0  0  0  0  0
  189.2860  178.2030  143.3050 N   0  0  1  0  0  0  0  0  0  0  0  0
  190.5970  177.6660  143.2890 N   0  0  0  0  0  2  0  0  0  0  0  0
  188.6980  178.4360  141.9640 C   0  0  1  0  0  3  0  0  0  0  0  0
  188.3800  177.3000  144.0140 C   0  0  1  0  0  3  0  0  0  0  0  0
  190.1780  176.6990  141.1190 N   0  0  0  0  0  0  0  0  0  0  0  0
  189.3300  177.6350  140.8420 C   0  0  0  0  0  0  0  0  0  0  0  0
  190.6450  176.5600  142.4260 N   0  0  0  0  0  2  0  0  0  0  0  0
  189.5520  177.2930  147.6760 C   0  0  0  0  0  3  0  0  0  0  0  0
  188.4330  177.8540  148.2920 C   0  0  0  0  0  3  0  0  0  0  0  0
  187.3320  178.0010  146.1470 C   0  0  0  0  0  3  0  0  0  0  0  0
  188.4460  177.4330  145.5140 C   0  0  0  0  0  0  0  0  0  0  0  0
  187.3230  178.2080  147.5270 C   0  0  0  0  0  3  0  0  0  0  0  0
  189.5760  177.0780  146.2880 C   0  0  0  0  0  0  0  0  0  0  0  0
  191.8930  176.2070  146.3940 C   0  0  0  0  0  1  0  0  0  0  0  0
  190.7010  176.5120  145.6790 O   0  0  0  0  0  0  0  0  0  0  0  0
  188.9390  177.8630  139.4390 C   0  0  0  0  0  0  0  0  0  0  0  0
  188.7730  179.0370  139.0110 O   0  0  0  0  0  0  0  0  0  0  0  0
  188.7240  176.7650  138.5580 N   0  0  0  0  0  1  0  0  0  0  0  0
  186.2650  179.0620  141.6200 N   0  0  0  0  0  2  0  0  0  0  0  0
  182.3550  178.3920  140.0160 C   0  0  0  0  0  2  0  0  0  0  0  0
  185.0090  178.5590  141.0430 C   0  0  1  0  0  3  0  0  0  0  0  0
  183.8210  178.6180  141.9790 C   0  0  0  0  0  3  0  0  0  0  0  0
  182.5760  178.5280  141.4960 C   0  0  0  0  0  3  0  0  0  0  0  0
  183.2920  179.3510  139.2830 C   0  0  0  0  0  2  0  0  0  0  0  0
  184.7630  179.0210  139.5880 C   0  0  0  0  0  2  0  0  0  0  0  0
  1 21  1  1  0  0  0
  1  2  1  0  0  0  0
  2  6  1  0  0  0  0
  3  4  1  6  0  0  0
  3  6  1  0  0  0  0
  5  8  1  6  0  0  0
  5  1  1  0  0  0  0
  5  3  1  0  0  0  0
  6 13  1  1  0  0  0
  7  9  1  0  0  0  0
  8  7  2  0  0  0  0
  9  4  1  0  0  0  0
 10 11  1  0  0  0  0
 12 14  1  0  0  0  0
 13 12  2  0  0  0  0
 13 15  1  0  0  0  0
 14 11  2  0  0  0  0
 15 10  2  0  0  0  0
 17 15  1  0  0  0  0
 17 16  1  0  0  0  0
 18  8  1  0  0  0  0
 19 18  2  0  0  0  0
 20 18  1  0  0  0  0
 22 25  1  0  0  0  0
 23 21  1  1  0  0  0
 23 24  1  0  0  0  0
 25 24  2  0  0  0  0
 26 27  1  0  0  0  0
 26 22  1  0  0  0  0
 27 23  1  0  0  0  0
M  END
>  <MODEL>
2

>  <REMARK>
 VINA RESULT:      -8.8      0.970      1.352
  Name = 
  5 active torsions:
  status: ('A' for Active; 'I' for Inactive)
    1  A    between atoms: C_1  and  N_15
    2  A    between atoms: C_9  and  N_15
    3  A    between atoms: C_10  and  C_24
    4  A    between atoms: C_14  and  C_19
    5  A    between atoms: C_17  and  O_21
                            x       y       z     vdW  Elec       q    Type
                         _______ _______ _______ _____ _____    ______ ____

>  <TORSDO>
F 5

$$$$
=
 OpenBabel11052413533D

 27 30  0  0  1  0  0  0  0  0999 V2000
  187.4130  177.8250  142.1120 C   0  0  2  0  0  3  0  0  0  0  0  0
  187.3810  177.3520  143.5480 C   0  0  0  0  0  2  0  0  0  0  0  0
  189.5730  178.1920  143.1030 N   0  0  1  0  0  0  0  0  0  0  0  0
  190.9190  177.7830  142.9380 N   0  0  0  0  0  2  0  0  0  0  0  0
  188.8190  178.3570  141.8370 C   0  0  1  0  0  3  0  0  0  0  0  0
  188.8420  177.2130  143.9060 C   0  0  1  0  0  3  0  0  0  0  0  0
  190.3550  176.7640  140.8250 N   0  0  0  0  0  0  0  0  0  0  0  0
  189.3940  177.6120  140.6480 C   0  0  0  0  0  0  0  0  0  0  0  0
  190.9760  176.6800  142.0720 N   0  0  0  0  0  2  0  0  0  0  0  0
  188.3740  177.8910  147.6620 C   0  0  0  0  0  3  0  0  0  0  0  0
  189.6140  177.4690  148.1430 C   0  0  0  0  0  3  0  0  0  0  0  0
  190.3020  176.9360  145.8890 C   0  0  0  0  0  3  0  0  0  0  0  0
  189.0630  177.3620  145.3890 C   0  0  0  0  0  0  0  0  0  0  0  0
  190.5780  176.9910  147.2560 C   0  0  0  0  0  3  0  0  0  0  0  0
  188.0820  177.8420  146.2880 C   0  0  0  0  0  0  0  0  0  0  0  0
  185.7570  178.6040  146.6790 C   0  0  0  0  0  1  0  0  0  0  0  0
  186.8380  178.2700  145.8150 O   0  0  0  0  0  0  0  0  0  0  0  0
  188.8290  177.7900  139.2990 C   0  0  0  0  0  0  0  0  0  0  0  0
  188.3490  176.8040  138.6780 O   0  0  0  0  0  0  0  0  0  0  0  0
  188.8360  179.0690  138.6720 N   0  0  0  0  0  1  0  0  0  0  0  0
  186.3140  178.7450  141.7700 N   0  0  0  0  0  2  0  0  0  0  0  0
  182.3550  178.7790  143.3920 C   0  0  0  0  0  2  0  0  0  0  0  0
  185.0350  178.5150  142.4590 C   0  0  1  0  0  3  0  0  0  0  0  0
  184.6860  179.5580  143.4990 C   0  0  0  0  0  3  0  0  0  0  0  0
  183.4280  179.6730  143.9440 C   0  0  0  0  0  3  0  0  0  0  0  0
  182.5230  178.6750  141.8780 C   0  0  0  0  0  2  0  0  0  0  0  0
  183.8910  178.0700  141.5190 C   0  0  0  0  0  2  0  0  0  0  0  0
  1 21  1  1  0  0  0
  1  2  1  0  0  0  0
  2  6  1  0  0  0  0
  3  4  1  6  0  0  0
  3  6  1  0  0  0  0
  5  8  1  6  0  0  0
  5  1  1  0  0  0  0
  5  3  1  0  0  0  0
  6 13  1  1  0  0  0
  7  9  1  0  0  0  0
  8  7  2  0  0  0  0
  9  4  1  0  0  0  0
 10 11  1  0  0  0  0
 12 14  1  0  0  0  0
 13 12  2  0  0  0  0
 13 15  1  0  0  0  0
 14 11  2  0  0  0  0
 15 10  2  0  0  0  0
 17 15  1  0  0  0  0
 17 16  1  0  0  0  0
 18  8  1  0  0  0  0
 19 18  2  0  0  0  0
 20 18  1  0  0  0  0
 22 25  1  0  0  0  0
 23 21  1  6  0  0  0
 23 24  1  0  0  0  0
 24 25  2  0  0  0  0
 26 22  1  0  0  0  0
 27 26  1  0  0  0  0
 27 23  1  0  0  0  0
M  END
>  <MODEL>
3

>  <REMARK>
 VINA RESULT:      -8.7      1.225      1.990
  Name = 
  5 active torsions:
  status: ('A' for Active; 'I' for Inactive)
    1  A    between atoms: C_1  and  N_15
    2  A    between atoms: C_9  and  N_15
    3  A    between atoms: C_10  and  C_24
    4  A    between atoms: C_14  and  C_19
    5  A    between atoms: C_17  and  O_21
                            x       y       z     vdW  Elec       q    Type
                         _______ _______ _______ _____ _____    ______ ____

>  <TORSDO>
F 5

$$$$
=
 OpenBabel11052413533D

 27 30  0  0  1  0  0  0  0  0999 V2000
  187.0230  178.2030  141.6520 C   0  0  2  0  0  3  0  0  0  0  0  0
  186.8490  177.6770  143.0580 C   0  0  0  0  0  2  0  0  0  0  0  0
  189.1340  178.3250  142.7960 N   0  0  1  0  0  0  0  0  0  0  0  0
  190.4450  177.7990  142.7000 N   0  0  0  0  0  2  0  0  0  0  0  0
  188.4870  178.6120  141.4930 C   0  0  1  0  0  3  0  0  0  0  0  0
  188.2640  177.3870  143.5030 C   0  0  1  0  0  3  0  0  0  0  0  0
  189.9370  176.9240  140.5090 N   0  0  0  0  0  0  0  0  0  0  0  0
  189.0730  177.8640  140.3110 C   0  0  0  0  0  0  0  0  0  0  0  0
  190.4620  176.7320  141.7880 N   0  0  0  0  0  2  0  0  0  0  0  0
  187.5630  177.8380  147.2570 C   0  0  0  0  0  3  0  0  0  0  0  0
  188.7820  177.4120  147.7860 C   0  0  0  0  0  3  0  0  0  0  0  0
  189.6110  177.0230  145.5500 C   0  0  0  0  0  3  0  0  0  0  0  0
  188.3950  177.4540  145.0030 C   0  0  0  0  0  0  0  0  0  0  0  0
  189.8060  177.0040  146.9320 C   0  0  0  0  0  3  0  0  0  0  0  0
  187.3530  177.8630  145.8680 C   0  0  0  0  0  0  0  0  0  0  0  0
  185.0320  178.6760  146.1690 C   0  0  0  0  0  1  0  0  0  0  0  0
  186.1290  178.2940  145.3470 O   0  0  0  0  0  0  0  0  0  0  0  0
  188.6200  178.1500  138.9370 C   0  0  0  0  0  0  0  0  0  0  0  0
  188.9290  179.2390  138.3830 O   0  0  0  0  0  0  0  0  0  0  0  0
  187.8140  177.2140  138.2290 N   0  0  0  0  0  1  0  0  0  0  0  0
  186.0380  179.2350  141.2820 N   0  0  0  0  0  2  0  0  0  0  0  0
  182.1070  178.6010  139.7150 C   0  0  0  0  0  2  0  0  0  0  0  0
  184.7820  178.7520  140.6880 C   0  0  1  0  0  3  0  0  0  0  0  0
  183.6190  178.6750  141.6530 C   0  0  0  0  0  3  0  0  0  0  0  0
  182.3640  178.5930  141.1950 C   0  0  0  0  0  3  0  0  0  0  0  0
  182.9920  179.6610  139.0610 C   0  0  0  0  0  2  0  0  0  0  0  0
  184.4810  179.3500  139.2940 C   0  0  0  0  0  2  0  0  0  0  0  0
  1 21  1  1  0  0  0
  1  2  1  0  0  0  0
  2  6  1  0  0  0  0
  3  4  1  6  0  0  0
  3  6  1  0  0  0  0
  5  8  1  6  0  0  0
  5  1  1  0  0  0  0
  5  3  1  0  0  0  0
  6 13  1  1  0  0  0
  7  9  1  0  0  0  0
  8  7  2  0  0  0  0
  9  4  1  0  0  0  0
 10 11  1  0  0  0  0
 12 14  1  0  0  0  0
 13 12  2  0  0  0  0
 13 15  1  0  0  0  0
 14 11  2  0  0  0  0
 15 10  2  0  0  0  0
 17 15  1  0  0  0  0
 17 16  1  0  0  0  0
 18  8  1  0  0  0  0
 19 18  2  0  0  0  0
 20 18  1  0  0  0  0
 22 25  1  0  0  0  0
 23 21  1  1  0  0  0
 23 24  1  0  0  0  0
 25 24  2  0  0  0  0
 26 27  1  0  0  0  0
 26 22  1  0  0  0  0
 27 23  1  0  0  0  0
M  END
>  <MODEL>
4

>  <REMARK>
 VINA RESULT:      -8.3      1.670      2.567
  Name = 
  5 active torsions:
  status: ('A' for Active; 'I' for Inactive)
    1  A    between atoms: C_1  and  N_15
    2  A    between atoms: C_9  and  N_15
    3  A    between atoms: C_10  and  C_24
    4  A    between atoms: C_14  and  C_19
    5  A    between atoms: C_17  and  O_21
                            x       y       z     vdW  Elec       q    Type
                         _______ _______ _______ _____ _____    ______ ____

>  <TORSDO>
F 5

$$$$
=
 OpenBabel11052413533D

 27 30  0  0  1  0  0  0  0  0999 V2000
  188.0850  178.0250  141.9930 C   0  0  2  0  0  3  0  0  0  0  0  0
  189.3140  178.1020  142.8700 C   0  0  0  0  0  2  0  0  0  0  0  0
  187.5640  177.0960  144.1480 N   0  0  1  0  0  0  0  0  0  0  0  0
  186.6980  177.3310  145.2440 N   0  0  0  0  0  2  0  0  0  0  0  0
  186.9710  177.3840  142.8200 C   0  0  1  0  0  3  0  0  0  0  0  0
  188.7630  177.9250  144.2650 C   0  0  1  0  0  3  0  0  0  0  0  0
  185.4720  178.9440  143.9320 N   0  0  0  0  0  0  0  0  0  0  0  0
  185.7820  178.3230  142.8410 C   0  0  0  0  0  0  0  0  0  0  0  0
  186.1160  178.6030  145.1230 N   0  0  0  0  0  2  0  0  0  0  0  0
  190.7380  176.8690  147.3920 C   0  0  0  0  0  3  0  0  0  0  0  0
  191.7670  176.1390  146.7950 C   0  0  0  0  0  3  0  0  0  0  0  0
  190.8370  176.6170  144.6170 C   0  0  0  0  0  3  0  0  0  0  0  0
  189.8000  177.3590  145.2000 C   0  0  0  0  0  0  0  0  0  0  0  0
  191.8160  176.0130  145.4080 C   0  0  0  0  0  3  0  0  0  0  0  0
  189.7450  177.4830  146.6080 C   0  0  0  0  0  0  0  0  0  0  0  0
  188.2450  177.9370  148.5270 C   0  0  0  0  0  1  0  0  0  0  0  0
  188.7190  178.2150  147.2140 O   0  0  0  0  0  0  0  0  0  0  0  0
  185.0100  178.5920  141.6140 C   0  0  0  0  0  0  0  0  0  0  0  0
  185.2500  179.6230  140.9290 O   0  0  0  0  0  0  0  0  0  0  0  0
  183.9740  177.7070  141.1990 N   0  0  0  0  0  1  0  0  0  0  0  0
  188.3340  177.4000  140.6810 N   0  0  0  0  0  2  0  0  0  0  0  0
  187.7900  179.1580  136.8180 C   0  0  0  0  0  2  0  0  0  0  0  0
  188.0530  178.2320  139.5010 C   0  0  1  0  0  3  0  0  0  0  0  0
  189.2770  178.6270  138.7050 C   0  0  0  0  0  3  0  0  0  0  0  0
  189.1510  179.0720  137.4480 C   0  0  0  0  0  3  0  0  0  0  0  0
  187.0000  177.8980  137.1660 C   0  0  0  0  0  2  0  0  0  0  0  0
  186.8240  177.7640  138.6880 C   0  0  0  0  0  2  0  0  0  0  0  0
  1 21  1  6  0  0  0
  1  5  1  0  0  0  0
  1  2  1  0  0  0  0
  2  6  1  0  0  0  0
  3  6  1  0  0  0  0
  3  4  1  1  0  0  0
  5  8  1  1  0  0  0
  5  3  1  0  0  0  0
  6 13  1  1  0  0  0
  7  9  1  0  0  0  0
  8  7  2  0  0  0  0
  9  4  1  0  0  0  0
 11 10  1  0  0  0  0
 12 13  2  0  0  0  0
 12 14  1  0  0  0  0
 13 15  1  0  0  0  0
 14 11  2  0  0  0  0
 15 17  1  0  0  0  0
 15 10  2  0  0  0  0
 17 16  1  0  0  0  0
 18  8  1  0  0  0  0
 19 18  2  0  0  0  0
 20 18  1  0  0  0  0
 22 26  1  0  0  0  0
 22 25  1  0  0  0  0
 23 21  1  1  0  0  0
 24 23  1  0  0  0  0
 25 24  2  0  0  0  0
 26 27  1  0  0  0  0
 27 23  1  0  0  0  0
M  END
>  <MODEL>
5

>  <REMARK>
 VINA RESULT:      -8.3      2.132      4.616
  Name = 
  5 active torsions:
  status: ('A' for Active; 'I' for Inactive)
    1  A    between atoms: C_1  and  N_15
    2  A    between atoms: C_9  and  N_15
    3  A    between atoms: C_10  and  C_24
    4  A    between atoms: C_14  and  C_19
    5  A    between atoms: C_17  and  O_21
                            x       y       z     vdW  Elec       q    Type
                         _______ _______ _______ _____ _____    ______ ____

>  <TORSDO>
F 5

$$$$
=
 OpenBabel11052413533D

 27 30  0  0  1  0  0  0  0  0999 V2000
  187.8900  177.5670  142.2930 C   0  0  2  0  0  3  0  0  0  0  0  0
  189.0440  176.7390  141.7760 C   0  0  0  0  0  2  0  0  0  0  0  0
  188.7370  178.5810  140.2860 N   0  0  1  0  0  0  0  0  0  0  0  0
  188.3070  178.9040  138.9750 N   0  0  0  0  0  2  0  0  0  0  0  0
  187.6990  178.7390  141.3330 C   0  0  1  0  0  3  0  0  0  0  0  0
  189.1860  177.1900  140.3410 C   0  0  1  0  0  3  0  0  0  0  0  0
  186.0300  178.4000  139.5950 N   0  0  0  0  0  0  0  0  0  0  0  0
  186.2710  178.7220  140.8240 C   0  0  0  0  0  0  0  0  0  0  0  0
  187.0920  178.2550  138.7020 N   0  0  0  0  0  2  0  0  0  0  0  0
  192.2490  176.2860  138.1990 C   0  0  0  0  0  3  0  0  0  0  0  0
  193.2690  176.7970  139.0030 C   0  0  0  0  0  3  0  0  0  0  0  0
  191.6270  177.5020  140.6290 C   0  0  0  0  0  3  0  0  0  0  0  0
  190.5910  176.9880  139.8360 C   0  0  0  0  0  0  0  0  0  0  0  0
  192.9570  177.4050  140.2180 C   0  0  0  0  0  3  0  0  0  0  0  0
  190.9050  176.3770  138.6000 C   0  0  0  0  0  0  0  0  0  0  0  0
  189.5240  176.4440  136.5440 C   0  0  0  0  0  1  0  0  0  0  0  0
  189.8900  175.8590  137.7890 O   0  0  0  0  0  0  0  0  0  0  0  0
  185.1430  179.0020  141.7310 C   0  0  0  0  0  0  0  0  0  0  0  0
  185.3060  179.7550  142.7290 O   0  0  0  0  0  0  0  0  0  0  0  0
  183.8660  178.4130  141.5060 N   0  0  0  0  0  1  0  0  0  0  0  0
  188.0170  177.9330  143.7160 N   0  0  0  0  0  2  0  0  0  0  0  0
  191.2330  176.7510  146.2790 C   0  0  0  0  0  2  0  0  0  0  0  0
  189.1000  177.2740  144.4630 C   0  0  1  0  0  3  0  0  0  0  0  0
  190.4760  177.8500  144.2120 C   0  0  0  0  0  3  0  0  0  0  0  0
  191.4800  177.5940  145.0600 C   0  0  0  0  0  3  0  0  0  0  0  0
  189.9080  177.1700  146.9140 C   0  0  0  0  0  2  0  0  0  0  0  0
  188.7410  176.9620  145.9340 C   0  0  0  0  0  2  0  0  0  0  0  0
  1 21  1  1  0  0  0
  2  1  1  0  0  0  0
  3  4  1  6  0  0  0
  3  6  1  0  0  0  0
  3  5  1  0  0  0  0
  5  8  1  6  0  0  0
  5  1  1  0  0  0  0
  6 13  1  1  0  0  0
  6  2  1  0  0  0  0
  7  8  2  0  0  0  0
  8 18  1  0  0  0  0
  9  4  1  0  0  0  0
  9  7  1  0  0  0  0
 10 15  2  0  0  0  0
 10 11  1  0  0  0  0
 11 14  2  0  0  0  0
 13 12  2  0  0  0  0
 14 12  1  0  0  0  0
 15 13  1  0  0  0  0
 16 17  1  0  0  0  0
 17 15  1  0  0  0  0
 18 19  2  0  0  0  0
 20 18  1  0  0  0  0
 22 26  1  0  0  0  0
 23 21  1  1  0  0  0
 23 27  1  0  0  0  0
 24 23  1  0  0  0  0
 24 25  2  0  0  0  0
 25 22  1  0  0  0  0
 27 26  1  0  0  0  0
M  END
>  <MODEL>
6

>  <REMARK>
 VINA RESULT:      -8.2      2.434      6.630
  Name = 
  5 active torsions:
  status: ('A' for Active; 'I' for Inactive)
    1  A    between atoms: C_1  and  N_15
    2  A    between atoms: C_9  and  N_15
    3  A    between atoms: C_10  and  C_24
    4  A    between atoms: C_14  and  C_19
    5  A    between atoms: C_17  and  O_21
                            x       y       z     vdW  Elec       q    Type
                         _______ _______ _______ _____ _____    ______ ____

>  <TORSDO>
F 5

$$$$
=
 OpenBabel11052413533D

 27 30  0  0  1  0  0  0  0  0999 V2000
  188.3740  177.7440  141.4980 C   0  0  2  0  0  3  0  0  0  0  0  0
  187.2820  177.5750  142.5300 C   0  0  0  0  0  2  0  0  0  0  0  0
  189.3030  178.1190  143.6840 N   0  0  1  0  0  0  0  0  0  0  0  0
  190.2830  177.5720  144.5480 N   0  0  0  0  0  2  0  0  0  0  0  0
  189.6620  178.0880  142.2450 C   0  0  1  0  0  3  0  0  0  0  0  0
  188.0440  177.3870  143.8210 C   0  0  1  0  0  3  0  0  0  0  0  0
  191.1110  176.1990  142.7450 N   0  0  0  0  0  0  0  0  0  0  0  0
  190.7240  177.0720  141.8730 C   0  0  0  0  0  0  0  0  0  0  0  0
  190.6880  176.3160  144.0690 N   0  0  0  0  0  2  0  0  0  0  0  0
  186.7970  178.0800  147.3930 C   0  0  0  0  0  3  0  0  0  0  0  0
  185.6240  178.7800  147.1100 C   0  0  0  0  0  3  0  0  0  0  0  0
  186.0470  178.5260  144.7450 C   0  0  0  0  0  3  0  0  0  0  0  0
  187.2250  177.8140  145.0120 C   0  0  0  0  0  0  0  0  0  0  0  0
  185.2480  179.0030  145.7860 C   0  0  0  0  0  3  0  0  0  0  0  0
  187.6090  177.5920  146.3550 C   0  0  0  0  0  0  0  0  0  0  0  0
  189.6560  177.2540  147.7090 C   0  0  0  0  0  1  0  0  0  0  0  0
  188.7820  176.8880  146.6480 O   0  0  0  0  0  0  0  0  0  0  0  0
  191.2750  177.0220  140.5070 C   0  0  0  0  0  0  0  0  0  0  0  0
  192.1790  177.8290  140.1590 O   0  0  0  0  0  0  0  0  0  0  0  0
  190.7820  176.0800  139.5590 N   0  0  0  0  0  1  0  0  0  0  0  0
  188.0150  178.6660  140.4050 N   0  0  0  0  0  2  0  0  0  0  0  0
  187.5340  177.7210  136.2600 C   0  0  0  0  0  2  0  0  0  0  0  0
  187.9380  178.0800  139.0590 C   0  0  1  0  0  3  0  0  0  0  0  0
  186.5380  177.9840  138.4940 C   0  0  0  0  0  3  0  0  0  0  0  0
  186.3500  177.8050  137.1810 C   0  0  0  0  0  3  0  0  0  0  0  0
  188.5470  178.7950  136.6520 C   0  0  0  0  0  2  0  0  0  0  0  0
  189.0370  178.5860  138.0950 C   0  0  0  0  0  2  0  0  0  0  0  0
  1 21  1  6  0  0  0
  1  5  1  0  0  0  0
  1  2  1  0  0  0  0
  2  6  1  0  0  0  0
  3  6  1  0  0  0  0
  3  4  1  1  0  0  0
  5  8  1  1  0  0  0
  5  3  1  0  0  0  0
  6 13  1  1  0  0  0
  7  9  1  0  0  0  0
  8  7  2  0  0  0  0
  9  4  1  0  0  0  0
 11 10  1  0  0  0  0
 12 13  2  0  0  0  0
 12 14  1  0  0  0  0
 13 15  1  0  0  0  0
 14 11  2  0  0  0  0
 15 17  1  0  0  0  0
 15 10  2  0  0  0  0
 17 16  1  0  0  0  0
 18  8  1  0  0  0  0
 19 18  2  0  0  0  0
 20 18  1  0  0  0  0
 22 26  1  0  0  0  0
 22 25  1  0  0  0  0
 23 21  1  1  0  0  0
 24 23  1  0  0  0  0
 25 24  2  0  0  0  0
 26 27  1  0  0  0  0
 27 23  1  0  0  0  0
M  END
>  <MODEL>
7

>  <REMARK>
 VINA RESULT:      -8.0      2.024      3.837
  Name = 
  5 active torsions:
  status: ('A' for Active; 'I' for Inactive)
    1  A    between atoms: C_1  and  N_15
    2  A    between atoms: C_9  and  N_15
    3  A    between atoms: C_10  and  C_24
    4  A    between atoms: C_14  and  C_19
    5  A    between atoms: C_17  and  O_21
                            x       y       z     vdW  Elec       q    Type
                         _______ _______ _______ _____ _____    ______ ____

>  <TORSDO>
F 5

$$$$
=
 OpenBabel11052413533D

 27 30  0  0  1  0  0  0  0  0999 V2000
  188.0850  177.6380  143.4400 C   0  0  2  0  0  3  0  0  0  0  0  0
  188.2940  178.0080  141.9890 C   0  0  0  0  0  2  0  0  0  0  0  0
  190.0040  176.4570  142.6030 N   0  0  1  0  0  0  0  0  0  0  0  0
  191.3980  176.3590  142.8380 N   0  0  0  0  0  2  0  0  0  0  0  0
  189.1850  176.6490  143.8240 C   0  0  1  0  0  3  0  0  0  0  0  0
  189.7190  177.5870  141.7200 C   0  0  1  0  0  3  0  0  0  0  0  0
  191.1490  177.6320  144.8720 N   0  0  0  0  0  0  0  0  0  0  0  0
  189.9380  177.2020  145.0180 C   0  0  0  0  0  0  0  0  0  0  0  0
  191.8140  177.4130  143.6650 N   0  0  0  0  0  2  0  0  0  0  0  0
  191.3070  176.8810  138.2890 C   0  0  0  0  0  3  0  0  0  0  0  0
  190.1630  176.5890  137.5460 C   0  0  0  0  0  3  0  0  0  0  0  0
  188.7980  176.9800  139.5010 C   0  0  0  0  0  3  0  0  0  0  0  0
  189.9380  177.2830  140.2600 C   0  0  0  0  0  0  0  0  0  0  0  0
  188.9080  176.6390  138.1520 C   0  0  0  0  0  3  0  0  0  0  0  0
  191.2120  177.2270  139.6480 C   0  0  0  0  0  0  0  0  0  0  0  0
  193.6740  177.2070  139.9250 C   0  0  0  0  0  1  0  0  0  0  0  0
  192.3640  177.5210  140.3840 O   0  0  0  0  0  0  0  0  0  0  0  0
  189.2850  177.3180  146.3350 C   0  0  0  0  0  0  0  0  0  0  0  0
  188.3580  178.1540  146.5100 O   0  0  0  0  0  0  0  0  0  0  0  0
  189.7040  176.5060  147.4270 N   0  0  0  0  0  1  0  0  0  0  0  0
  186.7110  177.2010  143.7460 N   0  0  0  0  0  2  0  0  0  0  0  0
  183.2000  179.6340  143.9870 C   0  0  0  0  0  2  0  0  0  0  0  0
  185.6840  178.2530  143.7700 C   0  0  1  0  0  3  0  0  0  0  0  0
  184.6500  178.1470  142.6700 C   0  0  0  0  0  3  0  0  0  0  0  0
  183.4890  178.8050  142.7680 C   0  0  0  0  0  3  0  0  0  0  0  0
  183.6420  178.8640  145.2300 C   0  0  0  0  0  2  0  0  0  0  0  0
  185.1520  178.5730  145.1860 C   0  0  0  0  0  2  0  0  0  0  0  0
  1 21  1  6  0  0  0
  1  5  1  0  0  0  0
  2  1  1  0  0  0  0
  3  4  1  1  0  0  0
  3  5  1  0  0  0  0
  4  9  1  0  0  0  0
  5  8  1  1  0  0  0
  6 13  1  6  0  0  0
  6  2  1  0  0  0  0
  6  3  1  0  0  0  0
  7  8  2  0  0  0  0
  8 18  1  0  0  0  0
  9  7  1  0  0  0  0
 10 15  1  0  0  0  0
 11 14  1  0  0  0  0
 11 10  2  0  0  0  0
 12 13  1  0  0  0  0
 14 12  2  0  0  0  0
 15 13  2  0  0  0  0
 15 17  1  0  0  0  0
 16 17  1  0  0  0  0
 18 19  2  0  0  0  0
 18 20  1  0  0  0  0
 22 26  1  0  0  0  0
 23 21  1  1  0  0  0
 23 27  1  0  0  0  0
 24 25  2  0  0  0  0
 24 23  1  0  0  0  0
 25 22  1  0  0  0  0
 27 26  1  0  0  0  0
M  END
>  <MODEL>
8

>  <REMARK>
 VINA RESULT:      -7.9      2.033      5.441
  Name = 
  5 active torsions:
  status: ('A' for Active; 'I' for Inactive)
    1  A    between atoms: C_1  and  N_15
    2  A    between atoms: C_9  and  N_15
    3  A    between atoms: C_10  and  C_24
    4  A    between atoms: C_14  and  C_19
    5  A    between atoms: C_17  and  O_21
                            x       y       z     vdW  Elec       q    Type
                         _______ _______ _______ _____ _____    ______ ____

>  <TORSDO>
F 5

$$$$
=
 OpenBabel11052413533D

 27 30  0  0  1  0  0  0  0  0999 V2000
  189.3720  177.3790  144.3580 C   0  0  2  0  0  3  0  0  0  0  0  0
  187.9540  177.3600  143.8350 C   0  0  0  0  0  2  0  0  0  0  0  0
  187.9200  178.3500  146.0090 N   0  0  1  0  0  0  0  0  0  0  0  0
  187.4930  178.1200  147.3400 N   0  0  0  0  0  2  0  0  0  0  0  0
  189.3400  178.0100  145.7490 C   0  0  1  0  0  3  0  0  0  0  0  0
  187.1180  177.5580  145.0770 C   0  0  1  0  0  3  0  0  0  0  0  0
  189.2040  176.4390  147.6020 N   0  0  0  0  0  0  0  0  0  0  0  0
  189.9550  177.0380  146.7360 C   0  0  0  0  0  0  0  0  0  0  0  0
  187.8710  176.8290  147.7420 N   0  0  0  0  0  2  0  0  0  0  0  0
  184.1010  179.0850  143.2440 C   0  0  0  0  0  3  0  0  0  0  0  0
  183.2110  179.2200  144.3090 C   0  0  0  0  0  3  0  0  0  0  0  0
  184.8750  178.3160  145.8090 C   0  0  0  0  0  3  0  0  0  0  0  0
  185.7840  178.1790  144.7510 C   0  0  0  0  0  0  0  0  0  0  0  0
  183.5980  178.8360  145.5920 C   0  0  0  0  0  3  0  0  0  0  0  0
  185.3900  178.5640  143.4470 C   0  0  0  0  0  0  0  0  0  0  0  0
  185.9400  178.8130  141.0440 C   0  0  0  0  0  1  0  0  0  0  0  0
  186.2780  178.4340  142.3740 O   0  0  0  0  0  0  0  0  0  0  0  0
  191.3920  176.7140  146.6810 C   0  0  0  0  0  0  0  0  0  0  0  0
  191.9180  176.3530  145.5940 O   0  0  0  0  0  0  0  0  0  0  0  0
  192.1970  176.7840  147.8540 N   0  0  0  0  0  1  0  0  0  0  0  0
  190.3400  177.9750  143.4190 N   0  0  0  0  0  2  0  0  0  0  0  0
  190.9960  176.7250  139.3800 C   0  0  0  0  0  2  0  0  0  0  0  0
  190.5070  177.2830  142.1320 C   0  0  1  0  0  3  0  0  0  0  0  0
  189.4810  177.6510  141.0820 C   0  0  0  0  0  3  0  0  0  0  0  0
  189.7070  177.3790  139.7910 C   0  0  0  0  0  3  0  0  0  0  0  0
  192.1500  177.3760  140.1400 C   0  0  0  0  0  2  0  0  0  0  0  0
  191.9770  177.1960  141.6580 C   0  0  0  0  0  2  0  0  0  0  0  0
  1 21  1  6  0  0  0
  1  5  1  0  0  0  0
  2  1  1  0  0  0  0
  2  6  1  0  0  0  0
  3  4  1  1  0  0  0
  4  9  1  0  0  0  0
  5  3  1  0  0  0  0
  5  8  1  1  0  0  0
  6 13  1  6  0  0  0
  6  3  1  0  0  0  0
  7  9  1  0  0  0  0
  8  7  2  0  0  0  0
 10 15  2  0  0  0  0
 10 11  1  0  0  0  0
 11 14  2  0  0  0  0
 13 12  2  0  0  0  0
 14 12  1  0  0  0  0
 15 13  1  0  0  0  0
 16 17  1  0  0  0  0
 17 15  1  0  0  0  0
 18  8  1  0  0  0  0
 18 20  1  0  0  0  0
 19 18  2  0  0  0  0
 22 25  1  0  0  0  0
 22 26  1  0  0  0  0
 23 21  1  1  0  0  0
 24 23  1  0  0  0  0
 25 24  2  0  0  0  0
 26 27  1  0  0  0  0
 27 23  1  0  0  0  0
M  END
>  <MODEL>
9

>  <REMARK>
 VINA RESULT:      -7.7      2.390      6.287
  Name = 
  5 active torsions:
  status: ('A' for Active; 'I' for Inactive)
    1  A    between atoms: C_1  and  N_15
    2  A    between atoms: C_9  and  N_15
    3  A    between atoms: C_10  and  C_24
    4  A    between atoms: C_14  and  C_19
    5  A    between atoms: C_17  and  O_21
                            x       y       z     vdW  Elec       q    Type
                         _______ _______ _______ _____ _____    ______ ____

>  <TORSDO>
F 5

$$$$
