=
 OpenBabel11052412473D

 25 28  0  0  0  0  0  0  0  0999 V2000
  187.5070  177.8840  145.8020 C   0  0  0  0  0  0  0  0  0  0  0  0
  186.7010  178.1400  144.6790 C   0  0  0  0  0  0  0  0  0  0  0  0
  185.6560  178.4220  147.2730 C   0  0  0  0  0  3  0  0  0  0  0  0
  188.8520  177.4750  145.8460 C   0  0  0  0  0  0  0  0  0  0  0  0
  191.4520  176.6840  146.3860 C   0  0  0  0  0  3  0  0  0  0  0  0
  184.8850  178.6660  146.1790 N   0  0  0  0  0  0  0  0  0  0  0  0
  189.3200  177.3190  147.1450 C   0  0  0  0  0  0  0  0  0  0  0  0
  190.5910  176.9310  147.4140 N   0  0  0  0  0  0  0  0  0  0  0  0
  184.5130  178.8220  143.7820 N   0  0  0  0  0  0  0  0  0  0  0  0
  183.1230  179.1990  143.9760 C   0  0  0  0  0  1  0  0  0  0  0  0
  187.2180  177.9490  143.2750 C   0  0  0  0  0  3  0  0  0  0  0  0
  191.0300  176.8280  145.0510 C   0  0  0  0  0  3  0  0  0  0  0  0
  186.9740  178.0300  147.0820 C   0  0  0  0  0  0  0  0  0  0  0  0
  188.1180  177.6690  148.2700 S   0  0  0  0  0  0  0  0  0  0  0  0
  185.0310  178.8000  142.4490 C   0  0  0  0  0  3  0  0  0  0  0  0
  189.7140  177.2290  144.7750 C   0  0  0  0  0  2  0  0  0  0  0  0
  186.2920  178.4380  142.1940 C   0  0  0  0  0  0  0  0  0  0  0  0
  185.3630  178.5370  144.9020 C   0  0  0  0  0  0  0  0  0  0  0  0
  186.7760  178.4110  140.7850 C   0  0  0  0  0  2  0  0  0  0  0  0
  188.2930  178.4220  140.7430 C   0  0  0  0  0  2  0  0  0  0  0  0
  188.7600  178.0630  139.3480 C   0  0  0  0  0  2  0  0  0  0  0  0
  188.9810  179.2340  138.6170 O   0  0  0  0  0  0  0  0  0  0  0  0
  189.0740  178.8260  137.3280 N   0  0  0  0  0  0  0  0  0  0  0  0
  189.7520  177.5420  137.3400 C   0  0  0  0  0  1  0  0  0  0  0  0
  187.7200  178.5720  136.8680 C   0  0  0  0  0  1  0  0  0  0  0  0
  1  4  2  0  0  0  0
  1 13  1  0  0  0  0
  2 18  1  0  0  0  0
  2  1  1  0  0  0  0
  4  7  1  0  0  0  0
  5  8  1  0  0  0  0
  6  3  1  0  0  0  0
  7  8  2  0  0  0  0
  7 14  1  0  0  0  0
  9 10  1  0  0  0  0
  9 18  1  0  0  0  0
 11  2  2  0  0  0  0
 12  5  2  0  0  0  0
 13  3  2  0  0  0  0
 13 14  1  0  0  0  0
 15  9  1  0  0  0  0
 16 12  1  0  0  0  0
 16  4  1  0  0  0  0
 17 15  2  0  0  0  0
 17 11  1  0  0  0  0
 18  6  2  0  0  0  0
 19 17  1  0  0  0  0
 20 19  1  0  0  0  0
 21 20  1  0  0  0  0
 22 21  1  0  0  0  0
 23 24  1  0  0  0  0
 23 22  1  0  0  0  0
 25 23  1  0  0  0  0
M  END
>  <MODEL>
1

>  <REMARK>
 VINA RESULT:      -9.1      0.000      0.000
  Name = 
  5 active torsions:
  status: ('A' for Active; 'I' for Inactive)
    1  A    between atoms: N_2  and  O_25
    2  A    between atoms: C_6  and  C_15
    3  A    between atoms: C_6  and  C_23
    4  A    between atoms: C_15  and  C_21
    5  A    between atoms: C_21  and  O_25
                            x       y       z     vdW  Elec       q    Type
                         _______ _______ _______ _____ _____    ______ ____

>  <TORSDO>
F 5

$$$$
=
 OpenBabel11052412473D

 25 28  0  0  1  0  0  0  0  0999 V2000
  186.1100  178.4430  142.8910 C   0  0  0  0  0  0  0  0  0  0  0  0
  187.2390  178.1410  142.1090 C   0  0  0  0  0  0  0  0  0  0  0  0
  184.8770  179.0670  140.9000 C   0  0  0  0  0  3  0  0  0  0  0  0
  185.9550  178.3480  144.2860 C   0  0  0  0  0  0  0  0  0  0  0  0
  185.2240  178.3170  146.9590 C   0  0  0  0  0  3  0  0  0  0  0  0
  185.9750  178.7700  140.1520 N   0  0  0  0  0  0  0  0  0  0  0  0
  184.6890  178.7340  144.7090 C   0  0  1  0  0  3  0  0  0  0  0  0
  184.3260  178.7200  146.0160 N   0  0  0  0  0  0  0  0  0  0  0  0
  188.2750  178.0330  139.8790 N   0  0  0  0  0  0  0  0  0  0  0  0
  188.1940  178.1700  138.4350 C   0  0  0  0  0  1  0  0  0  0  0  0
  188.5030  177.5950  142.7230 C   0  0  0  0  0  3  0  0  0  0  0  0
  186.5210  177.9160  146.5850 C   0  0  0  0  0  3  0  0  0  0  0  0
  184.9470  178.9030  142.2760 C   0  0  0  0  0  0  0  0  0  0  0  0
  183.7280  179.1980  143.4070 S   0  0  0  0  0  0  0  0  0  0  0  0
  189.5290  177.6650  140.4590 C   0  0  0  0  0  3  0  0  0  0  0  0
  186.8930  177.9310  145.2330 C   0  0  0  0  0  3  0  0  0  0  0  0
  189.6690  177.4960  141.7770 C   0  0  0  0  0  0  0  0  0  0  0  0
  187.1400  178.3170  140.7110 C   0  0  0  0  0  0  0  0  0  0  0  0
  190.9930  177.0930  142.3280 C   0  0  0  0  0  2  0  0  0  0  0  0
  190.8160  176.2640  143.5870 C   0  0  0  0  0  2  0  0  0  0  0  0
  191.4340  176.9950  144.7600 C   0  0  0  0  0  2  0  0  0  0  0  0
  191.9170  176.0640  145.6840 O   0  0  0  0  0  0  0  0  0  0  0  0
  191.8610  176.6990  146.8790 N   0  0  0  0  0  0  0  0  0  0  0  0
  190.4550  176.8470  147.2120 C   0  0  0  0  0  1  0  0  0  0  0  0
  192.4240  175.7930  147.8650 C   0  0  0  0  0  1  0  0  0  0  0  0
  1  4  2  0  0  0  0
  2 11  2  0  0  0  0
  2  1  1  0  0  0  0
  3 13  2  0  0  0  0
  4  7  1  0  0  0  0
  4 16  1  0  0  0  0
  6 18  2  0  0  0  0
  6  3  1  0  0  0  0
  7 14  1  1  0  0  0
  7  8  1  0  0  0  0
  8  5  2  0  0  0  0
  9 15  1  0  0  0  0
  9 18  1  0  0  0  0
 10  9  1  0  0  0  0
 12  5  1  0  0  0  0
 13  1  1  0  0  0  0
 13 14  1  0  0  0  0
 15 17  2  0  0  0  0
 16 12  2  0  0  0  0
 17 19  1  0  0  0  0
 17 11  1  0  0  0  0
 18  2  1  0  0  0  0
 19 20  1  0  0  0  0
 20 21  1  0  0  0  0
 21 22  1  0  0  0  0
 22 23  1  0  0  0  0
 23 24  1  0  0  0  0
 23 25  1  0  0  0  0
M  END
>  <MODEL>
2

>  <REMARK>
 VINA RESULT:      -9.0      2.613      6.254
  Name = 
  5 active torsions:
  status: ('A' for Active; 'I' for Inactive)
    1  A    between atoms: N_2  and  O_25
    2  A    between atoms: C_6  and  C_15
    3  A    between atoms: C_6  and  C_23
    4  A    between atoms: C_15  and  C_21
    5  A    between atoms: C_21  and  O_25
                            x       y       z     vdW  Elec       q    Type
                         _______ _______ _______ _____ _____    ______ ____

>  <TORSDO>
F 5

$$$$
=
 OpenBabel11052412473D

 25 28  0  0  0  0  0  0  0  0999 V2000
  187.0770  177.8760  145.2440 C   0  0  0  0  0  0  0  0  0  0  0  0
  188.3260  177.4570  144.7510 C   0  0  0  0  0  0  0  0  0  0  0  0
  187.9160  177.7590  147.5150 C   0  0  0  0  0  3  0  0  0  0  0  0
  185.9100  178.1970  144.5260 C   0  0  0  0  0  0  0  0  0  0  0  0
  183.4270  178.9080  143.5250 C   0  0  0  0  0  3  0  0  0  0  0  0
  189.1210  177.3550  147.0270 N   0  0  0  0  0  0  0  0  0  0  0  0
  184.8620  178.5740  145.3560 C   0  0  0  0  0  0  0  0  0  0  0  0
  183.6450  178.9240  144.8710 N   0  0  0  0  0  0  0  0  0  0  0  0
  190.6370  176.7560  145.2250 N   0  0  0  0  0  0  0  0  0  0  0  0
  191.7240  176.5160  146.1580 C   0  0  0  0  0  1  0  0  0  0  0  0
  188.5910  177.3340  143.2720 C   0  0  0  0  0  3  0  0  0  0  0  0
  184.4550  178.5320  142.6400 C   0  0  0  0  0  3  0  0  0  0  0  0
  186.8900  178.0190  146.6170 C   0  0  0  0  0  0  0  0  0  0  0  0
  185.3210  178.5310  146.9750 S   0  0  0  0  0  0  0  0  0  0  0  0
  190.8580  176.4830  143.8380 C   0  0  0  0  0  3  0  0  0  0  0  0
  185.7130  178.1710  143.1440 C   0  0  0  0  0  2  0  0  0  0  0  0
  189.9130  176.7040  142.9220 C   0  0  0  0  0  0  0  0  0  0  0  0
  189.3530  177.1990  145.6870 C   0  0  0  0  0  0  0  0  0  0  0  0
  190.2010  176.4220  141.4870 C   0  0  0  0  0  2  0  0  0  0  0  0
  190.1050  177.6930  140.6640 C   0  0  0  0  0  2  0  0  0  0  0  0
  189.0790  177.5050  139.5660 C   0  0  0  0  0  2  0  0  0  0  0  0
  188.3690  178.6950  139.3850 O   0  0  0  0  0  0  0  0  0  0  0  0
  187.9020  178.6310  138.1150 N   0  0  0  0  0  0  0  0  0  0  0  0
  189.0070  178.9820  137.2420 C   0  0  0  0  0  1  0  0  0  0  0  0
  187.5950  177.2360  137.8490 C   0  0  0  0  0  1  0  0  0  0  0  0
  1 13  1  0  0  0  0
  2  1  1  0  0  0  0
  2 18  1  0  0  0  0
  4  1  2  0  0  0  0
  4  7  1  0  0  0  0
  5  8  1  0  0  0  0
  6  3  1  0  0  0  0
  7 14  1  0  0  0  0
  8  7  2  0  0  0  0
  9 18  1  0  0  0  0
  9 10  1  0  0  0  0
 11  2  2  0  0  0  0
 12 16  1  0  0  0  0
 12  5  2  0  0  0  0
 13 14  1  0  0  0  0
 13  3  2  0  0  0  0
 15  9  1  0  0  0  0
 16  4  1  0  0  0  0
 17 11  1  0  0  0  0
 17 15  2  0  0  0  0
 18  6  2  0  0  0  0
 19 17  1  0  0  0  0
 20 19  1  0  0  0  0
 21 20  1  0  0  0  0
 22 21  1  0  0  0  0
 23 22  1  0  0  0  0
 24 23  1  0  0  0  0
 25 23  1  0  0  0  0
M  END
>  <MODEL>
3

>  <REMARK>
 VINA RESULT:      -9.0      1.476      4.564
  Name = 
  5 active torsions:
  status: ('A' for Active; 'I' for Inactive)
    1  A    between atoms: N_2  and  O_25
    2  A    between atoms: C_6  and  C_15
    3  A    between atoms: C_6  and  C_23
    4  A    between atoms: C_15  and  C_21
    5  A    between atoms: C_21  and  O_25
                            x       y       z     vdW  Elec       q    Type
                         _______ _______ _______ _____ _____    ______ ____

>  <TORSDO>
F 5

$$$$
=
 OpenBabel11052412473D

 25 28  0  0  0  0  0  0  0  0999 V2000
  189.3490  177.5460  143.9900 C   0  0  0  0  0  0  0  0  0  0  0  0
  188.3400  177.7430  144.9510 C   0  0  0  0  0  0  0  0  0  0  0  0
  190.9570  177.0970  145.7470 C   0  0  0  0  0  3  0  0  0  0  0  0
  189.2550  177.6220  142.5880 C   0  0  0  0  0  0  0  0  0  0  0  0
  189.5190  177.6690  139.8310 C   0  0  0  0  0  3  0  0  0  0  0  0
  189.9740  177.2890  146.6680 N   0  0  0  0  0  0  0  0  0  0  0  0
  190.4680  177.3640  141.9600 C   0  0  0  0  0  0  0  0  0  0  0  0
  190.6010  177.3850  140.6100 N   0  0  0  0  0  0  0  0  0  0  0  0
  187.6920  177.8110  147.3240 N   0  0  0  0  0  0  0  0  0  0  0  0
  188.0100  177.6400  148.7310 C   0  0  0  0  0  1  0  0  0  0  0  0
  186.9170  178.0400  144.5530 C   0  0  0  0  0  3  0  0  0  0  0  0
  188.2690  177.9390  140.4170 C   0  0  0  0  0  3  0  0  0  0  0  0
  190.6410  177.2280  144.4020 C   0  0  0  0  0  0  0  0  0  0  0  0
  191.6780  177.0370  143.0830 S   0  0  0  0  0  0  0  0  0  0  0  0
  186.3770  178.2480  146.9720 C   0  0  0  0  0  3  0  0  0  0  0  0
  188.1320  177.9160  141.8130 C   0  0  0  0  0  2  0  0  0  0  0  0
  186.0080  178.4000  145.6970 C   0  0  0  0  0  0  0  0  0  0  0  0
  188.6900  177.6030  146.3130 C   0  0  0  0  0  0  0  0  0  0  0  0
  184.6180  178.8380  145.3840 C   0  0  0  0  0  2  0  0  0  0  0  0
  184.5750  179.5560  144.0480 C   0  0  0  0  0  2  0  0  0  0  0  0
  183.6510  178.8120  143.1070 C   0  0  0  0  0  2  0  0  0  0  0  0
  184.4050  177.9710  142.2840 O   0  0  0  0  0  0  0  0  0  0  0  0
  183.8040  178.0410  141.0720 N   0  0  0  0  0  0  0  0  0  0  0  0
  182.4720  178.5760  141.2930 C   0  0  0  0  0  1  0  0  0  0  0  0
  184.5250  179.0390  140.3000 C   0  0  0  0  0  1  0  0  0  0  0  0
  1 13  1  0  0  0  0
  1  2  1  0  0  0  0
  2 18  1  0  0  0  0
  3  6  1  0  0  0  0
  4  1  2  0  0  0  0
  5 12  2  0  0  0  0
  5  8  1  0  0  0  0
  7  4  1  0  0  0  0
  7 14  1  0  0  0  0
  8  7  2  0  0  0  0
  9 10  1  0  0  0  0
 11  2  2  0  0  0  0
 11 17  1  0  0  0  0
 12 16  1  0  0  0  0
 13  3  2  0  0  0  0
 14 13  1  0  0  0  0
 15  9  1  0  0  0  0
 16  4  1  0  0  0  0
 17 15  2  0  0  0  0
 18  6  2  0  0  0  0
 18  9  1  0  0  0  0
 19 17  1  0  0  0  0
 20 19  1  0  0  0  0
 21 20  1  0  0  0  0
 22 21  1  0  0  0  0
 23 24  1  0  0  0  0
 23 22  1  0  0  0  0
 25 23  1  0  0  0  0
M  END
>  <MODEL>
4

>  <REMARK>
 VINA RESULT:      -8.8      2.456      5.264
  Name = 
  5 active torsions:
  status: ('A' for Active; 'I' for Inactive)
    1  A    between atoms: N_2  and  O_25
    2  A    between atoms: C_6  and  C_15
    3  A    between atoms: C_6  and  C_23
    4  A    between atoms: C_15  and  C_21
    5  A    between atoms: C_21  and  O_25
                            x       y       z     vdW  Elec       q    Type
                         _______ _______ _______ _____ _____    ______ ____

>  <TORSDO>
F 5

$$$$
=
 OpenBabel11052412473D

 25 28  0  0  0  0  0  0  0  0999 V2000
  187.1000  177.8710  145.2840 C   0  0  0  0  0  0  0  0  0  0  0  0
  188.3760  177.4720  144.8490 C   0  0  0  0  0  0  0  0  0  0  0  0
  187.8380  177.7720  147.5910 C   0  0  0  0  0  3  0  0  0  0  0  0
  185.9610  178.1700  144.5140 C   0  0  0  0  0  0  0  0  0  0  0  0
  183.5130  178.8370  143.4000 C   0  0  0  0  0  3  0  0  0  0  0  0
  189.0700  177.3880  147.1590 N   0  0  0  0  0  0  0  0  0  0  0  0
  184.8700  178.5310  145.2950 C   0  0  0  0  0  0  0  0  0  0  0  0
  183.6700  178.8590  144.7550 N   0  0  0  0  0  0  0  0  0  0  0  0
  190.6760  176.8120  145.4280 N   0  0  0  0  0  0  0  0  0  0  0  0
  191.7240  176.5930  146.4100 C   0  0  0  0  0  1  0  0  0  0  0  0
  188.7100  177.3520  143.3840 C   0  0  0  0  0  3  0  0  0  0  0  0
  184.5860  178.4770  142.5630 C   0  0  0  0  0  3  0  0  0  0  0  0
  186.8490  178.0130  146.6470 C   0  0  0  0  0  0  0  0  0  0  0  0
  185.2570  178.4980  146.9330 S   0  0  0  0  0  0  0  0  0  0  0  0
  190.9640  176.5400  144.0530 C   0  0  0  0  0  3  0  0  0  0  0  0
  185.8260  178.1390  143.1250 C   0  0  0  0  0  2  0  0  0  0  0  0
  190.0560  176.7440  143.0940 C   0  0  0  0  0  0  0  0  0  0  0  0
  189.3650  177.2340  145.8310 C   0  0  0  0  0  0  0  0  0  0  0  0
  190.4140  176.4650  141.6750 C   0  0  0  0  0  2  0  0  0  0  0  0
  189.5460  177.2820  140.7360 C   0  0  0  0  0  2  0  0  0  0  0  0
  189.8780  176.9220  139.3030 C   0  0  0  0  0  2  0  0  0  0  0  0
  190.8870  175.9540  139.2890 O   0  0  0  0  0  0  0  0  0  0  0  0
  190.6000  175.1690  138.2240 N   0  0  0  0  0  0  0  0  0  0  0  0
  189.9600  176.0180  137.2340 C   0  0  0  0  0  1  0  0  0  0  0  0
  191.8700  174.7550  137.6510 C   0  0  0  0  0  1  0  0  0  0  0  0
  1 13  1  0  0  0  0
  2  1  1  0  0  0  0
  2 18  1  0  0  0  0
  4  1  2  0  0  0  0
  4  7  1  0  0  0  0
  5  8  1  0  0  0  0
  6  3  1  0  0  0  0
  7 14  1  0  0  0  0
  8  7  2  0  0  0  0
  9 18  1  0  0  0  0
  9 10  1  0  0  0  0
 11  2  2  0  0  0  0
 12 16  1  0  0  0  0
 12  5  2  0  0  0  0
 13 14  1  0  0  0  0
 13  3  2  0  0  0  0
 15  9  1  0  0  0  0
 16  4  1  0  0  0  0
 17 11  1  0  0  0  0
 17 15  2  0  0  0  0
 18  6  2  0  0  0  0
 19 17  1  0  0  0  0
 20 19  1  0  0  0  0
 21 20  1  0  0  0  0
 22 21  1  0  0  0  0
 23 22  1  0  0  0  0
 24 23  1  0  0  0  0
 25 23  1  0  0  0  0
M  END
>  <MODEL>
5

>  <REMARK>
 VINA RESULT:      -8.7      1.927      4.826
  Name = 
  5 active torsions:
  status: ('A' for Active; 'I' for Inactive)
    1  A    between atoms: N_2  and  O_25
    2  A    between atoms: C_6  and  C_15
    3  A    between atoms: C_6  and  C_23
    4  A    between atoms: C_15  and  C_21
    5  A    between atoms: C_21  and  O_25
                            x       y       z     vdW  Elec       q    Type
                         _______ _______ _______ _____ _____    ______ ____

>  <TORSDO>
F 5

$$$$
=
 OpenBabel11052412473D

 25 28  0  0  0  0  0  0  0  0999 V2000
  185.8620  178.4020  144.4580 C   0  0  0  0  0  0  0  0  0  0  0  0
  187.0080  178.0820  145.2080 C   0  0  0  0  0  0  0  0  0  0  0  0
  184.5550  178.5590  146.4940 C   0  0  0  0  0  3  0  0  0  0  0  0
  185.7310  178.5360  143.0640 C   0  0  0  0  0  0  0  0  0  0  0  0
  185.0340  178.8920  140.4060 C   0  0  0  0  0  3  0  0  0  0  0  0
  185.6700  178.2500  147.2090 N   0  0  0  0  0  0  0  0  0  0  0  0
  184.4370  178.8640  142.6800 C   0  0  0  0  0  0  0  0  0  0  0  0
  184.0910  179.0400  141.3800 N   0  0  0  0  0  0  0  0  0  0  0  0
  188.0230  177.6750  147.4130 N   0  0  0  0  0  0  0  0  0  0  0  0
  187.9330  177.6300  148.8620 C   0  0  0  0  0  1  0  0  0  0  0  0
  188.3480  177.8710  144.5510 C   0  0  0  0  0  3  0  0  0  0  0  0
  186.3600  178.5600  140.7410 C   0  0  0  0  0  3  0  0  0  0  0  0
  184.6530  178.6340  145.1110 C   0  0  0  0  0  0  0  0  0  0  0  0
  183.4220  179.0000  144.0150 S   0  0  0  0  0  0  0  0  0  0  0  0
  189.2630  177.3170  146.7970 C   0  0  0  0  0  3  0  0  0  0  0  0
  186.7160  178.3780  142.0860 C   0  0  0  0  0  2  0  0  0  0  0  0
  189.4250  177.3610  145.4720 C   0  0  0  0  0  0  0  0  0  0  0  0
  186.8800  178.0130  146.6140 C   0  0  0  0  0  0  0  0  0  0  0  0
  190.7440  176.9980  144.8820 C   0  0  0  0  0  2  0  0  0  0  0  0
  191.0250  177.8350  143.6480 C   0  0  0  0  0  2  0  0  0  0  0  0
  191.0110  176.9460  142.4220 C   0  0  0  0  0  2  0  0  0  0  0  0
  190.1580  177.4940  141.4610 O   0  0  0  0  0  0  0  0  0  0  0  0
  190.5110  176.8910  140.3000 N   0  0  0  0  0  0  0  0  0  0  0  0
  189.6250  177.4070  139.2710 C   0  0  0  0  0  1  0  0  0  0  0  0
  191.8450  177.3620  139.9680 C   0  0  0  0  0  1  0  0  0  0  0  0
  1 13  1  0  0  0  0
  1  2  1  0  0  0  0
  2 18  1  0  0  0  0
  3  6  1  0  0  0  0
  4  1  2  0  0  0  0
  5 12  2  0  0  0  0
  5  8  1  0  0  0  0
  7  4  1  0  0  0  0
  7 14  1  0  0  0  0
  8  7  2  0  0  0  0
  9 10  1  0  0  0  0
 11  2  2  0  0  0  0
 11 17  1  0  0  0  0
 12 16  1  0  0  0  0
 13  3  2  0  0  0  0
 14 13  1  0  0  0  0
 15  9  1  0  0  0  0
 16  4  1  0  0  0  0
 17 15  2  0  0  0  0
 18  6  2  0  0  0  0
 18  9  1  0  0  0  0
 19 17  1  0  0  0  0
 20 19  1  0  0  0  0
 21 20  1  0  0  0  0
 22 21  1  0  0  0  0
 23 22  1  0  0  0  0
 24 23  1  0  0  0  0
 25 23  1  0  0  0  0
M  END
>  <MODEL>
6

>  <REMARK>
 VINA RESULT:      -8.3      2.202      4.988
  Name = 
  5 active torsions:
  status: ('A' for Active; 'I' for Inactive)
    1  A    between atoms: N_2  and  O_25
    2  A    between atoms: C_6  and  C_15
    3  A    between atoms: C_6  and  C_23
    4  A    between atoms: C_15  and  C_21
    5  A    between atoms: C_21  and  O_25
                            x       y       z     vdW  Elec       q    Type
                         _______ _______ _______ _____ _____    ______ ____

>  <TORSDO>
F 5

$$$$
=
 OpenBabel11052412473D

 25 28  0  0  0  0  0  0  0  0999 V2000
  187.1170  177.9490  145.5210 C   0  0  0  0  0  0  0  0  0  0  0  0
  186.2370  178.2090  144.4560 C   0  0  0  0  0  0  0  0  0  0  0  0
  185.3460  178.3920  147.1160 C   0  0  0  0  0  3  0  0  0  0  0  0
  188.4740  177.5800  145.4710 C   0  0  0  0  0  0  0  0  0  0  0  0
  191.1240  176.8540  145.8300 C   0  0  0  0  0  3  0  0  0  0  0  0
  184.5020  178.6410  146.0780 N   0  0  0  0  0  0  0  0  0  0  0  0
  189.0250  177.4040  146.7350 C   0  0  0  0  0  0  0  0  0  0  0  0
  190.3210  177.0480  146.9150 N   0  0  0  0  0  0  0  0  0  0  0  0
  183.9790  178.8480  143.7140 N   0  0  0  0  0  0  0  0  0  0  0  0
  182.5930  179.1770  144.0030 C   0  0  0  0  0  1  0  0  0  0  0  0
  186.6710  178.0700  143.0200 C   0  0  0  0  0  3  0  0  0  0  0  0
  190.6160  177.0190  144.5280 C   0  0  0  0  0  3  0  0  0  0  0  0
  186.6600  178.0450  146.8340 C   0  0  0  0  0  0  0  0  0  0  0  0
  187.8860  177.6890  147.9400 S   0  0  0  0  0  0  0  0  0  0  0  0
  184.4140  178.8750  142.3520 C   0  0  0  0  0  3  0  0  0  0  0  0
  189.2750  177.3870  144.3430 C   0  0  0  0  0  2  0  0  0  0  0  0
  185.6660  178.5580  142.0100 C   0  0  0  0  0  0  0  0  0  0  0  0
  184.9040  178.5600  144.7720 C   0  0  0  0  0  0  0  0  0  0  0  0
  186.0630  178.5820  140.5740 C   0  0  0  0  0  2  0  0  0  0  0  0
  184.8570  178.8490  139.6930 C   0  0  0  0  0  2  0  0  0  0  0  0
  185.0630  178.1910  138.3450 C   0  0  0  0  0  2  0  0  0  0  0  0
  186.4330  178.0910  138.0820 O   0  0  0  0  0  0  0  0  0  0  0  0
  186.5160  177.3500  136.9510 N   0  0  0  0  0  0  0  0  0  0  0  0
  185.1560  177.1070  136.5050 C   0  0  0  0  0  1  0  0  0  0  0  0
  187.1360  178.1900  135.9410 C   0  0  0  0  0  1  0  0  0  0  0  0
  1 13  1  0  0  0  0
  2 18  1  0  0  0  0
  2  1  1  0  0  0  0
  4  1  2  0  0  0  0
  4  7  1  0  0  0  0
  5  8  1  0  0  0  0
  6  3  1  0  0  0  0
  7  8  2  0  0  0  0
  7 14  1  0  0  0  0
  9 10  1  0  0  0  0
  9 18  1  0  0  0  0
 11  2  2  0  0  0  0
 12  5  2  0  0  0  0
 13  3  2  0  0  0  0
 13 14  1  0  0  0  0
 15  9  1  0  0  0  0
 16 12  1  0  0  0  0
 16  4  1  0  0  0  0
 17 15  2  0  0  0  0
 17 11  1  0  0  0  0
 18  6  2  0  0  0  0
 19 17  1  0  0  0  0
 20 19  1  0  0  0  0
 21 20  1  0  0  0  0
 22 21  1  0  0  0  0
 23 22  1  0  0  0  0
 24 23  1  0  0  0  0
 25 23  1  0  0  0  0
M  END
>  <MODEL>
7

>  <REMARK>
 VINA RESULT:      -8.1      1.379      1.721
  Name = 
  5 active torsions:
  status: ('A' for Active; 'I' for Inactive)
    1  A    between atoms: N_2  and  O_25
    2  A    between atoms: C_6  and  C_15
    3  A    between atoms: C_6  and  C_23
    4  A    between atoms: C_15  and  C_21
    5  A    between atoms: C_21  and  O_25
                            x       y       z     vdW  Elec       q    Type
                         _______ _______ _______ _____ _____    ______ ____

>  <TORSDO>
F 5

$$$$
=
 OpenBabel11052412473D

 25 28  0  0  0  0  0  0  0  0999 V2000
  189.5160  177.4860  144.0950 C   0  0  0  0  0  0  0  0  0  0  0  0
  188.8600  177.8060  142.8930 C   0  0  0  0  0  0  0  0  0  0  0  0
  191.5450  176.9750  142.8700 C   0  0  0  0  0  3  0  0  0  0  0  0
  189.0130  177.5200  145.4080 C   0  0  0  0  0  0  0  0  0  0  0  0
  188.4390  177.4390  148.1170 C   0  0  0  0  0  3  0  0  0  0  0  0
  190.9000  177.2880  141.7130 N   0  0  0  0  0  0  0  0  0  0  0  0
  189.9590  177.1350  146.3500 C   0  0  0  0  0  0  0  0  0  0  0  0
  189.6820  177.0950  147.6780 N   0  0  0  0  0  0  0  0  0  0  0  0
  188.9550  178.0000  140.4410 N   0  0  0  0  0  0  0  0  0  0  0  0
  189.6920  177.9310  139.1910 C   0  0  0  0  0  1  0  0  0  0  0  0
  187.4370  178.3030  142.8770 C   0  0  0  0  0  3  0  0  0  0  0  0
  187.4440  177.8360  147.2050 C   0  0  0  0  0  3  0  0  0  0  0  0
  190.8470  177.0740  144.0660 C   0  0  0  0  0  0  0  0  0  0  0  0
  191.4240  176.7470  145.6190 S   0  0  0  0  0  0  0  0  0  0  0  0
  187.5620  178.3200  140.3930 C   0  0  0  0  0  3  0  0  0  0  0  0
  187.7310  177.8770  145.8320 C   0  0  0  0  0  2  0  0  0  0  0  0
  186.8300  178.4260  141.5050 C   0  0  0  0  0  0  0  0  0  0  0  0
  189.5940  177.6970  141.6900 C   0  0  0  0  0  0  0  0  0  0  0  0
  185.3860  178.7820  141.4010 C   0  0  0  0  0  2  0  0  0  0  0  0
  184.7290  178.7440  142.7680 C   0  0  0  0  0  2  0  0  0  0  0  0
  183.2310  178.5930  142.6020 C   0  0  0  0  0  2  0  0  0  0  0  0
  182.5770  179.3240  143.5970 O   0  0  0  0  0  0  0  0  0  0  0  0
  181.3000  179.4410  143.1600 N   0  0  0  0  0  0  0  0  0  0  0  0
  181.2820  178.9780  141.7840 C   0  0  0  0  0  1  0  0  0  0  0  0
  180.5060  178.4940  143.9230 C   0  0  0  0  0  1  0  0  0  0  0  0
  1  4  2  0  0  0  0
  2  1  1  0  0  0  0
  3 13  2  0  0  0  0
  4 16  1  0  0  0  0
  4  7  1  0  0  0  0
  6  3  1  0  0  0  0
  7  8  2  0  0  0  0
  8  5  1  0  0  0  0
  9 18  1  0  0  0  0
 10  9  1  0  0  0  0
 11  2  2  0  0  0  0
 12  5  2  0  0  0  0
 13  1  1  0  0  0  0
 13 14  1  0  0  0  0
 14  7  1  0  0  0  0
 15  9  1  0  0  0  0
 15 17  2  0  0  0  0
 16 12  1  0  0  0  0
 17 11  1  0  0  0  0
 18  6  2  0  0  0  0
 18  2  1  0  0  0  0
 19 17  1  0  0  0  0
 19 20  1  0  0  0  0
 21 20  1  0  0  0  0
 21 22  1  0  0  0  0
 23 22  1  0  0  0  0
 23 25  1  0  0  0  0
 24 23  1  0  0  0  0
M  END
>  <MODEL>
8

>  <REMARK>
 VINA RESULT:      -8.1      2.605      5.545
  Name = 
  5 active torsions:
  status: ('A' for Active; 'I' for Inactive)
    1  A    between atoms: N_2  and  O_25
    2  A    between atoms: C_6  and  C_15
    3  A    between atoms: C_6  and  C_23
    4  A    between atoms: C_15  and  C_21
    5  A    between atoms: C_21  and  O_25
                            x       y       z     vdW  Elec       q    Type
                         _______ _______ _______ _____ _____    ______ ____

>  <TORSDO>
F 5

$$$$
=
 OpenBabel11052412473D

 25 28  0  0  0  0  0  0  0  0999 V2000
  186.4810  178.2180  144.6630 C   0  0  0  0  0  0  0  0  0  0  0  0
  186.6340  178.2450  143.2650 C   0  0  0  0  0  0  0  0  0  0  0  0
  184.1680  178.9090  144.4400 C   0  0  0  0  0  3  0  0  0  0  0  0
  187.4310  177.8850  145.6450 C   0  0  0  0  0  0  0  0  0  0  0  0
  188.9660  177.3160  147.8810 C   0  0  0  0  0  3  0  0  0  0  0  0
  184.3260  178.9310  143.0880 N   0  0  0  0  0  0  0  0  0  0  0  0
  186.9160  177.9700  146.9330 C   0  0  0  0  0  0  0  0  0  0  0  0
  187.6640  177.6920  148.0310 N   0  0  0  0  0  0  0  0  0  0  0  0
  185.6330  178.6660  141.0560 N   0  0  0  0  0  0  0  0  0  0  0  0
  184.4910  179.0050  140.2240 C   0  0  0  0  0  1  0  0  0  0  0  0
  187.9280  177.8460  142.6030 C   0  0  0  0  0  3  0  0  0  0  0  0
  189.5360  177.2150  146.5980 C   0  0  0  0  0  3  0  0  0  0  0  0
  185.2520  178.5510  145.2290 C   0  0  0  0  0  0  0  0  0  0  0  0
  185.3030  178.4480  146.9140 S   0  0  0  0  0  0  0  0  0  0  0  0
  186.8950  178.4440  140.4210 C   0  0  0  0  0  3  0  0  0  0  0  0
  188.7620  177.5030  145.4650 C   0  0  0  0  0  2  0  0  0  0  0  0
  187.9810  178.1040  141.1210 C   0  0  0  0  0  0  0  0  0  0  0  0
  185.5140  178.6120  142.4850 C   0  0  0  0  0  0  0  0  0  0  0  0
  189.2670  177.8640  140.4080 C   0  0  0  0  0  2  0  0  0  0  0  0
  189.0710  177.9660  138.9070 C   0  0  0  0  0  2  0  0  0  0  0  0
  189.5650  176.6950  138.2480 C   0  0  0  0  0  2  0  0  0  0  0  0
  190.3920  176.0030  139.1360 O   0  0  0  0  0  0  0  0  0  0  0  0
  191.2410  175.3020  138.3460 N   0  0  0  0  0  0  0  0  0  0  0  0
  190.5080  174.9610  137.1400 C   0  0  0  0  0  1  0  0  0  0  0  0
  192.2940  176.2180  137.9430 C   0  0  0  0  0  1  0  0  0  0  0  0
  1 13  1  0  0  0  0
  1  4  2  0  0  0  0
  2  1  1  0  0  0  0
  3 13  2  0  0  0  0
  4  7  1  0  0  0  0
  5  8  1  0  0  0  0
  6  3  1  0  0  0  0
  7  8  2  0  0  0  0
  9 18  1  0  0  0  0
 10  9  1  0  0  0  0
 11  2  2  0  0  0  0
 12  5  2  0  0  0  0
 13 14  1  0  0  0  0
 14  7  1  0  0  0  0
 15  9  1  0  0  0  0
 15 17  2  0  0  0  0
 16  4  1  0  0  0  0
 16 12  1  0  0  0  0
 17 11  1  0  0  0  0
 18  6  2  0  0  0  0
 18  2  1  0  0  0  0
 19 17  1  0  0  0  0
 20 19  1  0  0  0  0
 21 20  1  0  0  0  0
 21 22  1  0  0  0  0
 23 22  1  0  0  0  0
 24 23  1  0  0  0  0
 25 23  1  0  0  0  0
M  END
>  <MODEL>
9

>  <REMARK>
 VINA RESULT:      -8.1      1.890      2.819
  Name = 
  5 active torsions:
  status: ('A' for Active; 'I' for Inactive)
    1  A    between atoms: N_2  and  O_25
    2  A    between atoms: C_6  and  C_15
    3  A    between atoms: C_6  and  C_23
    4  A    between atoms: C_15  and  C_21
    5  A    between atoms: C_21  and  O_25
                            x       y       z     vdW  Elec       q    Type
                         _______ _______ _______ _____ _____    ______ ____

>  <TORSDO>
F 5

$$$$
