=
 OpenBabel11052416253D

 43 47  0  0  1  0  0  0  0  0999 V2000
  190.5130  177.4620  140.2400 C   0  0  0  0  0  0  0  0  0  0  0  0
  188.3140  176.9790  138.5210 C   0  0  2  0  0  3  0  0  0  0  0  0
  190.0180  178.0080  142.9280 C   0  0  0  0  0  0  0  0  0  0  0  0
  188.9900  178.1510  141.9880 C   0  0  0  0  0  3  0  0  0  0  0  0
  188.1260  177.9990  139.6450 C   0  0  0  0  0  2  0  0  0  0  0  0
  189.2270  177.8590  140.6450 C   0  0  0  0  0  0  0  0  0  0  0  0
  191.4940  177.3240  141.1740 N   0  0  0  0  0  0  0  0  0  0  0  0
  190.7630  177.1380  138.8550 N   0  0  0  0  0  0  0  0  0  0  0  0
  189.6820  177.1640  137.8650 C   0  0  0  0  0  2  0  0  0  0  0  0
  191.2770  177.5920  142.4900 C   0  0  0  0  0  3  0  0  0  0  0  0
  187.1980  177.0660  137.4840 C   0  0  2  0  0  3  0  0  0  0  0  0
  187.6870  177.5520  136.2680 O   0  0  0  0  0  1  0  0  0  0  0  0
  186.1400  177.9350  137.9750 N   0  0  0  0  0  2  0  0  0  0  0  0
  184.7710  177.5340  138.0470 C   0  0  0  0  0  0  0  0  0  0  0  0
  184.4240  176.3700  137.7120 O   0  0  0  0  0  0  0  0  0  0  0  0
  183.7390  178.5120  138.4990 C   0  0  0  0  0  2  0  0  0  0  0  0
  183.1610  178.1090  139.8570 C   0  0  1  0  0  0  0  0  0  0  0  0
  180.8950  177.3770  138.3490 S   0  0  0  0  0  1  0  0  0  0  0  0
  181.9850  178.9540  140.2920 C   0  0  0  0  0  2  0  0  0  0  0  0
  181.7700  177.4860  139.9460 C   0  0  2  0  0  3  0  0  0  0  0  0
  184.0990  177.7370  141.0010 C   0  0  0  0  0  2  0  0  0  0  0  0
  184.8080  178.9330  141.5560 C   0  0  0  0  0  0  0  0  0  0  0  0
  185.3830  179.7080  140.8050 O   0  0  0  0  0  0  0  0  0  0  0  0
  184.8260  179.1530  143.0360 C   0  0  0  0  0  3  0  0  0  0  0  0
  185.9150  178.5170  145.2000 C   0  0  0  0  0  2  0  0  0  0  0  0
  183.4810  179.1000  145.1480 C   0  0  0  0  0  2  0  0  0  0  0  0
  184.5440  178.2170  145.7980 C   0  0  0  0  0  2  0  0  0  0  0  0
  183.4520  178.8670  143.6410 C   0  0  0  0  0  2  0  0  0  0  0  0
  185.8950  178.2810  143.6920 C   0  0  0  0  0  2  0  0  0  0  0  0
  192.0480  176.7900  138.4050 N   0  0  0  0  0  2  0  0  0  0  0  0
  193.6280  174.6540  135.7660 C   0  0  0  0  0  3  0  0  0  0  0  0
  192.7520  173.5570  135.7510 C   0  0  0  0  0  0  0  0  0  0  0  0
  191.4320  174.6100  137.4920 C   0  0  0  0  0  3  0  0  0  0  0  0
  193.4070  175.7190  136.6430 C   0  0  0  0  0  3  0  0  0  0  0  0
  192.3130  175.6950  137.5200 C   0  0  0  0  0  0  0  0  0  0  0  0
  191.6530  173.5450  136.6160 C   0  0  0  0  0  3  0  0  0  0  0  0
  192.9470  172.4750  134.8880 O   0  0  0  0  0  0  0  0  0  0  0  0
  192.8440  171.1230  135.3150 C   0  0  0  0  0  1  0  0  0  0  0  0
  189.8300  178.3030  144.2850 O   0  0  0  0  0  0  0  0  0  0  0  0
  189.9680  177.3790  145.3320 C   0  0  0  0  0  0  0  0  0  0  0  0
  188.9300  176.9340  145.8870 O   0  0  0  0  0  0  0  0  0  0  0  0
  191.2770  176.9610  145.8580 C   0  0  0  0  0  3  0  0  0  0  0  0
  191.4190  176.3680  147.0360 C   0  0  0  0  0  2  0  0  0  0  0  0
  1  6  2  0  0  0  0
  1  7  1  0  0  0  0
  2 11  1  6  0  0  0
  2  5  1  0  0  0  0
  3 39  1  0  0  0  0
  4  3  2  0  0  0  0
  5  6  1  0  0  0  0
  6  4  1  0  0  0  0
  7 10  2  0  0  0  0
  8  1  1  0  0  0  0
  9  2  1  0  0  0  0
  9  8  1  0  0  0  0
 10  3  1  0  0  0  0
 11 12  1  6  0  0  0
 11 13  1  0  0  0  0
 13 14  1  0  0  0  0
 14 16  1  0  0  0  0
 15 14  2  0  0  0  0
 17 16  1  6  0  0  0
 17 20  1  0  0  0  0
 17 19  1  0  0  0  0
 17 21  1  0  0  0  0
 20 18  1  6  0  0  0
 20 19  1  0  0  0  0
 21 22  1  0  0  0  0
 22 24  1  0  0  0  0
 23 22  2  0  0  0  0
 24 28  1  0  0  0  0
 24 29  1  0  0  0  0
 25 27  1  0  0  0  0
 26 27  1  0  0  0  0
 28 26  1  0  0  0  0
 29 25  1  0  0  0  0
 30  8  1  0  0  0  0
 31 34  1  0  0  0  0
 32 31  2  0  0  0  0
 32 36  1  0  0  0  0
 33 35  1  0  0  0  0
 34 35  2  0  0  0  0
 35 30  1  0  0  0  0
 36 33  2  0  0  0  0
 37 38  1  0  0  0  0
 37 32  1  0  0  0  0
 39 40  1  0  0  0  0
 40 42  1  0  0  0  0
 40 41  2  0  0  0  0
 42 43  2  0  0  0  0
M  END
>  <MODEL>
1

>  <REMARK>
 VINA RESULT:      -8.3      0.000      0.000
  Name = 
  13 active torsions:
  status: ('A' for Active; 'I' for Inactive)
    1  A    between atoms: N_1  and  N_34
    2  A    between atoms: N_1  and  C_35
    3  A    between atoms: C_2  and  N_6
    4  A    between atoms: C_2  and  C_13
    5  A    between atoms: C_3  and  C_4
    6  A    between atoms: C_3  and  C_12
    7  A    between atoms: C_4  and  C_22
    8  A    between atoms: C_5  and  C_18
    9  A    between atoms: C_5  and  O_23
   10  A    between atoms: C_11  and  C_14
   11  A    between atoms: C_14  and  C_22
   12  A    between atoms: C_16  and  O_23
   13  A    between atoms: C_19  and  O_25
                            x       y       z     vdW  Elec       q    Type
                         _______ _______ _______ _____ _____    ______ ____

>  <TORSDO>
F 13

$$$$
=
 OpenBabel11052416253D

 43 47  0  0  1  0  0  0  0  0999 V2000
  188.7630  176.6820  138.0490 C   0  0  0  0  0  0  0  0  0  0  0  0
  190.7480  177.5250  139.8850 C   0  0  2  0  0  3  0  0  0  0  0  0
  186.2660  177.9170  138.1130 C   0  0  0  0  0  0  0  0  0  0  0  0
  187.1200  178.0150  139.2190 C   0  0  0  0  0  3  0  0  0  0  0  0
  189.2950  177.5330  140.3580 C   0  0  0  0  0  2  0  0  0  0  0  0
  188.3790  177.4160  139.1830 C   0  0  0  0  0  0  0  0  0  0  0  0
  187.9180  176.6070  136.9830 N   0  0  0  0  0  0  0  0  0  0  0  0
  190.0730  176.0750  137.9930 N   0  0  0  0  0  0  0  0  0  0  0  0
  191.0360  176.2560  139.0840 C   0  0  0  0  0  2  0  0  0  0  0  0
  186.6920  177.1960  136.9960 C   0  0  0  0  0  3  0  0  0  0  0  0
  191.7250  177.6670  141.0490 C   0  0  2  0  0  3  0  0  0  0  0  0
  192.9900  177.1880  140.6960 O   0  0  0  0  0  1  0  0  0  0  0  0
  191.2220  176.9350  142.2010 N   0  0  0  0  0  2  0  0  0  0  0  0
  191.3460  177.4100  143.5420 C   0  0  0  0  0  0  0  0  0  0  0  0
  191.8780  178.5260  143.7810 O   0  0  0  0  0  0  0  0  0  0  0  0
  190.8640  176.5630  144.6710 C   0  0  0  0  0  2  0  0  0  0  0  0
  189.7190  177.2480  145.4200 C   0  0  1  0  0  0  0  0  0  0  0  0
  191.4700  177.1210  147.6250 S   0  0  0  0  0  1  0  0  0  0  0  0
  189.0950  176.3900  146.4960 C   0  0  0  0  0  2  0  0  0  0  0  0
  189.8820  177.6340  146.8880 C   0  0  2  0  0  3  0  0  0  0  0  0
  188.7060  178.0910  144.6490 C   0  0  0  0  0  2  0  0  0  0  0  0
  187.6390  177.2490  144.0220 C   0  0  0  0  0  0  0  0  0  0  0  0
  187.9430  176.3500  143.2510 O   0  0  0  0  0  0  0  0  0  0  0  0
  186.2030  177.5360  144.3290 C   0  0  0  0  0  3  0  0  0  0  0  0
  184.0770  178.5490  143.4740 C   0  0  0  0  0  2  0  0  0  0  0  0
  184.6110  178.6380  145.9190 C   0  0  0  0  0  2  0  0  0  0  0  0
  183.9620  179.3770  144.7510 C   0  0  0  0  0  2  0  0  0  0  0  0
  186.0790  178.3550  145.6130 C   0  0  0  0  0  2  0  0  0  0  0  0
  185.5430  178.2670  143.1600 C   0  0  0  0  0  2  0  0  0  0  0  0
  190.4710  175.2890  136.8990 N   0  0  0  0  0  2  0  0  0  0  0  0
  193.6790  173.4300  136.3790 C   0  0  0  0  0  3  0  0  0  0  0  0
  194.5410  174.4800  136.0220 C   0  0  0  0  0  0  0  0  0  0  0  0
  192.6990  176.0430  136.2430 C   0  0  0  0  0  3  0  0  0  0  0  0
  192.3350  173.6880  136.6620 C   0  0  0  0  0  3  0  0  0  0  0  0
  191.8370  174.9960  136.5830 C   0  0  0  0  0  0  0  0  0  0  0  0
  194.0430  175.7850  135.9600 C   0  0  0  0  0  3  0  0  0  0  0  0
  195.8890  174.2540  135.7300 O   0  0  0  0  0  0  0  0  0  0  0  0
  196.8920  175.2430  135.9200 C   0  0  0  0  0  1  0  0  0  0  0  0
  184.9870  178.4910  138.1090 O   0  0  0  0  0  0  0  0  0  0  0  0
  184.2840  178.8890  139.2560 C   0  0  0  0  0  0  0  0  0  0  0  0
  184.4740  180.0460  139.7110 O   0  0  0  0  0  0  0  0  0  0  0  0
  183.3870  177.9850  139.9940 C   0  0  0  0  0  3  0  0  0  0  0  0
  182.9560  176.8360  139.4890 C   0  0  0  0  0  2  0  0  0  0  0  0
  1  6  1  0  0  0  0
  2  5  1  0  0  0  0
  2 11  1  1  0  0  0
  3  4  1  0  0  0  0
  6  4  2  0  0  0  0
  6  5  1  0  0  0  0
  7 10  1  0  0  0  0
  7  1  2  0  0  0  0
  8  1  1  0  0  0  0
  8  9  1  0  0  0  0
  9  2  1  0  0  0  0
 10  3  2  0  0  0  0
 11 12  1  6  0  0  0
 11 13  1  0  0  0  0
 13 14  1  0  0  0  0
 14 15  2  0  0  0  0
 14 16  1  0  0  0  0
 16 17  1  0  0  0  0
 17 21  1  6  0  0  0
 17 19  1  0  0  0  0
 17 20  1  0  0  0  0
 19 20  1  0  0  0  0
 20 18  1  1  0  0  0
 22 24  1  0  0  0  0
 22 21  1  0  0  0  0
 23 22  2  0  0  0  0
 24 28  1  0  0  0  0
 25 27  1  0  0  0  0
 27 26  1  0  0  0  0
 28 26  1  0  0  0  0
 29 25  1  0  0  0  0
 29 24  1  0  0  0  0
 30  8  1  0  0  0  0
 31 34  1  0  0  0  0
 32 31  2  0  0  0  0
 33 35  1  0  0  0  0
 35 34  2  0  0  0  0
 35 30  1  0  0  0  0
 36 32  1  0  0  0  0
 36 33  2  0  0  0  0
 37 38  1  0  0  0  0
 37 32  1  0  0  0  0
 39  3  1  0  0  0  0
 39 40  1  0  0  0  0
 40 41  2  0  0  0  0
 40 42  1  0  0  0  0
 43 42  2  0  0  0  0
M  END
>  <MODEL>
2

>  <REMARK>
 VINA RESULT:      -8.2      2.724      6.184
  Name = 
  13 active torsions:
  status: ('A' for Active; 'I' for Inactive)
    1  A    between atoms: N_1  and  N_34
    2  A    between atoms: N_1  and  C_35
    3  A    between atoms: C_2  and  N_6
    4  A    between atoms: C_2  and  C_13
    5  A    between atoms: C_3  and  C_4
    6  A    between atoms: C_3  and  C_12
    7  A    between atoms: C_4  and  C_22
    8  A    between atoms: C_5  and  C_18
    9  A    between atoms: C_5  and  O_23
   10  A    between atoms: C_11  and  C_14
   11  A    between atoms: C_14  and  C_22
   12  A    between atoms: C_16  and  O_23
   13  A    between atoms: C_19  and  O_25
                            x       y       z     vdW  Elec       q    Type
                         _______ _______ _______ _____ _____    ______ ____

>  <TORSDO>
F 13

$$$$
=
 OpenBabel11052416253D

 43 47  0  0  1  0  0  0  0  0999 V2000
  190.4670  177.5240  139.8520 C   0  0  0  0  0  0  0  0  0  0  0  0
  187.9990  177.7210  138.4770 C   0  0  2  0  0  3  0  0  0  0  0  0
  192.6800  176.5060  138.4970 C   0  0  0  0  0  0  0  0  0  0  0  0
  191.3900  176.2630  138.0070 C   0  0  0  0  0  3  0  0  0  0  0  0
  188.9070  176.5390  138.1390 C   0  0  0  0  0  2  0  0  0  0  0  0
  190.2820  176.7870  138.6700 C   0  0  0  0  0  0  0  0  0  0  0  0
  191.7310  177.7530  140.3050 N   0  0  0  0  0  0  0  0  0  0  0  0
  189.3260  178.0890  140.5360 N   0  0  0  0  0  0  0  0  0  0  0  0
  187.9730  177.9530  139.9880 C   0  0  0  0  0  2  0  0  0  0  0  0
  192.8250  177.2600  139.6640 C   0  0  0  0  0  3  0  0  0  0  0  0
  186.5870  177.5260  137.9330 C   0  0  2  0  0  3  0  0  0  0  0  0
  186.5810  177.5760  136.5360 O   0  0  0  0  0  1  0  0  0  0  0  0
  185.7090  178.5550  138.4700 N   0  0  0  0  0  2  0  0  0  0  0  0
  184.2910  178.4110  138.5410 C   0  0  0  0  0  0  0  0  0  0  0  0
  183.7330  177.3460  138.1650 O   0  0  0  0  0  0  0  0  0  0  0  0
  183.4590  179.5440  139.0420 C   0  0  0  0  0  2  0  0  0  0  0  0
  182.1140  179.0430  139.5730 C   0  0  1  0  0  0  0  0  0  0  0  0
  181.1740  179.7250  137.0050 S   0  0  0  0  0  1  0  0  0  0  0  0
  181.0690  180.1270  139.7020 C   0  0  0  0  0  2  0  0  0  0  0  0
  180.8870  179.0270  138.6650 C   0  0  2  0  0  3  0  0  0  0  0  0
  182.0790  178.0240  140.7090 C   0  0  0  0  0  2  0  0  0  0  0  0
  182.0180  178.6850  142.0510 C   0  0  0  0  0  0  0  0  0  0  0  0
  180.9380  178.9910  142.5350 O   0  0  0  0  0  0  0  0  0  0  0  0
  183.2910  178.9870  142.7770 C   0  0  0  0  0  3  0  0  0  0  0  0
  185.7220  178.4250  142.9940 C   0  0  0  0  0  2  0  0  0  0  0  0
  184.4130  179.1150  145.0140 C   0  0  0  0  0  2  0  0  0  0  0  0
  185.5380  178.2230  144.4950 C   0  0  0  0  0  2  0  0  0  0  0  0
  183.1110  178.7980  144.2830 C   0  0  0  0  0  2  0  0  0  0  0  0
  184.4250  178.1060  142.2560 C   0  0  0  0  0  2  0  0  0  0  0  0
  189.4700  178.7840  141.7480 N   0  0  0  0  0  2  0  0  0  0  0  0
  189.3120  176.7130  144.8640 C   0  0  0  0  0  3  0  0  0  0  0  0
  190.5540  177.0150  145.4480 C   0  0  0  0  0  0  0  0  0  0  0  0
  191.0590  178.4720  143.5760 C   0  0  0  0  0  3  0  0  0  0  0  0
  188.9510  177.2870  143.6420 C   0  0  0  0  0  3  0  0  0  0  0  0
  189.8310  178.1600  142.9860 C   0  0  0  0  0  0  0  0  0  0  0  0
  191.4200  177.8990  144.7980 C   0  0  0  0  0  3  0  0  0  0  0  0
  190.9450  176.4560  146.6670 O   0  0  0  0  0  0  0  0  0  0  0  0
  192.1510  175.7210  146.8230 C   0  0  0  0  0  1  0  0  0  0  0  0
  193.8220  175.9890  137.8720 O   0  0  0  0  0  0  0  0  0  0  0  0
  194.5080  174.8370  138.2850 C   0  0  0  0  0  0  0  0  0  0  0  0
  195.3890  174.9440  139.1770 O   0  0  0  0  0  0  0  0  0  0  0  0
  194.2930  173.5180  137.6690 C   0  0  0  0  0  3  0  0  0  0  0  0
  193.3980  173.3130  136.7100 C   0  0  0  0  0  2  0  0  0  0  0  0
  1  7  1  0  0  0  0
  1  8  1  0  0  0  0
  2 11  1  1  0  0  0
  2  9  1  0  0  0  0
  3 10  1  0  0  0  0
  4  3  2  0  0  0  0
  4  6  1  0  0  0  0
  5  2  1  0  0  0  0
  5  6  1  0  0  0  0
  6  1  2  0  0  0  0
  8 30  1  0  0  0  0
  9  8  1  0  0  0  0
 10  7  2  0  0  0  0
 11 12  1  6  0  0  0
 11 13  1  0  0  0  0
 13 14  1  0  0  0  0
 14 16  1  0  0  0  0
 15 14  2  0  0  0  0
 17 16  1  6  0  0  0
 17 19  1  0  0  0  0
 17 21  1  0  0  0  0
 20 18  1  6  0  0  0
 20 17  1  0  0  0  0
 20 19  1  0  0  0  0
 21 22  1  0  0  0  0
 22 23  2  0  0  0  0
 22 24  1  0  0  0  0
 24 28  1  0  0  0  0
 25 27  1  0  0  0  0
 27 26  1  0  0  0  0
 28 26  1  0  0  0  0
 29 24  1  0  0  0  0
 29 25  1  0  0  0  0
 30 35  1  0  0  0  0
 31 32  1  0  0  0  0
 32 37  1  0  0  0  0
 33 36  1  0  0  0  0
 34 31  2  0  0  0  0
 35 33  2  0  0  0  0
 35 34  1  0  0  0  0
 36 32  2  0  0  0  0
 37 38  1  0  0  0  0
 39 40  1  0  0  0  0
 39  3  1  0  0  0  0
 40 41  2  0  0  0  0
 42 40  1  0  0  0  0
 43 42  2  0  0  0  0
M  END
>  <MODEL>
3

>  <REMARK>
 VINA RESULT:      -8.1      1.899      5.720
  Name = 
  13 active torsions:
  status: ('A' for Active; 'I' for Inactive)
    1  A    between atoms: N_1  and  N_34
    2  A    between atoms: N_1  and  C_35
    3  A    between atoms: C_2  and  N_6
    4  A    between atoms: C_2  and  C_13
    5  A    between atoms: C_3  and  C_4
    6  A    between atoms: C_3  and  C_12
    7  A    between atoms: C_4  and  C_22
    8  A    between atoms: C_5  and  C_18
    9  A    between atoms: C_5  and  O_23
   10  A    between atoms: C_11  and  C_14
   11  A    between atoms: C_14  and  C_22
   12  A    between atoms: C_16  and  O_23
   13  A    between atoms: C_19  and  O_25
                            x       y       z     vdW  Elec       q    Type
                         _______ _______ _______ _____ _____    ______ ____

>  <TORSDO>
F 13

$$$$
=
 OpenBabel11052416253D

 43 47  0  0  1  0  0  0  0  0999 V2000
  186.9450  178.1590  142.4000 C   0  0  0  0  0  0  0  0  0  0  0  0
  188.6670  178.4350  140.1680 C   0  0  2  0  0  3  0  0  0  0  0  0
  187.9960  177.1890  144.7920 C   0  0  0  0  0  0  0  0  0  0  0  0
  188.6860  176.9770  143.5910 C   0  0  0  0  0  3  0  0  0  0  0  0
  188.9180  177.2630  141.1170 C   0  0  0  0  0  2  0  0  0  0  0  0
  188.1740  177.4780  142.3950 C   0  0  0  0  0  0  0  0  0  0  0  0
  186.2960  178.3580  143.5810 N   0  0  0  0  0  0  0  0  0  0  0  0
  186.4160  178.6990  141.1690 N   0  0  0  0  0  0  0  0  0  0  0  0
  187.1680  178.5970  139.9140 C   0  0  0  0  0  2  0  0  0  0  0  0
  186.7870  177.8870  144.7590 C   0  0  0  0  0  3  0  0  0  0  0  0
  189.4260  178.2740  138.8540 C   0  0  2  0  0  3  0  0  0  0  0  0
  188.8430  179.0480  137.8460 O   0  0  0  0  0  1  0  0  0  0  0  0
  189.4320  176.8730  138.4610 N   0  0  0  0  0  2  0  0  0  0  0  0
  190.6220  176.1660  138.1130 C   0  0  0  0  0  0  0  0  0  0  0  0
  191.7460  176.7330  138.1670 O   0  0  0  0  0  0  0  0  0  0  0  0
  190.5310  174.7490  137.6550 C   0  0  0  0  0  2  0  0  0  0  0  0
  190.2750  174.6760  136.1480 C   0  0  1  0  0  0  0  0  0  0  0  0
  192.6840  173.2130  136.1020 S   0  0  0  0  0  1  0  0  0  0  0  0
  191.2930  175.4280  135.3210 C   0  0  0  0  0  2  0  0  0  0  0  0
  191.2330  173.9080  135.2420 C   0  0  2  0  0  3  0  0  0  0  0  0
  188.8500  174.7930  135.6140 C   0  0  0  0  0  2  0  0  0  0  0  0
  187.8700  174.0510  136.4680 C   0  0  0  0  0  0  0  0  0  0  0  0
  187.9950  172.8470  136.6390 O   0  0  0  0  0  0  0  0  0  0  0  0
  186.7260  174.7920  137.0850 C   0  0  0  0  0  3  0  0  0  0  0  0
  184.2720  174.7490  137.5830 C   0  0  0  0  0  2  0  0  0  0  0  0
  185.4110  176.9250  137.0920 C   0  0  0  0  0  2  0  0  0  0  0  0
  184.1200  176.1240  136.9370 C   0  0  0  0  0  2  0  0  0  0  0  0
  186.5750  176.1760  136.4520 C   0  0  0  0  0  2  0  0  0  0  0  0
  185.4320  173.9920  136.9440 C   0  0  0  0  0  2  0  0  0  0  0  0
  185.1650  179.3380  141.1270 N   0  0  0  0  0  2  0  0  0  0  0  0
  182.5050  179.1260  138.5000 C   0  0  0  0  0  3  0  0  0  0  0  0
  181.8390  177.9530  138.8890 C   0  0  0  0  0  0  0  0  0  0  0  0
  183.3850  177.7110  140.7430 C   0  0  0  0  0  3  0  0  0  0  0  0
  183.6060  179.5850  139.2280 C   0  0  0  0  0  3  0  0  0  0  0  0
  184.0580  178.8700  140.3470 C   0  0  0  0  0  0  0  0  0  0  0  0
  182.2840  177.2520  140.0150 C   0  0  0  0  0  3  0  0  0  0  0  0
  180.7370  177.4660  138.1810 O   0  0  0  0  0  0  0  0  0  0  0  0
  180.5040  176.0790  137.9790 C   0  0  0  0  0  1  0  0  0  0  0  0
  188.4650  176.6920  146.0160 O   0  0  0  0  0  0  0  0  0  0  0  0
  189.4810  177.2810  146.7830 C   0  0  0  0  0  0  0  0  0  0  0  0
  190.6690  177.2020  146.3770 O   0  0  0  0  0  0  0  0  0  0  0  0
  189.2260  177.9270  148.0800 C   0  0  0  0  0  3  0  0  0  0  0  0
  188.0130  178.2990  148.4690 C   0  0  0  0  0  2  0  0  0  0  0  0
  1  7  1  0  0  0  0
  2 11  1  6  0  0  0
  2  5  1  0  0  0  0
  3 39  1  0  0  0  0
  4  3  2  0  0  0  0
  5  6  1  0  0  0  0
  6  1  2  0  0  0  0
  6  4  1  0  0  0  0
  7 10  2  0  0  0  0
  8  1  1  0  0  0  0
  9  2  1  0  0  0  0
  9  8  1  0  0  0  0
 10  3  1  0  0  0  0
 11 12  1  6  0  0  0
 13 11  1  0  0  0  0
 14 15  2  0  0  0  0
 14 13  1  0  0  0  0
 16 14  1  0  0  0  0
 17 21  1  6  0  0  0
 17 16  1  0  0  0  0
 19 17  1  0  0  0  0
 20 19  1  0  0  0  0
 20 18  1  1  0  0  0
 20 17  1  0  0  0  0
 21 22  1  0  0  0  0
 22 23  2  0  0  0  0
 22 24  1  0  0  0  0
 27 26  1  0  0  0  0
 27 25  1  0  0  0  0
 28 24  1  0  0  0  0
 28 26  1  0  0  0  0
 29 24  1  0  0  0  0
 29 25  1  0  0  0  0
 30  8  1  0  0  0  0
 31 32  2  0  0  0  0
 31 34  1  0  0  0  0
 32 36  1  0  0  0  0
 34 35  2  0  0  0  0
 35 33  1  0  0  0  0
 35 30  1  0  0  0  0
 36 33  2  0  0  0  0
 37 32  1  0  0  0  0
 38 37  1  0  0  0  0
 39 40  1  0  0  0  0
 40 42  1  0  0  0  0
 41 40  2  0  0  0  0
 42 43  2  0  0  0  0
M  END
>  <MODEL>
4

>  <REMARK>
 VINA RESULT:      -7.8      3.100      7.760
  Name = 
  13 active torsions:
  status: ('A' for Active; 'I' for Inactive)
    1  A    between atoms: N_1  and  N_34
    2  A    between atoms: N_1  and  C_35
    3  A    between atoms: C_2  and  N_6
    4  A    between atoms: C_2  and  C_13
    5  A    between atoms: C_3  and  C_4
    6  A    between atoms: C_3  and  C_12
    7  A    between atoms: C_4  and  C_22
    8  A    between atoms: C_5  and  C_18
    9  A    between atoms: C_5  and  O_23
   10  A    between atoms: C_11  and  C_14
   11  A    between atoms: C_14  and  C_22
   12  A    between atoms: C_16  and  O_23
   13  A    between atoms: C_19  and  O_25
                            x       y       z     vdW  Elec       q    Type
                         _______ _______ _______ _____ _____    ______ ____

>  <TORSDO>
F 13

$$$$
=
 OpenBabel11052416253D

 43 47  0  0  1  0  0  0  0  0999 V2000
  186.6740  178.2500  142.7540 C   0  0  0  0  0  0  0  0  0  0  0  0
  189.0100  177.6670  141.2620 C   0  0  2  0  0  3  0  0  0  0  0  0
  186.6830  177.7740  145.5000 C   0  0  0  0  0  0  0  0  0  0  0  0
  187.6360  177.1540  144.6820 C   0  0  0  0  0  3  0  0  0  0  0  0
  188.6750  176.7540  142.4410 C   0  0  0  0  0  2  0  0  0  0  0  0
  187.6490  177.4050  143.3110 C   0  0  0  0  0  0  0  0  0  0  0  0
  185.7610  178.8460  143.5700 N   0  0  0  0  0  0  0  0  0  0  0  0
  186.6900  178.5320  141.3370 N   0  0  0  0  0  0  0  0  0  0  0  0
  187.7440  177.9940  140.4710 C   0  0  0  0  0  2  0  0  0  0  0  0
  185.7430  178.6220  144.9120 C   0  0  0  0  0  3  0  0  0  0  0  0
  190.0740  177.0550  140.3550 C   0  0  2  0  0  3  0  0  0  0  0  0
  191.3200  177.6490  140.5810 O   0  0  0  0  0  1  0  0  0  0  0  0
  189.6880  177.2280  138.9630 N   0  0  0  0  0  2  0  0  0  0  0  0
  189.9560  176.2550  137.9530 C   0  0  0  0  0  0  0  0  0  0  0  0
  190.5210  175.1670  138.2420 O   0  0  0  0  0  0  0  0  0  0  0  0
  189.5880  176.5430  136.5360 C   0  0  0  0  0  2  0  0  0  0  0  0
  188.2210  175.9470  136.1940 C   0  0  1  0  0  0  0  0  0  0  0  0
  187.3210  178.6060  136.4520 S   0  0  0  0  0  1  0  0  0  0  0  0
  187.2240  176.0230  137.3270 C   0  0  0  0  0  2  0  0  0  0  0  0
  186.9980  176.8520  136.0700 C   0  0  2  0  0  3  0  0  0  0  0  0
  188.1370  174.6500  135.3940 C   0  0  0  0  0  2  0  0  0  0  0  0
  187.7810  173.4810  136.2590 C   0  0  0  0  0  0  0  0  0  0  0  0
  188.5970  173.0360  137.0530 O   0  0  0  0  0  0  0  0  0  0  0  0
  186.4310  172.8520  136.1220 C   0  0  0  0  0  3  0  0  0  0  0  0
  184.2620  172.8830  134.8700 C   0  0  0  0  0  2  0  0  0  0  0  0
  184.2960  172.2670  137.2960 C   0  0  0  0  0  2  0  0  0  0  0  0
  183.5030  172.9610  136.1910 C   0  0  0  0  0  2  0  0  0  0  0  0
  185.6690  172.9160  137.4460 C   0  0  0  0  0  2  0  0  0  0  0  0
  185.6340  173.5340  135.0100 C   0  0  0  0  0  2  0  0  0  0  0  0
  185.7000  179.3280  140.7370 N   0  0  0  0  0  2  0  0  0  0  0  0
  182.9330  178.7770  138.2740 C   0  0  0  0  0  3  0  0  0  0  0  0
  182.1890  177.7810  138.9280 C   0  0  0  0  0  0  0  0  0  0  0  0
  183.7790  177.8200  140.7600 C   0  0  0  0  0  3  0  0  0  0  0  0
  184.0950  179.2860  138.8610 C   0  0  0  0  0  3  0  0  0  0  0  0
  184.5290  178.8000  140.1020 C   0  0  0  0  0  0  0  0  0  0  0  0
  182.6170  177.3110  140.1730 C   0  0  0  0  0  3  0  0  0  0  0  0
  181.0250  177.2500  138.3660 O   0  0  0  0  0  0  0  0  0  0  0  0
  180.1370  176.4100  139.0910 C   0  0  0  0  0  1  0  0  0  0  0  0
  186.6240  177.5410  146.8800 O   0  0  0  0  0  0  0  0  0  0  0  0
  187.6930  177.7230  147.7690 C   0  0  0  0  0  0  0  0  0  0  0  0
  187.7120  178.7550  148.4890 O   0  0  0  0  0  0  0  0  0  0  0  0
  188.8320  176.7950  147.8460 C   0  0  0  0  0  3  0  0  0  0  0  0
  190.0460  177.1150  147.4170 C   0  0  0  0  0  2  0  0  0  0  0  0
  1  6  2  0  0  0  0
  1  7  1  0  0  0  0
  2 11  1  6  0  0  0
  2  5  1  0  0  0  0
  3 39  1  0  0  0  0
  4  3  2  0  0  0  0
  5  6  1  0  0  0  0
  6  4  1  0  0  0  0
  7 10  2  0  0  0  0
  8  1  1  0  0  0  0
  9  2  1  0  0  0  0
  9  8  1  0  0  0  0
 10  3  1  0  0  0  0
 11 12  1  6  0  0  0
 13 11  1  0  0  0  0
 14 15  2  0  0  0  0
 14 13  1  0  0  0  0
 16 14  1  0  0  0  0
 17 21  1  6  0  0  0
 17 16  1  0  0  0  0
 17 19  1  0  0  0  0
 20 17  1  0  0  0  0
 20 18  1  1  0  0  0
 20 19  1  0  0  0  0
 21 22  1  0  0  0  0
 22 23  2  0  0  0  0
 24 22  1  0  0  0  0
 24 28  1  0  0  0  0
 25 29  1  0  0  0  0
 25 27  1  0  0  0  0
 26 28  1  0  0  0  0
 27 26  1  0  0  0  0
 29 24  1  0  0  0  0
 30  8  1  0  0  0  0
 31 34  2  0  0  0  0
 31 32  1  0  0  0  0
 32 36  2  0  0  0  0
 34 35  1  0  0  0  0
 35 30  1  0  0  0  0
 35 33  2  0  0  0  0
 36 33  1  0  0  0  0
 37 32  1  0  0  0  0
 37 38  1  0  0  0  0
 39 40  1  0  0  0  0
 40 42  1  0  0  0  0
 40 41  2  0  0  0  0
 43 42  2  0  0  0  0
M  END
>  <MODEL>
5

>  <REMARK>
 VINA RESULT:      -7.8      3.120      7.632
  Name = 
  13 active torsions:
  status: ('A' for Active; 'I' for Inactive)
    1  A    between atoms: N_1  and  N_34
    2  A    between atoms: N_1  and  C_35
    3  A    between atoms: C_2  and  N_6
    4  A    between atoms: C_2  and  C_13
    5  A    between atoms: C_3  and  C_4
    6  A    between atoms: C_3  and  C_12
    7  A    between atoms: C_4  and  C_22
    8  A    between atoms: C_5  and  C_18
    9  A    between atoms: C_5  and  O_23
   10  A    between atoms: C_11  and  C_14
   11  A    between atoms: C_14  and  C_22
   12  A    between atoms: C_16  and  O_23
   13  A    between atoms: C_19  and  O_25
                            x       y       z     vdW  Elec       q    Type
                         _______ _______ _______ _____ _____    ______ ____

>  <TORSDO>
F 13

$$$$
=
 OpenBabel11052416253D

 43 47  0  0  1  0  0  0  0  0999 V2000
  189.3210  177.4710  138.6260 C   0  0  0  0  0  0  0  0  0  0  0  0
  190.1350  177.4390  141.3390 C   0  0  2  0  0  3  0  0  0  0  0  0
  186.7340  178.3070  138.0120 C   0  0  0  0  0  0  0  0  0  0  0  0
  187.0460  177.9080  139.3180 C   0  0  0  0  0  3  0  0  0  0  0  0
  188.6780  177.0950  141.0310 C   0  0  0  0  0  2  0  0  0  0  0  0
  188.3430  177.5080  139.6350 C   0  0  0  0  0  0  0  0  0  0  0  0
  188.9960  177.8710  137.3660 N   0  0  0  0  0  0  0  0  0  0  0  0
  190.6740  177.0780  138.9480 N   0  0  0  0  0  0  0  0  0  0  0  0
  191.0620  176.7660  140.3270 C   0  0  0  0  0  2  0  0  0  0  0  0
  187.7380  178.2750  137.0420 C   0  0  0  0  0  3  0  0  0  0  0  0
  190.5190  177.0580  142.7660 C   0  0  2  0  0  3  0  0  0  0  0  0
  190.4150  175.6770  142.9550 O   0  0  0  0  0  1  0  0  0  0  0  0
  189.6560  177.7540  143.7070 N   0  0  0  0  0  2  0  0  0  0  0  0
  190.0150  177.9860  145.0700 C   0  0  0  0  0  0  0  0  0  0  0  0
  191.1360  177.6180  145.5110 O   0  0  0  0  0  0  0  0  0  0  0  0
  189.0400  178.6470  145.9870 C   0  0  0  0  0  2  0  0  0  0  0  0
  188.1500  177.6110  146.6780 C   0  0  1  0  0  0  0  0  0  0  0  0
  189.6670  178.2600  148.9630 S   0  0  0  0  0  1  0  0  0  0  0  0
  188.8960  176.3800  147.1400 C   0  0  0  0  0  2  0  0  0  0  0  0
  188.3090  177.3360  148.1710 C   0  0  2  0  0  3  0  0  0  0  0  0
  186.7630  177.3090  146.1180 C   0  0  0  0  0  2  0  0  0  0  0  0
  185.8700  178.5100  146.1590 C   0  0  0  0  0  0  0  0  0  0  0  0
  185.6370  179.0650  147.2240 O   0  0  0  0  0  0  0  0  0  0  0  0
  185.2470  179.0040  144.8920 C   0  0  0  0  0  3  0  0  0  0  0  0
  183.0970  179.3760  143.6610 C   0  0  0  0  0  2  0  0  0  0  0  0
  185.1710  178.7650  142.3990 C   0  0  0  0  0  2  0  0  0  0  0  0
  183.6530  178.6110  142.4640 C   0  0  0  0  0  2  0  0  0  0  0  0
  185.8080  178.2500  143.6860 C   0  0  0  0  0  2  0  0  0  0  0  0
  183.7270  178.8630  144.9530 C   0  0  0  0  0  2  0  0  0  0  0  0
  191.6630  176.9770  137.9560 N   0  0  0  0  0  2  0  0  0  0  0  0
  192.1190  173.5770  136.4540 C   0  0  0  0  0  3  0  0  0  0  0  0
  193.4440  173.2980  136.8260 C   0  0  0  0  0  0  0  0  0  0  0  0
  193.5710  175.4540  137.9300 C   0  0  0  0  0  3  0  0  0  0  0  0
  191.5280  174.7910  136.8160 C   0  0  0  0  0  3  0  0  0  0  0  0
  192.2580  175.7400  137.5460 C   0  0  0  0  0  0  0  0  0  0  0  0
  194.1620  174.2410  137.5680 C   0  0  0  0  0  3  0  0  0  0  0  0
  194.0650  172.0950  136.4770 O   0  0  0  0  0  0  0  0  0  0  0  0
  195.3570  171.7330  136.9450 C   0  0  0  0  0  1  0  0  0  0  0  0
  185.4410  178.7030  137.6450 O   0  0  0  0  0  0  0  0  0  0  0  0
  184.4250  179.0550  138.5460 C   0  0  0  0  0  0  0  0  0  0  0  0
  184.5470  180.1160  139.2120 O   0  0  0  0  0  0  0  0  0  0  0  0
  183.2540  178.2000  138.7990 C   0  0  0  0  0  3  0  0  0  0  0  0
  183.3610  176.9110  139.0950 C   0  0  0  0  0  2  0  0  0  0  0  0
  1  8  1  0  0  0  0
  1  6  1  0  0  0  0
  2 11  1  1  0  0  0
  3  4  1  0  0  0  0
  4  6  2  0  0  0  0
  5  2  1  0  0  0  0
  6  5  1  0  0  0  0
  7  1  2  0  0  0  0
  8  9  1  0  0  0  0
  9  2  1  0  0  0  0
 10  7  1  0  0  0  0
 10  3  2  0  0  0  0
 11 12  1  6  0  0  0
 11 13  1  0  0  0  0
 13 14  1  0  0  0  0
 14 15  2  0  0  0  0
 14 16  1  0  0  0  0
 17 16  1  6  0  0  0
 17 19  1  0  0  0  0
 17 20  1  0  0  0  0
 19 20  1  0  0  0  0
 20 18  1  1  0  0  0
 21 22  1  0  0  0  0
 21 17  1  0  0  0  0
 22 23  2  0  0  0  0
 24 29  1  0  0  0  0
 24 22  1  0  0  0  0
 25 29  1  0  0  0  0
 26 27  1  0  0  0  0
 26 28  1  0  0  0  0
 27 25  1  0  0  0  0
 28 24  1  0  0  0  0
 30  8  1  0  0  0  0
 31 34  2  0  0  0  0
 31 32  1  0  0  0  0
 32 36  2  0  0  0  0
 34 35  1  0  0  0  0
 35 33  2  0  0  0  0
 35 30  1  0  0  0  0
 36 33  1  0  0  0  0
 37 32  1  0  0  0  0
 37 38  1  0  0  0  0
 39  3  1  0  0  0  0
 39 40  1  0  0  0  0
 40 42  1  0  0  0  0
 40 41  2  0  0  0  0
 42 43  2  0  0  0  0
M  END
>  <MODEL>
6

>  <REMARK>
 VINA RESULT:      -7.7      2.700      6.224
  Name = 
  13 active torsions:
  status: ('A' for Active; 'I' for Inactive)
    1  A    between atoms: N_1  and  N_34
    2  A    between atoms: N_1  and  C_35
    3  A    between atoms: C_2  and  N_6
    4  A    between atoms: C_2  and  C_13
    5  A    between atoms: C_3  and  C_4
    6  A    between atoms: C_3  and  C_12
    7  A    between atoms: C_4  and  C_22
    8  A    between atoms: C_5  and  C_18
    9  A    between atoms: C_5  and  O_23
   10  A    between atoms: C_11  and  C_14
   11  A    between atoms: C_14  and  C_22
   12  A    between atoms: C_16  and  O_23
   13  A    between atoms: C_19  and  O_25
                            x       y       z     vdW  Elec       q    Type
                         _______ _______ _______ _____ _____    ______ ____

>  <TORSDO>
F 13

$$$$
=
 OpenBabel11052416253D

 43 47  0  0  1  0  0  0  0  0999 V2000
  183.8130  178.2960  139.5220 C   0  0  0  0  0  0  0  0  0  0  0  0
  183.7480  178.3860  142.3520 C   0  0  2  0  0  3  0  0  0  0  0  0
  186.2760  178.0320  138.2450 C   0  0  0  0  0  0  0  0  0  0  0  0
  186.2240  178.4660  139.5750 C   0  0  0  0  0  3  0  0  0  0  0  0
  184.9430  179.0300  141.6490 C   0  0  0  0  0  2  0  0  0  0  0  0
  184.9960  178.5810  140.2250 C   0  0  0  0  0  0  0  0  0  0  0  0
  183.8890  177.8690  138.2310 N   0  0  0  0  0  0  0  0  0  0  0  0
  182.5360  178.3920  140.1920 N   0  0  0  0  0  0  0  0  0  0  0  0
  182.4530  178.7300  141.6160 C   0  0  0  0  0  2  0  0  0  0  0  0
  185.0790  177.7400  137.5860 C   0  0  0  0  0  3  0  0  0  0  0  0
  183.6650  178.7970  143.8200 C   0  0  2  0  0  3  0  0  0  0  0  0
  183.0010  180.0200  143.9560 O   0  0  0  0  0  1  0  0  0  0  0  0
  185.0050  178.8960  144.3770 N   0  0  0  0  0  2  0  0  0  0  0  0
  185.2750  178.8210  145.7770 C   0  0  0  0  0  0  0  0  0  0  0  0
  184.3430  178.6260  146.6020 O   0  0  0  0  0  0  0  0  0  0  0  0
  186.6720  179.0020  146.2690 C   0  0  0  0  0  2  0  0  0  0  0  0
  187.4730  177.7050  146.1340 C   0  0  1  0  0  0  0  0  0  0  0  0
  187.9280  178.0370  148.8950 S   0  0  0  0  0  1  0  0  0  0  0  0
  188.9550  177.8770  146.3720 C   0  0  0  0  0  2  0  0  0  0  0  0
  188.1230  177.0720  147.3610 C   0  0  2  0  0  3  0  0  0  0  0  0
  187.1460  176.7250  145.0090 C   0  0  0  0  0  2  0  0  0  0  0  0
  187.9220  177.0240  143.7640 C   0  0  0  0  0  0  0  0  0  0  0  0
  187.3450  177.1260  142.6920 O   0  0  0  0  0  0  0  0  0  0  0  0
  189.4090  177.1700  143.8450 C   0  0  0  0  0  3  0  0  0  0  0  0
  191.3680  178.6310  143.2960 C   0  0  0  0  0  2  0  0  0  0  0  0
  191.6200  176.1400  143.2730 C   0  0  0  0  0  2  0  0  0  0  0  0
  192.0560  177.4490  142.6190 C   0  0  0  0  0  2  0  0  0  0  0  0
  190.1050  175.9840  143.1790 C   0  0  0  0  0  2  0  0  0  0  0  0
  189.8530  178.4840  143.2020 C   0  0  0  0  0  2  0  0  0  0  0  0
  181.3310  178.1680  139.5060 N   0  0  0  0  0  2  0  0  0  0  0  0
  180.1050  175.2120  137.5610 C   0  0  0  0  0  3  0  0  0  0  0  0
  179.7750  174.3270  138.6000 C   0  0  0  0  0  0  0  0  0  0  0  0
  180.4840  175.9910  140.2170 C   0  0  0  0  0  3  0  0  0  0  0  0
  180.6250  176.4760  137.8510 C   0  0  0  0  0  3  0  0  0  0  0  0
  180.8280  176.8660  139.1830 C   0  0  0  0  0  0  0  0  0  0  0  0
  179.9640  174.7260  139.9270 C   0  0  0  0  0  3  0  0  0  0  0  0
  179.2560  173.0560  138.3420 O   0  0  0  0  0  0  0  0  0  0  0  0
  179.8750  172.1390  137.4500 C   0  0  0  0  0  1  0  0  0  0  0  0
  187.4860  177.9160  137.5470 O   0  0  0  0  0  0  0  0  0  0  0  0
  188.6840  178.5480  137.9120 C   0  0  0  0  0  0  0  0  0  0  0  0
  188.8540  179.7530  137.5930 O   0  0  0  0  0  0  0  0  0  0  0  0
  189.7830  177.8410  138.5890 C   0  0  0  0  0  3  0  0  0  0  0  0
  189.6330  177.2450  139.7650 C   0  0  0  0  0  2  0  0  0  0  0  0
  1  8  1  0  0  0  0
  1  6  1  0  0  0  0
  2 11  1  1  0  0  0
  3  4  1  0  0  0  0
  4  6  2  0  0  0  0
  5  2  1  0  0  0  0
  6  5  1  0  0  0  0
  7  1  2  0  0  0  0
  8  9  1  0  0  0  0
  9  2  1  0  0  0  0
 10  7  1  0  0  0  0
 10  3  2  0  0  0  0
 11 12  1  6  0  0  0
 11 13  1  0  0  0  0
 13 14  1  0  0  0  0
 14 16  1  0  0  0  0
 14 15  2  0  0  0  0
 17 21  1  6  0  0  0
 17 16  1  0  0  0  0
 17 19  1  0  0  0  0
 17 20  1  0  0  0  0
 19 20  1  0  0  0  0
 20 18  1  1  0  0  0
 22 24  1  0  0  0  0
 22 21  1  0  0  0  0
 23 22  2  0  0  0  0
 27 26  1  0  0  0  0
 27 25  1  0  0  0  0
 28 26  1  0  0  0  0
 28 24  1  0  0  0  0
 29 25  1  0  0  0  0
 29 24  1  0  0  0  0
 30  8  1  0  0  0  0
 31 34  2  0  0  0  0
 31 32  1  0  0  0  0
 32 36  2  0  0  0  0
 34 35  1  0  0  0  0
 35 30  1  0  0  0  0
 35 33  2  0  0  0  0
 36 33  1  0  0  0  0
 37 32  1  0  0  0  0
 38 37  1  0  0  0  0
 39 40  1  0  0  0  0
 39  3  1  0  0  0  0
 40 42  1  0  0  0  0
 41 40  2  0  0  0  0
 42 43  2  0  0  0  0
M  END
>  <MODEL>
7

>  <REMARK>
 VINA RESULT:      -7.6      4.070      8.765
  Name = 
  13 active torsions:
  status: ('A' for Active; 'I' for Inactive)
    1  A    between atoms: N_1  and  N_34
    2  A    between atoms: N_1  and  C_35
    3  A    between atoms: C_2  and  N_6
    4  A    between atoms: C_2  and  C_13
    5  A    between atoms: C_3  and  C_4
    6  A    between atoms: C_3  and  C_12
    7  A    between atoms: C_4  and  C_22
    8  A    between atoms: C_5  and  C_18
    9  A    between atoms: C_5  and  O_23
   10  A    between atoms: C_11  and  C_14
   11  A    between atoms: C_14  and  C_22
   12  A    between atoms: C_16  and  O_23
   13  A    between atoms: C_19  and  O_25
                            x       y       z     vdW  Elec       q    Type
                         _______ _______ _______ _____ _____    ______ ____

>  <TORSDO>
F 13

$$$$
=
 OpenBabel11052416253D

 43 47  0  0  1  0  0  0  0  0999 V2000
  184.2320  178.6310  139.5230 C   0  0  0  0  0  0  0  0  0  0  0  0
  183.8940  178.4980  142.3320 C   0  0  2  0  0  3  0  0  0  0  0  0
  186.7660  178.1770  138.4550 C   0  0  0  0  0  0  0  0  0  0  0  0
  186.6290  178.5040  139.8100 C   0  0  0  0  0  3  0  0  0  0  0  0
  185.2180  179.0490  141.8020 C   0  0  0  0  0  2  0  0  0  0  0  0
  185.3630  178.7130  140.3530 C   0  0  0  0  0  0  0  0  0  0  0  0
  184.3890  178.3050  138.2100 N   0  0  0  0  0  0  0  0  0  0  0  0
  182.9130  178.8260  140.0810 N   0  0  0  0  0  0  0  0  0  0  0  0
  182.7260  179.0550  141.5170 C   0  0  0  0  0  2  0  0  0  0  0  0
  185.6170  178.0860  137.6660 C   0  0  0  0  0  3  0  0  0  0  0  0
  183.7100  178.7960  143.8170 C   0  0  2  0  0  3  0  0  0  0  0  0
  182.9810  179.9750  144.0010 O   0  0  0  0  0  1  0  0  0  0  0  0
  185.0110  178.9120  144.4580 N   0  0  0  0  0  2  0  0  0  0  0  0
  185.2250  178.6420  145.8430 C   0  0  0  0  0  0  0  0  0  0  0  0
  184.2780  178.2490  146.5750 O   0  0  0  0  0  0  0  0  0  0  0  0
  186.5780  178.8530  146.4350 C   0  0  0  0  0  2  0  0  0  0  0  0
  187.4440  177.6000  146.2840 C   0  0  1  0  0  0  0  0  0  0  0  0
  187.9160  177.9470  149.0410 S   0  0  0  0  0  1  0  0  0  0  0  0
  188.9180  177.8500  146.5040 C   0  0  0  0  0  2  0  0  0  0  0  0
  188.1420  176.9980  147.5000 C   0  0  2  0  0  3  0  0  0  0  0  0
  187.1540  176.6090  145.1600 C   0  0  0  0  0  2  0  0  0  0  0  0
  187.9210  176.9350  143.9160 C   0  0  0  0  0  0  0  0  0  0  0  0
  187.3460  176.9960  142.8390 O   0  0  0  0  0  0  0  0  0  0  0  0
  189.3980  177.1580  144.0030 C   0  0  0  0  0  3  0  0  0  0  0  0
  191.3010  178.6420  143.3290 C   0  0  0  0  0  2  0  0  0  0  0  0
  191.6640  176.1770  143.5780 C   0  0  0  0  0  2  0  0  0  0  0  0
  192.0540  177.4270  142.7940 C   0  0  0  0  0  2  0  0  0  0  0  0
  190.1600  175.9410  143.4790 C   0  0  0  0  0  2  0  0  0  0  0  0
  189.7960  178.4140  143.2290 C   0  0  0  0  0  2  0  0  0  0  0  0
  181.7660  178.8050  139.2710 N   0  0  0  0  0  2  0  0  0  0  0  0
  181.1300  182.1320  137.6740 C   0  0  0  0  0  3  0  0  0  0  0  0
  180.7870  181.7410  136.3700 C   0  0  0  0  0  0  0  0  0  0  0  0
  181.1040  179.4200  137.0020 C   0  0  0  0  0  3  0  0  0  0  0  0
  181.4600  181.1710  138.6340 C   0  0  0  0  0  3  0  0  0  0  0  0
  181.4600  179.8100  138.2960 C   0  0  0  0  0  0  0  0  0  0  0  0
  180.7730  180.3810  136.0430 C   0  0  0  0  0  3  0  0  0  0  0  0
  180.4540  182.6770  135.3880 O   0  0  0  0  0  0  0  0  0  0  0  0
  180.6330  184.0760  135.5670 C   0  0  0  0  0  1  0  0  0  0  0  0
  188.0190  177.9720  137.8620 O   0  0  0  0  0  0  0  0  0  0  0  0
  188.6860  176.7390  137.8040 C   0  0  0  0  0  0  0  0  0  0  0  0
  188.1670  175.8000  137.1470 O   0  0  0  0  0  0  0  0  0  0  0  0
  189.9330  176.4730  138.5400 C   0  0  0  0  0  3  0  0  0  0  0  0
  190.1040  176.8240  139.8080 C   0  0  0  0  0  2  0  0  0  0  0  0
  1  8  1  0  0  0  0
  1  6  1  0  0  0  0
  2 11  1  1  0  0  0
  3  4  1  0  0  0  0
  4  6  2  0  0  0  0
  5  2  1  0  0  0  0
  6  5  1  0  0  0  0
  7  1  2  0  0  0  0
  8  9  1  0  0  0  0
  9  2  1  0  0  0  0
 10  7  1  0  0  0  0
 10  3  2  0  0  0  0
 11 12  1  6  0  0  0
 11 13  1  0  0  0  0
 13 14  1  0  0  0  0
 14 16  1  0  0  0  0
 14 15  2  0  0  0  0
 17 21  1  6  0  0  0
 17 16  1  0  0  0  0
 17 19  1  0  0  0  0
 17 20  1  0  0  0  0
 19 20  1  0  0  0  0
 20 18  1  1  0  0  0
 22 24  1  0  0  0  0
 22 21  1  0  0  0  0
 23 22  2  0  0  0  0
 27 25  1  0  0  0  0
 27 26  1  0  0  0  0
 28 26  1  0  0  0  0
 28 24  1  0  0  0  0
 29 25  1  0  0  0  0
 29 24  1  0  0  0  0
 30  8  1  0  0  0  0
 31 34  1  0  0  0  0
 32 31  2  0  0  0  0
 33 35  1  0  0  0  0
 35 34  2  0  0  0  0
 35 30  1  0  0  0  0
 36 32  1  0  0  0  0
 36 33  2  0  0  0  0
 37 38  1  0  0  0  0
 37 32  1  0  0  0  0
 39  3  1  0  0  0  0
 40 39  1  0  0  0  0
 40 42  1  0  0  0  0
 41 40  2  0  0  0  0
 42 43  2  0  0  0  0
M  END
>  <MODEL>
8

>  <REMARK>
 VINA RESULT:      -7.5      3.785      9.092
  Name = 
  13 active torsions:
  status: ('A' for Active; 'I' for Inactive)
    1  A    between atoms: N_1  and  N_34
    2  A    between atoms: N_1  and  C_35
    3  A    between atoms: C_2  and  N_6
    4  A    between atoms: C_2  and  C_13
    5  A    between atoms: C_3  and  C_4
    6  A    between atoms: C_3  and  C_12
    7  A    between atoms: C_4  and  C_22
    8  A    between atoms: C_5  and  C_18
    9  A    between atoms: C_5  and  O_23
   10  A    between atoms: C_11  and  C_14
   11  A    between atoms: C_14  and  C_22
   12  A    between atoms: C_16  and  O_23
   13  A    between atoms: C_19  and  O_25
                            x       y       z     vdW  Elec       q    Type
                         _______ _______ _______ _____ _____    ______ ____

>  <TORSDO>
F 13

$$$$
=
 OpenBabel11052416253D

 43 47  0  0  1  0  0  0  0  0999 V2000
  189.8430  177.3200  137.6730 C   0  0  0  0  0  0  0  0  0  0  0  0
  189.7110  177.2540  140.5020 C   0  0  2  0  0  3  0  0  0  0  0  0
  191.6900  175.6840  136.3780 C   0  0  0  0  0  0  0  0  0  0  0  0
  191.8500  175.9750  137.7390 C   0  0  0  0  0  3  0  0  0  0  0  0
  191.0830  177.0740  139.8510 C   0  0  0  0  0  2  0  0  0  0  0  0
  190.9180  176.7760  138.3960 C   0  0  0  0  0  0  0  0  0  0  0  0
  189.7040  177.0180  136.3530 N   0  0  0  0  0  0  0  0  0  0  0  0
  188.8590  178.1360  138.3490 N   0  0  0  0  0  0  0  0  0  0  0  0
  188.9320  178.3640  139.7960 C   0  0  0  0  0  2  0  0  0  0  0  0
  190.5970  176.2270  135.6990 C   0  0  0  0  0  3  0  0  0  0  0  0
  189.8250  177.5380  141.9970 C   0  0  2  0  0  3  0  0  0  0  0  0
  190.8920  176.8280  142.5570 O   0  0  0  0  0  1  0  0  0  0  0  0
  188.5840  177.1710  142.6600 N   0  0  0  0  0  2  0  0  0  0  0  0
  188.2740  177.5520  144.0010 C   0  0  0  0  0  0  0  0  0  0  0  0
  189.0690  178.2680  144.6660 O   0  0  0  0  0  0  0  0  0  0  0  0
  187.0080  177.0740  144.6300 C   0  0  0  0  0  2  0  0  0  0  0  0
  186.1620  178.2510  145.1220 C   0  0  1  0  0  0  0  0  0  0  0  0
  187.5200  177.8320  147.5560 S   0  0  0  0  0  1  0  0  0  0  0  0
  185.1590  177.8750  146.1880 C   0  0  0  0  0  2  0  0  0  0  0  0
  186.3330  178.7780  146.5440 C   0  0  2  0  0  3  0  0  0  0  0  0
  185.6340  179.2760  144.1220 C   0  0  0  0  0  2  0  0  0  0  0  0
  185.0470  178.6240  142.9090 C   0  0  0  0  0  0  0  0  0  0  0  0
  185.7550  178.3760  141.9440 O   0  0  0  0  0  0  0  0  0  0  0  0
  183.5860  178.3050  142.8840 C   0  0  0  0  0  3  0  0  0  0  0  0
  181.5070  178.2790  141.4860 C   0  0  0  0  0  2  0  0  0  0  0  0
  181.3570  178.7440  143.9420 C   0  0  0  0  0  2  0  0  0  0  0  0
  180.7730  179.0660  142.5680 C   0  0  0  0  0  2  0  0  0  0  0  0
  182.8450  179.0810  143.9730 C   0  0  0  0  0  2  0  0  0  0  0  0
  182.9950  178.6150  141.5080 C   0  0  0  0  0  2  0  0  0  0  0  0
  187.8020  178.7400  137.6480 N   0  0  0  0  0  2  0  0  0  0  0  0
  184.2720  177.6530  138.2630 C   0  0  0  0  0  3  0  0  0  0  0  0
  184.0290  176.8760  137.1180 C   0  0  0  0  0  0  0  0  0  0  0  0
  186.2780  177.3490  136.3420 C   0  0  0  0  0  3  0  0  0  0  0  0
  185.5100  178.2760  138.4410 C   0  0  0  0  0  3  0  0  0  0  0  0
  186.5150  178.1360  137.4730 C   0  0  0  0  0  0  0  0  0  0  0  0
  185.0400  176.7260  136.1630 C   0  0  0  0  0  3  0  0  0  0  0  0
  182.8010  176.2430  136.9090 O   0  0  0  0  0  0  0  0  0  0  0  0
  181.6050  176.6530  137.5580 C   0  0  0  0  0  1  0  0  0  0  0  0
  192.6090  174.8950  135.6740 O   0  0  0  0  0  0  0  0  0  0  0  0
  193.9100  174.6000  136.1070 C   0  0  0  0  0  0  0  0  0  0  0  0
  194.0690  173.7160  136.9890 O   0  0  0  0  0  0  0  0  0  0  0  0
  195.0940  175.3320  135.6280 C   0  0  0  0  0  3  0  0  0  0  0  0
  195.0740  176.6340  135.3710 C   0  0  0  0  0  2  0  0  0  0  0  0
  1  8  1  0  0  0  0
  1  6  1  0  0  0  0
  2 11  1  1  0  0  0
  3  4  1  0  0  0  0
  4  6  2  0  0  0  0
  5  2  1  0  0  0  0
  6  5  1  0  0  0  0
  7  1  2  0  0  0  0
  8  9  1  0  0  0  0
  9  2  1  0  0  0  0
 10  7  1  0  0  0  0
 10  3  2  0  0  0  0
 11 12  1  1  0  0  0
 11 13  1  0  0  0  0
 13 14  1  0  0  0  0
 14 16  1  0  0  0  0
 14 15  2  0  0  0  0
 16 17  1  0  0  0  0
 17 21  1  6  0  0  0
 17 19  1  0  0  0  0
 17 20  1  0  0  0  0
 19 20  1  0  0  0  0
 20 18  1  1  0  0  0
 22 21  1  0  0  0  0
 23 22  2  0  0  0  0
 24 22  1  0  0  0  0
 24 28  1  0  0  0  0
 25 29  1  0  0  0  0
 25 27  1  0  0  0  0
 26 28  1  0  0  0  0
 27 26  1  0  0  0  0
 29 24  1  0  0  0  0
 30  8  1  0  0  0  0
 31 34  1  0  0  0  0
 32 31  2  0  0  0  0
 33 35  1  0  0  0  0
 35 30  1  0  0  0  0
 35 34  2  0  0  0  0
 36 33  2  0  0  0  0
 36 32  1  0  0  0  0
 37 32  1  0  0  0  0
 37 38  1  0  0  0  0
 39 40  1  0  0  0  0
 39  3  1  0  0  0  0
 40 41  2  0  0  0  0
 42 40  1  0  0  0  0
 43 42  2  0  0  0  0
M  END
>  <MODEL>
9

>  <REMARK>
 VINA RESULT:      -7.4      2.616      7.060
  Name = 
  13 active torsions:
  status: ('A' for Active; 'I' for Inactive)
    1  A    between atoms: N_1  and  N_34
    2  A    between atoms: N_1  and  C_35
    3  A    between atoms: C_2  and  N_6
    4  A    between atoms: C_2  and  C_13
    5  A    between atoms: C_3  and  C_4
    6  A    between atoms: C_3  and  C_12
    7  A    between atoms: C_4  and  C_22
    8  A    between atoms: C_5  and  C_18
    9  A    between atoms: C_5  and  O_23
   10  A    between atoms: C_11  and  C_14
   11  A    between atoms: C_14  and  C_22
   12  A    between atoms: C_16  and  O_23
   13  A    between atoms: C_19  and  O_25
                            x       y       z     vdW  Elec       q    Type
                         _______ _______ _______ _____ _____    ______ ____

>  <TORSDO>
F 13

$$$$
