=
 OpenBabel11052416463D

 32 36  0  0  0  0  0  0  0  0999 V2000
  187.0170  175.5910  137.1790 C   0  0  0  0  0  2  0  0  0  0  0  0
  188.3130  178.1930  140.5440 C   0  0  0  0  0  0  0  0  0  0  0  0
  183.8350  178.2560  142.4720 N   0  0  0  0  0  2  0  0  0  0  0  0
  184.3550  178.8030  143.7170 C   0  0  0  0  0  2  0  0  0  0  0  0
  190.2350  177.5410  142.0420 C   0  0  0  0  0  0  0  0  0  0  0  0
  190.7110  177.2740  143.3360 C   0  0  0  0  0  0  0  0  0  0  0  0
  188.7280  176.9230  138.3560 C   0  0  0  0  0  0  0  0  0  0  0  0
  186.3120  178.6290  139.1090 N   0  0  0  0  0  0  0  0  0  0  0  0
  187.9870  174.0050  135.4270 N   0  0  0  0  0  2  0  0  0  0  0  0
  186.5160  177.9550  138.0100 C   0  0  0  0  0  3  0  0  0  0  0  0
  184.6390  178.8000  141.3800 C   0  0  0  0  0  2  0  0  0  0  0  0
  186.9230  178.4110  140.3990 C   0  0  0  0  0  0  0  0  0  0  0  0
  186.0970  178.4360  141.5310 C   0  0  0  0  0  0  0  0  0  0  0  0
  187.9970  177.9030  142.9540 C   0  0  0  0  0  0  0  0  0  0  0  0
  189.3620  174.9290  137.1000 N   0  0  0  0  0  0  0  0  0  0  0  0
  187.4780  176.8430  137.8740 C   0  0  0  0  0  0  0  0  0  0  0  0
  192.0550  176.9540  143.5050 O   0  0  0  0  0  1  0  0  0  0  0  0
  189.6290  175.7240  138.3000 C   0  0  0  0  0  2  0  0  0  0  0  0
  188.1750  174.8330  136.5770 C   0  0  0  0  0  0  0  0  0  0  0  0
  185.7140  178.1770  144.0150 C   0  0  0  0  0  2  0  0  0  0  0  0
  186.6320  178.2060  142.8100 C   0  0  0  0  0  0  0  0  0  0  0  0
  188.5050  177.6330  144.2290 C   0  0  0  0  0  3  0  0  0  0  0  0
  189.3280  178.4440  139.0770 S   0  0  0  0  0  0  0  0  0  0  0  0
  191.1640  177.4150  140.9680 N   0  0  0  0  0  1  0  0  0  0  0  0
  188.8630  177.8770  141.8250 C   0  0  0  0  0  0  0  0  0  0  0  0
  189.8460  177.3250  144.4420 C   0  0  0  0  0  0  0  0  0  0  0  0
  186.6920  173.8140  134.7900 C   0  0  0  0  0  3  0  0  0  0  0  0
  185.8880  173.0210  135.6060 O   0  0  0  0  0  1  0  0  0  0  0  0
  186.0780  175.0490  134.5940 O   0  0  0  0  0  1  0  0  0  0  0  0
  190.3040  177.0540  145.8240 C   0  0  0  0  0  0  0  0  0  0  0  0
  191.6490  177.1280  146.1640 O   0  0  0  0  0  0  0  0  0  0  0  0
  189.4680  176.7530  146.7180 O   0  0  0  0  0  1  0  0  0  0  0  0
  1 16  1  0  0  0  0
  2 25  1  0  0  0  0
  3  4  1  0  0  0  0
  4 20  1  0  0  0  0
  5  6  1  0  0  0  0
  6 17  1  0  0  0  0
  6 26  2  0  0  0  0
  7 23  1  0  0  0  0
  8 12  1  0  0  0  0
  9 19  1  0  0  0  0
 10  8  2  0  0  0  0
 11 13  1  0  0  0  0
 11  3  1  0  0  0  0
 12  2  2  0  0  0  0
 12 13  1  0  0  0  0
 13 21  2  0  0  0  0
 14 22  2  0  0  0  0
 15 18  1  0  0  0  0
 16 10  1  0  0  0  0
 16  7  2  0  0  0  0
 18  7  1  0  0  0  0
 19 15  2  0  0  0  0
 19  1  1  0  0  0  0
 21 14  1  0  0  0  0
 21 20  1  0  0  0  0
 22 26  1  0  0  0  0
 23  2  1  0  0  0  0
 24  5  1  0  0  0  0
 25  5  2  0  0  0  0
 25 14  1  0  0  0  0
 26 30  1  0  0  0  0
 27  9  1  0  0  0  0
 27 28  1  0  0  0  0
 29 27  1  0  0  0  0
 30 31  2  0  0  0  0
 30 32  1  0  0  0  0
M  END
>  <MODEL>
1

>  <REMARK>
 VINA RESULT:      -9.3      0.000      0.000
  Name = 
  2 active torsions:
  status: ('A' for Active; 'I' for Inactive)
    1  A    between atoms: C_1  and  N_10
    2  A    between atoms: C_11  and  C_32
                            x       y       z     vdW  Elec       q    Type
                         _______ _______ _______ _____ _____    ______ ____

>  <TORSDO>
F 2

$$$$
=
 OpenBabel11052416463D

 32 36  0  0  0  0  0  0  0  0999 V2000
  181.8070  176.1710  139.5470 C   0  0  0  0  0  2  0  0  0  0  0  0
  185.1280  178.7540  140.9870 C   0  0  0  0  0  0  0  0  0  0  0  0
  183.7930  178.2000  145.6440 N   0  0  0  0  0  2  0  0  0  0  0  0
  185.0650  178.7480  146.0960 C   0  0  0  0  0  2  0  0  0  0  0  0
  187.5270  178.2670  140.3800 C   0  0  0  0  0  0  0  0  0  0  0  0
  188.8410  178.0000  140.7990 C   0  0  0  0  0  0  0  0  0  0  0  0
  183.7450  177.6420  139.1370 C   0  0  0  0  0  0  0  0  0  0  0  0
  182.7370  179.0140  141.6680 N   0  0  0  0  0  0  0  0  0  0  0  0
  181.1250  174.7910  137.5070 N   0  0  0  0  0  2  0  0  0  0  0  0
  182.0400  178.4190  140.7380 C   0  0  0  0  0  3  0  0  0  0  0  0
  183.4330  178.8840  144.4040 C   0  0  0  0  0  2  0  0  0  0  0  0
  184.1300  178.8120  141.9870 C   0  0  0  0  0  0  0  0  0  0  0  0
  184.4850  178.6890  143.3370 C   0  0  0  0  0  0  0  0  0  0  0  0
  186.8070  178.3200  142.7140 C   0  0  0  0  0  0  0  0  0  0  0  0
  183.2520  175.7960  137.6190 N   0  0  0  0  0  0  0  0  0  0  0  0
  182.5870  177.4360  139.7820 C   0  0  0  0  0  0  0  0  0  0  0  0
  189.8330  177.8340  139.8370 O   0  0  0  0  0  1  0  0  0  0  0  0
  184.3190  176.5620  138.2660 C   0  0  0  0  0  2  0  0  0  0  0  0
  182.1020  175.5830  138.1870 C   0  0  0  0  0  0  0  0  0  0  0  0
  186.1780  178.2740  145.1670 C   0  0  0  0  0  2  0  0  0  0  0  0
  185.8230  178.4660  143.7070 C   0  0  0  0  0  0  0  0  0  0  0  0
  188.1270  178.0550  143.0970 C   0  0  0  0  0  3  0  0  0  0  0  0
  184.6210  179.1890  139.3140 S   0  0  0  0  0  0  0  0  0  0  0  0
  187.2870  178.3000  138.9750 N   0  0  0  0  0  1  0  0  0  0  0  0
  186.4800  178.4480  141.3350 C   0  0  0  0  0  0  0  0  0  0  0  0
  189.1500  177.8990  142.1650 C   0  0  0  0  0  0  0  0  0  0  0  0
  179.8230  174.4770  138.0750 C   0  0  0  0  0  3  0  0  0  0  0  0
  178.9320  174.1700  137.0470 O   0  0  0  0  0  1  0  0  0  0  0  0
  179.9340  173.3820  138.9310 O   0  0  0  0  0  1  0  0  0  0  0  0
  190.5210  177.6220  142.6540 C   0  0  0  0  0  0  0  0  0  0  0  0
  191.3200  178.6360  143.1670 O   0  0  0  0  0  1  0  0  0  0  0  0
  190.9810  176.4500  142.6110 O   0  0  0  0  0  0  0  0  0  0  0  0
  1 16  1  0  0  0  0
  2 25  2  0  0  0  0
  2 12  1  0  0  0  0
  3  4  1  0  0  0  0
  5  6  2  0  0  0  0
  5 25  1  0  0  0  0
  6 26  1  0  0  0  0
  7 23  1  0  0  0  0
  7 16  2  0  0  0  0
  8 12  1  0  0  0  0
  9 27  1  0  0  0  0
  9 19  1  0  0  0  0
 10  8  2  0  0  0  0
 11  3  1  0  0  0  0
 12 13  2  0  0  0  0
 13 21  1  0  0  0  0
 13 11  1  0  0  0  0
 14 22  1  0  0  0  0
 14 21  2  0  0  0  0
 15 19  2  0  0  0  0
 15 18  1  0  0  0  0
 16 10  1  0  0  0  0
 17  6  1  0  0  0  0
 18  7  1  0  0  0  0
 19  1  1  0  0  0  0
 20  4  1  0  0  0  0
 21 20  1  0  0  0  0
 23  2  1  0  0  0  0
 24  5  1  0  0  0  0
 25 14  1  0  0  0  0
 26 30  1  0  0  0  0
 26 22  2  0  0  0  0
 27 29  1  0  0  0  0
 28 27  1  0  0  0  0
 30 31  1  0  0  0  0
 32 30  2  0  0  0  0
M  END
>  <MODEL>
2

>  <REMARK>
 VINA RESULT:      -9.2      3.356      4.539
  Name = 
  2 active torsions:
  status: ('A' for Active; 'I' for Inactive)
    1  A    between atoms: C_1  and  N_10
    2  A    between atoms: C_11  and  C_32
                            x       y       z     vdW  Elec       q    Type
                         _______ _______ _______ _____ _____    ______ ____

>  <TORSDO>
F 2

$$$$
=
 OpenBabel11052416463D

 32 36  0  0  0  0  0  0  0  0999 V2000
  181.1850  181.3550  137.8000 C   0  0  0  0  0  2  0  0  0  0  0  0
  183.0540  178.3780  140.5230 C   0  0  0  0  0  0  0  0  0  0  0  0
  187.3580  178.7250  138.2570 N   0  0  0  0  0  2  0  0  0  0  0  0
  188.0170  178.0300  139.3550 C   0  0  0  0  0  2  0  0  0  0  0  0
  183.0100  178.6800  143.0270 C   0  0  0  0  0  0  0  0  0  0  0  0
  183.7180  178.7930  144.2350 C   0  0  0  0  0  0  0  0  0  0  0  0
  181.0620  179.7420  139.6630 C   0  0  0  0  0  0  0  0  0  0  0  0
  183.1930  178.2950  138.0280 N   0  0  0  0  0  0  0  0  0  0  0  0
  179.1790  182.9330  137.6830 N   0  0  0  0  0  2  0  0  0  0  0  0
  182.1940  179.0170  137.5980 C   0  0  0  0  0  3  0  0  0  0  0  0
  186.0150  178.1670  138.1240 C   0  0  0  0  0  2  0  0  0  0  0  0
  183.8140  178.3420  139.3310 C   0  0  0  0  0  0  0  0  0  0  0  0
  185.2140  178.3370  139.3930 C   0  0  0  0  0  0  0  0  0  0  0  0
  185.1270  178.5300  141.8170 C   0  0  0  0  0  0  0  0  0  0  0  0
  179.6450  181.7290  139.6530 N   0  0  0  0  0  0  0  0  0  0  0  0
  181.4650  180.0090  138.4110 C   0  0  0  0  0  0  0  0  0  0  0  0
  183.0040  178.9340  145.4220 O   0  0  0  0  0  1  0  0  0  0  0  0
  180.4310  180.8230  140.4920 C   0  0  0  0  0  2  0  0  0  0  0  0
  179.9750  182.0070  138.4270 C   0  0  0  0  0  0  0  0  0  0  0  0
  187.3870  178.4620  140.6760 C   0  0  0  0  0  2  0  0  0  0  0  0
  185.8740  178.4080  140.6320 C   0  0  0  0  0  0  0  0  0  0  0  0
  185.8000  178.6440  143.0380 C   0  0  0  0  0  3  0  0  0  0  0  0
  181.2800  178.1110  140.3600 S   0  0  0  0  0  0  0  0  0  0  0  0
  181.5890  178.7690  143.0950 N   0  0  0  0  0  1  0  0  0  0  0  0
  183.7040  178.5310  141.7870 C   0  0  0  0  0  0  0  0  0  0  0  0
  185.1220  178.7690  144.2480 C   0  0  0  0  0  0  0  0  0  0  0  0
  179.4860  183.3260  136.3160 C   0  0  0  0  0  3  0  0  0  0  0  0
  178.9310  182.4020  135.4330 O   0  0  0  0  0  1  0  0  0  0  0  0
  178.9520  184.5880  136.0590 O   0  0  0  0  0  1  0  0  0  0  0  0
  185.9100  178.8810  145.4970 C   0  0  0  0  0  0  0  0  0  0  0  0
  185.4970  179.7070  146.5360 O   0  0  0  0  0  1  0  0  0  0  0  0
  186.9730  178.2200  145.6340 O   0  0  0  0  0  0  0  0  0  0  0  0
  1 16  1  0  0  0  0
  1 19  1  0  0  0  0
  2 25  1  0  0  0  0
  3  4  1  0  0  0  0
  4 20  1  0  0  0  0
  5 24  1  0  0  0  0
  5  6  1  0  0  0  0
  6 26  2  0  0  0  0
  6 17  1  0  0  0  0
  7 23  1  0  0  0  0
  7 18  1  0  0  0  0
  8 12  1  0  0  0  0
  9 19  1  0  0  0  0
 10  8  2  0  0  0  0
 10 16  1  0  0  0  0
 11  3  1  0  0  0  0
 11 13  1  0  0  0  0
 12 13  1  0  0  0  0
 12  2  2  0  0  0  0
 13 21  2  0  0  0  0
 14 22  2  0  0  0  0
 15 18  1  0  0  0  0
 16  7  2  0  0  0  0
 19 15  2  0  0  0  0
 21 20  1  0  0  0  0
 21 14  1  0  0  0  0
 22 26  1  0  0  0  0
 23  2  1  0  0  0  0
 25 14  1  0  0  0  0
 25  5  2  0  0  0  0
 26 30  1  0  0  0  0
 27  9  1  0  0  0  0
 28 27  1  0  0  0  0
 29 27  1  0  0  0  0
 30 32  2  0  0  0  0
 30 31  1  0  0  0  0
M  END
>  <MODEL>
3

>  <REMARK>
 VINA RESULT:      -8.7      4.904      7.570
  Name = 
  2 active torsions:
  status: ('A' for Active; 'I' for Inactive)
    1  A    between atoms: C_1  and  N_10
    2  A    between atoms: C_11  and  C_32
                            x       y       z     vdW  Elec       q    Type
                         _______ _______ _______ _____ _____    ______ ____

>  <TORSDO>
F 2

$$$$
=
 OpenBabel11052416463D

 32 36  0  0  0  0  0  0  0  0999 V2000
  181.8530  176.4350  140.2270 C   0  0  0  0  0  2  0  0  0  0  0  0
  185.6810  178.6570  140.6510 C   0  0  0  0  0  0  0  0  0  0  0  0
  186.1340  177.3640  145.3300 N   0  0  0  0  0  2  0  0  0  0  0  0
  187.5250  177.7960  145.3380 C   0  0  0  0  0  2  0  0  0  0  0  0
  187.6300  178.2190  139.1110 C   0  0  0  0  0  0  0  0  0  0  0  0
  188.9770  177.8530  138.9530 C   0  0  0  0  0  0  0  0  0  0  0  0
  183.6180  177.9050  139.3270 C   0  0  0  0  0  0  0  0  0  0  0  0
  183.7480  178.8580  142.2230 N   0  0  0  0  0  0  0  0  0  0  0  0
  180.3440  175.4330  138.4250 N   0  0  0  0  0  2  0  0  0  0  0  0
  182.7060  178.4450  141.5520 C   0  0  0  0  0  3  0  0  0  0  0  0
  185.3990  178.2540  144.4350 C   0  0  0  0  0  2  0  0  0  0  0  0
  185.1370  178.5720  141.9530 C   0  0  0  0  0  0  0  0  0  0  0  0
  185.9560  178.2150  143.0320 C   0  0  0  0  0  0  0  0  0  0  0  0
  187.8390  177.8990  141.5230 C   0  0  0  0  0  0  0  0  0  0  0  0
  182.4380  176.3520  137.8610 N   0  0  0  0  0  0  0  0  0  0  0  0
  182.7700  177.6230  140.3280 C   0  0  0  0  0  0  0  0  0  0  0  0
  189.5210  177.8260  137.6720 O   0  0  0  0  0  1  0  0  0  0  0  0
  183.7310  176.9720  138.1570 C   0  0  0  0  0  2  0  0  0  0  0  0
  181.5690  176.0750  138.7880 C   0  0  0  0  0  0  0  0  0  0  0  0
  188.1660  177.4580  143.9960 C   0  0  0  0  0  2  0  0  0  0  0  0
  187.3110  177.9000  142.8270 C   0  0  0  0  0  0  0  0  0  0  0  0
  189.1770  177.5400  141.3310 C   0  0  0  0  0  3  0  0  0  0  0  0
  184.6280  179.3780  139.3800 S   0  0  0  0  0  0  0  0  0  0  0  0
  186.8880  178.4930  137.9250 N   0  0  0  0  0  1  0  0  0  0  0  0
  187.0340  178.2630  140.4080 C   0  0  0  0  0  0  0  0  0  0  0  0
  189.7630  177.5170  140.0670 C   0  0  0  0  0  0  0  0  0  0  0  0
  179.3240  175.0610  139.3940 C   0  0  0  0  0  3  0  0  0  0  0  0
  179.8440  174.1080  140.2690 O   0  0  0  0  0  1  0  0  0  0  0  0
  178.9310  176.1860  140.1170 O   0  0  0  0  0  1  0  0  0  0  0  0
  191.1870  177.1280  139.9500 C   0  0  0  0  0  0  0  0  0  0  0  0
  191.6080  176.2180  138.9880 O   0  0  0  0  0  0  0  0  0  0  0  0
  192.0440  177.6270  140.7290 O   0  0  0  0  0  1  0  0  0  0  0  0
  1 16  1  0  0  0  0
  2 12  1  0  0  0  0
  3  4  1  0  0  0  0
  5 25  1  0  0  0  0
  6  5  2  0  0  0  0
  6 26  1  0  0  0  0
  7 23  1  0  0  0  0
  7 16  2  0  0  0  0
  9 19  1  0  0  0  0
  9 27  1  0  0  0  0
 10  8  2  0  0  0  0
 11  3  1  0  0  0  0
 12  8  1  0  0  0  0
 12 13  2  0  0  0  0
 13 11  1  0  0  0  0
 14 21  2  0  0  0  0
 15 18  1  0  0  0  0
 15 19  2  0  0  0  0
 16 10  1  0  0  0  0
 17  6  1  0  0  0  0
 18  7  1  0  0  0  0
 19  1  1  0  0  0  0
 20  4  1  0  0  0  0
 21 13  1  0  0  0  0
 21 20  1  0  0  0  0
 22 14  1  0  0  0  0
 23  2  1  0  0  0  0
 24  5  1  0  0  0  0
 25  2  2  0  0  0  0
 25 14  1  0  0  0  0
 26 22  2  0  0  0  0
 27 29  1  0  0  0  0
 27 28  1  0  0  0  0
 30 26  1  0  0  0  0
 30 32  1  0  0  0  0
 31 30  2  0  0  0  0
M  END
>  <MODEL>
4

>  <REMARK>
 VINA RESULT:      -8.6      3.632      5.365
  Name = 
  2 active torsions:
  status: ('A' for Active; 'I' for Inactive)
    1  A    between atoms: C_1  and  N_10
    2  A    between atoms: C_11  and  C_32
                            x       y       z     vdW  Elec       q    Type
                         _______ _______ _______ _____ _____    ______ ____

>  <TORSDO>
F 2

$$$$
=
 OpenBabel11052416463D

 32 36  0  0  0  0  0  0  0  0999 V2000
  184.1940  176.0740  137.5740 C   0  0  0  0  0  2  0  0  0  0  0  0
  188.3160  177.7410  137.5940 C   0  0  0  0  0  0  0  0  0  0  0  0
  188.5290  177.6620  142.4650 N   0  0  0  0  0  2  0  0  0  0  0  0
  189.9700  177.8720  142.4270 C   0  0  0  0  0  2  0  0  0  0  0  0
  190.1860  176.6340  136.3130 C   0  0  0  0  0  0  0  0  0  0  0  0
  191.4610  176.0450  136.3190 C   0  0  0  0  0  0  0  0  0  0  0  0
  186.1720  176.9820  136.4120 C   0  0  0  0  0  0  0  0  0  0  0  0
  186.4260  178.6280  138.9680 N   0  0  0  0  0  0  0  0  0  0  0  0
  182.5620  174.8700  136.0200 N   0  0  0  0  0  2  0  0  0  0  0  0
  185.3380  178.2120  138.3780 C   0  0  0  0  0  3  0  0  0  0  0  0
  187.9470  178.3860  141.3370 C   0  0  0  0  0  2  0  0  0  0  0  0
  187.7560  178.0790  138.8470 C   0  0  0  0  0  0  0  0  0  0  0  0
  188.5020  177.9000  140.0190 C   0  0  0  0  0  0  0  0  0  0  0  0
  190.3240  176.9270  138.7340 C   0  0  0  0  0  0  0  0  0  0  0  0
  184.7770  175.2910  135.3400 N   0  0  0  0  0  0  0  0  0  0  0  0
  185.2830  177.0990  137.4100 C   0  0  0  0  0  0  0  0  0  0  0  0
  192.0040  175.6040  135.1150 O   0  0  0  0  0  1  0  0  0  0  0  0
  186.1480  175.7690  135.5270 C   0  0  0  0  0  2  0  0  0  0  0  0
  183.8680  175.3970  136.2640 C   0  0  0  0  0  0  0  0  0  0  0  0
  190.5610  177.1040  141.2490 C   0  0  0  0  0  2  0  0  0  0  0  0
  189.7930  177.3470  139.9670 C   0  0  0  0  0  0  0  0  0  0  0  0
  191.5930  176.3380  138.7040 C   0  0  0  0  0  3  0  0  0  0  0  0
  187.3970  178.2520  136.1320 S   0  0  0  0  0  0  0  0  0  0  0  0
  189.5030  176.6940  135.0630 N   0  0  0  0  0  1  0  0  0  0  0  0
  189.5940  177.1020  137.5250 C   0  0  0  0  0  0  0  0  0  0  0  0
  192.1770  175.8990  137.5180 C   0  0  0  0  0  0  0  0  0  0  0  0
  181.4900  174.9180  137.0030 C   0  0  0  0  0  3  0  0  0  0  0  0
  180.4160  175.6360  136.4800 O   0  0  0  0  0  1  0  0  0  0  0  0
  181.0740  173.6230  137.3100 O   0  0  0  0  0  1  0  0  0  0  0  0
  193.5250  175.2880  137.5720 C   0  0  0  0  0  0  0  0  0  0  0  0
  194.6550  176.0030  137.1950 O   0  0  0  0  0  0  0  0  0  0  0  0
  193.6640  174.1000  137.9690 O   0  0  0  0  0  1  0  0  0  0  0  0
  2 12  1  0  0  0  0
  4  3  1  0  0  0  0
  5  6  2  0  0  0  0
  5 25  1  0  0  0  0
  6 26  1  0  0  0  0
  7 16  2  0  0  0  0
  9 19  1  0  0  0  0
  9 27  1  0  0  0  0
 10  8  2  0  0  0  0
 11  3  1  0  0  0  0
 12  8  1  0  0  0  0
 12 13  2  0  0  0  0
 13 11  1  0  0  0  0
 14 21  2  0  0  0  0
 15 18  1  0  0  0  0
 15 19  2  0  0  0  0
 16  1  1  0  0  0  0
 16 10  1  0  0  0  0
 17  6  1  0  0  0  0
 18  7  1  0  0  0  0
 19  1  1  0  0  0  0
 20  4  1  0  0  0  0
 21 13  1  0  0  0  0
 21 20  1  0  0  0  0
 22 14  1  0  0  0  0
 23  7  1  0  0  0  0
 23  2  1  0  0  0  0
 24  5  1  0  0  0  0
 25  2  2  0  0  0  0
 25 14  1  0  0  0  0
 26 30  1  0  0  0  0
 26 22  2  0  0  0  0
 27 29  1  0  0  0  0
 28 27  1  0  0  0  0
 30 32  1  0  0  0  0
 31 30  2  0  0  0  0
M  END
>  <MODEL>
5

>  <REMARK>
 VINA RESULT:      -8.4      3.713      5.550
  Name = 
  2 active torsions:
  status: ('A' for Active; 'I' for Inactive)
    1  A    between atoms: C_1  and  N_10
    2  A    between atoms: C_11  and  C_32
                            x       y       z     vdW  Elec       q    Type
                         _______ _______ _______ _____ _____    ______ ____

>  <TORSDO>
F 2

$$$$
=
 OpenBabel11052416463D

 32 36  0  0  0  0  0  0  0  0999 V2000
  190.3760  176.6480  142.6860 C   0  0  0  0  0  2  0  0  0  0  0  0
  188.9650  177.2530  138.5140 C   0  0  0  0  0  0  0  0  0  0  0  0
  191.4320  173.3640  136.9130 N   0  0  0  0  0  2  0  0  0  0  0  0
  190.6900  173.3820  135.6590 C   0  0  0  0  0  2  0  0  0  0  0  0
  186.5060  177.3980  137.9680 C   0  0  0  0  0  0  0  0  0  0  0  0
  185.4060  176.9090  137.2440 C   0  0  0  0  0  0  0  0  0  0  0  0
  189.1290  177.9230  140.9820 C   0  0  0  0  0  0  0  0  0  0  0  0
  191.3540  176.9020  139.1610 N   0  0  0  0  0  0  0  0  0  0  0  0
  189.7710  177.2870  145.0850 N   0  0  0  0  0  2  0  0  0  0  0  0
  191.4240  177.2160  140.4270 C   0  0  0  0  0  3  0  0  0  0  0  0
  191.5980  174.7480  137.3480 C   0  0  0  0  0  2  0  0  0  0  0  0
  190.1770  176.5320  138.4110 C   0  0  0  0  0  0  0  0  0  0  0  0
  190.2650  175.4300  137.5500 C   0  0  0  0  0  0  0  0  0  0  0  0
  187.9130  175.6650  136.9750 C   0  0  0  0  0  0  0  0  0  0  0  0
  188.3530  177.8640  143.2950 N   0  0  0  0  0  0  0  0  0  0  0  0
  190.2630  177.2980  141.3350 C   0  0  0  0  0  0  0  0  0  0  0  0
  184.1700  177.5300  137.3990 O   0  0  0  0  0  1  0  0  0  0  0  0
  187.9360  177.8760  141.8920 C   0  0  0  0  0  2  0  0  0  0  0  0
  189.4520  177.2920  143.6910 C   0  0  0  0  0  0  0  0  0  0  0  0
  189.2440  173.7780  135.9340 C   0  0  0  0  0  2  0  0  0  0  0  0
  189.1450  175.0070  136.8140 C   0  0  0  0  0  0  0  0  0  0  0  0
  186.7970  175.2040  136.2680 C   0  0  0  0  0  3  0  0  0  0  0  0
  189.0200  178.8020  139.4310 S   0  0  0  0  0  0  0  0  0  0  0  0
  186.2670  178.4820  138.8620 N   0  0  0  0  0  1  0  0  0  0  0  0
  187.7930  176.7920  137.8370 C   0  0  0  0  0  0  0  0  0  0  0  0
  185.5480  175.8100  136.3820 C   0  0  0  0  0  0  0  0  0  0  0  0
  190.9630  176.6500  145.6240 C   0  0  0  0  0  3  0  0  0  0  0  0
  192.0530  177.5050  145.4710 O   0  0  0  0  0  1  0  0  0  0  0  0
  190.7780  176.3760  146.9780 O   0  0  0  0  0  1  0  0  0  0  0  0
  184.4170  175.2610  135.5970 C   0  0  0  0  0  0  0  0  0  0  0  0
  183.8170  174.0570  135.9460 O   0  0  0  0  0  1  0  0  0  0  0  0
  183.9810  175.8890  134.5960 O   0  0  0  0  0  0  0  0  0  0  0  0
  1 19  1  0  0  0  0
  2 23  1  0  0  0  0
  3 11  1  0  0  0  0
  4 20  1  0  0  0  0
  4  3  1  0  0  0  0
  5 24  1  0  0  0  0
  6 17  1  0  0  0  0
  6  5  2  0  0  0  0
  7 16  2  0  0  0  0
  7 18  1  0  0  0  0
  8 10  2  0  0  0  0
  9 27  1  0  0  0  0
 10 16  1  0  0  0  0
 11 13  1  0  0  0  0
 12  2  1  0  0  0  0
 12  8  1  0  0  0  0
 13 12  2  0  0  0  0
 14 25  1  0  0  0  0
 15 19  2  0  0  0  0
 16  1  1  0  0  0  0
 18 15  1  0  0  0  0
 19  9  1  0  0  0  0
 20 21  1  0  0  0  0
 21 14  2  0  0  0  0
 21 13  1  0  0  0  0
 22 26  2  0  0  0  0
 22 14  1  0  0  0  0
 23  7  1  0  0  0  0
 25  5  1  0  0  0  0
 25  2  2  0  0  0  0
 26  6  1  0  0  0  0
 27 29  1  0  0  0  0
 28 27  1  0  0  0  0
 30 31  1  0  0  0  0
 30 26  1  0  0  0  0
 32 30  2  0  0  0  0
M  END
>  <MODEL>
6

>  <REMARK>
 VINA RESULT:      -8.2      1.974      8.517
  Name = 
  2 active torsions:
  status: ('A' for Active; 'I' for Inactive)
    1  A    between atoms: C_1  and  N_10
    2  A    between atoms: C_11  and  C_32
                            x       y       z     vdW  Elec       q    Type
                         _______ _______ _______ _____ _____    ______ ____

>  <TORSDO>
F 2

$$$$
=
 OpenBabel11052416463D

 32 36  0  0  0  0  0  0  0  0999 V2000
  183.7380  175.8380  137.7160 C   0  0  0  0  0  2  0  0  0  0  0  0
  186.6980  178.3330  139.9030 C   0  0  0  0  0  0  0  0  0  0  0  0
  184.0090  178.2970  143.9700 N   0  0  0  0  0  2  0  0  0  0  0  0
  185.1330  178.8040  144.7440 C   0  0  0  0  0  2  0  0  0  0  0  0
  189.1180  177.6440  140.0810 C   0  0  0  0  0  0  0  0  0  0  0  0
  190.2220  177.3360  140.8930 C   0  0  0  0  0  0  0  0  0  0  0  0
  185.8310  177.1420  137.8050 C   0  0  0  0  0  0  0  0  0  0  0  0
  184.2440  178.8030  139.8140 N   0  0  0  0  0  0  0  0  0  0  0  0
  183.5690  174.3200  135.6680 N   0  0  0  0  0  2  0  0  0  0  0  0
  183.8040  178.1680  138.7610 C   0  0  0  0  0  3  0  0  0  0  0  0
  184.0910  178.8840  142.6340 C   0  0  0  0  0  2  0  0  0  0  0  0
  185.4590  178.5460  140.5510 C   0  0  0  0  0  0  0  0  0  0  0  0
  185.3890  178.5260  141.9500 C   0  0  0  0  0  0  0  0  0  0  0  0
  187.7510  177.9580  142.0810 C   0  0  0  0  0  0  0  0  0  0  0  0
  185.6480  175.1970  136.3430 N   0  0  0  0  0  0  0  0  0  0  0  0
  184.5200  177.0690  138.0850 C   0  0  0  0  0  0  0  0  0  0  0  0
  191.4350  177.0200  140.2880 O   0  0  0  0  0  1  0  0  0  0  0  0
  186.5390  175.9520  137.2260 C   0  0  0  0  0  2  0  0  0  0  0  0
  184.3680  175.1090  136.5530 C   0  0  0  0  0  0  0  0  0  0  0  0
  186.4250  178.1790  144.2280 C   0  0  0  0  0  2  0  0  0  0  0  0
  186.5340  178.2560  142.7190 C   0  0  0  0  0  0  0  0  0  0  0  0
  188.8700  177.6480  142.8600 C   0  0  0  0  0  3  0  0  0  0  0  0
  186.7470  178.6410  138.1290 S   0  0  0  0  0  0  0  0  0  0  0  0
  189.3060  177.5610  138.6710 N   0  0  0  0  0  1  0  0  0  0  0  0
  187.8560  177.9770  140.6620 C   0  0  0  0  0  0  0  0  0  0  0  0
  190.1050  177.3430  142.2930 C   0  0  0  0  0  0  0  0  0  0  0  0
  182.1350  174.1410  135.8380 C   0  0  0  0  0  3  0  0  0  0  0  0
  181.5480  173.9050  134.5960 O   0  0  0  0  0  1  0  0  0  0  0  0
  181.8930  173.0550  136.6770 O   0  0  0  0  0  1  0  0  0  0  0  0
  191.2420  177.0280  143.1890 C   0  0  0  0  0  0  0  0  0  0  0  0
  191.4950  175.7250  143.6000 O   0  0  0  0  0  1  0  0  0  0  0  0
  192.0020  177.9490  143.5910 O   0  0  0  0  0  0  0  0  0  0  0  0
  1 16  1  0  0  0  0
  2 12  2  0  0  0  0
  2 25  1  0  0  0  0
  3  4  1  0  0  0  0
  5 25  2  0  0  0  0
  5  6  1  0  0  0  0
  6 26  2  0  0  0  0
  7 16  2  0  0  0  0
  7 23  1  0  0  0  0
  8 12  1  0  0  0  0
  9 27  1  0  0  0  0
  9 19  1  0  0  0  0
 10  8  2  0  0  0  0
 11  3  1  0  0  0  0
 12 13  1  0  0  0  0
 13 11  1  0  0  0  0
 13 21  2  0  0  0  0
 14 21  1  0  0  0  0
 14 22  2  0  0  0  0
 15 19  2  0  0  0  0
 15 18  1  0  0  0  0
 16 10  1  0  0  0  0
 17  6  1  0  0  0  0
 18  7  1  0  0  0  0
 19  1  1  0  0  0  0
 20  4  1  0  0  0  0
 21 20  1  0  0  0  0
 23  2  1  0  0  0  0
 24  5  1  0  0  0  0
 25 14  1  0  0  0  0
 26 22  1  0  0  0  0
 26 30  1  0  0  0  0
 27 29  1  0  0  0  0
 28 27  1  0  0  0  0
 30 32  2  0  0  0  0
 30 31  1  0  0  0  0
M  END
>  <MODEL>
7

>  <REMARK>
 VINA RESULT:      -8.2      2.288      2.872
  Name = 
  2 active torsions:
  status: ('A' for Active; 'I' for Inactive)
    1  A    between atoms: C_1  and  N_10
    2  A    between atoms: C_11  and  C_32
                            x       y       z     vdW  Elec       q    Type
                         _______ _______ _______ _____ _____    ______ ____

>  <TORSDO>
F 2

$$$$
=
 OpenBabel11052416463D

 32 36  0  0  0  0  0  0  0  0999 V2000
  183.4400  176.5660  138.6140 C   0  0  0  0  0  2  0  0  0  0  0  0
  187.6670  177.8570  138.1270 C   0  0  0  0  0  0  0  0  0  0  0  0
  188.4380  177.8000  142.9420 N   0  0  0  0  0  2  0  0  0  0  0  0
  189.8780  177.8790  142.7340 C   0  0  0  0  0  2  0  0  0  0  0  0
  189.2700  176.5770  136.6600 C   0  0  0  0  0  0  0  0  0  0  0  0
  190.4800  175.8760  136.5300 C   0  0  0  0  0  0  0  0  0  0  0  0
  185.3420  177.2840  137.2150 C   0  0  0  0  0  0  0  0  0  0  0  0
  186.0350  178.9220  139.6940 N   0  0  0  0  0  0  0  0  0  0  0  0
  181.5380  175.5010  137.2810 N   0  0  0  0  0  2  0  0  0  0  0  0
  184.8540  178.6000  139.2400 C   0  0  0  0  0  3  0  0  0  0  0  0
  187.7950  178.5640  141.8760 C   0  0  0  0  0  2  0  0  0  0  0  0
  187.2890  178.2550  139.4300 C   0  0  0  0  0  0  0  0  0  0  0  0
  188.1480  178.0190  140.5120 C   0  0  0  0  0  0  0  0  0  0  0  0
  189.7150  176.8760  139.0430 C   0  0  0  0  0  0  0  0  0  0  0  0
  183.6880  175.7160  136.3420 N   0  0  0  0  0  0  0  0  0  0  0  0
  184.5890  177.4880  138.3070 C   0  0  0  0  0  0  0  0  0  0  0  0
  190.8380  175.3780  135.2800 O   0  0  0  0  0  1  0  0  0  0  0  0
  185.1070  176.0710  136.3620 C   0  0  0  0  0  2  0  0  0  0  0  0
  182.9050  175.9110  137.3630 C   0  0  0  0  0  0  0  0  0  0  0  0
  190.2580  177.0520  141.5110 C   0  0  0  0  0  2  0  0  0  0  0  0
  189.3700  177.3520  140.3210 C   0  0  0  0  0  0  0  0  0  0  0  0
  190.9140  176.1750  138.8780 C   0  0  0  0  0  3  0  0  0  0  0  0
  186.6320  178.4370  136.7720 S   0  0  0  0  0  0  0  0  0  0  0  0
  188.4550  176.6880  135.4960 N   0  0  0  0  0  1  0  0  0  0  0  0
  188.8670  177.1060  137.9240 C   0  0  0  0  0  0  0  0  0  0  0  0
  191.3150  175.6770  137.6410 C   0  0  0  0  0  0  0  0  0  0  0  0
  180.5960  175.6530  138.3800 C   0  0  0  0  0  3  0  0  0  0  0  0
  179.3840  176.1320  137.8860 O   0  0  0  0  0  1  0  0  0  0  0  0
  180.3900  174.4200  138.9960 O   0  0  0  0  0  1  0  0  0  0  0  0
  192.6020  174.9470  137.5510 C   0  0  0  0  0  0  0  0  0  0  0  0
  192.6860  173.7140  136.9160 O   0  0  0  0  0  0  0  0  0  0  0  0
  193.6450  175.4440  138.0520 O   0  0  0  0  0  1  0  0  0  0  0  0
  2 12  1  0  0  0  0
  4  3  1  0  0  0  0
  5 25  1  0  0  0  0
  6  5  2  0  0  0  0
  6 26  1  0  0  0  0
  7 16  2  0  0  0  0
  9 19  1  0  0  0  0
  9 27  1  0  0  0  0
 10  8  2  0  0  0  0
 11  3  1  0  0  0  0
 12  8  1  0  0  0  0
 12 13  2  0  0  0  0
 13 11  1  0  0  0  0
 14 21  2  0  0  0  0
 15 18  1  0  0  0  0
 15 19  2  0  0  0  0
 16  1  1  0  0  0  0
 16 10  1  0  0  0  0
 17  6  1  0  0  0  0
 18  7  1  0  0  0  0
 19  1  1  0  0  0  0
 20  4  1  0  0  0  0
 21 13  1  0  0  0  0
 21 20  1  0  0  0  0
 22 14  1  0  0  0  0
 23  7  1  0  0  0  0
 23  2  1  0  0  0  0
 24  5  1  0  0  0  0
 25  2  2  0  0  0  0
 25 14  1  0  0  0  0
 26 22  2  0  0  0  0
 27 29  1  0  0  0  0
 28 27  1  0  0  0  0
 30 26  1  0  0  0  0
 30 32  1  0  0  0  0
 31 30  2  0  0  0  0
M  END
>  <MODEL>
8

>  <REMARK>
 VINA RESULT:      -7.6      3.566      5.740
  Name = 
  2 active torsions:
  status: ('A' for Active; 'I' for Inactive)
    1  A    between atoms: C_1  and  N_10
    2  A    between atoms: C_11  and  C_32
                            x       y       z     vdW  Elec       q    Type
                         _______ _______ _______ _____ _____    ______ ____

>  <TORSDO>
F 2

$$$$
=
 OpenBabel11052416463D

 32 36  0  0  0  0  0  0  0  0999 V2000
  189.8530  176.7520  141.4620 C   0  0  0  0  0  2  0  0  0  0  0  0
  187.6530  176.9540  137.6030 C   0  0  0  0  0  0  0  0  0  0  0  0
  188.7660  172.3340  136.5090 N   0  0  0  0  0  2  0  0  0  0  0  0
  187.7690  172.3230  135.4470 C   0  0  0  0  0  2  0  0  0  0  0  0
  185.2270  177.6380  137.5100 C   0  0  0  0  0  0  0  0  0  0  0  0
  183.9070  177.3330  137.1390 C   0  0  0  0  0  0  0  0  0  0  0  0
  188.5420  177.9850  139.7750 C   0  0  0  0  0  0  0  0  0  0  0  0
  189.9930  176.1110  137.8540 N   0  0  0  0  0  0  0  0  0  0  0  0
  189.9900  177.9430  143.7180 N   0  0  0  0  0  2  0  0  0  0  0  0
  190.4290  176.6160  138.9770 C   0  0  0  0  0  3  0  0  0  0  0  0
  189.3260  173.6820  136.5740 C   0  0  0  0  0  2  0  0  0  0  0  0
  188.6200  175.9340  137.4440 C   0  0  0  0  0  0  0  0  0  0  0  0
  188.2600  174.7130  136.8600 C   0  0  0  0  0  0  0  0  0  0  0  0
  185.9470  175.4490  136.6980 C   0  0  0  0  0  0  0  0  0  0  0  0
  188.3450  178.5430  142.1430 N   0  0  0  0  0  0  0  0  0  0  0  0
  189.5640  177.1580  140.0430 C   0  0  0  0  0  0  0  0  0  0  0  0
  182.9070  178.2730  137.3750 O   0  0  0  0  0  1  0  0  0  0  0  0
  187.6190  178.4150  140.8790 C   0  0  0  0  0  2  0  0  0  0  0  0
  189.3570  177.7840  142.4470 C   0  0  0  0  0  0  0  0  0  0  0  0
  186.5500  173.1260  135.8900 C   0  0  0  0  0  2  0  0  0  0  0  0
  186.9330  174.4740  136.4640 C   0  0  0  0  0  0  0  0  0  0  0  0
  184.6220  175.1780  136.3390 C   0  0  0  0  0  3  0  0  0  0  0  0
  188.2590  178.5720  138.1120 S   0  0  0  0  0  0  0  0  0  0  0  0
  185.4470  178.8870  138.1590 N   0  0  0  0  0  1  0  0  0  0  0  0
  186.2820  176.7020  137.2830 C   0  0  0  0  0  0  0  0  0  0  0  0
  183.5970  176.0990  136.5430 C   0  0  0  0  0  0  0  0  0  0  0  0
  191.1090  177.1230  144.1560 C   0  0  0  0  0  3  0  0  0  0  0  0
  192.1600  177.2510  143.2490 O   0  0  0  0  0  1  0  0  0  0  0  0
  191.5340  177.5410  145.4170 O   0  0  0  0  0  1  0  0  0  0  0  0
  182.2210  175.7350  136.1320 C   0  0  0  0  0  0  0  0  0  0  0  0
  181.4690  174.8250  136.8650 O   0  0  0  0  0  1  0  0  0  0  0  0
  181.7120  176.2550  135.1030 O   0  0  0  0  0  0  0  0  0  0  0  0
  1 19  1  0  0  0  0
  2 23  1  0  0  0  0
  3 11  1  0  0  0  0
  4 20  1  0  0  0  0
  4  3  1  0  0  0  0
  5 24  1  0  0  0  0
  6 17  1  0  0  0  0
  6  5  2  0  0  0  0
  7 16  2  0  0  0  0
  7 18  1  0  0  0  0
  8 10  2  0  0  0  0
  9 27  1  0  0  0  0
 10 16  1  0  0  0  0
 11 13  1  0  0  0  0
 12  2  1  0  0  0  0
 12  8  1  0  0  0  0
 13 12  2  0  0  0  0
 14 25  1  0  0  0  0
 15 19  2  0  0  0  0
 16  1  1  0  0  0  0
 18 15  1  0  0  0  0
 19  9  1  0  0  0  0
 20 21  1  0  0  0  0
 21 14  2  0  0  0  0
 21 13  1  0  0  0  0
 22 26  2  0  0  0  0
 22 14  1  0  0  0  0
 23  7  1  0  0  0  0
 25  5  1  0  0  0  0
 25  2  2  0  0  0  0
 26  6  1  0  0  0  0
 27 29  1  0  0  0  0
 28 27  1  0  0  0  0
 30 26  1  0  0  0  0
 30 31  1  0  0  0  0
 32 30  2  0  0  0  0
M  END
>  <MODEL>
9

>  <REMARK>
 VINA RESULT:      -7.2      2.382      8.431
  Name = 
  2 active torsions:
  status: ('A' for Active; 'I' for Inactive)
    1  A    between atoms: C_1  and  N_10
    2  A    between atoms: C_11  and  C_32
                            x       y       z     vdW  Elec       q    Type
                         _______ _______ _______ _____ _____    ______ ____

>  <TORSDO>
F 2

$$$$
