=
 OpenBabel11052416593D

 32 37  0  0  1  0  0  0  0  0999 V2000
  181.4060  179.3920  142.7140 C   0  0  0  0  0  0  0  0  0  0  0  0
  186.1140  177.6990  143.3520 C   0  0  0  0  0  0  0  0  0  0  0  0
  187.1560  178.5050  148.0330 C   0  0  0  0  0  3  0  0  0  0  0  0
  188.4220  177.9530  147.8330 C   0  0  0  0  0  3  0  0  0  0  0  0
  183.9670  178.3020  142.4060 C   0  0  0  0  0  0  0  0  0  0  0  0
  184.4170  178.7310  144.7580 C   0  0  0  0  0  3  0  0  0  0  0  0
  182.2700  179.3290  143.8130 C   0  0  0  0  0  3  0  0  0  0  0  0
  186.2520  178.5860  146.9720 C   0  0  0  0  0  3  0  0  0  0  0  0
  185.7060  178.1880  144.6140 C   0  0  0  0  0  0  0  0  0  0  0  0
  186.6040  178.1150  145.6950 C   0  0  0  0  0  0  0  0  0  0  0  0
  188.2440  177.0830  144.2160 C   0  0  0  0  0  0  0  0  0  0  0  0
  181.8180  178.9040  141.4690 C   0  0  0  0  0  3  0  0  0  0  0  0
  183.5500  178.7900  143.6650 C   0  0  0  0  0  0  0  0  0  0  0  0
  183.0980  178.3610  141.3150 C   0  0  0  0  0  3  0  0  0  0  0  0
  188.7880  177.4810  146.5720 C   0  0  0  0  0  3  0  0  0  0  0  0
  187.8910  177.5550  145.4940 C   0  0  0  0  0  0  0  0  0  0  0  0
  185.2460  177.7600  142.2590 C   0  0  0  0  0  3  0  0  0  0  0  0
  187.3550  177.1720  143.1930 N   0  0  0  0  0  0  0  0  0  0  0  0
  180.0340  179.9440  142.8790 C   0  0  0  0  0  2  0  0  0  0  0  0
  179.3150  179.8580  141.6200 N   0  0  0  0  0  2  0  0  0  0  0  0
  179.0790  181.2190  141.1760 C   0  0  1  0  0  3  0  0  0  0  0  0
  180.1330  181.6170  140.3340 O   0  0  0  0  0  0  0  0  0  0  0  0
  178.9320  181.2450  139.7060 C   0  0  0  0  0  2  0  0  0  0  0  0
  189.6000  176.5110  143.9390 C   0  0  0  0  0  2  0  0  0  0  0  0
  190.2960  177.2780  142.8150 C   0  0  1  0  0  3  0  0  0  0  0  0
  191.7280  177.6560  143.1870 C   0  0  0  0  0  2  0  0  0  0  0  0
  191.7590  178.4690  144.3210 O   0  0  0  0  0  0  0  0  0  0  0  0
  191.0540  179.6130  143.9510 C   0  0  0  0  0  1  0  0  0  0  0  0
  190.2030  176.5820  141.4530 C   0  0  0  0  0  2  0  0  0  0  0  0
  188.7920  177.2250  139.5270 C   0  0  0  0  0  2  0  0  0  0  0  0
  188.7970  178.3780  140.5040 C   0  0  0  0  0  2  0  0  0  0  0  0
  190.0530  177.5590  140.2970 C   0  0  0  0  0  3  0  0  0  0  0  0
  1 19  1  0  0  0  0
  1  7  1  0  0  0  0
  2  9  1  0  0  0  0
  4  3  1  0  0  0  0
  5 13  1  0  0  0  0
  8  3  2  0  0  0  0
  9  6  2  0  0  0  0
  9 10  1  0  0  0  0
 10  8  1  0  0  0  0
 11 16  1  0  0  0  0
 12  1  2  0  0  0  0
 13  7  2  0  0  0  0
 13  6  1  0  0  0  0
 14 12  1  0  0  0  0
 14  5  2  0  0  0  0
 15  4  2  0  0  0  0
 16 10  2  0  0  0  0
 16 15  1  0  0  0  0
 17  5  1  0  0  0  0
 17  2  2  0  0  0  0
 18  2  1  0  0  0  0
 18 11  2  0  0  0  0
 20 19  1  0  0  0  0
 21 20  1  6  0  0  0
 22 21  1  0  0  0  0
 23 22  1  0  0  0  0
 23 21  1  0  0  0  0
 24 11  1  0  0  0  0
 25 29  1  6  0  0  0
 25 26  1  0  0  0  0
 25 24  1  0  0  0  0
 26 27  1  0  0  0  0
 28 27  1  0  0  0  0
 30 32  1  0  0  0  0
 30 31  1  0  0  0  0
 32 31  1  0  0  0  0
 32 29  1  0  0  0  0
M  END
>  <MODEL>
1

>  <REMARK>
 VINA RESULT:      -8.8      0.000      0.000
  Name = 
  9 active torsions:
  status: ('A' for Active; 'I' for Inactive)
    1  A    between atoms: C_1  and  N_10
    2  A    between atoms: C_2  and  C_24
    3  A    between atoms: O_6  and  C_7
    4  A    between atoms: C_7  and  C_32
    5  A    between atoms: N_10  and  C_24
    6  A    between atoms: C_16  and  C_27
    7  A    between atoms: C_22  and  C_30
    8  A    between atoms: C_22  and  C_32
    9  A    between atoms: C_27  and  C_32
                            x       y       z     vdW  Elec       q    Type
                         _______ _______ _______ _____ _____    ______ ____

>  <TORSDO>
F 9

$$$$
=
 OpenBabel11052416593D

 32 37  0  0  1  0  0  0  0  0999 V2000
  182.1710  178.9720  142.7340 C   0  0  0  0  0  0  0  0  0  0  0  0
  187.0440  178.1360  143.7300 C   0  0  0  0  0  0  0  0  0  0  0  0
  189.2000  177.7270  139.3900 C   0  0  0  0  0  3  0  0  0  0  0  0
  190.4220  177.5210  140.0310 C   0  0  0  0  0  3  0  0  0  0  0  0
  184.6660  178.5490  143.9330 C   0  0  0  0  0  0  0  0  0  0  0  0
  185.6780  178.3600  141.7290 C   0  0  0  0  0  3  0  0  0  0  0  0
  183.3010  178.7770  141.9330 C   0  0  0  0  0  3  0  0  0  0  0  0
  188.0420  177.9340  140.1420 C   0  0  0  0  0  3  0  0  0  0  0  0
  186.9350  178.1450  142.3200 C   0  0  0  0  0  0  0  0  0  0  0  0
  188.0920  177.9370  141.5460 C   0  0  0  0  0  0  0  0  0  0  0  0
  189.3850  177.7300  143.6020 C   0  0  0  0  0  0  0  0  0  0  0  0
  182.2890  178.9650  144.1280 C   0  0  0  0  0  3  0  0  0  0  0  0
  184.5480  178.5610  142.5250 C   0  0  0  0  0  0  0  0  0  0  0  0
  183.5350  178.7520  144.7270 C   0  0  0  0  0  3  0  0  0  0  0  0
  190.4900  177.5210  141.4250 C   0  0  0  0  0  3  0  0  0  0  0  0
  189.3340  177.7270  142.1950 C   0  0  0  0  0  0  0  0  0  0  0  0
  185.9130  178.3370  144.5250 C   0  0  0  0  0  3  0  0  0  0  0  0
  188.2490  177.9300  144.3190 N   0  0  0  0  0  0  0  0  0  0  0  0
  180.8480  179.2260  142.1010 C   0  0  0  0  0  2  0  0  0  0  0  0
  180.9900  179.2440  140.6550 N   0  0  0  0  0  2  0  0  0  0  0  0
  180.0520  180.2290  140.1530 C   0  0  1  0  0  3  0  0  0  0  0  0
  180.7560  181.2070  139.4280 O   0  0  0  0  0  0  0  0  0  0  0  0
  180.0790  180.2330  138.6750 C   0  0  0  0  0  2  0  0  0  0  0  0
  190.6650  177.4820  144.3410 C   0  0  0  0  0  2  0  0  0  0  0  0
  190.3910  176.8660  145.7130 C   0  0  1  0  0  3  0  0  0  0  0  0
  191.6310  176.1850  146.2860 C   0  0  0  0  0  2  0  0  0  0  0  0
  192.0460  176.8010  147.4690 O   0  0  0  0  0  0  0  0  0  0  0  0
  192.6340  175.7770  148.2090 C   0  0  0  0  0  1  0  0  0  0  0  0
  189.7420  177.8410  146.7000 C   0  0  0  0  0  2  0  0  0  0  0  0
  188.5300  178.0040  148.8490 C   0  0  0  0  0  2  0  0  0  0  0  0
  187.5150  178.1050  147.7350 C   0  0  0  0  0  2  0  0  0  0  0  0
  188.7030  177.1780  147.5920 C   0  0  0  0  0  3  0  0  0  0  0  0
  1 12  1  0  0  0  0
  2 18  1  0  0  0  0
  2 17  1  0  0  0  0
  3  4  2  0  0  0  0
  3  8  1  0  0  0  0
  4 15  1  0  0  0  0
  5 17  2  0  0  0  0
  5 14  1  0  0  0  0
  6  9  1  0  0  0  0
  6 13  2  0  0  0  0
  7 13  1  0  0  0  0
  7  1  2  0  0  0  0
  8 10  2  0  0  0  0
  9  2  2  0  0  0  0
 10 16  1  0  0  0  0
 10  9  1  0  0  0  0
 11 18  2  0  0  0  0
 11 24  1  0  0  0  0
 12 14  2  0  0  0  0
 13  5  1  0  0  0  0
 15 16  2  0  0  0  0
 16 11  1  0  0  0  0
 19  1  1  0  0  0  0
 20 19  1  0  0  0  0
 21 20  1  1  0  0  0
 22 21  1  0  0  0  0
 23 22  1  0  0  0  0
 23 21  1  0  0  0  0
 25 24  1  6  0  0  0
 25 26  1  0  0  0  0
 25 29  1  0  0  0  0
 26 27  1  0  0  0  0
 27 28  1  0  0  0  0
 29 32  1  0  0  0  0
 31 30  1  0  0  0  0
 32 31  1  0  0  0  0
 32 30  1  0  0  0  0
M  END
>  <MODEL>
2

>  <REMARK>
 VINA RESULT:      -8.6      1.599      4.426
  Name = 
  9 active torsions:
  status: ('A' for Active; 'I' for Inactive)
    1  A    between atoms: C_1  and  N_10
    2  A    between atoms: C_2  and  C_24
    3  A    between atoms: O_6  and  C_7
    4  A    between atoms: C_7  and  C_32
    5  A    between atoms: N_10  and  C_24
    6  A    between atoms: C_16  and  C_27
    7  A    between atoms: C_22  and  C_30
    8  A    between atoms: C_22  and  C_32
    9  A    between atoms: C_27  and  C_32
                            x       y       z     vdW  Elec       q    Type
                         _______ _______ _______ _____ _____    ______ ____

>  <TORSDO>
F 9

$$$$
=
 OpenBabel11052416593D

 32 37  0  0  1  0  0  0  0  0999 V2000
  181.3730  179.3960  142.1320 C   0  0  0  0  0  0  0  0  0  0  0  0
  186.0200  177.7750  143.2330 C   0  0  0  0  0  0  0  0  0  0  0  0
  186.6040  178.6480  147.9820 C   0  0  0  0  0  3  0  0  0  0  0  0
  187.8900  178.1110  147.9090 C   0  0  0  0  0  3  0  0  0  0  0  0
  183.9650  178.3380  142.0820 C   0  0  0  0  0  0  0  0  0  0  0  0
  184.1850  178.7990  144.4600 C   0  0  0  0  0  3  0  0  0  0  0  0
  182.1290  179.3570  143.3090 C   0  0  0  0  0  3  0  0  0  0  0  0
  185.8040  178.7040  146.8390 C   0  0  0  0  0  3  0  0  0  0  0  0
  185.4880  178.2720  144.4450 C   0  0  0  0  0  0  0  0  0  0  0  0
  186.2810  178.2240  145.6070 C   0  0  0  0  0  0  0  0  0  0  0  0
  188.0660  177.1980  144.3030 C   0  0  0  0  0  0  0  0  0  0  0  0
  181.9070  178.8990  140.9380 C   0  0  0  0  0  3  0  0  0  0  0  0
  183.4250  178.8340  143.2900 C   0  0  0  0  0  0  0  0  0  0  0  0
  183.2020  178.3730  140.9120 C   0  0  0  0  0  3  0  0  0  0  0  0
  188.3800  177.6300  146.6940 C   0  0  0  0  0  3  0  0  0  0  0  0
  187.5880  177.6800  145.5360 C   0  0  0  0  0  0  0  0  0  0  0  0
  185.2590  177.8120  142.0630 C   0  0  0  0  0  3  0  0  0  0  0  0
  187.2770  177.2630  143.1990 N   0  0  0  0  0  0  0  0  0  0  0  0
  179.9840  179.9310  142.1600 C   0  0  0  0  0  2  0  0  0  0  0  0
  179.4250  179.9160  140.8200 N   0  0  0  0  0  2  0  0  0  0  0  0
  179.2150  181.2990  140.4370 C   0  0  1  0  0  3  0  0  0  0  0  0
  180.2050  181.6750  139.5110 O   0  0  0  0  0  0  0  0  0  0  0  0
  178.9350  181.3770  138.9870 C   0  0  0  0  0  2  0  0  0  0  0  0
  189.4500  176.6420  144.1620 C   0  0  0  0  0  2  0  0  0  0  0  0
  190.4920  177.7600  144.1800 C   0  0  1  0  0  3  0  0  0  0  0  0
  191.6480  177.4440  145.1250 C   0  0  0  0  0  2  0  0  0  0  0  0
  191.5280  176.1600  145.6600 O   0  0  0  0  0  0  0  0  0  0  0  0
  192.0310  176.2720  146.9550 C   0  0  0  0  0  1  0  0  0  0  0  0
  190.9660  178.1740  142.7830 C   0  0  0  0  0  2  0  0  0  0  0  0
  190.2620  177.3920  140.5450 C   0  0  0  0  0  2  0  0  0  0  0  0
  191.7720  177.4390  140.5670 C   0  0  0  0  0  2  0  0  0  0  0  0
  191.0130  177.0110  141.8050 C   0  0  0  0  0  3  0  0  0  0  0  0
  1 19  1  0  0  0  0
  1  7  1  0  0  0  0
  2  9  1  0  0  0  0
  4  3  1  0  0  0  0
  5 13  1  0  0  0  0
  8  3  2  0  0  0  0
  9  6  2  0  0  0  0
  9 10  1  0  0  0  0
 10  8  1  0  0  0  0
 11 16  1  0  0  0  0
 12  1  2  0  0  0  0
 13  7  2  0  0  0  0
 13  6  1  0  0  0  0
 14 12  1  0  0  0  0
 14  5  2  0  0  0  0
 15  4  2  0  0  0  0
 16 10  2  0  0  0  0
 16 15  1  0  0  0  0
 17  5  1  0  0  0  0
 17  2  2  0  0  0  0
 18  2  1  0  0  0  0
 18 11  2  0  0  0  0
 20 19  1  0  0  0  0
 21 20  1  6  0  0  0
 22 21  1  0  0  0  0
 23 22  1  0  0  0  0
 23 21  1  0  0  0  0
 24 25  1  0  0  0  0
 24 11  1  0  0  0  0
 25 29  1  6  0  0  0
 25 26  1  0  0  0  0
 26 27  1  0  0  0  0
 27 28  1  0  0  0  0
 30 31  1  0  0  0  0
 30 32  1  0  0  0  0
 31 32  1  0  0  0  0
 32 29  1  0  0  0  0
M  END
>  <MODEL>
3

>  <REMARK>
 VINA RESULT:      -8.6      1.068      1.388
  Name = 
  9 active torsions:
  status: ('A' for Active; 'I' for Inactive)
    1  A    between atoms: C_1  and  N_10
    2  A    between atoms: C_2  and  C_24
    3  A    between atoms: O_6  and  C_7
    4  A    between atoms: C_7  and  C_32
    5  A    between atoms: N_10  and  C_24
    6  A    between atoms: C_16  and  C_27
    7  A    between atoms: C_22  and  C_30
    8  A    between atoms: C_22  and  C_32
    9  A    between atoms: C_27  and  C_32
                            x       y       z     vdW  Elec       q    Type
                         _______ _______ _______ _____ _____    ______ ____

>  <TORSDO>
F 9

$$$$
=
 OpenBabel11052416593D

 32 37  0  0  1  0  0  0  0  0999 V2000
  189.1150  177.4640  146.2350 C   0  0  0  0  0  0  0  0  0  0  0  0
  186.1040  178.2620  142.2690 C   0  0  0  0  0  0  0  0  0  0  0  0
  181.6460  178.8410  144.1250 C   0  0  0  0  0  3  0  0  0  0  0  0
  181.1470  179.0230  142.8340 C   0  0  0  0  0  3  0  0  0  0  0  0
  188.0240  177.8390  143.6840 C   0  0  0  0  0  0  0  0  0  0  0  0
  185.8240  178.1230  144.6820 C   0  0  0  0  0  3  0  0  0  0  0  0
  187.7440  177.7040  146.0960 C   0  0  0  0  0  3  0  0  0  0  0  0
  183.0090  178.6050  144.3200 C   0  0  0  0  0  3  0  0  0  0  0  0
  185.2650  178.3100  143.4060 C   0  0  0  0  0  0  0  0  0  0  0  0
  183.8890  178.5470  143.2270 C   0  0  0  0  0  0  0  0  0  0  0  0
  184.2610  178.6740  140.8210 C   0  0  0  0  0  0  0  0  0  0  0  0
  189.9390  177.4200  145.1040 C   0  0  0  0  0  3  0  0  0  0  0  0
  187.1930  177.8880  144.8260 C   0  0  0  0  0  0  0  0  0  0  0  0
  189.3930  177.6050  143.8300 C   0  0  0  0  0  3  0  0  0  0  0  0
  182.0070  178.9690  141.7370 C   0  0  0  0  0  3  0  0  0  0  0  0
  183.3800  178.7310  141.9170 C   0  0  0  0  0  0  0  0  0  0  0  0
  187.4740  178.0260  142.4140 C   0  0  0  0  0  3  0  0  0  0  0  0
  185.5830  178.4400  141.0280 N   0  0  0  0  0  0  0  0  0  0  0  0
  189.7050  177.2920  147.5910 C   0  0  0  0  0  2  0  0  0  0  0  0
  191.1500  177.1870  147.4890 N   0  0  0  0  0  2  0  0  0  0  0  0
  191.4820  175.7860  147.6670 C   0  0  1  0  0  3  0  0  0  0  0  0
  192.4530  175.4190  146.7170 O   0  0  0  0  0  0  0  0  0  0  0  0
  192.9110  175.6550  148.0240 C   0  0  0  0  0  2  0  0  0  0  0  0
  183.7730  178.8310  139.4140 C   0  0  0  0  0  2  0  0  0  0  0  0
  183.9840  177.5430  138.6170 C   0  0  1  0  0  3  0  0  0  0  0  0
  182.7000  176.7250  138.5110 C   0  0  0  0  0  2  0  0  0  0  0  0
  182.5130  175.9250  139.6400 O   0  0  0  0  0  0  0  0  0  0  0  0
  181.1320  175.7560  139.7250 C   0  0  0  0  0  1  0  0  0  0  0  0
  184.6550  177.7700  137.2590 C   0  0  0  0  0  2  0  0  0  0  0  0
  186.9590  177.9380  136.3770 C   0  0  0  0  0  2  0  0  0  0  0  0
  187.0450  177.8350  137.8820 C   0  0  0  0  0  2  0  0  0  0  0  0
  185.9900  177.0510  137.1300 C   0  0  0  0  0  3  0  0  0  0  0  0
  1 19  1  0  0  0  0
  2 17  2  0  0  0  0
  2  9  1  0  0  0  0
  3  8  1  0  0  0  0
  4  3  2  0  0  0  0
  5 14  2  0  0  0  0
  5 13  1  0  0  0  0
  6 13  1  0  0  0  0
  7  1  1  0  0  0  0
  9  6  2  0  0  0  0
 10  9  1  0  0  0  0
 10  8  2  0  0  0  0
 11 18  2  0  0  0  0
 11 16  1  0  0  0  0
 12  1  2  0  0  0  0
 13  7  2  0  0  0  0
 14 12  1  0  0  0  0
 15 16  2  0  0  0  0
 15  4  1  0  0  0  0
 16 10  1  0  0  0  0
 17  5  1  0  0  0  0
 18  2  1  0  0  0  0
 20 19  1  0  0  0  0
 21 20  1  6  0  0  0
 21 23  1  0  0  0  0
 22 21  1  0  0  0  0
 22 23  1  0  0  0  0
 24 11  1  0  0  0  0
 25 29  1  6  0  0  0
 25 24  1  0  0  0  0
 26 25  1  0  0  0  0
 26 27  1  0  0  0  0
 27 28  1  0  0  0  0
 30 32  1  0  0  0  0
 30 31  1  0  0  0  0
 32 29  1  0  0  0  0
 32 31  1  0  0  0  0
M  END
>  <MODEL>
4

>  <REMARK>
 VINA RESULT:      -8.4      2.723      8.312
  Name = 
  9 active torsions:
  status: ('A' for Active; 'I' for Inactive)
    1  A    between atoms: C_1  and  N_10
    2  A    between atoms: C_2  and  C_24
    3  A    between atoms: O_6  and  C_7
    4  A    between atoms: C_7  and  C_32
    5  A    between atoms: N_10  and  C_24
    6  A    between atoms: C_16  and  C_27
    7  A    between atoms: C_22  and  C_30
    8  A    between atoms: C_22  and  C_32
    9  A    between atoms: C_27  and  C_32
                            x       y       z     vdW  Elec       q    Type
                         _______ _______ _______ _____ _____    ______ ____

>  <TORSDO>
F 9

$$$$
=
 OpenBabel11052416593D

 32 37  0  0  1  0  0  0  0  0999 V2000
  182.1970  178.7520  141.5330 C   0  0  0  0  0  0  0  0  0  0  0  0
  186.8880  178.1970  143.3010 C   0  0  0  0  0  0  0  0  0  0  0  0
  186.4700  178.3290  148.1440 C   0  0  0  0  0  3  0  0  0  0  0  0
  187.8500  178.1590  148.2550 C   0  0  0  0  0  3  0  0  0  0  0  0
  184.9590  178.4140  141.8530 C   0  0  0  0  0  0  0  0  0  0  0  0
  184.6740  178.4850  144.2680 C   0  0  0  0  0  3  0  0  0  0  0  0
  182.7450  178.6980  142.8190 C   0  0  0  0  0  3  0  0  0  0  0  0
  185.8710  178.3830  146.8840 C   0  0  0  0  0  3  0  0  0  0  0  0
  186.0590  178.3190  144.4400 C   0  0  0  0  0  0  0  0  0  0  0  0
  186.6460  178.2670  145.7180 C   0  0  0  0  0  0  0  0  0  0  0  0
  188.8260  177.9790  144.6650 C   0  0  0  0  0  0  0  0  0  0  0  0
  183.0250  178.6290  140.4120 C   0  0  0  0  0  3  0  0  0  0  0  0
  184.1220  178.5340  142.9860 C   0  0  0  0  0  0  0  0  0  0  0  0
  184.4050  178.4620  140.5720 C   0  0  0  0  0  3  0  0  0  0  0  0
  188.6360  178.0430  147.1070 C   0  0  0  0  0  3  0  0  0  0  0  0
  188.0480  178.0950  145.8330 C   0  0  0  0  0  0  0  0  0  0  0  0
  186.3350  178.2470  142.0190 C   0  0  0  0  0  3  0  0  0  0  0  0
  188.2280  178.0360  143.4470 N   0  0  0  0  0  0  0  0  0  0  0  0
  180.7270  178.9020  141.3590 C   0  0  0  0  0  2  0  0  0  0  0  0
  180.2250  179.9160  142.2710 N   0  0  0  0  0  2  0  0  0  0  0  0
  179.0740  179.3430  142.9430 C   0  0  1  0  0  3  0  0  0  0  0  0
  179.3810  178.0310  143.3430 O   0  0  0  0  0  0  0  0  0  0  0  0
  179.4260  179.0190  144.3420 C   0  0  0  0  0  2  0  0  0  0  0  0
  190.3140  177.8270  144.7270 C   0  0  0  0  0  2  0  0  0  0  0  0
  190.7370  176.4240  144.2910 C   0  0  1  0  0  3  0  0  0  0  0  0
  191.1990  176.3960  142.8360 C   0  0  0  0  0  2  0  0  0  0  0  0
  191.3520  177.6880  142.3290 O   0  0  0  0  0  0  0  0  0  0  0  0
  191.7850  177.4990  141.0170 C   0  0  0  0  0  1  0  0  0  0  0  0
  191.7430  175.7670  145.2430 C   0  0  0  0  0  2  0  0  0  0  0  0
  191.2160  175.3220  147.6180 C   0  0  0  0  0  2  0  0  0  0  0  0
  192.6940  175.6170  147.5180 C   0  0  0  0  0  2  0  0  0  0  0  0
  191.7140  176.3670  146.6410 C   0  0  0  0  0  3  0  0  0  0  0  0
  1  7  1  0  0  0  0
  2 18  1  0  0  0  0
  2  9  1  0  0  0  0
  3  4  1  0  0  0  0
  5 17  1  0  0  0  0
  5 13  1  0  0  0  0
  6  9  2  0  0  0  0
  7 13  2  0  0  0  0
  8  3  2  0  0  0  0
  9 10  1  0  0  0  0
 10 16  2  0  0  0  0
 10  8  1  0  0  0  0
 11 24  1  0  0  0  0
 11 16  1  0  0  0  0
 12 14  1  0  0  0  0
 12  1  2  0  0  0  0
 13  6  1  0  0  0  0
 14  5  2  0  0  0  0
 15  4  2  0  0  0  0
 16 15  1  0  0  0  0
 17  2  2  0  0  0  0
 18 11  2  0  0  0  0
 19  1  1  0  0  0  0
 19 20  1  0  0  0  0
 21 20  1  6  0  0  0
 21 22  1  0  0  0  0
 21 23  1  0  0  0  0
 22 23  1  0  0  0  0
 25 26  1  6  0  0  0
 25 24  1  0  0  0  0
 25 29  1  0  0  0  0
 27 26  1  0  0  0  0
 28 27  1  0  0  0  0
 29 32  1  0  0  0  0
 31 30  1  0  0  0  0
 32 31  1  0  0  0  0
 32 30  1  0  0  0  0
M  END
>  <MODEL>
5

>  <REMARK>
 VINA RESULT:      -8.4      1.816      3.139
  Name = 
  9 active torsions:
  status: ('A' for Active; 'I' for Inactive)
    1  A    between atoms: C_1  and  N_10
    2  A    between atoms: C_2  and  C_24
    3  A    between atoms: O_6  and  C_7
    4  A    between atoms: C_7  and  C_32
    5  A    between atoms: N_10  and  C_24
    6  A    between atoms: C_16  and  C_27
    7  A    between atoms: C_22  and  C_30
    8  A    between atoms: C_22  and  C_32
    9  A    between atoms: C_27  and  C_32
                            x       y       z     vdW  Elec       q    Type
                         _______ _______ _______ _____ _____    ______ ____

>  <TORSDO>
F 9

$$$$
=
 OpenBabel11052416593D

 32 37  0  0  1  0  0  0  0  0999 V2000
  188.0310  177.9410  146.8810 C   0  0  0  0  0  0  0  0  0  0  0  0
  184.3050  178.5960  143.5450 C   0  0  0  0  0  0  0  0  0  0  0  0
  186.4130  178.2820  139.1730 C   0  0  0  0  0  3  0  0  0  0  0  0
  185.1700  178.4950  138.5740 C   0  0  0  0  0  3  0  0  0  0  0  0
  185.5820  178.3640  145.5900 C   0  0  0  0  0  0  0  0  0  0  0  0
  186.7020  178.1910  143.4380 C   0  0  0  0  0  3  0  0  0  0  0  0
  187.9770  177.9560  145.4830 C   0  0  0  0  0  3  0  0  0  0  0  0
  186.5210  178.2510  140.5650 C   0  0  0  0  0  3  0  0  0  0  0  0
  185.4790  178.4050  142.7800 C   0  0  0  0  0  0  0  0  0  0  0  0
  185.3880  178.4330  141.3760 C   0  0  0  0  0  0  0  0  0  0  0  0
  182.9910  178.8330  141.5750 C   0  0  0  0  0  0  0  0  0  0  0  0
  186.8640  178.1290  147.6300 C   0  0  0  0  0  3  0  0  0  0  0  0
  186.7590  178.1700  144.8330 C   0  0  0  0  0  0  0  0  0  0  0  0
  185.6410  178.3420  146.9850 C   0  0  0  0  0  3  0  0  0  0  0  0
  184.0340  178.6780  139.3630 C   0  0  0  0  0  3  0  0  0  0  0  0
  184.1280  178.6510  140.7640 C   0  0  0  0  0  0  0  0  0  0  0  0
  184.3640  178.5760  144.9410 C   0  0  0  0  0  3  0  0  0  0  0  0
  183.1140  178.8040  142.9280 N   0  0  0  0  0  0  0  0  0  0  0  0
  189.3250  177.6890  147.5710 C   0  0  0  0  0  2  0  0  0  0  0  0
  189.9140  176.4570  147.0750 N   0  0  0  0  0  2  0  0  0  0  0  0
  191.2960  176.7540  146.7470 C   0  0  1  0  0  3  0  0  0  0  0  0
  192.0510  176.7950  147.9320 O   0  0  0  0  0  0  0  0  0  0  0  0
  192.1580  175.6260  147.1590 C   0  0  0  0  0  2  0  0  0  0  0  0
  181.6410  179.0970  140.9840 C   0  0  0  0  0  2  0  0  0  0  0  0
  180.6080  178.1070  141.5210 C   0  0  1  0  0  3  0  0  0  0  0  0
  179.4780  178.8130  142.2670 C   0  0  0  0  0  2  0  0  0  0  0  0
  179.2790  178.2530  143.5300 O   0  0  0  0  0  0  0  0  0  0  0  0
  178.9420  179.3350  144.3420 C   0  0  0  0  0  1  0  0  0  0  0  0
  180.0940  177.1270  140.4600 C   0  0  0  0  0  2  0  0  0  0  0  0
  180.5860  175.2480  138.9300 C   0  0  0  0  0  2  0  0  0  0  0  0
  181.2040  176.4970  138.3450 C   0  0  0  0  0  2  0  0  0  0  0  0
  181.2020  176.2860  139.8450 C   0  0  0  0  0  3  0  0  0  0  0  0
  1 19  1  0  0  0  0
  1 12  1  0  0  0  0
  2 17  1  0  0  0  0
  3  8  1  0  0  0  0
  4  3  2  0  0  0  0
  4 15  1  0  0  0  0
  5 14  1  0  0  0  0
  6 13  2  0  0  0  0
  7  1  2  0  0  0  0
  8 10  2  0  0  0  0
  9  6  1  0  0  0  0
  9  2  2  0  0  0  0
 10  9  1  0  0  0  0
 11 18  2  0  0  0  0
 13  7  1  0  0  0  0
 13  5  1  0  0  0  0
 14 12  2  0  0  0  0
 15 16  2  0  0  0  0
 16 10  1  0  0  0  0
 16 11  1  0  0  0  0
 17  5  2  0  0  0  0
 18  2  1  0  0  0  0
 20 19  1  0  0  0  0
 21 20  1  1  0  0  0
 21 23  1  0  0  0  0
 21 22  1  0  0  0  0
 23 22  1  0  0  0  0
 24 25  1  0  0  0  0
 24 11  1  0  0  0  0
 25 29  1  6  0  0  0
 25 26  1  0  0  0  0
 26 27  1  0  0  0  0
 27 28  1  0  0  0  0
 30 32  1  0  0  0  0
 31 30  1  0  0  0  0
 31 32  1  0  0  0  0
 32 29  1  0  0  0  0
M  END
>  <MODEL>
6

>  <REMARK>
 VINA RESULT:      -8.2      2.547      8.953
  Name = 
  9 active torsions:
  status: ('A' for Active; 'I' for Inactive)
    1  A    between atoms: C_1  and  N_10
    2  A    between atoms: C_2  and  C_24
    3  A    between atoms: O_6  and  C_7
    4  A    between atoms: C_7  and  C_32
    5  A    between atoms: N_10  and  C_24
    6  A    between atoms: C_16  and  C_27
    7  A    between atoms: C_22  and  C_30
    8  A    between atoms: C_22  and  C_32
    9  A    between atoms: C_27  and  C_32
                            x       y       z     vdW  Elec       q    Type
                         _______ _______ _______ _____ _____    ______ ____

>  <TORSDO>
F 9

$$$$
=
 OpenBabel11052416593D

 32 37  0  0  1  0  0  0  0  0999 V2000
  188.9220  177.2680  146.0400 C   0  0  0  0  0  0  0  0  0  0  0  0
  185.9830  178.4470  142.1150 C   0  0  0  0  0  0  0  0  0  0  0  0
  181.4980  178.8900  143.9430 C   0  0  0  0  0  3  0  0  0  0  0  0
  181.0220  179.1920  142.6670 C   0  0  0  0  0  3  0  0  0  0  0  0
  187.8750  177.8820  143.5160 C   0  0  0  0  0  0  0  0  0  0  0  0
  185.6610  178.0910  144.5000 C   0  0  0  0  0  3  0  0  0  0  0  0
  187.5550  177.5300  145.9010 C   0  0  0  0  0  3  0  0  0  0  0  0
  182.8550  178.6260  144.1380 C   0  0  0  0  0  3  0  0  0  0  0  0
  185.1250  178.3980  143.2380 C   0  0  0  0  0  0  0  0  0  0  0  0
  183.7540  178.6610  143.0590 C   0  0  0  0  0  0  0  0  0  0  0  0
  184.1670  179.0030  140.6810 C   0  0  0  0  0  0  0  0  0  0  0  0
  189.7630  177.3200  144.9230 C   0  0  0  0  0  3  0  0  0  0  0  0
  187.0250  177.8340  144.6440 C   0  0  0  0  0  0  0  0  0  0  0  0
  189.2410  177.6250  143.6620 C   0  0  0  0  0  3  0  0  0  0  0  0
  181.9000  179.2320  141.5830 C   0  0  0  0  0  3  0  0  0  0  0  0
  183.2670  178.9680  141.7630 C   0  0  0  0  0  0  0  0  0  0  0  0
  187.3480  178.1880  142.2600 C   0  0  0  0  0  3  0  0  0  0  0  0
  185.4830  178.7410  140.8870 N   0  0  0  0  0  0  0  0  0  0  0  0
  189.4870  176.9690  147.3840 C   0  0  0  0  0  2  0  0  0  0  0  0
  190.9390  176.9910  147.3220 N   0  0  0  0  0  2  0  0  0  0  0  0
  191.3880  175.6260  147.5250 C   0  0  1  0  0  3  0  0  0  0  0  0
  192.4330  175.3480  146.6260 O   0  0  0  0  0  0  0  0  0  0  0  0
  192.8030  175.6270  147.9530 C   0  0  0  0  0  2  0  0  0  0  0  0
  183.7030  179.2910  139.2860 C   0  0  0  0  0  2  0  0  0  0  0  0
  183.9760  178.1020  138.3650 C   0  0  1  0  0  3  0  0  0  0  0  0
  185.4600  177.9720  138.0300 C   0  0  0  0  0  2  0  0  0  0  0  0
  185.6710  177.0260  137.0250 O   0  0  0  0  0  0  0  0  0  0  0  0
  187.0580  176.9260  136.9240 C   0  0  0  0  0  1  0  0  0  0  0  0
  183.3660  176.7890  138.8680 C   0  0  0  0  0  2  0  0  0  0  0  0
  181.4410  175.2390  138.8010 C   0  0  0  0  0  2  0  0  0  0  0  0
  181.1420  176.3070  139.8280 C   0  0  0  0  0  2  0  0  0  0  0  0
  181.8820  176.6680  138.5570 C   0  0  0  0  0  3  0  0  0  0  0  0
  1 19  1  0  0  0  0
  2 17  2  0  0  0  0
  2  9  1  0  0  0  0
  3  8  1  0  0  0  0
  4  3  2  0  0  0  0
  5 14  2  0  0  0  0
  5 13  1  0  0  0  0
  6 13  1  0  0  0  0
  7  1  1  0  0  0  0
  9  6  2  0  0  0  0
 10  9  1  0  0  0  0
 10  8  2  0  0  0  0
 11 18  2  0  0  0  0
 11 16  1  0  0  0  0
 12  1  2  0  0  0  0
 13  7  2  0  0  0  0
 14 12  1  0  0  0  0
 15 16  2  0  0  0  0
 15  4  1  0  0  0  0
 16 10  1  0  0  0  0
 17  5  1  0  0  0  0
 18  2  1  0  0  0  0
 20 19  1  0  0  0  0
 21 20  1  6  0  0  0
 21 23  1  0  0  0  0
 22 21  1  0  0  0  0
 22 23  1  0  0  0  0
 24 11  1  0  0  0  0
 25 26  1  1  0  0  0
 25 29  1  0  0  0  0
 25 24  1  0  0  0  0
 27 26  1  0  0  0  0
 28 27  1  0  0  0  0
 30 31  1  0  0  0  0
 32 30  1  0  0  0  0
 32 29  1  0  0  0  0
 32 31  1  0  0  0  0
M  END
>  <MODEL>
7

>  <REMARK>
 VINA RESULT:      -8.1      2.838      8.358
  Name = 
  9 active torsions:
  status: ('A' for Active; 'I' for Inactive)
    1  A    between atoms: C_1  and  N_10
    2  A    between atoms: C_2  and  C_24
    3  A    between atoms: O_6  and  C_7
    4  A    between atoms: C_7  and  C_32
    5  A    between atoms: N_10  and  C_24
    6  A    between atoms: C_16  and  C_27
    7  A    between atoms: C_22  and  C_30
    8  A    between atoms: C_22  and  C_32
    9  A    between atoms: C_27  and  C_32
                            x       y       z     vdW  Elec       q    Type
                         _______ _______ _______ _____ _____    ______ ____

>  <TORSDO>
F 9

$$$$
=
 OpenBabel11052416593D

 32 37  0  0  1  0  0  0  0  0999 V2000
  182.1700  178.8220  141.1680 C   0  0  0  0  0  0  0  0  0  0  0  0
  187.0560  178.3790  142.3370 C   0  0  0  0  0  0  0  0  0  0  0  0
  187.1690  177.5100  147.1210 C   0  0  0  0  0  3  0  0  0  0  0  0
  188.5620  177.4540  147.0640 C   0  0  0  0  0  3  0  0  0  0  0  0
  184.9670  178.6930  141.1520 C   0  0  0  0  0  0  0  0  0  0  0  0
  184.9480  178.2580  143.5450 C   0  0  0  0  0  3  0  0  0  0  0  0
  182.8590  178.5680  142.3590 C   0  0  0  0  0  3  0  0  0  0  0  0
  186.4320  177.7550  145.9600 C   0  0  0  0  0  3  0  0  0  0  0  0
  186.3520  178.1930  143.5480 C   0  0  0  0  0  0  0  0  0  0  0  0
  187.0790  177.9460  144.7280 C   0  0  0  0  0  0  0  0  0  0  0  0
  189.1440  178.0800  143.4390 C   0  0  0  0  0  0  0  0  0  0  0  0
  182.8760  179.0020  139.9730 C   0  0  0  0  0  3  0  0  0  0  0  0
  184.2550  178.5060  142.3580 C   0  0  0  0  0  0  0  0  0  0  0  0
  184.2730  178.9400  139.9650 C   0  0  0  0  0  3  0  0  0  0  0  0
  189.2220  177.6410  145.8480 C   0  0  0  0  0  3  0  0  0  0  0  0
  188.4940  177.8890  144.6730 C   0  0  0  0  0  0  0  0  0  0  0  0
  186.3620  178.6280  141.1500 C   0  0  0  0  0  3  0  0  0  0  0  0
  188.4120  178.3200  142.3200 N   0  0  0  0  0  0  0  0  0  0  0  0
  180.6820  178.8630  141.1670 C   0  0  0  0  0  2  0  0  0  0  0  0
  180.2130  179.6900  142.2660 N   0  0  0  0  0  2  0  0  0  0  0  0
  179.1000  178.9870  142.8750 C   0  0  1  0  0  3  0  0  0  0  0  0
  179.5970  177.9360  143.6660 O   0  0  0  0  0  0  0  0  0  0  0  0
  179.1880  179.0960  144.3460 C   0  0  0  0  0  2  0  0  0  0  0  0
  190.6380  178.0610  143.3280 C   0  0  0  0  0  2  0  0  0  0  0  0
  191.1200  176.7620  142.6840 C   0  0  1  0  0  3  0  0  0  0  0  0
  190.9180  175.5620  143.6060 C   0  0  0  0  0  2  0  0  0  0  0  0
  192.1280  175.1410  144.1610 O   0  0  0  0  0  0  0  0  0  0  0  0
  192.0540  175.5300  145.4970 C   0  0  0  0  0  1  0  0  0  0  0  0
  190.5520  176.5300  141.2800 C   0  0  0  0  0  2  0  0  0  0  0  0
  191.3980  176.7520  138.9660 C   0  0  0  0  0  2  0  0  0  0  0  0
  190.1430  177.5850  139.0840 C   0  0  0  0  0  2  0  0  0  0  0  0
  191.1050  177.5020  140.2490 C   0  0  0  0  0  3  0  0  0  0  0  0
  1  7  1  0  0  0  0
  2  9  1  0  0  0  0
  4  3  1  0  0  0  0
  5 13  1  0  0  0  0
  6  9  2  0  0  0  0
  8  3  2  0  0  0  0
  9 10  1  0  0  0  0
 10  8  1  0  0  0  0
 11 16  1  0  0  0  0
 12  1  2  0  0  0  0
 13  7  2  0  0  0  0
 13  6  1  0  0  0  0
 14 12  1  0  0  0  0
 14  5  2  0  0  0  0
 15  4  2  0  0  0  0
 16 10  2  0  0  0  0
 16 15  1  0  0  0  0
 17  5  1  0  0  0  0
 17  2  2  0  0  0  0
 18  2  1  0  0  0  0
 18 11  2  0  0  0  0
 19  1  1  0  0  0  0
 19 20  1  0  0  0  0
 21 20  1  6  0  0  0
 21 22  1  0  0  0  0
 21 23  1  0  0  0  0
 22 23  1  0  0  0  0
 24 11  1  0  0  0  0
 25 29  1  6  0  0  0
 25 24  1  0  0  0  0
 25 26  1  0  0  0  0
 26 27  1  0  0  0  0
 27 28  1  0  0  0  0
 30 31  1  0  0  0  0
 30 32  1  0  0  0  0
 31 32  1  0  0  0  0
 32 29  1  0  0  0  0
M  END
>  <MODEL>
8

>  <REMARK>
 VINA RESULT:      -8.0      1.760      2.234
  Name = 
  9 active torsions:
  status: ('A' for Active; 'I' for Inactive)
    1  A    between atoms: C_1  and  N_10
    2  A    between atoms: C_2  and  C_24
    3  A    between atoms: O_6  and  C_7
    4  A    between atoms: C_7  and  C_32
    5  A    between atoms: N_10  and  C_24
    6  A    between atoms: C_16  and  C_27
    7  A    between atoms: C_22  and  C_30
    8  A    between atoms: C_22  and  C_32
    9  A    between atoms: C_27  and  C_32
                            x       y       z     vdW  Elec       q    Type
                         _______ _______ _______ _____ _____    ______ ____

>  <TORSDO>
F 9

$$$$
=
 OpenBabel11052416593D

 32 37  0  0  1  0  0  0  0  0999 V2000
  182.5090  178.8450  139.9640 C   0  0  0  0  0  0  0  0  0  0  0  0
  186.8710  178.3670  142.4490 C   0  0  0  0  0  0  0  0  0  0  0  0
  185.6520  177.9890  147.1420 C   0  0  0  0  0  3  0  0  0  0  0  0
  187.0030  177.8830  147.4710 C   0  0  0  0  0  3  0  0  0  0  0  0
  185.1960  178.6260  140.7190 C   0  0  0  0  0  0  0  0  0  0  0  0
  184.5130  178.4380  143.0450 C   0  0  0  0  0  3  0  0  0  0  0  0
  182.8390  178.6920  141.3140 C   0  0  0  0  0  3  0  0  0  0  0  0
  185.2660  178.1370  145.8080 C   0  0  0  0  0  3  0  0  0  0  0  0
  185.8590  178.3290  143.4360 C   0  0  0  0  0  0  0  0  0  0  0  0
  186.2290  178.1810  144.7860 C   0  0  0  0  0  0  0  0  0  0  0  0
  188.5670  178.1160  144.0990 C   0  0  0  0  0  0  0  0  0  0  0  0
  183.5170  178.8800  138.9940 C   0  0  0  0  0  3  0  0  0  0  0  0
  184.1780  178.5860  141.6980 C   0  0  0  0  0  0  0  0  0  0  0  0
  184.8590  178.7720  139.3710 C   0  0  0  0  0  3  0  0  0  0  0  0
  187.9730  177.9240  146.4680 C   0  0  0  0  0  3  0  0  0  0  0  0
  187.6020  178.0730  145.1230 C   0  0  0  0  0  0  0  0  0  0  0  0
  186.5350  178.5160  141.1010 C   0  0  0  0  0  3  0  0  0  0  0  0
  188.1760  178.2640  142.8070 N   0  0  0  0  0  0  0  0  0  0  0  0
  181.0800  178.9340  139.5550 C   0  0  0  0  0  2  0  0  0  0  0  0
  180.9410  179.8760  138.4570 N   0  0  0  0  0  2  0  0  0  0  0  0
  179.5200  180.1070  138.2800 C   0  0  1  0  0  3  0  0  0  0  0  0
  179.3000  181.4790  138.0640 O   0  0  0  0  0  0  0  0  0  0  0  0
  179.2700  180.6510  136.9280 C   0  0  0  0  0  2  0  0  0  0  0  0
  190.0330  178.0380  144.4000 C   0  0  0  0  0  2  0  0  0  0  0  0
  190.6110  176.6980  143.9480 C   0  0  1  0  0  3  0  0  0  0  0  0
  191.2880  176.8030  142.5840 C   0  0  0  0  0  2  0  0  0  0  0  0
  190.5480  176.1470  141.5990 O   0  0  0  0  0  0  0  0  0  0  0  0
  190.5910  177.0030  140.5000 C   0  0  0  0  0  1  0  0  0  0  0  0
  191.5040  176.0330  145.0010 C   0  0  0  0  0  2  0  0  0  0  0  0
  190.7190  175.9600  147.3450 C   0  0  0  0  0  2  0  0  0  0  0  0
  192.2290  175.9320  147.3600 C   0  0  0  0  0  2  0  0  0  0  0  0
  191.5010  176.7700  146.3310 C   0  0  0  0  0  3  0  0  0  0  0  0
  1  7  1  0  0  0  0
  2 18  1  0  0  0  0
  2  9  1  0  0  0  0
  3  4  1  0  0  0  0
  5 17  1  0  0  0  0
  5 13  1  0  0  0  0
  6  9  2  0  0  0  0
  7 13  2  0  0  0  0
  8  3  2  0  0  0  0
  9 10  1  0  0  0  0
 10 16  2  0  0  0  0
 10  8  1  0  0  0  0
 11 24  1  0  0  0  0
 11 16  1  0  0  0  0
 12 14  1  0  0  0  0
 12  1  2  0  0  0  0
 13  6  1  0  0  0  0
 14  5  2  0  0  0  0
 15  4  2  0  0  0  0
 16 15  1  0  0  0  0
 17  2  2  0  0  0  0
 18 11  2  0  0  0  0
 19  1  1  0  0  0  0
 20 19  1  0  0  0  0
 21 20  1  6  0  0  0
 22 21  1  0  0  0  0
 23 22  1  0  0  0  0
 23 21  1  0  0  0  0
 25 26  1  6  0  0  0
 25 24  1  0  0  0  0
 25 29  1  0  0  0  0
 27 26  1  0  0  0  0
 28 27  1  0  0  0  0
 29 32  1  0  0  0  0
 30 31  1  0  0  0  0
 32 30  1  0  0  0  0
 32 31  1  0  0  0  0
M  END
>  <MODEL>
9

>  <REMARK>
 VINA RESULT:      -7.9      1.958      3.249
  Name = 
  9 active torsions:
  status: ('A' for Active; 'I' for Inactive)
    1  A    between atoms: C_1  and  N_10
    2  A    between atoms: C_2  and  C_24
    3  A    between atoms: O_6  and  C_7
    4  A    between atoms: C_7  and  C_32
    5  A    between atoms: N_10  and  C_24
    6  A    between atoms: C_16  and  C_27
    7  A    between atoms: C_22  and  C_30
    8  A    between atoms: C_22  and  C_32
    9  A    between atoms: C_27  and  C_32
                            x       y       z     vdW  Elec       q    Type
                         _______ _______ _______ _____ _____    ______ ____

>  <TORSDO>
F 9

$$$$
