=
 OpenBabel11052413253D

 28 30  0  0  1  0  0  0  0  0999 V2000
  182.7390  178.4990  139.0100 C   0  0  2  0  0  3  0  0  0  0  0  0
  186.7370  177.6620  137.7050 O   0  0  0  0  0  1  0  0  0  0  0  0
  184.8760  178.0310  142.2530 C   0  0  1  0  0  3  0  0  0  0  0  0
  185.2880  178.6760  139.3360 C   0  0  1  0  0  3  0  0  0  0  0  0
  183.8530  177.6500  141.1670 C   0  0  0  0  0  2  0  0  0  0  0  0
  184.4060  177.4540  137.2940 C   0  0  0  0  0  2  0  0  0  0  0  0
  186.4300  178.6780  140.3750 C   0  0  0  0  0  2  0  0  0  0  0  0
  185.5060  177.5150  138.3480 C   0  0  1  0  0  3  0  0  0  0  0  0
  185.9550  179.0230  141.7890 C   0  0  0  0  0  2  0  0  0  0  0  0
  182.8380  176.9450  138.0610 S   0  0  0  0  0  0  0  0  0  0  0  0
  183.8960  178.6450  140.0050 C   0  0  2  0  0  3  0  0  0  0  0  0
  181.3960  178.7210  139.6540 C   0  0  0  0  0  0  0  0  0  0  0  0
  180.7330  177.6520  140.2820 C   0  0  0  0  0  3  0  0  0  0  0  0
  179.5800  180.2030  140.3260 C   0  0  0  0  0  0  0  0  0  0  0  0
  179.5080  177.8530  140.9150 C   0  0  0  0  0  3  0  0  0  0  0  0
  181.5270  181.1700  139.0510 C   0  0  0  0  0  1  0  0  0  0  0  0
  180.8190  180.0100  139.6840 C   0  0  0  0  0  0  0  0  0  0  0  0
  178.9310  181.5480  140.3840 C   0  0  0  0  0  1  0  0  0  0  0  0
  178.9330  179.1240  140.9330 C   0  0  0  0  0  3  0  0  0  0  0  0
  184.2170  178.4920  143.4770 N   0  0  0  0  0  0  0  0  0  0  0  0
  184.3170  179.1340  145.7330 O   0  0  0  0  0  0  0  0  0  0  0  0
  184.8720  178.5450  144.7630 C   0  0  0  0  0  0  0  0  0  0  0  0
  182.9090  178.9880  143.3440 C   0  0  0  0  0  0  0  0  0  0  0  0
  181.7890  179.4200  143.2260 C   0  0  0  0  0  3  0  0  0  0  0  0
  186.1890  177.8790  144.9970 C   0  0  0  0  0  2  0  0  0  0  0  0
  187.8590  177.7710  146.7850 C   0  0  0  0  0  3  0  0  0  0  0  0
  186.6220  178.0870  146.4080 C   0  0  0  0  0  3  0  0  0  0  0  0
  188.2810  177.9900  148.1980 C   0  0  0  0  0  1  0  0  0  0  0  0
  1 12  1  1  0  0  0
  1 11  1  0  0  0  0
  3 20  1  1  0  0  0
  4 11  1  0  0  0  0
  4  7  1  1  0  0  0
  5  3  1  0  0  0  0
  6 10  1  0  0  0  0
  6  8  1  0  0  0  0
  7  9  1  0  0  0  0
  8  2  1  6  0  0  0
  8  4  1  0  0  0  0
  9  3  1  0  0  0  0
 10  1  1  0  0  0  0
 11  5  1  1  0  0  0
 12 17  2  0  0  0  0
 12 13  1  0  0  0  0
 13 15  2  0  0  0  0
 14 18  1  0  0  0  0
 14 19  2  0  0  0  0
 15 19  1  0  0  0  0
 16 17  1  0  0  0  0
 17 14  1  0  0  0  0
 20 22  1  0  0  0  0
 22 25  1  0  0  0  0
 22 21  2  0  0  0  0
 23 20  1  0  0  0  0
 24 23  3  0  0  0  0
 25 27  1  0  0  0  0
 26 28  1  0  0  0  0
 27 26  2  0  0  0  0
M  END
>  <MODEL>
1

>  <REMARK>
 VINA RESULT:      -6.8      0.000      0.000
  Name = 
  5 active torsions:
  status: ('A' for Active; 'I' for Inactive)
    1  A    between atoms: C_1  and  C_2
    2  A    between atoms: C_4  and  N_13
    3  A    between atoms: C_9  and  C_15
    4  A    between atoms: C_9  and  C_18
    5  A    between atoms: C_10  and  N_13
                            x       y       z     vdW  Elec       q    Type
                         _______ _______ _______ _____ _____    ______ ____

>  <TORSDO>
F 5

$$$$
=
 OpenBabel11052413253D

 28 30  0  0  1  0  0  0  0  0999 V2000
  183.1280  178.0670  139.2520 C   0  0  2  0  0  3  0  0  0  0  0  0
  180.5840  179.9500  142.1450 O   0  0  0  0  0  1  0  0  0  0  0  0
  185.4040  178.9380  142.3120 C   0  0  1  0  0  3  0  0  0  0  0  0
  182.4790  178.5350  141.7000 C   0  0  1  0  0  3  0  0  0  0  0  0
  184.8260  179.0870  140.8930 C   0  0  0  0  0  2  0  0  0  0  0  0
  181.0800  179.5700  139.8520 C   0  0  0  0  0  2  0  0  0  0  0  0
  183.0220  178.7850  143.1240 C   0  0  0  0  0  2  0  0  0  0  0  0
  181.6440  179.7510  141.2580 C   0  0  1  0  0  3  0  0  0  0  0  0
  184.4510  178.2740  143.3190 C   0  0  0  0  0  2  0  0  0  0  0  0
  182.4260  179.6310  138.6310 S   0  0  0  0  0  0  0  0  0  0  0  0
  183.6060  178.1830  140.7040 C   0  0  2  0  0  3  0  0  0  0  0  0
  184.1810  177.4840  138.3460 C   0  0  0  0  0  0  0  0  0  0  0  0
  185.2600  178.2780  137.9220 C   0  0  0  0  0  3  0  0  0  0  0  0
  185.1410  175.5900  137.1480 C   0  0  0  0  0  0  0  0  0  0  0  0
  186.2610  177.7400  137.1140 C   0  0  0  0  0  3  0  0  0  0  0  0
  183.0010  175.2530  138.4360 C   0  0  0  0  0  1  0  0  0  0  0  0
  184.1250  176.1260  137.9640 C   0  0  0  0  0  0  0  0  0  0  0  0
  185.1270  174.1590  136.7180 C   0  0  0  0  0  1  0  0  0  0  0  0
  186.1980  176.4010  136.7270 C   0  0  0  0  0  3  0  0  0  0  0  0
  186.7110  178.2760  142.2950 N   0  0  0  0  0  0  0  0  0  0  0  0
  188.2620  176.7950  143.2510 O   0  0  0  0  0  0  0  0  0  0  0  0
  187.2250  177.5010  143.4000 C   0  0  0  0  0  0  0  0  0  0  0  0
  187.4370  178.3390  141.0940 C   0  0  0  0  0  0  0  0  0  0  0  0
  188.0610  178.3860  140.0630 C   0  0  0  0  0  3  0  0  0  0  0  0
  186.5820  177.5400  144.7490 C   0  0  0  0  0  2  0  0  0  0  0  0
  187.2970  177.8800  147.0650 C   0  0  0  0  0  3  0  0  0  0  0  0
  187.6270  177.5820  145.8110 C   0  0  0  0  0  3  0  0  0  0  0  0
  188.3510  177.9130  148.1200 C   0  0  0  0  0  1  0  0  0  0  0  0
  1 12  1  6  0  0  0
  1 11  1  0  0  0  0
  3 20  1  6  0  0  0
  3  9  1  0  0  0  0
  4  7  1  1  0  0  0
  5  3  1  0  0  0  0
  6  8  1  0  0  0  0
  7  9  1  0  0  0  0
  8  4  1  0  0  0  0
  8  2  1  1  0  0  0
 10  1  1  0  0  0  0
 10  6  1  0  0  0  0
 11  5  1  6  0  0  0
 11  4  1  0  0  0  0
 13 12  2  0  0  0  0
 14 17  2  0  0  0  0
 15 13  1  0  0  0  0
 17 12  1  0  0  0  0
 17 16  1  0  0  0  0
 18 14  1  0  0  0  0
 19 15  2  0  0  0  0
 19 14  1  0  0  0  0
 20 22  1  0  0  0  0
 21 22  2  0  0  0  0
 22 25  1  0  0  0  0
 23 20  1  0  0  0  0
 24 23  3  0  0  0  0
 25 27  1  0  0  0  0
 26 28  1  0  0  0  0
 27 26  2  0  0  0  0
M  END
>  <MODEL>
2

>  <REMARK>
 VINA RESULT:      -6.2      2.122      4.989
  Name = 
  5 active torsions:
  status: ('A' for Active; 'I' for Inactive)
    1  A    between atoms: C_1  and  C_2
    2  A    between atoms: C_4  and  N_13
    3  A    between atoms: C_9  and  C_15
    4  A    between atoms: C_9  and  C_18
    5  A    between atoms: C_10  and  N_13
                            x       y       z     vdW  Elec       q    Type
                         _______ _______ _______ _____ _____    ______ ____

>  <TORSDO>
F 5

$$$$
=
 OpenBabel11052413253D

 28 30  0  0  1  0  0  0  0  0999 V2000
  188.5860  177.6520  143.4820 C   0  0  2  0  0  3  0  0  0  0  0  0
  185.3590  179.3520  141.2260 O   0  0  0  0  0  1  0  0  0  0  0  0
  189.4480  177.0530  139.7130 C   0  0  1  0  0  3  0  0  0  0  0  0
  187.7100  178.8650  141.3850 C   0  0  1  0  0  3  0  0  0  0  0  0
  188.9870  176.6800  141.1340 C   0  0  0  0  0  2  0  0  0  0  0  0
  186.0590  178.2480  143.2110 C   0  0  0  0  0  2  0  0  0  0  0  0
  187.8610  179.0080  139.8550 C   0  0  0  0  0  2  0  0  0  0  0  0
  186.2740  178.4140  141.7100 C   0  0  1  0  0  3  0  0  0  0  0  0
  189.2190  178.5270  139.3380 C   0  0  0  0  0  2  0  0  0  0  0  0
  187.0000  176.8160  143.8190 S   0  0  0  0  0  0  0  0  0  0  0  0
  188.7850  177.9340  141.9880 C   0  0  2  0  0  3  0  0  0  0  0  0
  189.7700  176.9550  144.0980 C   0  0  0  0  0  0  0  0  0  0  0  0
  190.6170  176.1700  143.2970 C   0  0  0  0  0  3  0  0  0  0  0  0
  191.2090  176.5010  146.0130 C   0  0  0  0  0  0  0  0  0  0  0  0
  191.7380  175.5500  143.8470 C   0  0  0  0  0  3  0  0  0  0  0  0
  189.2030  177.9930  146.3290 C   0  0  0  0  0  1  0  0  0  0  0  0
  190.0740  177.1310  145.4660 C   0  0  0  0  0  0  0  0  0  0  0  0
  191.5710  176.6570  147.4550 C   0  0  0  0  0  1  0  0  0  0  0  0
  192.0300  175.7140  145.2020 C   0  0  0  0  0  3  0  0  0  0  0  0
  190.8350  176.6490  139.4720 N   0  0  0  0  0  0  0  0  0  0  0  0
  192.4570  175.6240  138.1200 O   0  0  0  0  0  0  0  0  0  0  0  0
  191.2340  175.7750  138.3940 C   0  0  0  0  0  0  0  0  0  0  0  0
  191.8160  177.2310  140.2930 C   0  0  0  0  0  0  0  0  0  0  0  0
  192.6630  177.7300  140.9920 C   0  0  0  0  0  3  0  0  0  0  0  0
  190.2300  174.9990  137.6040 C   0  0  0  0  0  2  0  0  0  0  0  0
  189.5010  176.6830  135.9830 C   0  0  0  0  0  3  0  0  0  0  0  0
  190.1420  175.5410  136.2190 C   0  0  0  0  0  3  0  0  0  0  0  0
  189.4260  177.2180  134.5940 C   0  0  0  0  0  1  0  0  0  0  0  0
  1 10  1  0  0  0  0
  1 12  1  6  0  0  0
  3 20  1  1  0  0  0
  3  5  1  0  0  0  0
  4  7  1  6  0  0  0
  4  8  1  0  0  0  0
  4 11  1  0  0  0  0
  6 10  1  0  0  0  0
  8  2  1  1  0  0  0
  8  6  1  0  0  0  0
  9  3  1  0  0  0  0
  9  7  1  0  0  0  0
 11  5  1  6  0  0  0
 11  1  1  0  0  0  0
 12 17  1  0  0  0  0
 13 15  1  0  0  0  0
 13 12  2  0  0  0  0
 14 18  1  0  0  0  0
 15 19  2  0  0  0  0
 17 14  2  0  0  0  0
 17 16  1  0  0  0  0
 19 14  1  0  0  0  0
 20 23  1  0  0  0  0
 21 22  2  0  0  0  0
 22 20  1  0  0  0  0
 23 24  3  0  0  0  0
 25 22  1  0  0  0  0
 26 27  2  0  0  0  0
 27 25  1  0  0  0  0
 28 26  1  0  0  0  0
M  END
>  <MODEL>
3

>  <REMARK>
 VINA RESULT:      -6.1      4.753      9.513
  Name = 
  5 active torsions:
  status: ('A' for Active; 'I' for Inactive)
    1  A    between atoms: C_1  and  C_2
    2  A    between atoms: C_4  and  N_13
    3  A    between atoms: C_9  and  C_15
    4  A    between atoms: C_9  and  C_18
    5  A    between atoms: C_10  and  N_13
                            x       y       z     vdW  Elec       q    Type
                         _______ _______ _______ _____ _____    ______ ____

>  <TORSDO>
F 5

$$$$
=
 OpenBabel11052413253D

 28 30  0  0  1  0  0  0  0  0999 V2000
  189.5900  177.1260  143.1380 C   0  0  2  0  0  3  0  0  0  0  0  0
  192.2930  177.0740  139.8100 O   0  0  0  0  0  1  0  0  0  0  0  0
  187.6250  178.6250  140.1050 C   0  0  1  0  0  3  0  0  0  0  0  0
  190.0330  176.8820  140.6120 C   0  0  1  0  0  3  0  0  0  0  0  0
  188.3950  178.6430  141.4380 C   0  0  0  0  0  2  0  0  0  0  0  0
  192.0030  177.2960  142.1580 C   0  0  0  0  0  2  0  0  0  0  0  0
  189.4870  177.1860  139.2000 C   0  0  0  0  0  2  0  0  0  0  0  0
  191.4090  177.5550  140.7770 C   0  0  1  0  0  3  0  0  0  0  0  0
  187.9800  177.4470  139.1830 C   0  0  0  0  0  2  0  0  0  0  0  0
  191.0470  178.1860  143.4230 S   0  0  0  0  0  0  0  0  0  0  0  0
  189.0310  177.2790  141.7180 C   0  0  2  0  0  3  0  0  0  0  0  0
  188.5260  177.2770  144.1930 C   0  0  0  0  0  0  0  0  0  0  0  0
  187.1690  177.1720  143.8420 C   0  0  0  0  0  3  0  0  0  0  0  0
  187.8700  177.5670  146.5230 C   0  0  0  0  0  0  0  0  0  0  0  0
  186.1760  177.2730  144.8150 C   0  0  0  0  0  3  0  0  0  0  0  0
  190.3240  177.5460  145.9470 C   0  0  0  0  0  1  0  0  0  0  0  0
  188.8810  177.4670  145.5470 C   0  0  0  0  0  0  0  0  0  0  0  0
  188.1960  177.7660  147.9680 C   0  0  0  0  0  1  0  0  0  0  0  0
  186.5270  177.4720  146.1500 C   0  0  0  0  0  3  0  0  0  0  0  0
  186.1790  178.7230  140.3170 N   0  0  0  0  0  0  0  0  0  0  0  0
  183.9810  178.2360  139.6530 O   0  0  0  0  0  0  0  0  0  0  0  0
  185.2010  178.3130  139.3360 C   0  0  0  0  0  0  0  0  0  0  0  0
  185.7530  179.1550  141.5840 C   0  0  0  0  0  0  0  0  0  0  0  0
  185.3810  179.5300  142.6680 C   0  0  0  0  0  3  0  0  0  0  0  0
  185.5890  178.0100  137.9250 C   0  0  0  0  0  2  0  0  0  0  0  0
  185.2900  175.7350  137.0700 C   0  0  0  0  0  3  0  0  0  0  0  0
  184.7430  176.9060  137.3900 C   0  0  0  0  0  3  0  0  0  0  0  0
  184.4320  174.6360  136.5420 C   0  0  0  0  0  1  0  0  0  0  0  0
  1 10  1  0  0  0  0
  1 12  1  1  0  0  0
  3 20  1  1  0  0  0
  3  5  1  0  0  0  0
  4  7  1  6  0  0  0
  4  8  1  0  0  0  0
  4 11  1  0  0  0  0
  6 10  1  0  0  0  0
  8  2  1  6  0  0  0
  8  6  1  0  0  0  0
  9  7  1  0  0  0  0
  9  3  1  0  0  0  0
 11  5  1  6  0  0  0
 11  1  1  0  0  0  0
 12 17  1  0  0  0  0
 13 12  2  0  0  0  0
 13 15  1  0  0  0  0
 14 18  1  0  0  0  0
 15 19  2  0  0  0  0
 17 16  1  0  0  0  0
 17 14  2  0  0  0  0
 19 14  1  0  0  0  0
 20 23  1  0  0  0  0
 22 21  2  0  0  0  0
 22 20  1  0  0  0  0
 23 24  3  0  0  0  0
 25 22  1  0  0  0  0
 26 27  2  0  0  0  0
 27 25  1  0  0  0  0
 28 26  1  0  0  0  0
M  END
>  <MODEL>
4

>  <REMARK>
 VINA RESULT:      -5.9      4.006      7.885
  Name = 
  5 active torsions:
  status: ('A' for Active; 'I' for Inactive)
    1  A    between atoms: C_1  and  C_2
    2  A    between atoms: C_4  and  N_13
    3  A    between atoms: C_9  and  C_15
    4  A    between atoms: C_9  and  C_18
    5  A    between atoms: C_10  and  N_13
                            x       y       z     vdW  Elec       q    Type
                         _______ _______ _______ _____ _____    ______ ____

>  <TORSDO>
F 5

$$$$
=
 OpenBabel11052413253D

 28 30  0  0  1  0  0  0  0  0999 V2000
  185.7830  178.0830  141.4590 C   0  0  2  0  0  3  0  0  0  0  0  0
  187.7120  177.4770  137.6780 O   0  0  0  0  0  1  0  0  0  0  0  0
  183.3580  179.5220  138.7480 C   0  0  1  0  0  3  0  0  0  0  0  0
  185.6630  177.5870  138.9340 C   0  0  1  0  0  3  0  0  0  0  0  0
  184.3900  179.5700  139.8890 C   0  0  0  0  0  2  0  0  0  0  0  0
  187.9420  177.9220  140.0010 C   0  0  0  0  0  2  0  0  0  0  0  0
  184.8610  177.8280  137.6380 C   0  0  0  0  0  2  0  0  0  0  0  0
  187.0950  178.1250  138.7500 C   0  0  1  0  0  3  0  0  0  0  0  0
  183.4100  178.2420  137.8980 C   0  0  0  0  0  2  0  0  0  0  0  0
  187.3510  179.0060  141.3350 S   0  0  0  0  0  0  0  0  0  0  0  0
  184.9530  178.1760  140.1730 C   0  0  2  0  0  3  0  0  0  0  0  0
  184.9810  178.4300  142.6860 C   0  0  0  0  0  0  0  0  0  0  0  0
  183.6550  178.8760  142.5550 C   0  0  0  0  0  3  0  0  0  0  0  0
  184.7500  178.5500  145.1100 C   0  0  0  0  0  0  0  0  0  0  0  0
  182.8900  179.1640  143.6840 C   0  0  0  0  0  3  0  0  0  0  0  0
  186.9320  177.7480  144.1370 C   0  0  0  0  0  1  0  0  0  0  0  0
  185.5310  178.2560  143.9750 C   0  0  0  0  0  0  0  0  0  0  0  0
  185.2880  178.3820  146.4950 C   0  0  0  0  0  1  0  0  0  0  0  0
  183.4380  179.0040  144.9570 C   0  0  0  0  0  3  0  0  0  0  0  0
  182.0020  179.7860  139.2350 N   0  0  0  0  0  0  0  0  0  0  0  0
  180.0430  181.0800  139.2210 O   0  0  0  0  0  0  0  0  0  0  0  0
  181.2720  180.9970  138.9420 C   0  0  0  0  0  0  0  0  0  0  0  0
  181.3720  178.7500  139.9450 C   0  0  0  0  0  0  0  0  0  0  0  0
  180.8360  177.8600  140.5570 C   0  0  0  0  0  3  0  0  0  0  0  0
  181.9450  182.1900  138.3440 C   0  0  0  0  0  2  0  0  0  0  0  0
  181.3070  184.2140  137.1230 C   0  0  0  0  0  3  0  0  0  0  0  0
  180.9410  183.0520  137.6590 C   0  0  0  0  0  3  0  0  0  0  0  0
  180.2940  185.0630  136.4340 C   0  0  0  0  0  1  0  0  0  0  0  0
  1 12  1  1  0  0  0
  3 20  1  1  0  0  0
  3  5  1  0  0  0  0
  4  7  1  6  0  0  0
  4 11  1  0  0  0  0
  6 10  1  0  0  0  0
  7  9  1  0  0  0  0
  8  2  1  6  0  0  0
  8  4  1  0  0  0  0
  8  6  1  0  0  0  0
  9  3  1  0  0  0  0
 10  1  1  0  0  0  0
 11  5  1  6  0  0  0
 11  1  1  0  0  0  0
 12 17  1  0  0  0  0
 13 12  2  0  0  0  0
 13 15  1  0  0  0  0
 14 18  1  0  0  0  0
 15 19  2  0  0  0  0
 17 16  1  0  0  0  0
 17 14  2  0  0  0  0
 19 14  1  0  0  0  0
 20 23  1  0  0  0  0
 22 21  2  0  0  0  0
 22 20  1  0  0  0  0
 23 24  3  0  0  0  0
 25 22  1  0  0  0  0
 26 27  2  0  0  0  0
 27 25  1  0  0  0  0
 28 26  1  0  0  0  0
M  END
>  <MODEL>
5

>  <REMARK>
 VINA RESULT:      -5.7      2.577      6.785
  Name = 
  5 active torsions:
  status: ('A' for Active; 'I' for Inactive)
    1  A    between atoms: C_1  and  C_2
    2  A    between atoms: C_4  and  N_13
    3  A    between atoms: C_9  and  C_15
    4  A    between atoms: C_9  and  C_18
    5  A    between atoms: C_10  and  N_13
                            x       y       z     vdW  Elec       q    Type
                         _______ _______ _______ _____ _____    ______ ____

>  <TORSDO>
F 5

$$$$
=
 OpenBabel11052413253D

 28 30  0  0  1  0  0  0  0  0999 V2000
  189.4030  177.5180  145.7730 C   0  0  2  0  0  3  0  0  0  0  0  0
  187.7760  178.5580  149.6020 O   0  0  0  0  0  1  0  0  0  0  0  0
  185.5920  178.1880  145.1990 C   0  0  1  0  0  3  0  0  0  0  0  0
  187.7360  178.8520  147.2140 C   0  0  1  0  0  3  0  0  0  0  0  0
  186.8700  177.3450  145.3570 C   0  0  0  0  0  2  0  0  0  0  0  0
  189.3700  177.2940  148.3740 C   0  0  0  0  0  2  0  0  0  0  0  0
  186.2980  179.4100  147.2890 C   0  0  0  0  0  2  0  0  0  0  0  0
  187.9650  177.8870  148.3920 C   0  0  1  0  0  3  0  0  0  0  0  0
  185.6350  179.5470  145.9170 C   0  0  0  0  0  2  0  0  0  0  0  0
  189.5430  176.1500  146.9710 S   0  0  0  0  0  0  0  0  0  0  0  0
  188.0370  178.2100  145.8420 C   0  0  2  0  0  3  0  0  0  0  0  0
  189.7760  177.1230  144.3690 C   0  0  0  0  0  0  0  0  0  0  0  0
  189.1240  176.0450  143.7460 C   0  0  0  0  0  3  0  0  0  0  0  0
  191.0460  177.5000  142.3210 C   0  0  0  0  0  0  0  0  0  0  0  0
  189.4340  175.6920  142.4330 C   0  0  0  0  0  3  0  0  0  0  0  0
  191.4200  179.0380  144.2820 C   0  0  0  0  0  1  0  0  0  0  0  0
  190.7390  177.8630  143.6480 C   0  0  0  0  0  0  0  0  0  0  0  0
  192.0560  178.2530  141.5180 C   0  0  0  0  0  1  0  0  0  0  0  0
  190.3940  176.4170  141.7260 C   0  0  0  0  0  3  0  0  0  0  0  0
  185.2140  178.3380  143.7920 N   0  0  0  0  0  0  0  0  0  0  0  0
  183.6470  178.9390  142.1510 O   0  0  0  0  0  0  0  0  0  0  0  0
  183.8690  178.6270  143.3550 C   0  0  0  0  0  0  0  0  0  0  0  0
  186.2540  178.2820  142.8490 C   0  0  0  0  0  0  0  0  0  0  0  0
  187.1420  178.2380  142.0340 C   0  0  0  0  0  3  0  0  0  0  0  0
  182.7050  178.5290  144.2880 C   0  0  0  0  0  2  0  0  0  0  0  0
  180.2780  178.5250  143.9690 C   0  0  0  0  0  3  0  0  0  0  0  0
  181.4670  179.0040  143.6100 C   0  0  0  0  0  3  0  0  0  0  0  0
  179.0460  179.0130  143.2870 C   0  0  0  0  0  1  0  0  0  0  0  0
  1 12  1  6  0  0  0
  1 11  1  0  0  0  0
  1 10  1  0  0  0  0
  3 20  1  6  0  0  0
  3  5  1  0  0  0  0
  3  9  1  0  0  0  0
  4  7  1  6  0  0  0
  4  8  1  0  0  0  0
  6  8  1  0  0  0  0
  8  2  1  1  0  0  0
  9  7  1  0  0  0  0
 10  6  1  0  0  0  0
 11  5  1  1  0  0  0
 11  4  1  0  0  0  0
 13 12  1  0  0  0  0
 14 17  1  0  0  0  0
 15 13  2  0  0  0  0
 17 16  1  0  0  0  0
 17 12  2  0  0  0  0
 18 14  1  0  0  0  0
 19 14  2  0  0  0  0
 19 15  1  0  0  0  0
 21 22  2  0  0  0  0
 22 20  1  0  0  0  0
 22 25  1  0  0  0  0
 23 20  1  0  0  0  0
 24 23  3  0  0  0  0
 27 26  2  0  0  0  0
 27 25  1  0  0  0  0
 28 26  1  0  0  0  0
M  END
>  <MODEL>
6

>  <REMARK>
 VINA RESULT:      -5.5      3.726      8.704
  Name = 
  5 active torsions:
  status: ('A' for Active; 'I' for Inactive)
    1  A    between atoms: C_1  and  C_2
    2  A    between atoms: C_4  and  N_13
    3  A    between atoms: C_9  and  C_15
    4  A    between atoms: C_9  and  C_18
    5  A    between atoms: C_10  and  N_13
                            x       y       z     vdW  Elec       q    Type
                         _______ _______ _______ _____ _____    ______ ____

>  <TORSDO>
F 5

$$$$
=
 OpenBabel11052413253D

 28 30  0  0  1  0  0  0  0  0999 V2000
  181.8270  178.0750  140.0380 C   0  0  2  0  0  3  0  0  0  0  0  0
  181.8020  179.3550  144.1300 O   0  0  0  0  0  1  0  0  0  0  0  0
  185.5220  179.0120  140.9160 C   0  0  1  0  0  3  0  0  0  0  0  0
  182.9720  178.2560  142.3380 C   0  0  1  0  0  3  0  0  0  0  0  0
  184.1330  179.1890  140.2760 C   0  0  0  0  0  2  0  0  0  0  0  0
  180.6440  179.2280  142.0580 C   0  0  0  0  0  2  0  0  0  0  0  0
  184.3190  178.4670  143.0640 C   0  0  0  0  0  2  0  0  0  0  0  0
  181.9970  179.3760  142.7470 C   0  0  1  0  0  3  0  0  0  0  0  0
  185.5310  178.1460  142.1860 C   0  0  0  0  0  2  0  0  0  0  0  0
  180.8110  179.5700  140.2810 S   0  0  0  0  0  0  0  0  0  0  0  0
  183.1510  178.1420  140.8080 C   0  0  2  0  0  3  0  0  0  0  0  0
  182.0240  177.7150  138.5880 C   0  0  0  0  0  0  0  0  0  0  0  0
  181.9010  178.7040  137.5970 C   0  0  0  0  0  3  0  0  0  0  0  0
  182.6040  176.0970  136.8600 C   0  0  0  0  0  0  0  0  0  0  0  0
  182.1170  178.3930  136.2550 C   0  0  0  0  0  3  0  0  0  0  0  0
  182.5590  175.3410  139.2640 C   0  0  0  0  0  1  0  0  0  0  0  0
  182.3880  176.4020  138.2180 C   0  0  0  0  0  0  0  0  0  0  0  0
  182.9920  174.7220  136.4190 C   0  0  0  0  0  1  0  0  0  0  0  0
  182.4650  177.0920  135.8900 C   0  0  0  0  0  3  0  0  0  0  0  0
  186.5080  178.5410  139.9400 N   0  0  0  0  0  0  0  0  0  0  0  0
  188.6370  177.6860  139.4380 O   0  0  0  0  0  0  0  0  0  0  0  0
  187.8900  178.2760  140.2690 C   0  0  0  0  0  0  0  0  0  0  0  0
  186.0340  178.2540  138.6490 C   0  0  0  0  0  0  0  0  0  0  0  0
  185.6220  178.0030  137.5440 C   0  0  0  0  0  3  0  0  0  0  0  0
  188.4840  178.7200  141.5660 C   0  0  0  0  0  2  0  0  0  0  0  0
  189.0060  176.6360  142.7400 C   0  0  0  0  0  3  0  0  0  0  0  0
  189.4450  177.6950  142.0630 C   0  0  0  0  0  3  0  0  0  0  0  0
  189.9770  175.6150  143.2270 C   0  0  0  0  0  1  0  0  0  0  0  0
  1 12  1  6  0  0  0
  1 10  1  0  0  0  0
  1 11  1  0  0  0  0
  3 20  1  6  0  0  0
  3  9  1  0  0  0  0
  4  8  1  0  0  0  0
  4  7  1  1  0  0  0
  5  3  1  0  0  0  0
  6  8  1  0  0  0  0
  8  2  1  1  0  0  0
  9  7  1  0  0  0  0
 10  6  1  0  0  0  0
 11  5  1  6  0  0  0
 11  4  1  0  0  0  0
 13 12  2  0  0  0  0
 14 17  2  0  0  0  0
 15 13  1  0  0  0  0
 17 12  1  0  0  0  0
 17 16  1  0  0  0  0
 18 14  1  0  0  0  0
 19 15  2  0  0  0  0
 19 14  1  0  0  0  0
 20 22  1  0  0  0  0
 21 22  2  0  0  0  0
 22 25  1  0  0  0  0
 23 20  1  0  0  0  0
 24 23  3  0  0  0  0
 25 27  1  0  0  0  0
 26 28  1  0  0  0  0
 27 26  2  0  0  0  0
M  END
>  <MODEL>
7

>  <REMARK>
 VINA RESULT:      -5.4      2.527      5.124
  Name = 
  5 active torsions:
  status: ('A' for Active; 'I' for Inactive)
    1  A    between atoms: C_1  and  C_2
    2  A    between atoms: C_4  and  N_13
    3  A    between atoms: C_9  and  C_15
    4  A    between atoms: C_9  and  C_18
    5  A    between atoms: C_10  and  N_13
                            x       y       z     vdW  Elec       q    Type
                         _______ _______ _______ _____ _____    ______ ____

>  <TORSDO>
F 5

$$$$
=
 OpenBabel11052413253D

 28 30  0  0  1  0  0  0  0  0999 V2000
  188.5840  177.9290  139.2230 C   0  0  2  0  0  3  0  0  0  0  0  0
  192.5600  176.5900  138.3380 O   0  0  0  0  0  1  0  0  0  0  0  0
  190.0850  176.6440  142.6000 C   0  0  1  0  0  3  0  0  0  0  0  0
  191.0460  177.6070  139.9080 C   0  0  1  0  0  3  0  0  0  0  0  0
  189.2000  176.6040  141.3410 C   0  0  0  0  0  2  0  0  0  0  0  0
  190.3190  176.8560  137.5950 C   0  0  0  0  0  2  0  0  0  0  0  0
  191.9970  177.2610  141.0750 C   0  0  0  0  0  2  0  0  0  0  0  0
  191.2360  176.5740  138.7800 C   0  0  1  0  0  3  0  0  0  0  0  0
  191.3630  177.4850  142.4500 C   0  0  0  0  0  2  0  0  0  0  0  0
  188.5910  176.5290  138.0540 S   0  0  0  0  0  0  0  0  0  0  0  0
  189.5780  177.7280  140.3730 C   0  0  2  0  0  3  0  0  0  0  0  0
  187.2070  178.2920  139.7120 C   0  0  0  0  0  0  0  0  0  0  0  0
  187.0260  178.7440  141.0310 C   0  0  0  0  0  3  0  0  0  0  0  0
  184.8250  178.6200  139.3060 C   0  0  0  0  0  0  0  0  0  0  0  0
  185.7630  179.1190  141.4850 C   0  0  0  0  0  3  0  0  0  0  0  0
  186.2760  177.7940  137.4180 C   0  0  0  0  0  1  0  0  0  0  0  0
  186.0990  178.2390  138.8390 C   0  0  0  0  0  0  0  0  0  0  0  0
  183.6230  178.5820  138.4190 C   0  0  0  0  0  1  0  0  0  0  0  0
  184.6660  179.0540  140.6240 C   0  0  0  0  0  3  0  0  0  0  0  0
  189.3200  177.0380  143.7840 N   0  0  0  0  0  0  0  0  0  0  0  0
  189.1760  178.1610  145.8410 O   0  0  0  0  0  0  0  0  0  0  0  0
  189.9120  177.6670  144.9420 C   0  0  0  0  0  0  0  0  0  0  0  0
  187.9270  176.8670  143.7240 C   0  0  0  0  0  0  0  0  0  0  0  0
  186.7300  176.7210  143.6800 C   0  0  0  0  0  3  0  0  0  0  0  0
  191.3940  177.7180  145.1310 C   0  0  0  0  0  2  0  0  0  0  0  0
  191.8180  176.5380  147.2350 C   0  0  0  0  0  3  0  0  0  0  0  0
  191.8490  176.5280  145.9040 C   0  0  0  0  0  3  0  0  0  0  0  0
  192.2710  175.3390  147.9950 C   0  0  0  0  0  1  0  0  0  0  0  0
  1 12  1  1  0  0  0
  1 11  1  0  0  0  0
  3 20  1  1  0  0  0
  4 11  1  0  0  0  0
  4  7  1  1  0  0  0
  5  3  1  0  0  0  0
  6 10  1  0  0  0  0
  6  8  1  0  0  0  0
  7  9  1  0  0  0  0
  8  2  1  6  0  0  0
  8  4  1  0  0  0  0
  9  3  1  0  0  0  0
 10  1  1  0  0  0  0
 11  5  1  6  0  0  0
 12 13  1  0  0  0  0
 13 15  2  0  0  0  0
 14 19  2  0  0  0  0
 16 17  1  0  0  0  0
 17 14  1  0  0  0  0
 17 12  2  0  0  0  0
 18 14  1  0  0  0  0
 19 15  1  0  0  0  0
 20 22  1  0  0  0  0
 22 25  1  0  0  0  0
 22 21  2  0  0  0  0
 23 20  1  0  0  0  0
 24 23  3  0  0  0  0
 25 27  1  0  0  0  0
 26 28  1  0  0  0  0
 27 26  2  0  0  0  0
M  END
>  <MODEL>
8

>  <REMARK>
 VINA RESULT:      -5.4      3.829      5.627
  Name = 
  5 active torsions:
  status: ('A' for Active; 'I' for Inactive)
    1  A    between atoms: C_1  and  C_2
    2  A    between atoms: C_4  and  N_13
    3  A    between atoms: C_9  and  C_15
    4  A    between atoms: C_9  and  C_18
    5  A    between atoms: C_10  and  N_13
                            x       y       z     vdW  Elec       q    Type
                         _______ _______ _______ _____ _____    ______ ____

>  <TORSDO>
F 5

$$$$
=
 OpenBabel11052413253D

 28 30  0  0  1  0  0  0  0  0999 V2000
  183.9560  176.4060  136.6990 C   0  0  2  0  0  3  0  0  0  0  0  0
  180.0270  177.3650  138.1240 O   0  0  0  0  0  1  0  0  0  0  0  0
  184.4550  178.6140  139.8890 C   0  0  1  0  0  3  0  0  0  0  0  0
  182.3270  176.8820  138.6370 C   0  0  1  0  0  3  0  0  0  0  0  0
  184.4290  178.2910  138.3840 C   0  0  0  0  0  2  0  0  0  0  0  0
  181.4350  176.9220  136.2610 C   0  0  0  0  0  2  0  0  0  0  0  0
  182.1750  177.5440  140.0230 C   0  0  0  0  0  2  0  0  0  0  0  0
  181.3320  177.5300  137.6560 C   0  0  1  0  0  3  0  0  0  0  0  0
  183.5120  177.7490  140.7410 C   0  0  0  0  0  2  0  0  0  0  0  0
  183.0130  177.3960  135.4910 S   0  0  0  0  0  0  0  0  0  0  0  0
  183.7860  176.9250  138.1310 C   0  0  2  0  0  3  0  0  0  0  0  0
  185.4020  176.2240  136.3220 C   0  0  0  0  0  0  0  0  0  0  0  0
  186.0930  177.2590  135.6670 C   0  0  0  0  0  3  0  0  0  0  0  0
  187.4550  174.9080  136.3420 C   0  0  0  0  0  0  0  0  0  0  0  0
  187.4420  177.1180  135.3460 C   0  0  0  0  0  3  0  0  0  0  0  0
  185.3820  173.9410  137.4000 C   0  0  0  0  0  1  0  0  0  0  0  0
  186.0910  175.0420  136.6710 C   0  0  0  0  0  0  0  0  0  0  0  0
  188.2270  173.6770  136.6910 C   0  0  0  0  0  1  0  0  0  0  0  0
  188.1190  175.9450  135.6810 C   0  0  0  0  0  3  0  0  0  0  0  0
  185.8200  178.6000  140.4210 N   0  0  0  0  0  0  0  0  0  0  0  0
  187.3020  178.5340  142.2400 O   0  0  0  0  0  0  0  0  0  0  0  0
  186.1300  178.7530  141.8230 C   0  0  0  0  0  0  0  0  0  0  0  0
  186.8520  178.3310  139.5070 C   0  0  0  0  0  0  0  0  0  0  0  0
  187.7380  178.0920  138.7240 C   0  0  0  0  0  3  0  0  0  0  0  0
  185.1010  179.2070  142.8060 C   0  0  0  0  0  2  0  0  0  0  0  0
  184.9580  179.0980  145.2480 C   0  0  0  0  0  3  0  0  0  0  0  0
  185.2900  178.5020  144.1050 C   0  0  0  0  0  3  0  0  0  0  0  0
  185.1460  178.3780  146.5400 C   0  0  0  0  0  1  0  0  0  0  0  0
  1 12  1  6  0  0  0
  1 11  1  0  0  0  0
  3 20  1  1  0  0  0
  3  9  1  0  0  0  0
  4  7  1  1  0  0  0
  5  3  1  0  0  0  0
  6  8  1  0  0  0  0
  7  9  1  0  0  0  0
  8  2  1  1  0  0  0
  8  4  1  0  0  0  0
 10  6  1  0  0  0  0
 10  1  1  0  0  0  0
 11  5  1  6  0  0  0
 11  4  1  0  0  0  0
 12 17  1  0  0  0  0
 13 12  2  0  0  0  0
 14 17  2  0  0  0  0
 14 18  1  0  0  0  0
 15 13  1  0  0  0  0
 15 19  2  0  0  0  0
 17 16  1  0  0  0  0
 19 14  1  0  0  0  0
 20 22  1  0  0  0  0
 22 21  2  0  0  0  0
 22 25  1  0  0  0  0
 23 20  1  0  0  0  0
 24 23  3  0  0  0  0
 25 27  1  0  0  0  0
 26 28  1  0  0  0  0
 27 26  2  0  0  0  0
M  END
>  <MODEL>
9

>  <REMARK>
 VINA RESULT:      -5.4      2.817      6.049
  Name = 
  5 active torsions:
  status: ('A' for Active; 'I' for Inactive)
    1  A    between atoms: C_1  and  C_2
    2  A    between atoms: C_4  and  N_13
    3  A    between atoms: C_9  and  C_15
    4  A    between atoms: C_9  and  C_18
    5  A    between atoms: C_10  and  N_13
                            x       y       z     vdW  Elec       q    Type
                         _______ _______ _______ _____ _____    ______ ____

>  <TORSDO>
F 5

$$$$
