=
 OpenBabel11052416123D

 43 49  0  0  1  0  0  0  0  0999 V2000
  180.3470  178.4700  143.5850 C   0  0  0  0  0  0  0  0  0  0  0  0
  185.1810  178.5180  142.0920 C   0  0  2  0  0  3  0  0  0  0  0  0
  185.3350  177.9760  139.4810 N   0  0  0  0  0  0  0  0  0  0  0  0
  182.7320  178.8790  143.4790 C   0  0  0  0  0  0  0  0  0  0  0  0
  180.3020  178.3520  142.1910 C   0  0  0  0  0  3  0  0  0  0  0  0
  179.1580  178.3130  144.3500 N   0  0  0  0  0  1  0  0  0  0  0  0
  182.6940  178.7500  142.0720 C   0  0  0  0  0  0  0  0  0  0  0  0
  181.5590  178.7430  144.2270 C   0  0  0  0  0  3  0  0  0  0  0  0
  181.4700  178.5050  141.4370 C   0  0  0  0  0  3  0  0  0  0  0  0
  183.9770  178.3940  139.8800 C   0  0  0  0  0  2  0  0  0  0  0  0
  183.9620  179.0030  141.2940 C   0  0  2  0  0  3  0  0  0  0  0  0
  185.1700  179.0580  143.4940 C   0  0  0  0  0  3  0  0  0  0  0  0
  186.4830  178.8280  141.3440 C   0  0  2  0  0  3  0  0  0  0  0  0
  186.2380  178.9790  139.9000 N   0  0  0  0  0  2  0  0  0  0  0  0
  184.0120  179.1770  144.1540 C   0  0  0  0  0  3  0  0  0  0  0  0
  185.3990  177.8930  138.0170 C   0  0  2  0  0  3  0  0  0  0  0  0
  184.0000  177.7390  137.4320 C   0  0  0  0  0  1  0  0  0  0  0  0
  186.2210  176.6810  137.5920 C   0  0  0  0  0  2  0  0  0  0  0  0
  187.7690  175.9030  136.0020 C   0  0  0  0  0  2  0  0  0  0  0  0
  189.0780  176.6370  136.1950 C   0  0  1  0  0  3  0  0  0  0  0  0
  189.0550  179.7560  137.9260 O   0  0  0  0  0  0  0  0  0  0  0  0
  186.6640  176.8310  136.2140 N   0  0  0  0  0  0  0  0  0  0  0  0
  188.7240  178.1170  136.1770 C   0  0  1  0  0  3  0  0  0  0  0  0
  187.2090  178.1790  136.0810 C   0  0  0  0  0  2  0  0  0  0  0  0
  189.6510  176.3290  137.5910 C   0  0  2  0  0  3  0  0  0  0  0  0
  189.6960  177.5640  138.2790 O   0  0  0  0  0  0  0  0  0  0  0  0
  189.1670  178.5730  137.5120 C   0  0  0  0  0  0  0  0  0  0  0  0
  192.1690  176.3690  138.1760 C   0  0  0  0  0  3  0  0  0  0  0  0
  191.0220  175.7410  137.4900 C   0  0  0  0  0  0  0  0  0  0  0  0
  192.6350  172.7100  136.0930 C   0  0  0  0  0  1  0  0  0  0  0  0
  193.7020  174.7410  137.1060 C   0  0  0  0  0  2  0  0  0  0  0  0
  192.4910  173.9940  136.7550 N   0  0  0  0  0  0  0  0  0  0  0  0
  193.4060  175.8910  138.0290 C   0  0  0  0  0  3  0  0  0  0  0  0
  191.1920  174.5930  136.8360 C   0  0  0  0  0  3  0  0  0  0  0  0
  187.4890  177.7090  141.5920 C   0  0  0  0  0  2  0  0  0  0  0  0
  191.1370  177.6590  142.5600 N   0  0  0  0  0  2  0  0  0  0  0  0
  190.8500  176.6370  143.9290 S   0  0  0  0  0  0  0  0  0  0  0  0
  191.2030  175.2170  143.5900 O   0  0  0  0  0  0  0  0  0  0  0  0
  188.6050  178.0890  143.8140 C   0  0  0  0  0  2  0  0  0  0  0  0
  189.9720  177.5380  141.6910 C   0  0  0  0  0  2  0  0  0  0  0  0
  188.7380  178.2330  142.2860 C   0  0  1  0  0  3  0  0  0  0  0  0
  191.6810  177.1030  145.0890 O   0  0  0  0  0  0  0  0  0  0  0  0
  189.1210  176.7530  144.3340 C   0  0  0  0  0  2  0  0  0  0  0  0
  1  8  1  0  0  0  0
  1  6  1  0  0  0  0
  2 12  1  1  0  0  0
  3 10  1  0  0  0  0
  3 14  1  0  0  0  0
  4 15  1  0  0  0  0
  4  8  2  0  0  0  0
  5  1  2  0  0  0  0
  7  4  1  0  0  0  0
  9  7  2  0  0  0  0
  9  5  1  0  0  0  0
 11 10  1  6  0  0  0
 11  7  1  0  0  0  0
 11  2  1  0  0  0  0
 12 15  2  0  0  0  0
 13 35  1  6  0  0  0
 13  2  1  0  0  0  0
 14 13  1  0  0  0  0
 16 17  1  6  0  0  0
 16  3  1  0  0  0  0
 18 16  1  0  0  0  0
 19 22  1  0  0  0  0
 20 19  1  1  0  0  0
 20 25  1  0  0  0  0
 22 18  1  0  0  0  0
 23 24  1  1  0  0  0
 23 20  1  0  0  0  0
 23 27  1  0  0  0  0
 24 22  1  0  0  0  0
 25 29  1  6  0  0  0
 25 26  1  0  0  0  0
 27 21  2  0  0  0  0
 27 26  1  0  0  0  0
 29 28  1  0  0  0  0
 30 32  1  0  0  0  0
 31 33  1  0  0  0  0
 32 34  1  0  0  0  0
 32 31  1  0  0  0  0
 33 28  2  0  0  0  0
 34 29  2  0  0  0  0
 36 37  1  0  0  0  0
 37 43  1  0  0  0  0
 37 42  2  0  0  0  0
 38 37  2  0  0  0  0
 39 43  1  0  0  0  0
 40 41  1  0  0  0  0
 40 36  1  0  0  0  0
 41 35  1  6  0  0  0
 41 39  1  0  0  0  0
M  END
>  <MODEL>
1

>  <REMARK>
 VINA RESULT:      -9.7      0.000      0.000
  Name = 
  6 active torsions:
  status: ('A' for Active; 'I' for Inactive)
    1  A    between atoms: C_1  and  C_34
    2  A    between atoms: C_1  and  C_35
    3  A    between atoms: C_2  and  C_6
    4  A    between atoms: C_2  and  N_13
    5  A    between atoms: C_6  and  N_12
    6  A    between atoms: C_14  and  C_22
                            x       y       z     vdW  Elec       q    Type
                         _______ _______ _______ _____ _____    ______ ____

>  <TORSDO>
F 6

$$$$
=
 OpenBabel11052416123D

 43 49  0  0  1  0  0  0  0  0999 V2000
  190.9540  176.8500  146.2800 C   0  0  0  0  0  0  0  0  0  0  0  0
  187.5110  177.9640  142.7440 C   0  0  2  0  0  3  0  0  0  0  0  0
  188.6640  178.0270  140.3350 N   0  0  0  0  0  0  0  0  0  0  0  0
  188.8560  177.1570  145.1080 C   0  0  0  0  0  0  0  0  0  0  0  0
  191.6150  176.6850  145.0590 C   0  0  0  0  0  3  0  0  0  0  0  0
  191.6850  176.7870  147.4990 N   0  0  0  0  0  1  0  0  0  0  0  0
  189.5220  177.0020  143.8720 C   0  0  0  0  0  0  0  0  0  0  0  0
  189.5740  177.0760  146.3060 C   0  0  0  0  0  3  0  0  0  0  0  0
  190.9000  176.7490  143.8590 C   0  0  0  0  0  3  0  0  0  0  0  0
  189.4890  177.3060  141.3250 C   0  0  0  0  0  2  0  0  0  0  0  0
  188.6970  176.9980  142.6080 C   0  0  2  0  0  3  0  0  0  0  0  0
  186.7440  177.7190  144.0130 C   0  0  0  0  0  3  0  0  0  0  0  0
  186.6250  177.9210  141.4940 C   0  0  2  0  0  3  0  0  0  0  0  0
  187.3810  177.4360  140.3280 N   0  0  0  0  0  2  0  0  0  0  0  0
  187.3970  177.3870  145.1320 C   0  0  0  0  0  3  0  0  0  0  0  0
  189.2520  177.8490  139.0030 C   0  0  2  0  0  3  0  0  0  0  0  0
  189.0160  179.0870  138.1470 C   0  0  0  0  0  1  0  0  0  0  0  0
  188.6090  176.6610  138.2960 C   0  0  0  0  0  2  0  0  0  0  0  0
  186.9410  176.7460  136.6400 C   0  0  0  0  0  2  0  0  0  0  0  0
  186.7670  175.3640  136.0510 C   0  0  1  0  0  3  0  0  0  0  0  0
  189.4140  173.0000  136.4110 O   0  0  0  0  0  0  0  0  0  0  0  0
  188.3570  176.9810  136.8990 N   0  0  0  0  0  0  0  0  0  0  0  0
  188.1610  174.9180  135.6330 C   0  0  1  0  0  3  0  0  0  0  0  0
  189.1020  176.0170  136.0950 C   0  0  0  0  0  2  0  0  0  0  0  0
  186.2900  174.3850  137.1410 C   0  0  2  0  0  3  0  0  0  0  0  0
  187.3060  173.4100  137.2650 O   0  0  0  0  0  0  0  0  0  0  0  0
  188.3690  173.6990  136.4430 C   0  0  0  0  0  0  0  0  0  0  0  0
  184.5980  172.4400  137.3260 C   0  0  0  0  0  3  0  0  0  0  0  0
  184.9970  173.7420  136.7540 C   0  0  0  0  0  0  0  0  0  0  0  0
  181.9850  174.5660  134.7580 C   0  0  0  0  0  1  0  0  0  0  0  0
  182.6180  172.3920  135.8360 C   0  0  0  0  0  2  0  0  0  0  0  0
  182.9030  173.8080  135.5880 N   0  0  0  0  0  0  0  0  0  0  0  0
  183.4820  171.8260  136.9290 C   0  0  0  0  0  3  0  0  0  0  0  0
  184.1620  174.3910  135.9450 C   0  0  0  0  0  3  0  0  0  0  0  0
  186.0700  179.3150  141.2170 C   0  0  0  0  0  2  0  0  0  0  0  0
  182.7140  177.6280  140.8430 N   0  0  0  0  0  2  0  0  0  0  0  0
  182.9910  177.2510  139.1750 S   0  0  0  0  0  0  0  0  0  0  0  0
  183.4190  175.8180  139.0370 O   0  0  0  0  0  0  0  0  0  0  0  0
  184.2860  179.5760  139.4630 C   0  0  0  0  0  2  0  0  0  0  0  0
  184.0160  177.9220  141.4310 C   0  0  0  0  0  2  0  0  0  0  0  0
  184.5730  179.2690  140.9450 C   0  0  1  0  0  3  0  0  0  0  0  0
  181.7320  177.4810  138.3900 O   0  0  0  0  0  0  0  0  0  0  0  0
  184.2790  178.3300  138.5860 C   0  0  0  0  0  2  0  0  0  0  0  0
  1  8  1  0  0  0  0
  1  6  1  0  0  0  0
  2 12  1  1  0  0  0
  3 10  1  0  0  0  0
  4 15  1  0  0  0  0
  4  8  2  0  0  0  0
  5  1  2  0  0  0  0
  7  4  1  0  0  0  0
  9  7  2  0  0  0  0
  9  5  1  0  0  0  0
 11 10  1  6  0  0  0
 11  2  1  0  0  0  0
 11  7  1  0  0  0  0
 12 15  2  0  0  0  0
 13 35  1  6  0  0  0
 13  2  1  0  0  0  0
 14  3  1  0  0  0  0
 14 13  1  0  0  0  0
 16 17  1  6  0  0  0
 16  3  1  0  0  0  0
 18 16  1  0  0  0  0
 19 22  1  0  0  0  0
 20 19  1  1  0  0  0
 20 25  1  0  0  0  0
 21 27  2  0  0  0  0
 22 18  1  0  0  0  0
 23 20  1  0  0  0  0
 23 24  1  1  0  0  0
 23 27  1  0  0  0  0
 24 22  1  0  0  0  0
 25 29  1  6  0  0  0
 25 26  1  0  0  0  0
 27 26  1  0  0  0  0
 29 28  1  0  0  0  0
 30 32  1  0  0  0  0
 31 33  1  0  0  0  0
 32 31  1  0  0  0  0
 32 34  1  0  0  0  0
 33 28  2  0  0  0  0
 34 29  2  0  0  0  0
 36 40  1  0  0  0  0
 37 36  1  0  0  0  0
 38 37  2  0  0  0  0
 39 41  1  0  0  0  0
 41 35  1  6  0  0  0
 41 40  1  0  0  0  0
 42 37  2  0  0  0  0
 43 37  1  0  0  0  0
 43 39  1  0  0  0  0
M  END
>  <MODEL>
2

>  <REMARK>
 VINA RESULT:      -8.7      3.650      7.088
  Name = 
  6 active torsions:
  status: ('A' for Active; 'I' for Inactive)
    1  A    between atoms: C_1  and  C_34
    2  A    between atoms: C_1  and  C_35
    3  A    between atoms: C_2  and  C_6
    4  A    between atoms: C_2  and  N_13
    5  A    between atoms: C_6  and  N_12
    6  A    between atoms: C_14  and  C_22
                            x       y       z     vdW  Elec       q    Type
                         _______ _______ _______ _____ _____    ______ ____

>  <TORSDO>
F 6

$$$$
=
 OpenBabel11052416123D

 43 49  0  0  1  0  0  0  0  0999 V2000
  182.5660  178.6500  142.2340 C   0  0  0  0  0  0  0  0  0  0  0  0
  187.5360  177.8450  142.7300 C   0  0  2  0  0  3  0  0  0  0  0  0
  188.6550  177.5350  140.3240 N   0  0  0  0  0  0  0  0  0  0  0  0
  184.8190  178.5680  143.1170 C   0  0  0  0  0  0  0  0  0  0  0  0
  183.0740  178.6770  140.9310 C   0  0  0  0  0  3  0  0  0  0  0  0
  181.1590  178.6680  142.4490 N   0  0  0  0  0  1  0  0  0  0  0  0
  185.3370  178.5840  141.8020 C   0  0  0  0  0  0  0  0  0  0  0  0
  183.4370  178.6050  143.3270 C   0  0  0  0  0  3  0  0  0  0  0  0
  184.4550  178.6570  140.7170 C   0  0  0  0  0  3  0  0  0  0  0  0
  187.3320  178.1830  140.2390 C   0  0  0  0  0  2  0  0  0  0  0  0
  186.8340  178.6440  141.6220 C   0  0  2  0  0  3  0  0  0  0  0  0
  187.0370  178.2390  144.0920 C   0  0  0  0  0  3  0  0  0  0  0  0
  189.0590  177.9500  142.6000 C   0  0  2  0  0  3  0  0  0  0  0  0
  189.4490  178.2860  141.2200 N   0  0  0  0  0  2  0  0  0  0  0  0
  185.7440  178.5300  144.2690 C   0  0  0  0  0  3  0  0  0  0  0  0
  189.2940  177.5800  139.0050 C   0  0  2  0  0  3  0  0  0  0  0  0
  188.9990  178.9070  138.3150 C   0  0  0  0  0  1  0  0  0  0  0  0
  188.7570  176.4620  138.1190 C   0  0  0  0  0  2  0  0  0  0  0  0
  186.6720  176.7830  137.0790 C   0  0  0  0  0  2  0  0  0  0  0  0
  186.3040  175.5230  136.3260 C   0  0  1  0  0  3  0  0  0  0  0  0
  188.8920  173.2330  135.4430 O   0  0  0  0  0  0  0  0  0  0  0  0
  188.1050  177.0190  136.9430 N   0  0  0  0  0  0  0  0  0  0  0  0
  187.5000  175.2120  135.4380 C   0  0  1  0  0  3  0  0  0  0  0  0
  188.5570  176.2440  135.7920 C   0  0  0  0  0  2  0  0  0  0  0  0
  186.1550  174.3480  137.3100 C   0  0  2  0  0  3  0  0  0  0  0  0
  187.1440  173.4040  136.9470 O   0  0  0  0  0  0  0  0  0  0  0  0
  187.9170  173.8750  135.9130 C   0  0  0  0  0  0  0  0  0  0  0  0
  184.6280  172.2850  137.0070 C   0  0  0  0  0  3  0  0  0  0  0  0
  184.7940  173.7370  137.2150 C   0  0  0  0  0  0  0  0  0  0  0  0
  181.2610  174.7810  137.6170 C   0  0  0  0  0  1  0  0  0  0  0  0
  182.1770  172.5940  136.8010 C   0  0  0  0  0  2  0  0  0  0  0  0
  182.4080  173.9340  137.3460 N   0  0  0  0  0  0  0  0  0  0  0  0
  183.4180  171.7450  136.8470 C   0  0  0  0  0  3  0  0  0  0  0  0
  183.7210  174.5040  137.4000 C   0  0  0  0  0  3  0  0  0  0  0  0
  189.6980  176.6300  143.0190 C   0  0  0  0  0  2  0  0  0  0  0  0
  192.1970  175.7440  145.7050 N   0  0  0  0  0  2  0  0  0  0  0  0
  191.2180  176.4220  146.9630 S   0  0  0  0  0  0  0  0  0  0  0  0
  190.4740  175.3320  147.6790 O   0  0  0  0  0  0  0  0  0  0  0  0
  190.6680  178.0140  144.8820 C   0  0  0  0  0  2  0  0  0  0  0  0
  191.3230  175.5340  144.5560 C   0  0  0  0  0  2  0  0  0  0  0  0
  190.9230  176.8610  143.8920 C   0  0  1  0  0  3  0  0  0  0  0  0
  192.0900  177.1640  147.9340 O   0  0  0  0  0  0  0  0  0  0  0  0
  190.0660  177.5450  146.2010 C   0  0  0  0  0  2  0  0  0  0  0  0
  1  6  1  0  0  0  0
  1  8  1  0  0  0  0
  2 12  1  1  0  0  0
  3 14  1  0  0  0  0
  4  8  2  0  0  0  0
  4 15  1  0  0  0  0
  5  1  2  0  0  0  0
  7  4  1  0  0  0  0
  9  5  1  0  0  0  0
  9  7  2  0  0  0  0
 10  3  1  0  0  0  0
 11 10  1  6  0  0  0
 11  7  1  0  0  0  0
 11  2  1  0  0  0  0
 12 15  2  0  0  0  0
 13  2  1  0  0  0  0
 13 35  1  6  0  0  0
 14 13  1  0  0  0  0
 16 17  1  6  0  0  0
 16  3  1  0  0  0  0
 18 16  1  0  0  0  0
 20 19  1  1  0  0  0
 20 25  1  0  0  0  0
 21 27  2  0  0  0  0
 22 19  1  0  0  0  0
 22 18  1  0  0  0  0
 23 24  1  1  0  0  0
 23 27  1  0  0  0  0
 23 20  1  0  0  0  0
 24 22  1  0  0  0  0
 25 29  1  6  0  0  0
 26 25  1  0  0  0  0
 27 26  1  0  0  0  0
 28 29  1  0  0  0  0
 29 34  2  0  0  0  0
 31 33  1  0  0  0  0
 31 32  1  0  0  0  0
 32 34  1  0  0  0  0
 32 30  1  0  0  0  0
 33 28  2  0  0  0  0
 36 37  1  0  0  0  0
 37 38  2  0  0  0  0
 37 42  2  0  0  0  0
 39 43  1  0  0  0  0
 40 36  1  0  0  0  0
 41 35  1  1  0  0  0
 41 40  1  0  0  0  0
 41 39  1  0  0  0  0
 43 37  1  0  0  0  0
M  END
>  <MODEL>
3

>  <REMARK>
 VINA RESULT:      -8.7      2.736      4.998
  Name = 
  6 active torsions:
  status: ('A' for Active; 'I' for Inactive)
    1  A    between atoms: C_1  and  C_34
    2  A    between atoms: C_1  and  C_35
    3  A    between atoms: C_2  and  C_6
    4  A    between atoms: C_2  and  N_13
    5  A    between atoms: C_6  and  N_12
    6  A    between atoms: C_14  and  C_22
                            x       y       z     vdW  Elec       q    Type
                         _______ _______ _______ _____ _____    ______ ____

>  <TORSDO>
F 6

$$$$
=
 OpenBabel11052416123D

 43 49  0  0  1  0  0  0  0  0999 V2000
  195.1020  174.1950  136.2550 C   0  0  0  0  0  0  0  0  0  0  0  0
  190.4980  176.2870  136.3700 C   0  0  2  0  0  3  0  0  0  0  0  0
  189.6860  176.5700  138.9000 N   0  0  0  0  0  0  0  0  0  0  0  0
  193.0930  175.4010  135.6430 C   0  0  0  0  0  0  0  0  0  0  0  0
  194.8520  174.4570  137.6060 C   0  0  0  0  0  3  0  0  0  0  0  0
  196.2480  173.4400  135.8780 N   0  0  0  0  0  1  0  0  0  0  0  0
  192.8300  175.6580  137.0070 C   0  0  0  0  0  0  0  0  0  0  0  0
  194.2290  174.6740  135.2730 C   0  0  0  0  0  3  0  0  0  0  0  0
  193.7260  175.1970  137.9800 C   0  0  0  0  0  3  0  0  0  0  0  0
  191.1460  176.3750  138.8050 C   0  0  0  0  0  2  0  0  0  0  0  0
  191.6480  176.5290  137.3580 C   0  0  2  0  0  3  0  0  0  0  0  0
  190.9660  176.3830  134.9460 C   0  0  0  0  0  3  0  0  0  0  0  0
  189.3140  177.2130  136.6720 C   0  0  2  0  0  3  0  0  0  0  0  0
  189.3400  177.6630  138.0740 N   0  0  0  0  0  2  0  0  0  0  0  0
  192.1740  175.9170  134.6080 C   0  0  0  0  0  3  0  0  0  0  0  0
  189.3390  176.9190  140.2820 C   0  0  2  0  0  3  0  0  0  0  0  0
  188.5260  178.2070  140.3170 C   0  0  0  0  0  1  0  0  0  0  0  0
  190.6040  177.1400  141.1040 C   0  0  0  0  0  2  0  0  0  0  0  0
  189.6170  175.8360  142.7950 C   0  0  0  0  0  2  0  0  0  0  0  0
  189.7860  176.5460  144.1200 C   0  0  1  0  0  3  0  0  0  0  0  0
  192.3460  179.0110  144.4310 O   0  0  0  0  0  0  0  0  0  0  0  0
  190.8260  176.0140  141.9990 N   0  0  0  0  0  0  0  0  0  0  0  0
  191.2730  176.8510  144.2340 C   0  0  1  0  0  3  0  0  0  0  0  0
  191.8900  176.4000  142.9210 C   0  0  0  0  0  2  0  0  0  0  0  0
  189.0500  177.8990  144.0880 C   0  0  2  0  0  3  0  0  0  0  0  0
  190.0440  178.8910  144.2580 O   0  0  0  0  0  0  0  0  0  0  0  0
  191.2950  178.3270  144.3250 C   0  0  0  0  0  0  0  0  0  0  0  0
  186.5970  178.0950  144.8780 C   0  0  0  0  0  3  0  0  0  0  0  0
  188.0370  177.9850  145.1840 C   0  0  0  0  0  0  0  0  0  0  0  0
  187.9380  177.7460  148.8810 C   0  0  0  0  0  1  0  0  0  0  0  0
  186.1060  178.3840  147.2910 C   0  0  0  0  0  2  0  0  0  0  0  0
  187.4810  177.9280  147.5150 N   0  0  0  0  0  0  0  0  0  0  0  0
  185.6960  178.2470  145.8500 C   0  0  0  0  0  3  0  0  0  0  0  0
  188.4370  177.8810  146.4500 C   0  0  0  0  0  3  0  0  0  0  0  0
  188.0080  176.4790  136.3810 C   0  0  0  0  0  2  0  0  0  0  0  0
  184.6510  177.8480  137.4300 N   0  0  0  0  0  2  0  0  0  0  0  0
  183.7880  176.7900  136.3650 S   0  0  0  0  0  0  0  0  0  0  0  0
  183.2440  175.6200  137.1340 O   0  0  0  0  0  0  0  0  0  0  0  0
  186.0480  177.2550  135.0090 C   0  0  0  0  0  2  0  0  0  0  0  0
  185.9870  177.2860  137.5930 C   0  0  0  0  0  2  0  0  0  0  0  0
  186.8340  177.4450  136.3200 C   0  0  1  0  0  3  0  0  0  0  0  0
  182.6600  177.5380  135.7160 O   0  0  0  0  0  0  0  0  0  0  0  0
  184.9330  176.2230  135.1260 C   0  0  0  0  0  2  0  0  0  0  0  0
  1  5  1  0  0  0  0
  2 12  1  6  0  0  0
  2 13  1  0  0  0  0
  2 11  1  0  0  0  0
  3 16  1  0  0  0  0
  4  7  2  0  0  0  0
  5  9  2  0  0  0  0
  6  1  1  0  0  0  0
  7 11  1  0  0  0  0
  7  9  1  0  0  0  0
  8  4  1  0  0  0  0
  8  1  2  0  0  0  0
 10  3  1  0  0  0  0
 11 10  1  1  0  0  0
 13 35  1  1  0  0  0
 13 14  1  0  0  0  0
 14  3  1  0  0  0  0
 15 12  2  0  0  0  0
 15  4  1  0  0  0  0
 16 17  1  6  0  0  0
 16 18  1  0  0  0  0
 18 22  1  0  0  0  0
 20 19  1  6  0  0  0
 20 23  1  0  0  0  0
 22 19  1  0  0  0  0
 22 24  1  0  0  0  0
 23 24  1  6  0  0  0
 23 27  1  0  0  0  0
 25 20  1  0  0  0  0
 25 26  1  0  0  0  0
 25 29  1  1  0  0  0
 26 27  1  0  0  0  0
 27 21  2  0  0  0  0
 28 29  1  0  0  0  0
 28 33  2  0  0  0  0
 29 34  2  0  0  0  0
 31 32  1  0  0  0  0
 32 30  1  0  0  0  0
 33 31  1  0  0  0  0
 34 32  1  0  0  0  0
 36 40  1  0  0  0  0
 37 38  2  0  0  0  0
 37 36  1  0  0  0  0
 39 43  1  0  0  0  0
 39 41  1  0  0  0  0
 41 35  1  1  0  0  0
 41 40  1  0  0  0  0
 42 37  2  0  0  0  0
 43 37  1  0  0  0  0
M  END
>  <MODEL>
4

>  <REMARK>
 VINA RESULT:      -8.6      3.701     10.204
  Name = 
  6 active torsions:
  status: ('A' for Active; 'I' for Inactive)
    1  A    between atoms: C_1  and  C_34
    2  A    between atoms: C_1  and  C_35
    3  A    between atoms: C_2  and  C_6
    4  A    between atoms: C_2  and  N_13
    5  A    between atoms: C_6  and  N_12
    6  A    between atoms: C_14  and  C_22
                            x       y       z     vdW  Elec       q    Type
                         _______ _______ _______ _____ _____    ______ ____

>  <TORSDO>
F 6

$$$$
=
 OpenBabel11052416123D

 43 49  0  0  1  0  0  0  0  0999 V2000
  183.2350  178.6270  143.5270 C   0  0  0  0  0  0  0  0  0  0  0  0
  188.1310  177.4100  143.1500 C   0  0  2  0  0  3  0  0  0  0  0  0
  188.8070  177.1310  140.5810 N   0  0  0  0  0  0  0  0  0  0  0  0
  185.5880  178.3250  144.0150 C   0  0  0  0  0  0  0  0  0  0  0  0
  183.5220  178.6790  142.1590 C   0  0  0  0  0  3  0  0  0  0  0  0
  181.8900  178.7460  143.9770 N   0  0  0  0  0  1  0  0  0  0  0  0
  185.8810  178.3650  142.6330 C   0  0  0  0  0  0  0  0  0  0  0  0
  184.2680  178.4600  144.4550 C   0  0  0  0  0  3  0  0  0  0  0  0
  184.8420  178.5610  141.7150 C   0  0  0  0  0  3  0  0  0  0  0  0
  187.5480  177.8850  140.7430 C   0  0  0  0  0  2  0  0  0  0  0  0
  187.3280  178.3150  142.2050 C   0  0  2  0  0  3  0  0  0  0  0  0
  187.8990  177.7740  144.5890 C   0  0  0  0  0  3  0  0  0  0  0  0
  189.6160  177.4010  142.7690 C   0  0  2  0  0  3  0  0  0  0  0  0
  189.7990  177.7720  141.3560 N   0  0  0  0  0  2  0  0  0  0  0  0
  186.6830  178.1570  144.9920 C   0  0  0  0  0  3  0  0  0  0  0  0
  189.2210  177.1920  139.1750 C   0  0  2  0  0  3  0  0  0  0  0  0
  189.4300  178.6380  138.7420 C   0  0  0  0  0  1  0  0  0  0  0  0
  188.1450  176.5860  138.2800 C   0  0  0  0  0  2  0  0  0  0  0  0
  186.6950  178.2120  137.3930 C   0  0  0  0  0  2  0  0  0  0  0  0
  185.5150  177.5150  136.7510 C   0  0  1  0  0  3  0  0  0  0  0  0
  185.8500  174.0910  135.8090 O   0  0  0  0  0  0  0  0  0  0  0  0
  187.9060  177.4430  137.1290 N   0  0  0  0  0  0  0  0  0  0  0  0
  186.1130  176.4960  135.7920 C   0  0  1  0  0  3  0  0  0  0  0  0
  187.6170  176.5700  135.9950 C   0  0  0  0  0  2  0  0  0  0  0  0
  184.7310  176.7240  137.8160 C   0  0  2  0  0  3  0  0  0  0  0  0
  184.8110  175.3650  137.4330 O   0  0  0  0  0  0  0  0  0  0  0  0
  185.5930  175.2140  136.3140 C   0  0  0  0  0  0  0  0  0  0  0  0
  182.6880  177.8780  136.7310 C   0  0  0  0  0  3  0  0  0  0  0  0
  183.3030  177.1660  137.8680 C   0  0  0  0  0  0  0  0  0  0  0  0
  180.3780  176.8040  140.1140 C   0  0  0  0  0  1  0  0  0  0  0  0
  180.6250  178.2210  138.0610 C   0  0  0  0  0  2  0  0  0  0  0  0
  181.1810  177.2270  138.9820 N   0  0  0  0  0  0  0  0  0  0  0  0
  181.4380  178.3400  136.8010 C   0  0  0  0  0  3  0  0  0  0  0  0
  182.5600  176.8420  138.9250 C   0  0  0  0  0  3  0  0  0  0  0  0
  190.1980  176.0150  143.0270 C   0  0  0  0  0  2  0  0  0  0  0  0
  192.6300  174.8800  145.6810 N   0  0  0  0  0  2  0  0  0  0  0  0
  191.8060  175.7480  146.9320 S   0  0  0  0  0  0  0  0  0  0  0  0
  190.9350  174.8110  147.7180 O   0  0  0  0  0  0  0  0  0  0  0  0
  191.4260  177.3160  144.7960 C   0  0  0  0  0  2  0  0  0  0  0  0
  191.6960  174.7550  144.5680 C   0  0  0  0  0  2  0  0  0  0  0  0
  191.4730  176.0980  143.8540 C   0  0  1  0  0  3  0  0  0  0  0  0
  192.8110  176.3920  147.8440 O   0  0  0  0  0  0  0  0  0  0  0  0
  190.8070  176.9980  146.1520 C   0  0  0  0  0  2  0  0  0  0  0  0
  1  6  1  0  0  0  0
  1  8  1  0  0  0  0
  2 12  1  1  0  0  0
  3 10  1  0  0  0  0
  3 14  1  0  0  0  0
  4  8  2  0  0  0  0
  4 15  1  0  0  0  0
  5  1  2  0  0  0  0
  7  4  1  0  0  0  0
  9  5  1  0  0  0  0
  9  7  2  0  0  0  0
 11 10  1  6  0  0  0
 11  7  1  0  0  0  0
 11  2  1  0  0  0  0
 12 15  2  0  0  0  0
 13 35  1  6  0  0  0
 13  2  1  0  0  0  0
 14 13  1  0  0  0  0
 16 17  1  6  0  0  0
 16  3  1  0  0  0  0
 18 16  1  0  0  0  0
 20 19  1  1  0  0  0
 20 25  1  0  0  0  0
 21 27  2  0  0  0  0
 22 19  1  0  0  0  0
 22 18  1  0  0  0  0
 23 24  1  1  0  0  0
 23 27  1  0  0  0  0
 23 20  1  0  0  0  0
 24 22  1  0  0  0  0
 25 29  1  6  0  0  0
 26 25  1  0  0  0  0
 27 26  1  0  0  0  0
 28 33  2  0  0  0  0
 28 29  1  0  0  0  0
 29 34  2  0  0  0  0
 31 32  1  0  0  0  0
 32 30  1  0  0  0  0
 33 31  1  0  0  0  0
 34 32  1  0  0  0  0
 36 37  1  0  0  0  0
 37 38  2  0  0  0  0
 37 42  2  0  0  0  0
 39 43  1  0  0  0  0
 40 36  1  0  0  0  0
 41 35  1  1  0  0  0
 41 40  1  0  0  0  0
 41 39  1  0  0  0  0
 43 37  1  0  0  0  0
M  END
>  <MODEL>
5

>  <REMARK>
 VINA RESULT:      -8.4      2.880      5.709
  Name = 
  6 active torsions:
  status: ('A' for Active; 'I' for Inactive)
    1  A    between atoms: C_1  and  C_34
    2  A    between atoms: C_1  and  C_35
    3  A    between atoms: C_2  and  C_6
    4  A    between atoms: C_2  and  N_13
    5  A    between atoms: C_6  and  N_12
    6  A    between atoms: C_14  and  C_22
                            x       y       z     vdW  Elec       q    Type
                         _______ _______ _______ _____ _____    ______ ____

>  <TORSDO>
F 6

$$$$
=
 OpenBabel11052416123D

 43 49  0  0  1  0  0  0  0  0999 V2000
  185.2980  178.7960  145.5960 C   0  0  0  0  0  0  0  0  0  0  0  0
  183.0070  179.0360  141.0910 C   0  0  2  0  0  3  0  0  0  0  0  0
  184.7950  178.6850  139.1380 N   0  0  0  0  0  0  0  0  0  0  0  0
  183.6210  178.7690  143.8490 C   0  0  0  0  0  0  0  0  0  0  0  0
  186.2770  178.4290  144.6660 C   0  0  0  0  0  3  0  0  0  0  0  0
  185.6540  179.0060  146.9570 N   0  0  0  0  0  1  0  0  0  0  0  0
  184.6080  178.4090  142.9040 C   0  0  0  0  0  0  0  0  0  0  0  0
  183.9690  178.9560  145.1900 C   0  0  0  0  0  3  0  0  0  0  0  0
  185.9300  178.2240  143.3270 C   0  0  0  0  0  3  0  0  0  0  0  0
  185.2990  178.2110  140.4410 C   0  0  0  0  0  2  0  0  0  0  0  0
  184.1740  178.1190  141.4880 C   0  0  2  0  0  3  0  0  0  0  0  0
  181.9100  179.0050  142.1180 C   0  0  0  0  0  3  0  0  0  0  0  0
  182.5100  178.7090  139.6790 C   0  0  2  0  0  3  0  0  0  0  0  0
  183.5610  178.0430  138.8910 N   0  0  0  0  0  2  0  0  0  0  0  0
  182.2160  178.9280  143.4180 C   0  0  0  0  0  3  0  0  0  0  0  0
  185.7340  178.2810  138.0860 C   0  0  2  0  0  3  0  0  0  0  0  0
  185.1770  177.1020  137.2980 C   0  0  0  0  0  1  0  0  0  0  0  0
  187.0610  177.8480  138.7010 C   0  0  0  0  0  2  0  0  0  0  0  0
  188.7990  178.3370  137.1940 C   0  0  0  0  0  2  0  0  0  0  0  0
  190.0380  177.5780  137.6150 C   0  0  1  0  0  3  0  0  0  0  0  0
  190.2820  176.4240  140.9810 O   0  0  0  0  0  0  0  0  0  0  0  0
  188.1030  178.8130  138.3830 N   0  0  0  0  0  0  0  0  0  0  0  0
  190.2510  177.9220  139.0820 C   0  0  1  0  0  3  0  0  0  0  0  0
  189.0660  178.7840  139.4800 C   0  0  0  0  0  2  0  0  0  0  0  0
  189.7730  176.0620  137.5420 C   0  0  2  0  0  3  0  0  0  0  0  0
  189.9130  175.5760  138.8630 O   0  0  0  0  0  0  0  0  0  0  0  0
  190.1640  176.6020  139.7410 C   0  0  0  0  0  0  0  0  0  0  0  0
  190.4320  174.0950  136.0000 C   0  0  0  0  0  3  0  0  0  0  0  0
  190.7530  175.3890  136.6350 C   0  0  0  0  0  0  0  0  0  0  0  0
  194.0390  176.1190  135.0850 C   0  0  0  0  0  1  0  0  0  0  0  0
  192.7280  173.9810  135.0730 C   0  0  0  0  0  2  0  0  0  0  0  0
  192.8330  175.3940  135.4440 N   0  0  0  0  0  0  0  0  0  0  0  0
  191.3310  173.4540  135.2490 C   0  0  0  0  0  3  0  0  0  0  0  0
  191.8950  176.0060  136.3370 C   0  0  0  0  0  3  0  0  0  0  0  0
  182.0680  179.9930  138.9850 C   0  0  0  0  0  2  0  0  0  0  0  0
  179.0340  178.0480  137.8650 N   0  0  0  0  0  2  0  0  0  0  0  0
  179.8560  177.3880  136.4900 S   0  0  0  0  0  0  0  0  0  0  0  0
  180.3060  175.9870  136.7850 O   0  0  0  0  0  0  0  0  0  0  0  0
  180.9770  179.8070  136.7260 C   0  0  0  0  0  2  0  0  0  0  0  0
  180.0630  178.5310  138.7800 C   0  0  0  0  0  2  0  0  0  0  0  0
  180.7500  179.7990  138.2500 C   0  0  1  0  0  3  0  0  0  0  0  0
  178.9330  177.3860  135.3060 O   0  0  0  0  0  0  0  0  0  0  0  0
  181.2660  178.4230  136.1590 C   0  0  0  0  0  2  0  0  0  0  0  0
  1  6  1  0  0  0  0
  2 11  1  0  0  0  0
  2 12  1  1  0  0  0
  3 10  1  0  0  0  0
  4  8  2  0  0  0  0
  5  1  2  0  0  0  0
  7  9  2  0  0  0  0
  7  4  1  0  0  0  0
  8  1  1  0  0  0  0
  9  5  1  0  0  0  0
 11 10  1  6  0  0  0
 11  7  1  0  0  0  0
 12 15  2  0  0  0  0
 13 35  1  6  0  0  0
 13  2  1  0  0  0  0
 14  3  1  0  0  0  0
 14 13  1  0  0  0  0
 15  4  1  0  0  0  0
 16 17  1  1  0  0  0
 16 18  1  0  0  0  0
 16  3  1  0  0  0  0
 19 22  1  0  0  0  0
 20 19  1  1  0  0  0
 20 23  1  0  0  0  0
 22 18  1  0  0  0  0
 22 24  1  0  0  0  0
 23 24  1  1  0  0  0
 23 27  1  0  0  0  0
 25 29  1  6  0  0  0
 25 20  1  0  0  0  0
 25 26  1  0  0  0  0
 26 27  1  0  0  0  0
 27 21  2  0  0  0  0
 28 29  1  0  0  0  0
 30 32  1  0  0  0  0
 31 33  1  0  0  0  0
 31 32  1  0  0  0  0
 32 34  1  0  0  0  0
 33 28  2  0  0  0  0
 34 29  2  0  0  0  0
 36 40  1  0  0  0  0
 37 38  2  0  0  0  0
 37 36  1  0  0  0  0
 39 41  1  0  0  0  0
 41 40  1  0  0  0  0
 41 35  1  1  0  0  0
 42 37  2  0  0  0  0
 43 37  1  0  0  0  0
 43 39  1  0  0  0  0
M  END
>  <MODEL>
6

>  <REMARK>
 VINA RESULT:      -8.2      3.761      6.105
  Name = 
  6 active torsions:
  status: ('A' for Active; 'I' for Inactive)
    1  A    between atoms: C_1  and  C_34
    2  A    between atoms: C_1  and  C_35
    3  A    between atoms: C_2  and  C_6
    4  A    between atoms: C_2  and  N_13
    5  A    between atoms: C_6  and  N_12
    6  A    between atoms: C_14  and  C_22
                            x       y       z     vdW  Elec       q    Type
                         _______ _______ _______ _____ _____    ______ ____

>  <TORSDO>
F 6

$$$$
=
 OpenBabel11052416123D

 43 49  0  0  1  0  0  0  0  0999 V2000
  184.9870  178.6230  146.2590 C   0  0  0  0  0  0  0  0  0  0  0  0
  183.9620  179.0020  141.3190 C   0  0  2  0  0  3  0  0  0  0  0  0
  186.2330  178.9890  139.9120 N   0  0  0  0  0  0  0  0  0  0  0  0
  183.8490  178.5730  144.1220 C   0  0  0  0  0  0  0  0  0  0  0  0
  186.2130  178.4310  145.6140 C   0  0  0  0  0  3  0  0  0  0  0  0
  184.9420  178.7550  147.6750 N   0  0  0  0  0  1  0  0  0  0  0  0
  185.0870  178.3910  143.4650 C   0  0  0  0  0  0  0  0  0  0  0  0
  183.8050  178.6840  145.5150 C   0  0  0  0  0  3  0  0  0  0  0  0
  186.2610  178.3030  144.2230 C   0  0  0  0  0  3  0  0  0  0  0  0
  186.4250  178.4630  141.2770 C   0  0  0  0  0  2  0  0  0  0  0  0
  185.0810  178.1760  141.9710 C   0  0  2  0  0  3  0  0  0  0  0  0
  182.6440  178.7800  142.0050 C   0  0  0  0  0  3  0  0  0  0  0  0
  183.9000  178.7440  139.8100 C   0  0  2  0  0  3  0  0  0  0  0  0
  185.1920  178.2510  139.3050 N   0  0  0  0  0  2  0  0  0  0  0  0
  182.6010  178.6280  143.3330 C   0  0  0  0  0  3  0  0  0  0  0  0
  187.4590  178.7660  139.1370 C   0  0  2  0  0  3  0  0  0  0  0  0
  187.2610  177.6260  138.1460 C   0  0  0  0  0  1  0  0  0  0  0  0
  188.6080  178.3870  140.0650 C   0  0  0  0  0  2  0  0  0  0  0  0
  188.5490  176.5630  141.5480 C   0  0  0  0  0  2  0  0  0  0  0  0
  189.9060  176.4230  142.2030 C   0  0  1  0  0  3  0  0  0  0  0  0
  192.7390  177.8980  140.6140 O   0  0  0  0  0  0  0  0  0  0  0  0
  188.7300  176.9390  140.1510 N   0  0  0  0  0  0  0  0  0  0  0  0
  190.9100  176.3780  141.0600 C   0  0  1  0  0  3  0  0  0  0  0  0
  190.1030  176.6000  139.7930 C   0  0  0  0  0  2  0  0  0  0  0  0
  190.2220  177.6840  143.0300 C   0  0  2  0  0  3  0  0  0  0  0  0
  191.3730  178.2590  142.4440 O   0  0  0  0  0  0  0  0  0  0  0  0
  191.7640  177.5530  141.3320 C   0  0  0  0  0  0  0  0  0  0  0  0
  191.6810  176.5590  144.8430 C   0  0  0  0  0  3  0  0  0  0  0  0
  190.4850  177.3360  144.4600 C   0  0  0  0  0  0  0  0  0  0  0  0
  189.0550  178.0830  147.7960 C   0  0  0  0  0  1  0  0  0  0  0  0
  190.8720  176.4670  147.1840 C   0  0  0  0  0  2  0  0  0  0  0  0
  189.9220  177.5080  146.7840 N   0  0  0  0  0  0  0  0  0  0  0  0
  191.8820  176.1820  146.1070 C   0  0  0  0  0  3  0  0  0  0  0  0
  189.6700  177.8010  145.4040 C   0  0  0  0  0  3  0  0  0  0  0  0
  183.5120  180.0310  139.0890 C   0  0  0  0  0  2  0  0  0  0  0  0
  180.2950  179.8010  137.1290 N   0  0  0  0  0  2  0  0  0  0  0  0
  180.4320  181.4260  136.5440 S   0  0  0  0  0  0  0  0  0  0  0  0
  180.9670  181.4220  135.1410 O   0  0  0  0  0  0  0  0  0  0  0  0
  181.5420  181.5920  138.9740 C   0  0  0  0  0  2  0  0  0  0  0  0
  181.6190  179.4070  137.5950 C   0  0  0  0  0  2  0  0  0  0  0  0
  182.0050  180.1240  138.8980 C   0  0  1  0  0  3  0  0  0  0  0  0
  179.0840  182.0870  136.5710 O   0  0  0  0  0  0  0  0  0  0  0  0
  181.5540  182.2920  137.6210 C   0  0  0  0  0  2  0  0  0  0  0  0
  1  6  1  0  0  0  0
  2 11  1  0  0  0  0
  2 12  1  1  0  0  0
  3 10  1  0  0  0  0
  4  8  1  0  0  0  0
  5  1  1  0  0  0  0
  7  4  2  0  0  0  0
  7  9  1  0  0  0  0
  8  1  2  0  0  0  0
  9  5  2  0  0  0  0
 11 10  1  6  0  0  0
 11  7  1  0  0  0  0
 12 15  2  0  0  0  0
 13 35  1  6  0  0  0
 13  2  1  0  0  0  0
 14 13  1  0  0  0  0
 14  3  1  0  0  0  0
 15  4  1  0  0  0  0
 16 17  1  6  0  0  0
 16  3  1  0  0  0  0
 16 18  1  0  0  0  0
 18 22  1  0  0  0  0
 20 19  1  6  0  0  0
 20 25  1  0  0  0  0
 21 27  2  0  0  0  0
 22 19  1  0  0  0  0
 23 24  1  6  0  0  0
 23 27  1  0  0  0  0
 23 20  1  0  0  0  0
 24 22  1  0  0  0  0
 25 29  1  1  0  0  0
 26 25  1  0  0  0  0
 27 26  1  0  0  0  0
 28 33  2  0  0  0  0
 29 28  1  0  0  0  0
 29 34  2  0  0  0  0
 32 31  1  0  0  0  0
 32 30  1  0  0  0  0
 33 31  1  0  0  0  0
 34 32  1  0  0  0  0
 36 40  1  0  0  0  0
 37 42  2  0  0  0  0
 37 36  1  0  0  0  0
 37 43  1  0  0  0  0
 38 37  2  0  0  0  0
 40 41  1  0  0  0  0
 41 39  1  0  0  0  0
 41 35  1  6  0  0  0
 43 39  1  0  0  0  0
M  END
>  <MODEL>
7

>  <REMARK>
 VINA RESULT:      -8.1      3.905      7.386
  Name = 
  6 active torsions:
  status: ('A' for Active; 'I' for Inactive)
    1  A    between atoms: C_1  and  C_34
    2  A    between atoms: C_1  and  C_35
    3  A    between atoms: C_2  and  C_6
    4  A    between atoms: C_2  and  N_13
    5  A    between atoms: C_6  and  N_12
    6  A    between atoms: C_14  and  C_22
                            x       y       z     vdW  Elec       q    Type
                         _______ _______ _______ _____ _____    ______ ____

>  <TORSDO>
F 6

$$$$
=
 OpenBabel11052416123D

 43 49  0  0  1  0  0  0  0  0999 V2000
  184.5280  179.1000  144.4350 C   0  0  0  0  0  0  0  0  0  0  0  0
  181.4370  178.4550  140.4820 C   0  0  2  0  0  3  0  0  0  0  0  0
  182.8650  177.9760  138.2760 N   0  0  0  0  0  0  0  0  0  0  0  0
  182.5740  178.6610  143.0740 C   0  0  0  0  0  0  0  0  0  0  0  0
  185.3560  178.6870  143.3860 C   0  0  0  0  0  3  0  0  0  0  0  0
  185.1010  179.5430  145.6600 N   0  0  0  0  0  1  0  0  0  0  0  0
  183.4060  178.2530  142.0070 C   0  0  0  0  0  0  0  0  0  0  0  0
  183.1380  179.0780  144.2840 C   0  0  0  0  0  3  0  0  0  0  0  0
  184.7960  178.2530  142.1810 C   0  0  0  0  0  3  0  0  0  0  0  0
  183.6520  177.7500  139.5040 C   0  0  0  0  0  2  0  0  0  0  0  0
  182.7560  177.7170  140.7560 C   0  0  2  0  0  3  0  0  0  0  0  0
  180.5590  178.4810  141.7010 C   0  0  0  0  0  3  0  0  0  0  0  0
  180.7310  177.8760  139.2510 C   0  0  2  0  0  3  0  0  0  0  0  0
  181.6900  177.1970  138.3640 N   0  0  0  0  0  2  0  0  0  0  0  0
  181.1050  178.6280  142.9140 C   0  0  0  0  0  3  0  0  0  0  0  0
  183.6360  177.5040  137.1210 C   0  0  2  0  0  3  0  0  0  0  0  0
  182.8170  176.5120  136.3030 C   0  0  0  0  0  1  0  0  0  0  0  0
  184.9030  176.7940  137.5860 C   0  0  0  0  0  2  0  0  0  0  0  0
  186.8710  175.6760  136.9460 C   0  0  0  0  0  2  0  0  0  0  0  0
  187.9960  176.6840  136.8530 C   0  0  1  0  0  3  0  0  0  0  0  0
  187.1810  180.1350  136.4680 O   0  0  0  0  0  0  0  0  0  0  0  0
  185.6440  176.2820  136.4430 N   0  0  0  0  0  0  0  0  0  0  0  0
  187.4800  177.7920  135.9460 C   0  0  1  0  0  3  0  0  0  0  0  0
  186.0370  177.4330  135.6360 C   0  0  0  0  0  2  0  0  0  0  0  0
  188.2490  177.3150  138.2350 C   0  0  2  0  0  3  0  0  0  0  0  0
  187.9770  178.6950  138.0920 O   0  0  0  0  0  0  0  0  0  0  0  0
  187.5300  178.9800  136.8240 C   0  0  0  0  0  0  0  0  0  0  0  0
  190.0500  177.2390  140.0880 C   0  0  0  0  0  3  0  0  0  0  0  0
  189.6650  177.1070  138.6690 C   0  0  0  0  0  0  0  0  0  0  0  0
  192.8760  176.0000  137.1860 C   0  0  0  0  0  1  0  0  0  0  0  0
  192.4320  176.9340  139.4710 C   0  0  0  0  0  2  0  0  0  0  0  0
  191.9260  176.4830  138.1710 N   0  0  0  0  0  0  0  0  0  0  0  0
  191.3240  177.1280  140.4700 C   0  0  0  0  0  3  0  0  0  0  0  0
  190.5710  176.7200  137.7720 C   0  0  0  0  0  3  0  0  0  0  0  0
  180.0240  178.9980  138.4970 C   0  0  0  0  0  2  0  0  0  0  0  0
  181.4960  182.4660  138.2660 N   0  0  0  0  0  2  0  0  0  0  0  0
  180.4290  182.9280  136.9830 S   0  0  0  0  0  0  0  0  0  0  0  0
  179.2930  183.7450  137.5300 O   0  0  0  0  0  0  0  0  0  0  0  0
  180.8060  180.3220  136.5070 C   0  0  0  0  0  2  0  0  0  0  0  0
  180.9090  181.2910  138.9010 C   0  0  0  0  0  2  0  0  0  0  0  0
  181.0140  180.0440  138.0080 C   0  0  1  0  0  3  0  0  0  0  0  0
  181.1850  183.7310  135.9630 O   0  0  0  0  0  0  0  0  0  0  0  0
  179.8030  181.4370  136.2390 C   0  0  0  0  0  2  0  0  0  0  0  0
  1  6  1  0  0  0  0
  2 11  1  0  0  0  0
  2 12  1  1  0  0  0
  3 14  1  0  0  0  0
  3 10  1  0  0  0  0
  4  8  2  0  0  0  0
  5  1  2  0  0  0  0
  7  9  2  0  0  0  0
  7  4  1  0  0  0  0
  8  1  1  0  0  0  0
  9  5  1  0  0  0  0
 11 10  1  6  0  0  0
 11  7  1  0  0  0  0
 12 15  2  0  0  0  0
 13 35  1  6  0  0  0
 13  2  1  0  0  0  0
 14 13  1  0  0  0  0
 15  4  1  0  0  0  0
 16 17  1  1  0  0  0
 16 18  1  0  0  0  0
 16  3  1  0  0  0  0
 20 19  1  1  0  0  0
 20 25  1  0  0  0  0
 21 27  2  0  0  0  0
 22 19  1  0  0  0  0
 22 18  1  0  0  0  0
 23 24  1  1  0  0  0
 23 27  1  0  0  0  0
 23 20  1  0  0  0  0
 24 22  1  0  0  0  0
 25 29  1  6  0  0  0
 26 25  1  0  0  0  0
 27 26  1  0  0  0  0
 28 33  2  0  0  0  0
 29 28  1  0  0  0  0
 30 32  1  0  0  0  0
 31 33  1  0  0  0  0
 32 31  1  0  0  0  0
 34 32  1  0  0  0  0
 34 29  2  0  0  0  0
 36 40  1  0  0  0  0
 37 38  2  0  0  0  0
 37 36  1  0  0  0  0
 39 41  1  0  0  0  0
 41 35  1  1  0  0  0
 41 40  1  0  0  0  0
 42 37  2  0  0  0  0
 43 39  1  0  0  0  0
 43 37  1  0  0  0  0
M  END
>  <MODEL>
8

>  <REMARK>
 VINA RESULT:      -7.9      3.838      6.273
  Name = 
  6 active torsions:
  status: ('A' for Active; 'I' for Inactive)
    1  A    between atoms: C_1  and  C_34
    2  A    between atoms: C_1  and  C_35
    3  A    between atoms: C_2  and  C_6
    4  A    between atoms: C_2  and  N_13
    5  A    between atoms: C_6  and  N_12
    6  A    between atoms: C_14  and  C_22
                            x       y       z     vdW  Elec       q    Type
                         _______ _______ _______ _____ _____    ______ ____

>  <TORSDO>
F 6

$$$$
=
 OpenBabel11052416123D

 43 49  0  0  1  0  0  0  0  0999 V2000
  184.4060  179.1720  144.3900 C   0  0  0  0  0  0  0  0  0  0  0  0
  181.6440  178.4720  140.2090 C   0  0  2  0  0  3  0  0  0  0  0  0
  183.2490  178.0350  138.1180 N   0  0  0  0  0  0  0  0  0  0  0  0
  182.5720  178.6930  142.8820 C   0  0  0  0  0  0  0  0  0  0  0  0
  185.3210  178.7820  143.4070 C   0  0  0  0  0  3  0  0  0  0  0  0
  184.8720  179.6230  145.6570 N   0  0  0  0  0  1  0  0  0  0  0  0
  183.4930  178.3090  141.8810 C   0  0  0  0  0  0  0  0  0  0  0  0
  183.0320  179.1190  144.1320 C   0  0  0  0  0  3  0  0  0  0  0  0
  184.8660  178.3400  142.1610 C   0  0  0  0  0  3  0  0  0  0  0  0
  183.9440  177.8220  139.4030 C   0  0  0  0  0  2  0  0  0  0  0  0
  182.9550  177.7630  140.5820 C   0  0  2  0  0  3  0  0  0  0  0  0
  180.6740  178.4730  141.3570 C   0  0  0  0  0  3  0  0  0  0  0  0
  181.0490  177.8820  138.9260 C   0  0  2  0  0  3  0  0  0  0  0  0
  182.0890  177.2280  138.1140 N   0  0  0  0  0  2  0  0  0  0  0  0
  181.1220  178.6270  142.6080 C   0  0  0  0  0  3  0  0  0  0  0  0
  184.1170  177.5840  137.0250 C   0  0  2  0  0  3  0  0  0  0  0  0
  184.0710  176.0670  136.8980 C   0  0  0  0  0  1  0  0  0  0  0  0
  185.5620  177.9880  137.2990 C   0  0  0  0  0  2  0  0  0  0  0  0
  186.9720  176.2310  137.9780 C   0  0  0  0  0  2  0  0  0  0  0  0
  188.3080  176.8090  138.3890 C   0  0  1  0  0  3  0  0  0  0  0  0
  189.2160  180.0470  137.1980 O   0  0  0  0  0  0  0  0  0  0  0  0
  186.4720  176.9600  136.8170 N   0  0  0  0  0  0  0  0  0  0  0  0
  188.7590  177.6710  137.2180 C   0  0  1  0  0  3  0  0  0  0  0  0
  187.6160  177.6420  136.2190 C   0  0  0  0  0  2  0  0  0  0  0  0
  188.1240  177.7490  139.5950 C   0  0  2  0  0  3  0  0  0  0  0  0
  188.5250  179.0330  139.1570 O   0  0  0  0  0  0  0  0  0  0  0  0
  188.8690  179.0140  137.8270 C   0  0  0  0  0  0  0  0  0  0  0  0
  190.4160  177.0950  140.5960 C   0  0  0  0  0  3  0  0  0  0  0  0
  188.9630  177.3090  140.7520 C   0  0  0  0  0  0  0  0  0  0  0  0
  188.5720  176.7340  144.3920 C   0  0  0  0  0  1  0  0  0  0  0  0
  190.5390  176.2380  142.9180 C   0  0  0  0  0  2  0  0  0  0  0  0
  189.1950  176.7960  143.0820 N   0  0  0  0  0  0  0  0  0  0  0  0
  191.1560  176.6300  141.6040 C   0  0  0  0  0  3  0  0  0  0  0  0
  188.4030  177.1850  141.9530 C   0  0  0  0  0  3  0  0  0  0  0  0
  180.3760  178.9900  138.1220 C   0  0  0  0  0  2  0  0  0  0  0  0
  179.3110  182.4880  139.0590 N   0  0  0  0  0  2  0  0  0  0  0  0
  180.0030  183.1760  137.6280 S   0  0  0  0  0  0  0  0  0  0  0  0
  178.9310  183.4180  136.6050 O   0  0  0  0  0  0  0  0  0  0  0  0
  181.6680  181.1470  138.1550 C   0  0  0  0  0  2  0  0  0  0  0  0
  179.1700  181.0570  138.8130 C   0  0  0  0  0  2  0  0  0  0  0  0
  180.5300  180.3400  138.8070 C   0  0  1  0  0  3  0  0  0  0  0  0
  180.6810  184.4720  137.9680 O   0  0  0  0  0  0  0  0  0  0  0  0
  181.1960  182.0160  136.9950 C   0  0  0  0  0  2  0  0  0  0  0  0
  1  6  1  0  0  0  0
  2 11  1  0  0  0  0
  2 12  1  1  0  0  0
  3 10  1  0  0  0  0
  4  8  2  0  0  0  0
  5  1  2  0  0  0  0
  7  9  2  0  0  0  0
  7  4  1  0  0  0  0
  8  1  1  0  0  0  0
  9  5  1  0  0  0  0
 11 10  1  6  0  0  0
 11  7  1  0  0  0  0
 12 15  2  0  0  0  0
 13 35  1  6  0  0  0
 13  2  1  0  0  0  0
 14  3  1  0  0  0  0
 14 13  1  0  0  0  0
 15  4  1  0  0  0  0
 16 17  1  1  0  0  0
 16 18  1  0  0  0  0
 16  3  1  0  0  0  0
 20 19  1  6  0  0  0
 20 25  1  0  0  0  0
 21 27  2  0  0  0  0
 22 18  1  0  0  0  0
 22 19  1  0  0  0  0
 23 24  1  6  0  0  0
 23 27  1  0  0  0  0
 23 20  1  0  0  0  0
 24 22  1  0  0  0  0
 25 29  1  1  0  0  0
 26 25  1  0  0  0  0
 27 26  1  0  0  0  0
 28 29  1  0  0  0  0
 28 33  2  0  0  0  0
 29 34  2  0  0  0  0
 31 32  1  0  0  0  0
 32 30  1  0  0  0  0
 33 31  1  0  0  0  0
 34 32  1  0  0  0  0
 37 42  2  0  0  0  0
 37 36  1  0  0  0  0
 38 37  2  0  0  0  0
 39 41  1  0  0  0  0
 40 36  1  0  0  0  0
 41 35  1  6  0  0  0
 41 40  1  0  0  0  0
 43 37  1  0  0  0  0
 43 39  1  0  0  0  0
M  END
>  <MODEL>
9

>  <REMARK>
 VINA RESULT:      -7.9      3.865      6.703
  Name = 
  6 active torsions:
  status: ('A' for Active; 'I' for Inactive)
    1  A    between atoms: C_1  and  C_34
    2  A    between atoms: C_1  and  C_35
    3  A    between atoms: C_2  and  C_6
    4  A    between atoms: C_2  and  N_13
    5  A    between atoms: C_6  and  N_12
    6  A    between atoms: C_14  and  C_22
                            x       y       z     vdW  Elec       q    Type
                         _______ _______ _______ _____ _____    ______ ____

>  <TORSDO>
F 6

$$$$
