=
 OpenBabel11052415153D

 37 44  0  0  1  0  0  0  0  0999 V2000
  183.5970  177.8980  141.6610 O   0  0  0  0  0  0  0  0  0  0  0  0
  189.0890  178.3480  141.4680 C   0  0  0  0  0  3  0  0  0  0  0  0
  186.3880  178.1220  137.9600 N   0  0  0  0  0  0  0  0  0  0  0  0
  182.7590  178.0470  137.1710 C   0  0  0  0  0  2  0  0  0  0  0  0
  188.4120  177.6380  139.2050 C   0  0  0  0  0  0  0  0  0  0  0  0
  184.9840  178.3760  138.2920 C   0  0  1  0  0  3  0  0  0  0  0  0
  187.1180  177.9690  139.1730 C   0  0  0  0  0  0  0  0  0  0  0  0
  184.0290  177.3590  137.6320 C   0  0  1  0  0  0  0  0  0  0  0  0
  189.1690  177.4950  137.9250 C   0  0  0  0  0  2  0  0  0  0  0  0
  186.2290  178.2210  140.3010 C   0  0  0  0  0  0  0  0  0  0  0  0
  185.6340  179.3110  142.3210 O   0  0  0  0  0  1  0  0  0  0  0  0
  186.8860  177.1540  135.7520 C   0  0  0  0  0  2  0  0  0  0  0  0
  188.7510  178.8710  136.7980 S   0  0  0  0  0  0  0  0  0  0  0  0
  186.5990  178.7760  141.4800 C   0  0  0  0  0  0  0  0  0  0  0  0
  182.6870  177.0330  138.3020 C   0  0  1  0  0  3  0  0  0  0  0  0
  186.9910  178.3790  136.6470 C   0  0  2  0  0  3  0  0  0  0  0  0
  184.9050  178.3110  139.7550 N   0  0  0  0  0  0  0  0  0  0  0  0
  189.0700  177.2350  140.4790 C   0  0  0  0  0  2  0  0  0  0  0  0
  184.5880  176.3010  136.6610 C   0  0  2  0  0  3  0  0  0  0  0  0
  188.0010  178.9780  141.9110 C   0  0  0  0  0  3  0  0  0  0  0  0
  182.5180  177.6960  139.5950 N   0  0  0  0  0  0  0  0  0  0  0  0
  183.6700  177.9810  140.4060 C   0  0  0  0  0  0  0  0  0  0  0  0
  185.2040  176.9880  135.0920 S   0  0  0  0  0  0  0  0  0  0  0  0
  182.5810  175.0730  135.8760 C   0  0  0  0  0  3  0  0  0  0  0  0
  183.8220  175.0080  136.5200 C   0  0  0  0  0  0  0  0  0  0  0  0
  184.3050  173.7540  136.9660 C   0  0  0  0  0  0  0  0  0  0  0  0
  185.6190  173.6010  137.6520 C   0  0  0  0  0  1  0  0  0  0  0  0
  182.2960  172.6850  136.1260 C   0  0  0  0  0  3  0  0  0  0  0  0
  183.5340  172.6050  136.7650 C   0  0  0  0  0  3  0  0  0  0  0  0
  181.8200  173.9190  135.6810 C   0  0  0  0  0  3  0  0  0  0  0  0
  181.1530  177.7930  140.1170 C   0  0  1  0  0  3  0  0  0  0  0  0
  179.1150  179.2110  140.0980 C   0  0  0  0  0  2  0  0  0  0  0  0
  179.9290  180.9600  141.4800 O   0  0  0  0  0  1  0  0  0  0  0  0
  180.6280  179.2200  140.0310 C   0  0  1  0  0  3  0  0  0  0  0  0
  179.9230  179.5750  141.3250 C   0  0  2  0  0  3  0  0  0  0  0  0
  180.2170  176.8310  139.3930 C   0  0  0  0  0  2  0  0  0  0  0  0
  179.9730  175.5970  140.2400 C   0  0  0  0  0  1  0  0  0  0  0  0
  2 20  2  0  0  0  0
  3  7  1  0  0  0  0
  5 18  1  0  0  0  0
  6  3  1  1  0  0  0
  6 17  1  0  0  0  0
  7  5  2  0  0  0  0
  7 10  1  0  0  0  0
  8  4  1  6  0  0  0
  8  6  1  0  0  0  0
  8 15  1  0  0  0  0
  9  5  1  0  0  0  0
 10 14  2  0  0  0  0
 13  9  1  0  0  0  0
 14 20  1  0  0  0  0
 14 11  1  0  0  0  0
 15  4  1  6  0  0  0
 15 21  1  0  0  0  0
 16 12  1  6  0  0  0
 16 13  1  0  0  0  0
 16  3  1  0  0  0  0
 17 10  1  0  0  0  0
 17 22  1  0  0  0  0
 18  2  1  0  0  0  0
 19 25  1  6  0  0  0
 19  8  1  0  0  0  0
 21 31  1  0  0  0  0
 21 22  1  0  0  0  0
 22  1  2  0  0  0  0
 23 12  1  0  0  0  0
 23 19  1  0  0  0  0
 24 25  1  0  0  0  0
 25 26  2  0  0  0  0
 26 27  1  0  0  0  0
 28 29  2  0  0  0  0
 29 26  1  0  0  0  0
 30 24  2  0  0  0  0
 30 28  1  0  0  0  0
 31 36  1  6  0  0  0
 32 35  1  0  0  0  0
 34 32  1  0  0  0  0
 34 31  1  1  0  0  0
 34 35  1  0  0  0  0
 35 33  1  6  0  0  0
 36 37  1  0  0  0  0
M  END
>  <MODEL>
1

>  <REMARK>
 VINA RESULT:      -6.1      0.000      0.000
  Name = 
  4 active torsions:
  status: ('A' for Active; 'I' for Inactive)
    1  A    between atoms: C_6  and  C_31
    2  A    between atoms: C_11  and  C_26
    3  A    between atoms: C_17  and  C_26
    4  A    between atoms: C_26  and  N_33
                            x       y       z     vdW  Elec       q    Type
                         _______ _______ _______ _____ _____    ______ ____

>  <TORSDO>
F 4

$$$$
=
 OpenBabel11052415153D

 37 44  0  0  1  0  0  0  0  0999 V2000
  183.4750  178.2910  141.2810 O   0  0  0  0  0  0  0  0  0  0  0  0
  188.9880  178.2300  141.1690 C   0  0  0  0  0  3  0  0  0  0  0  0
  186.3260  177.9640  137.6330 N   0  0  0  0  0  0  0  0  0  0  0  0
  182.7160  178.1510  136.7770 C   0  0  0  0  0  2  0  0  0  0  0  0
  188.2800  177.4020  138.9550 C   0  0  0  0  0  0  0  0  0  0  0  0
  184.9460  178.3690  137.9140 C   0  0  1  0  0  3  0  0  0  0  0  0
  187.0220  177.8440  138.8700 C   0  0  0  0  0  0  0  0  0  0  0  0
  183.9120  177.3910  137.3170 C   0  0  1  0  0  0  0  0  0  0  0  0
  189.0390  177.0900  137.7070 C   0  0  0  0  0  2  0  0  0  0  0  0
  186.1450  178.2660  139.9550 C   0  0  0  0  0  0  0  0  0  0  0  0
  185.6230  179.5640  141.8690 O   0  0  0  0  0  1  0  0  0  0  0  0
  186.7640  176.7800  135.5200 C   0  0  0  0  0  2  0  0  0  0  0  0
  188.7620  178.4020  136.4660 S   0  0  0  0  0  0  0  0  0  0  0  0
  186.5470  178.8780  141.0940 C   0  0  0  0  0  0  0  0  0  0  0  0
  182.5370  177.2420  137.9830 C   0  0  1  0  0  3  0  0  0  0  0  0
  186.9680  178.0590  136.3170 C   0  0  2  0  0  3  0  0  0  0  0  0
  184.8420  178.4290  139.3760 N   0  0  0  0  0  0  0  0  0  0  0  0
  188.8810  177.0470  140.2700 C   0  0  0  0  0  2  0  0  0  0  0  0
  184.3850  176.2120  136.4450 C   0  0  2  0  0  3  0  0  0  0  0  0
  187.9550  178.9880  141.5370 C   0  0  0  0  0  3  0  0  0  0  0  0
  182.4110  178.0200  139.2150 N   0  0  0  0  0  0  0  0  0  0  0  0
  183.5730  178.2650  140.0250 C   0  0  0  0  0  0  0  0  0  0  0  0
  185.0830  176.7130  134.8390 S   0  0  0  0  0  0  0  0  0  0  0  0
  182.3180  175.0900  135.6600 C   0  0  0  0  0  3  0  0  0  0  0  0
  183.5080  174.9870  136.3910 C   0  0  0  0  0  0  0  0  0  0  0  0
  183.8390  173.7530  137.0000 C   0  0  0  0  0  0  0  0  0  0  0  0
  185.0900  173.5600  137.7880 C   0  0  0  0  0  1  0  0  0  0  0  0
  181.7880  172.7810  136.1430 C   0  0  0  0  0  3  0  0  0  0  0  0
  182.9730  172.6620  136.8710 C   0  0  0  0  0  3  0  0  0  0  0  0
  181.4610  173.9940  135.5370 C   0  0  0  0  0  3  0  0  0  0  0  0
  181.0530  178.2810  139.6990 C   0  0  1  0  0  3  0  0  0  0  0  0
  179.5470  177.9080  141.6380 C   0  0  0  0  0  2  0  0  0  0  0  0
  179.0590  175.6220  141.2290 O   0  0  0  0  0  1  0  0  0  0  0  0
  180.6660  177.3130  140.8080 C   0  0  1  0  0  3  0  0  0  0  0  0
  179.2370  176.8530  140.5980 C   0  0  2  0  0  3  0  0  0  0  0  0
  180.9020  179.7230  140.1670 C   0  0  0  0  0  2  0  0  0  0  0  0
  180.9330  180.6680  138.9800 C   0  0  0  0  0  1  0  0  0  0  0  0
  2 20  2  0  0  0  0
  3  7  1  0  0  0  0
  5 18  1  0  0  0  0
  6  3  1  1  0  0  0
  6 17  1  0  0  0  0
  7  5  2  0  0  0  0
  7 10  1  0  0  0  0
  8  4  1  6  0  0  0
  8  6  1  0  0  0  0
  8 15  1  0  0  0  0
  9  5  1  0  0  0  0
 10 14  2  0  0  0  0
 13  9  1  0  0  0  0
 14 20  1  0  0  0  0
 14 11  1  0  0  0  0
 15  4  1  6  0  0  0
 15 21  1  0  0  0  0
 16 12  1  1  0  0  0
 16 13  1  0  0  0  0
 16  3  1  0  0  0  0
 17 10  1  0  0  0  0
 17 22  1  0  0  0  0
 18  2  1  0  0  0  0
 19 25  1  6  0  0  0
 19  8  1  0  0  0  0
 21 31  1  0  0  0  0
 21 22  1  0  0  0  0
 22  1  2  0  0  0  0
 23 12  1  0  0  0  0
 23 19  1  0  0  0  0
 24 25  1  0  0  0  0
 25 26  2  0  0  0  0
 26 27  1  0  0  0  0
 28 29  2  0  0  0  0
 29 26  1  0  0  0  0
 30 24  2  0  0  0  0
 30 28  1  0  0  0  0
 31 36  1  1  0  0  0
 34 31  1  6  0  0  0
 34 32  1  0  0  0  0
 35 34  1  0  0  0  0
 35 33  1  1  0  0  0
 35 32  1  0  0  0  0
 37 36  1  0  0  0  0
M  END
>  <MODEL>
2

>  <REMARK>
 VINA RESULT:      -5.7      1.064      1.559
  Name = 
  4 active torsions:
  status: ('A' for Active; 'I' for Inactive)
    1  A    between atoms: C_6  and  C_31
    2  A    between atoms: C_11  and  C_26
    3  A    between atoms: C_17  and  C_26
    4  A    between atoms: C_26  and  N_33
                            x       y       z     vdW  Elec       q    Type
                         _______ _______ _______ _____ _____    ______ ____

>  <TORSDO>
F 4

$$$$
=
 OpenBabel11052415153D

 37 44  0  0  1  0  0  0  0  0999 V2000
  185.9860  178.6780  139.6950 O   0  0  0  0  0  0  0  0  0  0  0  0
  183.3510  179.1570  144.5150 C   0  0  0  0  0  3  0  0  0  0  0  0
  181.5510  177.7610  140.7120 N   0  0  0  0  0  0  0  0  0  0  0  0
  182.5520  176.9420  137.2290 C   0  0  0  0  0  2  0  0  0  0  0  0
  181.5740  178.9680  142.8150 C   0  0  0  0  0  0  0  0  0  0  0  0
  182.5460  177.3870  139.7020 C   0  0  1  0  0  3  0  0  0  0  0  0
  182.2200  178.4230  141.7800 C   0  0  0  0  0  0  0  0  0  0  0  0
  182.2100  177.9530  138.3060 C   0  0  1  0  0  0  0  0  0  0  0  0
  180.0910  178.8190  142.9200 C   0  0  0  0  0  2  0  0  0  0  0  0
  183.6570  178.3980  141.5340 C   0  0  0  0  0  0  0  0  0  0  0  0
  185.8990  177.9340  142.1480 O   0  0  0  0  0  1  0  0  0  0  0  0
  179.2190  178.0340  139.9750 C   0  0  0  0  0  2  0  0  0  0  0  0
  179.6090  177.1010  142.5240 S   0  0  0  0  0  0  0  0  0  0  0  0
  184.6140  178.3290  142.4900 C   0  0  0  0  0  0  0  0  0  0  0  0
  183.3430  178.2380  137.3120 C   0  0  1  0  0  3  0  0  0  0  0  0
  180.1960  177.2020  140.7900 C   0  0  2  0  0  3  0  0  0  0  0  0
  183.8250  177.9070  140.1960 N   0  0  0  0  0  0  0  0  0  0  0  0
  182.2760  179.8690  143.7700 C   0  0  0  0  0  2  0  0  0  0  0  0
  180.8920  178.7200  138.0860 C   0  0  2  0  0  3  0  0  0  0  0  0
  184.3730  178.5240  143.9370 C   0  0  0  0  0  3  0  0  0  0  0  0
  184.6730  178.0100  137.8780 N   0  0  0  0  0  0  0  0  0  0  0  0
  184.8910  178.2080  139.2840 C   0  0  0  0  0  0  0  0  0  0  0  0
  179.4020  177.6810  138.2040 S   0  0  0  0  0  0  0  0  0  0  0  0
  180.5870  179.2710  135.6880 C   0  0  0  0  0  3  0  0  0  0  0  0
  180.8560  179.7430  136.9780 C   0  0  0  0  0  0  0  0  0  0  0  0
  181.0400  181.1320  137.1810 C   0  0  0  0  0  0  0  0  0  0  0  0
  181.3210  181.7130  138.5250 C   0  0  0  0  0  1  0  0  0  0  0  0
  180.6960  181.5220  134.8110 C   0  0  0  0  0  3  0  0  0  0  0  0
  180.9600  182.0070  136.0930 C   0  0  0  0  0  3  0  0  0  0  0  0
  180.5090  180.1540  134.6090 C   0  0  0  0  0  3  0  0  0  0  0  0
  185.7780  177.8500  136.9310 C   0  0  1  0  0  3  0  0  0  0  0  0
  188.2200  177.4520  136.7210 C   0  0  0  0  0  2  0  0  0  0  0  0
  188.9610  179.4760  137.7140 O   0  0  0  0  0  1  0  0  0  0  0  0
  187.1260  177.9780  137.6270 C   0  0  1  0  0  3  0  0  0  0  0  0
  188.0020  178.9440  136.8530 C   0  0  2  0  0  3  0  0  0  0  0  0
  185.6800  176.5220  136.1880 C   0  0  0  0  0  2  0  0  0  0  0  0
  185.3610  176.7600  134.7250 C   0  0  0  0  0  1  0  0  0  0  0  0
  3 16  1  0  0  0  0
  3  7  1  0  0  0  0
  5  9  1  0  0  0  0
  5 18  1  0  0  0  0
  6 17  1  1  0  0  0
  6  3  1  0  0  0  0
  7  5  2  0  0  0  0
  8  4  1  6  0  0  0
  8  6  1  0  0  0  0
 10  7  1  0  0  0  0
 10 14  2  0  0  0  0
 11 14  1  0  0  0  0
 13  9  1  0  0  0  0
 14 20  1  0  0  0  0
 15  4  1  6  0  0  0
 15 21  1  0  0  0  0
 15  8  1  0  0  0  0
 16 12  1  6  0  0  0
 16 13  1  0  0  0  0
 17 10  1  0  0  0  0
 18  2  1  0  0  0  0
 19 25  1  6  0  0  0
 19 23  1  0  0  0  0
 19  8  1  0  0  0  0
 20  2  2  0  0  0  0
 21 22  1  0  0  0  0
 22  1  2  0  0  0  0
 22 17  1  0  0  0  0
 23 12  1  0  0  0  0
 24 25  1  0  0  0  0
 25 26  2  0  0  0  0
 26 27  1  0  0  0  0
 28 29  2  0  0  0  0
 29 26  1  0  0  0  0
 30 28  1  0  0  0  0
 30 24  2  0  0  0  0
 31 36  1  1  0  0  0
 31 21  1  0  0  0  0
 32 35  1  0  0  0  0
 32 34  1  0  0  0  0
 34 31  1  6  0  0  0
 35 34  1  0  0  0  0
 35 33  1  1  0  0  0
 37 36  1  0  0  0  0
M  END
>  <MODEL>
3

>  <REMARK>
 VINA RESULT:      -5.6      3.130      6.626
  Name = 
  4 active torsions:
  status: ('A' for Active; 'I' for Inactive)
    1  A    between atoms: C_6  and  C_31
    2  A    between atoms: C_11  and  C_26
    3  A    between atoms: C_17  and  C_26
    4  A    between atoms: C_26  and  N_33
                            x       y       z     vdW  Elec       q    Type
                         _______ _______ _______ _____ _____    ______ ____

>  <TORSDO>
F 4

$$$$
=
 OpenBabel11052415153D

 37 44  0  0  1  0  0  0  0  0999 V2000
  187.5060  173.4100  137.2300 O   0  0  0  0  0  0  0  0  0  0  0  0
  183.1630  170.2630  135.9520 C   0  0  0  0  0  3  0  0  0  0  0  0
  183.2530  174.6950  135.8900 N   0  0  0  0  0  0  0  0  0  0  0  0
  185.6540  177.4920  136.3420 C   0  0  0  0  0  2  0  0  0  0  0  0
  182.2480  172.5260  136.3040 C   0  0  0  0  0  0  0  0  0  0  0  0
  184.6090  175.2480  135.9130 C   0  0  1  0  0  3  0  0  0  0  0  0
  183.3290  173.3000  136.1660 C   0  0  0  0  0  0  0  0  0  0  0  0
  184.7530  176.4150  136.9120 C   0  0  1  0  0  0  0  0  0  0  0  0
  180.8910  173.1100  136.0840 C   0  0  0  0  0  2  0  0  0  0  0  0
  184.7300  172.9090  136.2690 C   0  0  0  0  0  0  0  0  0  0  0  0
  186.6000  171.5710  135.6880 O   0  0  0  0  0  1  0  0  0  0  0  0
  181.3820  176.2320  136.3300 C   0  0  0  0  0  2  0  0  0  0  0  0
  180.9010  174.1660  134.5940 S   0  0  0  0  0  0  0  0  0  0  0  0
  185.2360  171.7070  135.9040 C   0  0  0  0  0  0  0  0  0  0  0  0
  186.1180  176.7000  137.5540 C   0  0  1  0  0  3  0  0  0  0  0  0
  182.0910  175.3690  135.2990 C   0  0  2  0  0  3  0  0  0  0  0  0
  185.4870  174.1280  136.2700 N   0  0  0  0  0  0  0  0  0  0  0  0
  182.3590  171.1430  136.8440 C   0  0  0  0  0  2  0  0  0  0  0  0
  183.5150  176.9330  137.6700 C   0  0  2  0  0  3  0  0  0  0  0  0
  184.4200  170.5130  135.5860 C   0  0  0  0  0  3  0  0  0  0  0  0
  187.1390  175.7200  137.1850 N   0  0  0  0  0  0  0  0  0  0  0  0
  186.7550  174.3660  136.8970 C   0  0  0  0  0  0  0  0  0  0  0  0
  182.2970  177.7750  136.6100 S   0  0  0  0  0  0  0  0  0  0  0  0
  184.7000  178.6080  139.0630 C   0  0  0  0  0  3  0  0  0  0  0  0
  183.7400  177.5910  139.0090 C   0  0  0  0  0  0  0  0  0  0  0  0
  183.0160  177.2620  140.1800 C   0  0  0  0  0  0  0  0  0  0  0  0
  181.9710  176.1980  140.2020 C   0  0  0  0  0  1  0  0  0  0  0  0
  184.2400  178.9570  141.4100 C   0  0  0  0  0  3  0  0  0  0  0  0
  183.2760  177.9490  141.3700 C   0  0  0  0  0  3  0  0  0  0  0  0
  184.9520  179.2870  140.2570 C   0  0  0  0  0  3  0  0  0  0  0  0
  188.5360  176.1090  137.3920 C   0  0  1  0  0  3  0  0  0  0  0  0
  190.7510  176.4700  136.3290 C   0  0  0  0  0  2  0  0  0  0  0  0
  190.5380  174.8660  134.5940 O   0  0  0  0  0  1  0  0  0  0  0  0
  189.2790  176.2280  136.0680 C   0  0  1  0  0  3  0  0  0  0  0  0
  190.2700  175.0880  135.9430 C   0  0  2  0  0  3  0  0  0  0  0  0
  188.6350  177.4080  138.1830 C   0  0  0  0  0  2  0  0  0  0  0  0
  189.0820  177.1270  139.6040 C   0  0  0  0  0  1  0  0  0  0  0  0
  2 18  1  0  0  0  0
  3  7  1  0  0  0  0
  5 18  1  0  0  0  0
  6  3  1  1  0  0  0
  6 17  1  0  0  0  0
  6  8  1  0  0  0  0
  7 10  1  0  0  0  0
  7  5  2  0  0  0  0
  8  4  1  6  0  0  0
  8 15  1  0  0  0  0
  8 19  1  0  0  0  0
  9  5  1  0  0  0  0
 10 17  1  0  0  0  0
 11 14  1  0  0  0  0
 12 23  1  0  0  0  0
 13 16  1  0  0  0  0
 13  9  1  0  0  0  0
 14 10  2  0  0  0  0
 15  4  1  6  0  0  0
 16  3  1  0  0  0  0
 16 12  1  1  0  0  0
 17 22  1  0  0  0  0
 19 25  1  1  0  0  0
 20 14  1  0  0  0  0
 20  2  2  0  0  0  0
 21 31  1  0  0  0  0
 21 15  1  0  0  0  0
 22 21  1  0  0  0  0
 22  1  2  0  0  0  0
 23 19  1  0  0  0  0
 24 30  1  0  0  0  0
 25 24  2  0  0  0  0
 25 26  1  0  0  0  0
 26 27  1  0  0  0  0
 26 29  2  0  0  0  0
 29 28  1  0  0  0  0
 30 28  2  0  0  0  0
 31 36  1  6  0  0  0
 34 32  1  0  0  0  0
 34 31  1  1  0  0  0
 35 33  1  6  0  0  0
 35 34  1  0  0  0  0
 35 32  1  0  0  0  0
 36 37  1  0  0  0  0
M  END
>  <MODEL>
4

>  <REMARK>
 VINA RESULT:      -5.1      3.499      7.856
  Name = 
  4 active torsions:
  status: ('A' for Active; 'I' for Inactive)
    1  A    between atoms: C_6  and  C_31
    2  A    between atoms: C_11  and  C_26
    3  A    between atoms: C_17  and  C_26
    4  A    between atoms: C_26  and  N_33
                            x       y       z     vdW  Elec       q    Type
                         _______ _______ _______ _____ _____    ______ ____

>  <TORSDO>
F 4

$$$$
=
 OpenBabel11052415153D

 37 44  0  0  1  0  0  0  0  0999 V2000
  186.0130  176.0230  137.1450 O   0  0  0  0  0  0  0  0  0  0  0  0
  181.4310  173.0650  136.3340 C   0  0  0  0  0  3  0  0  0  0  0  0
  181.6220  177.0740  138.2180 N   0  0  0  0  0  0  0  0  0  0  0  0
  184.0850  179.7620  138.9300 C   0  0  0  0  0  2  0  0  0  0  0  0
  180.8050  174.8040  137.9690 C   0  0  0  0  0  0  0  0  0  0  0  0
  182.8880  177.7700  137.9750 C   0  0  1  0  0  3  0  0  0  0  0  0
  181.7610  175.7210  137.7950 C   0  0  0  0  0  0  0  0  0  0  0  0
  183.4580  178.4200  139.2530 C   0  0  1  0  0  0  0  0  0  0  0  0
  179.4930  175.2070  138.5570 C   0  0  0  0  0  2  0  0  0  0  0  0
  183.0710  175.5460  137.1800 C   0  0  0  0  0  0  0  0  0  0  0  0
  184.5050  174.8800  135.4130 O   0  0  0  0  0  1  0  0  0  0  0  0
  180.1360  177.9770  139.9600 C   0  0  0  0  0  2  0  0  0  0  0  0
  178.9320  176.7770  137.8090 S   0  0  0  0  0  0  0  0  0  0  0  0
  183.3500  174.6990  136.1600 C   0  0  0  0  0  0  0  0  0  0  0  0
  184.9740  178.6190  139.3910 C   0  0  1  0  0  3  0  0  0  0  0  0
  180.3410  177.7440  138.4720 C   0  0  2  0  0  3  0  0  0  0  0  0
  183.8010  176.7540  137.4390 N   0  0  0  0  0  0  0  0  0  0  0  0
  181.0830  173.3570  137.7520 C   0  0  0  0  0  2  0  0  0  0  0  0
  182.6480  178.3760  140.5630 C   0  0  2  0  0  3  0  0  0  0  0  0
  182.4400  173.6370  135.6760 C   0  0  0  0  0  3  0  0  0  0  0  0
  185.7290  178.0530  138.2720 N   0  0  0  0  0  0  0  0  0  0  0  0
  185.2210  176.9020  137.5800 C   0  0  0  0  0  0  0  0  0  0  0  0
  181.1320  179.3830  140.5300 S   0  0  0  0  0  0  0  0  0  0  0  0
  184.7940  178.2100  141.7960 C   0  0  0  0  0  3  0  0  0  0  0  0
  183.4150  178.4410  141.8610 C   0  0  0  0  0  0  0  0  0  0  0  0
  182.8250  178.7540  143.1090 C   0  0  0  0  0  0  0  0  0  0  0  0
  181.3660  179.0210  143.2610 C   0  0  0  0  0  1  0  0  0  0  0  0
  184.9980  178.5810  144.1760 C   0  0  0  0  0  3  0  0  0  0  0  0
  183.6250  178.8180  144.2560 C   0  0  0  0  0  3  0  0  0  0  0  0
  185.5820  178.2780  142.9460 C   0  0  0  0  0  3  0  0  0  0  0  0
  187.1010  178.5320  138.0900 C   0  0  1  0  0  3  0  0  0  0  0  0
  189.3270  178.4530  139.1890 C   0  0  0  0  0  2  0  0  0  0  0  0
  188.7180  177.1100  141.0480 O   0  0  0  0  0  1  0  0  0  0  0  0
  188.0980  177.6460  138.8240 C   0  0  1  0  0  3  0  0  0  0  0  0
  188.2790  178.1570  140.2400 C   0  0  2  0  0  3  0  0  0  0  0  0
  187.4580  178.6330  136.6120 C   0  0  0  0  0  2  0  0  0  0  0  0
  188.7130  177.8330  136.3170 C   0  0  0  0  0  1  0  0  0  0  0  0
  1 22  2  0  0  0  0
  2 18  1  0  0  0  0
  3 16  1  0  0  0  0
  5  9  1  0  0  0  0
  6 17  1  1  0  0  0
  6  3  1  0  0  0  0
  6  8  1  0  0  0  0
  7  5  2  0  0  0  0
  7  3  1  0  0  0  0
  8  4  1  6  0  0  0
  8 15  1  0  0  0  0
  8 19  1  0  0  0  0
 10 17  1  0  0  0  0
 10  7  1  0  0  0  0
 11 14  1  0  0  0  0
 12 23  1  0  0  0  0
 13 16  1  0  0  0  0
 13  9  1  0  0  0  0
 14 10  2  0  0  0  0
 15  4  1  6  0  0  0
 16 12  1  1  0  0  0
 17 22  1  0  0  0  0
 18  5  1  0  0  0  0
 19 25  1  1  0  0  0
 20 14  1  0  0  0  0
 20  2  2  0  0  0  0
 21 15  1  0  0  0  0
 22 21  1  0  0  0  0
 23 19  1  0  0  0  0
 24 25  2  0  0  0  0
 24 30  1  0  0  0  0
 25 26  1  0  0  0  0
 26 27  1  0  0  0  0
 26 29  2  0  0  0  0
 28 29  1  0  0  0  0
 30 28  2  0  0  0  0
 31 36  1  6  0  0  0
 31 21  1  0  0  0  0
 32 35  1  0  0  0  0
 34 31  1  6  0  0  0
 34 32  1  0  0  0  0
 34 35  1  0  0  0  0
 35 33  1  1  0  0  0
 37 36  1  0  0  0  0
M  END
>  <MODEL>
5

>  <REMARK>
 VINA RESULT:      -5.0      2.886      7.542
  Name = 
  4 active torsions:
  status: ('A' for Active; 'I' for Inactive)
    1  A    between atoms: C_6  and  C_31
    2  A    between atoms: C_11  and  C_26
    3  A    between atoms: C_17  and  C_26
    4  A    between atoms: C_26  and  N_33
                            x       y       z     vdW  Elec       q    Type
                         _______ _______ _______ _____ _____    ______ ____

>  <TORSDO>
F 4

$$$$
=
 OpenBabel11052415153D

 37 44  0  0  1  0  0  0  0  0999 V2000
  185.7860  175.3550  137.2930 O   0  0  0  0  0  0  0  0  0  0  0  0
  180.7930  173.1920  136.4000 C   0  0  0  0  0  3  0  0  0  0  0  0
  181.6080  177.2330  138.0330 N   0  0  0  0  0  0  0  0  0  0  0  0
  184.4750  179.4940  138.7180 C   0  0  0  0  0  2  0  0  0  0  0  0
  180.4110  175.1290  137.8800 C   0  0  0  0  0  0  0  0  0  0  0  0
  182.9880  177.6770  137.8220 C   0  0  1  0  0  3  0  0  0  0  0  0
  181.5230  175.8500  137.7060 C   0  0  0  0  0  0  0  0  0  0  0  0
  183.6040  178.3090  139.0880 C   0  0  1  0  0  0  0  0  0  0  0  0
  179.1660  175.7980  138.3630 C   0  0  0  0  0  2  0  0  0  0  0  0
  182.8080  175.4030  137.1830 C   0  0  0  0  0  0  0  0  0  0  0  0
  184.1830  174.3680  135.5510 O   0  0  0  0  0  1  0  0  0  0  0  0
  180.2260  178.5070  139.6230 C   0  0  0  0  0  2  0  0  0  0  0  0
  178.9310  177.3820  137.4840 S   0  0  0  0  0  0  0  0  0  0  0  0
  182.9790  174.4480  136.2370 C   0  0  0  0  0  0  0  0  0  0  0  0
  185.1230  178.2490  139.3030 C   0  0  1  0  0  3  0  0  0  0  0  0
  180.4570  178.1340  138.1670 C   0  0  2  0  0  3  0  0  0  0  0  0
  183.7290  176.4800  137.4080 N   0  0  0  0  0  0  0  0  0  0  0  0
  180.4360  173.6440  137.7740 C   0  0  0  0  0  2  0  0  0  0  0  0
  182.7380  178.5030  140.3480 C   0  0  2  0  0  3  0  0  0  0  0  0
  181.9180  173.5290  135.7680 C   0  0  0  0  0  3  0  0  0  0  0  0
  185.8170  177.4800  138.2700 N   0  0  0  0  0  0  0  0  0  0  0  0
  185.1440  176.3870  137.6230 C   0  0  0  0  0  0  0  0  0  0  0  0
  181.4300  179.7550  140.1600 S   0  0  0  0  0  0  0  0  0  0  0  0
  184.8270  178.3310  141.6720 C   0  0  0  0  0  3  0  0  0  0  0  0
  183.4410  178.5280  141.6820 C   0  0  0  0  0  0  0  0  0  0  0  0
  182.7870  178.7730  142.9130 C   0  0  0  0  0  0  0  0  0  0  0  0
  181.3170  179.0010  143.0060 C   0  0  0  0  0  1  0  0  0  0  0  0
  184.9110  178.6010  144.0730 C   0  0  0  0  0  3  0  0  0  0  0  0
  183.5300  178.8050  144.0980 C   0  0  0  0  0  3  0  0  0  0  0  0
  185.5590  178.3650  142.8610 C   0  0  0  0  0  3  0  0  0  0  0  0
  187.2600  177.6960  138.1400 C   0  0  1  0  0  3  0  0  0  0  0  0
  189.0550  178.8090  136.8350 C   0  0  0  0  0  2  0  0  0  0  0  0
  188.5320  177.8810  134.7140 O   0  0  0  0  0  1  0  0  0  0  0  0
  187.5980  178.3970  136.8310 C   0  0  1  0  0  3  0  0  0  0  0  0
  188.6220  177.5760  136.0720 C   0  0  2  0  0  3  0  0  0  0  0  0
  187.8080  178.4800  139.3260 C   0  0  0  0  0  2  0  0  0  0  0  0
  188.6470  177.5770  140.2110 C   0  0  0  0  0  1  0  0  0  0  0  0
  1 22  2  0  0  0  0
  2 18  1  0  0  0  0
  3 16  1  0  0  0  0
  5  9  1  0  0  0  0
  6 17  1  1  0  0  0
  6  3  1  0  0  0  0
  6  8  1  0  0  0  0
  7  5  2  0  0  0  0
  7  3  1  0  0  0  0
  8  4  1  6  0  0  0
  8 15  1  0  0  0  0
  8 19  1  0  0  0  0
 10 17  1  0  0  0  0
 10  7  1  0  0  0  0
 11 14  1  0  0  0  0
 12 23  1  0  0  0  0
 13 16  1  0  0  0  0
 13  9  1  0  0  0  0
 14 10  2  0  0  0  0
 15  4  1  6  0  0  0
 16 12  1  1  0  0  0
 17 22  1  0  0  0  0
 18  5  1  0  0  0  0
 19 25  1  1  0  0  0
 20 14  1  0  0  0  0
 20  2  2  0  0  0  0
 21 15  1  0  0  0  0
 22 21  1  0  0  0  0
 23 19  1  0  0  0  0
 24 25  2  0  0  0  0
 24 30  1  0  0  0  0
 25 26  1  0  0  0  0
 26 27  1  0  0  0  0
 26 29  2  0  0  0  0
 28 29  1  0  0  0  0
 30 28  2  0  0  0  0
 31 21  1  0  0  0  0
 31 36  1  1  0  0  0
 34 32  1  0  0  0  0
 34 31  1  1  0  0  0
 35 33  1  6  0  0  0
 35 34  1  0  0  0  0
 35 32  1  0  0  0  0
 36 37  1  0  0  0  0
M  END
>  <MODEL>
6

>  <REMARK>
 VINA RESULT:      -4.9      3.039      7.674
  Name = 
  4 active torsions:
  status: ('A' for Active; 'I' for Inactive)
    1  A    between atoms: C_6  and  C_31
    2  A    between atoms: C_11  and  C_26
    3  A    between atoms: C_17  and  C_26
    4  A    between atoms: C_26  and  N_33
                            x       y       z     vdW  Elec       q    Type
                         _______ _______ _______ _____ _____    ______ ____

>  <TORSDO>
F 4

$$$$
=
 OpenBabel11052415153D

 37 44  0  0  1  0  0  0  0  0999 V2000
  185.9250  178.1070  141.5890 O   0  0  0  0  0  0  0  0  0  0  0  0
  190.7320  176.9740  139.1360 C   0  0  0  0  0  3  0  0  0  0  0  0
  186.8830  177.7140  137.0650 N   0  0  0  0  0  0  0  0  0  0  0  0
  183.3920  178.7220  137.8360 C   0  0  0  0  0  2  0  0  0  0  0  0
  189.0130  176.6060  137.4060 C   0  0  0  0  0  0  0  0  0  0  0  0
  185.8740  178.3420  137.9220 C   0  0  1  0  0  3  0  0  0  0  0  0
  187.9710  177.2950  137.8810 C   0  0  0  0  0  0  0  0  0  0  0  0
  184.4880  177.6760  137.7860 C   0  0  1  0  0  0  0  0  0  0  0  0
  189.1020  176.3190  135.9430 C   0  0  0  0  0  2  0  0  0  0  0  0
  187.7370  177.7320  139.2520 C   0  0  0  0  0  0  0  0  0  0  0  0
  188.3600  178.8400  141.2540 O   0  0  0  0  0  1  0  0  0  0  0  0
  186.1320  176.7600  134.9230 C   0  0  0  0  0  2  0  0  0  0  0  0
  188.6630  177.8140  134.9880 S   0  0  0  0  0  0  0  0  0  0  0  0
  188.6990  178.0950  140.1330 C   0  0  0  0  0  0  0  0  0  0  0  0
  183.5100  177.7140  138.9680 C   0  0  1  0  0  3  0  0  0  0  0  0
  186.9370  177.8550  135.6050 C   0  0  2  0  0  3  0  0  0  0  0  0
  186.3900  178.2260  139.2900 N   0  0  0  0  0  0  0  0  0  0  0  0
  189.9940  175.9660  138.3260 C   0  0  0  0  0  2  0  0  0  0  0  0
  184.2740  176.5540  136.7510 C   0  0  2  0  0  3  0  0  0  0  0  0
  190.1490  177.8650  139.9380 C   0  0  0  0  0  3  0  0  0  0  0  0
  184.0820  178.3300  140.1650 N   0  0  0  0  0  0  0  0  0  0  0  0
  185.4940  178.2300  140.4110 C   0  0  0  0  0  0  0  0  0  0  0  0
  184.3550  177.1180  135.0220 S   0  0  0  0  0  0  0  0  0  0  0  0
  181.8670  175.9670  136.8480 C   0  0  0  0  0  3  0  0  0  0  0  0
  183.1890  175.5450  137.0300 C   0  0  0  0  0  0  0  0  0  0  0  0
  183.4380  174.2080  137.4240 C   0  0  0  0  0  0  0  0  0  0  0  0
  184.8170  173.6790  137.6300 C   0  0  0  0  0  1  0  0  0  0  0  0
  181.0510  173.7730  137.4510 C   0  0  0  0  0  3  0  0  0  0  0  0
  182.3650  173.3360  137.6320 C   0  0  0  0  0  3  0  0  0  0  0  0
  180.8030  175.0880  137.0590 C   0  0  0  0  0  3  0  0  0  0  0  0
  183.1410  178.7860  141.1900 C   0  0  1  0  0  3  0  0  0  0  0  0
  180.7630  178.9430  141.8860 C   0  0  0  0  0  2  0  0  0  0  0  0
  179.8180  179.2500  139.7310 O   0  0  0  0  0  1  0  0  0  0  0  0
  181.7140  178.3760  140.8530 C   0  0  1  0  0  3  0  0  0  0  0  0
  180.8970  179.6130  140.5350 C   0  0  2  0  0  3  0  0  0  0  0  0
  183.5370  178.2720  142.5700 C   0  0  0  0  0  2  0  0  0  0  0  0
  183.6250  179.4220  143.5550 C   0  0  0  0  0  1  0  0  0  0  0  0
  2 20  2  0  0  0  0
  3  7  1  0  0  0  0
  5  7  2  0  0  0  0
  5 18  1  0  0  0  0
  6  3  1  6  0  0  0
  6 17  1  0  0  0  0
  7 10  1  0  0  0  0
  8  4  1  6  0  0  0
  8  6  1  0  0  0  0
  8 15  1  0  0  0  0
  9  5  1  0  0  0  0
 10 17  1  0  0  0  0
 10 14  2  0  0  0  0
 12 23  1  0  0  0  0
 13 16  1  0  0  0  0
 13  9  1  0  0  0  0
 14 11  1  0  0  0  0
 15  4  1  6  0  0  0
 15 21  1  0  0  0  0
 16 12  1  6  0  0  0
 16  3  1  0  0  0  0
 17 22  1  0  0  0  0
 18  2  1  0  0  0  0
 19 25  1  1  0  0  0
 19  8  1  0  0  0  0
 20 14  1  0  0  0  0
 21 22  1  0  0  0  0
 21 31  1  0  0  0  0
 22  1  2  0  0  0  0
 23 19  1  0  0  0  0
 24 25  2  0  0  0  0
 24 30  1  0  0  0  0
 25 26  1  0  0  0  0
 26 27  1  0  0  0  0
 26 29  2  0  0  0  0
 28 29  1  0  0  0  0
 30 28  2  0  0  0  0
 31 36  1  1  0  0  0
 34 31  1  1  0  0  0
 34 32  1  0  0  0  0
 35 33  1  6  0  0  0
 35 34  1  0  0  0  0
 35 32  1  0  0  0  0
 36 37  1  0  0  0  0
M  END
>  <MODEL>
7

>  <REMARK>
 VINA RESULT:      -4.9      1.545      2.251
  Name = 
  4 active torsions:
  status: ('A' for Active; 'I' for Inactive)
    1  A    between atoms: C_6  and  C_31
    2  A    between atoms: C_11  and  C_26
    3  A    between atoms: C_17  and  C_26
    4  A    between atoms: C_26  and  N_33
                            x       y       z     vdW  Elec       q    Type
                         _______ _______ _______ _____ _____    ______ ____

>  <TORSDO>
F 4

$$$$
=
 OpenBabel11052415153D

 37 44  0  0  1  0  0  0  0  0999 V2000
  188.2950  174.3810  137.3900 O   0  0  0  0  0  0  0  0  0  0  0  0
  184.0620  171.1270  136.0100 C   0  0  0  0  0  3  0  0  0  0  0  0
  183.8960  175.5340  136.4640 N   0  0  0  0  0  0  0  0  0  0  0  0
  186.1600  178.4100  137.1000 C   0  0  0  0  0  2  0  0  0  0  0  0
  183.0460  173.2730  136.6790 C   0  0  0  0  0  0  0  0  0  0  0  0
  185.2180  176.1670  136.4720 C   0  0  1  0  0  3  0  0  0  0  0  0
  184.0690  174.1250  136.5700 C   0  0  0  0  0  0  0  0  0  0  0  0
  185.3600  177.2200  137.5910 C   0  0  1  0  0  0  0  0  0  0  0  0
  181.6460  173.7890  136.6110 C   0  0  0  0  0  2  0  0  0  0  0  0
  185.4940  173.8150  136.5420 C   0  0  0  0  0  0  0  0  0  0  0  0
  187.3940  172.6750  135.6990 O   0  0  0  0  0  1  0  0  0  0  0  0
  181.9740  176.8890  137.1920 C   0  0  0  0  0  2  0  0  0  0  0  0
  181.4970  175.0070  135.2560 S   0  0  0  0  0  0  0  0  0  0  0  0
  186.0420  172.6970  136.0100 C   0  0  0  0  0  0  0  0  0  0  0  0
  186.7470  177.5170  138.1800 C   0  0  1  0  0  3  0  0  0  0  0  0
  182.6610  176.1960  136.0270 C   0  0  2  0  0  3  0  0  0  0  0  0
  186.1790  175.0720  136.6420 N   0  0  0  0  0  0  0  0  0  0  0  0
  183.2700  171.8480  137.0450 C   0  0  0  0  0  2  0  0  0  0  0  0
  184.1480  177.5680  138.4770 C   0  0  2  0  0  3  0  0  0  0  0  0
  185.2760  171.4970  135.6020 C   0  0  0  0  0  3  0  0  0  0  0  0
  187.7950  176.6520  137.6390 N   0  0  0  0  0  0  0  0  0  0  0  0
  187.4710  175.3180  137.2160 C   0  0  0  0  0  0  0  0  0  0  0  0
  182.8170  178.4450  137.5970 S   0  0  0  0  0  0  0  0  0  0  0  0
  185.6910  178.6270  140.1030 C   0  0  0  0  0  3  0  0  0  0  0  0
  184.4230  178.0820  139.8680 C   0  0  0  0  0  0  0  0  0  0  0  0
  183.4700  178.0740  140.9140 C   0  0  0  0  0  0  0  0  0  0  0  0
  182.0970  177.5190  140.7410 C   0  0  0  0  0  1  0  0  0  0  0  0
  185.0790  179.1360  142.3870 C   0  0  0  0  0  3  0  0  0  0  0  0
  183.8100  178.6000  142.1650 C   0  0  0  0  0  3  0  0  0  0  0  0
  186.0190  179.1500  141.3560 C   0  0  0  0  0  3  0  0  0  0  0  0
  189.1780  177.1040  137.8070 C   0  0  1  0  0  3  0  0  0  0  0  0
  191.1560  177.1260  139.3070 C   0  0  0  0  0  2  0  0  0  0  0  0
  190.0050  176.8100  141.3580 O   0  0  0  0  0  1  0  0  0  0  0  0
  189.8280  176.4560  139.0220 C   0  0  1  0  0  3  0  0  0  0  0  0
  189.9400  177.4780  140.1360 C   0  0  2  0  0  3  0  0  0  0  0  0
  190.0010  176.8380  136.5510 C   0  0  0  0  0  2  0  0  0  0  0  0
  189.3680  177.5190  135.3530 C   0  0  0  0  0  1  0  0  0  0  0  0
  2 18  1  0  0  0  0
  3  7  1  0  0  0  0
  5 18  1  0  0  0  0
  6  3  1  1  0  0  0
  6 17  1  0  0  0  0
  6  8  1  0  0  0  0
  7  5  2  0  0  0  0
  8  4  1  6  0  0  0
  8 15  1  0  0  0  0
  8 19  1  0  0  0  0
  9  5  1  0  0  0  0
 10  7  1  0  0  0  0
 10 17  1  0  0  0  0
 11 14  1  0  0  0  0
 12 23  1  0  0  0  0
 13 16  1  0  0  0  0
 13  9  1  0  0  0  0
 14 10  2  0  0  0  0
 15  4  1  6  0  0  0
 16  3  1  0  0  0  0
 16 12  1  1  0  0  0
 17 22  1  0  0  0  0
 19 25  1  1  0  0  0
 20  2  2  0  0  0  0
 20 14  1  0  0  0  0
 21 31  1  0  0  0  0
 21 15  1  0  0  0  0
 22  1  2  0  0  0  0
 22 21  1  0  0  0  0
 23 19  1  0  0  0  0
 24 30  1  0  0  0  0
 25 24  2  0  0  0  0
 25 26  1  0  0  0  0
 26 29  2  0  0  0  0
 27 26  1  0  0  0  0
 29 28  1  0  0  0  0
 30 28  2  0  0  0  0
 31 36  1  6  0  0  0
 32 35  1  0  0  0  0
 34 31  1  6  0  0  0
 34 32  1  0  0  0  0
 34 35  1  0  0  0  0
 35 33  1  1  0  0  0
 37 36  1  0  0  0  0
M  END
>  <MODEL>
8

>  <REMARK>
 VINA RESULT:      -4.5      3.068      7.513
  Name = 
  4 active torsions:
  status: ('A' for Active; 'I' for Inactive)
    1  A    between atoms: C_6  and  C_31
    2  A    between atoms: C_11  and  C_26
    3  A    between atoms: C_17  and  C_26
    4  A    between atoms: C_26  and  N_33
                            x       y       z     vdW  Elec       q    Type
                         _______ _______ _______ _____ _____    ______ ____

>  <TORSDO>
F 4

$$$$
=
 OpenBabel11052415153D

 37 44  0  0  1  0  0  0  0  0999 V2000
  187.4550  177.1120  143.2290 O   0  0  0  0  0  0  0  0  0  0  0  0
  191.0600  176.3010  139.1360 C   0  0  0  0  0  3  0  0  0  0  0  0
  187.0990  178.2530  138.7450 N   0  0  0  0  0  0  0  0  0  0  0  0
  184.2660  179.3780  140.8680 C   0  0  0  0  0  2  0  0  0  0  0  0
  188.9180  176.8190  138.0270 C   0  0  0  0  0  0  0  0  0  0  0  0
  186.5220  178.6590  140.0290 C   0  0  1  0  0  3  0  0  0  0  0  0
  188.2280  177.4240  138.9980 C   0  0  0  0  0  0  0  0  0  0  0  0
  185.0310  178.2830  140.1520 C   0  0  1  0  0  0  0  0  0  0  0  0
  188.5580  177.0710  136.5990 C   0  0  0  0  0  2  0  0  0  0  0  0
  188.4640  177.3650  140.4360 C   0  0  0  0  0  0  0  0  0  0  0  0
  189.8250  177.5810  142.3660 O   0  0  0  0  0  1  0  0  0  0  0  0
  185.6200  178.2470  136.7770 C   0  0  0  0  0  2  0  0  0  0  0  0
  188.2570  178.8540  136.3390 S   0  0  0  0  0  0  0  0  0  0  0  0
  189.6780  177.2520  141.0260 C   0  0  0  0  0  0  0  0  0  0  0  0
  184.4270  178.0230  141.5390 C   0  0  1  0  0  3  0  0  0  0  0  0
  186.8090  178.9030  137.4610 C   0  0  2  0  0  3  0  0  0  0  0  0
  187.3300  177.9890  141.0540 N   0  0  0  0  0  0  0  0  0  0  0  0
  189.9210  175.7640  138.3420 C   0  0  0  0  0  2  0  0  0  0  0  0
  184.2990  177.6500  138.9530 C   0  0  2  0  0  3  0  0  0  0  0  0
  190.9310  176.9140  140.3140 C   0  0  0  0  0  3  0  0  0  0  0  0
  185.4170  178.0820  142.6140 N   0  0  0  0  0  0  0  0  0  0  0  0
  186.7790  177.7100  142.3490 C   0  0  0  0  0  0  0  0  0  0  0  0
  184.0650  178.7820  137.5470 S   0  0  0  0  0  0  0  0  0  0  0  0
  182.1060  177.3010  140.0570 C   0  0  0  0  0  3  0  0  0  0  0  0
  183.1130  176.7640  139.2470 C   0  0  0  0  0  0  0  0  0  0  0  0
  182.9560  175.4580  138.7240 C   0  0  0  0  0  0  0  0  0  0  0  0
  183.9790  174.8200  137.8470 C   0  0  0  0  0  1  0  0  0  0  0  0
  180.8120  175.2690  139.8440 C   0  0  0  0  0  3  0  0  0  0  0  0
  181.8070  174.7230  139.0300 C   0  0  0  0  0  3  0  0  0  0  0  0
  180.9620  176.5580  140.3570 C   0  0  0  0  0  3  0  0  0  0  0  0
  184.9060  178.2600  143.9760 C   0  0  1  0  0  3  0  0  0  0  0  0
  185.4320  179.0030  146.2860 C   0  0  0  0  0  2  0  0  0  0  0  0
  187.3370  177.6310  146.6370 O   0  0  0  0  0  1  0  0  0  0  0  0
  186.0230  178.6370  144.9400 C   0  0  1  0  0  3  0  0  0  0  0  0
  186.0580  177.6400  146.0820 C   0  0  2  0  0  3  0  0  0  0  0  0
  183.7900  179.2980  144.0140 C   0  0  0  0  0  2  0  0  0  0  0  0
  182.4620  178.6320  144.3200 C   0  0  0  0  0  1  0  0  0  0  0  0
  2 20  2  0  0  0  0
  3  7  1  0  0  0  0
  5 18  1  0  0  0  0
  5  7  2  0  0  0  0
  6  3  1  6  0  0  0
  6  8  1  0  0  0  0
  6 17  1  0  0  0  0
  7 10  1  0  0  0  0
  8  4  1  6  0  0  0
  8 15  1  0  0  0  0
  9  5  1  0  0  0  0
 10 14  2  0  0  0  0
 10 17  1  0  0  0  0
 12 23  1  0  0  0  0
 13  9  1  0  0  0  0
 13 16  1  0  0  0  0
 14 11  1  0  0  0  0
 15  4  1  1  0  0  0
 15 21  1  0  0  0  0
 16 12  1  6  0  0  0
 16  3  1  0  0  0  0
 17 22  1  0  0  0  0
 18  2  1  0  0  0  0
 19 25  1  1  0  0  0
 19  8  1  0  0  0  0
 20 14  1  0  0  0  0
 21 31  1  0  0  0  0
 22 21  1  0  0  0  0
 22  1  2  0  0  0  0
 23 19  1  0  0  0  0
 24 30  1  0  0  0  0
 25 24  2  0  0  0  0
 26 29  2  0  0  0  0
 26 25  1  0  0  0  0
 27 26  1  0  0  0  0
 28 30  2  0  0  0  0
 29 28  1  0  0  0  0
 31 36  1  6  0  0  0
 34 31  1  6  0  0  0
 34 35  1  0  0  0  0
 34 32  1  0  0  0  0
 35 32  1  0  0  0  0
 35 33  1  1  0  0  0
 36 37  1  0  0  0  0
M  END
>  <MODEL>
9

>  <REMARK>
 VINA RESULT:      -4.5      2.544      4.375
  Name = 
  4 active torsions:
  status: ('A' for Active; 'I' for Inactive)
    1  A    between atoms: C_6  and  C_31
    2  A    between atoms: C_11  and  C_26
    3  A    between atoms: C_17  and  C_26
    4  A    between atoms: C_26  and  N_33
                            x       y       z     vdW  Elec       q    Type
                         _______ _______ _______ _____ _____    ______ ____

>  <TORSDO>
F 4

$$$$
