=
 OpenBabel11052415303D

 37 41  0  0  1  0  0  0  0  0999 V2000
  181.4880  179.3520  136.5740 S   0  0  0  0  0  0  0  0  0  0  0  0
  185.3530  178.4530  139.0870 C   0  0  2  0  0  3  0  0  0  0  0  0
  179.9490  180.0240  137.2290 C   0  0  2  0  0  3  0  0  0  0  0  0
  182.1960  177.9360  141.4430 C   0  0  0  0  0  2  0  0  0  0  0  0
  183.9230  178.5430  139.6460 C   0  0  2  0  0  3  0  0  0  0  0  0
  185.2860  177.5570  137.8670 C   0  0  1  0  0  3  0  0  0  0  0  0
  183.6720  177.8590  141.0220 C   0  0  1  0  0  3  0  0  0  0  0  0
  179.4330  179.1400  138.1890 O   0  0  0  0  0  0  0  0  0  0  0  0
  183.8640  177.6670  137.3610 C   0  0  2  0  0  3  0  0  0  0  0  0
  186.6670  179.0280  140.8210 C   0  0  0  0  0  2  0  0  0  0  0  0
  180.4990  178.6610  138.9850 C   0  0  2  0  0  0  0  0  0  0  0  0
  181.6330  179.3370  141.2480 C   0  0  0  0  0  2  0  0  0  0  0  0
  186.2730  177.9460  140.0160 O   0  0  0  0  0  0  0  0  0  0  0  0
  182.9940  177.9990  138.5680 C   0  0  2  0  0  3  0  0  0  0  0  0
  184.6780  178.2300  142.1580 C   0  0  1  0  0  3  0  0  0  0  0  0
  180.3750  179.3250  140.3760 C   0  0  0  0  0  2  0  0  0  0  0  0
  181.8460  179.0060  138.3040 C   0  0  1  0  0  3  0  0  0  0  0  0
  185.5810  179.4170  141.8350 C   0  0  0  0  0  2  0  0  0  0  0  0
  180.3240  177.1360  139.1090 C   0  0  0  0  0  2  0  0  0  0  0  0
  179.0620  176.7470  139.8660 C   0  0  0  0  0  1  0  0  0  0  0  0
  179.3860  181.3030  135.1670 C   0  0  0  0  0  1  0  0  0  0  0  0
  178.9360  180.2060  136.1140 C   0  0  0  0  0  2  0  0  0  0  0  0
  183.4270  176.3820  136.7400 C   0  0  0  0  0  0  0  0  0  0  0  0
  183.4140  176.2760  135.4840 O   0  0  0  0  0  0  0  0  0  0  0  0
  183.0420  175.3100  137.5500 O   0  0  0  0  0  0  0  0  0  0  0  0
  183.3790  173.9640  137.2420 C   0  0  0  0  0  2  0  0  0  0  0  0
  184.5950  173.6320  137.8400 O   0  0  0  0  0  1  0  0  0  0  0  0
  184.0780  178.3900  143.5520 C   0  0  0  0  0  2  0  0  0  0  0  0
  186.1470  177.7490  144.7500 C   0  0  0  0  0  2  0  0  0  0  0  0
  184.5400  179.1600  145.7830 O   0  0  0  0  0  0  0  0  0  0  0  0
  185.7530  179.5930  147.6800 O   0  0  0  0  0  1  0  0  0  0  0  0
  186.5640  177.9520  146.1660 C   0  0  0  0  0  2  0  0  0  0  0  0
  185.3510  178.5990  146.7880 C   0  0  2  0  0  3  0  0  0  0  0  0
  185.1340  178.8450  144.5470 C   0  0  2  0  0  3  0  0  0  0  0  0
  186.2550  178.0310  136.7960 C   0  0  0  0  0  2  0  0  0  0  0  0
  187.3820  177.0320  136.6220 C   0  0  0  0  0  2  0  0  0  0  0  0
  187.0060  175.8050  137.1670 O   0  0  0  0  0  1  0  0  0  0  0  0
  1  3  1  0  0  0  0
  1 17  1  0  0  0  0
  2  5  1  0  0  0  0
  2 13  1  1  0  0  0
  3 22  1  6  0  0  0
  3  8  1  0  0  0  0
  5  7  1  0  0  0  0
  6  2  1  0  0  0  0
  7  4  1  0  0  0  0
  7 15  1  0  0  0  0
  8 11  1  0  0  0  0
  9  6  1  0  0  0  0
  9 14  1  0  0  0  0
 10 18  1  0  0  0  0
 11 19  1  0  0  0  0
 11 16  1  0  0  0  0
 12  4  1  0  0  0  0
 13 10  1  0  0  0  0
 14  5  1  0  0  0  0
 15 28  1  0  0  0  0
 16 12  1  0  0  0  0
 17 14  1  0  0  0  0
 17 11  1  0  0  0  0
 18 15  1  0  0  0  0
 19 20  1  0  0  0  0
 21 22  1  0  0  0  0
 23  9  1  0  0  0  0
 23 25  1  0  0  0  0
 24 23  2  0  0  0  0
 26 25  1  0  0  0  0
 26 27  1  0  0  0  0
 28 34  1  0  0  0  0
 29 32  1  0  0  0  0
 30 33  1  0  0  0  0
 32 33  1  0  0  0  0
 33 31  1  0  0  0  0
 34 29  1  0  0  0  0
 34 30  1  0  0  0  0
 35  6  1  0  0  0  0
 36 35  1  0  0  0  0
 36 37  1  0  0  0  0
M  END
>  <MODEL>
1

>  <REMARK>
 VINA RESULT:      -5.8      0.000      0.000
  Name = 
  9 active torsions:
  status: ('A' for Active; 'I' for Inactive)
    1  A    between atoms: C_3  and  O_32
    2  A    between atoms: C_5  and  C_23
    3  A    between atoms: C_6  and  C_31
    4  A    between atoms: C_6  and  C_35
    5  A    between atoms: C_9  and  C_13
    6  A    between atoms: C_9  and  C_16
    7  A    between atoms: C_11  and  C_26
    8  A    between atoms: C_20  and  C_21
    9  A    between atoms: C_21  and  O_32
                            x       y       z     vdW  Elec       q    Type
                         _______ _______ _______ _____ _____    ______ ____

>  <TORSDO>
F 9

$$$$
=
 OpenBabel11052415303D

 37 41  0  0  1  0  0  0  0  0999 V2000
  179.7120  177.1450  139.5450 S   0  0  0  0  0  0  0  0  0  0  0  0
  182.7080  178.6930  142.8140 C   0  0  2  0  0  3  0  0  0  0  0  0
  180.1740  176.2950  138.0240 C   0  0  2  0  0  3  0  0  0  0  0  0
  184.5240  178.8720  139.2850 C   0  0  0  0  0  2  0  0  0  0  0  0
  183.0510  178.4300  141.3380 C   0  0  2  0  0  3  0  0  0  0  0  0
  181.4340  179.5130  142.8230 C   0  0  1  0  0  3  0  0  0  0  0  0
  184.3250  179.1350  140.7860 C   0  0  1  0  0  3  0  0  0  0  0  0
  180.9840  177.1410  137.2520 O   0  0  0  0  0  0  0  0  0  0  0  0
  180.7300  179.1810  141.5250 C   0  0  2  0  0  3  0  0  0  0  0  0
  184.6540  178.3900  143.9020 C   0  0  0  0  0  2  0  0  0  0  0  0
  181.8950  177.8020  138.1060 C   0  0  2  0  0  0  0  0  0  0  0  0
  184.3430  177.3980  138.9490 C   0  0  0  0  0  2  0  0  0  0  0  0
  183.7270  179.3670  143.5020 O   0  0  0  0  0  0  0  0  0  0  0  0
  181.8120  178.7870  140.5270 C   0  0  2  0  0  3  0  0  0  0  0  0
  185.6210  178.9620  141.6410 C   0  0  1  0  0  3  0  0  0  0  0  0
  183.2940  177.1930  137.8540 C   0  0  0  0  0  2  0  0  0  0  0  0
  181.4490  177.6180  139.5780 C   0  0  1  0  0  3  0  0  0  0  0  0
  185.5180  177.9010  142.7320 C   0  0  0  0  0  2  0  0  0  0  0  0
  181.8880  179.2920  137.7150 C   0  0  0  0  0  2  0  0  0  0  0  0
  181.0540  179.5710  136.4740 C   0  0  0  0  0  1  0  0  0  0  0  0
  179.0970  176.3180  135.7770 C   0  0  0  0  0  1  0  0  0  0  0  0
  178.9340  175.9200  137.2320 C   0  0  0  0  0  2  0  0  0  0  0  0
  179.9640  180.3610  141.0260 C   0  0  0  0  0  0  0  0  0  0  0  0
  179.5350  181.2120  141.8510 O   0  0  0  0  0  0  0  0  0  0  0  0
  179.7340  180.5170  139.6560 O   0  0  0  0  0  0  0  0  0  0  0  0
  179.4350  181.7780  139.0720 C   0  0  0  0  0  2  0  0  0  0  0  0
  180.6000  182.3540  138.5670 O   0  0  0  0  0  1  0  0  0  0  0  0
  186.9180  178.7860  140.8540 C   0  0  0  0  0  2  0  0  0  0  0  0
  188.7230  178.7130  142.5470 C   0  0  0  0  0  2  0  0  0  0  0  0
  188.7330  177.2160  140.7030 O   0  0  0  0  0  0  0  0  0  0  0  0
  190.5570  175.9950  141.3680 O   0  0  0  0  0  1  0  0  0  0  0  0
  190.0120  177.9680  142.5740 C   0  0  0  0  0  2  0  0  0  0  0  0
  190.0370  177.2830  141.2300 C   0  0  2  0  0  3  0  0  0  0  0  0
  187.8870  177.8860  141.6060 C   0  0  2  0  0  3  0  0  0  0  0  0
  180.5540  179.1300  144.0020 C   0  0  0  0  0  2  0  0  0  0  0  0
  179.6220  177.9960  143.6210 C   0  0  0  0  0  2  0  0  0  0  0  0
  179.7250  176.9730  144.5620 O   0  0  0  0  0  1  0  0  0  0  0  0
  1 17  1  0  0  0  0
  2  6  1  0  0  0  0
  2 13  1  6  0  0  0
  3 22  1  6  0  0  0
  3  1  1  0  0  0  0
  4  7  1  0  0  0  0
  5  2  1  0  0  0  0
  6 35  1  0  0  0  0
  7  5  1  0  0  0  0
  7 15  1  0  0  0  0
  8  3  1  0  0  0  0
  8 11  1  0  0  0  0
  9  6  1  0  0  0  0
 11 17  1  0  0  0  0
 12  4  1  0  0  0  0
 13 10  1  0  0  0  0
 14  5  1  0  0  0  0
 14  9  1  0  0  0  0
 15 18  1  0  0  0  0
 16 11  1  0  0  0  0
 16 12  1  0  0  0  0
 17 14  1  0  0  0  0
 18 10  1  0  0  0  0
 19 11  1  0  0  0  0
 20 19  1  0  0  0  0
 21 22  1  0  0  0  0
 23  9  1  0  0  0  0
 23 24  2  0  0  0  0
 25 23  1  0  0  0  0
 26 25  1  0  0  0  0
 27 26  1  0  0  0  0
 28 34  1  0  0  0  0
 28 15  1  0  0  0  0
 29 32  1  0  0  0  0
 30 33  1  0  0  0  0
 30 34  1  0  0  0  0
 33 31  1  0  0  0  0
 33 32  1  0  0  0  0
 34 29  1  0  0  0  0
 36 35  1  0  0  0  0
 36 37  1  0  0  0  0
M  END
>  <MODEL>
2

>  <REMARK>
 VINA RESULT:      -5.5      2.525      5.714
  Name = 
  9 active torsions:
  status: ('A' for Active; 'I' for Inactive)
    1  A    between atoms: C_3  and  O_32
    2  A    between atoms: C_5  and  C_23
    3  A    between atoms: C_6  and  C_31
    4  A    between atoms: C_6  and  C_35
    5  A    between atoms: C_9  and  C_13
    6  A    between atoms: C_9  and  C_16
    7  A    between atoms: C_11  and  C_26
    8  A    between atoms: C_20  and  C_21
    9  A    between atoms: C_21  and  O_32
                            x       y       z     vdW  Elec       q    Type
                         _______ _______ _______ _____ _____    ______ ____

>  <TORSDO>
F 9

$$$$
=
 OpenBabel11052415303D

 37 41  0  0  1  0  0  0  0  0999 V2000
  180.5330  175.6820  140.0960 S   0  0  0  0  0  0  0  0  0  0  0  0
  184.1570  178.3940  141.3500 C   0  0  2  0  0  3  0  0  0  0  0  0
  180.5330  174.5040  138.7300 C   0  0  2  0  0  3  0  0  0  0  0  0
  184.3550  177.7990  137.4270 C   0  0  0  0  0  2  0  0  0  0  0  0
  183.9410  177.7760  139.9580 C   0  0  2  0  0  3  0  0  0  0  0  0
  182.8440  179.0370  141.7470 C   0  0  1  0  0  3  0  0  0  0  0  0
  184.7090  178.4410  138.7780 C   0  0  1  0  0  3  0  0  0  0  0  0
  180.7700  175.1910  137.5300 O   0  0  0  0  0  0  0  0  0  0  0  0
  181.7770  178.2840  140.9810 C   0  0  2  0  0  3  0  0  0  0  0  0
  186.3900  178.6210  141.5200 C   0  0  0  0  0  2  0  0  0  0  0  0
  181.7760  176.1600  137.7510 C   0  0  2  0  0  0  0  0  0  0  0  0
  184.3820  176.2790  137.5070 C   0  0  0  0  0  2  0  0  0  0  0  0
  185.1910  179.3410  141.3750 O   0  0  0  0  0  0  0  0  0  0  0  0
  182.4380  177.7550  139.7130 C   0  0  2  0  0  3  0  0  0  0  0  0
  186.2410  178.6560  138.9990 C   0  0  1  0  0  3  0  0  0  0  0  0
  183.0590  175.6650  137.0440 C   0  0  0  0  0  2  0  0  0  0  0  0
  181.9950  176.3380  139.2740 C   0  0  1  0  0  3  0  0  0  0  0  0
  186.8080  177.9300  140.2150 C   0  0  0  0  0  2  0  0  0  0  0  0
  181.2920  177.4740  137.1110 C   0  0  0  0  0  2  0  0  0  0  0  0
  179.8010  177.4670  136.8050 C   0  0  0  0  0  1  0  0  0  0  0  0
  179.2240  172.7410  137.5550 C   0  0  0  0  0  1  0  0  0  0  0  0
  179.1960  173.7900  138.6500 C   0  0  0  0  0  2  0  0  0  0  0  0
  180.6390  179.1890  140.6380 C   0  0  0  0  0  0  0  0  0  0  0  0
  180.7590  179.9940  139.6770 O   0  0  0  0  0  0  0  0  0  0  0  0
  179.4550  179.1320  141.3790 O   0  0  0  0  0  0  0  0  0  0  0  0
  178.9320  180.2620  142.0650 C   0  0  0  0  0  2  0  0  0  0  0  0
  179.9640  180.9390  142.7160 O   0  0  0  0  0  1  0  0  0  0  0  0
  187.1280  178.4160  137.7810 C   0  0  0  0  0  2  0  0  0  0  0  0
  189.5730  178.0560  137.6330 C   0  0  0  0  0  2  0  0  0  0  0  0
  188.0720  176.2200  137.5200 O   0  0  0  0  0  0  0  0  0  0  0  0
  189.6710  174.5760  137.4870 O   0  0  0  0  0  1  0  0  0  0  0  0
  190.3670  176.8400  137.3030 C   0  0  0  0  0  2  0  0  0  0  0  0
  189.3060  175.8200  136.9720 C   0  0  2  0  0  3  0  0  0  0  0  0
  188.2730  177.4750  138.1230 C   0  0  2  0  0  3  0  0  0  0  0  0
  182.6040  178.8960  143.2410 C   0  0  0  0  0  2  0  0  0  0  0  0
  183.6970  179.6000  144.0220 C   0  0  0  0  0  2  0  0  0  0  0  0
  183.6820  179.1610  145.3440 O   0  0  0  0  0  1  0  0  0  0  0  0
  2 13  1  6  0  0  0
  2  6  1  0  0  0  0
  3 22  1  6  0  0  0
  3  1  1  0  0  0  0
  4 12  1  0  0  0  0
  4  7  1  0  0  0  0
  5  2  1  0  0  0  0
  6 35  1  0  0  0  0
  7 15  1  0  0  0  0
  7  5  1  0  0  0  0
  8 11  1  0  0  0  0
  8  3  1  0  0  0  0
  9  6  1  0  0  0  0
 11 17  1  0  0  0  0
 13 10  1  0  0  0  0
 14  5  1  0  0  0  0
 14  9  1  0  0  0  0
 15 18  1  0  0  0  0
 16 12  1  0  0  0  0
 16 11  1  0  0  0  0
 17 14  1  0  0  0  0
 17  1  1  0  0  0  0
 18 10  1  0  0  0  0
 19 11  1  0  0  0  0
 20 19  1  0  0  0  0
 21 22  1  0  0  0  0
 23  9  1  0  0  0  0
 23 25  1  0  0  0  0
 24 23  2  0  0  0  0
 25 26  1  0  0  0  0
 26 27  1  0  0  0  0
 28 34  1  0  0  0  0
 28 15  1  0  0  0  0
 29 34  1  0  0  0  0
 30 34  1  0  0  0  0
 32 29  1  0  0  0  0
 33 32  1  0  0  0  0
 33 31  1  0  0  0  0
 33 30  1  0  0  0  0
 35 36  1  0  0  0  0
 36 37  1  0  0  0  0
M  END
>  <MODEL>
3

>  <REMARK>
 VINA RESULT:      -5.3      2.300      6.410
  Name = 
  9 active torsions:
  status: ('A' for Active; 'I' for Inactive)
    1  A    between atoms: C_3  and  O_32
    2  A    between atoms: C_5  and  C_23
    3  A    between atoms: C_6  and  C_31
    4  A    between atoms: C_6  and  C_35
    5  A    between atoms: C_9  and  C_13
    6  A    between atoms: C_9  and  C_16
    7  A    between atoms: C_11  and  C_26
    8  A    between atoms: C_20  and  C_21
    9  A    between atoms: C_21  and  O_32
                            x       y       z     vdW  Elec       q    Type
                         _______ _______ _______ _____ _____    ______ ____

>  <TORSDO>
F 9

$$$$
=
 OpenBabel11052415303D

 37 41  0  0  1  0  0  0  0  0999 V2000
  181.5190  179.7800  137.9640 S   0  0  0  0  0  0  0  0  0  0  0  0
  185.7320  178.7230  139.7510 C   0  0  2  0  0  3  0  0  0  0  0  0
  180.1120  180.4030  138.9040 C   0  0  2  0  0  3  0  0  0  0  0  0
  182.9940  178.0430  142.5480 C   0  0  0  0  0  2  0  0  0  0  0  0
  184.4120  178.7720  140.5390 C   0  0  2  0  0  3  0  0  0  0  0  0
  185.4600  177.9100  138.5010 C   0  0  1  0  0  3  0  0  0  0  0  0
  184.3810  177.9970  141.8890 C   0  0  1  0  0  3  0  0  0  0  0  0
  179.7510  179.4570  139.8740 O   0  0  0  0  0  0  0  0  0  0  0  0
  183.9750  178.0520  138.2410 C   0  0  2  0  0  3  0  0  0  0  0  0
  187.3140  179.1830  141.2830 C   0  0  0  0  0  2  0  0  0  0  0  0
  180.9270  178.9270  140.4520 C   0  0  2  0  0  0  0  0  0  0  0  0
  182.4190  179.4520  142.5410 C   0  0  0  0  0  2  0  0  0  0  0  0
  186.7860  178.1560  140.4820 O   0  0  0  0  0  0  0  0  0  0  0  0
  183.3150  178.3000  139.5930 C   0  0  2  0  0  3  0  0  0  0  0  0
  185.5620  178.2930  142.8690 C   0  0  1  0  0  3  0  0  0  0  0  0
  181.0360  179.4960  141.8860 C   0  0  0  0  0  2  0  0  0  0  0  0
  182.1490  179.3200  139.5860 C   0  0  1  0  0  3  0  0  0  0  0  0
  186.4110  179.5000  142.4830 C   0  0  0  0  0  2  0  0  0  0  0  0
  180.7610  177.3970  140.5020 C   0  0  0  0  0  2  0  0  0  0  0  0
  179.3240  176.9520  140.2730 C   0  0  0  0  0  1  0  0  0  0  0  0
  179.3970  180.7230  136.5390 C   0  0  0  0  0  1  0  0  0  0  0  0
  178.9330  180.6580  137.9820 C   0  0  0  0  0  2  0  0  0  0  0  0
  183.4320  176.8100  137.6150 C   0  0  0  0  0  0  0  0  0  0  0  0
  183.2560  175.7850  138.3260 O   0  0  0  0  0  0  0  0  0  0  0  0
  183.1180  176.7950  136.2530 O   0  0  0  0  0  0  0  0  0  0  0  0
  183.9720  176.2050  135.2810 C   0  0  0  0  0  2  0  0  0  0  0  0
  183.7720  174.8250  135.2510 O   0  0  0  0  0  1  0  0  0  0  0  0
  185.1960  178.3570  144.3500 C   0  0  0  0  0  2  0  0  0  0  0  0
  186.2960  178.1630  146.5590 C   0  0  0  0  0  2  0  0  0  0  0  0
  187.4530  177.5570  144.5760 O   0  0  0  0  0  0  0  0  0  0  0  0
  189.3360  176.7520  145.6060 O   0  0  0  0  0  1  0  0  0  0  0  0
  187.7080  177.8680  146.9290 C   0  0  0  0  0  2  0  0  0  0  0  0
  188.4010  177.7870  145.5910 C   0  0  2  0  0  3  0  0  0  0  0  0
  186.1840  177.5580  145.1850 C   0  0  2  0  0  3  0  0  0  0  0  0
  186.2460  178.4570  137.3210 C   0  0  0  0  0  2  0  0  0  0  0  0
  187.7090  178.0770  137.4370 C   0  0  0  0  0  2  0  0  0  0  0  0
  188.4840  179.2310  137.5390 O   0  0  0  0  0  1  0  0  0  0  0  0
  1  3  1  0  0  0  0
  1 17  1  0  0  0  0
  2 13  1  1  0  0  0
  2  5  1  0  0  0  0
  3 22  1  6  0  0  0
  3  8  1  0  0  0  0
  5  7  1  0  0  0  0
  6  2  1  0  0  0  0
  7  4  1  0  0  0  0
  7 15  1  0  0  0  0
  8 11  1  0  0  0  0
  9  6  1  0  0  0  0
  9 14  1  0  0  0  0
 10 18  1  0  0  0  0
 11 19  1  0  0  0  0
 11 16  1  0  0  0  0
 12  4  1  0  0  0  0
 13 10  1  0  0  0  0
 14  5  1  0  0  0  0
 15 28  1  0  0  0  0
 16 12  1  0  0  0  0
 17 14  1  0  0  0  0
 17 11  1  0  0  0  0
 18 15  1  0  0  0  0
 20 19  1  0  0  0  0
 21 22  1  0  0  0  0
 23  9  1  0  0  0  0
 23 24  2  0  0  0  0
 25 23  1  0  0  0  0
 26 25  1  0  0  0  0
 27 26  1  0  0  0  0
 28 34  1  0  0  0  0
 29 32  1  0  0  0  0
 30 34  1  0  0  0  0
 30 33  1  0  0  0  0
 33 31  1  0  0  0  0
 33 32  1  0  0  0  0
 34 29  1  0  0  0  0
 35 36  1  0  0  0  0
 35  6  1  0  0  0  0
 36 37  1  0  0  0  0
M  END
>  <MODEL>
4

>  <REMARK>
 VINA RESULT:      -5.2      1.599      1.974
  Name = 
  9 active torsions:
  status: ('A' for Active; 'I' for Inactive)
    1  A    between atoms: C_3  and  O_32
    2  A    between atoms: C_5  and  C_23
    3  A    between atoms: C_6  and  C_31
    4  A    between atoms: C_6  and  C_35
    5  A    between atoms: C_9  and  C_13
    6  A    between atoms: C_9  and  C_16
    7  A    between atoms: C_11  and  C_26
    8  A    between atoms: C_20  and  C_21
    9  A    between atoms: C_21  and  O_32
                            x       y       z     vdW  Elec       q    Type
                         _______ _______ _______ _____ _____    ______ ____

>  <TORSDO>
F 9

$$$$
=
 OpenBabel11052415303D

 37 41  0  0  1  0  0  0  0  0999 V2000
  184.0620  176.7790  137.3050 S   0  0  0  0  0  0  0  0  0  0  0  0
  184.7480  178.1950  141.7300 C   0  0  2  0  0  3  0  0  0  0  0  0
  185.2920  175.9680  136.2650 C   0  0  2  0  0  3  0  0  0  0  0  0
  188.2090  178.4520  139.7970 C   0  0  0  0  0  2  0  0  0  0  0  0
  185.8510  177.9690  140.6810 C   0  0  2  0  0  3  0  0  0  0  0  0
  183.6760  179.0290  141.0600 C   0  0  1  0  0  3  0  0  0  0  0  0
  187.2130  178.6750  140.9460 C   0  0  1  0  0  3  0  0  0  0  0  0
  186.3890  176.8260  136.0950 O   0  0  0  0  0  0  0  0  0  0  0  0
  183.8070  178.7440  139.5800 C   0  0  2  0  0  3  0  0  0  0  0  0
  185.7720  177.8350  143.7020 C   0  0  0  0  0  2  0  0  0  0  0  0
  186.6740  177.4510  137.3300 C   0  0  2  0  0  0  0  0  0  0  0  0
  188.2520  176.9920  139.3710 C   0  0  0  0  0  2  0  0  0  0  0  0
  185.2150  178.8350  142.8870 O   0  0  0  0  0  0  0  0  0  0  0  0
  185.2630  178.3650  139.3330 C   0  0  2  0  0  3  0  0  0  0  0  0
  187.8240  178.4610  142.3680 C   0  0  1  0  0  3  0  0  0  0  0  0
  187.9830  176.8310  137.8730 C   0  0  0  0  0  2  0  0  0  0  0  0
  185.4900  177.2290  138.3050 C   0  0  1  0  0  3  0  0  0  0  0  0
  187.1410  177.3690  143.1870 C   0  0  0  0  0  2  0  0  0  0  0  0
  186.8750  178.9500  137.0470 C   0  0  0  0  0  2  0  0  0  0  0  0
  188.2630  179.2670  136.5090 C   0  0  0  0  0  1  0  0  0  0  0  0
  183.2240  175.9910  134.8770 C   0  0  0  0  0  1  0  0  0  0  0  0
  184.6970  175.6320  134.9100 C   0  0  0  0  0  2  0  0  0  0  0  0
  183.4370  179.9480  138.7780 C   0  0  0  0  0  0  0  0  0  0  0  0
  184.2410  180.9160  138.7110 O   0  0  0  0  0  0  0  0  0  0  0  0
  182.2110  179.9910  138.1070 O   0  0  0  0  0  0  0  0  0  0  0  0
  181.1660  180.8760  138.4880 C   0  0  0  0  0  2  0  0  0  0  0  0
  181.2080  182.0240  137.6970 O   0  0  0  0  0  1  0  0  0  0  0  0
  189.3400  178.2910  142.4220 C   0  0  0  0  0  2  0  0  0  0  0  0
  190.2180  177.9930  144.7180 C   0  0  0  0  0  2  0  0  0  0  0  0
  190.7530  176.4350  143.0080 O   0  0  0  0  0  0  0  0  0  0  0  0
  191.8870  174.9580  144.3450 O   0  0  0  0  0  1  0  0  0  0  0  0
  191.2270  177.0460  145.2660 C   0  0  0  0  0  2  0  0  0  0  0  0
  191.7020  176.3060  144.0400 C   0  0  2  0  0  3  0  0  0  0  0  0
  189.7320  177.2770  143.4860 C   0  0  2  0  0  3  0  0  0  0  0  0
  182.2950  178.6230  141.5460 C   0  0  0  0  0  2  0  0  0  0  0  0
  181.6940  177.5820  140.6220 C   0  0  0  0  0  2  0  0  0  0  0  0
  180.3790  177.9310  140.3190 O   0  0  0  0  0  1  0  0  0  0  0  0
  1 17  1  0  0  0  0
  2 13  1  1  0  0  0
  3 22  1  6  0  0  0
  3  1  1  0  0  0  0
  4  7  1  0  0  0  0
  5  7  1  0  0  0  0
  5  2  1  0  0  0  0
  6 35  1  0  0  0  0
  6  2  1  0  0  0  0
  7 15  1  0  0  0  0
  8  3  1  0  0  0  0
  8 11  1  0  0  0  0
  9  6  1  0  0  0  0
 11 16  1  0  0  0  0
 11 17  1  0  0  0  0
 12  4  1  0  0  0  0
 13 10  1  0  0  0  0
 14  9  1  0  0  0  0
 14  5  1  0  0  0  0
 15 28  1  0  0  0  0
 15 18  1  0  0  0  0
 16 12  1  0  0  0  0
 17 14  1  0  0  0  0
 18 10  1  0  0  0  0
 19 11  1  0  0  0  0
 20 19  1  0  0  0  0
 21 22  1  0  0  0  0
 23  9  1  0  0  0  0
 24 23  2  0  0  0  0
 25 26  1  0  0  0  0
 25 23  1  0  0  0  0
 27 26  1  0  0  0  0
 28 34  1  0  0  0  0
 29 32  1  0  0  0  0
 30 34  1  0  0  0  0
 30 33  1  0  0  0  0
 33 31  1  0  0  0  0
 33 32  1  0  0  0  0
 34 29  1  0  0  0  0
 36 35  1  0  0  0  0
 37 36  1  0  0  0  0
M  END
>  <MODEL>
5

>  <REMARK>
 VINA RESULT:      -5.2      2.899      5.944
  Name = 
  9 active torsions:
  status: ('A' for Active; 'I' for Inactive)
    1  A    between atoms: C_3  and  O_32
    2  A    between atoms: C_5  and  C_23
    3  A    between atoms: C_6  and  C_31
    4  A    between atoms: C_6  and  C_35
    5  A    between atoms: C_9  and  C_13
    6  A    between atoms: C_9  and  C_16
    7  A    between atoms: C_11  and  C_26
    8  A    between atoms: C_20  and  C_21
    9  A    between atoms: C_21  and  O_32
                            x       y       z     vdW  Elec       q    Type
                         _______ _______ _______ _____ _____    ______ ____

>  <TORSDO>
F 9

$$$$
=
 OpenBabel11052415303D

 37 41  0  0  1  0  0  0  0  0999 V2000
  182.2120  176.1790  139.0480 S   0  0  0  0  0  0  0  0  0  0  0  0
  186.0030  178.4570  140.6300 C   0  0  2  0  0  3  0  0  0  0  0  0
  182.2140  174.9140  137.7640 C   0  0  2  0  0  3  0  0  0  0  0  0
  186.6080  177.5490  136.8090 C   0  0  0  0  0  2  0  0  0  0  0  0
  185.8780  177.7710  139.2580 C   0  0  2  0  0  3  0  0  0  0  0  0
  184.7580  179.3010  140.8080 C   0  0  1  0  0  3  0  0  0  0  0  0
  186.8770  178.2350  138.1580 C   0  0  1  0  0  3  0  0  0  0  0  0
  182.6970  175.4700  136.5700 O   0  0  0  0  0  0  0  0  0  0  0  0
  183.6990  178.6460  139.9470 C   0  0  2  0  0  3  0  0  0  0  0  0
  188.2060  178.3890  141.0880 C   0  0  0  0  0  2  0  0  0  0  0  0
  183.7980  176.3060  136.8710 C   0  0  2  0  0  0  0  0  0  0  0  0
  186.4030  176.0500  136.9780 C   0  0  0  0  0  2  0  0  0  0  0  0
  187.1520  179.2530  140.7410 O   0  0  0  0  0  0  0  0  0  0  0  0
  184.4310  177.9380  138.8130 C   0  0  2  0  0  3  0  0  0  0  0  0
  188.3840  178.2540  138.5730 C   0  0  1  0  0  3  0  0  0  0  0  0
  185.0740  175.5890  136.3740 C   0  0  0  0  0  2  0  0  0  0  0  0
  183.8460  176.5660  138.3970 C   0  0  1  0  0  3  0  0  0  0  0  0
  188.6810  177.5510  139.8930 C   0  0  0  0  0  2  0  0  0  0  0  0
  183.5950  177.6220  136.0990 C   0  0  0  0  0  2  0  0  0  0  0  0
  182.1400  177.8690  135.7250 C   0  0  0  0  0  1  0  0  0  0  0  0
  180.4250  174.5030  136.0800 C   0  0  0  0  0  1  0  0  0  0  0  0
  180.8080  174.3850  137.5430 C   0  0  0  0  0  2  0  0  0  0  0  0
  182.7570  179.6690  139.4030 C   0  0  0  0  0  0  0  0  0  0  0  0
  183.2120  180.6250  138.7190 O   0  0  0  0  0  0  0  0  0  0  0  0
  181.3860  179.5580  139.6510 O   0  0  0  0  0  0  0  0  0  0  0  0
  180.8650  179.3010  140.9480 C   0  0  0  0  0  2  0  0  0  0  0  0
  179.5000  179.0290  140.8640 O   0  0  0  0  0  1  0  0  0  0  0  0
  189.3740  177.8050  137.5010 C   0  0  0  0  0  2  0  0  0  0  0  0
  191.5900  176.7380  137.7840 C   0  0  0  0  0  2  0  0  0  0  0  0
  189.6990  175.4490  137.1510 O   0  0  0  0  0  0  0  0  0  0  0  0
  190.7400  173.4070  137.2190 O   0  0  0  0  0  1  0  0  0  0  0  0
  192.0650  175.3640  137.4620 C   0  0  0  0  0  2  0  0  0  0  0  0
  190.8610  174.7340  136.8050 C   0  0  2  0  0  3  0  0  0  0  0  0
  190.1040  176.5440  137.9360 C   0  0  2  0  0  3  0  0  0  0  0  0
  184.3130  179.3060  142.2610 C   0  0  0  0  0  2  0  0  0  0  0  0
  184.9250  178.1360  143.0060 C   0  0  0  0  0  2  0  0  0  0  0  0
  185.4670  178.5830  144.2110 O   0  0  0  0  0  1  0  0  0  0  0  0
  2 13  1  6  0  0  0
  2  6  1  0  0  0  0
  3 22  1  6  0  0  0
  3  1  1  0  0  0  0
  4 12  1  0  0  0  0
  4  7  1  0  0  0  0
  5  2  1  0  0  0  0
  6 35  1  0  0  0  0
  7 15  1  0  0  0  0
  7  5  1  0  0  0  0
  8 11  1  0  0  0  0
  8  3  1  0  0  0  0
  9  6  1  0  0  0  0
 11 17  1  0  0  0  0
 13 10  1  0  0  0  0
 14  5  1  0  0  0  0
 14  9  1  0  0  0  0
 15 18  1  0  0  0  0
 16 11  1  0  0  0  0
 16 12  1  0  0  0  0
 17 14  1  0  0  0  0
 17  1  1  0  0  0  0
 18 10  1  0  0  0  0
 19 11  1  0  0  0  0
 20 19  1  0  0  0  0
 21 22  1  0  0  0  0
 23 25  1  0  0  0  0
 23  9  1  0  0  0  0
 24 23  2  0  0  0  0
 25 26  1  0  0  0  0
 27 26  1  0  0  0  0
 28 34  1  0  0  0  0
 28 15  1  0  0  0  0
 29 34  1  0  0  0  0
 30 34  1  0  0  0  0
 32 29  1  0  0  0  0
 33 30  1  0  0  0  0
 33 31  1  0  0  0  0
 33 32  1  0  0  0  0
 35 36  1  0  0  0  0
 36 37  1  0  0  0  0
M  END
>  <MODEL>
6

>  <REMARK>
 VINA RESULT:      -4.9      2.446      6.525
  Name = 
  9 active torsions:
  status: ('A' for Active; 'I' for Inactive)
    1  A    between atoms: C_3  and  O_32
    2  A    between atoms: C_5  and  C_23
    3  A    between atoms: C_6  and  C_31
    4  A    between atoms: C_6  and  C_35
    5  A    between atoms: C_9  and  C_13
    6  A    between atoms: C_9  and  C_16
    7  A    between atoms: C_11  and  C_26
    8  A    between atoms: C_20  and  C_21
    9  A    between atoms: C_21  and  O_32
                            x       y       z     vdW  Elec       q    Type
                         _______ _______ _______ _____ _____    ______ ____

>  <TORSDO>
F 9

$$$$
=
 OpenBabel11052415303D

 37 41  0  0  1  0  0  0  0  0999 V2000
  187.5550  174.8680  136.3520 S   0  0  0  0  0  0  0  0  0  0  0  0
  186.1790  177.9280  139.6390 C   0  0  2  0  0  3  0  0  0  0  0  0
  189.0660  173.8850  136.4060 C   0  0  2  0  0  3  0  0  0  0  0  0
  190.1520  177.8670  139.5880 C   0  0  0  0  0  2  0  0  0  0  0  0
  187.6260  177.4630  139.3980 C   0  0  2  0  0  3  0  0  0  0  0  0
  185.6140  178.3050  138.2850 C   0  0  1  0  0  3  0  0  0  0  0  0
  188.7510  178.3810  139.9590 C   0  0  1  0  0  3  0  0  0  0  0  0
  190.1740  174.7450  136.4380 O   0  0  0  0  0  0  0  0  0  0  0  0
  186.4050  177.4990  137.2780 C   0  0  2  0  0  3  0  0  0  0  0  0
  186.1260  178.4730  141.8220 C   0  0  0  0  0  2  0  0  0  0  0  0
  189.8890  175.8220  137.3090 C   0  0  2  0  0  0  0  0  0  0  0  0
  190.2820  176.3720  139.8400 C   0  0  0  0  0  2  0  0  0  0  0  0
  186.0930  179.0120  140.5240 O   0  0  0  0  0  0  0  0  0  0  0  0
  187.7730  177.2410  137.8980 C   0  0  2  0  0  3  0  0  0  0  0  0
  188.6030  178.8000  141.4570 C   0  0  1  0  0  3  0  0  0  0  0  0
  190.7380  175.6240  138.5850 C   0  0  0  0  0  2  0  0  0  0  0  0
  188.3730  175.8390  137.6290 C   0  0  1  0  0  3  0  0  0  0  0  0
  187.5370  178.0230  142.2240 C   0  0  0  0  0  2  0  0  0  0  0  0
  190.3100  177.1150  136.5880 C   0  0  0  0  0  2  0  0  0  0  0  0
  190.1760  177.0170  135.0750 C   0  0  0  0  0  1  0  0  0  0  0  0
  190.6040  172.8050  134.7710 C   0  0  0  0  0  1  0  0  0  0  0  0
  189.1560  172.9890  135.1840 C   0  0  0  0  0  2  0  0  0  0  0  0
  186.5460  178.2530  135.9970 C   0  0  0  0  0  0  0  0  0  0  0  0
  187.4350  179.1410  135.8970 O   0  0  0  0  0  0  0  0  0  0  0  0
  185.6990  177.9670  134.9210 O   0  0  0  0  0  0  0  0  0  0  0  0
  184.9050  176.7890  134.8700 C   0  0  0  0  0  2  0  0  0  0  0  0
  183.5530  177.1300  134.8790 O   0  0  0  0  0  1  0  0  0  0  0  0
  189.8980  178.8550  142.2630 C   0  0  0  0  0  2  0  0  0  0  0  0
  190.0990  178.2600  144.6580 C   0  0  0  0  0  2  0  0  0  0  0  0
  191.0600  176.8770  142.9830 O   0  0  0  0  0  0  0  0  0  0  0  0
  191.7510  175.2040  144.3910 O   0  0  0  0  0  1  0  0  0  0  0  0
  190.8990  177.2070  145.3420 C   0  0  0  0  0  2  0  0  0  0  0  0
  191.6820  176.5860  144.2120 C   0  0  2  0  0  3  0  0  0  0  0  0
  189.9610  177.7100  143.2620 C   0  0  2  0  0  3  0  0  0  0  0  0
  184.1410  177.9420  138.1960 C   0  0  0  0  0  2  0  0  0  0  0  0
  183.2830  179.0800  138.7160 C   0  0  0  0  0  2  0  0  0  0  0  0
  184.0370  180.2520  138.7540 O   0  0  0  0  0  1  0  0  0  0  0  0
  1  3  1  0  0  0  0
  1 17  1  0  0  0  0
  2 13  1  1  0  0  0
  3 22  1  6  0  0  0
  3  8  1  0  0  0  0
  4 12  1  0  0  0  0
  4  7  1  0  0  0  0
  5  2  1  0  0  0  0
  5  7  1  0  0  0  0
  6  2  1  0  0  0  0
  7 15  1  0  0  0  0
  8 11  1  0  0  0  0
  9 14  1  0  0  0  0
  9  6  1  0  0  0  0
 10 18  1  0  0  0  0
 11 17  1  0  0  0  0
 11 16  1  0  0  0  0
 13 10  1  0  0  0  0
 14  5  1  0  0  0  0
 15 18  1  0  0  0  0
 15 28  1  0  0  0  0
 16 12  1  0  0  0  0
 17 14  1  0  0  0  0
 19 11  1  0  0  0  0
 20 19  1  0  0  0  0
 21 22  1  0  0  0  0
 23  9  1  0  0  0  0
 24 23  2  0  0  0  0
 25 23  1  0  0  0  0
 26 27  1  0  0  0  0
 26 25  1  0  0  0  0
 28 34  1  0  0  0  0
 29 32  1  0  0  0  0
 30 34  1  0  0  0  0
 30 33  1  0  0  0  0
 33 31  1  0  0  0  0
 33 32  1  0  0  0  0
 34 29  1  0  0  0  0
 35  6  1  0  0  0  0
 35 36  1  0  0  0  0
 36 37  1  0  0  0  0
M  END
>  <MODEL>
7

>  <REMARK>
 VINA RESULT:      -4.8      3.568      7.135
  Name = 
  9 active torsions:
  status: ('A' for Active; 'I' for Inactive)
    1  A    between atoms: C_3  and  O_32
    2  A    between atoms: C_5  and  C_23
    3  A    between atoms: C_6  and  C_31
    4  A    between atoms: C_6  and  C_35
    5  A    between atoms: C_9  and  C_13
    6  A    between atoms: C_9  and  C_16
    7  A    between atoms: C_11  and  C_26
    8  A    between atoms: C_20  and  C_21
    9  A    between atoms: C_21  and  O_32
                            x       y       z     vdW  Elec       q    Type
                         _______ _______ _______ _____ _____    ______ ____

>  <TORSDO>
F 9

$$$$
=
 OpenBabel11052415303D

 37 41  0  0  1  0  0  0  0  0999 V2000
  182.6080  180.0020  138.3530 S   0  0  0  0  0  0  0  0  0  0  0  0
  186.9360  178.5630  139.4750 C   0  0  2  0  0  3  0  0  0  0  0  0
  181.3820  180.6320  139.5150 C   0  0  2  0  0  3  0  0  0  0  0  0
  184.5470  177.8320  142.5640 C   0  0  0  0  0  2  0  0  0  0  0  0
  185.7370  178.6290  140.4370 C   0  0  2  0  0  3  0  0  0  0  0  0
  186.4480  177.8670  138.2210 C   0  0  1  0  0  3  0  0  0  0  0  0
  185.8300  177.7550  141.7220 C   0  0  1  0  0  3  0  0  0  0  0  0
  181.0870  179.6360  140.4580 O   0  0  0  0  0  0  0  0  0  0  0  0
  184.9550  178.1150  138.1750 C   0  0  2  0  0  3  0  0  0  0  0  0
  188.7330  178.8100  140.8070 C   0  0  0  0  0  2  0  0  0  0  0  0
  182.2900  178.9950  140.8340 C   0  0  2  0  0  0  0  0  0  0  0  0
  184.0750  179.2690  142.7320 C   0  0  0  0  0  2  0  0  0  0  0  0
  188.0350  177.8810  140.0160 O   0  0  0  0  0  0  0  0  0  0  0  0
  184.4960  178.2970  139.6170 C   0  0  2  0  0  3  0  0  0  0  0  0
  187.1460  177.9050  142.5510 C   0  0  1  0  0  3  0  0  0  0  0  0
  182.6250  179.4440  142.2750 C   0  0  0  0  0  2  0  0  0  0  0  0
  183.4120  179.3810  139.8390 C   0  0  1  0  0  3  0  0  0  0  0  0
  188.0190  179.0860  142.1370 C   0  0  0  0  0  2  0  0  0  0  0  0
  182.0270  177.4780  140.8000 C   0  0  0  0  0  2  0  0  0  0  0  0
  180.7240  177.1210  140.1000 C   0  0  0  0  0  1  0  0  0  0  0  0
  178.9330  181.0280  139.7330 C   0  0  0  0  0  1  0  0  0  0  0  0
  180.1140  181.0270  138.7810 C   0  0  0  0  0  2  0  0  0  0  0  0
  184.2500  176.9600  137.5440 C   0  0  0  0  0  0  0  0  0  0  0  0
  183.7520  176.0660  138.2780 O   0  0  0  0  0  0  0  0  0  0  0  0
  184.1450  176.8820  136.1520 O   0  0  0  0  0  0  0  0  0  0  0  0
  182.8920  176.7750  135.4890 C   0  0  0  0  0  2  0  0  0  0  0  0
  182.8630  175.6120  134.7190 O   0  0  0  0  0  1  0  0  0  0  0  0
  186.9830  177.8760  144.0680 C   0  0  0  0  0  2  0  0  0  0  0  0
  188.2720  177.4830  146.1450 C   0  0  0  0  0  2  0  0  0  0  0  0
  189.2980  177.2250  144.0190 O   0  0  0  0  0  0  0  0  0  0  0  0
  191.3080  176.4380  144.7930 O   0  0  0  0  0  1  0  0  0  0  0  0
  189.7260  177.2490  146.3680 C   0  0  0  0  0  2  0  0  0  0  0  0
  190.3090  177.3930  144.9840 C   0  0  2  0  0  3  0  0  0  0  0  0
  188.0860  177.0520  144.7140 C   0  0  2  0  0  3  0  0  0  0  0  0
  187.1090  178.4560  136.9850 C   0  0  0  0  0  2  0  0  0  0  0  0
  188.1940  177.5300  136.4730 C   0  0  0  0  0  2  0  0  0  0  0  0
  189.4420  178.1170  136.6780 O   0  0  0  0  0  1  0  0  0  0  0  0
  1  3  1  0  0  0  0
  1 17  1  0  0  0  0
  2 13  1  1  0  0  0
  2  5  1  0  0  0  0
  3 22  1  6  0  0  0
  3  8  1  0  0  0  0
  4 12  1  0  0  0  0
  5  7  1  0  0  0  0
  6  2  1  0  0  0  0
  7 15  1  0  0  0  0
  7  4  1  0  0  0  0
  8 11  1  0  0  0  0
  9  6  1  0  0  0  0
  9 14  1  0  0  0  0
 10 18  1  0  0  0  0
 11 16  1  0  0  0  0
 13 10  1  0  0  0  0
 14 17  1  0  0  0  0
 14  5  1  0  0  0  0
 15 28  1  0  0  0  0
 16 12  1  0  0  0  0
 17 11  1  0  0  0  0
 18 15  1  0  0  0  0
 19 11  1  0  0  0  0
 20 19  1  0  0  0  0
 22 21  1  0  0  0  0
 23  9  1  0  0  0  0
 23 24  2  0  0  0  0
 25 23  1  0  0  0  0
 26 25  1  0  0  0  0
 27 26  1  0  0  0  0
 28 34  1  0  0  0  0
 29 32  1  0  0  0  0
 30 34  1  0  0  0  0
 30 33  1  0  0  0  0
 31 33  1  0  0  0  0
 33 32  1  0  0  0  0
 34 29  1  0  0  0  0
 35  6  1  0  0  0  0
 36 37  1  0  0  0  0
 36 35  1  0  0  0  0
M  END
>  <MODEL>
8

>  <REMARK>
 VINA RESULT:      -4.6      2.251      3.015
  Name = 
  9 active torsions:
  status: ('A' for Active; 'I' for Inactive)
    1  A    between atoms: C_3  and  O_32
    2  A    between atoms: C_5  and  C_23
    3  A    between atoms: C_6  and  C_31
    4  A    between atoms: C_6  and  C_35
    5  A    between atoms: C_9  and  C_13
    6  A    between atoms: C_9  and  C_16
    7  A    between atoms: C_11  and  C_26
    8  A    between atoms: C_20  and  C_21
    9  A    between atoms: C_21  and  O_32
                            x       y       z     vdW  Elec       q    Type
                         _______ _______ _______ _____ _____    ______ ____

>  <TORSDO>
F 9

$$$$
=
 OpenBabel11052415303D

 37 41  0  0  1  0  0  0  0  0999 V2000
  180.3830  175.0250  138.9250 S   0  0  0  0  0  0  0  0  0  0  0  0
  183.2970  178.4200  140.3560 C   0  0  2  0  0  3  0  0  0  0  0  0
  180.8300  173.6500  137.8490 C   0  0  2  0  0  3  0  0  0  0  0  0
  184.4720  177.2140  136.7580 C   0  0  0  0  0  2  0  0  0  0  0  0
  183.4820  177.5520  139.0990 C   0  0  2  0  0  3  0  0  0  0  0  0
  181.8650  178.9160  140.3340 C   0  0  1  0  0  3  0  0  0  0  0  0
  184.4280  178.1180  138.0000 C   0  0  1  0  0  3  0  0  0  0  0  0
  181.2650  174.1540  136.6140 O   0  0  0  0  0  0  0  0  0  0  0  0
  181.0960  177.8950  139.5240 C   0  0  2  0  0  3  0  0  0  0  0  0
  185.3890  179.0020  140.9440 C   0  0  0  0  0  2  0  0  0  0  0  0
  182.0810  175.2840  136.8470 C   0  0  2  0  0  0  0  0  0  0  0  0
  184.6430  175.7500  137.1380 C   0  0  0  0  0  2  0  0  0  0  0  0
  184.1880  179.5010  140.4110 O   0  0  0  0  0  0  0  0  0  0  0  0
  182.0890  177.2660  138.5530 C   0  0  2  0  0  3  0  0  0  0  0  0
  185.8330  178.5930  138.4920 C   0  0  1  0  0  3  0  0  0  0  0  0
  183.5400  174.8760  136.5370 C   0  0  0  0  0  2  0  0  0  0  0  0
  181.9170  175.7450  138.3160 C   0  0  1  0  0  3  0  0  0  0  0  0
  186.1740  178.1730  139.9180 C   0  0  0  0  0  2  0  0  0  0  0  0
  181.6220  176.3860  135.8740 C   0  0  0  0  0  2  0  0  0  0  0  0
  180.2470  176.1130  135.2800 C   0  0  0  0  0  1  0  0  0  0  0  0
  180.0730  171.4340  136.9970 C   0  0  0  0  0  1  0  0  0  0  0  0
  179.6340  172.7400  137.6310 C   0  0  0  0  0  2  0  0  0  0  0  0
  179.9790  178.5490  138.7790 C   0  0  0  0  0  0  0  0  0  0  0  0
  179.1310  177.8330  138.1830 O   0  0  0  0  0  0  0  0  0  0  0  0
  179.8820  179.9440  138.7510 O   0  0  0  0  0  0  0  0  0  0  0  0
  180.3790  180.7210  137.6700 C   0  0  0  0  0  2  0  0  0  0  0  0
  180.7950  179.8810  136.6370 O   0  0  0  0  0  1  0  0  0  0  0  0
  187.0020  178.2880  137.5580 C   0  0  0  0  0  2  0  0  0  0  0  0
  189.3010  178.2330  138.4740 C   0  0  0  0  0  2  0  0  0  0  0  0
  188.3470  176.2960  137.4870 O   0  0  0  0  0  0  0  0  0  0  0  0
  190.0780  174.8740  137.9740 O   0  0  0  0  0  1  0  0  0  0  0  0
  190.3650  177.1950  138.3910 C   0  0  0  0  0  2  0  0  0  0  0  0
  189.7460  176.1440  137.5020 C   0  0  2  0  0  3  0  0  0  0  0  0
  188.0440  177.4320  138.2600 C   0  0  2  0  0  3  0  0  0  0  0  0
  181.2990  178.9920  141.7420 C   0  0  0  0  0  2  0  0  0  0  0  0
  180.3070  177.8700  141.9760 C   0  0  0  0  0  2  0  0  0  0  0  0
  179.2870  178.3170  142.8150 O   0  0  0  0  0  1  0  0  0  0  0  0
  2 13  1  6  0  0  0
  3 22  1  6  0  0  0
  3  1  1  0  0  0  0
  4 12  1  0  0  0  0
  4  7  1  0  0  0  0
  5  2  1  0  0  0  0
  6  2  1  0  0  0  0
  6 35  1  0  0  0  0
  7 15  1  0  0  0  0
  7  5  1  0  0  0  0
  8 11  1  0  0  0  0
  8  3  1  0  0  0  0
  9  6  1  0  0  0  0
 11 17  1  0  0  0  0
 13 10  1  0  0  0  0
 14  5  1  0  0  0  0
 14  9  1  0  0  0  0
 15 18  1  0  0  0  0
 16 11  1  0  0  0  0
 16 12  1  0  0  0  0
 17 14  1  0  0  0  0
 17  1  1  0  0  0  0
 18 10  1  0  0  0  0
 19 11  1  0  0  0  0
 20 19  1  0  0  0  0
 21 22  1  0  0  0  0
 23  9  1  0  0  0  0
 24 23  2  0  0  0  0
 25 23  1  0  0  0  0
 26 25  1  0  0  0  0
 27 26  1  0  0  0  0
 28 34  1  0  0  0  0
 28 15  1  0  0  0  0
 30 33  1  0  0  0  0
 30 34  1  0  0  0  0
 32 29  1  0  0  0  0
 33 31  1  0  0  0  0
 33 32  1  0  0  0  0
 34 29  1  0  0  0  0
 35 36  1  0  0  0  0
 36 37  1  0  0  0  0
M  END
>  <MODEL>
9

>  <REMARK>
 VINA RESULT:      -4.5      2.833      6.344
  Name = 
  9 active torsions:
  status: ('A' for Active; 'I' for Inactive)
    1  A    between atoms: C_3  and  O_32
    2  A    between atoms: C_5  and  C_23
    3  A    between atoms: C_6  and  C_31
    4  A    between atoms: C_6  and  C_35
    5  A    between atoms: C_9  and  C_13
    6  A    between atoms: C_9  and  C_16
    7  A    between atoms: C_11  and  C_26
    8  A    between atoms: C_20  and  C_21
    9  A    between atoms: C_21  and  O_32
                            x       y       z     vdW  Elec       q    Type
                         _______ _______ _______ _____ _____    ______ ____

>  <TORSDO>
F 9

$$$$
