=
 OpenBabel11052413513D

 27 32  0  0  1  0  0  0  0  0999 V2000
  190.7340  177.0090  139.8990 C   0  0  2  0  0  3  0  0  0  0  0  0
  189.4320  177.3290  139.2180 C   0  0  0  0  0  0  0  0  0  0  0  0
  190.4400  175.8370  137.8350 C   0  0  2  0  0  0  0  0  0  0  0  0
  185.8660  177.5680  137.4670 N   0  0  0  0  0  0  0  0  0  0  0  0
  185.5260  177.2900  135.0750 C   0  0  0  0  0  1  0  0  0  0  0  0
  188.4830  178.3720  139.6620 C   0  0  0  0  0  3  0  0  0  0  0  0
  187.2880  175.6260  136.3580 S   0  0  0  0  0  0  0  0  0  0  0  0
  193.1690  176.3150  137.1930 C   0  0  0  0  0  0  0  0  0  0  0  0
  190.2750  174.4490  137.2730 C   0  0  0  0  0  2  0  0  0  0  0  0
  194.3570  176.8550  136.7140 O   0  0  0  0  0  1  0  0  0  0  0  0
  188.1480  177.0310  137.1270 C   0  0  1  0  0  3  0  0  0  0  0  0
  185.7320  176.5860  136.4050 C   0  0  1  0  0  3  0  0  0  0  0  0
  187.0790  177.7940  137.8350 C   0  0  0  0  0  0  0  0  0  0  0  0
  191.4580  176.0310  138.9550 C   0  0  1  0  0  3  0  0  0  0  0  0
  189.2300  176.6390  138.1010 C   0  0  0  0  0  0  0  0  0  0  0  0
  192.4070  175.3500  136.3270 C   0  0  0  0  0  2  0  0  0  0  0  0
  187.3740  178.5660  139.0080 N   0  0  0  0  0  0  0  0  0  0  0  0
  193.4930  177.4720  139.2270 O   0  0  0  0  0  1  0  0  0  0  0  0
  192.7350  176.6280  138.4210 C   0  0  0  0  0  0  0  0  0  0  0  0
  190.8910  175.5600  136.4100 C   0  0  2  0  0  3  0  0  0  0  0  0
  190.5090  176.3790  141.2750 C   0  0  0  0  0  2  0  0  0  0  0  0
  190.0980  178.3060  145.0010 C   0  0  0  0  0  2  0  0  0  0  0  0
  190.1300  177.3810  142.2610 N   0  0  0  0  0  0  0  0  0  0  0  0
  191.3610  177.8370  142.9040 C   0  0  0  0  0  2  0  0  0  0  0  0
  191.0360  178.8980  143.9520 C   0  0  0  0  0  2  0  0  0  0  0  0
  188.8670  177.7010  144.3310 C   0  0  0  0  0  2  0  0  0  0  0  0
  189.3070  176.7040  143.2620 C   0  0  0  0  0  2  0  0  0  0  0  0
  1 21  1  1  0  0  0
  2  6  1  0  0  0  0
  2  1  1  0  0  0  0
  3  9  1  1  0  0  0
  3 15  1  0  0  0  0
  3 14  1  0  0  0  0
  4 13  2  0  0  0  0
  7 12  1  0  0  0  0
  8 19  2  0  0  0  0
 10  8  1  0  0  0  0
 11  7  1  1  0  0  0
 11 13  1  0  0  0  0
 11 15  1  0  0  0  0
 12  5  1  6  0  0  0
 12  4  1  0  0  0  0
 13 17  1  0  0  0  0
 14 19  1  6  0  0  0
 14  1  1  0  0  0  0
 15  2  2  0  0  0  0
 16  8  1  0  0  0  0
 17  6  2  0  0  0  0
 19 18  1  0  0  0  0
 20 16  1  1  0  0  0
 20  9  1  0  0  0  0
 20  3  1  0  0  0  0
 21 23  1  0  0  0  0
 23 24  1  0  0  0  0
 23 27  1  0  0  0  0
 24 25  1  0  0  0  0
 25 22  1  0  0  0  0
 26 22  1  0  0  0  0
 27 26  1  0  0  0  0
M  END
>  <MODEL>
1

>  <REMARK>
 VINA RESULT:      -8.1      0.000      0.000
  Name = 
  2 active torsions:
  status: ('A' for Active; 'I' for Inactive)
    1  A    between atoms: C_1  and  C_15
    2  A    between atoms: N_9  and  C_15
                            x       y       z     vdW  Elec       q    Type
                         _______ _______ _______ _____ _____    ______ ____

>  <TORSDO>
F 2

$$$$
=
 OpenBabel11052413513D

 27 32  0  0  1  0  0  0  0  0999 V2000
  184.9930  178.5830  142.7470 C   0  0  2  0  0  3  0  0  0  0  0  0
  186.2900  178.4760  141.9950 C   0  0  0  0  0  0  0  0  0  0  0  0
  186.7430  177.5800  144.0310 C   0  0  2  0  0  0  0  0  0  0  0  0
  189.6730  177.5800  140.0980 N   0  0  0  0  0  0  0  0  0  0  0  0
  191.8310  177.4220  141.2080 C   0  0  0  0  0  1  0  0  0  0  0  0
  186.5430  179.0620  140.6610 C   0  0  0  0  0  3  0  0  0  0  0  0
  189.6230  176.3900  142.4650 S   0  0  0  0  0  0  0  0  0  0  0  0
  185.9010  179.0630  146.3070 C   0  0  0  0  0  0  0  0  0  0  0  0
  187.1370  176.2840  144.6900 C   0  0  0  0  0  2  0  0  0  0  0  0
  185.7420  180.0350  147.2880 O   0  0  0  0  0  1  0  0  0  0  0  0
  188.6910  177.9320  142.2250 C   0  0  1  0  0  3  0  0  0  0  0  0
  190.5200  176.7190  140.9050 C   0  0  1  0  0  3  0  0  0  0  0  0
  188.7510  178.1910  140.7560 C   0  0  0  0  0  0  0  0  0  0  0  0
  185.2880  178.0210  144.1510 C   0  0  1  0  0  3  0  0  0  0  0  0
  187.2540  177.8660  142.6760 C   0  0  0  0  0  0  0  0  0  0  0  0
  186.9160  177.9740  146.5200 C   0  0  0  0  0  2  0  0  0  0  0  0
  187.7010  178.9050  140.0880 N   0  0  0  0  0  0  0  0  0  0  0  0
  184.1590  180.0650  145.0670 O   0  0  0  0  0  1  0  0  0  0  0  0
  185.1340  179.0830  145.2090 C   0  0  0  0  0  0  0  0  0  0  0  0
  187.6710  177.6170  145.2360 C   0  0  2  0  0  3  0  0  0  0  0  0
  183.8790  177.7890  142.0610 C   0  0  0  0  0  2  0  0  0  0  0  0
  179.9530  179.0750  141.2240 C   0  0  0  0  0  2  0  0  0  0  0  0
  182.7820  178.6570  141.6570 N   0  0  0  0  0  0  0  0  0  0  0  0
  181.8630  178.7440  142.7910 C   0  0  0  0  0  2  0  0  0  0  0  0
  180.6850  179.6470  142.4350 C   0  0  0  0  0  2  0  0  0  0  0  0
  180.9280  178.8490  140.0720 C   0  0  0  0  0  2  0  0  0  0  0  0
  182.0940  177.9890  140.5530 C   0  0  0  0  0  2  0  0  0  0  0  0
  1 21  1  6  0  0  0
  1 14  1  0  0  0  0
  2 15  2  0  0  0  0
  2  1  1  0  0  0  0
  3 14  1  0  0  0  0
  3  9  1  6  0  0  0
  3 20  1  0  0  0  0
  4 13  2  0  0  0  0
  4 12  1  0  0  0  0
  6  2  1  0  0  0  0
  8 16  1  0  0  0  0
  8 10  1  0  0  0  0
 11 13  1  6  0  0  0
 11  7  1  0  0  0  0
 11 15  1  0  0  0  0
 12  5  1  1  0  0  0
 12  7  1  0  0  0  0
 14 19  1  1  0  0  0
 15  3  1  0  0  0  0
 17  6  2  0  0  0  0
 17 13  1  0  0  0  0
 18 19  1  0  0  0  0
 19  8  2  0  0  0  0
 20  9  1  1  0  0  0
 20 16  1  0  0  0  0
 22 25  1  0  0  0  0
 23 21  1  0  0  0  0
 23 24  1  0  0  0  0
 25 24  1  0  0  0  0
 26 27  1  0  0  0  0
 26 22  1  0  0  0  0
 27 23  1  0  0  0  0
M  END
>  <MODEL>
2

>  <REMARK>
 VINA RESULT:      -7.9      5.202      8.361
  Name = 
  2 active torsions:
  status: ('A' for Active; 'I' for Inactive)
    1  A    between atoms: C_1  and  C_15
    2  A    between atoms: N_9  and  C_15
                            x       y       z     vdW  Elec       q    Type
                         _______ _______ _______ _____ _____    ______ ____

>  <TORSDO>
F 2

$$$$
=
 OpenBabel11052413513D

 27 32  0  0  1  0  0  0  0  0999 V2000
  187.8750  177.7540  143.4840 C   0  0  2  0  0  3  0  0  0  0  0  0
  187.4190  178.0670  142.0860 C   0  0  0  0  0  0  0  0  0  0  0  0
  189.5470  177.3170  141.8320 C   0  0  2  0  0  0  0  0  0  0  0  0
  186.3250  178.2950  138.2660 N   0  0  0  0  0  0  0  0  0  0  0  0
  187.8720  178.7900  136.4560 C   0  0  0  0  0  1  0  0  0  0  0  0
  186.1420  178.7270  141.7430 C   0  0  0  0  0  3  0  0  0  0  0  0
  188.6840  177.1040  138.4590 S   0  0  0  0  0  0  0  0  0  0  0  0
  191.5180  178.4250  143.5570 C   0  0  0  0  0  0  0  0  0  0  0  0
  190.3380  176.1940  141.2130 C   0  0  0  0  0  2  0  0  0  0  0  0
  192.3930  179.2820  144.2130 O   0  0  0  0  0  1  0  0  0  0  0  0
  188.1770  178.2870  139.7430 C   0  0  1  0  0  3  0  0  0  0  0  0
  187.3340  177.7220  137.3920 C   0  0  1  0  0  3  0  0  0  0  0  0
  186.7430  178.5790  139.4500 C   0  0  0  0  0  0  0  0  0  0  0  0
  189.3350  177.2850  143.3420 C   0  0  1  0  0  3  0  0  0  0  0  0
  188.3180  177.7720  141.1530 C   0  0  0  0  0  0  0  0  0  0  0  0
  191.9940  177.6990  142.3290 C   0  0  0  0  0  2  0  0  0  0  0  0
  185.8340  178.9460  140.4980 N   0  0  0  0  0  0  0  0  0  0  0  0
  189.8900  178.8630  145.2120 O   0  0  0  0  0  1  0  0  0  0  0  0
  190.2830  178.2280  144.0370 C   0  0  0  0  0  0  0  0  0  0  0  0
  190.9170  177.6160  141.2420 C   0  0  2  0  0  3  0  0  0  0  0  0
  187.0100  176.6670  144.1270 C   0  0  0  0  0  2  0  0  0  0  0  0
  185.9790  179.2450  147.2990 C   0  0  0  0  0  2  0  0  0  0  0  0
  186.4020  177.1370  145.3640 N   0  0  0  0  0  0  0  0  0  0  0  0
  185.5850  178.3020  145.0250 C   0  0  0  0  0  2  0  0  0  0  0  0
  184.9120  178.8460  146.2830 C   0  0  0  0  0  2  0  0  0  0  0  0
  186.9260  178.0770  147.5610 C   0  0  0  0  0  2  0  0  0  0  0  0
  187.4920  177.5730  146.2360 C   0  0  0  0  0  2  0  0  0  0  0  0
  1 21  1  6  0  0  0
  2  1  1  0  0  0  0
  3  9  1  6  0  0  0
  3 14  1  0  0  0  0
  4 13  2  0  0  0  0
  6  2  1  0  0  0  0
  8 19  2  0  0  0  0
  8 10  1  0  0  0  0
 11  7  1  6  0  0  0
 11 15  1  0  0  0  0
 12  5  1  6  0  0  0
 12  4  1  0  0  0  0
 12  7  1  0  0  0  0
 13 11  1  0  0  0  0
 13 17  1  0  0  0  0
 14  1  1  0  0  0  0
 14 19  1  1  0  0  0
 15  3  1  0  0  0  0
 15  2  2  0  0  0  0
 16  8  1  0  0  0  0
 17  6  2  0  0  0  0
 19 18  1  0  0  0  0
 20  9  1  6  0  0  0
 20  3  1  0  0  0  0
 20 16  1  0  0  0  0
 21 23  1  0  0  0  0
 22 26  1  0  0  0  0
 23 27  1  0  0  0  0
 24 23  1  0  0  0  0
 24 25  1  0  0  0  0
 25 22  1  0  0  0  0
 27 26  1  0  0  0  0
M  END
>  <MODEL>
3

>  <REMARK>
 VINA RESULT:      -7.8      3.216      4.748
  Name = 
  2 active torsions:
  status: ('A' for Active; 'I' for Inactive)
    1  A    between atoms: C_1  and  C_15
    2  A    between atoms: N_9  and  C_15
                            x       y       z     vdW  Elec       q    Type
                         _______ _______ _______ _____ _____    ______ ____

>  <TORSDO>
F 2

$$$$
=
 OpenBabel11052413513D

 27 32  0  0  1  0  0  0  0  0999 V2000
  188.3440  178.0130  142.2450 C   0  0  2  0  0  3  0  0  0  0  0  0
  189.4100  177.9480  143.3040 C   0  0  0  0  0  0  0  0  0  0  0  0
  187.4850  177.4800  144.4130 C   0  0  2  0  0  0  0  0  0  0  0  0
  192.0490  177.1870  146.1840 N   0  0  0  0  0  0  0  0  0  0  0  0
  191.5800  177.5020  148.5490 C   0  0  0  0  0  1  0  0  0  0  0  0
  190.8250  178.3250  143.0990 C   0  0  0  0  0  3  0  0  0  0  0  0
  189.6300  176.4240  146.9520 S   0  0  0  0  0  0  0  0  0  0  0  0
  185.2760  179.2090  143.9450 C   0  0  0  0  0  0  0  0  0  0  0  0
  186.8010  176.3790  145.1800 C   0  0  0  0  0  2  0  0  0  0  0  0
  184.4250  180.3060  143.8790 O   0  0  0  0  0  1  0  0  0  0  0  0
  189.7960  177.7680  145.7390 C   0  0  1  0  0  3  0  0  0  0  0  0
  191.4090  176.5940  147.3450 C   0  0  1  0  0  3  0  0  0  0  0  0
  191.2430  177.7770  145.3720 C   0  0  0  0  0  0  0  0  0  0  0  0
  187.0200  177.7430  142.9840 C   0  0  1  0  0  3  0  0  0  0  0  0
  188.9550  177.5940  144.5000 C   0  0  0  0  0  0  0  0  0  0  0  0
  185.2190  178.3140  145.1520 C   0  0  0  0  0  2  0  0  0  0  0  0
  191.6760  178.2230  144.0790 N   0  0  0  0  0  0  0  0  0  0  0  0
  186.0950  179.7490  141.7960 O   0  0  0  0  0  1  0  0  0  0  0  0
  186.1080  178.9420  142.9290 C   0  0  0  0  0  0  0  0  0  0  0  0
  186.6060  177.8430  145.5990 C   0  0  2  0  0  3  0  0  0  0  0  0
  188.5800  176.9750  141.1460 C   0  0  0  0  0  2  0  0  0  0  0  0
  189.7380  177.7940  137.1760 C   0  0  0  0  0  2  0  0  0  0  0  0
  189.3160  177.5480  140.0270 N   0  0  0  0  0  0  0  0  0  0  0  0
  188.3450  178.2540  139.1920 C   0  0  0  0  0  2  0  0  0  0  0  0
  189.0530  178.8840  137.9950 C   0  0  0  0  0  2  0  0  0  0  0  0
  190.6540  176.9580  138.0660 C   0  0  0  0  0  2  0  0  0  0  0  0
  189.8620  176.4300  139.2590 C   0  0  0  0  0  2  0  0  0  0  0  0
  1 21  1  6  0  0  0
  1 14  1  0  0  0  0
  1  2  1  0  0  0  0
  2 15  2  0  0  0  0
  3 15  1  0  0  0  0
  3  9  1  1  0  0  0
  3 20  1  0  0  0  0
  4 12  1  0  0  0  0
  6  2  1  0  0  0  0
  6 17  2  0  0  0  0
  7 12  1  0  0  0  0
  8 16  1  0  0  0  0
  9 20  1  0  0  0  0
 10  8  1  0  0  0  0
 11 15  1  6  0  0  0
 11  7  1  0  0  0  0
 12  5  1  1  0  0  0
 13 11  1  0  0  0  0
 13  4  2  0  0  0  0
 14 19  1  1  0  0  0
 14  3  1  0  0  0  0
 17 13  1  0  0  0  0
 18 19  1  0  0  0  0
 19  8  2  0  0  0  0
 20 16  1  6  0  0  0
 22 25  1  0  0  0  0
 22 26  1  0  0  0  0
 23 21  1  0  0  0  0
 24 23  1  0  0  0  0
 25 24  1  0  0  0  0
 26 27  1  0  0  0  0
 27 23  1  0  0  0  0
M  END
>  <MODEL>
4

>  <REMARK>
 VINA RESULT:      -7.3      4.018      8.418
  Name = 
  2 active torsions:
  status: ('A' for Active; 'I' for Inactive)
    1  A    between atoms: C_1  and  C_15
    2  A    between atoms: N_9  and  C_15
                            x       y       z     vdW  Elec       q    Type
                         _______ _______ _______ _____ _____    ______ ____

>  <TORSDO>
F 2

$$$$
=
 OpenBabel11052413513D

 27 32  0  0  1  0  0  0  0  0999 V2000
  187.5840  178.1400  141.8410 C   0  0  2  0  0  3  0  0  0  0  0  0
  187.9000  177.6780  143.2370 C   0  0  0  0  0  0  0  0  0  0  0  0
  189.9270  177.8630  142.2320 C   0  0  2  0  0  0  0  0  0  0  0  0
  189.0640  176.9810  146.9790 N   0  0  0  0  0  0  0  0  0  0  0  0
  191.1190  175.8120  147.5470 C   0  0  0  0  0  1  0  0  0  0  0  0
  186.8910  177.2720  144.2390 C   0  0  0  0  0  3  0  0  0  0  0  0
  191.1590  177.6200  145.4860 S   0  0  0  0  0  0  0  0  0  0  0  0
  190.2010  176.6860  139.6570 C   0  0  0  0  0  0  0  0  0  0  0  0
  191.2170  178.6380  142.3070 C   0  0  0  0  0  2  0  0  0  0  0  0
  190.2750  175.7940  138.5950 O   0  0  0  0  0  1  0  0  0  0  0  0
  189.7100  176.8490  144.7040 C   0  0  1  0  0  3  0  0  0  0  0  0
  190.5020  177.1330  147.1220 C   0  0  1  0  0  3  0  0  0  0  0  0
  188.6600  176.8410  145.7640 C   0  0  0  0  0  0  0  0  0  0  0  0
  188.9450  178.2290  141.1240 C   0  0  1  0  0  3  0  0  0  0  0  0
  189.2010  177.5780  143.4850 C   0  0  0  0  0  0  0  0  0  0  0  0
  191.4600  177.0380  140.4020 C   0  0  0  0  0  2  0  0  0  0  0  0
  187.2670  176.8960  145.4270 N   0  0  0  0  0  0  0  0  0  0  0  0
  187.8920  176.9520  139.2390 O   0  0  0  0  0  1  0  0  0  0  0  0
  189.0290  177.2460  139.9850 C   0  0  0  0  0  0  0  0  0  0  0  0
  191.2340  177.1540  141.9130 C   0  0  2  0  0  3  0  0  0  0  0  0
  186.8760  179.4960  141.8450 C   0  0  0  0  0  2  0  0  0  0  0  0
  183.3240  177.7570  140.3880 C   0  0  0  0  0  2  0  0  0  0  0  0
  185.5240  179.3890  141.3140 N   0  0  0  0  0  0  0  0  0  0  0  0
  184.7570  178.5750  142.2560 C   0  0  0  0  0  2  0  0  0  0  0  0
  183.3210  178.4250  141.7600 C   0  0  0  0  0  2  0  0  0  0  0  0
  184.2320  178.5190  139.4270 C   0  0  0  0  0  2  0  0  0  0  0  0
  185.6200  178.6660  140.0470 C   0  0  0  0  0  2  0  0  0  0  0  0
  1 21  1  1  0  0  0
  1  2  1  0  0  0  0
  2 15  2  0  0  0  0
  2  6  1  0  0  0  0
  3  9  1  1  0  0  0
  3 15  1  0  0  0  0
  4 12  1  0  0  0  0
  6 17  2  0  0  0  0
  7 12  1  0  0  0  0
  8 19  2  0  0  0  0
  8 16  1  0  0  0  0
 10  8  1  0  0  0  0
 11 15  1  6  0  0  0
 11  7  1  0  0  0  0
 11 13  1  0  0  0  0
 12  5  1  6  0  0  0
 13  4  2  0  0  0  0
 14 19  1  6  0  0  0
 14  1  1  0  0  0  0
 14  3  1  0  0  0  0
 17 13  1  0  0  0  0
 18 19  1  0  0  0  0
 20 16  1  6  0  0  0
 20  3  1  0  0  0  0
 20  9  1  0  0  0  0
 22 25  1  0  0  0  0
 23 21  1  0  0  0  0
 23 24  1  0  0  0  0
 25 24  1  0  0  0  0
 26 27  1  0  0  0  0
 26 22  1  0  0  0  0
 27 23  1  0  0  0  0
M  END
>  <MODEL>
5

>  <REMARK>
 VINA RESULT:      -6.4      3.569      6.965
  Name = 
  2 active torsions:
  status: ('A' for Active; 'I' for Inactive)
    1  A    between atoms: C_1  and  C_15
    2  A    between atoms: N_9  and  C_15
                            x       y       z     vdW  Elec       q    Type
                         _______ _______ _______ _____ _____    ______ ____

>  <TORSDO>
F 2

$$$$
=
 OpenBabel11052413513D

 27 32  0  0  1  0  0  0  0  0999 V2000
  186.4730  176.2440  137.0780 C   0  0  2  0  0  3  0  0  0  0  0  0
  185.6110  175.0130  137.1260 C   0  0  0  0  0  0  0  0  0  0  0  0
  184.1330  176.7370  137.0990 C   0  0  2  0  0  0  0  0  0  0  0  0
  183.0910  171.9600  136.7160 N   0  0  0  0  0  0  0  0  0  0  0  0
  180.8110  171.9800  137.5630 C   0  0  0  0  0  1  0  0  0  0  0  0
  186.1160  173.6360  137.3060 C   0  0  0  0  0  3  0  0  0  0  0  0
  181.7980  174.2490  136.3800 S   0  0  0  0  0  0  0  0  0  0  0  0
  184.6160  178.8770  138.9090 C   0  0  0  0  0  0  0  0  0  0  0  0
  183.0420  177.3440  136.2560 C   0  0  0  0  0  2  0  0  0  0  0  0
  184.7880  179.6530  140.0490 O   0  0  0  0  0  1  0  0  0  0  0  0
  183.2900  174.2130  137.4180 C   0  0  1  0  0  3  0  0  0  0  0  0
  181.7400  172.4220  136.4460 C   0  0  1  0  0  3  0  0  0  0  0  0
  183.8740  172.8580  137.2030 C   0  0  0  0  0  0  0  0  0  0  0  0
  185.4920  177.4310  137.1050 C   0  0  1  0  0  3  0  0  0  0  0  0
  184.3090  175.2710  137.0780 C   0  0  0  0  0  0  0  0  0  0  0  0
  183.2470  178.7770  138.2940 C   0  0  0  0  0  2  0  0  0  0  0  0
  185.2870  172.6330  137.3240 N   0  0  0  0  0  0  0  0  0  0  0  0
  186.9340  178.4190  138.9040 O   0  0  0  0  0  1  0  0  0  0  0  0
  185.6660  178.2580  138.3520 C   0  0  0  0  0  0  0  0  0  0  0  0
  182.9330  177.3660  137.7880 C   0  0  2  0  0  3  0  0  0  0  0  0
  187.3380  176.2750  135.8160 C   0  0  0  0  0  2  0  0  0  0  0  0
  191.4030  176.2430  136.9290 C   0  0  0  0  0  2  0  0  0  0  0  0
  188.6790  175.7730  136.0800 N   0  0  0  0  0  0  0  0  0  0  0  0
  188.9790  176.0670  137.4810 C   0  0  0  0  0  2  0  0  0  0  0  0
  190.3760  175.5610  137.8290 C   0  0  0  0  0  2  0  0  0  0  0  0
  191.0280  176.0610  135.4610 C   0  0  0  0  0  2  0  0  0  0  0  0
  189.5960  176.5400  135.2390 C   0  0  0  0  0  2  0  0  0  0  0  0
  1 21  1  6  0  0  0
  1 14  1  0  0  0  0
  1  2  1  0  0  0  0
  2  6  1  0  0  0  0
  3  9  1  6  0  0  0
  3 14  1  0  0  0  0
  3 20  1  0  0  0  0
  4 13  2  0  0  0  0
  6 17  2  0  0  0  0
  7 12  1  0  0  0  0
  8 10  1  0  0  0  0
 11  7  1  6  0  0  0
 12  4  1  0  0  0  0
 12  5  1  1  0  0  0
 13 17  1  0  0  0  0
 13 11  1  0  0  0  0
 14 19  1  1  0  0  0
 15  3  1  0  0  0  0
 15  2  2  0  0  0  0
 15 11  1  0  0  0  0
 16  8  1  0  0  0  0
 19 18  1  0  0  0  0
 19  8  2  0  0  0  0
 20  9  1  6  0  0  0
 20 16  1  0  0  0  0
 21 23  1  0  0  0  0
 22 25  1  0  0  0  0
 23 24  1  0  0  0  0
 24 25  1  0  0  0  0
 26 22  1  0  0  0  0
 27 26  1  0  0  0  0
 27 23  1  0  0  0  0
M  END
>  <MODEL>
6

>  <REMARK>
 VINA RESULT:      -6.1      4.257      7.138
  Name = 
  2 active torsions:
  status: ('A' for Active; 'I' for Inactive)
    1  A    between atoms: C_1  and  C_15
    2  A    between atoms: N_9  and  C_15
                            x       y       z     vdW  Elec       q    Type
                         _______ _______ _______ _____ _____    ______ ____

>  <TORSDO>
F 2

$$$$
=
 OpenBabel11052413513D

 27 32  0  0  1  0  0  0  0  0999 V2000
  187.1140  176.4180  137.1250 C   0  0  2  0  0  3  0  0  0  0  0  0
  186.3770  175.1080  137.0770 C   0  0  0  0  0  0  0  0  0  0  0  0
  184.7380  176.6790  137.0610 C   0  0  2  0  0  0  0  0  0  0  0  0
  184.1920  171.8480  136.4130 N   0  0  0  0  0  0  0  0  0  0  0  0
  181.8890  171.6050  137.1540 C   0  0  0  0  0  1  0  0  0  0  0  0
  187.0090  173.7790  137.2170 C   0  0  0  0  0  3  0  0  0  0  0  0
  182.6930  174.0150  136.1230 S   0  0  0  0  0  0  0  0  0  0  0  0
  184.9310  178.7630  138.9880 C   0  0  0  0  0  0  0  0  0  0  0  0
  183.6270  177.2190  136.1980 C   0  0  0  0  0  2  0  0  0  0  0  0
  184.9780  179.4940  140.1680 O   0  0  0  0  0  1  0  0  0  0  0  0
  184.1370  174.0730  137.2260 C   0  0  1  0  0  3  0  0  0  0  0  0
  182.8150  172.1900  136.1020 C   0  0  1  0  0  3  0  0  0  0  0  0
  184.8620  172.7930  136.9760 C   0  0  0  0  0  0  0  0  0  0  0  0
  186.0190  177.5010  137.1610 C   0  0  1  0  0  3  0  0  0  0  0  0
  185.0590  175.2410  136.9810 C   0  0  0  0  0  0  0  0  0  0  0  0
  183.6050  178.5610  138.3070 C   0  0  0  0  0  2  0  0  0  0  0  0
  186.2830  172.7010  137.1510 N   0  0  0  0  0  0  0  0  0  0  0  0
  187.2810  178.5330  139.0680 O   0  0  0  0  0  1  0  0  0  0  0  0
  186.0590  178.2780  138.4520 C   0  0  0  0  0  0  0  0  0  0  0  0
  183.4530  177.1540  137.7230 C   0  0  2  0  0  3  0  0  0  0  0  0
  188.0230  176.5960  135.9070 C   0  0  0  0  0  2  0  0  0  0  0  0
  191.8370  175.6800  137.4500 C   0  0  0  0  0  2  0  0  0  0  0  0
  189.4130  176.7660  136.3040 N   0  0  0  0  0  0  0  0  0  0  0  0
  190.1910  175.7620  135.5790 C   0  0  0  0  0  2  0  0  0  0  0  0
  191.6680  175.8860  135.9470 C   0  0  0  0  0  2  0  0  0  0  0  0
  190.9260  176.6310  138.2220 C   0  0  0  0  0  2  0  0  0  0  0  0
  189.4890  176.4680  137.7330 C   0  0  0  0  0  2  0  0  0  0  0  0
  1 21  1  6  0  0  0
  1 14  1  0  0  0  0
  2  1  1  0  0  0  0
  2  6  1  0  0  0  0
  3  9  1  6  0  0  0
  3 14  1  0  0  0  0
  3 20  1  0  0  0  0
  4 13  2  0  0  0  0
  8 10  1  0  0  0  0
 11  7  1  6  0  0  0
 12  7  1  0  0  0  0
 12  4  1  0  0  0  0
 12  5  1  1  0  0  0
 13 17  1  0  0  0  0
 13 11  1  0  0  0  0
 14 19  1  1  0  0  0
 15  3  1  0  0  0  0
 15  2  2  0  0  0  0
 15 11  1  0  0  0  0
 16  8  1  0  0  0  0
 17  6  2  0  0  0  0
 19  8  2  0  0  0  0
 19 18  1  0  0  0  0
 20  9  1  6  0  0  0
 20 16  1  0  0  0  0
 21 23  1  0  0  0  0
 22 26  1  0  0  0  0
 23 27  1  0  0  0  0
 24 25  1  0  0  0  0
 24 23  1  0  0  0  0
 25 22  1  0  0  0  0
 27 26  1  0  0  0  0
M  END
>  <MODEL>
7

>  <REMARK>
 VINA RESULT:      -6.0      3.918      6.698
  Name = 
  2 active torsions:
  status: ('A' for Active; 'I' for Inactive)
    1  A    between atoms: C_1  and  C_15
    2  A    between atoms: N_9  and  C_15
                            x       y       z     vdW  Elec       q    Type
                         _______ _______ _______ _____ _____    ______ ____

>  <TORSDO>
F 2

$$$$
=
 OpenBabel11052413513D

 27 32  0  0  1  0  0  0  0  0999 V2000
  188.1150  177.8890  143.2000 C   0  0  2  0  0  3  0  0  0  0  0  0
  188.6630  177.9450  141.8000 C   0  0  0  0  0  0  0  0  0  0  0  0
  189.9860  176.4370  142.8640 C   0  0  2  0  0  0  0  0  0  0  0  0
  189.9800  177.4870  138.0720 N   0  0  0  0  0  0  0  0  0  0  0  0
  192.2670  176.8680  137.5260 C   0  0  0  0  0  1  0  0  0  0  0  0
  188.2230  178.9000  140.7610 C   0  0  0  0  0  3  0  0  0  0  0  0
  191.0350  175.6270  139.6380 S   0  0  0  0  0  0  0  0  0  0  0  0
  191.0060  177.1880  145.4100 C   0  0  0  0  0  0  0  0  0  0  0  0
  190.3680  174.9810  142.8440 C   0  0  0  0  0  2  0  0  0  0  0  0
  191.6820  177.8160  146.4490 O   0  0  0  0  0  1  0  0  0  0  0  0
  190.5360  177.2190  140.3590 C   0  0  1  0  0  3  0  0  0  0  0  0
  190.9030  176.3700  137.9720 C   0  0  1  0  0  3  0  0  0  0  0  0
  189.7900  177.9160  139.2710 C   0  0  0  0  0  0  0  0  0  0  0  0
  189.0280  176.9040  143.9550 C   0  0  1  0  0  3  0  0  0  0  0  0
  189.6640  177.1000  141.5840 C   0  0  0  0  0  0  0  0  0  0  0  0
  191.6610  176.0300  144.7090 C   0  0  0  0  0  2  0  0  0  0  0  0
  188.7530  178.8620  139.5730 N   0  0  0  0  0  0  0  0  0  0  0  0
  189.1670  178.6250  145.7740 O   0  0  0  0  0  1  0  0  0  0  0  0
  189.7760  177.5930  145.0670 C   0  0  0  0  0  0  0  0  0  0  0  0
  191.4170  176.0450  143.1970 C   0  0  2  0  0  3  0  0  0  0  0  0
  186.6610  177.4130  143.2160 C   0  0  0  0  0  2  0  0  0  0  0  0
  183.3950  179.0020  145.3540 C   0  0  0  0  0  2  0  0  0  0  0  0
  185.7910  178.3900  143.8540 N   0  0  0  0  0  0  0  0  0  0  0  0
  185.6810  178.0120  145.2620 C   0  0  0  0  0  2  0  0  0  0  0  0
  184.7800  179.0030  145.9950 C   0  0  0  0  0  2  0  0  0  0  0  0
  183.5040  179.2600  143.8540 C   0  0  0  0  0  2  0  0  0  0  0  0
  184.4730  178.2570  143.2340 C   0  0  0  0  0  2  0  0  0  0  0  0
  1 21  1  6  0  0  0
  1 14  1  0  0  0  0
  2  1  1  0  0  0  0
  3  9  1  6  0  0  0
  3 20  1  0  0  0  0
  3 14  1  0  0  0  0
  4 13  2  0  0  0  0
  6  2  1  0  0  0  0
  7 11  1  0  0  0  0
  8 10  1  0  0  0  0
 11 13  1  6  0  0  0
 11 15  1  0  0  0  0
 12  5  1  1  0  0  0
 12  4  1  0  0  0  0
 12  7  1  0  0  0  0
 13 17  1  0  0  0  0
 14 19  1  1  0  0  0
 15  2  2  0  0  0  0
 15  3  1  0  0  0  0
 16  8  1  0  0  0  0
 17  6  2  0  0  0  0
 19  8  2  0  0  0  0
 19 18  1  0  0  0  0
 20  9  1  1  0  0  0
 20 16  1  0  0  0  0
 21 23  1  0  0  0  0
 22 25  1  0  0  0  0
 23 24  1  0  0  0  0
 24 25  1  0  0  0  0
 26 22  1  0  0  0  0
 27 23  1  0  0  0  0
 27 26  1  0  0  0  0
M  END
>  <MODEL>
8

>  <REMARK>
 VINA RESULT:      -6.0      3.495      5.826
  Name = 
  2 active torsions:
  status: ('A' for Active; 'I' for Inactive)
    1  A    between atoms: C_1  and  C_15
    2  A    between atoms: N_9  and  C_15
                            x       y       z     vdW  Elec       q    Type
                         _______ _______ _______ _____ _____    ______ ____

>  <TORSDO>
F 2

$$$$
=
 OpenBabel11052413513D

 27 32  0  0  1  0  0  0  0  0999 V2000
  188.4070  177.3420  138.2130 C   0  0  2  0  0  3  0  0  0  0  0  0
  188.7010  177.5220  139.6770 C   0  0  0  0  0  0  0  0  0  0  0  0
  190.6250  176.6820  138.8130 C   0  0  2  0  0  0  0  0  0  0  0  0
  189.9350  178.3800  143.3620 N   0  0  0  0  0  0  0  0  0  0  0  0
  191.6640  177.1240  144.5230 C   0  0  0  0  0  1  0  0  0  0  0  0
  187.7030  177.9100  140.6960 C   0  0  0  0  0  3  0  0  0  0  0  0
  192.0020  177.6780  141.8590 S   0  0  0  0  0  0  0  0  0  0  0  0
  190.3920  174.4120  137.1150 C   0  0  0  0  0  0  0  0  0  0  0  0
  192.0710  177.0370  138.5830 C   0  0  0  0  0  2  0  0  0  0  0  0
  190.1550  173.1420  136.6030 O   0  0  0  0  0  1  0  0  0  0  0  0
  190.3490  177.0370  141.4550 C   0  0  1  0  0  3  0  0  0  0  0  0
  191.3710  178.2010  143.4940 C   0  0  1  0  0  3  0  0  0  0  0  0
  189.4170  177.7980  142.3370 C   0  0  0  0  0  0  0  0  0  0  0  0
  189.6850  176.7290  137.6130 C   0  0  1  0  0  3  0  0  0  0  0  0
  189.9490  177.2150  140.0120 C   0  0  0  0  0  0  0  0  0  0  0  0
  191.7520  174.7300  137.6720 C   0  0  0  0  0  2  0  0  0  0  0  0
  188.0610  178.0500  141.9400 N   0  0  0  0  0  0  0  0  0  0  0  0
  188.2010  175.0420  136.4970 O   0  0  0  0  0  1  0  0  0  0  0  0
  189.4290  175.3430  137.0770 C   0  0  0  0  0  0  0  0  0  0  0  0
  191.6810  175.5930  138.9350 C   0  0  2  0  0  3  0  0  0  0  0  0
  188.0680  178.6730  137.5400 C   0  0  0  0  0  2  0  0  0  0  0  0
  184.9330  176.9790  135.2900 C   0  0  0  0  0  2  0  0  0  0  0  0
  186.8400  178.5770  136.7630 N   0  0  0  0  0  0  0  0  0  0  0  0
  185.9640  177.6370  137.4610 C   0  0  0  0  0  2  0  0  0  0  0  0
  184.6490  177.4910  136.6990 C   0  0  0  0  0  2  0  0  0  0  0  0
  185.9530  177.8750  134.5940 C   0  0  0  0  0  2  0  0  0  0  0  0
  187.1990  178.0020  135.4680 C   0  0  0  0  0  2  0  0  0  0  0  0
  1 21  1  6  0  0  0
  1  2  1  0  0  0  0
  2 15  2  0  0  0  0
  2  6  1  0  0  0  0
  3  9  1  6  0  0  0
  3 20  1  0  0  0  0
  3 15  1  0  0  0  0
  4 12  1  0  0  0  0
  6 17  2  0  0  0  0
  7 12  1  0  0  0  0
  8 16  1  0  0  0  0
  9 20  1  0  0  0  0
 10  8  1  0  0  0  0
 11 15  1  6  0  0  0
 11  7  1  0  0  0  0
 11 13  1  0  0  0  0
 12  5  1  1  0  0  0
 13  4  2  0  0  0  0
 14 19  1  1  0  0  0
 14  1  1  0  0  0  0
 14  3  1  0  0  0  0
 17 13  1  0  0  0  0
 18 19  1  0  0  0  0
 19  8  2  0  0  0  0
 20 16  1  6  0  0  0
 22 25  1  0  0  0  0
 23 24  1  0  0  0  0
 23 21  1  0  0  0  0
 25 24  1  0  0  0  0
 26 22  1  0  0  0  0
 26 27  1  0  0  0  0
 27 23  1  0  0  0  0
M  END
>  <MODEL>
9

>  <REMARK>
 VINA RESULT:      -5.9      2.481      6.195
  Name = 
  2 active torsions:
  status: ('A' for Active; 'I' for Inactive)
    1  A    between atoms: C_1  and  C_15
    2  A    between atoms: N_9  and  C_15
                            x       y       z     vdW  Elec       q    Type
                         _______ _______ _______ _____ _____    ______ ____

>  <TORSDO>
F 2

$$$$
