=
 OpenBabel11052416583D

 32 37  0  0  1  0  0  0  0  0999 V2000
  181.8290  179.0240  142.5790 C   0  0  0  0  0  0  0  0  0  0  0  0
  186.6660  178.0060  143.5940 C   0  0  0  0  0  0  0  0  0  0  0  0
  189.1110  178.0010  139.3010 C   0  0  0  0  0  3  0  0  0  0  0  0
  190.2250  177.4850  139.9680 C   0  0  0  0  0  3  0  0  0  0  0  0
  184.3030  178.3570  143.7170 C   0  0  0  0  0  0  0  0  0  0  0  0
  185.3580  178.1650  141.4520 C   0  0  0  0  0  2  0  0  0  0  0  0
  182.9440  178.8020  141.7550 C   0  0  0  0  0  3  0  0  0  0  0  0
  187.9550  178.3170  140.0150 C   0  0  0  0  0  3  0  0  0  0  0  0
  186.6650  178.5290  142.1690 C   0  0  2  0  0  3  0  0  0  0  0  0
  187.8900  178.1040  141.4000 C   0  0  0  0  0  0  0  0  0  0  0  0
  188.9910  177.4100  143.5420 C   0  0  0  0  0  0  0  0  0  0  0  0
  181.9580  178.9010  143.9670 C   0  0  0  0  0  3  0  0  0  0  0  0
  184.1790  178.4800  142.3220 C   0  0  0  0  0  0  0  0  0  0  0  0
  183.1910  178.5640  144.5370 C   0  0  0  0  0  3  0  0  0  0  0  0
  190.1820  177.2920  141.3500 C   0  0  0  0  0  3  0  0  0  0  0  0
  189.0230  177.6050  142.0760 C   0  0  0  0  0  0  0  0  0  0  0  0
  190.1770  176.9860  144.2260 N   0  0  0  0  0  2  0  0  0  0  0  0
  185.5690  178.0040  144.2920 N   0  0  0  0  0  0  0  0  0  0  0  0
  187.8880  177.5890  144.2090 N   0  0  0  0  0  0  0  0  0  0  0  0
  180.3200  180.5110  141.4360 N   0  0  0  0  0  0  0  0  0  0  0  0
  180.5230  179.3720  142.0130 C   0  0  0  0  0  3  0  0  0  0  0  0
  179.0150  180.8250  140.8860 C   0  0  2  0  0  3  0  0  0  0  0  0
  179.0210  180.5550  139.5050 O   0  0  0  0  0  0  0  0  0  0  0  0
  179.1430  181.9030  139.8830 C   0  0  0  0  0  2  0  0  0  0  0  0
  190.2400  176.7930  145.6690 C   0  0  1  0  0  3  0  0  0  0  0  0
  191.6950  176.7720  146.1390 C   0  0  0  0  0  2  0  0  0  0  0  0
  191.9640  175.6530  147.1330 C   0  0  0  0  0  2  0  0  0  0  0  0
  192.8290  176.1100  148.1240 O   0  0  0  0  0  1  0  0  0  0  0  0
  189.4310  177.8700  146.3850 C   0  0  0  0  0  2  0  0  0  0  0  0
  187.4190  178.1470  147.7850 C   0  0  0  0  0  2  0  0  0  0  0  0
  188.6250  178.2070  148.6950 C   0  0  0  0  0  2  0  0  0  0  0  0
  188.6170  177.2620  147.5110 C   0  0  0  0  0  3  0  0  0  0  0  0
  1 12  1  0  0  0  0
  2 19  1  0  0  0  0
  2 18  2  0  0  0  0
  3  4  2  0  0  0  0
  3  8  1  0  0  0  0
  4 15  1  0  0  0  0
  5 18  1  0  0  0  0
  5 14  1  0  0  0  0
  6 13  1  0  0  0  0
  7 13  1  0  0  0  0
  7  1  2  0  0  0  0
  8 10  2  0  0  0  0
  9  6  1  6  0  0  0
  9  2  1  0  0  0  0
 10 16  1  0  0  0  0
 10  9  1  0  0  0  0
 11 19  2  0  0  0  0
 11 17  1  0  0  0  0
 12 14  2  0  0  0  0
 13  5  2  0  0  0  0
 15 16  2  0  0  0  0
 16 11  1  0  0  0  0
 17 25  1  0  0  0  0
 20 21  2  0  0  0  0
 21  1  1  0  0  0  0
 22 20  1  1  0  0  0
 23 24  1  0  0  0  0
 23 22  1  0  0  0  0
 24 22  1  0  0  0  0
 25 26  1  1  0  0  0
 25 29  1  0  0  0  0
 26 27  1  0  0  0  0
 27 28  1  0  0  0  0
 29 32  1  0  0  0  0
 30 31  1  0  0  0  0
 32 30  1  0  0  0  0
 32 31  1  0  0  0  0
M  END
>  <MODEL>
1

>  <REMARK>
 VINA RESULT:      -9.5      0.000      0.000
  Name = 
  7 active torsions:
  status: ('A' for Active; 'I' for Inactive)
    1  A    between atoms: C_1  and  N_10
    2  A    between atoms: C_2  and  C_24
    3  A    between atoms: C_6  and  C_7
    4  A    between atoms: C_7  and  C_32
    5  A    between atoms: C_22  and  C_30
    6  A    between atoms: C_22  and  C_32
    7  A    between atoms: N_27  and  C_32
                            x       y       z     vdW  Elec       q    Type
                         _______ _______ _______ _____ _____    ______ ____

>  <TORSDO>
F 7

$$$$
=
 OpenBabel11052416583D

 32 37  0  0  1  0  0  0  0  0999 V2000
  183.4130  179.3370  139.0990 C   0  0  0  0  0  0  0  0  0  0  0  0
  186.9310  177.9290  142.4320 C   0  0  0  0  0  0  0  0  0  0  0  0
  185.0680  178.6590  146.9490 C   0  0  0  0  0  3  0  0  0  0  0  0
  186.3330  178.4020  147.4820 C   0  0  0  0  0  3  0  0  0  0  0  0
  185.7250  178.4980  140.4450 C   0  0  0  0  0  0  0  0  0  0  0  0
  184.7340  179.1330  142.6590 C   0  0  0  0  0  2  0  0  0  0  0  0
  183.4770  179.4140  140.4990 C   0  0  0  0  0  3  0  0  0  0  0  0
  184.8570  178.5630  145.5730 C   0  0  0  0  0  3  0  0  0  0  0  0
  185.6500  178.0450  143.2370 C   0  0  2  0  0  3  0  0  0  0  0  0
  185.9120  178.2270  144.7110 C   0  0  0  0  0  0  0  0  0  0  0  0
  188.3010  177.5510  144.3660 C   0  0  0  0  0  0  0  0  0  0  0  0
  184.5120  178.8510  138.3810 C   0  0  0  0  0  3  0  0  0  0  0  0
  184.6240  178.9860  141.1710 C   0  0  0  0  0  0  0  0  0  0  0  0
  185.6670  178.4360  139.0510 C   0  0  0  0  0  3  0  0  0  0  0  0
  187.3850  178.0420  146.6370 C   0  0  0  0  0  3  0  0  0  0  0  0
  187.1840  177.9450  145.2520 C   0  0  0  0  0  0  0  0  0  0  0  0
  189.5620  177.1820  144.9380 N   0  0  0  0  0  2  0  0  0  0  0  0
  186.9090  178.0820  141.1400 N   0  0  0  0  0  0  0  0  0  0  0  0
  188.1570  177.5670  143.0730 N   0  0  0  0  0  0  0  0  0  0  0  0
  181.8630  181.0120  138.3320 N   0  0  0  0  0  0  0  0  0  0  0  0
  182.2190  179.7700  138.3670 C   0  0  0  0  0  3  0  0  0  0  0  0
  180.6760  181.4080  137.5970 C   0  0  2  0  0  3  0  0  0  0  0  0
  180.8140  182.7470  137.1880 O   0  0  0  0  0  0  0  0  0  0  0  0
  179.9970  182.5120  138.3070 C   0  0  0  0  0  2  0  0  0  0  0  0
  190.7060  176.7580  144.1410 C   0  0  1  0  0  3  0  0  0  0  0  0
  191.3320  177.9580  143.4300 C   0  0  0  0  0  2  0  0  0  0  0  0
  191.8910  177.5910  142.0640 C   0  0  0  0  0  2  0  0  0  0  0  0
  190.8420  177.4170  141.1640 O   0  0  0  0  0  1  0  0  0  0  0  0
  191.7210  176.0270  145.0160 C   0  0  0  0  0  2  0  0  0  0  0  0
  192.5500  175.7140  147.3170 C   0  0  0  0  0  2  0  0  0  0  0  0
  191.0390  175.6740  147.3630 C   0  0  0  0  0  2  0  0  0  0  0  0
  191.7430  176.6200  146.4110 C   0  0  0  0  0  3  0  0  0  0  0  0
  1  7  1  0  0  0  0
  2 19  1  0  0  0  0
  2  9  1  0  0  0  0
  3  4  1  0  0  0  0
  5 18  1  0  0  0  0
  5 13  1  0  0  0  0
  7 13  2  0  0  0  0
  8  3  2  0  0  0  0
  9  6  1  6  0  0  0
  9 10  1  0  0  0  0
 10 16  2  0  0  0  0
 10  8  1  0  0  0  0
 11 17  1  0  0  0  0
 11 16  1  0  0  0  0
 12 14  1  0  0  0  0
 12  1  2  0  0  0  0
 13  6  1  0  0  0  0
 14  5  2  0  0  0  0
 15  4  2  0  0  0  0
 16 15  1  0  0  0  0
 18  2  2  0  0  0  0
 19 11  2  0  0  0  0
 20 21  2  0  0  0  0
 21  1  1  0  0  0  0
 22 24  1  0  0  0  0
 22 20  1  1  0  0  0
 23 22  1  0  0  0  0
 23 24  1  0  0  0  0
 25 26  1  1  0  0  0
 25 17  1  0  0  0  0
 25 29  1  0  0  0  0
 27 26  1  0  0  0  0
 28 27  1  0  0  0  0
 29 32  1  0  0  0  0
 30 31  1  0  0  0  0
 32 30  1  0  0  0  0
 32 31  1  0  0  0  0
M  END
>  <MODEL>
2

>  <REMARK>
 VINA RESULT:      -8.8      2.482      4.342
  Name = 
  7 active torsions:
  status: ('A' for Active; 'I' for Inactive)
    1  A    between atoms: C_1  and  N_10
    2  A    between atoms: C_2  and  C_24
    3  A    between atoms: C_6  and  C_7
    4  A    between atoms: C_7  and  C_32
    5  A    between atoms: C_22  and  C_30
    6  A    between atoms: C_22  and  C_32
    7  A    between atoms: N_27  and  C_32
                            x       y       z     vdW  Elec       q    Type
                         _______ _______ _______ _____ _____    ______ ____

>  <TORSDO>
F 7

$$$$
=
 OpenBabel11052416583D

 32 37  0  0  1  0  0  0  0  0999 V2000
  191.5600  176.8960  138.8760 C   0  0  0  0  0  0  0  0  0  0  0  0
  187.7040  178.0240  141.9290 C   0  0  0  0  0  0  0  0  0  0  0  0
  189.1600  177.1000  146.5580 C   0  0  0  0  0  3  0  0  0  0  0  0
  187.8430  177.2930  146.9810 C   0  0  0  0  0  3  0  0  0  0  0  0
  189.1070  177.5970  140.0390 C   0  0  0  0  0  0  0  0  0  0  0  0
  189.9070  176.8700  142.3000 C   0  0  0  0  0  2  0  0  0  0  0  0
  191.3690  176.7420  140.2580 C   0  0  0  0  0  3  0  0  0  0  0  0
  189.4950  177.2770  145.2150 C   0  0  0  0  0  3  0  0  0  0  0  0
  188.9070  177.8990  142.8450 C   0  0  2  0  0  3  0  0  0  0  0  0
  188.5150  177.6290  144.2750 C   0  0  0  0  0  0  0  0  0  0  0  0
  186.1470  178.2580  143.7410 C   0  0  0  0  0  0  0  0  0  0  0  0
  190.5180  177.3910  138.0830 C   0  0  0  0  0  3  0  0  0  0  0  0
  190.1510  177.1010  140.8390 C   0  0  0  0  0  0  0  0  0  0  0  0
  189.2920  177.7370  138.6610 C   0  0  0  0  0  3  0  0  0  0  0  0
  186.8630  177.6690  146.0600 C   0  0  0  0  0  3  0  0  0  0  0  0
  187.1890  177.8470  144.7080 C   0  0  0  0  0  0  0  0  0  0  0  0
  184.8280  178.5610  144.2090 N   0  0  0  0  0  2  0  0  0  0  0  0
  187.8510  177.9420  140.6380 N   0  0  0  0  0  0  0  0  0  0  0  0
  186.4120  178.3170  142.4690 N   0  0  0  0  0  0  0  0  0  0  0  0
  192.8780  176.1240  137.0150 N   0  0  0  0  0  0  0  0  0  0  0  0
  192.8310  176.5370  138.2390 C   0  0  0  0  0  3  0  0  0  0  0  0
  194.1530  175.7770  136.4130 C   0  0  2  0  0  3  0  0  0  0  0  0
  194.8390  176.9590  136.0780 O   0  0  0  0  0  0  0  0  0  0  0  0
  194.2010  176.2810  135.0250 C   0  0  0  0  0  2  0  0  0  0  0  0
  183.7490  178.9960  143.3310 C   0  0  1  0  0  3  0  0  0  0  0  0
  183.6860  178.1080  142.0880 C   0  0  0  0  0  2  0  0  0  0  0  0
  183.3350  178.8950  140.8340 C   0  0  0  0  0  2  0  0  0  0  0  0
  184.4830  179.5020  140.3300 O   0  0  0  0  0  1  0  0  0  0  0  0
  182.4230  179.0080  144.0840 C   0  0  0  0  0  2  0  0  0  0  0  0
  180.2150  179.6750  143.2100 C   0  0  0  0  0  2  0  0  0  0  0  0
  180.0330  178.3910  143.9880 C   0  0  0  0  0  2  0  0  0  0  0  0
  181.2860  178.6060  143.1640 C   0  0  0  0  0  3  0  0  0  0  0  0
  1  7  1  0  0  0  0
  2 19  1  0  0  0  0
  2  9  1  0  0  0  0
  3  4  1  0  0  0  0
  5 18  1  0  0  0  0
  5 13  1  0  0  0  0
  7 13  2  0  0  0  0
  8  3  2  0  0  0  0
  9  6  1  6  0  0  0
  9 10  1  0  0  0  0
 10 16  2  0  0  0  0
 10  8  1  0  0  0  0
 11 17  1  0  0  0  0
 11 16  1  0  0  0  0
 12 14  1  0  0  0  0
 12  1  2  0  0  0  0
 13  6  1  0  0  0  0
 14  5  2  0  0  0  0
 15  4  2  0  0  0  0
 16 15  1  0  0  0  0
 18  2  2  0  0  0  0
 19 11  2  0  0  0  0
 20 21  2  0  0  0  0
 21  1  1  0  0  0  0
 22 20  1  1  0  0  0
 23 22  1  0  0  0  0
 24 23  1  0  0  0  0
 24 22  1  0  0  0  0
 25 26  1  6  0  0  0
 25 29  1  0  0  0  0
 25 17  1  0  0  0  0
 27 26  1  0  0  0  0
 28 27  1  0  0  0  0
 30 31  1  0  0  0  0
 32 30  1  0  0  0  0
 32 31  1  0  0  0  0
 32 29  1  0  0  0  0
M  END
>  <MODEL>
3

>  <REMARK>
 VINA RESULT:      -8.8      3.414      9.088
  Name = 
  7 active torsions:
  status: ('A' for Active; 'I' for Inactive)
    1  A    between atoms: C_1  and  N_10
    2  A    between atoms: C_2  and  C_24
    3  A    between atoms: C_6  and  C_7
    4  A    between atoms: C_7  and  C_32
    5  A    between atoms: C_22  and  C_30
    6  A    between atoms: C_22  and  C_32
    7  A    between atoms: N_27  and  C_32
                            x       y       z     vdW  Elec       q    Type
                         _______ _______ _______ _____ _____    ______ ____

>  <TORSDO>
F 7

$$$$
=
 OpenBabel11052416583D

 32 37  0  0  1  0  0  0  0  0999 V2000
  191.2400  176.5450  137.4290 C   0  0  0  0  0  0  0  0  0  0  0  0
  188.5520  177.5280  141.5840 C   0  0  0  0  0  0  0  0  0  0  0  0
  191.5500  176.9310  145.4650 C   0  0  0  0  0  3  0  0  0  0  0  0
  190.4400  177.0460  146.3040 C   0  0  0  0  0  3  0  0  0  0  0  0
  189.2700  177.1180  139.3390 C   0  0  0  0  0  0  0  0  0  0  0  0
  190.8420  176.5570  141.2100 C   0  0  0  0  0  2  0  0  0  0  0  0
  191.5380  176.4420  138.7960 C   0  0  0  0  0  3  0  0  0  0  0  0
  191.3990  177.0690  144.0840 C   0  0  0  0  0  3  0  0  0  0  0  0
  189.9990  177.5350  142.0410 C   0  0  2  0  0  3  0  0  0  0  0  0
  190.1340  177.3040  143.5250 C   0  0  0  0  0  0  0  0  0  0  0  0
  187.6800  177.7320  143.8110 C   0  0  0  0  0  0  0  0  0  0  0  0
  189.9550  176.9240  137.0250 C   0  0  0  0  0  3  0  0  0  0  0  0
  190.5600  176.7370  139.7480 C   0  0  0  0  0  0  0  0  0  0  0  0
  188.9690  177.2060  137.9780 C   0  0  0  0  0  3  0  0  0  0  0  0
  189.1800  177.3060  145.7620 C   0  0  0  0  0  3  0  0  0  0  0  0
  189.0170  177.4440  144.3760 C   0  0  0  0  0  0  0  0  0  0  0  0
  186.5740  177.9580  144.6930 N   0  0  0  0  0  2  0  0  0  0  0  0
  188.2640  177.3970  140.3220 N   0  0  0  0  0  0  0  0  0  0  0  0
  187.4970  177.7500  142.5230 N   0  0  0  0  0  0  0  0  0  0  0  0
  193.5020  176.5030  136.6020 N   0  0  0  0  0  0  0  0  0  0  0  0
  192.2490  176.2510  136.4060 C   0  0  0  0  0  3  0  0  0  0  0  0
  194.4750  176.1990  135.5700 C   0  0  2  0  0  3  0  0  0  0  0  0
  195.7690  176.3450  136.1020 O   0  0  0  0  0  0  0  0  0  0  0  0
  195.2980  177.3950  135.2940 C   0  0  0  0  0  2  0  0  0  0  0  0
  185.2300  178.2720  144.2220 C   0  0  1  0  0  3  0  0  0  0  0  0
  184.3270  178.6370  145.4010 C   0  0  0  0  0  2  0  0  0  0  0  0
  185.0010  178.3890  146.7420 C   0  0  0  0  0  2  0  0  0  0  0  0
  185.4800  179.5940  147.2510 O   0  0  0  0  0  1  0  0  0  0  0  0
  185.2780  179.3860  143.1810 C   0  0  0  0  0  2  0  0  0  0  0  0
  184.1250  177.9020  141.5830 C   0  0  0  0  0  2  0  0  0  0  0  0
  184.6260  179.1060  140.8160 C   0  0  0  0  0  2  0  0  0  0  0  0
  184.1040  179.2720  142.2280 C   0  0  0  0  0  3  0  0  0  0  0  0
  1  7  1  0  0  0  0
  2  9  1  0  0  0  0
  2 19  1  0  0  0  0
  3  4  1  0  0  0  0
  5 13  1  0  0  0  0
  5 18  1  0  0  0  0
  7 13  2  0  0  0  0
  8  3  2  0  0  0  0
  9  6  1  6  0  0  0
  9 10  1  0  0  0  0
 10  8  1  0  0  0  0
 10 16  2  0  0  0  0
 11 16  1  0  0  0  0
 11 17  1  0  0  0  0
 12  1  2  0  0  0  0
 12 14  1  0  0  0  0
 13  6  1  0  0  0  0
 14  5  2  0  0  0  0
 15  4  2  0  0  0  0
 16 15  1  0  0  0  0
 18  2  2  0  0  0  0
 19 11  2  0  0  0  0
 21 20  2  0  0  0  0
 21  1  1  0  0  0  0
 22 23  1  0  0  0  0
 22 20  1  1  0  0  0
 24 22  1  0  0  0  0
 24 23  1  0  0  0  0
 25 29  1  6  0  0  0
 25 17  1  0  0  0  0
 25 26  1  0  0  0  0
 26 27  1  0  0  0  0
 27 28  1  0  0  0  0
 30 32  1  0  0  0  0
 31 30  1  0  0  0  0
 31 32  1  0  0  0  0
 32 29  1  0  0  0  0
M  END
>  <MODEL>
4

>  <REMARK>
 VINA RESULT:      -8.8      3.809      8.768
  Name = 
  7 active torsions:
  status: ('A' for Active; 'I' for Inactive)
    1  A    between atoms: C_1  and  N_10
    2  A    between atoms: C_2  and  C_24
    3  A    between atoms: C_6  and  C_7
    4  A    between atoms: C_7  and  C_32
    5  A    between atoms: C_22  and  C_30
    6  A    between atoms: C_22  and  C_32
    7  A    between atoms: N_27  and  C_32
                            x       y       z     vdW  Elec       q    Type
                         _______ _______ _______ _____ _____    ______ ____

>  <TORSDO>
F 7

$$$$
=
 OpenBabel11052416583D

 32 37  0  0  1  0  0  0  0  0999 V2000
  188.1830  177.8130  145.0040 C   0  0  0  0  0  0  0  0  0  0  0  0
  184.4270  178.6310  141.7360 C   0  0  0  0  0  0  0  0  0  0  0  0
  180.2480  179.0030  144.3440 C   0  0  0  0  0  3  0  0  0  0  0  0
  179.5310  178.9760  143.1460 C   0  0  0  0  0  3  0  0  0  0  0  0
  186.5360  178.1620  142.7630 C   0  0  0  0  0  0  0  0  0  0  0  0
  184.4790  178.1000  144.1940 C   0  0  0  0  0  2  0  0  0  0  0  0
  186.7910  177.8990  145.1630 C   0  0  0  0  0  3  0  0  0  0  0  0
  181.6430  178.9790  144.3230 C   0  0  0  0  0  3  0  0  0  0  0  0
  183.8440  178.9650  143.0960 C   0  0  2  0  0  3  0  0  0  0  0  0
  182.3380  178.9060  143.1060 C   0  0  0  0  0  0  0  0  0  0  0  0
  182.3260  178.8660  140.5990 C   0  0  0  0  0  0  0  0  0  0  0  0
  188.7410  177.8910  143.7240 C   0  0  0  0  0  3  0  0  0  0  0  0
  185.9710  178.0840  144.0470 C   0  0  0  0  0  0  0  0  0  0  0  0
  187.9200  178.0610  142.6030 C   0  0  0  0  0  3  0  0  0  0  0  0
  180.2110  178.9290  141.9270 C   0  0  0  0  0  3  0  0  0  0  0  0
  181.6130  178.9020  141.8960 C   0  0  0  0  0  0  0  0  0  0  0  0
  181.5800  178.9520  139.3790 N   0  0  0  0  0  2  0  0  0  0  0  0
  185.6870  178.3280  141.6190 N   0  0  0  0  0  0  0  0  0  0  0  0
  183.6180  178.7270  140.5600 N   0  0  0  0  0  0  0  0  0  0  0  0
  189.9490  176.6820  146.1870 N   0  0  0  0  0  0  0  0  0  0  0  0
  189.0690  177.6290  146.1570 C   0  0  0  0  0  3  0  0  0  0  0  0
  190.8120  176.5270  147.3430 C   0  0  2  0  0  3  0  0  0  0  0  0
  192.0550  177.1280  147.0720 O   0  0  0  0  0  0  0  0  0  0  0  0
  191.9980  175.7260  146.9760 C   0  0  0  0  0  2  0  0  0  0  0  0
  182.2020  178.9480  138.0620 C   0  0  1  0  0  3  0  0  0  0  0  0
  182.1230  177.5540  137.4400 C   0  0  0  0  0  2  0  0  0  0  0  0
  183.4920  176.9040  137.3050 C   0  0  0  0  0  2  0  0  0  0  0  0
  184.4820  177.8550  137.5410 O   0  0  0  0  0  1  0  0  0  0  0  0
  181.5570  180.0030  137.1670 C   0  0  0  0  0  2  0  0  0  0  0  0
  179.9600  181.8790  137.0540 C   0  0  0  0  0  2  0  0  0  0  0  0
  181.1800  182.3580  137.8080 C   0  0  0  0  0  2  0  0  0  0  0  0
  180.6890  180.9360  137.9880 C   0  0  0  0  0  3  0  0  0  0  0  0
  1  7  1  0  0  0  0
  1 21  1  0  0  0  0
  2  9  1  0  0  0  0
  4  3  2  0  0  0  0
  5 13  1  0  0  0  0
  8  3  1  0  0  0  0
  9 10  1  0  0  0  0
  9  6  1  1  0  0  0
 10  8  2  0  0  0  0
 11 16  1  0  0  0  0
 12  1  2  0  0  0  0
 13  6  1  0  0  0  0
 13  7  2  0  0  0  0
 14  5  2  0  0  0  0
 14 12  1  0  0  0  0
 15  4  1  0  0  0  0
 16 15  2  0  0  0  0
 16 10  1  0  0  0  0
 17 11  1  0  0  0  0
 18  2  2  0  0  0  0
 18  5  1  0  0  0  0
 19 11  2  0  0  0  0
 19  2  1  0  0  0  0
 21 20  2  0  0  0  0
 22 20  1  6  0  0  0
 23 22  1  0  0  0  0
 24 23  1  0  0  0  0
 24 22  1  0  0  0  0
 25 29  1  6  0  0  0
 25 17  1  0  0  0  0
 26 25  1  0  0  0  0
 27 26  1  0  0  0  0
 27 28  1  0  0  0  0
 29 32  1  0  0  0  0
 30 31  1  0  0  0  0
 30 32  1  0  0  0  0
 31 32  1  0  0  0  0
M  END
>  <MODEL>
5

>  <REMARK>
 VINA RESULT:      -8.3      2.486      9.885
  Name = 
  7 active torsions:
  status: ('A' for Active; 'I' for Inactive)
    1  A    between atoms: C_1  and  N_10
    2  A    between atoms: C_2  and  C_24
    3  A    between atoms: C_6  and  C_7
    4  A    between atoms: C_7  and  C_32
    5  A    between atoms: C_22  and  C_30
    6  A    between atoms: C_22  and  C_32
    7  A    between atoms: N_27  and  C_32
                            x       y       z     vdW  Elec       q    Type
                         _______ _______ _______ _____ _____    ______ ____

>  <TORSDO>
F 7

$$$$
=
 OpenBabel11052416583D

 32 37  0  0  1  0  0  0  0  0999 V2000
  189.7180  177.6560  143.3130 C   0  0  0  0  0  0  0  0  0  0  0  0
  185.2940  178.7220  141.1330 C   0  0  0  0  0  0  0  0  0  0  0  0
  181.8340  178.5870  144.6580 C   0  0  0  0  0  3  0  0  0  0  0  0
  180.8580  178.6810  143.6640 C   0  0  0  0  0  3  0  0  0  0  0  0
  187.5900  178.2160  141.5770 C   0  0  0  0  0  0  0  0  0  0  0  0
  185.9240  177.8880  143.4210 C   0  0  0  0  0  2  0  0  0  0  0  0
  188.4010  177.6630  143.7970 C   0  0  0  0  0  3  0  0  0  0  0  0
  183.1870  178.6240  144.3140 C   0  0  0  0  0  3  0  0  0  0  0  0
  185.0410  178.8570  142.6230 C   0  0  2  0  0  3  0  0  0  0  0  0
  183.5790  178.7350  142.9720 C   0  0  0  0  0  0  0  0  0  0  0  0
  182.9830  179.0110  140.5520 C   0  0  0  0  0  0  0  0  0  0  0  0
  189.9610  177.9190  141.9610 C   0  0  0  0  0  3  0  0  0  0  0  0
  187.3410  177.9530  142.9350 C   0  0  0  0  0  0  0  0  0  0  0  0
  188.9000  178.1940  141.0920 C   0  0  0  0  0  3  0  0  0  0  0  0
  181.2360  178.8170  142.3260 C   0  0  0  0  0  3  0  0  0  0  0  0
  182.5920  178.8530  141.9700 C   0  0  0  0  0  0  0  0  0  0  0  0
  181.9720  179.2180  139.5580 N   0  0  0  0  0  2  0  0  0  0  0  0
  186.4950  178.4890  140.6910 N   0  0  0  0  0  0  0  0  0  0  0  0
  184.2320  178.9320  140.1980 N   0  0  0  0  0  0  0  0  0  0  0  0
  190.6750  177.0590  145.4410 N   0  0  0  0  0  0  0  0  0  0  0  0
  190.8510  177.3650  144.1970 C   0  0  0  0  0  3  0  0  0  0  0  0
  191.8180  176.7760  146.2880 C   0  0  2  0  0  3  0  0  0  0  0  0
  192.0880  175.3960  146.2510 O   0  0  0  0  0  0  0  0  0  0  0  0
  191.4120  175.8750  147.3870 C   0  0  0  0  0  2  0  0  0  0  0  0
  182.2700  179.4070  138.1440 C   0  0  1  0  0  3  0  0  0  0  0  0
  182.1640  178.0770  137.3970 C   0  0  0  0  0  2  0  0  0  0  0  0
  183.5290  177.4950  137.0620 C   0  0  0  0  0  2  0  0  0  0  0  0
  183.7520  176.3580  137.8350 O   0  0  0  0  0  1  0  0  0  0  0  0
  181.3500  180.4660  137.5450 C   0  0  0  0  0  2  0  0  0  0  0  0
  180.0740  182.1960  138.7550 C   0  0  0  0  0  2  0  0  0  0  0  0
  180.7320  182.8570  137.5640 C   0  0  0  0  0  2  0  0  0  0  0  0
  181.4590  181.7640  138.3210 C   0  0  0  0  0  3  0  0  0  0  0  0
  1  7  1  0  0  0  0
  1 21  1  0  0  0  0
  2  9  1  0  0  0  0
  4  3  2  0  0  0  0
  5 13  1  0  0  0  0
  8  3  1  0  0  0  0
  9 10  1  0  0  0  0
  9  6  1  1  0  0  0
 10  8  2  0  0  0  0
 11 16  1  0  0  0  0
 12  1  2  0  0  0  0
 13  6  1  0  0  0  0
 13  7  2  0  0  0  0
 14  5  2  0  0  0  0
 14 12  1  0  0  0  0
 15  4  1  0  0  0  0
 16 15  2  0  0  0  0
 16 10  1  0  0  0  0
 17 11  1  0  0  0  0
 18  2  2  0  0  0  0
 18  5  1  0  0  0  0
 19 11  2  0  0  0  0
 19  2  1  0  0  0  0
 21 20  2  0  0  0  0
 22 20  1  6  0  0  0
 22 24  1  0  0  0  0
 23 22  1  0  0  0  0
 23 24  1  0  0  0  0
 25 26  1  6  0  0  0
 25 17  1  0  0  0  0
 27 26  1  0  0  0  0
 27 28  1  0  0  0  0
 29 25  1  0  0  0  0
 29 32  1  0  0  0  0
 31 32  1  0  0  0  0
 31 30  1  0  0  0  0
 32 30  1  0  0  0  0
M  END
>  <MODEL>
6

>  <REMARK>
 VINA RESULT:      -8.2      2.456      9.824
  Name = 
  7 active torsions:
  status: ('A' for Active; 'I' for Inactive)
    1  A    between atoms: C_1  and  N_10
    2  A    between atoms: C_2  and  C_24
    3  A    between atoms: C_6  and  C_7
    4  A    between atoms: C_7  and  C_32
    5  A    between atoms: C_22  and  C_30
    6  A    between atoms: C_22  and  C_32
    7  A    between atoms: N_27  and  C_32
                            x       y       z     vdW  Elec       q    Type
                         _______ _______ _______ _____ _____    ______ ____

>  <TORSDO>
F 7

$$$$
=
 OpenBabel11052416583D

 32 37  0  0  1  0  0  0  0  0999 V2000
  182.9600  178.8310  142.7690 C   0  0  0  0  0  0  0  0  0  0  0  0
  187.8600  177.8480  142.0700 C   0  0  0  0  0  0  0  0  0  0  0  0
  189.8570  177.0380  146.5160 C   0  0  0  0  0  3  0  0  0  0  0  0
  191.1200  177.0560  145.9200 C   0  0  0  0  0  3  0  0  0  0  0  0
  185.5590  178.4430  141.7920 C   0  0  0  0  0  0  0  0  0  0  0  0
  186.4710  178.2810  144.1220 C   0  0  0  0  0  2  0  0  0  0  0  0
  184.0230  178.6280  143.6630 C   0  0  0  0  0  3  0  0  0  0  0  0
  188.7120  177.1740  145.7280 C   0  0  0  0  0  3  0  0  0  0  0  0
  187.5710  177.4130  143.4950 C   0  0  2  0  0  3  0  0  0  0  0  0
  188.8170  177.3510  144.3410 C   0  0  0  0  0  0  0  0  0  0  0  0
  190.2250  177.4910  142.2710 C   0  0  0  0  0  0  0  0  0  0  0  0
  183.2070  178.8490  141.3910 C   0  0  0  0  0  3  0  0  0  0  0  0
  185.3160  178.4230  143.1770 C   0  0  0  0  0  0  0  0  0  0  0  0
  184.5040  178.6600  140.9030 C   0  0  0  0  0  3  0  0  0  0  0  0
  191.2370  177.2060  144.5370 C   0  0  0  0  0  3  0  0  0  0  0  0
  190.0930  177.3460  143.7380 C   0  0  0  0  0  0  0  0  0  0  0  0
  191.5200  177.3960  141.6650 N   0  0  0  0  0  2  0  0  0  0  0  0
  186.8930  178.2550  141.3000 N   0  0  0  0  0  0  0  0  0  0  0  0
  189.1810  177.7350  141.5340 N   0  0  0  0  0  0  0  0  0  0  0  0
  180.5670  178.7510  142.5140 N   0  0  0  0  0  0  0  0  0  0  0  0
  181.5910  179.0390  143.2490 C   0  0  0  0  0  3  0  0  0  0  0  0
  179.2250  178.9670  143.0190 C   0  0  2  0  0  3  0  0  0  0  0  0
  179.2150  180.1270  143.8150 O   0  0  0  0  0  0  0  0  0  0  0  0
  179.2310  178.8970  144.4950 C   0  0  0  0  0  2  0  0  0  0  0  0
  191.7380  177.5030  140.2280 C   0  0  1  0  0  3  0  0  0  0  0  0
  193.1820  177.1390  139.8810 C   0  0  0  0  0  2  0  0  0  0  0  0
  193.2670  176.1630  138.7170 C   0  0  0  0  0  2  0  0  0  0  0  0
  193.7570  176.8240  137.5930 O   0  0  0  0  0  1  0  0  0  0  0  0
  190.7390  176.6310  139.4730 C   0  0  0  0  0  2  0  0  0  0  0  0
  188.7200  176.7640  138.0630 C   0  0  0  0  0  2  0  0  0  0  0  0
  189.9120  176.5980  137.1470 C   0  0  0  0  0  2  0  0  0  0  0  0
  190.0330  177.4380  138.4010 C   0  0  0  0  0  3  0  0  0  0  0  0
  1 21  1  0  0  0  0
  1  7  1  0  0  0  0
  2  9  1  0  0  0  0
  4  3  1  0  0  0  0
  5 13  1  0  0  0  0
  8  3  2  0  0  0  0
  9  6  1  1  0  0  0
  9 10  1  0  0  0  0
 10  8  1  0  0  0  0
 11 16  1  0  0  0  0
 12  1  2  0  0  0  0
 13  7  2  0  0  0  0
 13  6  1  0  0  0  0
 14 12  1  0  0  0  0
 14  5  2  0  0  0  0
 15  4  2  0  0  0  0
 16 10  2  0  0  0  0
 16 15  1  0  0  0  0
 17 11  1  0  0  0  0
 18  5  1  0  0  0  0
 18  2  2  0  0  0  0
 19  2  1  0  0  0  0
 19 11  2  0  0  0  0
 20 21  2  0  0  0  0
 22 20  1  6  0  0  0
 22 23  1  0  0  0  0
 22 24  1  0  0  0  0
 23 24  1  0  0  0  0
 25 29  1  6  0  0  0
 25 17  1  0  0  0  0
 26 25  1  0  0  0  0
 27 26  1  0  0  0  0
 28 27  1  0  0  0  0
 30 32  1  0  0  0  0
 31 30  1  0  0  0  0
 31 32  1  0  0  0  0
 32 29  1  0  0  0  0
M  END
>  <MODEL>
7

>  <REMARK>
 VINA RESULT:      -8.1      2.706      5.387
  Name = 
  7 active torsions:
  status: ('A' for Active; 'I' for Inactive)
    1  A    between atoms: C_1  and  N_10
    2  A    between atoms: C_2  and  C_24
    3  A    between atoms: C_6  and  C_7
    4  A    between atoms: C_7  and  C_32
    5  A    between atoms: C_22  and  C_30
    6  A    between atoms: C_22  and  C_32
    7  A    between atoms: N_27  and  C_32
                            x       y       z     vdW  Elec       q    Type
                         _______ _______ _______ _____ _____    ______ ____

>  <TORSDO>
F 7

$$$$
=
 OpenBabel11052416583D

 32 37  0  0  1  0  0  0  0  0999 V2000
  182.1990  179.2500  139.0240 C   0  0  0  0  0  0  0  0  0  0  0  0
  186.1680  178.2000  141.9570 C   0  0  0  0  0  0  0  0  0  0  0  0
  190.1340  177.8860  139.0270 C   0  0  0  0  0  3  0  0  0  0  0  0
  190.8610  177.3900  140.1110 C   0  0  0  0  0  3  0  0  0  0  0  0
  183.9730  178.6050  141.0960 C   0  0  0  0  0  0  0  0  0  0  0  0
  185.8430  178.2550  139.4630 C   0  0  0  0  0  2  0  0  0  0  0  0
  183.5410  178.9560  138.7330 C   0  0  0  0  0  3  0  0  0  0  0  0
  188.8020  178.2680  139.1960 C   0  0  0  0  0  3  0  0  0  0  0  0
  186.7640  178.6360  140.6310 C   0  0  2  0  0  3  0  0  0  0  0  0
  188.1760  178.1410  140.4440 C   0  0  0  0  0  0  0  0  0  0  0  0
  188.2890  177.5560  142.8790 C   0  0  0  0  0  0  0  0  0  0  0  0
  181.7520  179.2090  140.3490 C   0  0  0  0  0  3  0  0  0  0  0  0
  184.4270  178.6450  139.7660 C   0  0  0  0  0  0  0  0  0  0  0  0
  182.6350  178.8830  141.3840 C   0  0  0  0  0  3  0  0  0  0  0  0
  190.2560  177.2820  141.3650 C   0  0  0  0  0  3  0  0  0  0  0  0
  188.9180  177.6610  141.5440 C   0  0  0  0  0  0  0  0  0  0  0  0
  189.0790  177.1510  144.0040 N   0  0  0  0  0  2  0  0  0  0  0  0
  184.8830  178.2620  142.1500 N   0  0  0  0  0  0  0  0  0  0  0  0
  187.0200  177.7970  143.0330 N   0  0  0  0  0  0  0  0  0  0  0  0
  181.0590  180.8130  137.5910 N   0  0  0  0  0  0  0  0  0  0  0  0
  181.2480  179.5890  137.9610 C   0  0  0  0  0  3  0  0  0  0  0  0
  180.1100  181.1160  136.5350 C   0  0  2  0  0  3  0  0  0  0  0  0
  180.8060  181.2770  135.3240 O   0  0  0  0  0  0  0  0  0  0  0  0
  180.3970  182.4530  135.9760 C   0  0  0  0  0  2  0  0  0  0  0  0
  188.5470  177.0450  145.3560 C   0  0  1  0  0  3  0  0  0  0  0  0
  189.6860  176.8840  146.3640 C   0  0  0  0  0  2  0  0  0  0  0  0
  191.0490  177.1350  145.7370 C   0  0  0  0  0  2  0  0  0  0  0  0
  191.9590  176.1920  146.2100 O   0  0  0  0  0  1  0  0  0  0  0  0
  187.6730  178.2520  145.6790 C   0  0  0  0  0  2  0  0  0  0  0  0
  185.2680  178.7510  145.9040 C   0  0  0  0  0  2  0  0  0  0  0  0
  185.8970  178.8940  147.2710 C   0  0  0  0  0  2  0  0  0  0  0  0
  186.3750  177.8100  146.3280 C   0  0  0  0  0  3  0  0  0  0  0  0
  1 12  1  0  0  0  0
  2 18  2  0  0  0  0
  2 19  1  0  0  0  0
  3  8  2  0  0  0  0
  3  4  1  0  0  0  0
  4 15  2  0  0  0  0
  5 14  1  0  0  0  0
  5 18  1  0  0  0  0
  6 13  1  0  0  0  0
  7  1  2  0  0  0  0
  7 13  1  0  0  0  0
  8 10  1  0  0  0  0
  9  6  1  6  0  0  0
  9  2  1  0  0  0  0
 10  9  1  0  0  0  0
 10 16  2  0  0  0  0
 11 19  2  0  0  0  0
 11 17  1  0  0  0  0
 12 14  2  0  0  0  0
 13  5  2  0  0  0  0
 15 16  1  0  0  0  0
 16 11  1  0  0  0  0
 17 25  1  0  0  0  0
 20 21  2  0  0  0  0
 21  1  1  0  0  0  0
 22 20  1  1  0  0  0
 23 24  1  0  0  0  0
 23 22  1  0  0  0  0
 24 22  1  0  0  0  0
 25 29  1  1  0  0  0
 25 26  1  0  0  0  0
 27 28  1  0  0  0  0
 27 26  1  0  0  0  0
 29 32  1  0  0  0  0
 30 32  1  0  0  0  0
 30 31  1  0  0  0  0
 32 31  1  0  0  0  0
M  END
>  <MODEL>
8

>  <REMARK>
 VINA RESULT:      -8.0      2.164      2.618
  Name = 
  7 active torsions:
  status: ('A' for Active; 'I' for Inactive)
    1  A    between atoms: C_1  and  N_10
    2  A    between atoms: C_2  and  C_24
    3  A    between atoms: C_6  and  C_7
    4  A    between atoms: C_7  and  C_32
    5  A    between atoms: C_22  and  C_30
    6  A    between atoms: C_22  and  C_32
    7  A    between atoms: N_27  and  C_32
                            x       y       z     vdW  Elec       q    Type
                         _______ _______ _______ _____ _____    ______ ____

>  <TORSDO>
F 7

$$$$
=
 OpenBabel11052416583D

 32 37  0  0  1  0  0  0  0  0999 V2000
  189.9280  177.7640  139.2330 C   0  0  0  0  0  0  0  0  0  0  0  0
  185.1250  178.7540  140.4200 C   0  0  0  0  0  0  0  0  0  0  0  0
  184.8210  178.9240  145.3480 C   0  0  0  0  0  3  0  0  0  0  0  0
  183.4300  178.9660  145.2330 C   0  0  0  0  0  3  0  0  0  0  0  0
  187.1660  178.2390  139.2830 C   0  0  0  0  0  0  0  0  0  0  0  0
  187.1250  178.0690  141.7840 C   0  0  0  0  0  2  0  0  0  0  0  0
  189.2490  177.8270  140.4600 C   0  0  0  0  0  3  0  0  0  0  0  0
  185.6170  178.9130  144.2010 C   0  0  0  0  0  3  0  0  0  0  0  0
  185.9040  178.9970  141.6990 C   0  0  2  0  0  3  0  0  0  0  0  0
  185.0320  178.9240  142.9270 C   0  0  0  0  0  0  0  0  0  0  0  0
  182.9890  179.0420  141.4770 C   0  0  0  0  0  0  0  0  0  0  0  0
  189.2180  177.9280  138.0380 C   0  0  0  0  0  3  0  0  0  0  0  0
  187.8750  178.0750  140.4860 C   0  0  0  0  0  0  0  0  0  0  0  0
  187.8390  178.1610  138.0610 C   0  0  0  0  0  3  0  0  0  0  0  0
  182.8360  179.0030  143.9700 C   0  0  0  0  0  3  0  0  0  0  0  0
  183.6270  178.9900  142.8120 C   0  0  0  0  0  0  0  0  0  0  0  0
  181.5680  179.1980  141.3780 N   0  0  0  0  0  2  0  0  0  0  0  0
  185.7510  178.4700  139.3150 N   0  0  0  0  0  0  0  0  0  0  0  0
  183.7040  178.9170  140.3980 N   0  0  0  0  0  0  0  0  0  0  0  0
  191.8660  176.5780  138.4330 N   0  0  0  0  0  0  0  0  0  0  0  0
  191.3720  177.5150  139.1750 C   0  0  0  0  0  3  0  0  0  0  0  0
  193.2990  176.3590  138.3970 C   0  0  2  0  0  3  0  0  0  0  0  0
  193.7930  176.7530  137.1400 O   0  0  0  0  0  0  0  0  0  0  0  0
  193.6250  175.3730  137.3460 C   0  0  0  0  0  2  0  0  0  0  0  0
  180.8620  179.2830  140.1060 C   0  0  1  0  0  3  0  0  0  0  0  0
  179.7800  178.2060  140.0260 C   0  0  0  0  0  2  0  0  0  0  0  0
  180.2390  176.9840  139.2460 C   0  0  0  0  0  2  0  0  0  0  0  0
  180.7890  176.0520  140.1240 O   0  0  0  0  0  1  0  0  0  0  0  0
  180.2840  180.6820  139.9120 C   0  0  0  0  0  2  0  0  0  0  0  0
  181.5370  182.0030  138.2490 C   0  0  0  0  0  2  0  0  0  0  0  0
  180.1430  182.5830  138.3420 C   0  0  0  0  0  2  0  0  0  0  0  0
  180.3490  181.0860  138.4520 C   0  0  0  0  0  3  0  0  0  0  0  0
  1  7  1  0  0  0  0
  2  9  1  0  0  0  0
  4  3  1  0  0  0  0
  5 18  1  0  0  0  0
  5 13  1  0  0  0  0
  7 13  2  0  0  0  0
  8  3  2  0  0  0  0
  9  6  1  1  0  0  0
  9 10  1  0  0  0  0
 10  8  1  0  0  0  0
 11 16  1  0  0  0  0
 12 14  1  0  0  0  0
 12  1  2  0  0  0  0
 13  6  1  0  0  0  0
 14  5  2  0  0  0  0
 15  4  2  0  0  0  0
 16 10  2  0  0  0  0
 16 15  1  0  0  0  0
 17 11  1  0  0  0  0
 18  2  2  0  0  0  0
 19  2  1  0  0  0  0
 19 11  2  0  0  0  0
 20 21  2  0  0  0  0
 21  1  1  0  0  0  0
 22 20  1  6  0  0  0
 23 24  1  0  0  0  0
 23 22  1  0  0  0  0
 24 22  1  0  0  0  0
 25 29  1  1  0  0  0
 25 17  1  0  0  0  0
 26 25  1  0  0  0  0
 27 26  1  0  0  0  0
 27 28  1  0  0  0  0
 30 31  1  0  0  0  0
 30 32  1  0  0  0  0
 31 32  1  0  0  0  0
 32 29  1  0  0  0  0
M  END
>  <MODEL>
9

>  <REMARK>
 VINA RESULT:      -7.9      3.841      9.929
  Name = 
  7 active torsions:
  status: ('A' for Active; 'I' for Inactive)
    1  A    between atoms: C_1  and  N_10
    2  A    between atoms: C_2  and  C_24
    3  A    between atoms: C_6  and  C_7
    4  A    between atoms: C_7  and  C_32
    5  A    between atoms: C_22  and  C_30
    6  A    between atoms: C_22  and  C_32
    7  A    between atoms: N_27  and  C_32
                            x       y       z     vdW  Elec       q    Type
                         _______ _______ _______ _____ _____    ______ ____

>  <TORSDO>
F 7

$$$$
