=
 OpenBabel11052414493D

 55 62  0  0  1  0  0  0  0  0999 V2000
  184.4180  176.9150  136.4460 C   0  0  0  0  0  2  0  0  0  0  0  0
  186.0140  178.8370  140.9530 C   0  0  0  0  0  2  0  0  0  0  0  0
  183.5220  177.1290  141.2350 O   0  0  0  0  0  1  0  0  0  0  0  0
  180.5880  174.2790  140.3840 C   0  0  0  0  0  2  0  0  0  0  0  0
  179.2520  173.9390  139.7510 C   0  0  0  0  0  3  0  0  0  0  0  0
  180.1800  176.5790  139.3430 C   0  0  0  0  0  2  0  0  0  0  0  0
  179.8720  174.8320  137.5010 C   0  0  0  0  0  2  0  0  0  0  0  0
  183.0280  177.7570  139.1120 C   0  0  0  0  0  2  0  0  0  0  0  0
  178.9320  174.1670  138.4660 C   0  0  0  0  0  3  0  0  0  0  0  0
  186.1520  177.0420  134.7490 O   0  0  0  0  0  0  0  0  0  0  0  0
  181.2040  175.6430  140.0040 C   0  0  2  0  0  3  0  0  0  0  0  0
  188.0600  177.8960  136.5230 C   0  0  2  0  0  3  0  0  0  0  0  0
  183.9860  176.0010  137.5900 C   0  0  0  0  0  2  0  0  0  0  0  0
  186.7970  177.2820  137.1340 C   0  0  0  0  0  2  0  0  0  0  0  0
  181.5580  176.6520  137.2940 C   0  0  2  0  0  3  0  0  0  0  0  0
  186.9590  178.4140  139.8770 C   0  0  0  0  0  3  0  0  0  0  0  0
  180.1690  176.3060  137.8440 C   0  0  2  0  0  3  0  0  0  0  0  0
  184.6050  178.9120  140.3860 C   0  0  0  0  0  2  0  0  0  0  0  0
  184.0970  177.5800  140.0920 N   0  0  0  0  0  0  0  0  0  0  0  0
  186.3690  178.4290  134.7090 C   0  0  0  0  0  2  0  0  0  0  0  0
  188.2940  178.4570  139.9760 C   0  0  0  0  0  0  0  0  0  0  0  0
  185.8720  176.6500  136.0820 C   0  0  1  0  0  3  0  0  0  0  0  0
  182.3820  175.4060  139.2280 O   0  0  0  0  0  0  0  0  0  0  0  0
  182.7180  176.4590  138.3290 C   0  0  2  0  0  0  0  0  0  0  0  0
  189.1320  177.9850  138.8210 C   0  0  0  0  0  2  0  0  0  0  0  0
  188.8050  178.7540  137.5450 C   0  0  0  0  0  2  0  0  0  0  0  0
  187.7320  178.7660  135.3080 C   0  0  0  0  0  2  0  0  0  0  0  0
  180.4610  177.9770  135.4740 C   0  0  0  0  0  3  0  0  0  0  0  0
  180.5280  180.3950  135.4440 N   0  0  0  0  0  0  0  0  0  0  0  0
  181.5610  179.2180  137.3490 C   0  0  0  0  0  2  0  0  0  0  0  0
  181.6070  180.4410  136.4400 C   0  0  0  0  0  2  0  0  0  0  0  0
  180.0050  179.1370  134.9860 C   0  0  0  0  0  3  0  0  0  0  0  0
  181.5780  177.9580  136.4810 C   0  0  1  0  0  3  0  0  0  0  0  0
  180.0980  181.6040  134.7520 C   0  0  0  0  0  3  0  0  0  0  0  0
  178.9410  182.2640  135.4760 C   0  0  0  0  0  1  0  0  0  0  0  0
  181.2500  182.5710  134.6070 C   0  0  0  0  0  1  0  0  0  0  0  0
  188.9590  178.9330  141.2420 C   0  0  0  0  0  2  0  0  0  0  0  0
  189.6400  177.8190  142.0510 C   0  0  2  0  0  3  0  0  0  0  0  0
  191.9830  177.5670  141.2470 C   0  0  0  0  0  2  0  0  0  0  0  0
  190.5780  176.9940  141.1730 C   0  0  0  0  0  3  0  0  0  0  0  0
  191.6350  176.3260  142.0350 C   0  0  0  0  0  2  0  0  0  0  0  0
  188.6150  176.9280  142.7500 C   0  0  0  0  0  2  0  0  0  0  0  0
  186.4730  176.7100  146.2020 O   0  0  0  0  0  0  0  0  0  0  0  0
  188.0790  177.5890  144.0090 C   0  0  1  0  0  3  0  0  0  0  0  0
  185.9800  177.7660  145.4160 C   0  0  2  0  0  3  0  0  0  0  0  0
  186.5380  177.6020  143.9880 C   0  0  0  0  0  2  0  0  0  0  0  0
  187.5660  178.6490  146.7120 C   0  0  1  0  0  3  0  0  0  0  0  0
  187.7580  177.1610  146.5070 C   0  0  2  0  0  3  0  0  0  0  0  0
  186.4230  178.9880  145.9690 O   0  0  0  0  0  0  0  0  0  0  0  0
  188.6450  176.8910  145.2690 C   0  0  2  0  0  3  0  0  0  0  0  0
  190.0800  177.2550  145.5130 C   0  0  0  0  0  0  0  0  0  0  0  0
  190.6200  178.1990  144.8760 O   0  0  0  0  0  0  0  0  0  0  0  0
  190.8150  176.5540  146.4570 O   0  0  0  0  0  1  0  0  0  0  0  0
  187.3380  178.9440  148.1860 C   0  0  0  0  0  2  0  0  0  0  0  0
  187.9580  177.8540  149.0360 C   0  0  0  0  0  1  0  0  0  0  0  0
  1 13  1  0  0  0  0
  5  4  1  0  0  0  0
  7  9  1  0  0  0  0
  8 19  1  0  0  0  0
  9  5  2  0  0  0  0
 10 22  1  0  0  0  0
 11  6  1  6  0  0  0
 11  4  1  0  0  0  0
 12 27  1  6  0  0  0
 12 14  1  0  0  0  0
 12 26  1  0  0  0  0
 15 33  1  1  0  0  0
 15 17  1  0  0  0  0
 15 24  1  0  0  0  0
 16 21  2  0  0  0  0
 16  2  1  0  0  0  0
 17  7  1  1  0  0  0
 17  6  1  0  0  0  0
 18  2  1  0  0  0  0
 19 18  1  0  0  0  0
 19  3  1  0  0  0  0
 20 10  1  0  0  0  0
 20 27  1  0  0  0  0
 21 37  1  0  0  0  0
 22  1  1  1  0  0  0
 22 14  1  0  0  0  0
 23 11  1  0  0  0  0
 24 13  1  6  0  0  0
 24  8  1  0  0  0  0
 24 23  1  0  0  0  0
 25 21  1  0  0  0  0
 26 25  1  0  0  0  0
 29 31  1  0  0  0  0
 31 30  1  0  0  0  0
 32 29  1  0  0  0  0
 32 28  2  0  0  0  0
 33 28  1  6  0  0  0
 33 30  1  0  0  0  0
 34 29  1  0  0  0  0
 34 35  1  0  0  0  0
 36 34  1  0  0  0  0
 38 37  1  6  0  0  0
 38 42  1  0  0  0  0
 39 41  1  0  0  0  0
 40 39  1  0  0  0  0
 40 41  1  0  0  0  0
 40 38  1  0  0  0  0
 44 42  1  6  0  0  0
 44 50  1  0  0  0  0
 45 46  1  6  0  0  0
 45 49  1  0  0  0  0
 45 43  1  0  0  0  0
 46 44  1  0  0  0  0
 47 54  1  1  0  0  0
 48 43  1  6  0  0  0
 48 47  1  0  0  0  0
 49 47  1  0  0  0  0
 50 51  1  1  0  0  0
 50 48  1  0  0  0  0
 51 53  1  0  0  0  0
 52 51  2  0  0  0  0
 54 55  1  0  0  0  0
M  END
>  <MODEL>
1

>  <REMARK>
 VINA RESULT:      -6.2      0.000      0.000
  Name = 
  9 active torsions:
  status: ('A' for Active; 'I' for Inactive)
    1  A    between atoms: C_1  and  C_53
    2  A    between atoms: C_6  and  C_46
    3  A    between atoms: C_8  and  C_22
    4  A    between atoms: C_8  and  C_43
    5  A    between atoms: C_10  and  N_32
    6  A    between atoms: C_11  and  C_29
    7  A    between atoms: C_20  and  C_22
    8  A    between atoms: C_22  and  C_46
    9  A    between atoms: C_33  and  C_52
                            x       y       z     vdW  Elec       q    Type
                         _______ _______ _______ _____ _____    ______ ____

>  <TORSDO>
F 9

$$$$
=
 OpenBabel11052414493D

 55 62  0  0  1  0  0  0  0  0999 V2000
  181.7410  176.6420  138.8020 C   0  0  0  0  0  2  0  0  0  0  0  0
  186.3890  177.7880  136.8970 C   0  0  0  0  0  2  0  0  0  0  0  0
  186.1810  178.3520  139.8710 O   0  0  0  0  0  1  0  0  0  0  0  0
  184.8280  178.1910  143.8210 C   0  0  0  0  0  2  0  0  0  0  0  0
  183.9250  178.7420  144.9080 C   0  0  0  0  0  3  0  0  0  0  0  0
  183.6060  179.8790  142.3390 C   0  0  0  0  0  2  0  0  0  0  0  0
  181.8340  178.4990  143.5620 C   0  0  0  0  0  2  0  0  0  0  0  0
  183.9730  178.7100  139.5010 C   0  0  0  0  0  2  0  0  0  0  0  0
  182.5910  178.8670  144.8070 C   0  0  0  0  0  3  0  0  0  0  0  0
  180.4800  175.2090  137.2990 O   0  0  0  0  0  0  0  0  0  0  0  0
  184.5300  178.6510  142.3780 C   0  0  2  0  0  3  0  0  0  0  0  0
  182.5980  174.8530  135.5930 C   0  0  2  0  0  3  0  0  0  0  0  0
  182.8010  176.5220  139.8950 C   0  0  0  0  0  2  0  0  0  0  0  0
  182.9340  175.4070  136.9810 C   0  0  0  0  0  2  0  0  0  0  0  0
  181.9250  178.5820  141.0760 C   0  0  2  0  0  3  0  0  0  0  0  0
  185.5800  176.6320  136.4080 C   0  0  0  0  0  3  0  0  0  0  0  0
  182.1600  179.3980  142.3520 C   0  0  2  0  0  3  0  0  0  0  0  0
  185.5120  178.6930  137.7490 C   0  0  0  0  0  2  0  0  0  0  0  0
  185.1780  178.0480  139.0100 N   0  0  0  0  0  0  0  0  0  0  0  0
  180.4210  176.0260  136.1580 C   0  0  0  0  0  2  0  0  0  0  0  0
  185.9800  175.7680  135.4670 C   0  0  0  0  0  0  0  0  0  0  0  0
  181.7320  175.3880  137.9380 C   0  0  1  0  0  3  0  0  0  0  0  0
  184.0570  177.5260  141.6330 O   0  0  0  0  0  0  0  0  0  0  0  0
  183.2060  177.8570  140.5400 C   0  0  2  0  0  0  0  0  0  0  0  0
  185.0730  174.6350  135.0760 C   0  0  0  0  0  2  0  0  0  0  0  0
  183.7180  175.1470  134.5960 C   0  0  0  0  0  2  0  0  0  0  0  0
  181.2970  175.4470  135.0500 C   0  0  0  0  0  2  0  0  0  0  0  0
  179.9140  180.0230  140.6880 C   0  0  0  0  0  3  0  0  0  0  0  0
  179.7980  181.5740  138.8350 N   0  0  0  0  0  0  0  0  0  0  0  0
  181.8790  180.2900  139.1610 C   0  0  0  0  0  2  0  0  0  0  0  0
  180.9380  180.9460  138.1550 C   0  0  0  0  0  2  0  0  0  0  0  0
  179.3190  181.0620  140.0900 C   0  0  0  0  0  3  0  0  0  0  0  0
  181.0730  179.3240  140.0320 C   0  0  1  0  0  3  0  0  0  0  0  0
  179.0040  182.6000  138.1700 C   0  0  0  0  0  3  0  0  0  0  0  0
  179.1200  183.9300  138.8870 C   0  0  0  0  0  1  0  0  0  0  0  0
  179.4230  182.7410  136.7250 C   0  0  0  0  0  1  0  0  0  0  0  0
  187.3380  175.8970  134.8260 C   0  0  0  0  0  2  0  0  0  0  0  0
  188.4580  175.1600  135.5760 C   0  0  2  0  0  3  0  0  0  0  0  0
  188.0570  172.7120  135.7760 C   0  0  0  0  0  2  0  0  0  0  0  0
  187.8940  174.0560  136.4650 C   0  0  0  0  0  3  0  0  0  0  0  0
  189.0070  173.1100  136.8810 C   0  0  0  0  0  2  0  0  0  0  0  0
  189.3220  176.1280  136.3830 C   0  0  0  0  0  2  0  0  0  0  0  0
  193.3600  176.1920  135.8900 O   0  0  0  0  0  0  0  0  0  0  0  0
  190.6920  175.5360  136.6710 C   0  0  1  0  0  3  0  0  0  0  0  0
  192.8680  174.9260  135.5280 C   0  0  2  0  0  3  0  0  0  0  0  0
  191.3390  175.0340  135.3660 C   0  0  0  0  0  2  0  0  0  0  0  0
  193.3550  174.8010  137.7010 C   0  0  1  0  0  3  0  0  0  0  0  0
  193.0810  176.2230  137.2570 C   0  0  2  0  0  3  0  0  0  0  0  0
  193.1800  174.0070  136.5560 O   0  0  0  0  0  0  0  0  0  0  0  0
  191.5800  176.5630  137.4110 C   0  0  2  0  0  3  0  0  0  0  0  0
  191.1810  176.7150  138.8500 C   0  0  0  0  0  0  0  0  0  0  0  0
  190.0110  176.4300  139.2250 O   0  0  0  0  0  0  0  0  0  0  0  0
  192.1110  177.1590  139.7770 O   0  0  0  0  0  1  0  0  0  0  0  0
  194.7830  174.6820  138.2080 C   0  0  0  0  0  2  0  0  0  0  0  0
  195.1960  173.2250  138.2620 C   0  0  0  0  0  1  0  0  0  0  0  0
  1 13  1  0  0  0  0
  2 18  1  0  0  0  0
  4  5  1  0  0  0  0
  7  9  1  0  0  0  0
  9  5  2  0  0  0  0
 10 22  1  0  0  0  0
 11  6  1  1  0  0  0
 11  4  1  0  0  0  0
 12 26  1  6  0  0  0
 12 14  1  0  0  0  0
 13 24  1  0  0  0  0
 15 33  1  6  0  0  0
 15 17  1  0  0  0  0
 16  2  1  0  0  0  0
 17  6  1  1  0  0  0
 17  7  1  0  0  0  0
 18 19  1  0  0  0  0
 19  8  1  0  0  0  0
 19  3  1  0  0  0  0
 20 10  1  0  0  0  0
 21 16  2  0  0  0  0
 22 14  1  6  0  0  0
 22  1  1  0  0  0  0
 23 11  1  0  0  0  0
 24  8  1  6  0  0  0
 24 15  1  0  0  0  0
 24 23  1  0  0  0  0
 25 21  1  0  0  0  0
 26 25  1  0  0  0  0
 27 12  1  0  0  0  0
 27 20  1  0  0  0  0
 29 32  1  0  0  0  0
 31 29  1  0  0  0  0
 31 30  1  0  0  0  0
 32 28  2  0  0  0  0
 33 30  1  1  0  0  0
 33 28  1  0  0  0  0
 34 29  1  0  0  0  0
 34 35  1  0  0  0  0
 36 34  1  0  0  0  0
 37 21  1  0  0  0  0
 38 37  1  1  0  0  0
 38 42  1  0  0  0  0
 38 40  1  0  0  0  0
 39 40  1  0  0  0  0
 39 41  1  0  0  0  0
 40 41  1  0  0  0  0
 44 42  1  6  0  0  0
 44 50  1  0  0  0  0
 45 46  1  1  0  0  0
 45 43  1  0  0  0  0
 45 49  1  0  0  0  0
 46 44  1  0  0  0  0
 47 54  1  6  0  0  0
 48 43  1  6  0  0  0
 48 50  1  0  0  0  0
 48 47  1  0  0  0  0
 49 47  1  0  0  0  0
 50 51  1  1  0  0  0
 51 52  2  0  0  0  0
 51 53  1  0  0  0  0
 54 55  1  0  0  0  0
M  END
>  <MODEL>
2

>  <REMARK>
 VINA RESULT:      -5.8      3.440      6.961
  Name = 
  9 active torsions:
  status: ('A' for Active; 'I' for Inactive)
    1  A    between atoms: C_1  and  C_53
    2  A    between atoms: C_6  and  C_46
    3  A    between atoms: C_8  and  C_22
    4  A    between atoms: C_8  and  C_43
    5  A    between atoms: C_10  and  N_32
    6  A    between atoms: C_11  and  C_29
    7  A    between atoms: C_20  and  C_22
    8  A    between atoms: C_22  and  C_46
    9  A    between atoms: C_33  and  C_52
                            x       y       z     vdW  Elec       q    Type
                         _______ _______ _______ _____ _____    ______ ____

>  <TORSDO>
F 9

$$$$
=
 OpenBabel11052414493D

 55 62  0  0  1  0  0  0  0  0999 V2000
  187.6340  176.7570  136.5980 C   0  0  0  0  0  2  0  0  0  0  0  0
  188.5120  177.2010  141.6560 C   0  0  0  0  0  2  0  0  0  0  0  0
  191.0690  176.8640  140.0580 O   0  0  0  0  0  1  0  0  0  0  0  0
  193.7220  176.8710  136.8300 C   0  0  0  0  0  2  0  0  0  0  0  0
  194.3580  176.1310  135.6700 C   0  0  0  0  0  3  0  0  0  0  0  0
  192.3400  174.7340  137.0750 C   0  0  0  0  0  2  0  0  0  0  0  0
  192.1780  175.4840  134.6350 C   0  0  0  0  0  2  0  0  0  0  0  0
  189.8140  175.7020  138.5690 C   0  0  0  0  0  2  0  0  0  0  0  0
  193.6790  175.5240  134.6820 C   0  0  0  0  0  3  0  0  0  0  0  0
  185.3990  177.5020  136.0030 O   0  0  0  0  0  0  0  0  0  0  0  0
  192.4850  176.2100  137.4760 C   0  0  2  0  0  3  0  0  0  0  0  0
  184.8630  178.4450  138.5210 C   0  0  2  0  0  3  0  0  0  0  0  0
  189.0220  177.3460  136.8410 C   0  0  0  0  0  2  0  0  0  0  0  0
  186.3350  178.1740  138.2020 C   0  0  0  0  0  2  0  0  0  0  0  0
  190.1460  175.2210  136.0490 C   0  0  2  0  0  3  0  0  0  0  0  0
  187.4170  177.9400  140.9590 C   0  0  0  0  0  3  0  0  0  0  0  0
  191.5470  174.6600  135.7760 C   0  0  2  0  0  3  0  0  0  0  0  0
  189.0550  176.1190  140.7350 C   0  0  0  0  0  2  0  0  0  0  0  0
  189.7920  176.7080  139.6270 N   0  0  0  0  0  0  0  0  0  0  0  0
  184.6240  176.6210  136.7750 C   0  0  0  0  0  2  0  0  0  0  0  0
  186.5840  178.8040  141.5540 C   0  0  0  0  0  0  0  0  0  0  0  0
  186.5740  177.8420  136.7200 C   0  0  1  0  0  3  0  0  0  0  0  0
  191.3410  177.0200  137.1950 O   0  0  0  0  0  0  0  0  0  0  0  0
  190.1060  176.3090  137.1760 C   0  0  2  0  0  0  0  0  0  0  0  0
  185.5320  179.4940  140.7330 C   0  0  0  0  0  2  0  0  0  0  0  0
  184.6250  178.4890  140.0300 C   0  0  0  0  0  2  0  0  0  0  0  0
  183.9490  177.3770  137.9170 C   0  0  0  0  0  2  0  0  0  0  0  0
  187.9430  174.4390  135.1520 C   0  0  0  0  0  3  0  0  0  0  0  0
  187.3570  172.0940  135.0840 N   0  0  0  0  0  0  0  0  0  0  0  0
  189.6000  172.7180  135.8970 C   0  0  0  0  0  2  0  0  0  0  0  0
  188.4430  171.7300  136.0030 C   0  0  0  0  0  2  0  0  0  0  0  0
  187.1440  173.4630  134.7050 C   0  0  0  0  0  3  0  0  0  0  0  0
  189.0600  174.1340  136.1120 C   0  0  1  0  0  3  0  0  0  0  0  0
  186.3530  171.1130  134.6880 C   0  0  0  0  0  3  0  0  0  0  0  0
  186.5030  169.8290  135.4800 C   0  0  0  0  0  1  0  0  0  0  0  0
  184.9620  171.6790  134.8590 C   0  0  0  0  0  1  0  0  0  0  0  0
  186.7160  179.1170  143.0230 C   0  0  0  0  0  2  0  0  0  0  0  0
  185.7450  178.3360  143.9210 C   0  0  2  0  0  3  0  0  0  0  0  0
  183.9000  179.9500  144.3580 C   0  0  0  0  0  2  0  0  0  0  0  0
  185.1030  179.2470  144.9640 C   0  0  0  0  0  3  0  0  0  0  0  0
  183.6960  178.7650  145.2730 C   0  0  0  0  0  2  0  0  0  0  0  0
  186.4300  177.1410  144.5800 C   0  0  0  0  0  2  0  0  0  0  0  0
  188.3930  176.3690  148.0600 O   0  0  0  0  0  0  0  0  0  0  0  0
  187.3720  177.5880  145.6870 C   0  0  1  0  0  3  0  0  0  0  0  0
  187.6340  177.5430  148.2060 C   0  0  2  0  0  3  0  0  0  0  0  0
  186.6300  177.6140  147.0380 C   0  0  0  0  0  2  0  0  0  0  0  0
  189.6390  178.1900  147.4730 C   0  0  1  0  0  3  0  0  0  0  0  0
  189.3290  176.7560  147.1000 C   0  0  2  0  0  3  0  0  0  0  0  0
  188.5050  178.6550  148.1600 O   0  0  0  0  0  0  0  0  0  0  0  0
  188.6290  176.6880  145.7230 C   0  0  2  0  0  3  0  0  0  0  0  0
  189.5710  176.9970  144.5960 C   0  0  0  0  0  0  0  0  0  0  0  0
  189.8420  178.1910  144.2950 O   0  0  0  0  0  1  0  0  0  0  0  0
  190.1590  175.9590  143.8880 O   0  0  0  0  0  0  0  0  0  0  0  0
  190.8580  178.2390  148.3810 C   0  0  0  0  0  2  0  0  0  0  0  0
  191.8190  177.1250  148.0190 C   0  0  0  0  0  1  0  0  0  0  0  0
  1 13  1  0  0  0  0
  5  4  1  0  0  0  0
  6 11  1  0  0  0  0
  7  9  1  0  0  0  0
  8 19  1  0  0  0  0
  9  5  2  0  0  0  0
 10 22  1  0  0  0  0
 10 20  1  0  0  0  0
 11  4  1  6  0  0  0
 12 27  1  1  0  0  0
 12 26  1  0  0  0  0
 14 12  1  0  0  0  0
 15 33  1  1  0  0  0
 15 24  1  0  0  0  0
 16 21  2  0  0  0  0
 16  2  1  0  0  0  0
 17  7  1  6  0  0  0
 17 15  1  0  0  0  0
 17  6  1  0  0  0  0
 18  2  1  0  0  0  0
 19  3  1  0  0  0  0
 19 18  1  0  0  0  0
 20 27  1  0  0  0  0
 21 37  1  0  0  0  0
 22  1  1  1  0  0  0
 22 14  1  0  0  0  0
 23 11  1  0  0  0  0
 24 13  1  6  0  0  0
 24 23  1  0  0  0  0
 24  8  1  0  0  0  0
 25 21  1  0  0  0  0
 26 25  1  0  0  0  0
 29 31  1  0  0  0  0
 30 31  1  0  0  0  0
 30 33  1  0  0  0  0
 32 29  1  0  0  0  0
 32 28  2  0  0  0  0
 33 28  1  6  0  0  0
 34 36  1  0  0  0  0
 34 29  1  0  0  0  0
 34 35  1  0  0  0  0
 38 37  1  1  0  0  0
 38 42  1  0  0  0  0
 38 40  1  0  0  0  0
 39 40  1  0  0  0  0
 39 41  1  0  0  0  0
 40 41  1  0  0  0  0
 43 45  1  0  0  0  0
 44 42  1  6  0  0  0
 44 50  1  0  0  0  0
 44 46  1  0  0  0  0
 45 46  1  6  0  0  0
 47 49  1  0  0  0  0
 47 54  1  1  0  0  0
 48 47  1  0  0  0  0
 48 43  1  1  0  0  0
 49 45  1  0  0  0  0
 50 51  1  6  0  0  0
 50 48  1  0  0  0  0
 52 51  1  0  0  0  0
 53 51  2  0  0  0  0
 55 54  1  0  0  0  0
M  END
>  <MODEL>
3

>  <REMARK>
 VINA RESULT:      -5.7      3.576      7.628
  Name = 
  9 active torsions:
  status: ('A' for Active; 'I' for Inactive)
    1  A    between atoms: C_1  and  C_53
    2  A    between atoms: C_6  and  C_46
    3  A    between atoms: C_8  and  C_22
    4  A    between atoms: C_8  and  C_43
    5  A    between atoms: C_10  and  N_32
    6  A    between atoms: C_11  and  C_29
    7  A    between atoms: C_20  and  C_22
    8  A    between atoms: C_22  and  C_46
    9  A    between atoms: C_33  and  C_52
                            x       y       z     vdW  Elec       q    Type
                         _______ _______ _______ _____ _____    ______ ____

>  <TORSDO>
F 9

$$$$
=
 OpenBabel11052414493D

 55 62  0  0  1  0  0  0  0  0999 V2000
  187.5880  176.7490  136.5900 C   0  0  0  0  0  2  0  0  0  0  0  0
  188.4720  177.4330  141.6200 C   0  0  0  0  0  2  0  0  0  0  0  0
  191.0310  177.1000  140.0260 O   0  0  0  0  0  1  0  0  0  0  0  0
  193.6710  177.0440  136.7870 C   0  0  0  0  0  2  0  0  0  0  0  0
  194.3240  176.2730  135.6570 C   0  0  0  0  0  3  0  0  0  0  0  0
  192.3510  174.8810  137.1300 C   0  0  0  0  0  2  0  0  0  0  0  0
  192.1590  175.5210  134.6620 C   0  0  0  0  0  2  0  0  0  0  0  0
  189.8040  175.8410  138.5940 C   0  0  0  0  0  2  0  0  0  0  0  0
  193.6590  175.6060  134.6990 C   0  0  0  0  0  3  0  0  0  0  0  0
  185.3310  177.4040  135.9750 O   0  0  0  0  0  0  0  0  0  0  0  0
  192.4560  176.3770  137.4670 C   0  0  2  0  0  3  0  0  0  0  0  0
  184.7770  178.4390  138.4530 C   0  0  2  0  0  3  0  0  0  0  0  0
  188.9600  177.3870  136.8010 C   0  0  0  0  0  2  0  0  0  0  0  0
  186.2560  178.1960  138.1380 C   0  0  0  0  0  2  0  0  0  0  0  0
  190.1410  175.2620  136.0950 C   0  0  2  0  0  3  0  0  0  0  0  0
  187.3530  178.1100  140.8980 C   0  0  0  0  0  3  0  0  0  0  0  0
  191.5560  174.7300  135.8390 C   0  0  2  0  0  3  0  0  0  0  0  0
  189.0420  176.3290  140.7440 C   0  0  0  0  0  2  0  0  0  0  0  0
  189.7580  176.8900  139.6080 N   0  0  0  0  0  0  0  0  0  0  0  0
  184.5840  176.5350  136.7880 C   0  0  0  0  0  2  0  0  0  0  0  0
  186.4990  178.9750  141.4600 C   0  0  0  0  0  0  0  0  0  0  0  0
  186.4980  177.8080  136.6710 C   0  0  1  0  0  3  0  0  0  0  0  0
  191.2880  177.1410  137.1570 O   0  0  0  0  0  0  0  0  0  0  0  0
  190.0740  176.3960  137.1750 C   0  0  2  0  0  0  0  0  0  0  0  0
  185.4240  179.6000  140.6150 C   0  0  0  0  0  2  0  0  0  0  0  0
  184.5440  178.5400  139.9600 C   0  0  0  0  0  2  0  0  0  0  0  0
  183.8920  177.3200  137.9000 C   0  0  0  0  0  2  0  0  0  0  0  0
  187.9450  174.3940  135.2610 C   0  0  0  0  0  3  0  0  0  0  0  0
  187.4230  172.0330  135.2730 N   0  0  0  0  0  0  0  0  0  0  0  0
  189.6610  172.7420  136.0270 C   0  0  0  0  0  2  0  0  0  0  0  0
  188.5340  171.7260  136.1830 C   0  0  0  0  0  2  0  0  0  0  0  0
  187.1650  173.3840  134.8580 C   0  0  0  0  0  3  0  0  0  0  0  0
  189.0860  174.1480  136.2100 C   0  0  1  0  0  3  0  0  0  0  0  0
  186.4390  171.0140  134.9250 C   0  0  0  0  0  3  0  0  0  0  0  0
  186.9420  169.6280  135.2770 C   0  0  0  0  0  1  0  0  0  0  0  0
  185.1230  171.2890  135.6150 C   0  0  0  0  0  1  0  0  0  0  0  0
  186.6270  179.3550  142.9130 C   0  0  0  0  0  2  0  0  0  0  0  0
  186.8400  178.1610  143.8570 C   0  0  2  0  0  3  0  0  0  0  0  0
  184.7090  178.5850  145.0740 C   0  0  0  0  0  2  0  0  0  0  0  0
  185.5070  177.5560  144.2900 C   0  0  0  0  0  3  0  0  0  0  0  0
  184.3620  178.3050  143.6300 C   0  0  0  0  0  2  0  0  0  0  0  0
  187.6870  178.5490  145.0660 C   0  0  0  0  0  2  0  0  0  0  0  0
  191.6940  178.1000  145.6110 O   0  0  0  0  0  0  0  0  0  0  0  0
  188.9040  177.6480  145.1990 C   0  0  1  0  0  3  0  0  0  0  0  0
  191.3090  177.4380  144.4330 C   0  0  2  0  0  3  0  0  0  0  0  0
  189.8950  177.9210  144.0510 C   0  0  0  0  0  2  0  0  0  0  0  0
  191.1380  175.9330  146.0700 C   0  0  1  0  0  3  0  0  0  0  0  0
  191.0290  177.3530  146.5850 C   0  0  2  0  0  3  0  0  0  0  0  0
  191.2920  176.0470  144.6780 O   0  0  0  0  0  0  0  0  0  0  0  0
  189.5540  177.8190  146.5920 C   0  0  2  0  0  3  0  0  0  0  0  0
  188.7550  177.1450  147.6690 C   0  0  0  0  0  0  0  0  0  0  0  0
  188.6870  175.8880  147.7260 O   0  0  0  0  0  0  0  0  0  0  0  0
  188.0970  177.9130  148.6180 O   0  0  0  0  0  1  0  0  0  0  0  0
  192.3550  175.2530  146.6780 C   0  0  0  0  0  2  0  0  0  0  0  0
  192.6510  175.8410  148.0420 C   0  0  0  0  0  1  0  0  0  0  0  0
  1 13  1  0  0  0  0
  5  4  1  0  0  0  0
  6 11  1  0  0  0  0
  7  9  1  0  0  0  0
  8 19  1  0  0  0  0
  9  5  2  0  0  0  0
 10 22  1  0  0  0  0
 10 20  1  0  0  0  0
 11  4  1  6  0  0  0
 12 27  1  1  0  0  0
 12 26  1  0  0  0  0
 14 12  1  0  0  0  0
 15 33  1  1  0  0  0
 15 24  1  0  0  0  0
 16 21  2  0  0  0  0
 16  2  1  0  0  0  0
 17  7  1  6  0  0  0
 17 15  1  0  0  0  0
 17  6  1  0  0  0  0
 18  2  1  0  0  0  0
 19  3  1  0  0  0  0
 19 18  1  0  0  0  0
 20 27  1  0  0  0  0
 21 37  1  0  0  0  0
 22  1  1  1  0  0  0
 22 14  1  0  0  0  0
 23 24  1  0  0  0  0
 23 11  1  0  0  0  0
 24 13  1  6  0  0  0
 24  8  1  0  0  0  0
 25 21  1  0  0  0  0
 26 25  1  0  0  0  0
 29 31  1  0  0  0  0
 30 31  1  0  0  0  0
 30 33  1  0  0  0  0
 32 28  2  0  0  0  0
 32 29  1  0  0  0  0
 33 28  1  6  0  0  0
 34 29  1  0  0  0  0
 34 35  1  0  0  0  0
 34 36  1  0  0  0  0
 38 37  1  6  0  0  0
 38 40  1  0  0  0  0
 38 42  1  0  0  0  0
 40 39  1  0  0  0  0
 41 40  1  0  0  0  0
 41 39  1  0  0  0  0
 44 42  1  1  0  0  0
 44 50  1  0  0  0  0
 45 46  1  1  0  0  0
 45 49  1  0  0  0  0
 45 43  1  0  0  0  0
 46 44  1  0  0  0  0
 47 48  1  0  0  0  0
 47 54  1  1  0  0  0
 48 43  1  6  0  0  0
 48 50  1  0  0  0  0
 49 47  1  0  0  0  0
 50 51  1  1  0  0  0
 51 52  2  0  0  0  0
 51 53  1  0  0  0  0
 54 55  1  0  0  0  0
M  END
>  <MODEL>
4

>  <REMARK>
 VINA RESULT:      -5.0      3.560      7.783
  Name = 
  9 active torsions:
  status: ('A' for Active; 'I' for Inactive)
    1  A    between atoms: C_1  and  C_53
    2  A    between atoms: C_6  and  C_46
    3  A    between atoms: C_8  and  C_22
    4  A    between atoms: C_8  and  C_43
    5  A    between atoms: C_10  and  N_32
    6  A    between atoms: C_11  and  C_29
    7  A    between atoms: C_20  and  C_22
    8  A    between atoms: C_22  and  C_46
    9  A    between atoms: C_33  and  C_52
                            x       y       z     vdW  Elec       q    Type
                         _______ _______ _______ _____ _____    ______ ____

>  <TORSDO>
F 9

$$$$
=
 OpenBabel11052414493D

 55 62  0  0  1  0  0  0  0  0999 V2000
  182.5850  176.0280  138.1630 C   0  0  0  0  0  2  0  0  0  0  0  0
  187.1550  178.4080  138.2330 C   0  0  0  0  0  2  0  0  0  0  0  0
  185.5150  178.9680  140.7240 O   0  0  0  0  0  1  0  0  0  0  0  0
  182.6330  178.5330  143.7180 C   0  0  0  0  0  2  0  0  0  0  0  0
  181.2370  178.8300  144.2300 C   0  0  0  0  0  3  0  0  0  0  0  0
  181.8250  179.7580  141.6240 C   0  0  0  0  0  2  0  0  0  0  0  0
  180.0940  177.9620  142.1850 C   0  0  0  0  0  2  0  0  0  0  0  0
  183.6890  178.6680  139.4130 C   0  0  0  0  0  2  0  0  0  0  0  0
  180.1020  178.5650  143.5610 C   0  0  0  0  0  3  0  0  0  0  0  0
  182.5190  174.2540  136.5050 O   0  0  0  0  0  0  0  0  0  0  0  0
  182.9050  178.8480  142.2310 C   0  0  2  0  0  3  0  0  0  0  0  0
  185.1880  174.4750  135.9190 C   0  0  2  0  0  3  0  0  0  0  0  0
  183.0420  176.2470  139.6040 C   0  0  0  0  0  2  0  0  0  0  0  0
  184.7260  175.1390  137.2180 C   0  0  0  0  0  2  0  0  0  0  0  0
  181.2570  178.0000  139.9840 C   0  0  2  0  0  3  0  0  0  0  0  0
  186.9590  177.0560  137.6300 C   0  0  0  0  0  3  0  0  0  0  0  0
  180.6910  178.8840  141.1030 C   0  0  2  0  0  3  0  0  0  0  0  0
  185.7980  179.0460  138.4910 C   0  0  0  0  0  2  0  0  0  0  0  0
  185.1080  178.3660  139.5780 N   0  0  0  0  0  0  0  0  0  0  0  0
  182.7740  174.9890  135.3350 C   0  0  0  0  0  2  0  0  0  0  0  0
  187.9340  176.3170  137.0850 C   0  0  0  0  0  0  0  0  0  0  0  0
  183.2690  174.8020  137.5750 C   0  0  1  0  0  3  0  0  0  0  0  0
  183.1050  177.6150  141.5360 O   0  0  0  0  0  0  0  0  0  0  0  0
  182.7760  177.6590  140.1500 C   0  0  2  0  0  0  0  0  0  0  0  0
  187.6040  174.9620  136.5250 C   0  0  0  0  0  2  0  0  0  0  0  0
  186.5240  175.0500  135.4510 C   0  0  0  0  0  2  0  0  0  0  0  0
  184.1630  174.6560  134.7980 C   0  0  0  0  0  2  0  0  0  0  0  0
  179.6790  179.4320  138.6680 C   0  0  0  0  0  3  0  0  0  0  0  0
  180.2570  180.2840  136.4800 N   0  0  0  0  0  0  0  0  0  0  0  0
  181.9450  178.9720  137.7100 C   0  0  0  0  0  2  0  0  0  0  0  0
  181.3830  179.3510  136.3440 C   0  0  0  0  0  2  0  0  0  0  0  0
  179.4300  180.2700  137.6550 C   0  0  0  0  0  3  0  0  0  0  0  0
  180.8050  178.4380  138.5800 C   0  0  1  0  0  3  0  0  0  0  0  0
  179.8300  181.1080  135.3550 C   0  0  0  0  0  3  0  0  0  0  0  0
  178.9600  182.2580  135.8210 C   0  0  0  0  0  1  0  0  0  0  0  0
  181.0280  181.6270  134.5940 C   0  0  0  0  0  1  0  0  0  0  0  0
  189.3570  176.8130  137.0610 C   0  0  0  0  0  2  0  0  0  0  0  0
  190.4080  175.7140  137.2780 C   0  0  2  0  0  3  0  0  0  0  0  0
  191.6020  177.1770  138.9010 C   0  0  0  0  0  2  0  0  0  0  0  0
  191.0100  175.7960  138.6780 C   0  0  0  0  0  3  0  0  0  0  0  0
  190.2600  176.8280  139.5020 C   0  0  0  0  0  2  0  0  0  0  0  0
  191.4960  175.7610  136.2080 C   0  0  0  0  0  2  0  0  0  0  0  0
  193.5770  172.6360  134.6420 O   0  0  0  0  0  0  0  0  0  0  0  0
  192.4890  174.6240  136.3800 C   0  0  1  0  0  3  0  0  0  0  0  0
  192.8490  172.1950  135.7600 C   0  0  2  0  0  3  0  0  0  0  0  0
  191.8020  173.2720  136.1060 C   0  0  0  0  0  2  0  0  0  0  0  0
  194.8360  172.8460  136.5350 C   0  0  1  0  0  3  0  0  0  0  0  0
  194.4840  173.5220  135.2260 C   0  0  2  0  0  3  0  0  0  0  0  0
  193.7400  172.0240  136.8430 O   0  0  0  0  0  0  0  0  0  0  0  0
  193.7290  174.8470  135.4820 C   0  0  2  0  0  3  0  0  0  0  0  0
  194.6320  175.9130  136.0300 C   0  0  0  0  0  0  0  0  0  0  0  0
  195.3670  176.5890  135.2600 O   0  0  0  0  0  0  0  0  0  0  0  0
  194.6470  176.1670  137.3930 O   0  0  0  0  0  1  0  0  0  0  0  0
  196.0910  172.0040  136.3620 C   0  0  0  0  0  2  0  0  0  0  0  0
  197.3200  172.8370  136.6620 C   0  0  0  0  0  1  0  0  0  0  0  0
  1 13  1  0  0  0  0
  2 18  1  0  0  0  0
  4  5  1  0  0  0  0
  7  9  1  0  0  0  0
  8 19  1  0  0  0  0
  9  5  2  0  0  0  0
 10 22  1  0  0  0  0
 11  6  1  6  0  0  0
 11  4  1  0  0  0  0
 12 27  1  6  0  0  0
 12 14  1  0  0  0  0
 13 24  1  0  0  0  0
 15 33  1  6  0  0  0
 15 24  1  0  0  0  0
 15 17  1  0  0  0  0
 16  2  1  0  0  0  0
 17  6  1  1  0  0  0
 17  7  1  0  0  0  0
 18 19  1  0  0  0  0
 19  3  1  0  0  0  0
 20 10  1  0  0  0  0
 21 16  2  0  0  0  0
 22 14  1  6  0  0  0
 22  1  1  0  0  0  0
 23 11  1  0  0  0  0
 24  8  1  6  0  0  0
 24 23  1  0  0  0  0
 25 21  1  0  0  0  0
 26 12  1  0  0  0  0
 26 25  1  0  0  0  0
 27 20  1  0  0  0  0
 29 32  1  0  0  0  0
 31 29  1  0  0  0  0
 31 30  1  0  0  0  0
 32 28  2  0  0  0  0
 33 30  1  1  0  0  0
 33 28  1  0  0  0  0
 34 35  1  0  0  0  0
 34 29  1  0  0  0  0
 36 34  1  0  0  0  0
 37 21  1  0  0  0  0
 37 38  1  0  0  0  0
 38 42  1  6  0  0  0
 38 40  1  0  0  0  0
 39 41  1  0  0  0  0
 40 39  1  0  0  0  0
 40 41  1  0  0  0  0
 43 45  1  0  0  0  0
 44 42  1  6  0  0  0
 45 46  1  1  0  0  0
 45 49  1  0  0  0  0
 46 44  1  0  0  0  0
 47 54  1  6  0  0  0
 47 49  1  0  0  0  0
 48 43  1  6  0  0  0
 48 50  1  0  0  0  0
 48 47  1  0  0  0  0
 50 51  1  1  0  0  0
 50 44  1  0  0  0  0
 51 53  1  0  0  0  0
 52 51  2  0  0  0  0
 54 55  1  0  0  0  0
M  END
>  <MODEL>
5

>  <REMARK>
 VINA RESULT:      -4.8      4.276      7.037
  Name = 
  9 active torsions:
  status: ('A' for Active; 'I' for Inactive)
    1  A    between atoms: C_1  and  C_53
    2  A    between atoms: C_6  and  C_46
    3  A    between atoms: C_8  and  C_22
    4  A    between atoms: C_8  and  C_43
    5  A    between atoms: C_10  and  N_32
    6  A    between atoms: C_11  and  C_29
    7  A    between atoms: C_20  and  C_22
    8  A    between atoms: C_22  and  C_46
    9  A    between atoms: C_33  and  C_52
                            x       y       z     vdW  Elec       q    Type
                         _______ _______ _______ _____ _____    ______ ____

>  <TORSDO>
F 9

$$$$
=
 OpenBabel11052414493D

 55 62  0  0  1  0  0  0  0  0999 V2000
  179.8770  179.9230  141.0860 C   0  0  0  0  0  2  0  0  0  0  0  0
  184.9100  178.8530  140.8020 C   0  0  0  0  0  2  0  0  0  0  0  0
  184.0230  180.8400  138.6880 O   0  0  0  0  0  1  0  0  0  0  0  0
  181.7480  183.7420  136.7220 C   0  0  0  0  0  2  0  0  0  0  0  0
  180.6450  184.0810  135.7380 C   0  0  0  0  0  3  0  0  0  0  0  0
  181.0270  181.3300  136.2730 C   0  0  0  0  0  2  0  0  0  0  0  0
  178.9310  182.6640  136.8780 C   0  0  0  0  0  2  0  0  0  0  0  0
  181.9960  179.8290  138.7950 C   0  0  0  0  0  2  0  0  0  0  0  0
  179.3850  183.6180  135.8100 C   0  0  0  0  0  3  0  0  0  0  0  0
  178.9330  179.2490  143.2200 O   0  0  0  0  0  0  0  0  0  0  0  0
  181.8370  182.2700  137.1800 C   0  0  2  0  0  3  0  0  0  0  0  0
  181.3740  178.5940  144.2830 C   0  0  2  0  0  3  0  0  0  0  0  0
  180.6320  181.1030  140.4780 C   0  0  0  0  0  2  0  0  0  0  0  0
  181.3980  179.4570  143.0190 C   0  0  0  0  0  2  0  0  0  0  0  0
  179.6250  180.6710  138.1970 C   0  0  2  0  0  3  0  0  0  0  0  0
  184.1740  178.9300  142.0990 C   0  0  0  0  0  3  0  0  0  0  0  0
  179.5940  181.2750  136.7880 C   0  0  2  0  0  3  0  0  0  0  0  0
  183.9100  178.8110  139.6570 C   0  0  0  0  0  2  0  0  0  0  0  0
  183.2420  180.0960  139.5090 N   0  0  0  0  0  0  0  0  0  0  0  0
  179.2010  177.8700  143.1930 C   0  0  0  0  0  2  0  0  0  0  0  0
  184.7350  178.7660  143.3040 C   0  0  0  0  0  0  0  0  0  0  0  0
  180.0010  179.9460  142.6030 C   0  0  1  0  0  3  0  0  0  0  0  0
  181.4900  182.2060  138.5660 O   0  0  0  0  0  0  0  0  0  0  0  0
  180.9510  180.9540  138.9810 C   0  0  2  0  0  0  0  0  0  0  0  0
  183.8820  178.8850  144.5350 C   0  0  0  0  0  2  0  0  0  0  0  0
  182.7170  177.9000  144.5030 C   0  0  0  0  0  2  0  0  0  0  0  0
  180.2810  177.5240  144.2140 C   0  0  0  0  0  2  0  0  0  0  0  0
  178.9530  178.6620  136.8610 C   0  0  0  0  0  3  0  0  0  0  0  0
  179.1400  176.4210  137.7500 N   0  0  0  0  0  0  0  0  0  0  0  0
  179.9340  178.3010  139.1340 C   0  0  0  0  0  2  0  0  0  0  0  0
  179.3060  176.9110  139.1240 C   0  0  0  0  0  2  0  0  0  0  0  0
  178.9520  177.3390  136.6610 C   0  0  0  0  0  3  0  0  0  0  0  0
  179.0980  179.2260  138.2470 C   0  0  1  0  0  3  0  0  0  0  0  0
  178.9660  174.9980  137.4800 C   0  0  0  0  0  3  0  0  0  0  0  0
  179.1260  174.6990  136.0040 C   0  0  0  0  0  1  0  0  0  0  0  0
  179.9440  174.1810  138.2940 C   0  0  0  0  0  1  0  0  0  0  0  0
  186.2130  178.5030  143.4370 C   0  0  0  0  0  2  0  0  0  0  0  0
  186.5870  177.6110  144.6310 C   0  0  2  0  0  3  0  0  0  0  0  0
  186.5270  178.8570  146.7850 C   0  0  0  0  0  2  0  0  0  0  0  0
  187.4200  178.3780  145.6540 C   0  0  0  0  0  3  0  0  0  0  0  0
  187.4060  177.6440  146.9840 C   0  0  0  0  0  2  0  0  0  0  0  0
  187.3040  176.3410  144.1780 C   0  0  0  0  0  2  0  0  0  0  0  0
  189.5660  179.0740  142.1860 O   0  0  0  0  0  0  0  0  0  0  0  0
  188.4440  176.6620  143.2250 C   0  0  1  0  0  3  0  0  0  0  0  0
  189.0310  178.1550  141.2660 C   0  0  2  0  0  3  0  0  0  0  0  0
  187.9040  177.3730  141.9700 C   0  0  0  0  0  2  0  0  0  0  0  0
  190.9970  177.3170  141.9030 C   0  0  1  0  0  3  0  0  0  0  0  0
  190.4160  178.2590  142.9360 C   0  0  2  0  0  3  0  0  0  0  0  0
  190.0550  177.2680  140.8630 O   0  0  0  0  0  0  0  0  0  0  0  0
  189.5360  177.4870  143.9470 C   0  0  2  0  0  3  0  0  0  0  0  0
  190.3550  176.6410  144.8760 C   0  0  0  0  0  0  0  0  0  0  0  0
  190.7020  175.4750  144.5450 O   0  0  0  0  0  0  0  0  0  0  0  0
  190.7450  177.1510  146.1050 O   0  0  0  0  0  1  0  0  0  0  0  0
  192.3190  177.8640  141.3880 C   0  0  0  0  0  2  0  0  0  0  0  0
  192.5830  177.3490  139.9880 C   0  0  0  0  0  1  0  0  0  0  0  0
  2 16  1  0  0  0  0
  3 19  1  0  0  0  0
  4 11  1  0  0  0  0
  5  9  2  0  0  0  0
  5  4  1  0  0  0  0
  8 19  1  0  0  0  0
  9  7  1  0  0  0  0
 11  6  1  6  0  0  0
 11 23  1  0  0  0  0
 12 14  1  6  0  0  0
 12 26  1  0  0  0  0
 13  1  1  0  0  0  0
 15 33  1  6  0  0  0
 15 24  1  0  0  0  0
 16 21  2  0  0  0  0
 17  6  1  1  0  0  0
 17  7  1  0  0  0  0
 17 15  1  0  0  0  0
 18  2  1  0  0  0  0
 19 18  1  0  0  0  0
 20 10  1  0  0  0  0
 20 27  1  0  0  0  0
 21 37  1  0  0  0  0
 21 25  1  0  0  0  0
 22  1  1  6  0  0  0
 22 14  1  0  0  0  0
 22 10  1  0  0  0  0
 23 24  1  0  0  0  0
 24  8  1  6  0  0  0
 24 13  1  0  0  0  0
 26 25  1  0  0  0  0
 27 12  1  0  0  0  0
 29 31  1  0  0  0  0
 31 30  1  0  0  0  0
 32 28  2  0  0  0  0
 32 29  1  0  0  0  0
 33 28  1  6  0  0  0
 33 30  1  0  0  0  0
 34 29  1  0  0  0  0
 34 36  1  0  0  0  0
 35 34  1  0  0  0  0
 38 37  1  6  0  0  0
 38 40  1  0  0  0  0
 39 41  1  0  0  0  0
 40 39  1  0  0  0  0
 40 41  1  0  0  0  0
 42 38  1  0  0  0  0
 44 50  1  0  0  0  0
 44 42  1  1  0  0  0
 45 46  1  1  0  0  0
 45 43  1  0  0  0  0
 46 44  1  0  0  0  0
 47 54  1  6  0  0  0
 47 48  1  0  0  0  0
 48 43  1  6  0  0  0
 48 50  1  0  0  0  0
 49 45  1  0  0  0  0
 49 47  1  0  0  0  0
 50 51  1  6  0  0  0
 51 53  1  0  0  0  0
 52 51  2  0  0  0  0
 55 54  1  0  0  0  0
M  END
>  <MODEL>
6

>  <REMARK>
 VINA RESULT:      -4.0      2.797      6.538
  Name = 
  9 active torsions:
  status: ('A' for Active; 'I' for Inactive)
    1  A    between atoms: C_1  and  C_53
    2  A    between atoms: C_6  and  C_46
    3  A    between atoms: C_8  and  C_22
    4  A    between atoms: C_8  and  C_43
    5  A    between atoms: C_10  and  N_32
    6  A    between atoms: C_11  and  C_29
    7  A    between atoms: C_20  and  C_22
    8  A    between atoms: C_22  and  C_46
    9  A    between atoms: C_33  and  C_52
                            x       y       z     vdW  Elec       q    Type
                         _______ _______ _______ _____ _____    ______ ____

>  <TORSDO>
F 9

$$$$
=
 OpenBabel11052414493D

 55 62  0  0  1  0  0  0  0  0999 V2000
  185.6840  178.0100  136.6100 C   0  0  0  0  0  2  0  0  0  0  0  0
  187.4930  173.1860  136.4970 C   0  0  0  0  0  2  0  0  0  0  0  0
  184.4850  173.3080  136.1190 O   0  0  0  0  0  1  0  0  0  0  0  0
  180.6890  174.8070  135.2240 C   0  0  0  0  0  2  0  0  0  0  0  0
  179.4170  175.4870  135.6920 C   0  0  0  0  0  3  0  0  0  0  0  0
  181.4710  175.2350  137.6200 C   0  0  0  0  0  2  0  0  0  0  0  0
  180.6040  177.4510  136.6820 C   0  0  0  0  0  2  0  0  0  0  0  0
  184.5500  175.2000  137.3670 C   0  0  0  0  0  2  0  0  0  0  0  0
  179.3700  176.6710  136.3270 C   0  0  0  0  0  3  0  0  0  0  0  0
  187.4550  179.6430  136.3040 O   0  0  0  0  0  0  0  0  0  0  0  0
  181.8890  174.8420  136.1940 C   0  0  2  0  0  3  0  0  0  0  0  0
  189.3460  177.7360  135.7520 C   0  0  2  0  0  3  0  0  0  0  0  0
  184.7690  177.1250  135.7660 C   0  0  0  0  0  2  0  0  0  0  0  0
  187.8870  177.2820  135.6700 C   0  0  0  0  0  2  0  0  0  0  0  0
  182.9390  177.2180  137.5120 C   0  0  2  0  0  3  0  0  0  0  0  0
  188.2530  174.3460  135.9430 C   0  0  0  0  0  3  0  0  0  0  0  0
  181.4940  176.7550  137.7310 C   0  0  2  0  0  3  0  0  0  0  0  0
  186.3360  173.6990  137.3400 C   0  0  0  0  0  2  0  0  0  0  0  0
  185.3170  174.3100  136.5000 N   0  0  0  0  0  0  0  0  0  0  0  0
  188.2760  179.3380  137.4030 C   0  0  0  0  0  2  0  0  0  0  0  0
  189.4460  174.2560  135.3400 C   0  0  0  0  0  0  0  0  0  0  0  0
  186.8920  178.4470  135.7940 C   0  0  1  0  0  3  0  0  0  0  0  0
  182.9080  175.6670  135.6240 O   0  0  0  0  0  0  0  0  0  0  0  0
  183.7730  176.2790  136.5760 C   0  0  2  0  0  0  0  0  0  0  0  0
  190.0980  175.5020  134.8110 C   0  0  0  0  0  2  0  0  0  0  0  0
  190.2870  176.5420  135.9120 C   0  0  0  0  0  2  0  0  0  0  0  0
  189.5740  178.6920  136.9260 C   0  0  0  0  0  2  0  0  0  0  0  0
  183.2940  179.1140  139.1090 C   0  0  0  0  0  3  0  0  0  0  0  0
  183.7680  178.7340  141.4500 N   0  0  0  0  0  0  0  0  0  0  0  0
  183.3370  176.7790  140.0090 C   0  0  0  0  0  2  0  0  0  0  0  0
  184.0890  177.3190  141.2220 C   0  0  0  0  0  2  0  0  0  0  0  0
  183.3920  179.5880  140.3570 C   0  0  0  0  0  3  0  0  0  0  0  0
  183.6300  177.6790  138.8070 C   0  0  1  0  0  3  0  0  0  0  0  0
  184.0090  179.3540  142.7480 C   0  0  0  0  0  3  0  0  0  0  0  0
  183.2750  178.6170  143.8500 C   0  0  0  0  0  1  0  0  0  0  0  0
  185.4900  179.4070  143.0440 C   0  0  0  0  0  1  0  0  0  0  0  0
  190.1180  172.9200  135.1540 C   0  0  0  0  0  2  0  0  0  0  0  0
  191.6520  172.9770  135.2090 C   0  0  2  0  0  3  0  0  0  0  0  0
  192.4400  170.6590  135.6630 C   0  0  0  0  0  2  0  0  0  0  0  0
  192.2730  171.7250  134.5940 C   0  0  0  0  0  3  0  0  0  0  0  0
  191.2930  170.5680  134.6830 C   0  0  0  0  0  2  0  0  0  0  0  0
  192.1540  173.1960  136.6340 C   0  0  0  0  0  2  0  0  0  0  0  0
  195.1390  175.1480  138.5920 O   0  0  0  0  0  0  0  0  0  0  0  0
  193.5500  173.7950  136.6410 C   0  0  1  0  0  3  0  0  0  0  0  0
  194.8250  175.8430  137.4120 C   0  0  2  0  0  3  0  0  0  0  0  0
  193.4760  175.3150  136.8870 C   0  0  0  0  0  2  0  0  0  0  0  0
  196.4290  174.3920  136.8670 C   0  0  1  0  0  3  0  0  0  0  0  0
  195.6500  173.9510  138.0880 C   0  0  2  0  0  3  0  0  0  0  0  0
  195.8410  175.6010  136.4600 O   0  0  0  0  0  0  0  0  0  0  0  0
  194.4430  173.0740  137.6780 C   0  0  2  0  0  3  0  0  0  0  0  0
  194.8690  171.7160  137.2020 C   0  0  0  0  0  0  0  0  0  0  0  0
  194.6460  170.6910  137.9010 O   0  0  0  0  0  1  0  0  0  0  0  0
  195.5030  171.5870  135.9750 O   0  0  0  0  0  0  0  0  0  0  0  0
  197.8870  174.6170  137.2360 C   0  0  0  0  0  2  0  0  0  0  0  0
  198.4180  173.4240  138.0040 C   0  0  0  0  0  1  0  0  0  0  0  0
  2 18  1  0  0  0  0
  3 19  1  0  0  0  0
  4  5  1  0  0  0  0
  5  9  2  0  0  0  0
  6 17  1  0  0  0  0
  9  7  1  0  0  0  0
 10 20  1  0  0  0  0
 11  4  1  6  0  0  0
 11  6  1  0  0  0  0
 12 14  1  1  0  0  0
 12 26  1  0  0  0  0
 12 27  1  0  0  0  0
 13  1  1  0  0  0  0
 15 17  1  0  0  0  0
 15 33  1  1  0  0  0
 16  2  1  0  0  0  0
 17  7  1  6  0  0  0
 19 18  1  0  0  0  0
 19  8  1  0  0  0  0
 21 16  2  0  0  0  0
 22 14  1  1  0  0  0
 22 10  1  0  0  0  0
 22  1  1  0  0  0  0
 23 11  1  0  0  0  0
 23 24  1  0  0  0  0
 24 13  1  6  0  0  0
 24  8  1  0  0  0  0
 24 15  1  0  0  0  0
 25 21  1  0  0  0  0
 25 26  1  0  0  0  0
 27 20  1  0  0  0  0
 28 32  2  0  0  0  0
 29 34  1  0  0  0  0
 30 31  1  0  0  0  0
 31 29  1  0  0  0  0
 32 29  1  0  0  0  0
 33 28  1  1  0  0  0
 33 30  1  0  0  0  0
 34 36  1  0  0  0  0
 34 35  1  0  0  0  0
 37 21  1  0  0  0  0
 38 37  1  1  0  0  0
 38 42  1  0  0  0  0
 40 41  1  0  0  0  0
 40 38  1  0  0  0  0
 40 39  1  0  0  0  0
 41 39  1  0  0  0  0
 44 42  1  1  0  0  0
 44 46  1  0  0  0  0
 44 50  1  0  0  0  0
 45 46  1  6  0  0  0
 45 43  1  0  0  0  0
 47 54  1  1  0  0  0
 47 48  1  0  0  0  0
 48 43  1  6  0  0  0
 49 47  1  0  0  0  0
 49 45  1  0  0  0  0
 50 51  1  6  0  0  0
 50 48  1  0  0  0  0
 51 52  1  0  0  0  0
 53 51  2  0  0  0  0
 54 55  1  0  0  0  0
M  END
>  <MODEL>
7

>  <REMARK>
 VINA RESULT:      -3.6      4.896      7.826
  Name = 
  9 active torsions:
  status: ('A' for Active; 'I' for Inactive)
    1  A    between atoms: C_1  and  C_53
    2  A    between atoms: C_6  and  C_46
    3  A    between atoms: C_8  and  C_22
    4  A    between atoms: C_8  and  C_43
    5  A    between atoms: C_10  and  N_32
    6  A    between atoms: C_11  and  C_29
    7  A    between atoms: C_20  and  C_22
    8  A    between atoms: C_22  and  C_46
    9  A    between atoms: C_33  and  C_52
                            x       y       z     vdW  Elec       q    Type
                         _______ _______ _______ _____ _____    ______ ____

>  <TORSDO>
F 9

$$$$
