=
 OpenBabel11052412543D

 25 28  0  0  1  0  0  0  0  0999 V2000
  186.1660  178.2290  144.9680 C   0  0  0  0  0  0  0  0  0  0  0  0
  185.9560  177.6270  143.6130 C   0  0  1  0  0  3  0  0  0  0  0  0
  184.5020  179.9360  144.7180 N   0  0  0  0  0  0  0  0  0  0  0  0
  186.9060  177.8590  145.9940 C   0  0  0  0  0  0  0  0  0  0  0  0
  188.1860  177.6430  148.5220 C   0  0  0  0  0  3  0  0  0  0  0  0
  184.2210  179.4460  143.3920 C   0  0  0  0  0  3  0  0  0  0  0  0
  186.6060  178.7670  147.0910 C   0  0  0  0  0  0  0  0  0  0  0  0
  187.2120  178.5600  148.4050 C   0  0  0  0  0  3  0  0  0  0  0  0
  188.7610  176.9020  147.3230 C   0  0  0  0  0  2  0  0  0  0  0  0
  185.4200  179.3680  145.4320 C   0  0  0  0  0  0  0  0  0  0  0  0
  185.7220  179.6700  146.7920 N   0  0  0  0  0  0  0  0  0  0  0  0
  187.7450  176.6410  146.1920 C   0  0  0  0  0  2  0  0  0  0  0  0
  184.8680  178.3830  142.8520 C   0  0  0  0  0  0  0  0  0  0  0  0
  187.2440  177.5870  142.8410 C   0  0  0  0  0  0  0  0  0  0  0  0
  188.8100  178.5720  141.2710 C   0  0  0  0  0  3  0  0  0  0  0  0
  188.0950  176.4890  142.9930 C   0  0  0  0  0  3  0  0  0  0  0  0
  189.3000  176.4320  142.2860 C   0  0  0  0  0  3  0  0  0  0  0  0
  187.6060  178.6310  141.9760 C   0  0  0  0  0  3  0  0  0  0  0  0
  189.6660  177.4710  141.4210 C   0  0  0  0  0  0  0  0  0  0  0  0
  190.9360  177.4100  140.6770 C   0  0  0  0  0  0  0  0  0  0  0  0
  190.9410  177.1480  139.2770 N   0  0  0  0  0  1  0  0  0  0  0  0
  192.0310  177.5890  141.2730 O   0  0  0  0  0  0  0  0  0  0  0  0
  184.4930  177.8940  141.4820 C   0  0  0  0  0  3  0  0  0  0  0  0
  184.8630  178.9060  140.4130 C   0  0  0  0  0  1  0  0  0  0  0  0
  183.0160  177.5550  141.3990 C   0  0  0  0  0  1  0  0  0  0  0  0
  1 10  1  0  0  0  0
  1  4  2  0  0  0  0
  2 14  1  6  0  0  0
  2  1  1  0  0  0  0
  3 10  2  0  0  0  0
  4 12  1  0  0  0  0
  4  7  1  0  0  0  0
  6  3  1  0  0  0  0
  7  8  1  0  0  0  0
  8  5  2  0  0  0  0
  9  5  1  0  0  0  0
 10 11  1  0  0  0  0
 11  7  2  0  0  0  0
 12  9  1  0  0  0  0
 13  6  2  0  0  0  0
 13  2  1  0  0  0  0
 14 16  1  0  0  0  0
 15 19  2  0  0  0  0
 15 18  1  0  0  0  0
 17 16  2  0  0  0  0
 18 14  2  0  0  0  0
 19 17  1  0  0  0  0
 20 22  2  0  0  0  0
 20 19  1  0  0  0  0
 21 20  1  0  0  0  0
 23 13  1  0  0  0  0
 24 23  1  0  0  0  0
 25 23  1  0  0  0  0
M  END
>  <MODEL>
1

>  <REMARK>
 VINA RESULT:      -7.9      0.000      0.000
  Name = 
  3 active torsions:
  status: ('A' for Active; 'I' for Inactive)
    1  A    between atoms: C_2  and  C_25
    2  A    between atoms: C_3  and  C_6
    3  A    between atoms: C_13  and  C_24
                            x       y       z     vdW  Elec       q    Type
                         _______ _______ _______ _____ _____    ______ ____

>  <TORSDO>
F 3

$$$$
=
 OpenBabel11052412543D

 25 28  0  0  1  0  0  0  0  0999 V2000
  189.7570  177.4440  142.6700 C   0  0  0  0  0  0  0  0  0  0  0  0
  188.9410  178.3180  141.7680 C   0  0  1  0  0  3  0  0  0  0  0  0
  190.5550  176.0030  140.9300 N   0  0  0  0  0  0  0  0  0  0  0  0
  190.0470  177.5260  143.9540 C   0  0  0  0  0  0  0  0  0  0  0  0
  191.0750  177.1080  146.5690 C   0  0  0  0  0  3  0  0  0  0  0  0
  189.8010  176.7690  139.9690 C   0  0  0  0  0  3  0  0  0  0  0  0
  190.9890  176.4580  144.2510 C   0  0  0  0  0  0  0  0  0  0  0  0
  191.5700  176.3390  145.5870 C   0  0  0  0  0  3  0  0  0  0  0  0
  189.8610  178.0050  146.3730 C   0  0  0  0  0  2  0  0  0  0  0  0
  190.5110  176.3210  142.1830 C   0  0  0  0  0  0  0  0  0  0  0  0
  191.2920  175.7290  143.2190 N   0  0  0  0  0  0  0  0  0  0  0  0
  189.7250  178.5880  144.9520 C   0  0  0  0  0  2  0  0  0  0  0  0
  189.0490  177.8440  140.3190 C   0  0  0  0  0  0  0  0  0  0  0  0
  187.5120  178.3730  142.2260 C   0  0  0  0  0  0  0  0  0  0  0  0
  185.6990  177.5780  143.6300 C   0  0  0  0  0  3  0  0  0  0  0  0
  186.6490  179.3090  141.6510 C   0  0  0  0  0  3  0  0  0  0  0  0
  185.3150  179.3810  142.0630 C   0  0  0  0  0  3  0  0  0  0  0  0
  187.0320  177.5050  143.2190 C   0  0  0  0  0  3  0  0  0  0  0  0
  184.8300  178.5160  143.0530 C   0  0  0  0  0  0  0  0  0  0  0  0
  183.4240  178.5920  143.4880 C   0  0  0  0  0  0  0  0  0  0  0  0
  182.3730  178.6280  142.5270 N   0  0  0  0  0  1  0  0  0  0  0  0
  183.1390  178.6280  144.7140 O   0  0  0  0  0  0  0  0  0  0  0  0
  188.3260  178.6280  139.2620 C   0  0  0  0  0  3  0  0  0  0  0  0
  187.1350  177.8570  138.7210 C   0  0  0  0  0  1  0  0  0  0  0  0
  189.2560  179.0240  138.1300 C   0  0  0  0  0  1  0  0  0  0  0  0
  1  4  2  0  0  0  0
  2 14  1  1  0  0  0
  2  1  1  0  0  0  0
  3 10  2  0  0  0  0
  4  7  1  0  0  0  0
  4 12  1  0  0  0  0
  6 13  2  0  0  0  0
  6  3  1  0  0  0  0
  7  8  1  0  0  0  0
  8  5  2  0  0  0  0
  9  5  1  0  0  0  0
 10  1  1  0  0  0  0
 10 11  1  0  0  0  0
 11  7  2  0  0  0  0
 12  9  1  0  0  0  0
 13  2  1  0  0  0  0
 14 18  1  0  0  0  0
 16 17  1  0  0  0  0
 16 14  2  0  0  0  0
 17 19  2  0  0  0  0
 18 15  2  0  0  0  0
 19 20  1  0  0  0  0
 19 15  1  0  0  0  0
 20 22  2  0  0  0  0
 21 20  1  0  0  0  0
 23 13  1  0  0  0  0
 24 23  1  0  0  0  0
 25 23  1  0  0  0  0
M  END
>  <MODEL>
2

>  <REMARK>
 VINA RESULT:      -7.0      2.934      5.621
  Name = 
  3 active torsions:
  status: ('A' for Active; 'I' for Inactive)
    1  A    between atoms: C_2  and  C_25
    2  A    between atoms: C_3  and  C_6
    3  A    between atoms: C_13  and  C_24
                            x       y       z     vdW  Elec       q    Type
                         _______ _______ _______ _____ _____    ______ ____

>  <TORSDO>
F 3

$$$$
=
 OpenBabel11052412543D

 25 28  0  0  1  0  0  0  0  0999 V2000
  188.4870  177.6500  141.6220 C   0  0  0  0  0  0  0  0  0  0  0  0
  189.4540  178.0070  140.5360 C   0  0  1  0  0  3  0  0  0  0  0  0
  189.9220  176.0570  142.6920 N   0  0  0  0  0  0  0  0  0  0  0  0
  187.3110  178.1460  141.9550 C   0  0  0  0  0  0  0  0  0  0  0  0
  184.8340  178.7270  143.2190 C   0  0  0  0  0  3  0  0  0  0  0  0
  190.9280  176.3130  141.6910 C   0  0  0  0  0  3  0  0  0  0  0  0
  186.8960  177.4810  143.1810 C   0  0  0  0  0  0  0  0  0  0  0  0
  185.6610  177.8810  143.8530 C   0  0  0  0  0  3  0  0  0  0  0  0
  185.0750  179.1900  141.7890 C   0  0  0  0  0  2  0  0  0  0  0  0
  188.7870  176.6760  142.6360 C   0  0  0  0  0  0  0  0  0  0  0  0
  187.7530  176.6080  143.6160 N   0  0  0  0  0  0  0  0  0  0  0  0
  186.5630  179.3140  141.4040 C   0  0  0  0  0  2  0  0  0  0  0  0
  190.7480  177.2080  140.6860 C   0  0  0  0  0  0  0  0  0  0  0  0
  188.8360  177.8070  139.1830 C   0  0  0  0  0  0  0  0  0  0  0  0
  187.7180  176.4090  137.5440 C   0  0  0  0  0  3  0  0  0  0  0  0
  188.8030  178.8760  138.2840 C   0  0  0  0  0  3  0  0  0  0  0  0
  188.2310  178.7150  137.0190 C   0  0  0  0  0  3  0  0  0  0  0  0
  188.2900  176.5700  138.8080 C   0  0  0  0  0  3  0  0  0  0  0  0
  187.6850  177.4810  136.6390 C   0  0  0  0  0  0  0  0  0  0  0  0
  187.0800  177.3110  135.3060 C   0  0  0  0  0  0  0  0  0  0  0  0
  186.7870  176.0100  134.8080 N   0  0  0  0  0  1  0  0  0  0  0  0
  186.8190  178.3160  134.5940 O   0  0  0  0  0  0  0  0  0  0  0  0
  191.8560  177.4620  139.7040 C   0  0  0  0  0  3  0  0  0  0  0  0
  191.8640  176.4220  138.5990 C   0  0  0  0  0  1  0  0  0  0  0  0
  193.2080  177.5120  140.3930 C   0  0  0  0  0  1  0  0  0  0  0  0
  1  4  2  0  0  0  0
  1 10  1  0  0  0  0
  2 14  1  6  0  0  0
  2 13  1  0  0  0  0
  2  1  1  0  0  0  0
  4  7  1  0  0  0  0
  5  8  2  0  0  0  0
  6  3  1  0  0  0  0
  7 11  2  0  0  0  0
  7  8  1  0  0  0  0
  9  5  1  0  0  0  0
 10  3  2  0  0  0  0
 10 11  1  0  0  0  0
 12  9  1  0  0  0  0
 12  4  1  0  0  0  0
 13  6  2  0  0  0  0
 15 18  2  0  0  0  0
 16 14  2  0  0  0  0
 17 16  1  0  0  0  0
 18 14  1  0  0  0  0
 19 17  2  0  0  0  0
 19 15  1  0  0  0  0
 20 19  1  0  0  0  0
 21 20  1  0  0  0  0
 22 20  2  0  0  0  0
 23 25  1  0  0  0  0
 23 13  1  0  0  0  0
 24 23  1  0  0  0  0
M  END
>  <MODEL>
3

>  <REMARK>
 VINA RESULT:      -7.0      3.404      6.098
  Name = 
  3 active torsions:
  status: ('A' for Active; 'I' for Inactive)
    1  A    between atoms: C_2  and  C_25
    2  A    between atoms: C_3  and  C_6
    3  A    between atoms: C_13  and  C_24
                            x       y       z     vdW  Elec       q    Type
                         _______ _______ _______ _____ _____    ______ ____

>  <TORSDO>
F 3

$$$$
=
 OpenBabel11052412543D

 25 28  0  0  1  0  0  0  0  0999 V2000
  182.6500  178.0050  140.3270 C   0  0  0  0  0  0  0  0  0  0  0  0
  182.3110  178.8650  141.5060 C   0  0  1  0  0  3  0  0  0  0  0  0
  180.5750  176.8050  140.3170 N   0  0  0  0  0  0  0  0  0  0  0  0
  183.6740  178.0090  139.4970 C   0  0  0  0  0  0  0  0  0  0  0  0
  185.4990  177.4800  137.3850 C   0  0  0  0  0  3  0  0  0  0  0  0
  180.1450  177.5680  141.4620 C   0  0  0  0  0  3  0  0  0  0  0  0
  183.3950  177.0210  138.4650 C   0  0  0  0  0  0  0  0  0  0  0  0
  184.3140  176.8510  137.3420 C   0  0  0  0  0  3  0  0  0  0  0  0
  185.9670  178.2610  138.6050 C   0  0  0  0  0  2  0  0  0  0  0  0
  181.7490  177.0100  139.8110 C   0  0  0  0  0  0  0  0  0  0  0  0
  182.2560  176.4160  138.6190 N   0  0  0  0  0  0  0  0  0  0  0  0
  184.8320  178.9440  139.3950 C   0  0  0  0  0  2  0  0  0  0  0  0
  180.9170  178.5280  142.0340 C   0  0  0  0  0  0  0  0  0  0  0  0
  183.3530  178.7350  142.5790 C   0  0  0  0  0  0  0  0  0  0  0  0
  184.1320  179.1320  144.8430 C   0  0  0  0  0  3  0  0  0  0  0  0
  184.5460  178.0660  142.2930 C   0  0  0  0  0  3  0  0  0  0  0  0
  185.5300  177.9300  143.2760 C   0  0  0  0  0  3  0  0  0  0  0  0
  183.1490  179.2680  143.8610 C   0  0  0  0  0  3  0  0  0  0  0  0
  185.3310  178.4620  144.5580 C   0  0  0  0  0  0  0  0  0  0  0  0
  186.3680  178.3180  145.5950 C   0  0  0  0  0  0  0  0  0  0  0  0
  186.1000  178.6990  146.9410 N   0  0  0  0  0  1  0  0  0  0  0  0
  187.5020  177.8580  145.3000 O   0  0  0  0  0  0  0  0  0  0  0  0
  180.3890  179.3190  143.1960 C   0  0  0  0  0  3  0  0  0  0  0  0
  179.6460  178.4310  144.1780 C   0  0  0  0  0  1  0  0  0  0  0  0
  179.4960  180.4560  142.7330 C   0  0  0  0  0  1  0  0  0  0  0  0
  1  2  1  0  0  0  0
  2 13  1  0  0  0  0
  2 14  1  1  0  0  0
  3  6  1  0  0  0  0
  4  1  2  0  0  0  0
  5  9  1  0  0  0  0
  6 13  2  0  0  0  0
  7 11  2  0  0  0  0
  7  4  1  0  0  0  0
  8  5  2  0  0  0  0
  8  7  1  0  0  0  0
  9 12  1  0  0  0  0
 10  3  2  0  0  0  0
 10  1  1  0  0  0  0
 11 10  1  0  0  0  0
 12  4  1  0  0  0  0
 13 23  1  0  0  0  0
 14 18  1  0  0  0  0
 16 14  2  0  0  0  0
 16 17  1  0  0  0  0
 17 19  2  0  0  0  0
 18 15  2  0  0  0  0
 19 15  1  0  0  0  0
 19 20  1  0  0  0  0
 20 21  1  0  0  0  0
 22 20  2  0  0  0  0
 23 24  1  0  0  0  0
 25 23  1  0  0  0  0
M  END
>  <MODEL>
4

>  <REMARK>
 VINA RESULT:      -6.9      3.301      6.987
  Name = 
  3 active torsions:
  status: ('A' for Active; 'I' for Inactive)
    1  A    between atoms: C_2  and  C_25
    2  A    between atoms: C_3  and  C_6
    3  A    between atoms: C_13  and  C_24
                            x       y       z     vdW  Elec       q    Type
                         _______ _______ _______ _____ _____    ______ ____

>  <TORSDO>
F 3

$$$$
=
 OpenBabel11052412543D

 25 28  0  0  1  0  0  0  0  0999 V2000
  189.2460  177.2670  146.9180 C   0  0  0  0  0  0  0  0  0  0  0  0
  188.1170  177.0530  145.9580 C   0  0  1  0  0  3  0  0  0  0  0  0
  188.1240  178.9360  148.2220 N   0  0  0  0  0  0  0  0  0  0  0  0
  190.4000  176.6490  147.0750 C   0  0  0  0  0  0  0  0  0  0  0  0
  192.9500  175.7820  147.9780 C   0  0  0  0  0  3  0  0  0  0  0  0
  186.9780  178.8210  147.3550 C   0  0  0  0  0  3  0  0  0  0  0  0
  191.0330  177.2150  148.2570 C   0  0  0  0  0  0  0  0  0  0  0  0
  192.2990  176.6710  148.7450 C   0  0  0  0  0  3  0  0  0  0  0  0
  192.4830  175.4110  146.5780 C   0  0  0  0  0  2  0  0  0  0  0  0
  189.1770  178.2170  147.9950 C   0  0  0  0  0  0  0  0  0  0  0  0
  190.3290  178.1430  148.8310 N   0  0  0  0  0  0  0  0  0  0  0  0
  190.9530  175.4440  146.3900 C   0  0  0  0  0  2  0  0  0  0  0  0
  186.9380  177.9610  146.3050 C   0  0  0  0  0  0  0  0  0  0  0  0
  188.5720  177.2580  144.5420 C   0  0  0  0  0  0  0  0  0  0  0  0
  189.8430  178.4820  142.8750 C   0  0  0  0  0  3  0  0  0  0  0  0
  188.1330  176.3760  143.5510 C   0  0  0  0  0  3  0  0  0  0  0  0
  188.5460  176.5450  142.2260 C   0  0  0  0  0  3  0  0  0  0  0  0
  189.4310  178.3140  144.1990 C   0  0  0  0  0  3  0  0  0  0  0  0
  189.4030  177.5980  141.8780 C   0  0  0  0  0  0  0  0  0  0  0  0
  189.8390  177.7760  140.4820 C   0  0  0  0  0  0  0  0  0  0  0  0
  188.9600  178.3510  139.5190 N   0  0  0  0  0  1  0  0  0  0  0  0
  190.9930  177.4190  140.1260 O   0  0  0  0  0  0  0  0  0  0  0  0
  185.6930  177.8570  145.4700 C   0  0  0  0  0  3  0  0  0  0  0  0
  185.7580  178.7760  144.2640 C   0  0  0  0  0  1  0  0  0  0  0  0
  184.4490  178.1480  146.2890 C   0  0  0  0  0  1  0  0  0  0  0  0
  1  4  2  0  0  0  0
  1 10  1  0  0  0  0
  2 14  1  6  0  0  0
  2 13  1  0  0  0  0
  2  1  1  0  0  0  0
  4  7  1  0  0  0  0
  5  8  2  0  0  0  0
  6  3  1  0  0  0  0
  7  8  1  0  0  0  0
  7 11  2  0  0  0  0
  9  5  1  0  0  0  0
 10  3  2  0  0  0  0
 10 11  1  0  0  0  0
 12  9  1  0  0  0  0
 12  4  1  0  0  0  0
 13  6  2  0  0  0  0
 15 18  2  0  0  0  0
 16 14  2  0  0  0  0
 17 16  1  0  0  0  0
 18 14  1  0  0  0  0
 19 17  2  0  0  0  0
 19 15  1  0  0  0  0
 20 19  1  0  0  0  0
 21 20  1  0  0  0  0
 22 20  2  0  0  0  0
 23 25  1  0  0  0  0
 23 13  1  0  0  0  0
 24 23  1  0  0  0  0
M  END
>  <MODEL>
5

>  <REMARK>
 VINA RESULT:      -6.8      2.314      3.742
  Name = 
  3 active torsions:
  status: ('A' for Active; 'I' for Inactive)
    1  A    between atoms: C_2  and  C_25
    2  A    between atoms: C_3  and  C_6
    3  A    between atoms: C_13  and  C_24
                            x       y       z     vdW  Elec       q    Type
                         _______ _______ _______ _____ _____    ______ ____

>  <TORSDO>
F 3

$$$$
=
 OpenBabel11052412543D

 25 28  0  0  1  0  0  0  0  0999 V2000
  186.3860  178.2520  142.5070 C   0  0  0  0  0  0  0  0  0  0  0  0
  186.3650  178.7940  141.1110 C   0  0  1  0  0  3  0  0  0  0  0  0
  188.2970  176.8440  142.1760 N   0  0  0  0  0  0  0  0  0  0  0  0
  185.6850  178.5540  143.5820 C   0  0  0  0  0  0  0  0  0  0  0  0
  184.6150  178.7060  146.2100 C   0  0  0  0  0  3  0  0  0  0  0  0
  188.3690  177.2900  140.8070 C   0  0  0  0  0  3  0  0  0  0  0  0
  186.2370  177.7820  144.6860 C   0  0  0  0  0  0  0  0  0  0  0  0
  185.7220  177.9650  146.0420 C   0  0  0  0  0  3  0  0  0  0  0  0
  183.8150  179.2600  145.0400 C   0  0  0  0  0  2  0  0  0  0  0  0
  187.3590  177.2900  142.9490 C   0  0  0  0  0  0  0  0  0  0  0  0
  187.2370  177.0280  144.3450 N   0  0  0  0  0  0  0  0  0  0  0  0
  184.6640  179.6200  143.8040 C   0  0  0  0  0  2  0  0  0  0  0  0
  187.4980  178.1900  140.2830 C   0  0  0  0  0  0  0  0  0  0  0  0
  185.0280  178.5630  140.4680 C   0  0  0  0  0  0  0  0  0  0  0  0
  182.9950  177.2640  140.2020 C   0  0  0  0  0  3  0  0  0  0  0  0
  184.5650  179.4710  139.5120 C   0  0  0  0  0  3  0  0  0  0  0  0
  183.3230  179.2780  138.9020 C   0  0  0  0  0  3  0  0  0  0  0  0
  184.2360  177.4560  140.8120 C   0  0  0  0  0  3  0  0  0  0  0  0
  182.5290  178.1740  139.2420 C   0  0  0  0  0  0  0  0  0  0  0  0
  181.2190  177.9710  138.5990 C   0  0  0  0  0  0  0  0  0  0  0  0
  180.2380  177.1370  139.2080 N   0  0  0  0  0  1  0  0  0  0  0  0
  180.9550  178.5320  137.5030 O   0  0  0  0  0  0  0  0  0  0  0  0
  187.6590  178.6470  138.8620 C   0  0  0  0  0  3  0  0  0  0  0  0
  187.0880  177.6340  137.8870 C   0  0  0  0  0  1  0  0  0  0  0  0
  189.1120  178.9370  138.5320 C   0  0  0  0  0  1  0  0  0  0  0  0
  1 10  1  0  0  0  0
  1  4  2  0  0  0  0
  2 14  1  6  0  0  0
  2  1  1  0  0  0  0
  3 10  2  0  0  0  0
  4 12  1  0  0  0  0
  4  7  1  0  0  0  0
  6  3  1  0  0  0  0
  7  8  1  0  0  0  0
  8  5  2  0  0  0  0
  9  5  1  0  0  0  0
 10 11  1  0  0  0  0
 11  7  2  0  0  0  0
 12  9  1  0  0  0  0
 13  6  2  0  0  0  0
 13  2  1  0  0  0  0
 14 18  1  0  0  0  0
 15 18  2  0  0  0  0
 16 14  2  0  0  0  0
 17 19  2  0  0  0  0
 17 16  1  0  0  0  0
 19 15  1  0  0  0  0
 20 21  1  0  0  0  0
 20 19  1  0  0  0  0
 22 20  2  0  0  0  0
 23 13  1  0  0  0  0
 24 23  1  0  0  0  0
 25 23  1  0  0  0  0
M  END
>  <MODEL>
6

>  <REMARK>
 VINA RESULT:      -6.8      3.428      5.843
  Name = 
  3 active torsions:
  status: ('A' for Active; 'I' for Inactive)
    1  A    between atoms: C_2  and  C_25
    2  A    between atoms: C_3  and  C_6
    3  A    between atoms: C_13  and  C_24
                            x       y       z     vdW  Elec       q    Type
                         _______ _______ _______ _____ _____    ______ ____

>  <TORSDO>
F 3

$$$$
=
 OpenBabel11052412543D

 25 28  0  0  1  0  0  0  0  0999 V2000
  187.2260  178.2000  143.1590 C   0  0  0  0  0  0  0  0  0  0  0  0
  188.6700  178.4960  142.8920 C   0  0  1  0  0  3  0  0  0  0  0  0
  187.5900  177.2100  145.3110 N   0  0  0  0  0  0  0  0  0  0  0  0
  186.1260  178.5080  142.5010 C   0  0  0  0  0  0  0  0  0  0  0  0
  183.4340  178.8390  141.6550 C   0  0  0  0  0  3  0  0  0  0  0  0
  189.0060  177.4370  145.1590 C   0  0  0  0  0  3  0  0  0  0  0  0
  185.0020  178.0610  143.3110 C   0  0  0  0  0  0  0  0  0  0  0  0
  183.6320  178.3410  142.8860 C   0  0  0  0  0  3  0  0  0  0  0  0
  184.5640  179.0110  140.6500 C   0  0  0  0  0  2  0  0  0  0  0  0
  186.7790  177.5570  144.3640 C   0  0  0  0  0  0  0  0  0  0  0  0
  185.3550  177.5000  144.4270 N   0  0  0  0  0  0  0  0  0  0  0  0
  185.9300  179.3470  141.2830 C   0  0  0  0  0  2  0  0  0  0  0  0
  189.5380  178.0300  144.0600 C   0  0  0  0  0  0  0  0  0  0  0  0
  189.1110  177.8790  141.5960 C   0  0  0  0  0  0  0  0  0  0  0  0
  189.0660  177.7680  139.1720 C   0  0  0  0  0  3  0  0  0  0  0  0
  190.0120  176.8110  141.6220 C   0  0  0  0  0  3  0  0  0  0  0  0
  190.4390  176.2220  140.4280 C   0  0  0  0  0  3  0  0  0  0  0  0
  188.6380  178.3570  140.3640 C   0  0  0  0  0  3  0  0  0  0  0  0
  189.9690  176.6950  139.1960 C   0  0  0  0  0  0  0  0  0  0  0  0
  190.4200  176.0750  137.9370 C   0  0  0  0  0  0  0  0  0  0  0  0
  190.7430  174.6890  137.8910 N   0  0  0  0  0  1  0  0  0  0  0  0
  190.5250  176.7670  136.8900 O   0  0  0  0  0  0  0  0  0  0  0  0
  191.0170  178.2800  143.9870 C   0  0  0  0  0  3  0  0  0  0  0  0
  191.7670  177.4720  145.0300 C   0  0  0  0  0  1  0  0  0  0  0  0
  191.3390  179.7560  144.1310 C   0  0  0  0  0  1  0  0  0  0  0  0
  1 10  1  0  0  0  0
  2 14  1  6  0  0  0
  2  1  1  0  0  0  0
  2 13  1  0  0  0  0
  4  1  2  0  0  0  0
  4  7  1  0  0  0  0
  5  8  2  0  0  0  0
  6  3  1  0  0  0  0
  7 11  2  0  0  0  0
  8  7  1  0  0  0  0
  9 12  1  0  0  0  0
  9  5  1  0  0  0  0
 10 11  1  0  0  0  0
 10  3  2  0  0  0  0
 12  4  1  0  0  0  0
 13  6  2  0  0  0  0
 14 16  1  0  0  0  0
 15 19  2  0  0  0  0
 15 18  1  0  0  0  0
 17 16  2  0  0  0  0
 18 14  2  0  0  0  0
 19 17  1  0  0  0  0
 20 19  1  0  0  0  0
 21 20  1  0  0  0  0
 22 20  2  0  0  0  0
 23 13  1  0  0  0  0
 23 25  1  0  0  0  0
 23 24  1  0  0  0  0
M  END
>  <MODEL>
7

>  <REMARK>
 VINA RESULT:      -6.6      2.280      4.973
  Name = 
  3 active torsions:
  status: ('A' for Active; 'I' for Inactive)
    1  A    between atoms: C_2  and  C_25
    2  A    between atoms: C_3  and  C_6
    3  A    between atoms: C_13  and  C_24
                            x       y       z     vdW  Elec       q    Type
                         _______ _______ _______ _____ _____    ______ ____

>  <TORSDO>
F 3

$$$$
=
 OpenBabel11052412543D

 25 28  0  0  1  0  0  0  0  0999 V2000
  191.1990  175.4380  137.5640 C   0  0  0  0  0  0  0  0  0  0  0  0
  190.6910  176.7580  138.0590 C   0  0  1  0  0  3  0  0  0  0  0  0
  189.1130  174.7310  136.6200 N   0  0  0  0  0  0  0  0  0  0  0  0
  192.4080  174.9130  137.5340 C   0  0  0  0  0  0  0  0  0  0  0  0
  194.6630  173.2340  137.1250 C   0  0  0  0  0  3  0  0  0  0  0  0
  188.5130  175.9670  137.0570 C   0  0  0  0  0  3  0  0  0  0  0  0
  192.3090  173.6490  136.8180 C   0  0  0  0  0  0  0  0  0  0  0  0
  193.5110  172.8650  136.5420 C   0  0  0  0  0  3  0  0  0  0  0  0
  194.7390  174.3590  138.1470 C   0  0  0  0  0  2  0  0  0  0  0  0
  190.3590  174.4950  136.8780 C   0  0  0  0  0  0  0  0  0  0  0  0
  191.1080  173.3760  136.4080 N   0  0  0  0  0  0  0  0  0  0  0  0
  193.7270  175.4990  137.9140 C   0  0  0  0  0  2  0  0  0  0  0  0
  189.2110  176.9250  137.7190 C   0  0  0  0  0  0  0  0  0  0  0  0
  190.9400  176.9090  139.5320 C   0  0  0  0  0  0  0  0  0  0  0  0
  192.3240  177.6350  141.3890 C   0  0  0  0  0  3  0  0  0  0  0  0
  189.9780  176.4500  140.4350 C   0  0  0  0  0  3  0  0  0  0  0  0
  190.1860  176.5830  141.8110 C   0  0  0  0  0  3  0  0  0  0  0  0
  192.1170  177.5030  140.0140 C   0  0  0  0  0  3  0  0  0  0  0  0
  191.3600  177.1740  142.2980 C   0  0  0  0  0  0  0  0  0  0  0  0
  191.5790  177.3140  143.7480 C   0  0  0  0  0  0  0  0  0  0  0  0
  191.6800  178.6050  144.3420 N   0  0  0  0  0  1  0  0  0  0  0  0
  191.6800  176.2920  144.4770 O   0  0  0  0  0  0  0  0  0  0  0  0
  188.5360  178.2100  138.1040 C   0  0  0  0  0  3  0  0  0  0  0  0
  187.0280  178.1040  137.9740 C   0  0  0  0  0  1  0  0  0  0  0  0
  189.0550  179.3770  137.2840 C   0  0  0  0  0  1  0  0  0  0  0  0
  1  2  1  0  0  0  0
  2 14  1  1  0  0  0
  3 10  2  0  0  0  0
  3  6  1  0  0  0  0
  4  1  2  0  0  0  0
  4 12  1  0  0  0  0
  5  9  1  0  0  0  0
  6 13  2  0  0  0  0
  7  4  1  0  0  0  0
  8  7  1  0  0  0  0
  8  5  2  0  0  0  0
 10  1  1  0  0  0  0
 11  7  2  0  0  0  0
 11 10  1  0  0  0  0
 12  9  1  0  0  0  0
 13  2  1  0  0  0  0
 13 23  1  0  0  0  0
 14 18  2  0  0  0  0
 14 16  1  0  0  0  0
 15 19  2  0  0  0  0
 16 17  2  0  0  0  0
 17 19  1  0  0  0  0
 18 15  1  0  0  0  0
 19 20  1  0  0  0  0
 20 21  1  0  0  0  0
 20 22  2  0  0  0  0
 24 23  1  0  0  0  0
 25 23  1  0  0  0  0
M  END
>  <MODEL>
8

>  <REMARK>
 VINA RESULT:      -6.6      4.758      8.502
  Name = 
  3 active torsions:
  status: ('A' for Active; 'I' for Inactive)
    1  A    between atoms: C_2  and  C_25
    2  A    between atoms: C_3  and  C_6
    3  A    between atoms: C_13  and  C_24
                            x       y       z     vdW  Elec       q    Type
                         _______ _______ _______ _____ _____    ______ ____

>  <TORSDO>
F 3

$$$$
=
 OpenBabel11052412543D

 25 28  0  0  1  0  0  0  0  0999 V2000
  189.8650  177.4030  144.0960 C   0  0  0  0  0  0  0  0  0  0  0  0
  188.8020  176.9760  145.0600 C   0  0  1  0  0  3  0  0  0  0  0  0
  191.3010  178.3690  145.7540 N   0  0  0  0  0  0  0  0  0  0  0  0
  190.0220  177.1920  142.8040 C   0  0  0  0  0  0  0  0  0  0  0  0
  190.9860  177.1020  140.1330 C   0  0  0  0  0  3  0  0  0  0  0  0
  190.3420  178.0140  146.7700 C   0  0  0  0  0  3  0  0  0  0  0  0
  191.3160  177.7440  142.4320 C   0  0  0  0  0  0  0  0  0  0  0  0
  191.8180  177.5880  141.0680 C   0  0  0  0  0  3  0  0  0  0  0  0
  189.5160  176.8220  140.4110 C   0  0  0  0  0  2  0  0  0  0  0  0
  191.0560  178.0910  144.5140 C   0  0  0  0  0  0  0  0  0  0  0  0
  191.9590  178.2780  143.4260 N   0  0  0  0  0  0  0  0  0  0  0  0
  189.2180  176.3670  141.8550 C   0  0  0  0  0  2  0  0  0  0  0  0
  189.1820  177.3680  146.4870 C   0  0  0  0  0  0  0  0  0  0  0  0
  187.4670  177.5430  144.6700 C   0  0  0  0  0  0  0  0  0  0  0  0
  185.4250  178.7360  145.2130 C   0  0  0  0  0  3  0  0  0  0  0  0
  187.0240  177.3970  143.3520 C   0  0  0  0  0  3  0  0  0  0  0  0
  185.7870  177.9190  142.9650 C   0  0  0  0  0  3  0  0  0  0  0  0
  186.6610  178.2150  145.6010 C   0  0  0  0  0  3  0  0  0  0  0  0
  184.9780  178.5910  143.8910 C   0  0  0  0  0  0  0  0  0  0  0  0
  183.6740  179.1410  143.4820 C   0  0  0  0  0  0  0  0  0  0  0  0
  183.1050  178.7910  142.2240 N   0  0  0  0  0  1  0  0  0  0  0  0
  183.0500  179.9280  144.2420 O   0  0  0  0  0  0  0  0  0  0  0  0
  188.2490  176.9840  147.6000 C   0  0  0  0  0  3  0  0  0  0  0  0
  188.2130  178.0470  148.6830 C   0  0  0  0  0  1  0  0  0  0  0  0
  188.6170  175.6370  148.1940 C   0  0  0  0  0  1  0  0  0  0  0  0
  1 10  1  0  0  0  0
  1  2  1  0  0  0  0
  2 14  1  6  0  0  0
  2 13  1  0  0  0  0
  3  6  1  0  0  0  0
  4  1  2  0  0  0  0
  5  9  1  0  0  0  0
  5  8  2  0  0  0  0
  7  4  1  0  0  0  0
  7 11  2  0  0  0  0
  8  7  1  0  0  0  0
  9 12  1  0  0  0  0
 10  3  2  0  0  0  0
 11 10  1  0  0  0  0
 12  4  1  0  0  0  0
 13  6  2  0  0  0  0
 13 23  1  0  0  0  0
 14 18  1  0  0  0  0
 15 18  2  0  0  0  0
 16 14  2  0  0  0  0
 17 16  1  0  0  0  0
 17 19  2  0  0  0  0
 19 15  1  0  0  0  0
 20 19  1  0  0  0  0
 20 22  2  0  0  0  0
 21 20  1  0  0  0  0
 23 25  1  0  0  0  0
 23 24  1  0  0  0  0
M  END
>  <MODEL>
9

>  <REMARK>
 VINA RESULT:      -6.4      2.806      6.546
  Name = 
  3 active torsions:
  status: ('A' for Active; 'I' for Inactive)
    1  A    between atoms: C_2  and  C_25
    2  A    between atoms: C_3  and  C_6
    3  A    between atoms: C_13  and  C_24
                            x       y       z     vdW  Elec       q    Type
                         _______ _______ _______ _____ _____    ______ ____

>  <TORSDO>
F 3

$$$$
