=
 OpenBabel11052414343D

 32 37  0  0  1  0  0  0  0  0999 V2000
  186.3840  178.2090  144.9040 C   0  0  0  0  0  0  0  0  0  0  0  0
  188.7260  177.6980  144.5470 C   0  0  0  0  0  0  0  0  0  0  0  0
  185.2630  178.6020  145.8380 C   0  0  0  0  0  2  0  0  0  0  0  0
  187.6790  177.9850  145.4150 C   0  0  0  0  0  0  0  0  0  0  0  0
  190.0730  177.4840  145.1020 C   0  0  0  0  0  0  0  0  0  0  0  0
  190.6990  177.0960  140.0470 C   0  0  0  0  0  2  0  0  0  0  0  0
  188.4890  177.5950  143.1730 C   0  0  0  0  0  0  0  0  0  0  0  0
  192.0050  176.9700  142.0840 O   0  0  0  0  0  0  0  0  0  0  0  0
  190.9700  177.5850  142.8080 C   0  0  2  0  0  3  0  0  0  0  0  0
  187.9440  177.8570  146.9010 C   0  0  1  0  0  3  0  0  0  0  0  0
  191.1300  177.3660  144.2900 C   0  0  0  0  0  3  0  0  0  0  0  0
  189.2580  178.2730  147.2380 O   0  0  0  0  0  0  0  0  0  0  0  0
  186.9150  178.6250  147.7190 C   0  0  0  0  0  2  0  0  0  0  0  0
  187.2300  177.7930  142.6930 N   0  0  0  0  0  0  0  0  0  0  0  0
  186.1850  178.1240  143.5040 C   0  0  0  0  0  0  0  0  0  0  0  0
  189.6030  177.0980  142.2870 C   0  0  2  0  0  3  0  0  0  0  0  0
  190.2190  177.4390  146.5980 C   0  0  1  0  0  3  0  0  0  0  0  0
  185.5190  178.1920  147.2890 C   0  0  0  0  0  2  0  0  0  0  0  0
  191.9690  177.5310  140.7910 C   0  0  0  0  0  2  0  0  0  0  0  0
  189.4650  177.5420  140.8330 C   0  0  0  0  0  2  0  0  0  0  0  0
  183.4600  178.9050  140.9690 C   0  0  0  0  0  0  0  0  0  0  0  0
  183.3050  179.1600  139.6110 O   0  0  0  0  0  1  0  0  0  0  0  0
  184.8640  178.3730  142.8850 C   0  0  0  0  0  0  0  0  0  0  0  0
  182.3350  178.9140  141.7970 C   0  0  0  0  0  3  0  0  0  0  0  0
  183.7240  178.3910  143.7010 C   0  0  0  0  0  3  0  0  0  0  0  0
  184.7290  178.6390  141.5050 C   0  0  0  0  0  0  0  0  0  0  0  0
  186.1220  178.5930  140.4220 Cl  0  0  0  0  0  0  0  0  0  0  0  0
  182.4620  178.6560  143.1680 C   0  0  0  0  0  0  0  0  0  0  0  0
  180.0160  178.6340  143.5400 C   0  0  0  0  0  1  0  0  0  0  0  0
  181.3530  178.6590  144.0200 O   0  0  0  0  0  0  0  0  0  0  0  0
  190.1950  176.0080  147.1270 C   0  0  0  0  0  2  0  0  0  0  0  0
  191.4810  175.6180  147.4980 O   0  0  0  0  0  1  0  0  0  0  0  0
  1  4  1  0  0  0  0
  1  3  1  0  0  0  0
  2  5  1  0  0  0  0
  2  4  2  0  0  0  0
  3 18  1  0  0  0  0
  4 10  1  0  0  0  0
  5 17  1  0  0  0  0
  6 19  1  0  0  0  0
  6 20  1  0  0  0  0
  7  2  1  0  0  0  0
  8  9  1  0  0  0  0
  9 11  1  1  0  0  0
 10 12  1  0  0  0  0
 10 13  1  1  0  0  0
 11  5  2  0  0  0  0
 14  7  2  0  0  0  0
 14 15  1  0  0  0  0
 15  1  2  0  0  0  0
 16 20  1  6  0  0  0
 16  9  1  0  0  0  0
 16  7  1  0  0  0  0
 17 31  1  1  0  0  0
 17 12  1  0  0  0  0
 18 13  1  0  0  0  0
 19  8  1  0  0  0  0
 21 26  2  0  0  0  0
 21 24  1  0  0  0  0
 22 21  1  0  0  0  0
 23 15  1  0  0  0  0
 23 25  2  0  0  0  0
 24 28  2  0  0  0  0
 26 23  1  0  0  0  0
 27 26  1  0  0  0  0
 28 25  1  0  0  0  0
 28 30  1  0  0  0  0
 29 30  1  0  0  0  0
 31 32  1  0  0  0  0
M  END
>  <MODEL>
1

>  <REMARK>
 VINA RESULT:     -10.5      0.000      0.000
  Name = 
  3 active torsions:
  status: ('A' for Active; 'I' for Inactive)
    1  A    between atoms: C_13  and  C_29
    2  A    between atoms: O_15  and  C_26
    3  A    between atoms: C_16  and  C_27
                            x       y       z     vdW  Elec       q    Type
                         _______ _______ _______ _____ _____    ______ ____

>  <TORSDO>
F 3

$$$$
=
 OpenBabel11052414343D

 32 37  0  0  1  0  0  0  0  0999 V2000
  189.3930  177.2940  143.4430 C   0  0  0  0  0  0  0  0  0  0  0  0
  187.5630  177.7790  144.9560 C   0  0  0  0  0  0  0  0  0  0  0  0
  190.7810  176.7440  143.2090 C   0  0  0  0  0  2  0  0  0  0  0  0
  188.8670  177.3430  144.7500 C   0  0  0  0  0  0  0  0  0  0  0  0
  187.0280  177.8060  146.3280 C   0  0  0  0  0  0  0  0  0  0  0  0
  183.1180  179.3130  143.4070 C   0  0  0  0  0  2  0  0  0  0  0  0
  186.7860  178.2020  143.8730 C   0  0  0  0  0  0  0  0  0  0  0  0
  183.6340  178.9170  145.7420 O   0  0  0  0  0  0  0  0  0  0  0  0
  184.7850  178.1950  145.3840 C   0  0  2  0  0  3  0  0  0  0  0  0
  189.7320  177.1180  145.9730 C   0  0  1  0  0  3  0  0  0  0  0  0
  185.7340  178.0640  146.5470 C   0  0  0  0  0  3  0  0  0  0  0  0
  188.9850  176.5830  147.0540 O   0  0  0  0  0  0  0  0  0  0  0  0
  190.9240  176.2250  145.6550 C   0  0  0  0  0  2  0  0  0  0  0  0
  187.3120  178.1710  142.6180 N   0  0  0  0  0  0  0  0  0  0  0  0
  188.5700  177.7050  142.3660 C   0  0  0  0  0  0  0  0  0  0  0  0
  185.4510  178.8440  144.1540 C   0  0  2  0  0  3  0  0  0  0  0  0
  187.9740  177.5020  147.4570 C   0  0  1  0  0  3  0  0  0  0  0  0
  191.6660  176.8010  144.4550 C   0  0  0  0  0  2  0  0  0  0  0  0
  182.6830  178.6680  144.7310 C   0  0  0  0  0  2  0  0  0  0  0  0
  184.4760  178.7490  142.9840 C   0  0  0  0  0  2  0  0  0  0  0  0
  188.6540  177.8760  138.5680 C   0  0  0  0  0  0  0  0  0  0  0  0
  187.8290  178.1880  137.4940 O   0  0  0  0  0  1  0  0  0  0  0  0
  189.0360  177.6580  140.9620 C   0  0  0  0  0  0  0  0  0  0  0  0
  189.9670  177.4690  138.3230 C   0  0  0  0  0  3  0  0  0  0  0  0
  190.3490  177.2460  140.6970 C   0  0  0  0  0  3  0  0  0  0  0  0
  188.1780  177.9710  139.8840 C   0  0  0  0  0  0  0  0  0  0  0  0
  186.5270  178.5290  140.1580 Cl  0  0  0  0  0  0  0  0  0  0  0  0
  190.8220  177.1530  139.3870 C   0  0  0  0  0  0  0  0  0  0  0  0
  192.6410  176.4120  137.8820 C   0  0  0  0  0  1  0  0  0  0  0  0
  192.1410  176.7420  139.1710 O   0  0  0  0  0  0  0  0  0  0  0  0
  188.5520  178.7740  148.0700 C   0  0  0  0  0  2  0  0  0  0  0  0
  189.4780  178.4450  149.0590 O   0  0  0  0  0  1  0  0  0  0  0  0
  1  4  1  0  0  0  0
  2  5  1  0  0  0  0
  3  1  1  0  0  0  0
  3 18  1  0  0  0  0
  4  2  2  0  0  0  0
  4 10  1  0  0  0  0
  5 11  2  0  0  0  0
  5 17  1  0  0  0  0
  6 19  1  0  0  0  0
  7 16  1  0  0  0  0
  7  2  1  0  0  0  0
  9  8  1  0  0  0  0
  9 11  1  1  0  0  0
 10 13  1  6  0  0  0
 10 12  1  0  0  0  0
 12 17  1  0  0  0  0
 14  7  2  0  0  0  0
 15 14  1  0  0  0  0
 15  1  2  0  0  0  0
 16 20  1  6  0  0  0
 16  9  1  0  0  0  0
 17 31  1  6  0  0  0
 18 13  1  0  0  0  0
 19  8  1  0  0  0  0
 20  6  1  0  0  0  0
 21 26  1  0  0  0  0
 22 21  1  0  0  0  0
 23 15  1  0  0  0  0
 24 21  2  0  0  0  0
 24 28  1  0  0  0  0
 25 23  1  0  0  0  0
 26 27  1  0  0  0  0
 26 23  2  0  0  0  0
 28 25  2  0  0  0  0
 29 30  1  0  0  0  0
 30 28  1  0  0  0  0
 31 32  1  0  0  0  0
M  END
>  <MODEL>
2

>  <REMARK>
 VINA RESULT:     -10.3      1.704      6.224
  Name = 
  3 active torsions:
  status: ('A' for Active; 'I' for Inactive)
    1  A    between atoms: C_13  and  C_29
    2  A    between atoms: O_15  and  C_26
    3  A    between atoms: C_16  and  C_27
                            x       y       z     vdW  Elec       q    Type
                         _______ _______ _______ _____ _____    ______ ____

>  <TORSDO>
F 3

$$$$
=
 OpenBabel11052414343D

 32 37  0  0  1  0  0  0  0  0999 V2000
  187.6080  177.9910  142.1350 C   0  0  0  0  0  0  0  0  0  0  0  0
  185.4080  178.3660  141.1920 C   0  0  0  0  0  0  0  0  0  0  0  0
  189.1060  177.9050  141.9560 C   0  0  0  0  0  2  0  0  0  0  0  0
  186.7780  178.2120  141.0170 C   0  0  0  0  0  0  0  0  0  0  0  0
  184.5620  178.6130  140.0120 C   0  0  0  0  0  0  0  0  0  0  0  0
  181.3210  178.7650  143.9580 C   0  0  0  0  0  2  0  0  0  0  0  0
  184.8480  178.2650  142.4690 C   0  0  0  0  0  0  0  0  0  0  0  0
  181.3050  178.9940  141.5450 O   0  0  0  0  0  0  0  0  0  0  0  0
  182.7010  179.1580  141.5330 C   0  0  2  0  0  3  0  0  0  0  0  0
  187.2960  178.1000  139.5980 C   0  0  1  0  0  3  0  0  0  0  0  0
  183.2690  178.9250  140.1580 C   0  0  0  0  0  3  0  0  0  0  0  0
  186.5740  178.9360  138.7080 O   0  0  0  0  0  0  0  0  0  0  0  0
  188.7860  178.4050  139.5230 C   0  0  0  0  0  2  0  0  0  0  0  0
  185.6570  178.0300  143.5390 N   0  0  0  0  0  0  0  0  0  0  0  0
  187.0120  177.9220  143.4180 C   0  0  0  0  0  0  0  0  0  0  0  0
  183.3460  178.2480  142.5970 C   0  0  2  0  0  3  0  0  0  0  0  0
  185.2070  178.5370  138.6560 C   0  0  1  0  0  3  0  0  0  0  0  0
  189.5190  177.5300  140.5320 C   0  0  0  0  0  2  0  0  0  0  0  0
  180.8510  179.5800  142.7450 C   0  0  0  0  0  2  0  0  0  0  0  0
  182.8490  178.6980  143.9680 C   0  0  0  0  0  2  0  0  0  0  0  0
  188.1110  177.8430  147.0580 C   0  0  0  0  0  0  0  0  0  0  0  0
  187.6200  178.1190  148.3290 O   0  0  0  0  0  1  0  0  0  0  0  0
  187.8150  177.7200  144.6450 C   0  0  0  0  0  0  0  0  0  0  0  0
  189.4250  177.3880  146.9190 C   0  0  0  0  0  3  0  0  0  0  0  0
  189.1370  177.2700  144.5240 C   0  0  0  0  0  3  0  0  0  0  0  0
  187.3000  178.0150  145.9260 C   0  0  0  0  0  0  0  0  0  0  0  0
  185.6320  178.5490  146.1440 Cl  0  0  0  0  0  0  0  0  0  0  0  0
  189.9440  177.0990  145.6500 C   0  0  0  0  0  0  0  0  0  0  0  0
  191.9780  175.9840  146.5120 C   0  0  0  0  0  1  0  0  0  0  0  0
  191.2550  176.6430  145.4810 O   0  0  0  0  0  0  0  0  0  0  0  0
  185.0240  177.1620  138.0180 C   0  0  0  0  0  2  0  0  0  0  0  0
  185.3510  177.2210  136.6650 O   0  0  0  0  0  1  0  0  0  0  0  0
  1 15  1  0  0  0  0
  2  7  2  0  0  0  0
  3  1  1  0  0  0  0
  4  2  1  0  0  0  0
  4  1  2  0  0  0  0
  5 11  2  0  0  0  0
  5  2  1  0  0  0  0
  6 20  1  0  0  0  0
  7 16  1  0  0  0  0
  7 14  1  0  0  0  0
  8 19  1  0  0  0  0
  9 11  1  6  0  0  0
  9  8  1  0  0  0  0
  9 16  1  0  0  0  0
 10 13  1  1  0  0  0
 10  4  1  0  0  0  0
 12 10  1  0  0  0  0
 13 18  1  0  0  0  0
 15 14  2  0  0  0  0
 15 23  1  0  0  0  0
 16 20  1  1  0  0  0
 17 31  1  1  0  0  0
 17 12  1  0  0  0  0
 17  5  1  0  0  0  0
 18  3  1  0  0  0  0
 19  6  1  0  0  0  0
 21 22  1  0  0  0  0
 23 26  1  0  0  0  0
 24 21  1  0  0  0  0
 25 23  2  0  0  0  0
 25 28  1  0  0  0  0
 26 27  1  0  0  0  0
 26 21  2  0  0  0  0
 28 24  2  0  0  0  0
 30 28  1  0  0  0  0
 30 29  1  0  0  0  0
 32 31  1  0  0  0  0
M  END
>  <MODEL>
3

>  <REMARK>
 VINA RESULT:      -9.7      2.066      8.012
  Name = 
  3 active torsions:
  status: ('A' for Active; 'I' for Inactive)
    1  A    between atoms: C_13  and  C_29
    2  A    between atoms: O_15  and  C_26
    3  A    between atoms: C_16  and  C_27
                            x       y       z     vdW  Elec       q    Type
                         _______ _______ _______ _____ _____    ______ ____

>  <TORSDO>
F 3

$$$$
=
 OpenBabel11052414343D

 32 37  0  0  1  0  0  0  0  0999 V2000
  187.0450  178.1810  141.6780 C   0  0  0  0  0  0  0  0  0  0  0  0
  185.2230  178.3830  140.0930 C   0  0  0  0  0  0  0  0  0  0  0  0
  188.5290  178.1620  141.9650 C   0  0  0  0  0  2  0  0  0  0  0  0
  186.5870  178.2900  140.3500 C   0  0  0  0  0  0  0  0  0  0  0  0
  184.7680  178.5140  138.6980 C   0  0  0  0  0  0  0  0  0  0  0  0
  180.4810  178.7360  141.4660 C   0  0  0  0  0  2  0  0  0  0  0  0
  184.3070  178.3310  141.1470 C   0  0  0  0  0  0  0  0  0  0  0  0
  181.1900  178.8170  139.1500 O   0  0  0  0  0  0  0  0  0  0  0  0
  182.5180  179.0520  139.5450 C   0  0  2  0  0  3  0  0  0  0  0  0
  187.5130  178.1200  139.1640 C   0  0  1  0  0  3  0  0  0  0  0  0
  183.4830  178.7660  138.4250 C   0  0  0  0  0  3  0  0  0  0  0  0
  187.0700  178.8610  138.0390 O   0  0  0  0  0  0  0  0  0  0  0  0
  188.9460  178.4960  139.5180 C   0  0  0  0  0  2  0  0  0  0  0  0
  184.7600  178.2040  142.4240 N   0  0  0  0  0  0  0  0  0  0  0  0
  186.0910  178.1580  142.7240 C   0  0  0  0  0  0  0  0  0  0  0  0
  182.8380  178.2430  140.8180 C   0  0  2  0  0  3  0  0  0  0  0  0
  185.7960  178.3890  137.6080 C   0  0  1  0  0  3  0  0  0  0  0  0
  189.3660  177.7230  140.7620 C   0  0  0  0  0  2  0  0  0  0  0  0
  180.3750  179.4500  140.1110 C   0  0  0  0  0  2  0  0  0  0  0  0
  181.9350  178.7490  141.9400 C   0  0  0  0  0  2  0  0  0  0  0  0
  186.1460  178.5760  146.5040 C   0  0  0  0  0  0  0  0  0  0  0  0
  185.3870  179.1280  147.5290 O   0  0  0  0  0  1  0  0  0  0  0  0
  186.4900  178.0730  144.1470 C   0  0  0  0  0  0  0  0  0  0  0  0
  187.3510  177.9420  146.8140 C   0  0  0  0  0  3  0  0  0  0  0  0
  187.6990  177.4460  144.4760 C   0  0  0  0  0  3  0  0  0  0  0  0
  185.7080  178.6490  145.1730 C   0  0  0  0  0  0  0  0  0  0  0  0
  184.1590  179.4200  144.8230 Cl  0  0  0  0  0  0  0  0  0  0  0  0
  188.1340  177.3730  145.8010 C   0  0  0  0  0  0  0  0  0  0  0  0
  190.0940  176.9920  147.2610 C   0  0  0  0  0  1  0  0  0  0  0  0
  189.3450  176.7330  146.0820 O   0  0  0  0  0  0  0  0  0  0  0  0
  185.8590  176.9700  137.0480 C   0  0  0  0  0  2  0  0  0  0  0  0
  185.1650  176.9070  135.8410 O   0  0  0  0  0  1  0  0  0  0  0  0
  1  3  1  0  0  0  0
  1 15  1  0  0  0  0
  2  4  1  0  0  0  0
  2  7  2  0  0  0  0
  4  1  2  0  0  0  0
  5  2  1  0  0  0  0
  6 20  1  0  0  0  0
  7 14  1  0  0  0  0
  8  9  1  0  0  0  0
  8 19  1  0  0  0  0
  9 11  1  6  0  0  0
  9 16  1  0  0  0  0
 10 13  1  1  0  0  0
 10  4  1  0  0  0  0
 11  5  2  0  0  0  0
 12 10  1  0  0  0  0
 13 18  1  0  0  0  0
 14 15  2  0  0  0  0
 15 23  1  0  0  0  0
 16  7  1  0  0  0  0
 16 20  1  1  0  0  0
 17 31  1  1  0  0  0
 17 12  1  0  0  0  0
 17  5  1  0  0  0  0
 18  3  1  0  0  0  0
 19  6  1  0  0  0  0
 21 24  1  0  0  0  0
 21 22  1  0  0  0  0
 23 25  2  0  0  0  0
 23 26  1  0  0  0  0
 25 28  1  0  0  0  0
 26 21  2  0  0  0  0
 27 26  1  0  0  0  0
 28 30  1  0  0  0  0
 28 24  2  0  0  0  0
 30 29  1  0  0  0  0
 32 31  1  0  0  0  0
M  END
>  <MODEL>
4

>  <REMARK>
 VINA RESULT:      -9.7      2.447      7.877
  Name = 
  3 active torsions:
  status: ('A' for Active; 'I' for Inactive)
    1  A    between atoms: C_13  and  C_29
    2  A    between atoms: O_15  and  C_26
    3  A    between atoms: C_16  and  C_27
                            x       y       z     vdW  Elec       q    Type
                         _______ _______ _______ _____ _____    ______ ____

>  <TORSDO>
F 3

$$$$
=
 OpenBabel11052414343D

 32 37  0  0  1  0  0  0  0  0999 V2000
  188.8840  177.7130  142.6820 C   0  0  0  0  0  0  0  0  0  0  0  0
  186.8720  178.1300  141.3980 C   0  0  0  0  0  0  0  0  0  0  0  0
  190.3880  177.5820  142.7430 C   0  0  0  0  0  2  0  0  0  0  0  0
  188.2480  177.9340  141.4440 C   0  0  0  0  0  0  0  0  0  0  0  0
  186.2310  178.3760  140.0950 C   0  0  0  0  0  0  0  0  0  0  0  0
  182.4160  178.7010  143.4770 C   0  0  0  0  0  2  0  0  0  0  0  0
  186.1160  178.0720  142.5720 C   0  0  0  0  0  0  0  0  0  0  0  0
  182.7870  178.8800  141.0880 O   0  0  0  0  0  0  0  0  0  0  0  0
  184.1710  179.0050  141.2940 C   0  0  2  0  0  3  0  0  0  0  0  0
  188.9780  177.7790  140.1260 C   0  0  1  0  0  3  0  0  0  0  0  0
  184.9410  178.7270  140.0290 C   0  0  0  0  0  3  0  0  0  0  0  0
  188.4310  178.6160  139.1200 O   0  0  0  0  0  0  0  0  0  0  0  0
  190.4700  178.0400  140.2830 C   0  0  0  0  0  2  0  0  0  0  0  0
  186.7390  177.8360  143.7590 N   0  0  0  0  0  0  0  0  0  0  0  0
  188.0920  177.6870  143.8560 C   0  0  0  0  0  0  0  0  0  0  0  0
  184.6130  178.0990  142.4610 C   0  0  2  0  0  3  0  0  0  0  0  0
  187.0780  178.2540  138.8590 C   0  0  1  0  0  3  0  0  0  0  0  0
  191.0090  177.1660  141.4090 C   0  0  0  0  0  2  0  0  0  0  0  0
  182.1670  179.5030  142.1910 C   0  0  0  0  0  2  0  0  0  0  0  0
  183.9200  178.5910  143.7290 C   0  0  0  0  0  2  0  0  0  0  0  0
  188.6000  177.6500  147.6240 C   0  0  0  0  0  0  0  0  0  0  0  0
  187.9230  177.9630  148.7970 O   0  0  0  0  0  1  0  0  0  0  0  0
  188.6850  177.4890  145.1970 C   0  0  0  0  0  0  0  0  0  0  0  0
  189.9050  177.1600  147.7020 C   0  0  0  0  0  3  0  0  0  0  0  0
  189.9970  177.0030  145.2940 C   0  0  0  0  0  3  0  0  0  0  0  0
  187.9820  177.8210  146.3760 C   0  0  0  0  0  0  0  0  0  0  0  0
  186.3170  178.4020  146.3190 Cl  0  0  0  0  0  0  0  0  0  0  0  0
  190.6100  176.8330  146.5360 C   0  0  0  0  0  0  0  0  0  0  0  0
  192.4310  175.6310  147.7020 C   0  0  0  0  0  1  0  0  0  0  0  0
  191.9180  176.3410  146.5830 O   0  0  0  0  0  0  0  0  0  0  0  0
  186.9560  176.8710  138.2230 C   0  0  0  0  0  2  0  0  0  0  0  0
  185.9610  176.8860  137.2470 O   0  0  0  0  0  1  0  0  0  0  0  0
  1  3  1  0  0  0  0
  1 15  1  0  0  0  0
  2  4  1  0  0  0  0
  2  7  2  0  0  0  0
  4  1  2  0  0  0  0
  5  2  1  0  0  0  0
  6 20  1  0  0  0  0
  7 14  1  0  0  0  0
  8  9  1  0  0  0  0
  8 19  1  0  0  0  0
  9 11  1  6  0  0  0
  9 16  1  0  0  0  0
 10 13  1  1  0  0  0
 10  4  1  0  0  0  0
 11  5  2  0  0  0  0
 12 10  1  0  0  0  0
 13 18  1  0  0  0  0
 14 15  2  0  0  0  0
 15 23  1  0  0  0  0
 16  7  1  0  0  0  0
 16 20  1  1  0  0  0
 17 31  1  1  0  0  0
 17 12  1  0  0  0  0
 17  5  1  0  0  0  0
 18  3  1  0  0  0  0
 19  6  1  0  0  0  0
 21 24  1  0  0  0  0
 21 22  1  0  0  0  0
 23 25  2  0  0  0  0
 23 26  1  0  0  0  0
 25 28  1  0  0  0  0
 26 21  2  0  0  0  0
 27 26  1  0  0  0  0
 28 30  1  0  0  0  0
 28 24  2  0  0  0  0
 30 29  1  0  0  0  0
 32 31  1  0  0  0  0
M  END
>  <MODEL>
5

>  <REMARK>
 VINA RESULT:      -9.5      2.093      7.745
  Name = 
  3 active torsions:
  status: ('A' for Active; 'I' for Inactive)
    1  A    between atoms: C_13  and  C_29
    2  A    between atoms: O_15  and  C_26
    3  A    between atoms: C_16  and  C_27
                            x       y       z     vdW  Elec       q    Type
                         _______ _______ _______ _____ _____    ______ ____

>  <TORSDO>
F 3

$$$$
=
 OpenBabel11052414343D

 32 37  0  0  1  0  0  0  0  0999 V2000
  182.6000  178.7180  139.6140 C   0  0  0  0  0  0  0  0  0  0  0  0
  182.4940  178.9710  142.0220 C   0  0  0  0  0  0  0  0  0  0  0  0
  181.9760  178.9200  138.2530 C   0  0  0  0  0  2  0  0  0  0  0  0
  181.8900  179.0860  140.7750 C   0  0  0  0  0  0  0  0  0  0  0  0
  181.7390  179.3770  143.2200 C   0  0  0  0  0  0  0  0  0  0  0  0
  186.3190  177.9900  145.0080 C   0  0  0  0  0  2  0  0  0  0  0  0
  183.7900  178.4570  142.1280 C   0  0  0  0  0  0  0  0  0  0  0  0
  184.1960  178.8280  145.8210 O   0  0  0  0  0  0  0  0  0  0  0  0
  183.8260  179.2090  144.5200 C   0  0  2  0  0  3  0  0  0  0  0  0
  180.4160  179.4280  140.7390 C   0  0  1  0  0  3  0  0  0  0  0  0
  182.3400  179.4320  144.4140 C   0  0  0  0  0  3  0  0  0  0  0  0
  180.0620  180.3400  141.7670 O   0  0  0  0  0  0  0  0  0  0  0  0
  180.0030  179.9730  139.3790 C   0  0  0  0  0  2  0  0  0  0  0  0
  184.4580  178.0850  141.0020 N   0  0  0  0  0  0  0  0  0  0  0  0
  183.9210  178.2260  139.7560 C   0  0  0  0  0  0  0  0  0  0  0  0
  184.3380  178.1690  143.5030 C   0  0  2  0  0  3  0  0  0  0  0  0
  180.2950  179.7560  143.0460 C   0  0  1  0  0  3  0  0  0  0  0  0
  180.4490  178.9950  138.2990 C   0  0  0  0  0  2  0  0  0  0  0  0
  185.5930  179.0050  145.9010 C   0  0  0  0  0  2  0  0  0  0  0  0
  185.8640  178.1650  143.5580 C   0  0  0  0  0  2  0  0  0  0  0  0
  185.3360  176.3130  136.7890 C   0  0  0  0  0  0  0  0  0  0  0  0
  185.1140  175.1480  136.0650 O   0  0  0  0  0  1  0  0  0  0  0  0
  184.7440  177.8450  138.5860 C   0  0  0  0  0  0  0  0  0  0  0  0
  186.3960  177.1480  136.4280 C   0  0  0  0  0  3  0  0  0  0  0  0
  185.8160  178.6680  138.2130 C   0  0  0  0  0  3  0  0  0  0  0  0
  184.5060  176.6520  137.8690 C   0  0  0  0  0  0  0  0  0  0  0  0
  183.1510  175.5950  138.2690 Cl  0  0  0  0  0  0  0  0  0  0  0  0
  186.6410  178.3310  137.1380 C   0  0  0  0  0  0  0  0  0  0  0  0
  189.0250  178.9800  137.2550 C   0  0  0  0  0  1  0  0  0  0  0  0
  187.6950  179.1850  136.8000 O   0  0  0  0  0  0  0  0  0  0  0  0
  179.3620  178.5810  143.3300 C   0  0  0  0  0  2  0  0  0  0  0  0
  178.9310  178.6290  144.6540 O   0  0  0  0  0  1  0  0  0  0  0  0
  1 15  2  0  0  0  0
  1  4  1  0  0  0  0
  2  7  1  0  0  0  0
  2  5  1  0  0  0  0
  3 18  1  0  0  0  0
  3  1  1  0  0  0  0
  4  2  2  0  0  0  0
  5 11  2  0  0  0  0
  6 19  1  0  0  0  0
  7 16  1  0  0  0  0
  8 19  1  0  0  0  0
  9 11  1  1  0  0  0
  9  8  1  0  0  0  0
 10 13  1  6  0  0  0
 10  4  1  0  0  0  0
 10 12  1  0  0  0  0
 12 17  1  0  0  0  0
 14  7  2  0  0  0  0
 15 14  1  0  0  0  0
 16 20  1  6  0  0  0
 16  9  1  0  0  0  0
 17  5  1  0  0  0  0
 17 31  1  6  0  0  0
 18 13  1  0  0  0  0
 20  6  1  0  0  0  0
 21 26  1  0  0  0  0
 22 21  1  0  0  0  0
 23 15  1  0  0  0  0
 24 21  2  0  0  0  0
 24 28  1  0  0  0  0
 25 23  1  0  0  0  0
 26 27  1  0  0  0  0
 26 23  2  0  0  0  0
 28 25  2  0  0  0  0
 30 28  1  0  0  0  0
 30 29  1  0  0  0  0
 31 32  1  0  0  0  0
M  END
>  <MODEL>
6

>  <REMARK>
 VINA RESULT:      -9.4      3.592      8.035
  Name = 
  3 active torsions:
  status: ('A' for Active; 'I' for Inactive)
    1  A    between atoms: C_13  and  C_29
    2  A    between atoms: O_15  and  C_26
    3  A    between atoms: C_16  and  C_27
                            x       y       z     vdW  Elec       q    Type
                         _______ _______ _______ _____ _____    ______ ____

>  <TORSDO>
F 3

$$$$
=
 OpenBabel11052414343D

 32 37  0  0  1  0  0  0  0  0999 V2000
  185.9700  178.3520  142.8240 C   0  0  0  0  0  0  0  0  0  0  0  0
  185.9290  178.4070  140.4020 C   0  0  0  0  0  0  0  0  0  0  0  0
  185.2330  178.3860  144.1420 C   0  0  0  0  0  2  0  0  0  0  0  0
  185.2610  178.5140  141.6170 C   0  0  0  0  0  0  0  0  0  0  0  0
  185.1650  178.5640  139.1530 C   0  0  0  0  0  0  0  0  0  0  0  0
  189.9190  177.5020  137.6150 C   0  0  0  0  0  2  0  0  0  0  0  0
  187.3070  178.1740  140.3770 C   0  0  0  0  0  0  0  0  0  0  0  0
  187.7360  177.9750  136.6740 O   0  0  0  0  0  0  0  0  0  0  0  0
  187.1270  177.7300  137.9160 C   0  0  2  0  0  3  0  0  0  0  0  0
  183.8250  178.9930  141.5880 C   0  0  1  0  0  3  0  0  0  0  0  0
  185.7370  178.3090  137.9710 C   0  0  0  0  0  3  0  0  0  0  0  0
  183.1280  178.4960  140.4560 O   0  0  0  0  0  0  0  0  0  0  0  0
  183.0890  178.6260  142.8690 C   0  0  0  0  0  2  0  0  0  0  0  0
  187.9850  178.0400  141.5500 N   0  0  0  0  0  0  0  0  0  0  0  0
  187.3610  178.0900  142.7630 C   0  0  0  0  0  0  0  0  0  0  0  0
  188.0260  178.2530  139.0550 C   0  0  2  0  0  3  0  0  0  0  0  0
  183.7240  178.9830  139.2570 C   0  0  1  0  0  3  0  0  0  0  0  0
  183.8960  179.1250  144.0610 C   0  0  0  0  0  2  0  0  0  0  0  0
  188.8410  177.1010  136.5980 C   0  0  0  0  0  2  0  0  0  0  0  0
  189.3320  177.4630  139.0270 C   0  0  0  0  0  2  0  0  0  0  0  0
  190.2990  177.4880  145.1020 C   0  0  0  0  0  0  0  0  0  0  0  0
  191.6810  177.3410  145.0660 O   0  0  0  0  0  1  0  0  0  0  0  0
  188.1730  177.8790  143.9820 C   0  0  0  0  0  0  0  0  0  0  0  0
  189.6360  177.4020  146.3280 C   0  0  0  0  0  3  0  0  0  0  0  0
  187.5240  177.7840  145.2210 C   0  0  0  0  0  3  0  0  0  0  0  0
  189.5750  177.7230  143.9230 C   0  0  0  0  0  0  0  0  0  0  0  0
  190.4510  177.8690  142.3970 Cl  0  0  0  0  0  0  0  0  0  0  0  0
  188.2440  177.5510  146.3940 C   0  0  0  0  0  0  0  0  0  0  0  0
  188.1250  177.8780  148.8430 C   0  0  0  0  0  1  0  0  0  0  0  0
  187.5550  177.4690  147.6070 O   0  0  0  0  0  0  0  0  0  0  0  0
  183.5590  180.4910  139.0930 C   0  0  0  0  0  2  0  0  0  0  0  0
  182.2500  180.7860  138.7180 O   0  0  0  0  0  1  0  0  0  0  0  0
  1  3  1  0  0  0  0
  2  4  1  0  0  0  0
  4  1  2  0  0  0  0
  5 17  1  0  0  0  0
  5  2  1  0  0  0  0
  6 20  1  0  0  0  0
  7  2  2  0  0  0  0
  7 14  1  0  0  0  0
  8  9  1  0  0  0  0
  9 11  1  6  0  0  0
  9 16  1  0  0  0  0
 10  4  1  0  0  0  0
 10 13  1  1  0  0  0
 11  5  2  0  0  0  0
 12 10  1  0  0  0  0
 13 18  1  0  0  0  0
 14 15  2  0  0  0  0
 15  1  1  0  0  0  0
 15 23  1  0  0  0  0
 16 20  1  1  0  0  0
 16  7  1  0  0  0  0
 17 31  1  1  0  0  0
 17 12  1  0  0  0  0
 18  3  1  0  0  0  0
 19  8  1  0  0  0  0
 19  6  1  0  0  0  0
 21 24  1  0  0  0  0
 22 21  1  0  0  0  0
 23 25  2  0  0  0  0
 24 28  2  0  0  0  0
 25 28  1  0  0  0  0
 26 23  1  0  0  0  0
 26 21  2  0  0  0  0
 27 26  1  0  0  0  0
 28 30  1  0  0  0  0
 30 29  1  0  0  0  0
 32 31  1  0  0  0  0
M  END
>  <MODEL>
7

>  <REMARK>
 VINA RESULT:      -9.3      2.278      6.743
  Name = 
  3 active torsions:
  status: ('A' for Active; 'I' for Inactive)
    1  A    between atoms: C_13  and  C_29
    2  A    between atoms: O_15  and  C_26
    3  A    between atoms: C_16  and  C_27
                            x       y       z     vdW  Elec       q    Type
                         _______ _______ _______ _____ _____    ______ ____

>  <TORSDO>
F 3

$$$$
=
 OpenBabel11052414343D

 32 37  0  0  1  0  0  0  0  0999 V2000
  189.1650  177.6100  142.8720 C   0  0  0  0  0  0  0  0  0  0  0  0
  188.0730  177.8520  140.7220 C   0  0  0  0  0  0  0  0  0  0  0  0
  190.4300  177.4470  143.6810 C   0  0  0  0  0  2  0  0  0  0  0  0
  189.2270  177.6260  141.4640 C   0  0  0  0  0  0  0  0  0  0  0  0
  188.1650  177.8810  139.2520 C   0  0  0  0  0  0  0  0  0  0  0  0
  183.2620  178.9150  140.2440 C   0  0  0  0  0  2  0  0  0  0  0  0
  186.8460  178.0260  141.3690 C   0  0  0  0  0  0  0  0  0  0  0  0
  184.7480  178.6560  138.3460 O   0  0  0  0  0  0  0  0  0  0  0  0
  185.8690  178.7740  139.1840 C   0  0  2  0  0  3  0  0  0  0  0  0
  190.4760  177.2170  140.7110 C   0  0  1  0  0  3  0  0  0  0  0  0
  187.1130  178.2530  138.5140 C   0  0  0  0  0  3  0  0  0  0  0  0
  190.5750  177.8780  139.4590 O   0  0  0  0  0  0  0  0  0  0  0  0
  191.7300  177.4570  141.5400 C   0  0  0  0  0  2  0  0  0  0  0  0
  186.7940  177.9870  142.7290 N   0  0  0  0  0  0  0  0  0  0  0  0
  187.9100  177.8170  143.4960 C   0  0  0  0  0  0  0  0  0  0  0  0
  185.5930  178.0780  140.5320 C   0  0  2  0  0  3  0  0  0  0  0  0
  189.4810  177.5150  138.6220 C   0  0  1  0  0  3  0  0  0  0  0  0
  191.5620  176.7820  142.8960 C   0  0  0  0  0  2  0  0  0  0  0  0
  183.7510  179.4830  138.9040 C   0  0  0  0  0  2  0  0  0  0  0  0
  184.4390  178.8080  141.2140 C   0  0  0  0  0  2  0  0  0  0  0  0
  186.4810  178.2970  146.9880 C   0  0  0  0  0  0  0  0  0  0  0  0
  185.3060  178.6890  147.6170 O   0  0  0  0  0  1  0  0  0  0  0  0
  187.7630  177.8430  144.9690 C   0  0  0  0  0  0  0  0  0  0  0  0
  187.5850  177.9420  147.7670 C   0  0  0  0  0  3  0  0  0  0  0  0
  188.8620  177.4960  145.7670 C   0  0  0  0  0  3  0  0  0  0  0  0
  186.5620  178.2530  145.5880 C   0  0  0  0  0  0  0  0  0  0  0  0
  185.1340  178.6660  144.6360 Cl  0  0  0  0  0  0  0  0  0  0  0  0
  188.7820  177.5390  147.1590 C   0  0  0  0  0  0  0  0  0  0  0  0
  191.1220  176.7520  147.3220 C   0  0  0  0  0  1  0  0  0  0  0  0
  189.9020  177.1790  147.9140 O   0  0  0  0  0  0  0  0  0  0  0  0
  189.5230  176.0460  138.2100 C   0  0  0  0  0  2  0  0  0  0  0  0
  189.2450  175.9290  136.8490 O   0  0  0  0  0  1  0  0  0  0  0  0
  1 15  1  0  0  0  0
  1  3  1  0  0  0  0
  2  7  2  0  0  0  0
  2  4  1  0  0  0  0
  4  1  2  0  0  0  0
  5  2  1  0  0  0  0
  6 20  1  0  0  0  0
  7 14  1  0  0  0  0
  8 19  1  0  0  0  0
  8  9  1  0  0  0  0
  9 11  1  6  0  0  0
  9 16  1  0  0  0  0
 10  4  1  0  0  0  0
 10 13  1  1  0  0  0
 11  5  2  0  0  0  0
 12 10  1  0  0  0  0
 13 18  1  0  0  0  0
 14 15  2  0  0  0  0
 15 23  1  0  0  0  0
 16 20  1  1  0  0  0
 16  7  1  0  0  0  0
 17 31  1  1  0  0  0
 17  5  1  0  0  0  0
 17 12  1  0  0  0  0
 18  3  1  0  0  0  0
 19  6  1  0  0  0  0
 21 22  1  0  0  0  0
 21 24  1  0  0  0  0
 23 26  1  0  0  0  0
 23 25  2  0  0  0  0
 25 28  1  0  0  0  0
 26 21  2  0  0  0  0
 27 26  1  0  0  0  0
 28 24  2  0  0  0  0
 28 30  1  0  0  0  0
 29 30  1  0  0  0  0
 32 31  1  0  0  0  0
M  END
>  <MODEL>
8

>  <REMARK>
 VINA RESULT:      -9.2      2.121      6.864
  Name = 
  3 active torsions:
  status: ('A' for Active; 'I' for Inactive)
    1  A    between atoms: C_13  and  C_29
    2  A    between atoms: O_15  and  C_26
    3  A    between atoms: C_16  and  C_27
                            x       y       z     vdW  Elec       q    Type
                         _______ _______ _______ _____ _____    ______ ____

>  <TORSDO>
F 3

$$$$
=
 OpenBabel11052414343D

 32 37  0  0  1  0  0  0  0  0999 V2000
  184.3650  178.7800  140.2110 C   0  0  0  0  0  0  0  0  0  0  0  0
  183.7170  178.8000  142.5460 C   0  0  0  0  0  0  0  0  0  0  0  0
  184.0240  179.0310  138.7600 C   0  0  0  0  0  2  0  0  0  0  0  0
  183.3830  178.9570  141.2050 C   0  0  0  0  0  0  0  0  0  0  0  0
  182.6780  179.0070  143.5690 C   0  0  0  0  0  0  0  0  0  0  0  0
  186.9150  177.9970  146.2380 C   0  0  0  0  0  2  0  0  0  0  0  0
  185.0170  178.4300  142.9050 C   0  0  0  0  0  0  0  0  0  0  0  0
  184.5760  178.5100  146.6110 O   0  0  0  0  0  0  0  0  0  0  0  0
  184.4450  178.9620  145.2870 C   0  0  2  0  0  3  0  0  0  0  0  0
  181.9170  179.1300  140.8650 C   0  0  1  0  0  3  0  0  0  0  0  0
  182.9990  179.0220  144.8670 C   0  0  0  0  0  3  0  0  0  0  0  0
  181.2370  179.8990  141.8430 O   0  0  0  0  0  0  0  0  0  0  0  0
  181.7350  179.7450  139.4830 C   0  0  0  0  0  2  0  0  0  0  0  0
  185.9520  178.2400  141.9340 N   0  0  0  0  0  0  0  0  0  0  0  0
  185.6790  178.4310  140.6110 C   0  0  0  0  0  0  0  0  0  0  0  0
  185.2930  178.0840  144.3460 C   0  0  2  0  0  3  0  0  0  0  0  0
  181.2670  179.2320  143.1020 C   0  0  1  0  0  3  0  0  0  0  0  0
  182.5260  178.9260  138.4710 C   0  0  0  0  0  2  0  0  0  0  0  0
  185.8880  178.8370  147.0110 C   0  0  0  0  0  2  0  0  0  0  0  0
  186.7590  178.2490  144.7380 C   0  0  0  0  0  2  0  0  0  0  0  0
  189.1310  178.0060  139.0720 C   0  0  0  0  0  0  0  0  0  0  0  0
  190.4620  177.8800  139.4520 O   0  0  0  0  0  1  0  0  0  0  0  0
  186.7740  178.2540  139.6320 C   0  0  0  0  0  0  0  0  0  0  0  0
  188.8060  178.0000  137.7140 C   0  0  0  0  0  3  0  0  0  0  0  0
  186.4680  178.2500  138.2640 C   0  0  0  0  0  3  0  0  0  0  0  0
  188.1220  178.1360  140.0390 C   0  0  0  0  0  0  0  0  0  0  0  0
  188.5640  178.0970  141.7470 Cl  0  0  0  0  0  0  0  0  0  0  0  0
  187.4720  178.1210  137.3030 C   0  0  0  0  0  0  0  0  0  0  0  0
  187.8970  177.4670  134.9550 C   0  0  0  0  0  1  0  0  0  0  0  0
  187.1180  178.1180  135.9500 O   0  0  0  0  0  0  0  0  0  0  0  0
  180.4580  177.9380  143.0970 C   0  0  0  0  0  2  0  0  0  0  0  0
  179.6660  177.8700  144.2430 O   0  0  0  0  0  1  0  0  0  0  0  0
  1 15  2  0  0  0  0
  1  4  1  0  0  0  0
  2  7  1  0  0  0  0
  2  5  1  0  0  0  0
  3  1  1  0  0  0  0
  4  2  2  0  0  0  0
  5 11  2  0  0  0  0
  6 19  1  0  0  0  0
  7 16  1  0  0  0  0
  8 19  1  0  0  0  0
  9 11  1  6  0  0  0
  9  8  1  0  0  0  0
 10 13  1  6  0  0  0
 10  4  1  0  0  0  0
 10 12  1  0  0  0  0
 12 17  1  0  0  0  0
 14  7  2  0  0  0  0
 15 14  1  0  0  0  0
 16 20  1  1  0  0  0
 16  9  1  0  0  0  0
 17 31  1  6  0  0  0
 17  5  1  0  0  0  0
 18  3  1  0  0  0  0
 18 13  1  0  0  0  0
 20  6  1  0  0  0  0
 21 22  1  0  0  0  0
 21 26  1  0  0  0  0
 23 26  2  0  0  0  0
 23 15  1  0  0  0  0
 24 21  2  0  0  0  0
 25 23  1  0  0  0  0
 26 27  1  0  0  0  0
 28 24  1  0  0  0  0
 28 25  2  0  0  0  0
 29 30  1  0  0  0  0
 30 28  1  0  0  0  0
 31 32  1  0  0  0  0
M  END
>  <MODEL>
9

>  <REMARK>
 VINA RESULT:      -9.1      2.725      7.586
  Name = 
  3 active torsions:
  status: ('A' for Active; 'I' for Inactive)
    1  A    between atoms: C_13  and  C_29
    2  A    between atoms: O_15  and  C_26
    3  A    between atoms: C_16  and  C_27
                            x       y       z     vdW  Elec       q    Type
                         _______ _______ _______ _____ _____    ______ ____

>  <TORSDO>
F 3

$$$$
