=
 OpenBabel11052414583D

 55 60  0  0  1  0  0  0  0  0999 V2000
  184.2660  178.3490  143.7010 C   0  0  1  0  0  3  0  0  0  0  0  0
  182.8920  178.9890  143.5400 C   0  0  0  0  0  2  0  0  0  0  0  0
  182.4040  178.8670  142.1770 N   0  0  0  0  0  2  0  0  0  0  0  0
  180.0100  178.0810  142.9790 O   0  0  0  0  0  0  0  0  0  0  0  0
  180.6890  179.1450  142.1570 S   0  0  0  0  0  0  0  0  0  0  0  0
  180.4150  180.4860  142.7810 O   0  0  0  0  0  0  0  0  0  0  0  0
  180.3630  178.0340  137.1660 O   0  0  0  0  0  1  0  0  0  0  0  0
  180.0240  179.1350  140.4880 C   0  0  1  0  0  0  0  0  0  0  0  0
  178.9920  178.1730  140.4120 O   0  0  0  0  0  0  0  0  0  0  0  0
  179.0050  177.6490  139.1000 C   0  0  2  0  0  3  0  0  0  0  0  0
  179.8930  176.4170  139.0020 C   0  0  1  0  0  0  0  0  0  0  0  0
  180.4150  177.7710  138.5400 C   0  0  1  0  0  0  0  0  0  0  0  0
  179.4910  180.3970  140.1890 O   0  0  0  0  0  1  0  0  0  0  0  0
  180.3960  175.9260  140.2210 O   0  0  0  0  0  1  0  0  0  0  0  0
  181.1100  178.7280  139.4880 C   0  0  1  0  0  3  0  0  0  0  0  0
  181.8210  179.8880  138.8270 C   0  0  0  0  0  0  0  0  0  0  0  0
  183.0410  180.1130  139.0560 O   0  0  0  0  0  1  0  0  0  0  0  0
  181.1490  180.6290  137.8620 O   0  0  0  0  0  0  0  0  0  0  0  0
  179.4950  175.5170  137.9860 O   0  0  0  0  0  0  0  0  0  0  0  0
  180.5550  174.6510  137.6970 C   0  0  0  0  0  1  0  0  0  0  0  0
  184.9350  178.1750  142.3240 C   0  0  0  0  0  2  0  0  0  0  0  0
  185.8150  179.2920  141.9920 N   0  0  0  0  0  2  0  0  0  0  0  0
  186.1900  178.6060  139.3010 O   0  0  0  0  0  0  0  0  0  0  0  0
  188.3670  177.8380  139.6530 N   0  0  0  0  0  2  0  0  0  0  0  0
  186.9830  178.7040  141.4970 N   0  0  0  0  0  2  0  0  0  0  0  0
  187.1280  178.3800  140.1090 C   0  0  0  0  0  0  0  0  0  0  0  0
  188.4480  176.7870  138.6480 C   0  0  2  0  0  3  0  0  0  0  0  0
  192.2390  176.8950  138.7220 N   0  0  0  0  0  0  0  0  0  0  0  0
  192.1160  173.9960  136.6830 O   0  0  0  0  0  0  0  0  0  0  0  0
  190.9310  177.2230  138.9300 C   0  0  0  0  0  3  0  0  0  0  0  0
  190.2190  175.3300  137.5750 C   0  0  0  0  0  0  0  0  0  0  0  0
  192.5410  175.8040  137.9720 C   0  0  0  0  0  0  0  0  0  0  0  0
  189.2600  174.5500  137.0080 F   0  0  0  0  0  0  0  0  0  0  0  0
  193.8820  175.3050  137.5950 C   0  0  0  0  0  2  0  0  0  0  0  0
  193.5430  174.0580  136.7430 C   0  0  1  0  0  3  0  0  0  0  0  0
  189.8860  176.4460  138.3670 C   0  0  0  0  0  0  0  0  0  0  0  0
  191.5700  175.0350  137.4050 C   0  0  0  0  0  0  0  0  0  0  0  0
  194.0950  172.7910  137.3880 C   0  0  0  0  0  2  0  0  0  0  0  0
  195.5050  172.9960  137.8260 C   0  0  0  0  0  0  0  0  0  0  0  0
  195.7650  173.1700  139.0450 O   0  0  0  0  0  0  0  0  0  0  0  0
  196.5580  173.0160  136.8670 N   0  0  0  0  0  1  0  0  0  0  0  0
  186.5940  176.3370  137.0460 C   0  0  0  0  0  3  0  0  0  0  0  0
  185.9280  176.5670  135.8390 C   0  0  0  0  0  3  0  0  0  0  0  0
  188.1220  178.1540  136.5400 C   0  0  0  0  0  3  0  0  0  0  0  0
  187.4530  178.3790  135.3300 C   0  0  0  0  0  3  0  0  0  0  0  0
  186.3620  177.5780  134.9750 C   0  0  0  0  0  3  0  0  0  0  0  0
  187.6950  177.1260  137.4010 C   0  0  0  0  0  0  0  0  0  0  0  0
  185.0990  179.1940  144.6680 C   0  0  0  0  0  2  0  0  0  0  0  0
  185.1650  178.6050  146.0780 C   0  0  0  0  0  2  0  0  0  0  0  0
  189.1870  177.4860  146.9780 C   0  0  0  0  0  3  0  0  0  0  0  0
  186.5590  178.1690  146.4000 C   0  0  0  0  0  0  0  0  0  0  0  0
  187.0210  178.2170  147.6840 N   0  0  0  0  0  0  0  0  0  0  0  0
  188.7220  177.4080  145.6650 C   0  0  0  0  0  3  0  0  0  0  0  0
  188.3030  177.8860  147.9910 C   0  0  0  0  0  3  0  0  0  0  0  0
  187.4030  177.7450  145.3710 C   0  0  0  0  0  3  0  0  0  0  0  0
  1 21  1  6  0  0  0
  1 48  1  0  0  0  0
  2  1  1  0  0  0  0
  3  2  1  0  0  0  0
  5  3  1  0  0  0  0
  5  6  2  0  0  0  0
  5  4  2  0  0  0  0
  8 13  1  6  0  0  0
  8  5  1  0  0  0  0
  9  8  1  0  0  0  0
 10  9  1  1  0  0  0
 11 10  1  0  0  0  0
 11 14  1  1  0  0  0
 12  7  1  6  0  0  0
 12 11  1  0  0  0  0
 12 10  1  0  0  0  0
 12 15  1  0  0  0  0
 15 16  1  6  0  0  0
 15  8  1  0  0  0  0
 16 17  1  0  0  0  0
 18 16  2  0  0  0  0
 19 11  1  0  0  0  0
 20 19  1  0  0  0  0
 22 21  1  0  0  0  0
 23 26  2  0  0  0  0
 24 26  1  0  0  0  0
 25 22  1  0  0  0  0
 26 25  1  0  0  0  0
 27 24  1  1  0  0  0
 28 30  1  0  0  0  0
 29 35  1  0  0  0  0
 29 37  1  0  0  0  0
 31 36  1  0  0  0  0
 32 28  2  0  0  0  0
 33 31  1  0  0  0  0
 34 32  1  0  0  0  0
 35 38  1  1  0  0  0
 35 34  1  0  0  0  0
 36 27  1  0  0  0  0
 36 30  2  0  0  0  0
 37 31  2  0  0  0  0
 37 32  1  0  0  0  0
 38 39  1  0  0  0  0
 39 40  2  0  0  0  0
 41 39  1  0  0  0  0
 42 47  1  0  0  0  0
 43 42  2  0  0  0  0
 44 47  2  0  0  0  0
 45 44  1  0  0  0  0
 46 45  2  0  0  0  0
 46 43  1  0  0  0  0
 47 27  1  0  0  0  0
 48 49  1  0  0  0  0
 49 51  1  0  0  0  0
 50 54  1  0  0  0  0
 51 52  1  0  0  0  0
 52 54  2  0  0  0  0
 53 50  2  0  0  0  0
 55 53  1  0  0  0  0
 55 51  2  0  0  0  0
M  END
>  <MODEL>
1

>  <REMARK>
 VINA RESULT:      -8.1      0.000      0.000
  Name = 
  17 active torsions:
  status: ('A' for Active; 'I' for Inactive)
    1  A    between atoms: C_1  and  C_53
    2  A    between atoms: N_4  and  C_35
    3  A    between atoms: N_4  and  N_37
    4  A    between atoms: C_6  and  S_20
    5  A    between atoms: C_8  and  N_22
    6  A    between atoms: C_8  and  C_43
    7  A    between atoms: C_10  and  C_32
    8  A    between atoms: O_11  and  C_29
    9  A    between atoms: N_19  and  C_45
   10  A    between atoms: S_20  and  N_22
   11  A    between atoms: C_26  and  C_45
   12  A    between atoms: C_27  and  C_51
   13  A    between atoms: C_32  and  C_48
   14  A    between atoms: C_35  and  C_43
   15  A    between atoms: C_43  and  C_54
   16  A    between atoms: C_45  and  C_49
   17  A    between atoms: C_51  and  C_54
                            x       y       z     vdW  Elec       q    Type
                         _______ _______ _______ _____ _____    ______ ____

>  <TORSDO>
F 17

$$$$
=
 OpenBabel11052414583D

 55 60  0  0  1  0  0  0  0  0999 V2000
  189.1640  177.3970  137.7800 C   0  0  1  0  0  3  0  0  0  0  0  0
  190.1090  177.6770  138.9420 C   0  0  0  0  0  2  0  0  0  0  0  0
  189.4040  177.6860  140.2130 N   0  0  0  0  0  2  0  0  0  0  0  0
  190.2520  175.6550  141.6790 O   0  0  0  0  0  0  0  0  0  0  0  0
  190.4750  177.1290  141.4630 S   0  0  0  0  0  0  0  0  0  0  0  0
  191.8930  177.3430  141.0090 O   0  0  0  0  0  0  0  0  0  0  0  0
  189.4050  177.8350  146.4240 O   0  0  0  0  0  1  0  0  0  0  0  0
  190.2210  178.0100  143.0080 C   0  0  1  0  0  0  0  0  0  0  0  0
  191.4790  178.2610  143.6030 O   0  0  0  0  0  0  0  0  0  0  0  0
  191.2910  178.2330  145.0030 C   0  0  2  0  0  3  0  0  0  0  0  0
  191.5210  176.8390  145.5680 C   0  0  1  0  0  0  0  0  0  0  0  0
  190.1030  177.3350  145.3190 C   0  0  1  0  0  0  0  0  0  0  0  0
  189.5890  179.2340  142.7510 O   0  0  0  0  0  1  0  0  0  0  0  0
  192.0290  175.8880  144.6640 O   0  0  0  0  0  1  0  0  0  0  0  0
  189.4130  177.1490  143.9820 C   0  0  1  0  0  3  0  0  0  0  0  0
  187.9260  177.4280  143.9810 C   0  0  0  0  0  0  0  0  0  0  0  0
  187.3920  178.0890  144.9140 O   0  0  0  0  0  1  0  0  0  0  0  0
  187.1710  177.0570  142.8750 O   0  0  0  0  0  0  0  0  0  0  0  0
  191.9620  176.8430  146.9120 O   0  0  0  0  0  0  0  0  0  0  0  0
  191.8390  175.5540  147.4410 C   0  0  0  0  0  1  0  0  0  0  0  0
  188.9270  178.6850  136.9680 C   0  0  0  0  0  2  0  0  0  0  0  0
  187.5710  179.2020  137.1340 N   0  0  0  0  0  2  0  0  0  0  0  0
  185.9040  177.6730  135.4810 O   0  0  0  0  0  0  0  0  0  0  0  0
  185.2880  176.2220  137.2030 N   0  0  0  0  0  2  0  0  0  0  0  0
  186.8170  178.1140  137.5860 N   0  0  0  0  0  2  0  0  0  0  0  0
  185.9860  177.3590  136.6960 C   0  0  0  0  0  0  0  0  0  0  0  0
  183.9320  175.8800  136.7970 C   0  0  2  0  0  3  0  0  0  0  0  0
  181.8790  176.6750  139.8860 N   0  0  0  0  0  0  0  0  0  0  0  0
  180.5380  179.3640  138.0020 O   0  0  0  0  0  0  0  0  0  0  0  0
  182.7460  176.0560  139.0320 C   0  0  0  0  0  3  0  0  0  0  0  0
  182.2010  177.6620  137.2840 C   0  0  0  0  0  0  0  0  0  0  0  0
  181.1960  177.7700  139.4640 C   0  0  0  0  0  0  0  0  0  0  0  0
  182.3390  178.1660  136.0290 F   0  0  0  0  0  0  0  0  0  0  0  0
  180.1870  178.5540  140.2120 C   0  0  0  0  0  2  0  0  0  0  0  0
  179.7910  179.6430  139.1880 C   0  0  1  0  0  3  0  0  0  0  0  0
  182.9340  176.5370  137.7100 C   0  0  0  0  0  0  0  0  0  0  0  0
  181.3390  178.2600  138.2020 C   0  0  0  0  0  0  0  0  0  0  0  0
  180.1380  181.0340  139.7090 C   0  0  0  0  0  2  0  0  0  0  0  0
  180.4220  181.9640  138.5790 C   0  0  0  0  0  0  0  0  0  0  0  0
  181.6120  182.2260  138.2650 O   0  0  0  0  0  0  0  0  0  0  0  0
  179.3500  182.5740  137.8660 N   0  0  0  0  0  1  0  0  0  0  0  0
  182.6000  173.9320  135.9970 C   0  0  0  0  0  3  0  0  0  0  0  0
  182.3180  172.5640  135.9670 C   0  0  0  0  0  3  0  0  0  0  0  0
  184.5570  173.4910  137.3650 C   0  0  0  0  0  3  0  0  0  0  0  0
  184.2680  172.1210  137.3340 C   0  0  0  0  0  3  0  0  0  0  0  0
  183.1430  171.6580  136.6430 C   0  0  0  0  0  3  0  0  0  0  0  0
  183.7170  174.4030  136.6980 C   0  0  0  0  0  0  0  0  0  0  0  0
  189.7340  176.2550  136.9360 C   0  0  0  0  0  2  0  0  0  0  0  0
  189.3880  174.8700  137.4870 C   0  0  0  0  0  2  0  0  0  0  0  0
  186.9360  172.6950  134.7490 C   0  0  0  0  0  3  0  0  0  0  0  0
  188.5670  174.1030  136.5010 C   0  0  0  0  0  0  0  0  0  0  0  0
  187.9040  174.7510  135.4970 N   0  0  0  0  0  0  0  0  0  0  0  0
  187.6250  172.0160  135.7540 C   0  0  0  0  0  3  0  0  0  0  0  0
  187.1020  174.0830  134.6270 C   0  0  0  0  0  3  0  0  0  0  0  0
  188.4490  172.7180  136.6310 C   0  0  0  0  0  3  0  0  0  0  0  0
  1 48  1  6  0  0  0
  1  2  1  0  0  0  0
  2  3  1  0  0  0  0
  3  5  1  0  0  0  0
  5  4  2  0  0  0  0
  5  8  1  0  0  0  0
  6  5  2  0  0  0  0
  8 13  1  6  0  0  0
  8  9  1  0  0  0  0
  8 15  1  0  0  0  0
 10  9  1  6  0  0  0
 10 12  1  0  0  0  0
 10 11  1  0  0  0  0
 11 14  1  6  0  0  0
 11 19  1  0  0  0  0
 12 11  1  0  0  0  0
 12  7  1  1  0  0  0
 15 16  1  1  0  0  0
 15 12  1  0  0  0  0
 16 17  1  0  0  0  0
 18 16  2  0  0  0  0
 19 20  1  0  0  0  0
 21 22  1  0  0  0  0
 21  1  1  0  0  0  0
 22 25  1  0  0  0  0
 23 26  2  0  0  0  0
 26 24  1  0  0  0  0
 26 25  1  0  0  0  0
 27 24  1  1  0  0  0
 27 36  1  0  0  0  0
 29 37  1  0  0  0  0
 29 35  1  0  0  0  0
 30 28  2  0  0  0  0
 31 36  2  0  0  0  0
 31 37  1  0  0  0  0
 32 28  1  0  0  0  0
 32 34  1  0  0  0  0
 33 31  1  0  0  0  0
 35 38  1  1  0  0  0
 35 34  1  0  0  0  0
 36 30  1  0  0  0  0
 37 32  2  0  0  0  0
 39 38  1  0  0  0  0
 40 39  2  0  0  0  0
 41 39  1  0  0  0  0
 42 47  1  0  0  0  0
 43 42  2  0  0  0  0
 43 46  1  0  0  0  0
 45 44  1  0  0  0  0
 46 45  2  0  0  0  0
 47 27  1  0  0  0  0
 47 44  2  0  0  0  0
 48 49  1  0  0  0  0
 50 53  1  0  0  0  0
 51 55  1  0  0  0  0
 51 49  1  0  0  0  0
 52 51  2  0  0  0  0
 53 55  2  0  0  0  0
 54 50  2  0  0  0  0
 54 52  1  0  0  0  0
M  END
>  <MODEL>
2

>  <REMARK>
 VINA RESULT:      -7.9      4.082     10.802
  Name = 
  17 active torsions:
  status: ('A' for Active; 'I' for Inactive)
    1  A    between atoms: C_1  and  C_53
    2  A    between atoms: N_4  and  C_35
    3  A    between atoms: N_4  and  N_37
    4  A    between atoms: C_6  and  S_20
    5  A    between atoms: C_8  and  N_22
    6  A    between atoms: C_8  and  C_43
    7  A    between atoms: C_10  and  C_32
    8  A    between atoms: O_11  and  C_29
    9  A    between atoms: N_19  and  C_45
   10  A    between atoms: S_20  and  N_22
   11  A    between atoms: C_26  and  C_45
   12  A    between atoms: C_27  and  C_51
   13  A    between atoms: C_32  and  C_48
   14  A    between atoms: C_35  and  C_43
   15  A    between atoms: C_43  and  C_54
   16  A    between atoms: C_45  and  C_49
   17  A    between atoms: C_51  and  C_54
                            x       y       z     vdW  Elec       q    Type
                         _______ _______ _______ _____ _____    ______ ____

>  <TORSDO>
F 17

$$$$
=
 OpenBabel11052414583D

 55 60  0  0  1  0  0  0  0  0999 V2000
  184.5990  178.3360  140.3230 C   0  0  1  0  0  3  0  0  0  0  0  0
  183.1670  177.9380  140.6620 C   0  0  0  0  0  2  0  0  0  0  0  0
  182.8340  176.6330  140.1170 N   0  0  0  0  0  2  0  0  0  0  0  0
  180.4140  175.5680  140.1830 O   0  0  0  0  0  0  0  0  0  0  0  0
  181.2030  176.6640  139.5170 S   0  0  0  0  0  0  0  0  0  0  0  0
  180.5880  177.9890  139.8750 O   0  0  0  0  0  0  0  0  0  0  0  0
  182.7490  176.8860  134.6370 O   0  0  0  0  0  1  0  0  0  0  0  0
  181.1390  176.4580  137.7340 C   0  0  1  0  0  0  0  0  0  0  0  0
  181.4770  175.1230  137.4150 O   0  0  0  0  0  0  0  0  0  0  0  0
  182.1320  175.1460  136.1630 C   0  0  2  0  0  3  0  0  0  0  0  0
  183.6380  175.2840  136.3240 C   0  0  1  0  0  0  0  0  0  0  0  0
  182.7950  176.5050  135.9830 C   0  0  1  0  0  0  0  0  0  0  0  0
  179.8380  176.7160  137.2790 O   0  0  0  0  0  1  0  0  0  0  0  0
  184.1240  175.1970  137.6420 O   0  0  0  0  0  1  0  0  0  0  0  0
  182.1660  177.3700  137.0570 C   0  0  1  0  0  3  0  0  0  0  0  0
  181.6110  178.6920  136.5770 C   0  0  0  0  0  0  0  0  0  0  0  0
  181.1700  178.8180  135.4020 O   0  0  0  0  0  0  0  0  0  0  0  0
  181.4730  179.7350  137.4840 O   0  0  0  0  0  1  0  0  0  0  0  0
  184.3730  174.7090  135.2600 O   0  0  0  0  0  0  0  0  0  0  0  0
  183.5660  173.7810  134.5940 C   0  0  0  0  0  1  0  0  0  0  0  0
  184.6350  179.0980  138.9840 C   0  0  0  0  0  2  0  0  0  0  0  0
  185.6200  178.5450  138.0590 N   0  0  0  0  0  2  0  0  0  0  0  0
  187.7070  176.7220  137.6400 O   0  0  0  0  0  0  0  0  0  0  0  0
  189.1140  177.7580  139.1890 N   0  0  0  0  0  2  0  0  0  0  0  0
  186.8340  178.5830  138.7520 N   0  0  0  0  0  2  0  0  0  0  0  0
  187.8740  177.6310  138.4940 C   0  0  0  0  0  0  0  0  0  0  0  0
  189.8670  176.6120  139.6790 C   0  0  2  0  0  3  0  0  0  0  0  0
  192.0400  177.8210  142.5430 N   0  0  0  0  0  0  0  0  0  0  0  0
  189.4940  176.5760  144.6750 O   0  0  0  0  0  0  0  0  0  0  0  0
  191.6020  177.5350  141.2830 C   0  0  0  0  0  3  0  0  0  0  0  0
  189.5920  176.5050  142.1930 C   0  0  0  0  0  0  0  0  0  0  0  0
  191.2730  177.4760  143.6090 C   0  0  0  0  0  0  0  0  0  0  0  0
  188.3980  175.8690  142.0540 F   0  0  0  0  0  0  0  0  0  0  0  0
  191.5820  177.6570  145.0460 C   0  0  0  0  0  2  0  0  0  0  0  0
  190.3300  177.0560  145.7300 C   0  0  1  0  0  3  0  0  0  0  0  0
  190.3640  176.8740  141.0740 C   0  0  0  0  0  0  0  0  0  0  0  0
  190.0830  176.8320  143.4560 C   0  0  0  0  0  0  0  0  0  0  0  0
  189.5930  178.1150  146.5420 C   0  0  0  0  0  2  0  0  0  0  0  0
  188.9880  177.5140  147.7640 C   0  0  0  0  0  0  0  0  0  0  0  0
  188.8180  176.2690  147.8340 O   0  0  0  0  0  0  0  0  0  0  0  0
  188.5810  178.3460  148.8470 N   0  0  0  0  0  1  0  0  0  0  0  0
  190.8110  175.0640  137.9700 C   0  0  0  0  0  3  0  0  0  0  0  0
  191.8610  174.6110  137.1670 C   0  0  0  0  0  3  0  0  0  0  0  0
  192.1930  176.9130  138.7210 C   0  0  0  0  0  3  0  0  0  0  0  0
  193.2440  176.4530  137.9160 C   0  0  0  0  0  3  0  0  0  0  0  0
  193.0810  175.2960  137.1470 C   0  0  0  0  0  3  0  0  0  0  0  0
  190.9720  176.2140  138.7530 C   0  0  0  0  0  0  0  0  0  0  0  0
  185.1810  179.1440  141.4860 C   0  0  0  0  0  2  0  0  0  0  0  0
  186.1680  178.3450  142.3370 C   0  0  0  0  0  2  0  0  0  0  0  0
  184.8520  178.1970  146.3980 C   0  0  0  0  0  3  0  0  0  0  0  0
  185.7350  178.3300  143.7680 C   0  0  0  0  0  0  0  0  0  0  0  0
  186.4120  177.5840  144.6910 N   0  0  0  0  0  0  0  0  0  0  0  0
  184.1640  178.9820  145.4730 C   0  0  0  0  0  3  0  0  0  0  0  0
  186.0010  177.5050  145.9830 C   0  0  0  0  0  3  0  0  0  0  0  0
  184.6060  179.0560  144.1540 C   0  0  0  0  0  3  0  0  0  0  0  0
  1 21  1  6  0  0  0
  1  2  1  0  0  0  0
  1 48  1  0  0  0  0
  3  2  1  0  0  0  0
  5  6  2  0  0  0  0
  5  3  1  0  0  0  0
  5  4  2  0  0  0  0
  8 13  1  6  0  0  0
  8  5  1  0  0  0  0
  9  8  1  0  0  0  0
 10 11  1  0  0  0  0
 10  9  1  1  0  0  0
 11 14  1  1  0  0  0
 12  7  1  6  0  0  0
 12 10  1  0  0  0  0
 12 11  1  0  0  0  0
 12 15  1  0  0  0  0
 15 16  1  6  0  0  0
 15  8  1  0  0  0  0
 16 18  1  0  0  0  0
 17 16  2  0  0  0  0
 19 11  1  0  0  0  0
 20 19  1  0  0  0  0
 22 25  1  0  0  0  0
 22 21  1  0  0  0  0
 23 26  2  0  0  0  0
 26 25  1  0  0  0  0
 26 24  1  0  0  0  0
 27 24  1  6  0  0  0
 27 36  1  0  0  0  0
 28 32  1  0  0  0  0
 29 35  1  0  0  0  0
 30 28  2  0  0  0  0
 31 37  1  0  0  0  0
 32 34  1  0  0  0  0
 33 31  1  0  0  0  0
 34 35  1  0  0  0  0
 35 38  1  6  0  0  0
 36 30  1  0  0  0  0
 36 31  2  0  0  0  0
 37 32  2  0  0  0  0
 37 29  1  0  0  0  0
 38 39  1  0  0  0  0
 39 40  2  0  0  0  0
 39 41  1  0  0  0  0
 42 47  1  0  0  0  0
 43 42  2  0  0  0  0
 44 47  2  0  0  0  0
 45 44  1  0  0  0  0
 46 43  1  0  0  0  0
 46 45  2  0  0  0  0
 47 27  1  0  0  0  0
 48 49  1  0  0  0  0
 49 51  1  0  0  0  0
 51 55  2  0  0  0  0
 51 52  1  0  0  0  0
 52 54  2  0  0  0  0
 53 50  2  0  0  0  0
 54 50  1  0  0  0  0
 55 53  1  0  0  0  0
M  END
>  <MODEL>
3

>  <REMARK>
 VINA RESULT:      -7.8      2.864      5.622
  Name = 
  17 active torsions:
  status: ('A' for Active; 'I' for Inactive)
    1  A    between atoms: C_1  and  C_53
    2  A    between atoms: N_4  and  C_35
    3  A    between atoms: N_4  and  N_37
    4  A    between atoms: C_6  and  S_20
    5  A    between atoms: C_8  and  N_22
    6  A    between atoms: C_8  and  C_43
    7  A    between atoms: C_10  and  C_32
    8  A    between atoms: O_11  and  C_29
    9  A    between atoms: N_19  and  C_45
   10  A    between atoms: S_20  and  N_22
   11  A    between atoms: C_26  and  C_45
   12  A    between atoms: C_27  and  C_51
   13  A    between atoms: C_32  and  C_48
   14  A    between atoms: C_35  and  C_43
   15  A    between atoms: C_43  and  C_54
   16  A    between atoms: C_45  and  C_49
   17  A    between atoms: C_51  and  C_54
                            x       y       z     vdW  Elec       q    Type
                         _______ _______ _______ _____ _____    ______ ____

>  <TORSDO>
F 17

$$$$
=
 OpenBabel11052414583D

 55 60  0  0  1  0  0  0  0  0999 V2000
  184.1880  178.3130  140.1440 C   0  0  1  0  0  3  0  0  0  0  0  0
  182.7120  177.9950  139.9310 C   0  0  0  0  0  2  0  0  0  0  0  0
  182.4510  176.5710  140.0560 N   0  0  0  0  0  2  0  0  0  0  0  0
  180.3100  175.0250  140.1890 O   0  0  0  0  0  0  0  0  0  0  0  0
  180.8510  176.2310  139.4690 S   0  0  0  0  0  0  0  0  0  0  0  0
  179.9700  177.4120  139.7730 O   0  0  0  0  0  0  0  0  0  0  0  0
  181.8600  173.9020  135.0180 O   0  0  0  0  0  1  0  0  0  0  0  0
  180.8330  175.9350  137.6970 C   0  0  1  0  0  0  0  0  0  0  0  0
  179.6170  175.3040  137.3500 O   0  0  0  0  0  0  0  0  0  0  0  0
  179.8850  174.4510  136.2560 C   0  0  2  0  0  3  0  0  0  0  0  0
  180.2550  173.0500  136.7210 C   0  0  1  0  0  0  0  0  0  0  0  0
  181.3470  174.0290  136.3140 C   0  0  1  0  0  0  0  0  0  0  0  0
  180.9190  177.1580  137.0170 O   0  0  0  0  0  1  0  0  0  0  0  0
  180.1060  172.8010  138.0980 O   0  0  0  0  0  1  0  0  0  0  0  0
  181.9720  174.9900  137.3060 C   0  0  1  0  0  3  0  0  0  0  0  0
  183.2280  175.6840  136.8280 C   0  0  0  0  0  0  0  0  0  0  0  0
  183.1940  176.4750  135.8450 O   0  0  0  0  0  0  0  0  0  0  0  0
  184.3990  175.5420  137.5620 O   0  0  0  0  0  1  0  0  0  0  0  0
  179.9310  172.0430  135.7810 O   0  0  0  0  0  0  0  0  0  0  0  0
  179.5900  170.8700  136.4630 C   0  0  0  0  0  1  0  0  0  0  0  0
  184.6870  179.2740  139.0480 C   0  0  0  0  0  2  0  0  0  0  0  0
  185.6290  178.6320  138.1360 N   0  0  0  0  0  2  0  0  0  0  0  0
  187.6460  176.7310  137.7200 O   0  0  0  0  0  0  0  0  0  0  0  0
  189.1120  177.7460  139.2270 N   0  0  0  0  0  2  0  0  0  0  0  0
  186.8540  178.6410  138.8100 N   0  0  0  0  0  2  0  0  0  0  0  0
  187.8570  177.6490  138.5530 C   0  0  0  0  0  0  0  0  0  0  0  0
  189.8330  176.5840  139.7270 C   0  0  2  0  0  3  0  0  0  0  0  0
  192.0230  177.6880  142.6210 N   0  0  0  0  0  0  0  0  0  0  0  0
  189.3480  176.6650  144.7130 O   0  0  0  0  0  0  0  0  0  0  0  0
  191.5940  177.4110  141.3550 C   0  0  0  0  0  3  0  0  0  0  0  0
  189.4960  176.5430  142.2360 C   0  0  0  0  0  0  0  0  0  0  0  0
  191.2100  177.4170  143.6740 C   0  0  0  0  0  0  0  0  0  0  0  0
  188.2630  175.9900  142.0790 F   0  0  0  0  0  0  0  0  0  0  0  0
  191.4990  177.6010  145.1140 C   0  0  0  0  0  2  0  0  0  0  0  0
  190.1930  177.1040  145.7790 C   0  0  1  0  0  3  0  0  0  0  0  0
  190.3160  176.8350  141.1290 C   0  0  0  0  0  0  0  0  0  0  0  0
  189.9800  176.8570  143.5040 C   0  0  0  0  0  0  0  0  0  0  0  0
  189.5150  178.2270  146.5560 C   0  0  0  0  0  2  0  0  0  0  0  0
  189.5490  177.9480  148.0200 C   0  0  0  0  0  0  0  0  0  0  0  0
  190.6070  177.5250  148.5550 O   0  0  0  0  0  0  0  0  0  0  0  0
  188.3810  178.1390  148.8140 N   0  0  0  0  0  1  0  0  0  0  0  0
  192.1120  176.9310  138.7810 C   0  0  0  0  0  3  0  0  0  0  0  0
  193.1270  176.6200  137.8730 C   0  0  0  0  0  3  0  0  0  0  0  0
  190.7970  175.0730  137.9360 C   0  0  0  0  0  3  0  0  0  0  0  0
  191.8170  174.7670  137.0260 C   0  0  0  0  0  3  0  0  0  0  0  0
  192.9780  175.5480  136.9870 C   0  0  0  0  0  3  0  0  0  0  0  0
  190.9420  176.1620  138.8160 C   0  0  0  0  0  0  0  0  0  0  0  0
  184.3800  178.8670  141.5570 C   0  0  0  0  0  2  0  0  0  0  0  0
  185.5520  178.2250  142.3010 C   0  0  0  0  0  2  0  0  0  0  0  0
  184.9200  178.3900  146.5210 C   0  0  0  0  0  3  0  0  0  0  0  0
  185.3110  178.2410  143.7760 C   0  0  0  0  0  0  0  0  0  0  0  0
  184.1600  178.7710  144.2850 N   0  0  0  0  0  0  0  0  0  0  0  0
  186.0900  177.8230  146.0160 C   0  0  0  0  0  3  0  0  0  0  0  0
  183.9460  178.8530  145.6240 C   0  0  0  0  0  3  0  0  0  0  0  0
  186.2880  177.7410  144.6400 C   0  0  0  0  0  3  0  0  0  0  0  0
  1 21  1  6  0  0  0
  1 48  1  0  0  0  0
  2  3  1  0  0  0  0
  2  1  1  0  0  0  0
  5  6  2  0  0  0  0
  5  3  1  0  0  0  0
  5  4  2  0  0  0  0
  8 13  1  6  0  0  0
  8  5  1  0  0  0  0
  9  8  1  0  0  0  0
 10 12  1  0  0  0  0
 10 11  1  0  0  0  0
 10  9  1  1  0  0  0
 11 14  1  1  0  0  0
 12  7  1  6  0  0  0
 12 11  1  0  0  0  0
 12 15  1  0  0  0  0
 15 16  1  6  0  0  0
 15  8  1  0  0  0  0
 16 18  1  0  0  0  0
 17 16  2  0  0  0  0
 19 20  1  0  0  0  0
 19 11  1  0  0  0  0
 22 25  1  0  0  0  0
 22 21  1  0  0  0  0
 23 26  2  0  0  0  0
 26 25  1  0  0  0  0
 26 24  1  0  0  0  0
 27 24  1  6  0  0  0
 27 36  1  0  0  0  0
 28 32  1  0  0  0  0
 29 35  1  0  0  0  0
 30 28  2  0  0  0  0
 31 37  1  0  0  0  0
 32 34  1  0  0  0  0
 33 31  1  0  0  0  0
 34 35  1  0  0  0  0
 35 38  1  6  0  0  0
 36 30  1  0  0  0  0
 36 31  2  0  0  0  0
 37 32  2  0  0  0  0
 37 29  1  0  0  0  0
 38 39  1  0  0  0  0
 39 40  2  0  0  0  0
 39 41  1  0  0  0  0
 42 47  1  0  0  0  0
 43 42  2  0  0  0  0
 44 47  2  0  0  0  0
 45 44  1  0  0  0  0
 46 45  2  0  0  0  0
 46 43  1  0  0  0  0
 47 27  1  0  0  0  0
 48 49  1  0  0  0  0
 49 51  1  0  0  0  0
 51 52  2  0  0  0  0
 51 55  1  0  0  0  0
 52 54  1  0  0  0  0
 53 50  1  0  0  0  0
 54 50  2  0  0  0  0
 55 53  2  0  0  0  0
M  END
>  <MODEL>
4

>  <REMARK>
 VINA RESULT:      -7.7      2.956      5.762
  Name = 
  17 active torsions:
  status: ('A' for Active; 'I' for Inactive)
    1  A    between atoms: C_1  and  C_53
    2  A    between atoms: N_4  and  C_35
    3  A    between atoms: N_4  and  N_37
    4  A    between atoms: C_6  and  S_20
    5  A    between atoms: C_8  and  N_22
    6  A    between atoms: C_8  and  C_43
    7  A    between atoms: C_10  and  C_32
    8  A    between atoms: O_11  and  C_29
    9  A    between atoms: N_19  and  C_45
   10  A    between atoms: S_20  and  N_22
   11  A    between atoms: C_26  and  C_45
   12  A    between atoms: C_27  and  C_51
   13  A    between atoms: C_32  and  C_48
   14  A    between atoms: C_35  and  C_43
   15  A    between atoms: C_43  and  C_54
   16  A    between atoms: C_45  and  C_49
   17  A    between atoms: C_51  and  C_54
                            x       y       z     vdW  Elec       q    Type
                         _______ _______ _______ _____ _____    ______ ____

>  <TORSDO>
F 17

$$$$
=
 OpenBabel11052414583D

 55 60  0  0  1  0  0  0  0  0999 V2000
  190.2270  177.1920  138.4690 C   0  0  1  0  0  3  0  0  0  0  0  0
  191.5710  176.4970  138.2870 C   0  0  0  0  0  2  0  0  0  0  0  0
  191.9290  176.3880  136.8830 N   0  0  0  0  0  2  0  0  0  0  0  0
  191.9480  173.8560  137.6450 O   0  0  0  0  0  0  0  0  0  0  0  0
  192.4450  174.7630  136.5500 S   0  0  0  0  0  0  0  0  0  0  0  0
  191.8360  174.3250  135.2460 O   0  0  0  0  0  0  0  0  0  0  0  0
  197.1530  172.8930  137.3210 O   0  0  0  0  0  1  0  0  0  0  0  0
  194.2330  174.6360  136.4270 C   0  0  1  0  0  0  0  0  0  0  0  0
  194.5640  174.0110  135.2030 O   0  0  0  0  0  0  0  0  0  0  0  0
  195.7500  173.2730  135.4180 C   0  0  2  0  0  3  0  0  0  0  0  0
  195.4460  171.8430  135.8420 C   0  0  1  0  0  0  0  0  0  0  0  0
  195.8220  172.8830  136.8880 C   0  0  1  0  0  0  0  0  0  0  0  0
  194.7960  175.9200  136.4470 O   0  0  0  0  0  1  0  0  0  0  0  0
  194.0920  171.4610  135.7840 O   0  0  0  0  0  1  0  0  0  0  0  0
  194.7810  173.7610  137.5560 C   0  0  1  0  0  3  0  0  0  0  0  0
  195.2660  174.5280  138.7670 C   0  0  0  0  0  0  0  0  0  0  0  0
  194.7300  175.6210  139.0950 O   0  0  0  0  0  0  0  0  0  0  0  0
  196.2260  173.9520  139.5890 O   0  0  0  0  0  1  0  0  0  0  0  0
  196.4570  170.9230  135.4780 O   0  0  0  0  0  0  0  0  0  0  0  0
  195.8620  169.7670  134.9620 C   0  0  0  0  0  1  0  0  0  0  0  0
  189.0780  176.1840  138.2680 C   0  0  0  0  0  2  0  0  0  0  0  0
  188.1010  176.6480  137.2870 N   0  0  0  0  0  2  0  0  0  0  0  0
  186.0040  178.4060  136.6840 O   0  0  0  0  0  0  0  0  0  0  0  0
  184.5830  177.4900  138.2960 N   0  0  0  0  0  2  0  0  0  0  0  0
  186.8770  176.6560  137.9630 N   0  0  0  0  0  2  0  0  0  0  0  0
  185.8320  177.5700  137.6100 C   0  0  0  0  0  0  0  0  0  0  0  0
  183.8120  178.6650  138.6750 C   0  0  2  0  0  3  0  0  0  0  0  0
  182.3270  178.5480  142.1640 N   0  0  0  0  0  0  0  0  0  0  0  0
  185.6120  179.2220  143.3180 O   0  0  0  0  0  0  0  0  0  0  0  0
  182.4390  178.5260  140.8040 C   0  0  0  0  0  3  0  0  0  0  0  0
  184.8220  179.0020  140.9720 C   0  0  0  0  0  0  0  0  0  0  0  0
  183.4320  178.7770  142.9200 C   0  0  0  0  0  0  0  0  0  0  0  0
  186.0450  179.2230  140.4220 F   0  0  0  0  0  0  0  0  0  0  0  0
  183.5170  178.8830  144.3940 C   0  0  0  0  0  2  0  0  0  0  0  0
  185.0240  179.1570  144.6180 C   0  0  1  0  0  3  0  0  0  0  0  0
  183.6910  178.7470  140.1720 C   0  0  0  0  0  0  0  0  0  0  0  0
  184.6510  179.0040  142.3550 C   0  0  0  0  0  0  0  0  0  0  0  0
  185.6660  178.0360  145.4290 C   0  0  0  0  0  2  0  0  0  0  0  0
  186.1290  178.5430  146.7520 C   0  0  0  0  0  0  0  0  0  0  0  0
  185.6340  179.5970  147.2300 O   0  0  0  0  0  0  0  0  0  0  0  0
  187.1460  177.8500  147.4690 N   0  0  0  0  0  1  0  0  0  0  0  0
  181.9400  177.5350  137.4810 C   0  0  0  0  0  3  0  0  0  0  0  0
  180.7430  177.5680  136.7590 C   0  0  0  0  0  3  0  0  0  0  0  0
  181.8070  179.9390  137.7940 C   0  0  0  0  0  3  0  0  0  0  0  0
  180.6090  179.9670  137.0680 C   0  0  0  0  0  3  0  0  0  0  0  0
  180.0830  178.7820  136.5420 C   0  0  0  0  0  3  0  0  0  0  0  0
  182.4790  178.7200  137.9990 C   0  0  0  0  0  0  0  0  0  0  0  0
  190.1960  177.8670  139.8420 C   0  0  0  0  0  2  0  0  0  0  0  0
  191.1200  177.1990  140.8610 C   0  0  0  0  0  2  0  0  0  0  0  0
  189.2490  177.2860  144.7000 C   0  0  0  0  0  3  0  0  0  0  0  0
  190.4880  177.1900  142.2160 C   0  0  0  0  0  0  0  0  0  0  0  0
  189.2990  176.5510  142.4240 N   0  0  0  0  0  0  0  0  0  0  0  0
  190.4750  177.9240  144.5100 C   0  0  0  0  0  3  0  0  0  0  0  0
  188.6750  176.5820  143.6300 C   0  0  0  0  0  3  0  0  0  0  0  0
  191.1030  177.8740  143.2680 C   0  0  0  0  0  3  0  0  0  0  0  0
  1 21  1  1  0  0  0
  1 48  1  0  0  0  0
  2  1  1  0  0  0  0
  3  2  1  0  0  0  0
  5  3  1  0  0  0  0
  5  4  2  0  0  0  0
  6  5  2  0  0  0  0
  8 13  1  1  0  0  0
  8  5  1  0  0  0  0
  8 15  1  0  0  0  0
  9  8  1  0  0  0  0
 10  9  1  1  0  0  0
 10 11  1  0  0  0  0
 10 12  1  0  0  0  0
 11 14  1  6  0  0  0
 11 12  1  0  0  0  0
 12  7  1  1  0  0  0
 12 15  1  0  0  0  0
 15 16  1  1  0  0  0
 16 17  2  0  0  0  0
 16 18  1  0  0  0  0
 19 11  1  0  0  0  0
 20 19  1  0  0  0  0
 22 25  1  0  0  0  0
 22 21  1  0  0  0  0
 23 26  2  0  0  0  0
 26 25  1  0  0  0  0
 26 24  1  0  0  0  0
 27 24  1  1  0  0  0
 27 36  1  0  0  0  0
 28 32  1  0  0  0  0
 29 35  1  0  0  0  0
 30 28  2  0  0  0  0
 31 37  1  0  0  0  0
 32 34  1  0  0  0  0
 33 31  1  0  0  0  0
 34 35  1  0  0  0  0
 35 38  1  1  0  0  0
 36 30  1  0  0  0  0
 36 31  2  0  0  0  0
 37 32  2  0  0  0  0
 37 29  1  0  0  0  0
 38 39  1  0  0  0  0
 39 40  2  0  0  0  0
 39 41  1  0  0  0  0
 42 47  1  0  0  0  0
 43 42  2  0  0  0  0
 44 47  2  0  0  0  0
 45 44  1  0  0  0  0
 46 43  1  0  0  0  0
 46 45  2  0  0  0  0
 47 27  1  0  0  0  0
 48 49  1  0  0  0  0
 49 51  1  0  0  0  0
 51 52  2  0  0  0  0
 51 55  1  0  0  0  0
 52 54  1  0  0  0  0
 53 50  1  0  0  0  0
 54 50  2  0  0  0  0
 55 53  2  0  0  0  0
M  END
>  <MODEL>
5

>  <REMARK>
 VINA RESULT:      -7.7      3.730     11.198
  Name = 
  17 active torsions:
  status: ('A' for Active; 'I' for Inactive)
    1  A    between atoms: C_1  and  C_53
    2  A    between atoms: N_4  and  C_35
    3  A    between atoms: N_4  and  N_37
    4  A    between atoms: C_6  and  S_20
    5  A    between atoms: C_8  and  N_22
    6  A    between atoms: C_8  and  C_43
    7  A    between atoms: C_10  and  C_32
    8  A    between atoms: O_11  and  C_29
    9  A    between atoms: N_19  and  C_45
   10  A    between atoms: S_20  and  N_22
   11  A    between atoms: C_26  and  C_45
   12  A    between atoms: C_27  and  C_51
   13  A    between atoms: C_32  and  C_48
   14  A    between atoms: C_35  and  C_43
   15  A    between atoms: C_43  and  C_54
   16  A    between atoms: C_45  and  C_49
   17  A    between atoms: C_51  and  C_54
                            x       y       z     vdW  Elec       q    Type
                         _______ _______ _______ _____ _____    ______ ____

>  <TORSDO>
F 17

$$$$
=
 OpenBabel11052414583D

 55 60  0  0  1  0  0  0  0  0999 V2000
  189.0880  176.7960  138.5520 C   0  0  1  0  0  3  0  0  0  0  0  0
  189.5110  177.8690  139.5500 C   0  0  0  0  0  2  0  0  0  0  0  0
  188.9660  177.6120  140.8710 N   0  0  0  0  0  2  0  0  0  0  0  0
  190.2310  175.6650  142.1360 O   0  0  0  0  0  0  0  0  0  0  0  0
  190.2560  177.1590  141.9430 S   0  0  0  0  0  0  0  0  0  0  0  0
  191.5630  177.5430  141.3060 O   0  0  0  0  0  0  0  0  0  0  0  0
  189.5660  177.6630  146.9960 O   0  0  0  0  0  1  0  0  0  0  0  0
  190.1250  177.9760  143.5380 C   0  0  1  0  0  0  0  0  0  0  0  0
  191.4250  178.1980  144.0460 O   0  0  0  0  0  0  0  0  0  0  0  0
  191.3440  178.1130  145.4540 C   0  0  2  0  0  3  0  0  0  0  0  0
  191.6060  176.6960  145.9420 C   0  0  1  0  0  0  0  0  0  0  0  0
  190.1760  177.2060  145.8210 C   0  0  1  0  0  0  0  0  0  0  0  0
  189.4830  179.2120  143.3790 O   0  0  0  0  0  1  0  0  0  0  0  0
  192.0380  175.7810  144.9640 O   0  0  0  0  0  1  0  0  0  0  0  0
  189.3860  177.0790  144.5340 C   0  0  1  0  0  3  0  0  0  0  0  0
  187.9050  177.3630  144.6560 C   0  0  0  0  0  0  0  0  0  0  0  0
  187.4410  177.9430  145.6760 O   0  0  0  0  0  1  0  0  0  0  0  0
  187.0760  177.0920  143.5750 O   0  0  0  0  0  0  0  0  0  0  0  0
  192.1470  176.6430  147.2480 O   0  0  0  0  0  0  0  0  0  0  0  0
  192.3770  175.3080  147.5970 C   0  0  0  0  0  1  0  0  0  0  0  0
  188.4360  177.4480  137.3180 C   0  0  0  0  0  2  0  0  0  0  0  0
  187.6290  178.6130  137.6690 N   0  0  0  0  0  2  0  0  0  0  0  0
  185.6660  177.4700  136.0280 O   0  0  0  0  0  0  0  0  0  0  0  0
  184.2710  176.9400  137.8230 N   0  0  0  0  0  2  0  0  0  0  0  0
  186.4230  178.0930  138.1490 N   0  0  0  0  0  2  0  0  0  0  0  0
  185.4560  177.5100  137.2680 C   0  0  0  0  0  0  0  0  0  0  0  0
  182.9630  177.0640  137.1950 C   0  0  2  0  0  3  0  0  0  0  0  0
  182.2310  180.3830  138.8790 N   0  0  0  0  0  0  0  0  0  0  0  0
  180.2980  181.1370  136.0040 O   0  0  0  0  0  0  0  0  0  0  0  0
  182.7080  179.1250  138.6520 C   0  0  0  0  0  3  0  0  0  0  0  0
  181.5560  179.0540  136.5080 C   0  0  0  0  0  0  0  0  0  0  0  0
  181.4470  180.9770  137.9440 C   0  0  0  0  0  0  0  0  0  0  0  0
  181.2150  178.4350  135.3470 F   0  0  0  0  0  0  0  0  0  0  0  0
  180.8000  182.3070  138.0140 C   0  0  0  0  0  2  0  0  0  0  0  0
  180.0540  182.3820  136.6600 C   0  0  1  0  0  3  0  0  0  0  0  0
  182.3880  178.4290  137.4580 C   0  0  0  0  0  0  0  0  0  0  0  0
  181.1070  180.3430  136.7880 C   0  0  0  0  0  0  0  0  0  0  0  0
  180.5810  183.5330  135.8110 C   0  0  0  0  0  2  0  0  0  0  0  0
  180.7740  184.7560  136.6420 C   0  0  0  0  0  0  0  0  0  0  0  0
  181.9150  185.0370  137.0910 O   0  0  0  0  0  0  0  0  0  0  0  0
  179.6650  185.5960  136.9500 N   0  0  0  0  0  1  0  0  0  0  0  0
  181.3860  176.0590  138.8400 C   0  0  0  0  0  3  0  0  0  0  0  0
  180.5800  175.0090  139.2890 C   0  0  0  0  0  3  0  0  0  0  0  0
  181.8490  174.8230  136.8030 C   0  0  0  0  0  3  0  0  0  0  0  0
  181.0420  173.7720  137.2580 C   0  0  0  0  0  3  0  0  0  0  0  0
  180.4160  173.8610  138.5060 C   0  0  0  0  0  3  0  0  0  0  0  0
  182.0260  175.9700  137.5980 C   0  0  0  0  0  0  0  0  0  0  0  0
  190.3030  175.9340  138.2010 C   0  0  0  0  0  2  0  0  0  0  0  0
  191.3570  176.6860  137.3870 C   0  0  0  0  0  2  0  0  0  0  0  0
  194.5210  174.0860  136.1740 C   0  0  0  0  0  3  0  0  0  0  0  0
  192.4770  175.7710  137.0070 C   0  0  0  0  0  0  0  0  0  0  0  0
  193.7150  176.2710  136.7200 N   0  0  0  0  0  0  0  0  0  0  0  0
  193.2690  173.5570  136.4880 C   0  0  0  0  0  3  0  0  0  0  0  0
  194.7310  175.4670  136.3120 C   0  0  0  0  0  3  0  0  0  0  0  0
  192.2430  174.3970  136.9110 C   0  0  0  0  0  3  0  0  0  0  0  0
  1 21  1  6  0  0  0
  1  2  1  0  0  0  0
  2  3  1  0  0  0  0
  3  5  1  0  0  0  0
  5  4  2  0  0  0  0
  5  8  1  0  0  0  0
  6  5  2  0  0  0  0
  8 13  1  6  0  0  0
  8  9  1  0  0  0  0
  8 15  1  0  0  0  0
 10  9  1  6  0  0  0
 10 12  1  0  0  0  0
 10 11  1  0  0  0  0
 11 14  1  6  0  0  0
 11 19  1  0  0  0  0
 12 11  1  0  0  0  0
 12  7  1  1  0  0  0
 15 16  1  1  0  0  0
 15 12  1  0  0  0  0
 16 17  1  0  0  0  0
 18 16  2  0  0  0  0
 19 20  1  0  0  0  0
 21 22  1  0  0  0  0
 22 25  1  0  0  0  0
 23 26  2  0  0  0  0
 26 24  1  0  0  0  0
 26 25  1  0  0  0  0
 27 36  1  0  0  0  0
 27 47  1  0  0  0  0
 27 24  1  1  0  0  0
 29 35  1  0  0  0  0
 29 37  1  0  0  0  0
 30 28  1  0  0  0  0
 31 37  2  0  0  0  0
 31 36  1  0  0  0  0
 32 34  1  0  0  0  0
 32 28  2  0  0  0  0
 33 31  1  0  0  0  0
 35 38  1  6  0  0  0
 35 34  1  0  0  0  0
 36 30  2  0  0  0  0
 37 32  1  0  0  0  0
 38 39  1  0  0  0  0
 39 41  1  0  0  0  0
 39 40  2  0  0  0  0
 42 43  1  0  0  0  0
 44 45  2  0  0  0  0
 44 47  1  0  0  0  0
 45 46  1  0  0  0  0
 46 43  2  0  0  0  0
 47 42  2  0  0  0  0
 48  1  1  0  0  0  0
 49 48  1  0  0  0  0
 50 54  2  0  0  0  0
 50 53  1  0  0  0  0
 51 49  1  0  0  0  0
 52 51  2  0  0  0  0
 53 55  2  0  0  0  0
 54 52  1  0  0  0  0
 55 51  1  0  0  0  0
M  END
>  <MODEL>
6

>  <REMARK>
 VINA RESULT:      -7.6      4.161     11.174
  Name = 
  17 active torsions:
  status: ('A' for Active; 'I' for Inactive)
    1  A    between atoms: C_1  and  C_53
    2  A    between atoms: N_4  and  C_35
    3  A    between atoms: N_4  and  N_37
    4  A    between atoms: C_6  and  S_20
    5  A    between atoms: C_8  and  N_22
    6  A    between atoms: C_8  and  C_43
    7  A    between atoms: C_10  and  C_32
    8  A    between atoms: O_11  and  C_29
    9  A    between atoms: N_19  and  C_45
   10  A    between atoms: S_20  and  N_22
   11  A    between atoms: C_26  and  C_45
   12  A    between atoms: C_27  and  C_51
   13  A    between atoms: C_32  and  C_48
   14  A    between atoms: C_35  and  C_43
   15  A    between atoms: C_43  and  C_54
   16  A    between atoms: C_45  and  C_49
   17  A    between atoms: C_51  and  C_54
                            x       y       z     vdW  Elec       q    Type
                         _______ _______ _______ _____ _____    ______ ____

>  <TORSDO>
F 17

$$$$
=
 OpenBabel11052414583D

 55 60  0  0  1  0  0  0  0  0999 V2000
  190.9050  175.8880  138.2870 C   0  0  1  0  0  3  0  0  0  0  0  0
  192.1950  175.2040  137.8500 C   0  0  0  0  0  2  0  0  0  0  0  0
  193.3150  176.1300  137.8480 N   0  0  0  0  0  2  0  0  0  0  0  0
  193.1760  175.6240  135.2570 O   0  0  0  0  0  0  0  0  0  0  0  0
  194.1580  176.0040  136.3340 S   0  0  0  0  0  0  0  0  0  0  0  0
  194.7460  177.3480  136.0010 O   0  0  0  0  0  0  0  0  0  0  0  0
  196.7170  171.8200  137.8170 O   0  0  0  0  0  1  0  0  0  0  0  0
  195.4820  174.7920  136.3990 C   0  0  1  0  0  0  0  0  0  0  0  0
  195.3310  173.8900  135.3200 O   0  0  0  0  0  0  0  0  0  0  0  0
  195.8110  172.6350  135.7550 C   0  0  2  0  0  3  0  0  0  0  0  0
  194.6970  171.7920  136.3600 C   0  0  1  0  0  0  0  0  0  0  0  0
  195.6560  172.5500  137.2680 C   0  0  1  0  0  0  0  0  0  0  0  0
  196.7180  175.4410  136.2780 O   0  0  0  0  0  1  0  0  0  0  0  0
  193.3960  172.3150  136.2340 O   0  0  0  0  0  1  0  0  0  0  0  0
  195.3940  173.9810  137.6950 C   0  0  1  0  0  3  0  0  0  0  0  0
  196.2740  174.4900  138.8150 C   0  0  0  0  0  0  0  0  0  0  0  0
  195.7680  175.0130  139.8460 O   0  0  0  0  0  1  0  0  0  0  0  0
  197.6420  174.2590  138.7550 O   0  0  0  0  0  0  0  0  0  0  0  0
  194.9150  170.4000  136.2360 O   0  0  0  0  0  0  0  0  0  0  0  0
  193.7860  169.8060  135.6630 C   0  0  0  0  0  1  0  0  0  0  0  0
  191.2160  177.0110  139.2970 C   0  0  0  0  0  2  0  0  0  0  0  0
  190.8200  176.6560  140.6570 N   0  0  0  0  0  2  0  0  0  0  0  0
  189.0640  176.2480  142.8020 O   0  0  0  0  0  0  0  0  0  0  0  0
  187.8670  178.2080  142.3810 N   0  0  0  0  0  2  0  0  0  0  0  0
  189.7600  177.5140  140.9650 N   0  0  0  0  0  2  0  0  0  0  0  0
  188.8950  177.2640  142.0800 C   0  0  0  0  0  0  0  0  0  0  0  0
  186.5390  177.8150  142.8290 C   0  0  2  0  0  3  0  0  0  0  0  0
  184.9280  179.4670  139.8190 N   0  0  0  0  0  0  0  0  0  0  0  0
  181.8290  178.6820  141.3550 O   0  0  0  0  0  0  0  0  0  0  0  0
  185.8700  179.0040  140.6900 C   0  0  0  0  0  3  0  0  0  0  0  0
  184.1220  178.2340  142.2010 C   0  0  0  0  0  0  0  0  0  0  0  0
  183.6120  179.3100  140.1140 C   0  0  0  0  0  0  0  0  0  0  0  0
  183.7010  177.6370  143.3480 F   0  0  0  0  0  0  0  0  0  0  0  0
  182.4440  179.7740  139.3320 C   0  0  0  0  0  2  0  0  0  0  0  0
  181.2550  179.2980  140.2010 C   0  0  1  0  0  3  0  0  0  0  0  0
  185.4920  178.3700  141.9020 C   0  0  0  0  0  0  0  0  0  0  0  0
  183.2040  178.7160  141.2700 C   0  0  0  0  0  0  0  0  0  0  0  0
  180.3950  178.2920  139.4430 C   0  0  0  0  0  2  0  0  0  0  0  0
  180.3730  176.9810  140.1510 C   0  0  0  0  0  0  0  0  0  0  0  0
  181.2280  176.1010  139.8700 O   0  0  0  0  0  0  0  0  0  0  0  0
  179.3740  176.7110  141.1300 N   0  0  0  0  0  1  0  0  0  0  0  0
  186.9760  177.5020  145.2610 C   0  0  0  0  0  3  0  0  0  0  0  0
  186.6890  177.7560  146.6060 C   0  0  0  0  0  3  0  0  0  0  0  0
  185.3000  179.1310  144.6050 C   0  0  0  0  0  3  0  0  0  0  0  0
  185.0150  179.3800  145.9530 C   0  0  0  0  0  3  0  0  0  0  0  0
  185.7020  178.6840  146.9540 C   0  0  0  0  0  3  0  0  0  0  0  0
  186.2820  178.1850  144.2550 C   0  0  0  0  0  0  0  0  0  0  0  0
  190.1600  176.3890  137.0480 C   0  0  0  0  0  2  0  0  0  0  0  0
  189.1420  177.4860  137.3620 C   0  0  0  0  0  2  0  0  0  0  0  0
  185.4220  176.4840  135.5170 C   0  0  0  0  0  3  0  0  0  0  0  0
  187.8180  177.1650  136.7450 C   0  0  0  0  0  0  0  0  0  0  0  0
  187.0580  176.1380  137.2280 N   0  0  0  0  0  0  0  0  0  0  0  0
  186.1750  177.5520  135.0270 C   0  0  0  0  0  3  0  0  0  0  0  0
  185.8820  175.7870  136.6450 C   0  0  0  0  0  3  0  0  0  0  0  0
  187.3740  177.9000  135.6430 C   0  0  0  0  0  3  0  0  0  0  0  0
  1 48  1  6  0  0  0
  1 21  1  0  0  0  0
  2  1  1  0  0  0  0
  3  2  1  0  0  0  0
  4  5  2  0  0  0  0
  5  8  1  0  0  0  0
  5  3  1  0  0  0  0
  6  5  2  0  0  0  0
  8 13  1  6  0  0  0
  8 15  1  0  0  0  0
  9  8  1  0  0  0  0
 10  9  1  6  0  0  0
 10 11  1  0  0  0  0
 10 12  1  0  0  0  0
 11 14  1  6  0  0  0
 11 12  1  0  0  0  0
 12 15  1  0  0  0  0
 12  7  1  1  0  0  0
 15 16  1  1  0  0  0
 16 17  1  0  0  0  0
 18 16  2  0  0  0  0
 19 11  1  0  0  0  0
 20 19  1  0  0  0  0
 21 22  1  0  0  0  0
 22 25  1  0  0  0  0
 25 26  1  0  0  0  0
 26 24  1  0  0  0  0
 26 23  2  0  0  0  0
 27 24  1  6  0  0  0
 27 47  1  0  0  0  0
 28 32  2  0  0  0  0
 28 30  1  0  0  0  0
 30 36  2  0  0  0  0
 31 33  1  0  0  0  0
 32 37  1  0  0  0  0
 34 32  1  0  0  0  0
 34 35  1  0  0  0  0
 35 38  1  6  0  0  0
 35 29  1  0  0  0  0
 36 31  1  0  0  0  0
 36 27  1  0  0  0  0
 37 29  1  0  0  0  0
 37 31  2  0  0  0  0
 38 39  1  0  0  0  0
 39 41  1  0  0  0  0
 40 39  2  0  0  0  0
 42 43  1  0  0  0  0
 43 46  2  0  0  0  0
 44 45  2  0  0  0  0
 45 46  1  0  0  0  0
 47 44  1  0  0  0  0
 47 42  2  0  0  0  0
 48 49  1  0  0  0  0
 50 54  1  0  0  0  0
 51 52  1  0  0  0  0
 51 49  1  0  0  0  0
 53 50  2  0  0  0  0
 53 55  1  0  0  0  0
 54 52  2  0  0  0  0
 55 51  2  0  0  0  0
M  END
>  <MODEL>
7

>  <REMARK>
 VINA RESULT:      -7.5      3.178     12.351
  Name = 
  17 active torsions:
  status: ('A' for Active; 'I' for Inactive)
    1  A    between atoms: C_1  and  C_53
    2  A    between atoms: N_4  and  C_35
    3  A    between atoms: N_4  and  N_37
    4  A    between atoms: C_6  and  S_20
    5  A    between atoms: C_8  and  N_22
    6  A    between atoms: C_8  and  C_43
    7  A    between atoms: C_10  and  C_32
    8  A    between atoms: O_11  and  C_29
    9  A    between atoms: N_19  and  C_45
   10  A    between atoms: S_20  and  N_22
   11  A    between atoms: C_26  and  C_45
   12  A    between atoms: C_27  and  C_51
   13  A    between atoms: C_32  and  C_48
   14  A    between atoms: C_35  and  C_43
   15  A    between atoms: C_43  and  C_54
   16  A    between atoms: C_45  and  C_49
   17  A    between atoms: C_51  and  C_54
                            x       y       z     vdW  Elec       q    Type
                         _______ _______ _______ _____ _____    ______ ____

>  <TORSDO>
F 17

$$$$
=
 OpenBabel11052414583D

 55 60  0  0  1  0  0  0  0  0999 V2000
  184.8400  178.2950  141.7390 C   0  0  1  0  0  3  0  0  0  0  0  0
  183.4000  178.1040  141.2790 C   0  0  0  0  0  2  0  0  0  0  0  0
  182.7930  179.3650  140.8890 N   0  0  0  0  0  2  0  0  0  0  0  0
  180.7120  177.8230  141.4210 O   0  0  0  0  0  0  0  0  0  0  0  0
  181.0630  179.2060  140.9380 S   0  0  0  0  0  0  0  0  0  0  0  0
  180.5180  180.2120  141.9140 O   0  0  0  0  0  0  0  0  0  0  0  0
  180.7870  180.2870  135.9380 O   0  0  0  0  0  1  0  0  0  0  0  0
  180.3150  179.4920  139.3310 C   0  0  1  0  0  0  0  0  0  0  0  0
  180.0530  178.2460  138.7190 O   0  0  0  0  0  0  0  0  0  0  0  0
  180.1960  178.4260  137.3250 C   0  0  2  0  0  3  0  0  0  0  0  0
  181.6180  178.1310  136.8680 C   0  0  1  0  0  0  0  0  0  0  0  0
  181.1690  179.5710  137.0780 C   0  0  1  0  0  0  0  0  0  0  0  0
  179.1050  180.1810  139.4930 O   0  0  0  0  0  1  0  0  0  0  0  0
  182.4730  177.5840  137.8430 O   0  0  0  0  0  1  0  0  0  0  0  0
  181.2830  180.2580  138.4250 C   0  0  1  0  0  3  0  0  0  0  0  0
  181.0730  181.7560  138.4040 C   0  0  0  0  0  0  0  0  0  0  0  0
  182.0390  182.5400  138.1970 O   0  0  0  0  0  0  0  0  0  0  0  0
  179.7800  182.2560  138.4880 O   0  0  0  0  0  1  0  0  0  0  0  0
  181.6960  177.6850  135.5280 O   0  0  0  0  0  0  0  0  0  0  0  0
  183.0390  177.4960  135.1840 C   0  0  0  0  0  1  0  0  0  0  0  0
  185.6920  178.8710  140.5900 C   0  0  0  0  0  2  0  0  0  0  0  0
  187.0980  179.0070  140.9590 N   0  0  0  0  0  2  0  0  0  0  0  0
  188.8620  179.0510  138.7830 O   0  0  0  0  0  0  0  0  0  0  0  0
  189.2810  176.7560  138.8930 N   0  0  0  0  0  2  0  0  0  0  0  0
  187.7240  177.8670  140.4450 N   0  0  0  0  0  2  0  0  0  0  0  0
  188.6260  177.9450  139.3350 C   0  0  0  0  0  0  0  0  0  0  0  0
  189.5130  176.4560  137.4870 C   0  0  2  0  0  3  0  0  0  0  0  0
  188.3720  172.9180  136.7320 N   0  0  0  0  0  0  0  0  0  0  0  0
  185.2370  174.3650  135.9210 O   0  0  0  0  0  0  0  0  0  0  0  0
  189.1600  173.9770  137.0770 C   0  0  0  0  0  3  0  0  0  0  0  0
  187.3150  175.5110  136.6560 C   0  0  0  0  0  0  0  0  0  0  0  0
  187.0810  173.1370  136.3710 C   0  0  0  0  0  0  0  0  0  0  0  0
  186.7750  176.7580  136.6130 F   0  0  0  0  0  0  0  0  0  0  0  0
  186.0820  172.1400  135.9250 C   0  0  0  0  0  2  0  0  0  0  0  0
  184.8360  173.0190  135.6590 C   0  0  1  0  0  3  0  0  0  0  0  0
  188.6510  175.3020  137.0530 C   0  0  0  0  0  0  0  0  0  0  0  0
  186.5540  174.3920  136.3250 C   0  0  0  0  0  0  0  0  0  0  0  0
  183.6860  172.6260  136.5800 C   0  0  0  0  0  2  0  0  0  0  0  0
  182.9100  173.8300  136.9940 C   0  0  0  0  0  0  0  0  0  0  0  0
  183.2470  174.4710  138.0240 O   0  0  0  0  0  0  0  0  0  0  0  0
  181.7750  174.2460  136.2410 N   0  0  0  0  0  1  0  0  0  0  0  0
  191.8850  176.2830  138.2290 C   0  0  0  0  0  3  0  0  0  0  0  0
  193.2520  176.1680  137.9620 C   0  0  0  0  0  3  0  0  0  0  0  0
  191.4100  176.0450  135.8590 C   0  0  0  0  0  3  0  0  0  0  0  0
  192.7820  175.9330  135.5970 C   0  0  0  0  0  3  0  0  0  0  0  0
  193.7030  176.0050  136.6480 C   0  0  0  0  0  3  0  0  0  0  0  0
  190.9580  176.2250  137.1800 C   0  0  0  0  0  0  0  0  0  0  0  0
  184.8520  179.1770  142.9900 C   0  0  0  0  0  2  0  0  0  0  0  0
  184.5150  178.4090  144.2690 C   0  0  0  0  0  2  0  0  0  0  0  0
  187.9670  177.7730  146.7010 C   0  0  0  0  0  3  0  0  0  0  0  0
  185.7370  178.2300  145.1120 C   0  0  0  0  0  0  0  0  0  0  0  0
  186.9010  177.7780  144.5600 N   0  0  0  0  0  0  0  0  0  0  0  0
  186.7930  178.2580  147.2760 C   0  0  0  0  0  3  0  0  0  0  0  0
  188.0050  177.5480  145.3160 C   0  0  0  0  0  3  0  0  0  0  0  0
  185.6730  178.4940  146.4820 C   0  0  0  0  0  3  0  0  0  0  0  0
  1 21  1  6  0  0  0
  1 48  1  0  0  0  0
  2  1  1  0  0  0  0
  3  5  1  0  0  0  0
  3  2  1  0  0  0  0
  5  4  2  0  0  0  0
  5  6  2  0  0  0  0
  8 13  1  1  0  0  0
  8  5  1  0  0  0  0
  9  8  1  0  0  0  0
 10  9  1  1  0  0  0
 11 12  1  0  0  0  0
 11 10  1  0  0  0  0
 11 14  1  1  0  0  0
 12  7  1  6  0  0  0
 12 10  1  0  0  0  0
 12 15  1  0  0  0  0
 15 16  1  6  0  0  0
 15  8  1  0  0  0  0
 16 18  1  0  0  0  0
 17 16  2  0  0  0  0
 19 11  1  0  0  0  0
 20 19  1  0  0  0  0
 21 22  1  0  0  0  0
 23 26  2  0  0  0  0
 24 26  1  0  0  0  0
 25 22  1  0  0  0  0
 26 25  1  0  0  0  0
 27 24  1  1  0  0  0
 28 30  1  0  0  0  0
 29 37  1  0  0  0  0
 31 36  1  0  0  0  0
 32 28  2  0  0  0  0
 33 31  1  0  0  0  0
 34 32  1  0  0  0  0
 35 29  1  0  0  0  0
 35 34  1  0  0  0  0
 35 38  1  1  0  0  0
 36 30  2  0  0  0  0
 36 27  1  0  0  0  0
 37 32  1  0  0  0  0
 37 31  2  0  0  0  0
 38 39  1  0  0  0  0
 39 40  2  0  0  0  0
 41 39  1  0  0  0  0
 43 42  1  0  0  0  0
 44 47  1  0  0  0  0
 45 44  2  0  0  0  0
 45 46  1  0  0  0  0
 46 43  2  0  0  0  0
 47 27  1  0  0  0  0
 47 42  2  0  0  0  0
 48 49  1  0  0  0  0
 49 51  1  0  0  0  0
 50 53  1  0  0  0  0
 51 55  1  0  0  0  0
 52 51  2  0  0  0  0
 52 54  1  0  0  0  0
 54 50  2  0  0  0  0
 55 53  2  0  0  0  0
M  END
>  <MODEL>
8

>  <REMARK>
 VINA RESULT:      -7.5      2.629      5.021
  Name = 
  17 active torsions:
  status: ('A' for Active; 'I' for Inactive)
    1  A    between atoms: C_1  and  C_53
    2  A    between atoms: N_4  and  C_35
    3  A    between atoms: N_4  and  N_37
    4  A    between atoms: C_6  and  S_20
    5  A    between atoms: C_8  and  N_22
    6  A    between atoms: C_8  and  C_43
    7  A    between atoms: C_10  and  C_32
    8  A    between atoms: O_11  and  C_29
    9  A    between atoms: N_19  and  C_45
   10  A    between atoms: S_20  and  N_22
   11  A    between atoms: C_26  and  C_45
   12  A    between atoms: C_27  and  C_51
   13  A    between atoms: C_32  and  C_48
   14  A    between atoms: C_35  and  C_43
   15  A    between atoms: C_43  and  C_54
   16  A    between atoms: C_45  and  C_49
   17  A    between atoms: C_51  and  C_54
                            x       y       z     vdW  Elec       q    Type
                         _______ _______ _______ _____ _____    ______ ____

>  <TORSDO>
F 17

$$$$
=
 OpenBabel11052414583D

 55 60  0  0  1  0  0  0  0  0999 V2000
  189.2860  176.8640  138.3100 C   0  0  1  0  0  3  0  0  0  0  0  0
  189.8390  177.7740  139.4000 C   0  0  0  0  0  2  0  0  0  0  0  0
  189.1610  177.5610  140.6680 N   0  0  0  0  0  2  0  0  0  0  0  0
  190.1220  175.5690  142.1170 O   0  0  0  0  0  0  0  0  0  0  0  0
  190.3190  177.0380  141.8530 S   0  0  0  0  0  0  0  0  0  0  0  0
  191.7010  177.2480  141.2960 O   0  0  0  0  0  0  0  0  0  0  0  0
  189.5190  177.8630  146.8460 O   0  0  0  0  0  1  0  0  0  0  0  0
  190.1690  177.9540  143.3910 C   0  0  1  0  0  0  0  0  0  0  0  0
  191.4610  178.1790  143.9180 O   0  0  0  0  0  0  0  0  0  0  0  0
  191.3430  178.1820  145.3260 C   0  0  2  0  0  3  0  0  0  0  0  0
  191.5620  176.7910  145.9050 C   0  0  1  0  0  0  0  0  0  0  0  0
  190.1470  177.3230  145.7180 C   0  0  1  0  0  0  0  0  0  0  0  0
  189.5580  179.1910  143.1420 O   0  0  0  0  0  1  0  0  0  0  0  0
  191.9960  175.8100  144.9960 O   0  0  0  0  0  1  0  0  0  0  0  0
  189.3860  177.1340  144.4200 C   0  0  1  0  0  3  0  0  0  0  0  0
  187.9090  177.4560  144.4870 C   0  0  0  0  0  0  0  0  0  0  0  0
  187.4620  178.2580  145.3520 O   0  0  0  0  0  1  0  0  0  0  0  0
  187.0650  176.9560  143.5040 O   0  0  0  0  0  0  0  0  0  0  0  0
  192.0690  176.8070  147.2260 O   0  0  0  0  0  0  0  0  0  0  0  0
  192.4180  175.5050  147.5990 C   0  0  0  0  0  1  0  0  0  0  0  0
  188.0320  177.4970  137.6750 C   0  0  0  0  0  2  0  0  0  0  0  0
  187.6130  176.7980  136.4640 N   0  0  0  0  0  2  0  0  0  0  0  0
  185.2900  176.3940  134.9500 O   0  0  0  0  0  0  0  0  0  0  0  0
  184.3830  174.8830  136.4820 N   0  0  0  0  0  2  0  0  0  0  0  0
  186.5610  175.9690  136.8650 N   0  0  0  0  0  2  0  0  0  0  0  0
  185.3970  175.7890  136.0480 C   0  0  0  0  0  0  0  0  0  0  0  0
  182.9610  175.1460  136.3110 C   0  0  2  0  0  3  0  0  0  0  0  0
  181.6370  178.5840  137.2160 N   0  0  0  0  0  0  0  0  0  0  0  0
  182.1290  177.6150  140.5910 O   0  0  0  0  0  0  0  0  0  0  0  0
  182.0570  177.5100  136.4860 C   0  0  0  0  0  3  0  0  0  0  0  0
  182.6160  176.3130  138.5320 C   0  0  0  0  0  0  0  0  0  0  0  0
  181.6870  178.5290  138.5710 C   0  0  0  0  0  0  0  0  0  0  0  0
  183.0830  175.2230  139.1970 F   0  0  0  0  0  0  0  0  0  0  0  0
  181.3230  179.5900  139.5370 C   0  0  0  0  0  2  0  0  0  0  0  0
  181.6130  178.9110  140.8970 C   0  0  1  0  0  3  0  0  0  0  0  0
  182.5520  176.3430  137.1250 C   0  0  0  0  0  0  0  0  0  0  0  0
  182.1640  177.4330  139.2260 C   0  0  0  0  0  0  0  0  0  0  0  0
  180.3390  178.7860  141.7260 C   0  0  0  0  0  2  0  0  0  0  0  0
  180.6010  179.1370  143.1510 C   0  0  0  0  0  0  0  0  0  0  0  0
  179.6660  179.5670  143.8740 O   0  0  0  0  0  0  0  0  0  0  0  0
  181.9120  179.0070  143.6920 N   0  0  0  0  0  1  0  0  0  0  0  0
  180.7450  174.1310  136.8260 C   0  0  0  0  0  3  0  0  0  0  0  0
  179.9450  173.0470  137.1990 C   0  0  0  0  0  3  0  0  0  0  0  0
  182.6820  172.6690  136.7620 C   0  0  0  0  0  3  0  0  0  0  0  0
  181.8760  171.5860  137.1390 C   0  0  0  0  0  3  0  0  0  0  0  0
  180.5090  171.7790  137.3680 C   0  0  0  0  0  3  0  0  0  0  0  0
  182.1160  173.9480  136.6080 C   0  0  0  0  0  0  0  0  0  0  0  0
  190.3910  176.5770  137.2910 C   0  0  0  0  0  2  0  0  0  0  0  0
  190.5880  175.0840  137.0230 C   0  0  0  0  0  2  0  0  0  0  0  0
  194.7300  174.0440  137.0560 C   0  0  0  0  0  3  0  0  0  0  0  0
  192.0440  174.7430  136.9940 C   0  0  0  0  0  0  0  0  0  0  0  0
  192.4770  173.6010  136.3840 N   0  0  0  0  0  0  0  0  0  0  0  0
  194.3060  175.2260  137.6630 C   0  0  0  0  0  3  0  0  0  0  0  0
  193.7860  173.2390  136.3990 C   0  0  0  0  0  3  0  0  0  0  0  0
  192.9610  175.5830  137.6290 C   0  0  0  0  0  3  0  0  0  0  0  0
  1 48  1  6  0  0  0
  1  2  1  0  0  0  0
  2  3  1  0  0  0  0
  3  5  1  0  0  0  0
  5  4  2  0  0  0  0
  5  8  1  0  0  0  0
  6  5  2  0  0  0  0
  8 13  1  6  0  0  0
  8  9  1  0  0  0  0
  8 15  1  0  0  0  0
 10  9  1  6  0  0  0
 10 12  1  0  0  0  0
 10 11  1  0  0  0  0
 11 14  1  6  0  0  0
 11 19  1  0  0  0  0
 12 11  1  0  0  0  0
 12  7  1  1  0  0  0
 15 16  1  1  0  0  0
 15 12  1  0  0  0  0
 16 17  1  0  0  0  0
 18 16  2  0  0  0  0
 19 20  1  0  0  0  0
 21  1  1  0  0  0  0
 22 25  1  0  0  0  0
 22 21  1  0  0  0  0
 23 26  2  0  0  0  0
 26 24  1  0  0  0  0
 26 25  1  0  0  0  0
 27 24  1  1  0  0  0
 27 47  1  0  0  0  0
 27 36  1  0  0  0  0
 28 32  1  0  0  0  0
 29 35  1  0  0  0  0
 30 36  1  0  0  0  0
 30 28  2  0  0  0  0
 31 33  1  0  0  0  0
 31 37  1  0  0  0  0
 32 37  2  0  0  0  0
 32 34  1  0  0  0  0
 34 35  1  0  0  0  0
 35 38  1  1  0  0  0
 36 31  2  0  0  0  0
 37 29  1  0  0  0  0
 38 39  1  0  0  0  0
 39 41  1  0  0  0  0
 39 40  2  0  0  0  0
 42 43  1  0  0  0  0
 43 46  2  0  0  0  0
 44 45  2  0  0  0  0
 45 46  1  0  0  0  0
 47 44  1  0  0  0  0
 47 42  2  0  0  0  0
 49 48  1  0  0  0  0
 50 53  1  0  0  0  0
 51 49  1  0  0  0  0
 51 55  1  0  0  0  0
 52 54  1  0  0  0  0
 52 51  2  0  0  0  0
 54 50  2  0  0  0  0
 55 53  2  0  0  0  0
M  END
>  <MODEL>
9

>  <REMARK>
 VINA RESULT:      -7.3      3.889     10.794
  Name = 
  17 active torsions:
  status: ('A' for Active; 'I' for Inactive)
    1  A    between atoms: C_1  and  C_53
    2  A    between atoms: N_4  and  C_35
    3  A    between atoms: N_4  and  N_37
    4  A    between atoms: C_6  and  S_20
    5  A    between atoms: C_8  and  N_22
    6  A    between atoms: C_8  and  C_43
    7  A    between atoms: C_10  and  C_32
    8  A    between atoms: O_11  and  C_29
    9  A    between atoms: N_19  and  C_45
   10  A    between atoms: S_20  and  N_22
   11  A    between atoms: C_26  and  C_45
   12  A    between atoms: C_27  and  C_51
   13  A    between atoms: C_32  and  C_48
   14  A    between atoms: C_35  and  C_43
   15  A    between atoms: C_43  and  C_54
   16  A    between atoms: C_45  and  C_49
   17  A    between atoms: C_51  and  C_54
                            x       y       z     vdW  Elec       q    Type
                         _______ _______ _______ _____ _____    ______ ____

>  <TORSDO>
F 17

$$$$
