=
 OpenBabel11052413103D

 31 35  0  0  1  0  0  0  0  0999 V2000
  189.7550  176.6220  142.3370 N   0  0  0  0  0  0  0  0  0  0  0  0
  186.5160  178.3010  143.4240 C   0  0  0  0  0  0  0  0  0  0  0  0
  186.4150  178.2160  144.8380 C   0  0  0  0  0  0  0  0  0  0  0  0
  185.1440  179.2010  138.3430 O   0  0  0  0  0  0  0  0  0  0  0  0
  184.1390  179.3510  139.0900 C   0  0  0  0  0  0  0  0  0  0  0  0
  187.3070  177.6830  147.0280 C   0  0  0  0  0  0  0  0  0  0  0  0
  187.7010  177.8650  142.6300 C   0  0  0  0  0  0  0  0  0  0  0  0
  190.0390  177.2370  141.0450 C   0  0  0  0  0  2  0  0  0  0  0  0
  187.4600  177.7370  145.6420 C   0  0  0  0  0  3  0  0  0  0  0  0
  185.4750  178.9340  141.2340 C   0  0  0  0  0  0  0  0  0  0  0  0
  190.6900  175.6570  142.8840 C   0  0  0  0  0  1  0  0  0  0  0  0
  184.1810  179.1520  144.7110 C   0  0  0  0  0  3  0  0  0  0  0  0
  188.4150  177.1690  147.8760 C   0  0  0  0  0  1  0  0  0  0  0  0
  186.5850  178.7030  140.5930 N   0  0  0  0  0  0  0  0  0  0  0  0
  185.4250  178.8390  142.7070 C   0  0  0  0  0  0  0  0  0  0  0  0
  184.2690  179.2320  140.5160 N   0  0  0  0  0  2  0  0  0  0  0  0
  188.6180  177.0160  143.1140 C   0  0  0  0  0  3  0  0  0  0  0  0
  186.1480  178.0970  147.6050 N   0  0  0  0  0  0  0  0  0  0  0  0
  187.8720  178.4510  141.2410 C   0  0  2  0  0  3  0  0  0  0  0  0
  188.7330  177.5740  140.3360 C   0  0  0  0  0  2  0  0  0  0  0  0
  184.3000  179.2350  143.3630 N   0  0  0  0  0  0  0  0  0  0  0  0
  185.2300  178.6480  145.4720 C   0  0  0  0  0  0  0  0  0  0  0  0
  185.1160  178.5760  146.8610 C   0  0  0  0  0  3  0  0  0  0  0  0
  180.6780  180.5170  136.8140 C   0  0  1  0  0  3  0  0  0  0  0  0
  182.3000  180.8800  138.6660 C   0  0  0  0  0  3  0  0  0  0  0  0
  182.1160  177.4000  138.1770 F   0  0  0  0  0  0  0  0  0  0  0  0
  179.0120  180.9340  136.2330 S   0  0  0  0  0  1  0  0  0  0  0  0
  180.9780  181.2930  138.0880 C   0  0  0  0  0  2  0  0  0  0  0  0
  182.1630  178.6440  137.5740 C   0  0  2  0  0  3  0  0  0  0  0  0
  182.8230  179.6570  138.4930 C   0  0  0  0  0  0  0  0  0  0  0  0
  180.7490  179.0320  137.1310 C   0  0  0  0  0  2  0  0  0  0  0  0
  1 11  1  0  0  0  0
  1 17  1  0  0  0  0
  2  3  1  0  0  0  0
  3 22  2  0  0  0  0
  3  9  1  0  0  0  0
  4  5  2  0  0  0  0
  5 16  1  0  0  0  0
  6 18  1  0  0  0  0
  6 13  1  0  0  0  0
  7 17  2  0  0  0  0
  7  2  1  0  0  0  0
  8  1  1  0  0  0  0
  9  6  2  0  0  0  0
 10 15  1  0  0  0  0
 12 22  1  0  0  0  0
 14 10  2  0  0  0  0
 14 19  1  0  0  0  0
 15 21  1  0  0  0  0
 15  2  2  0  0  0  0
 16 10  1  0  0  0  0
 19 20  1  6  0  0  0
 19  7  1  0  0  0  0
 20  8  1  0  0  0  0
 21 12  2  0  0  0  0
 22 23  1  0  0  0  0
 23 18  2  0  0  0  0
 24 27  1  1  0  0  0
 24 31  1  0  0  0  0
 24 28  1  0  0  0  0
 28 25  1  0  0  0  0
 29 26  1  1  0  0  0
 29 30  1  0  0  0  0
 30 25  2  0  0  0  0
 30  5  1  0  0  0  0
 31 29  1  0  0  0  0
M  END
>  <MODEL>
1

>  <REMARK>
 VINA RESULT:     -10.7      0.000      0.000
  Name = 
  1 active torsions:
  status: ('A' for Active; 'I' for Inactive)
    1  A    between atoms: C_9  and  C_22
                            x       y       z     vdW  Elec       q    Type
                         _______ _______ _______ _____ _____    ______ ____

>  <TORSDO>
F 1

$$$$
=
 OpenBabel11052413103D

 31 35  0  0  1  0  0  0  0  0999 V2000
  190.1350  176.7640  142.5800 N   0  0  0  0  0  0  0  0  0  0  0  0
  186.7230  178.2190  143.4350 C   0  0  0  0  0  0  0  0  0  0  0  0
  186.5550  178.1800  144.8450 C   0  0  0  0  0  0  0  0  0  0  0  0
  185.5550  178.8190  138.2610 O   0  0  0  0  0  0  0  0  0  0  0  0
  184.5030  178.9160  138.9500 C   0  0  0  0  0  0  0  0  0  0  0  0
  187.3690  177.8010  147.0970 C   0  0  0  0  0  0  0  0  0  0  0  0
  187.9780  177.8500  142.7190 C   0  0  0  0  0  0  0  0  0  0  0  0
  190.4380  177.3510  141.2790 C   0  0  0  0  0  2  0  0  0  0  0  0
  187.5900  177.8150  145.7190 C   0  0  0  0  0  3  0  0  0  0  0  0
  185.7520  178.6860  141.1720 C   0  0  0  0  0  0  0  0  0  0  0  0
  191.1110  175.8970  143.2130 C   0  0  0  0  0  1  0  0  0  0  0  0
  184.2640  178.9300  144.5690 C   0  0  0  0  0  3  0  0  0  0  0  0
  188.4670  177.4090  148.0190 C   0  0  0  0  0  1  0  0  0  0  0  0
  186.9100  178.5210  140.5970 N   0  0  0  0  0  0  0  0  0  0  0  0
  185.6330  178.6430  142.6440 C   0  0  0  0  0  0  0  0  0  0  0  0
  184.5670  178.8610  140.3840 N   0  0  0  0  0  2  0  0  0  0  0  0
  188.9310  177.0950  143.2830 C   0  0  0  0  0  3  0  0  0  0  0  0
  186.1530  178.1430  147.5980 N   0  0  0  0  0  0  0  0  0  0  0  0
  188.1760  178.3960  141.3180 C   0  0  2  0  0  3  0  0  0  0  0  0
  189.1490  177.5570  140.4940 C   0  0  0  0  0  2  0  0  0  0  0  0
  184.4480  178.9720  143.2260 N   0  0  0  0  0  0  0  0  0  0  0  0
  185.3080  178.5390  145.4020 C   0  0  0  0  0  0  0  0  0  0  0  0
  185.1270  178.5110  146.7850 C   0  0  0  0  0  3  0  0  0  0  0  0
  180.4490  179.0280  137.5100 C   0  0  1  0  0  3  0  0  0  0  0  0
  182.7770  178.1500  137.4230 C   0  0  0  0  0  3  0  0  0  0  0  0
  183.0030  181.4440  138.6410 F   0  0  0  0  0  0  0  0  0  0  0  0
  178.9310  179.2290  136.5400 S   0  0  0  0  0  1  0  0  0  0  0  0
  181.4630  178.2310  136.7020 C   0  0  0  0  0  2  0  0  0  0  0  0
  182.3020  180.2520  138.6750 C   0  0  2  0  0  3  0  0  0  0  0  0
  183.2010  179.0940  138.2770 C   0  0  0  0  0  0  0  0  0  0  0  0
  181.0460  180.3930  137.8110 C   0  0  0  0  0  2  0  0  0  0  0  0
  1 11  1  0  0  0  0
  1 17  1  0  0  0  0
  2  3  1  0  0  0  0
  3 22  2  0  0  0  0
  3  9  1  0  0  0  0
  4  5  2  0  0  0  0
  5 16  1  0  0  0  0
  6 18  1  0  0  0  0
  6 13  1  0  0  0  0
  7 17  2  0  0  0  0
  7  2  1  0  0  0  0
  8  1  1  0  0  0  0
  9  6  2  0  0  0  0
 10 15  1  0  0  0  0
 12 22  1  0  0  0  0
 14 10  2  0  0  0  0
 14 19  1  0  0  0  0
 15 21  1  0  0  0  0
 15  2  2  0  0  0  0
 16 10  1  0  0  0  0
 19 20  1  6  0  0  0
 19  7  1  0  0  0  0
 20  8  1  0  0  0  0
 21 12  2  0  0  0  0
 22 23  1  0  0  0  0
 23 18  2  0  0  0  0
 24 27  1  6  0  0  0
 24 31  1  0  0  0  0
 25 30  2  0  0  0  0
 28 25  1  0  0  0  0
 28 24  1  0  0  0  0
 29 26  1  6  0  0  0
 30 29  1  0  0  0  0
 30  5  1  0  0  0  0
 31 29  1  0  0  0  0
M  END
>  <MODEL>
2

>  <REMARK>
 VINA RESULT:     -10.5      0.940      1.315
  Name = 
  1 active torsions:
  status: ('A' for Active; 'I' for Inactive)
    1  A    between atoms: C_9  and  C_22
                            x       y       z     vdW  Elec       q    Type
                         _______ _______ _______ _____ _____    ______ ____

>  <TORSDO>
F 1

$$$$
=
 OpenBabel11052413103D

 31 35  0  0  1  0  0  0  0  0999 V2000
  188.4030  177.5180  146.3350 N   0  0  0  0  0  0  0  0  0  0  0  0
  187.3090  178.1510  142.7450 C   0  0  0  0  0  0  0  0  0  0  0  0
  185.9130  178.4140  142.7370 C   0  0  0  0  0  0  0  0  0  0  0  0
  192.2280  177.1250  140.9430 O   0  0  0  0  0  0  0  0  0  0  0  0
  191.4090  177.0970  139.9850 C   0  0  0  0  0  0  0  0  0  0  0  0
  183.7980  178.8330  143.8460 C   0  0  0  0  0  0  0  0  0  0  0  0
  188.1320  177.9750  143.9750 C   0  0  0  0  0  0  0  0  0  0  0  0
  189.8280  177.8280  146.3150 C   0  0  0  0  0  2  0  0  0  0  0  0
  185.1670  178.5700  143.9150 C   0  0  0  0  0  3  0  0  0  0  0  0
  189.4260  177.7670  141.4590 C   0  0  0  0  0  0  0  0  0  0  0  0
  187.7780  177.1320  147.5860 C   0  0  0  0  0  1  0  0  0  0  0  0
  185.9510  178.4200  140.3110 C   0  0  0  0  0  3  0  0  0  0  0  0
  183.0120  178.9930  145.0970 C   0  0  0  0  0  1  0  0  0  0  0  0
  190.1390  177.7880  142.5490 N   0  0  0  0  0  0  0  0  0  0  0  0
  187.9770  178.0550  141.5040 C   0  0  0  0  0  0  0  0  0  0  0  0
  190.0250  177.4140  140.2040 N   0  0  0  0  0  2  0  0  0  0  0  0
  187.5920  177.6700  145.1630 C   0  0  0  0  0  3  0  0  0  0  0  0
  183.1820  178.9430  142.6390 N   0  0  0  0  0  0  0  0  0  0  0  0
  189.6290  178.1940  143.8580 C   0  0  2  0  0  3  0  0  0  0  0  0
  190.4140  177.4760  144.9540 C   0  0  0  0  0  2  0  0  0  0  0  0
  187.2860  178.1800  140.3390 N   0  0  0  0  0  0  0  0  0  0  0  0
  185.2420  178.5440  141.5010 C   0  0  0  0  0  0  0  0  0  0  0  0
  183.8720  178.8070  141.4750 C   0  0  0  0  0  3  0  0  0  0  0  0
  192.6710  175.3930  136.2400 C   0  0  1  0  0  3  0  0  0  0  0  0
  193.1670  176.4180  138.4540 C   0  0  0  0  0  3  0  0  0  0  0  0
  190.0640  177.7230  137.4290 F   0  0  0  0  0  0  0  0  0  0  0  0
  193.3600  175.0770  134.5940 S   0  0  0  0  0  1  0  0  0  0  0  0
  193.7370  176.0290  137.1210 C   0  0  0  0  0  2  0  0  0  0  0  0
  190.8720  176.6030  137.5010 C   0  0  2  0  0  3  0  0  0  0  0  0
  191.8780  176.7430  138.6300 C   0  0  0  0  0  0  0  0  0  0  0  0
  191.5050  176.3610  136.1280 C   0  0  0  0  0  2  0  0  0  0  0  0
  1 11  1  0  0  0  0
  2  7  1  0  0  0  0
  3  2  1  0  0  0  0
  3  9  1  0  0  0  0
  5 16  1  0  0  0  0
  5  4  2  0  0  0  0
  6  9  2  0  0  0  0
  6 13  1  0  0  0  0
  7 17  2  0  0  0  0
  8  1  1  0  0  0  0
 10 15  1  0  0  0  0
 10 14  2  0  0  0  0
 12 21  2  0  0  0  0
 12 22  1  0  0  0  0
 14 19  1  0  0  0  0
 15  2  2  0  0  0  0
 16 10  1  0  0  0  0
 17  1  1  0  0  0  0
 18  6  1  0  0  0  0
 19  7  1  0  0  0  0
 19 20  1  1  0  0  0
 20  8  1  0  0  0  0
 21 15  1  0  0  0  0
 22  3  2  0  0  0  0
 23 22  1  0  0  0  0
 23 18  2  0  0  0  0
 24 27  1  6  0  0  0
 24 28  1  0  0  0  0
 25 30  2  0  0  0  0
 28 25  1  0  0  0  0
 29 26  1  6  0  0  0
 29 30  1  0  0  0  0
 30  5  1  0  0  0  0
 31 24  1  0  0  0  0
 31 29  1  0  0  0  0
M  END
>  <MODEL>
3

>  <REMARK>
 VINA RESULT:      -9.2      4.222      7.236
  Name = 
  1 active torsions:
  status: ('A' for Active; 'I' for Inactive)
    1  A    between atoms: C_9  and  C_22
                            x       y       z     vdW  Elec       q    Type
                         _______ _______ _______ _____ _____    ______ ____

>  <TORSDO>
F 1

$$$$
=
 OpenBabel11052413103D

 31 35  0  0  1  0  0  0  0  0999 V2000
  185.5740  178.7010  145.7980 N   0  0  0  0  0  0  0  0  0  0  0  0
  186.4170  178.3490  142.1030 C   0  0  0  0  0  0  0  0  0  0  0  0
  187.8000  178.0490  141.9810 C   0  0  0  0  0  0  0  0  0  0  0  0
  181.4300  179.6650  140.7230 O   0  0  0  0  0  0  0  0  0  0  0  0
  182.1880  179.7530  139.7180 C   0  0  0  0  0  0  0  0  0  0  0  0
  189.9650  177.4750  142.9090 C   0  0  0  0  0  0  0  0  0  0  0  0
  185.6790  178.4420  143.3950 C   0  0  0  0  0  0  0  0  0  0  0  0
  184.1410  178.4340  145.8460 C   0  0  0  0  0  2  0  0  0  0  0  0
  188.6120  177.7710  143.0890 C   0  0  0  0  0  3  0  0  0  0  0  0
  184.2370  178.9020  140.9970 C   0  0  0  0  0  0  0  0  0  0  0  0
  186.2900  178.9590  147.0330 C   0  0  0  0  0  1  0  0  0  0  0  0
  187.6070  178.2530  139.5710 C   0  0  0  0  0  3  0  0  0  0  0  0
  190.8230  177.1860  144.0860 C   0  0  0  0  0  1  0  0  0  0  0  0
  183.5940  178.8070  142.1250 N   0  0  0  0  0  0  0  0  0  0  0  0
  185.6750  178.5710  140.9220 C   0  0  0  0  0  0  0  0  0  0  0  0
  183.5710  179.3790  139.8180 N   0  0  0  0  0  2  0  0  0  0  0  0
  186.3030  178.6270  144.5660 C   0  0  0  0  0  3  0  0  0  0  0  0
  190.4990  177.4530  141.6590 N   0  0  0  0  0  0  0  0  0  0  0  0
  184.1720  178.2760  143.3600 C   0  0  2  0  0  3  0  0  0  0  0  0
  183.4820  178.9180  144.5610 C   0  0  0  0  0  2  0  0  0  0  0  0
  186.2860  178.5270  139.7070 N   0  0  0  0  0  0  0  0  0  0  0  0
  188.3860  178.0060  140.6960 C   0  0  0  0  0  0  0  0  0  0  0  0
  189.7420  177.7090  140.5580 C   0  0  0  0  0  3  0  0  0  0  0  0
  179.9740  181.0020  136.2460 C   0  0  1  0  0  3  0  0  0  0  0  0
  181.3720  179.3440  137.4680 C   0  0  0  0  0  3  0  0  0  0  0  0
  182.3110  182.5140  138.6740 F   0  0  0  0  0  0  0  0  0  0  0  0
  179.4360  181.5190  134.5940 S   0  0  0  0  0  1  0  0  0  0  0  0
  180.8060  179.7330  136.1330 C   0  0  0  0  0  2  0  0  0  0  0  0
  181.2660  181.6980  138.2800 C   0  0  2  0  0  3  0  0  0  0  0  0
  181.6460  180.2350  138.4320 C   0  0  0  0  0  0  0  0  0  0  0  0
  180.8420  182.0880  136.8610 C   0  0  0  0  0  2  0  0  0  0  0  0
  1  8  1  0  0  0  0
  1 11  1  0  0  0  0
  2  7  1  0  0  0  0
  3  2  1  0  0  0  0
  3  9  1  0  0  0  0
  5 16  1  0  0  0  0
  5  4  2  0  0  0  0
  6  9  2  0  0  0  0
  6 13  1  0  0  0  0
  7 17  2  0  0  0  0
 10 14  2  0  0  0  0
 12 21  2  0  0  0  0
 12 22  1  0  0  0  0
 14 19  1  0  0  0  0
 15 10  1  0  0  0  0
 15  2  2  0  0  0  0
 16 10  1  0  0  0  0
 17  1  1  0  0  0  0
 18  6  1  0  0  0  0
 19  7  1  0  0  0  0
 19 20  1  1  0  0  0
 20  8  1  0  0  0  0
 21 15  1  0  0  0  0
 22  3  2  0  0  0  0
 23 22  1  0  0  0  0
 23 18  2  0  0  0  0
 24 27  1  6  0  0  0
 24 31  1  0  0  0  0
 25 30  2  0  0  0  0
 28 24  1  0  0  0  0
 28 25  1  0  0  0  0
 29 30  1  0  0  0  0
 29 26  1  6  0  0  0
 30  5  1  0  0  0  0
 31 29  1  0  0  0  0
M  END
>  <MODEL>
4

>  <REMARK>
 VINA RESULT:      -9.1      1.750      4.385
  Name = 
  1 active torsions:
  status: ('A' for Active; 'I' for Inactive)
    1  A    between atoms: C_9  and  C_22
                            x       y       z     vdW  Elec       q    Type
                         _______ _______ _______ _____ _____    ______ ____

>  <TORSDO>
F 1

$$$$
=
 OpenBabel11052413103D

 31 35  0  0  1  0  0  0  0  0999 V2000
  183.2550  178.3350  139.4650 N   0  0  0  0  0  0  0  0  0  0  0  0
  187.0610  178.2260  139.5070 C   0  0  0  0  0  0  0  0  0  0  0  0
  187.5250  178.1290  138.1680 C   0  0  0  0  0  0  0  0  0  0  0  0
  187.1160  178.2460  144.8460 O   0  0  0  0  0  0  0  0  0  0  0  0
  188.2470  177.8960  144.4080 C   0  0  0  0  0  0  0  0  0  0  0  0
  187.1830  178.1420  135.7680 C   0  0  0  0  0  0  0  0  0  0  0  0
  185.6340  178.4150  139.8990 C   0  0  0  0  0  0  0  0  0  0  0  0
  182.9210  178.9870  140.7270 C   0  0  0  0  0  2  0  0  0  0  0  0
  186.6690  178.2390  137.0620 C   0  0  0  0  0  3  0  0  0  0  0  0
  187.5740  178.2270  141.9600 C   0  0  0  0  0  0  0  0  0  0  0  0
  182.1910  177.9630  138.5530 C   0  0  0  0  0  1  0  0  0  0  0  0
  189.7870  177.8450  138.9990 C   0  0  0  0  0  3  0  0  0  0  0  0
  186.2720  178.2540  134.6000 C   0  0  0  0  0  1  0  0  0  0  0  0
  186.3500  178.5600  142.2570 N   0  0  0  0  0  0  0  0  0  0  0  0
  188.0090  178.1470  140.5510 C   0  0  0  0  0  0  0  0  0  0  0  0
  188.5060  177.8820  142.9950 N   0  0  0  0  0  2  0  0  0  0  0  0
  184.6190  178.1340  139.0710 C   0  0  0  0  0  3  0  0  0  0  0  0
  188.5140  177.9440  135.5740 N   0  0  0  0  0  0  0  0  0  0  0  0
  185.3510  178.9840  141.2760 C   0  0  2  0  0  3  0  0  0  0  0  0
  183.9570  178.6260  141.7840 C   0  0  0  0  0  2  0  0  0  0  0  0
  189.3260  177.9510  140.2700 N   0  0  0  0  0  0  0  0  0  0  0  0
  188.9030  177.9340  137.9290 C   0  0  0  0  0  0  0  0  0  0  0  0
  189.3770  177.8410  136.6190 C   0  0  0  0  0  3  0  0  0  0  0  0
  191.1900  176.0920  146.9770 C   0  0  1  0  0  3  0  0  0  0  0  0
  188.9680  177.1490  146.6030 C   0  0  0  0  0  3  0  0  0  0  0  0
  191.1290  178.5020  144.1790 F   0  0  0  0  0  0  0  0  0  0  0  0
  192.4380  175.7300  148.2410 S   0  0  0  0  0  1  0  0  0  0  0  0
  189.9710  176.7220  147.6350 C   0  0  0  0  0  2  0  0  0  0  0  0
  190.7390  177.3650  144.8640 C   0  0  2  0  0  3  0  0  0  0  0  0
  189.3090  177.5060  145.3560 C   0  0  0  0  0  0  0  0  0  0  0  0
  191.7560  177.0830  145.9730 C   0  0  0  0  0  2  0  0  0  0  0  0
  1  8  1  0  0  0  0
  2  7  1  0  0  0  0
  2 15  1  0  0  0  0
  3  2  2  0  0  0  0
  5  4  2  0  0  0  0
  5 30  1  0  0  0  0
  6  9  2  0  0  0  0
  7 19  1  0  0  0  0
  8 20  1  0  0  0  0
  9  3  1  0  0  0  0
 10 14  2  0  0  0  0
 10 16  1  0  0  0  0
 11  1  1  0  0  0  0
 12 21  1  0  0  0  0
 13  6  1  0  0  0  0
 15 10  1  0  0  0  0
 16  5  1  0  0  0  0
 17  1  1  0  0  0  0
 17  7  2  0  0  0  0
 18  6  1  0  0  0  0
 18 23  2  0  0  0  0
 19 20  1  1  0  0  0
 19 14  1  0  0  0  0
 21 15  2  0  0  0  0
 22  3  1  0  0  0  0
 22 12  2  0  0  0  0
 23 22  1  0  0  0  0
 24 28  1  0  0  0  0
 24 27  1  1  0  0  0
 25 28  1  0  0  0  0
 29 26  1  1  0  0  0
 29 30  1  0  0  0  0
 29 31  1  0  0  0  0
 30 25  2  0  0  0  0
 31 24  1  0  0  0  0
M  END
>  <MODEL>
5

>  <REMARK>
 VINA RESULT:      -9.0      4.779      9.431
  Name = 
  1 active torsions:
  status: ('A' for Active; 'I' for Inactive)
    1  A    between atoms: C_9  and  C_22
                            x       y       z     vdW  Elec       q    Type
                         _______ _______ _______ _____ _____    ______ ____

>  <TORSDO>
F 1

$$$$
=
 OpenBabel11052413103D

 31 35  0  0  1  0  0  0  0  0999 V2000
  187.2570  176.7500  135.8970 N   0  0  0  0  0  0  0  0  0  0  0  0
  189.9630  177.0400  138.5600 C   0  0  0  0  0  0  0  0  0  0  0  0
  191.2140  176.7200  137.9690 C   0  0  0  0  0  0  0  0  0  0  0  0
  186.3210  178.1480  142.3040 O   0  0  0  0  0  0  0  0  0  0  0  0
  187.4140  177.8340  142.8510 C   0  0  0  0  0  0  0  0  0  0  0  0
  192.6250  176.2110  136.0640 C   0  0  0  0  0  0  0  0  0  0  0  0
  188.6770  177.1570  137.8130 C   0  0  0  0  0  0  0  0  0  0  0  0
  186.1900  177.6060  136.4040 C   0  0  0  0  0  2  0  0  0  0  0  0
  191.3680  176.5160  136.5900 C   0  0  0  0  0  3  0  0  0  0  0  0
  188.6400  177.5900  140.6160 C   0  0  0  0  0  0  0  0  0  0  0  0
  187.0930  176.0940  134.6140 C   0  0  0  0  0  1  0  0  0  0  0  0
  192.2520  176.8420  140.1590 C   0  0  0  0  0  3  0  0  0  0  0  0
  192.7820  175.9900  134.6030 C   0  0  0  0  0  1  0  0  0  0  0  0
  187.5760  177.8500  139.9110 N   0  0  0  0  0  0  0  0  0  0  0  0
  189.9210  177.2710  139.9520 C   0  0  0  0  0  0  0  0  0  0  0  0
  188.5740  177.5590  142.0490 N   0  0  0  0  0  2  0  0  0  0  0  0
  188.4980  176.6130  136.6020 C   0  0  0  0  0  3  0  0  0  0  0  0
  193.7040  176.1140  136.8840 N   0  0  0  0  0  0  0  0  0  0  0  0
  187.5620  177.9630  138.4530 C   0  0  2  0  0  3  0  0  0  0  0  0
  186.1820  177.5750  137.9270 C   0  0  0  0  0  2  0  0  0  0  0  0
  191.0500  177.1570  140.7030 N   0  0  0  0  0  0  0  0  0  0  0  0
  192.3600  176.6220  138.7900 C   0  0  0  0  0  0  0  0  0  0  0  0
  193.5980  176.3140  138.2250 C   0  0  0  0  0  3  0  0  0  0  0  0
  188.0050  178.2210  147.0950 C   0  0  1  0  0  3  0  0  0  0  0  0
  188.6130  177.2590  144.8820 C   0  0  0  0  0  3  0  0  0  0  0  0
  185.1600  177.9230  144.7590 F   0  0  0  0  0  0  0  0  0  0  0  0
  188.1400  177.9620  148.8840 S   0  0  0  0  0  1  0  0  0  0  0  0
  188.8030  177.1500  146.3670 C   0  0  0  0  0  2  0  0  0  0  0  0
  186.4010  178.3700  145.1720 C   0  0  2  0  0  3  0  0  0  0  0  0
  187.4990  177.7540  144.3220 C   0  0  0  0  0  0  0  0  0  0  0  0
  186.5490  178.1030  146.6730 C   0  0  0  0  0  2  0  0  0  0  0  0
  1  8  1  0  0  0  0
  1 17  1  0  0  0  0
  2 15  1  0  0  0  0
  3  2  2  0  0  0  0
  3 22  1  0  0  0  0
  4  5  2  0  0  0  0
  5 30  1  0  0  0  0
  6  9  2  0  0  0  0
  6 18  1  0  0  0  0
  7 19  1  0  0  0  0
  7  2  1  0  0  0  0
  8 20  1  0  0  0  0
  9  3  1  0  0  0  0
 10 16  1  0  0  0  0
 11  1  1  0  0  0  0
 12 21  1  0  0  0  0
 13  6  1  0  0  0  0
 14 10  2  0  0  0  0
 15 10  1  0  0  0  0
 15 21  2  0  0  0  0
 16  5  1  0  0  0  0
 17  7  2  0  0  0  0
 18 23  2  0  0  0  0
 19 20  1  6  0  0  0
 19 14  1  0  0  0  0
 22 12  2  0  0  0  0
 23 22  1  0  0  0  0
 24 27  1  1  0  0  0
 25 28  1  0  0  0  0
 28 24  1  0  0  0  0
 29 26  1  6  0  0  0
 29 31  1  0  0  0  0
 30 25  2  0  0  0  0
 30 29  1  0  0  0  0
 31 24  1  0  0  0  0
M  END
>  <MODEL>
6

>  <REMARK>
 VINA RESULT:      -8.6      4.616      8.921
  Name = 
  1 active torsions:
  status: ('A' for Active; 'I' for Inactive)
    1  A    between atoms: C_9  and  C_22
                            x       y       z     vdW  Elec       q    Type
                         _______ _______ _______ _____ _____    ______ ____

>  <TORSDO>
F 1

$$$$
=
 OpenBabel11052413103D

 31 35  0  0  1  0  0  0  0  0999 V2000
  185.5870  178.7190  145.7670 N   0  0  0  0  0  0  0  0  0  0  0  0
  186.2740  178.3690  142.0390 C   0  0  0  0  0  0  0  0  0  0  0  0
  187.6530  178.0790  141.8590 C   0  0  0  0  0  0  0  0  0  0  0  0
  181.2240  179.6500  140.8720 O   0  0  0  0  0  0  0  0  0  0  0  0
  181.9380  179.7420  139.8360 C   0  0  0  0  0  0  0  0  0  0  0  0
  189.8590  177.5210  142.6940 C   0  0  0  0  0  0  0  0  0  0  0  0
  185.5920  178.4580  143.3620 C   0  0  0  0  0  0  0  0  0  0  0  0
  184.1590  178.4410  145.8760 C   0  0  0  0  0  2  0  0  0  0  0  0
  188.5140  177.8070  142.9320 C   0  0  0  0  0  3  0  0  0  0  0  0
  184.0450  178.9060  141.0270 C   0  0  0  0  0  0  0  0  0  0  0  0
  186.3530  178.9830  146.9700 C   0  0  0  0  0  1  0  0  0  0  0  0
  187.3560  178.2800  139.4590 C   0  0  0  0  0  3  0  0  0  0  0  0
  190.7690  177.2390  143.8340 C   0  0  0  0  0  1  0  0  0  0  0  0
  183.4510  178.8080  142.1820 N   0  0  0  0  0  0  0  0  0  0  0  0
  185.4810  178.5860  140.8910 C   0  0  0  0  0  0  0  0  0  0  0  0
  183.3270  179.3780  139.8770 N   0  0  0  0  0  2  0  0  0  0  0  0
  186.2640  178.6490  144.5050 C   0  0  0  0  0  3  0  0  0  0  0  0
  190.3400  177.5020  141.4220 N   0  0  0  0  0  0  0  0  0  0  0  0
  184.0850  178.2820  143.3910 C   0  0  2  0  0  3  0  0  0  0  0  0
  183.4430  178.9200  144.6200 C   0  0  0  0  0  2  0  0  0  0  0  0
  186.0400  178.5450  139.6510 N   0  0  0  0  0  0  0  0  0  0  0  0
  188.1840  178.0390  140.5510 C   0  0  0  0  0  0  0  0  0  0  0  0
  189.5350  177.7510  140.3550 C   0  0  0  0  0  3  0  0  0  0  0  0
  180.8060  181.4790  136.0650 C   0  0  1  0  0  3  0  0  0  0  0  0
  180.7420  181.4200  138.5530 C   0  0  0  0  0  3  0  0  0  0  0  0
  181.2020  178.0970  137.4950 F   0  0  0  0  0  0  0  0  0  0  0  0
  179.9280  182.0830  134.5990 S   0  0  0  0  0  1  0  0  0  0  0  0
  180.1170  182.0010  137.3180 C   0  0  0  0  0  2  0  0  0  0  0  0
  181.5430  179.4230  137.2980 C   0  0  2  0  0  3  0  0  0  0  0  0
  181.3390  180.2200  138.5740 C   0  0  0  0  0  0  0  0  0  0  0  0
  180.7620  179.9600  136.0950 C   0  0  0  0  0  2  0  0  0  0  0  0
  1  8  1  0  0  0  0
  1 11  1  0  0  0  0
  2  7  1  0  0  0  0
  3  2  1  0  0  0  0
  3  9  1  0  0  0  0
  5 16  1  0  0  0  0
  5  4  2  0  0  0  0
  6  9  2  0  0  0  0
  6 13  1  0  0  0  0
  7 19  1  0  0  0  0
  7 17  2  0  0  0  0
 10 14  2  0  0  0  0
 12 21  2  0  0  0  0
 12 22  1  0  0  0  0
 14 19  1  0  0  0  0
 15 10  1  0  0  0  0
 15  2  2  0  0  0  0
 16 10  1  0  0  0  0
 17  1  1  0  0  0  0
 18  6  1  0  0  0  0
 19 20  1  1  0  0  0
 20  8  1  0  0  0  0
 21 15  1  0  0  0  0
 22  3  2  0  0  0  0
 23 22  1  0  0  0  0
 23 18  2  0  0  0  0
 24 27  1  6  0  0  0
 24 31  1  0  0  0  0
 24 28  1  0  0  0  0
 25 30  2  0  0  0  0
 28 25  1  0  0  0  0
 29 26  1  1  0  0  0
 29 30  1  0  0  0  0
 30  5  1  0  0  0  0
 31 29  1  0  0  0  0
M  END
>  <MODEL>
7

>  <REMARK>
 VINA RESULT:      -8.6      1.580      4.261
  Name = 
  1 active torsions:
  status: ('A' for Active; 'I' for Inactive)
    1  A    between atoms: C_9  and  C_22
                            x       y       z     vdW  Elec       q    Type
                         _______ _______ _______ _____ _____    ______ ____

>  <TORSDO>
F 1

$$$$
=
 OpenBabel11052413103D

 31 35  0  0  1  0  0  0  0  0999 V2000
  185.5680  178.9180  143.9670 N   0  0  0  0  0  0  0  0  0  0  0  0
  189.0140  177.3000  143.8820 C   0  0  0  0  0  0  0  0  0  0  0  0
  189.5270  177.2610  145.2050 C   0  0  0  0  0  0  0  0  0  0  0  0
  188.8340  176.9300  138.5590 O   0  0  0  0  0  0  0  0  0  0  0  0
  190.0180  176.7600  138.9590 C   0  0  0  0  0  0  0  0  0  0  0  0
  189.3150  177.5510  147.6030 C   0  0  0  0  0  0  0  0  0  0  0  0
  187.6390  177.7500  143.5180 C   0  0  0  0  0  0  0  0  0  0  0  0
  184.9260  178.4110  142.7590 C   0  0  0  0  0  2  0  0  0  0  0  0
  188.7600  177.6160  146.3240 C   0  0  0  0  0  3  0  0  0  0  0  0
  189.3700  176.9180  141.4300 C   0  0  0  0  0  0  0  0  0  0  0  0
  184.8220  179.7850  144.8580 C   0  0  0  0  0  1  0  0  0  0  0  0
  191.6400  176.4450  144.3350 C   0  0  0  0  0  3  0  0  0  0  0  0
  188.5000  177.9330  148.7850 C   0  0  0  0  0  1  0  0  0  0  0  0
  188.1160  177.1540  141.1700 N   0  0  0  0  0  0  0  0  0  0  0  0
  189.8530  176.8810  142.8260 C   0  0  0  0  0  0  0  0  0  0  0  0
  190.3140  176.7430  140.3640 N   0  0  0  0  0  2  0  0  0  0  0  0
  186.8920  178.5080  144.3330 C   0  0  0  0  0  3  0  0  0  0  0  0
  190.6010  177.1410  147.7700 N   0  0  0  0  0  0  0  0  0  0  0  0
  187.0740  177.2860  142.1890 C   0  0  2  0  0  3  0  0  0  0  0  0
  185.9680  178.2010  141.6690 C   0  0  0  0  0  2  0  0  0  0  0  0
  191.1280  176.4800  143.0800 N   0  0  0  0  0  0  0  0  0  0  0  0
  190.8550  176.8290  145.4170 C   0  0  0  0  0  0  0  0  0  0  0  0
  191.3740  176.7790  146.7120 C   0  0  0  0  0  3  0  0  0  0  0  0
  193.2000  175.5420  136.3290 C   0  0  1  0  0  3  0  0  0  0  0  0
  192.3760  176.6800  138.3840 C   0  0  0  0  0  3  0  0  0  0  0  0
  189.7820  176.9060  136.0170 F   0  0  0  0  0  0  0  0  0  0  0  0
  194.5870  175.4600  135.1650 S   0  0  0  0  0  1  0  0  0  0  0  0
  193.5480  176.4920  137.4650 C   0  0  0  0  0  2  0  0  0  0  0  0
  190.7680  176.1080  136.5680 C   0  0  2  0  0  3  0  0  0  0  0  0
  191.1030  176.5710  137.9750 C   0  0  0  0  0  0  0  0  0  0  0  0
  191.9690  176.0790  135.6180 C   0  0  0  0  0  2  0  0  0  0  0  0
  1 17  1  0  0  0  0
  1 11  1  0  0  0  0
  2  3  1  0  0  0  0
  3 22  2  0  0  0  0
  3  9  1  0  0  0  0
  4  5  2  0  0  0  0
  5 16  1  0  0  0  0
  6 18  1  0  0  0  0
  6 13  1  0  0  0  0
  7  2  1  0  0  0  0
  7 17  2  0  0  0  0
  8  1  1  0  0  0  0
  9  6  2  0  0  0  0
 10 15  1  0  0  0  0
 12 22  1  0  0  0  0
 14 10  2  0  0  0  0
 14 19  1  0  0  0  0
 15 21  1  0  0  0  0
 15  2  2  0  0  0  0
 16 10  1  0  0  0  0
 19 20  1  6  0  0  0
 19  7  1  0  0  0  0
 20  8  1  0  0  0  0
 21 12  2  0  0  0  0
 22 23  1  0  0  0  0
 23 18  2  0  0  0  0
 24 27  1  6  0  0  0
 24 28  1  0  0  0  0
 28 25  1  0  0  0  0
 29 26  1  6  0  0  0
 29 30  1  0  0  0  0
 30 25  2  0  0  0  0
 30  5  1  0  0  0  0
 31 24  1  0  0  0  0
 31 29  1  0  0  0  0
M  END
>  <MODEL>
8

>  <REMARK>
 VINA RESULT:      -8.6      4.635      7.274
  Name = 
  1 active torsions:
  status: ('A' for Active; 'I' for Inactive)
    1  A    between atoms: C_9  and  C_22
                            x       y       z     vdW  Elec       q    Type
                         _______ _______ _______ _____ _____    ______ ____

>  <TORSDO>
F 1

$$$$
=
 OpenBabel11052413103D

 31 35  0  0  1  0  0  0  0  0999 V2000
  180.4340  178.4070  142.3420 N   0  0  0  0  0  0  0  0  0  0  0  0
  184.0410  178.4550  141.1260 C   0  0  0  0  0  0  0  0  0  0  0  0
  184.0410  178.3790  139.7080 C   0  0  0  0  0  0  0  0  0  0  0  0
  185.8550  178.4700  146.1480 O   0  0  0  0  0  0  0  0  0  0  0  0
  186.7900  178.1670  145.3570 C   0  0  0  0  0  0  0  0  0  0  0  0
  182.9260  178.3810  137.5550 C   0  0  0  0  0  0  0  0  0  0  0  0
  182.8180  178.5840  141.9690 C   0  0  0  0  0  0  0  0  0  0  0  0
  180.5100  179.0430  143.6530 C   0  0  0  0  0  2  0  0  0  0  0  0
  182.8650  178.4550  138.9480 C   0  0  0  0  0  3  0  0  0  0  0  0
  185.3350  178.4740  143.2730 C   0  0  0  0  0  0  0  0  0  0  0  0
  179.1430  177.9930  141.8280 C   0  0  0  0  0  1  0  0  0  0  0  0
  186.4600  178.1870  139.7420 C   0  0  0  0  0  3  0  0  0  0  0  0
  181.6770  178.4570  136.7540 C   0  0  0  0  0  1  0  0  0  0  0  0
  184.2660  178.7550  143.9620 N   0  0  0  0  0  0  0  0  0  0  0  0
  185.2830  178.4130  141.7980 C   0  0  0  0  0  0  0  0  0  0  0  0
  186.5680  178.1660  143.9380 N   0  0  0  0  0  2  0  0  0  0  0  0
  181.5980  178.2630  141.5180 C   0  0  0  0  0  3  0  0  0  0  0  0
  184.1250  178.2380  136.9300 N   0  0  0  0  0  0  0  0  0  0  0  0
  182.9840  179.1400  143.3710 C   0  0  2  0  0  3  0  0  0  0  0  0
  181.8490  178.7240  144.3050 C   0  0  0  0  0  2  0  0  0  0  0  0
  186.4400  178.2720  141.0950 N   0  0  0  0  0  0  0  0  0  0  0  0
  185.2700  178.2410  139.0240 C   0  0  0  0  0  0  0  0  0  0  0  0
  185.2880  178.1690  137.6310 C   0  0  0  0  0  3  0  0  0  0  0  0
  190.4120  176.4920  146.9680 C   0  0  1  0  0  3  0  0  0  0  0  0
  188.2880  177.7640  147.2250 C   0  0  0  0  0  3  0  0  0  0  0  0
  189.3680  178.2970  143.9190 F   0  0  0  0  0  0  0  0  0  0  0  0
  192.0390  176.2060  147.7140 S   0  0  0  0  0  1  0  0  0  0  0  0
  189.5950  177.4060  147.8700 C   0  0  0  0  0  2  0  0  0  0  0  0
  189.2230  177.3830  144.9470 C   0  0  2  0  0  3  0  0  0  0  0  0
  188.1200  177.8200  145.8960 C   0  0  0  0  0  0  0  0  0  0  0  0
  190.5820  177.1780  145.6220 C   0  0  0  0  0  2  0  0  0  0  0  0
  1  8  1  0  0  0  0
  2 15  1  0  0  0  0
  2  7  1  0  0  0  0
  3  2  2  0  0  0  0
  5 30  1  0  0  0  0
  5  4  2  0  0  0  0
  6  9  2  0  0  0  0
  7 19  1  0  0  0  0
  8 20  1  0  0  0  0
  9  3  1  0  0  0  0
 10 16  1  0  0  0  0
 10 14  2  0  0  0  0
 11  1  1  0  0  0  0
 12 21  1  0  0  0  0
 13  6  1  0  0  0  0
 15 10  1  0  0  0  0
 16  5  1  0  0  0  0
 17  7  2  0  0  0  0
 17  1  1  0  0  0  0
 18  6  1  0  0  0  0
 18 23  2  0  0  0  0
 19 14  1  0  0  0  0
 19 20  1  1  0  0  0
 21 15  2  0  0  0  0
 22  3  1  0  0  0  0
 22 12  2  0  0  0  0
 23 22  1  0  0  0  0
 24 27  1  1  0  0  0
 24 28  1  0  0  0  0
 25 28  1  0  0  0  0
 29 26  1  6  0  0  0
 29 31  1  0  0  0  0
 29 30  1  0  0  0  0
 30 25  2  0  0  0  0
 31 24  1  0  0  0  0
M  END
>  <MODEL>
9

>  <REMARK>
 VINA RESULT:      -8.4      4.475      9.196
  Name = 
  1 active torsions:
  status: ('A' for Active; 'I' for Inactive)
    1  A    between atoms: C_9  and  C_22
                            x       y       z     vdW  Elec       q    Type
                         _______ _______ _______ _____ _____    ______ ____

>  <TORSDO>
F 1

$$$$
