=
 OpenBabel11052414243D

 34 38  0  0  1  0  0  0  0  0999 V2000
  190.7830  177.2910  146.2880 C   0  0  0  0  0  0  0  0  0  0  0  0
  191.3400  175.3420  144.8870 C   0  0  0  0  0  0  0  0  0  0  0  0
  189.7490  177.1670  143.9680 C   0  0  0  0  0  0  0  0  0  0  0  0
  188.7070  177.5950  141.7840 C   0  0  0  0  0  0  0  0  0  0  0  0
  191.7940  176.8950  147.2200 N   0  0  0  0  0  0  0  0  0  0  0  0
  192.1450  174.9150  145.8710 C   0  0  0  0  0  3  0  0  0  0  0  0
  191.1540  176.9390  141.9480 C   0  0  0  0  0  3  0  0  0  0  0  0
  190.9200  176.8010  144.8640 C   0  0  1  0  0  3  0  0  0  0  0  0
  191.3240  177.2080  140.6520 C   0  0  0  0  0  3  0  0  0  0  0  0
  188.8250  177.5100  140.2920 C   0  0  0  0  0  2  0  0  0  0  0  0
  192.4570  175.7910  147.0250 C   0  0  0  0  0  3  0  0  0  0  0  0
  188.5000  177.6840  144.5760 C   0  0  0  0  0  0  0  0  0  0  0  0
  189.6650  177.8630  146.7360 C   0  0  0  0  0  3  0  0  0  0  0  0
  190.9400  174.2150  143.6010 Cl  0  0  0  0  0  0  0  0  0  0  0  0
  187.5620  177.8960  142.3170 N   0  0  0  0  0  0  0  0  0  0  0  0
  187.3680  177.9380  143.7130 N   0  0  0  0  0  0  0  0  0  0  0  0
  190.2450  177.8840  139.8440 C   0  0  2  0  0  3  0  0  0  0  0  0
  189.8700  177.2170  142.6270 C   0  0  0  0  0  0  0  0  0  0  0  0
  188.4980  178.0590  145.8630 C   0  0  0  0  0  3  0  0  0  0  0  0
  183.6810  178.6190  143.7570 C   0  0  0  0  0  0  0  0  0  0  0  0
  183.4280  178.6880  145.1280 C   0  0  0  0  0  3  0  0  0  0  0  0
  186.0400  178.2170  144.2040 C   0  0  0  0  0  0  0  0  0  0  0  0
  184.4700  178.5160  146.0410 C   0  0  0  0  0  3  0  0  0  0  0  0
  184.9810  178.3800  143.2980 C   0  0  0  0  0  3  0  0  0  0  0  0
  185.7680  178.2770  145.5820 C   0  0  0  0  0  3  0  0  0  0  0  0
  182.6700  178.7800  142.8710 F   0  0  0  0  0  0  0  0  0  0  0  0
  190.4390  177.6950  138.4050 N   0  0  0  0  0  2  0  0  0  0  0  0
  189.1680  177.3930  137.7520 C   0  0  0  0  0  2  0  0  0  0  0  0
  188.9770  179.7520  137.4260 O   0  0  0  0  0  1  0  0  0  0  0  0
  188.7900  178.5190  136.8010 C   0  0  2  0  0  3  0  0  0  0  0  0
  187.3540  178.3850  136.2940 C   0  0  0  0  0  2  0  0  0  0  0  0
  186.0650  176.6510  137.3130 O   0  0  0  0  0  0  0  0  0  0  0  0
  186.4200  177.8590  137.3360 C   0  0  0  0  0  0  0  0  0  0  0  0
  185.9510  178.7150  138.3710 N   0  0  0  0  0  1  0  0  0  0  0  0
  1 13  2  0  0  0  0
  1  5  1  0  0  0  0
  2  6  2  0  0  0  0
  3 12  1  0  0  0  0
  4 15  2  0  0  0  0
  4 18  1  0  0  0  0
  6 11  1  0  0  0  0
  7 18  1  0  0  0  0
  8  3  1  1  0  0  0
  8  2  1  0  0  0  0
  8  1  1  0  0  0  0
  9  7  2  0  0  0  0
 10  4  1  0  0  0  0
 11  5  2  0  0  0  0
 12 19  2  0  0  0  0
 14  2  1  0  0  0  0
 15 16  1  0  0  0  0
 16 22  1  0  0  0  0
 16 12  1  0  0  0  0
 17 27  1  6  0  0  0
 17 10  1  0  0  0  0
 17  9  1  0  0  0  0
 18  3  2  0  0  0  0
 19 13  1  0  0  0  0
 20 21  1  0  0  0  0
 21 23  2  0  0  0  0
 22 25  2  0  0  0  0
 24 20  2  0  0  0  0
 24 22  1  0  0  0  0
 25 23  1  0  0  0  0
 26 20  1  0  0  0  0
 28 27  1  0  0  0  0
 30 29  1  1  0  0  0
 30 28  1  0  0  0  0
 31 30  1  0  0  0  0
 31 33  1  0  0  0  0
 32 33  2  0  0  0  0
 33 34  1  0  0  0  0
M  END
>  <MODEL>
1

>  <REMARK>
 VINA RESULT:      -8.8      0.000      0.000
  Name = 
  6 active torsions:
  status: ('A' for Active; 'I' for Inactive)
    1  A    between atoms: N_3  and  C_13
    2  A    between atoms: N_3  and  C_29
    3  A    between atoms: C_12  and  N_28
    4  A    between atoms: C_13  and  C_33
    5  A    between atoms: C_20  and  C_22
    6  A    between atoms: C_22  and  C_33
                            x       y       z     vdW  Elec       q    Type
                         _______ _______ _______ _____ _____    ______ ____

>  <TORSDO>
F 6

$$$$
=
 OpenBabel11052414243D

 34 38  0  0  1  0  0  0  0  0999 V2000
  190.7810  177.3060  146.2750 C   0  0  0  0  0  0  0  0  0  0  0  0
  191.3350  175.3490  144.8830 C   0  0  0  0  0  0  0  0  0  0  0  0
  189.7420  177.1700  143.9580 C   0  0  0  0  0  0  0  0  0  0  0  0
  188.6950  177.5870  141.7750 C   0  0  0  0  0  0  0  0  0  0  0  0
  191.7940  176.9140  147.2070 N   0  0  0  0  0  0  0  0  0  0  0  0
  192.1410  174.9270  145.8680 C   0  0  0  0  0  3  0  0  0  0  0  0
  191.1420  176.9320  141.9370 C   0  0  0  0  0  3  0  0  0  0  0  0
  190.9140  176.8080  144.8540 C   0  0  1  0  0  3  0  0  0  0  0  0
  191.3090  177.1940  140.6390 C   0  0  0  0  0  3  0  0  0  0  0  0
  188.8100  177.4940  140.2830 C   0  0  0  0  0  2  0  0  0  0  0  0
  192.4560  175.8090  147.0160 C   0  0  0  0  0  3  0  0  0  0  0  0
  188.4940  177.6900  144.5670 C   0  0  0  0  0  0  0  0  0  0  0  0
  189.6630  177.8800  146.7240 C   0  0  0  0  0  3  0  0  0  0  0  0
  190.9320  174.2160  143.6040 Cl  0  0  0  0  0  0  0  0  0  0  0  0
  187.5510  177.8900  142.3090 N   0  0  0  0  0  0  0  0  0  0  0  0
  187.3600  177.9400  143.7050 N   0  0  0  0  0  0  0  0  0  0  0  0
  190.2290  177.8670  139.8300 C   0  0  2  0  0  3  0  0  0  0  0  0
  189.8590  177.2130  142.6170 C   0  0  0  0  0  0  0  0  0  0  0  0
  188.4940  178.0710  145.8520 C   0  0  0  0  0  3  0  0  0  0  0  0
  183.6740  178.6260  143.7530 C   0  0  0  0  0  0  0  0  0  0  0  0
  183.4230  178.6970  145.1250 C   0  0  0  0  0  3  0  0  0  0  0  0
  186.0330  178.2210  144.1980 C   0  0  0  0  0  0  0  0  0  0  0  0
  184.4660  178.5240  146.0360 C   0  0  0  0  0  3  0  0  0  0  0  0
  184.9730  178.3840  143.2920 C   0  0  0  0  0  3  0  0  0  0  0  0
  185.7630  178.2830  145.5760 C   0  0  0  0  0  3  0  0  0  0  0  0
  182.6620  178.7880  142.8680 F   0  0  0  0  0  0  0  0  0  0  0  0
  190.4200  177.6700  138.3910 N   0  0  0  0  0  2  0  0  0  0  0  0
  190.3280  176.2520  138.0520 C   0  0  0  0  0  2  0  0  0  0  0  0
  190.8350  175.2800  135.9290 O   0  0  0  0  0  1  0  0  0  0  0  0
  191.4100  175.8870  137.0470 C   0  0  2  0  0  3  0  0  0  0  0  0
  192.4800  174.9800  137.6580 C   0  0  0  0  0  2  0  0  0  0  0  0
  194.7060  175.2490  138.4820 O   0  0  0  0  0  0  0  0  0  0  0  0
  193.8410  175.5980  137.6360 C   0  0  0  0  0  0  0  0  0  0  0  0
  194.1700  176.5630  136.6430 N   0  0  0  0  0  1  0  0  0  0  0  0
  1 13  2  0  0  0  0
  1  5  1  0  0  0  0
  2  6  2  0  0  0  0
  3 12  1  0  0  0  0
  4 15  2  0  0  0  0
  4 18  1  0  0  0  0
  6 11  1  0  0  0  0
  7 18  1  0  0  0  0
  8  3  1  1  0  0  0
  8  2  1  0  0  0  0
  8  1  1  0  0  0  0
  9  7  2  0  0  0  0
 10  4  1  0  0  0  0
 11  5  2  0  0  0  0
 12 19  2  0  0  0  0
 14  2  1  0  0  0  0
 15 16  1  0  0  0  0
 16 22  1  0  0  0  0
 16 12  1  0  0  0  0
 17 27  1  6  0  0  0
 17 10  1  0  0  0  0
 17  9  1  0  0  0  0
 18  3  2  0  0  0  0
 19 13  1  0  0  0  0
 20 21  1  0  0  0  0
 21 23  2  0  0  0  0
 22 25  2  0  0  0  0
 24 20  2  0  0  0  0
 24 22  1  0  0  0  0
 25 23  1  0  0  0  0
 26 20  1  0  0  0  0
 28 27  1  0  0  0  0
 30 29  1  6  0  0  0
 30 31  1  0  0  0  0
 30 28  1  0  0  0  0
 33 31  1  0  0  0  0
 33 32  2  0  0  0  0
 34 33  1  0  0  0  0
M  END
>  <MODEL>
2

>  <REMARK>
 VINA RESULT:      -8.4      2.044      2.948
  Name = 
  6 active torsions:
  status: ('A' for Active; 'I' for Inactive)
    1  A    between atoms: N_3  and  C_13
    2  A    between atoms: N_3  and  C_29
    3  A    between atoms: C_12  and  N_28
    4  A    between atoms: C_13  and  C_33
    5  A    between atoms: C_20  and  C_22
    6  A    between atoms: C_22  and  C_33
                            x       y       z     vdW  Elec       q    Type
                         _______ _______ _______ _____ _____    ______ ____

>  <TORSDO>
F 6

$$$$
=
 OpenBabel11052414243D

 34 38  0  0  1  0  0  0  0  0999 V2000
  186.3430  176.7910  136.2130 C   0  0  0  0  0  0  0  0  0  0  0  0
  188.3410  178.1580  136.6710 C   0  0  0  0  0  0  0  0  0  0  0  0
  186.4900  177.9530  138.4710 C   0  0  0  0  0  0  0  0  0  0  0  0
  186.2800  178.6800  140.8080 C   0  0  0  0  0  0  0  0  0  0  0  0
  186.9750  176.2840  135.0340 N   0  0  0  0  0  2  0  0  0  0  0  0
  188.8160  177.7950  135.4710 C   0  0  0  0  0  3  0  0  0  0  0  0
  188.4190  177.5970  139.9730 C   0  0  0  0  0  3  0  0  0  0  0  0
  187.2390  177.3290  137.3060 C   0  0  0  0  0  0  0  0  0  0  0  0
  188.8790  177.5190  141.2230 C   0  0  0  0  0  3  0  0  0  0  0  0
  186.9670  178.9360  142.1160 C   0  0  0  0  0  2  0  0  0  0  0  0
  188.1470  176.7310  134.6850 C   0  0  0  0  0  3  0  0  0  0  0  0
  185.0430  178.2450  138.3330 C   0  0  0  0  0  0  0  0  0  0  0  0
  185.0240  176.9880  136.2180 C   0  0  0  0  0  3  0  0  0  0  0  0
  189.1290  179.4900  137.5020 Cl  0  0  0  0  0  0  0  0  0  0  0  0
  185.0570  179.0830  140.6410 N   0  0  0  0  0  0  0  0  0  0  0  0
  184.3710  178.9250  139.4190 N   0  0  0  0  0  0  0  0  0  0  0  0
  187.9970  177.8360  142.4050 C   0  0  2  0  0  3  0  0  0  0  0  0
  187.0490  178.0790  139.6900 C   0  0  0  0  0  0  0  0  0  0  0  0
  184.3610  177.7350  137.2980 C   0  0  0  0  0  3  0  0  0  0  0  0
  180.6740  179.3400  139.8800 C   0  0  0  0  0  0  0  0  0  0  0  0
  180.4410  180.5340  139.1950 C   0  0  0  0  0  3  0  0  0  0  0  0
  183.0380  179.4670  139.3150 C   0  0  0  0  0  0  0  0  0  0  0  0
  181.4990  181.2030  138.5760 C   0  0  0  0  0  3  0  0  0  0  0  0
  181.9670  178.8120  139.9430 C   0  0  0  0  0  3  0  0  0  0  0  0
  182.7910  180.6740  138.6390 C   0  0  0  0  0  3  0  0  0  0  0  0
  179.6490  178.6950  140.4860 F   0  0  0  0  0  0  0  0  0  0  0  0
  188.7790  178.1120  143.6120 N   0  0  0  0  0  2  0  0  0  0  0  0
  188.4530  177.1530  144.6640 C   0  0  0  0  0  2  0  0  0  0  0  0
  188.1330  177.4260  147.0160 O   0  0  0  0  0  1  0  0  0  0  0  0
  187.6630  177.8390  145.7690 C   0  0  2  0  0  3  0  0  0  0  0  0
  186.1610  177.5790  145.6480 C   0  0  0  0  0  2  0  0  0  0  0  0
  185.8120  179.5140  147.0050 O   0  0  0  0  0  0  0  0  0  0  0  0
  185.3350  178.7180  146.1540 C   0  0  0  0  0  0  0  0  0  0  0  0
  184.0170  178.9180  145.6570 N   0  0  0  0  0  1  0  0  0  0  0  0
  1 13  2  0  0  0  0
  1  8  1  0  0  0  0
  2  8  2  0  0  0  0
  2 14  1  0  0  0  0
  3 18  2  0  0  0  0
  4 10  1  0  0  0  0
  5  1  1  0  0  0  0
  6  2  1  0  0  0  0
  7  9  2  0  0  0  0
  8  3  1  0  0  0  0
  9 17  1  0  0  0  0
 10 17  1  0  0  0  0
 11  5  1  0  0  0  0
 11  6  2  0  0  0  0
 12  3  1  0  0  0  0
 12 16  1  0  0  0  0
 13 19  1  0  0  0  0
 15  4  2  0  0  0  0
 16 15  1  0  0  0  0
 17 27  1  1  0  0  0
 18  7  1  0  0  0  0
 18  4  1  0  0  0  0
 19 12  2  0  0  0  0
 20 24  1  0  0  0  0
 20 26  1  0  0  0  0
 21 20  2  0  0  0  0
 22 16  1  0  0  0  0
 22 24  2  0  0  0  0
 23 25  2  0  0  0  0
 23 21  1  0  0  0  0
 25 22  1  0  0  0  0
 27 28  1  0  0  0  0
 28 30  1  0  0  0  0
 30 29  1  1  0  0  0
 31 30  1  0  0  0  0
 31 33  1  0  0  0  0
 33 32  2  0  0  0  0
 34 33  1  0  0  0  0
M  END
>  <MODEL>
3

>  <REMARK>
 VINA RESULT:      -8.3      3.944      7.857
  Name = 
  6 active torsions:
  status: ('A' for Active; 'I' for Inactive)
    1  A    between atoms: N_3  and  C_13
    2  A    between atoms: N_3  and  C_29
    3  A    between atoms: C_12  and  N_28
    4  A    between atoms: C_13  and  C_33
    5  A    between atoms: C_20  and  C_22
    6  A    between atoms: C_22  and  C_33
                            x       y       z     vdW  Elec       q    Type
                         _______ _______ _______ _____ _____    ______ ____

>  <TORSDO>
F 6

$$$$
=
 OpenBabel11052414243D

 34 38  0  0  1  0  0  0  0  0999 V2000
  190.7580  177.2490  146.2690 C   0  0  0  0  0  0  0  0  0  0  0  0
  191.3420  175.2990  144.8800 C   0  0  0  0  0  0  0  0  0  0  0  0
  189.7540  177.1140  143.9370 C   0  0  0  0  0  0  0  0  0  0  0  0
  188.7370  177.5310  141.7390 C   0  0  0  0  0  0  0  0  0  0  0  0
  191.7600  176.8600  147.2140 N   0  0  0  0  0  0  0  0  0  0  0  0
  192.1360  174.8780  145.8750 C   0  0  0  0  0  3  0  0  0  0  0  0
  191.1850  176.8880  141.9350 C   0  0  0  0  0  3  0  0  0  0  0  0
  190.9150  176.7560  144.8480 C   0  0  1  0  0  3  0  0  0  0  0  0
  191.3690  177.1540  140.6400 C   0  0  0  0  0  3  0  0  0  0  0  0
  188.8740  177.4430  140.2490 C   0  0  0  0  0  2  0  0  0  0  0  0
  192.4300  175.7590  147.0300 C   0  0  0  0  0  3  0  0  0  0  0  0
  188.4950  177.6270  144.5280 C   0  0  0  0  0  0  0  0  0  0  0  0
  189.6320  177.8170  146.7020 C   0  0  0  0  0  3  0  0  0  0  0  0
  190.9630  174.1670  143.5920 Cl  0  0  0  0  0  0  0  0  0  0  0  0
  187.5830  177.8280  142.2570 N   0  0  0  0  0  0  0  0  0  0  0  0
  187.3720  177.8730  143.6510 N   0  0  0  0  0  0  0  0  0  0  0  0
  190.2970  177.8240  139.8170 C   0  0  2  0  0  3  0  0  0  0  0  0
  189.8910  177.1610  142.5970 C   0  0  0  0  0  0  0  0  0  0  0  0
  188.4740  178.0050  145.8140 C   0  0  0  0  0  3  0  0  0  0  0  0
  184.4700  178.3490  145.9770 C   0  0  0  0  0  0  0  0  0  0  0  0
  183.4660  178.7450  145.0910 C   0  0  0  0  0  3  0  0  0  0  0  0
  186.0370  178.1470  144.1250 C   0  0  0  0  0  0  0  0  0  0  0  0
  183.7400  178.8510  143.7260 C   0  0  0  0  0  3  0  0  0  0  0  0
  185.7500  178.0560  145.4960 C   0  0  0  0  0  3  0  0  0  0  0  0
  185.0200  178.5590  143.2460 C   0  0  0  0  0  3  0  0  0  0  0  0
  184.2060  178.2510  147.3010 F   0  0  0  0  0  0  0  0  0  0  0  0
  190.5100  177.6320  138.3810 N   0  0  0  0  0  2  0  0  0  0  0  0
  189.7510  176.4800  137.9010 C   0  0  0  0  0  2  0  0  0  0  0  0
  190.8860  176.3800  135.8010 O   0  0  0  0  0  1  0  0  0  0  0  0
  189.6280  176.5320  136.3850 C   0  0  2  0  0  3  0  0  0  0  0  0
  188.9670  177.8260  135.9070 C   0  0  0  0  0  2  0  0  0  0  0  0
  186.6820  177.1330  135.9890 O   0  0  0  0  0  0  0  0  0  0  0  0
  187.5520  177.9580  136.3720 C   0  0  0  0  0  0  0  0  0  0  0  0
  187.1920  179.0030  137.2690 N   0  0  0  0  0  1  0  0  0  0  0  0
  1 13  2  0  0  0  0
  1  5  1  0  0  0  0
  2  6  2  0  0  0  0
  3 12  1  0  0  0  0
  4 15  2  0  0  0  0
  4 18  1  0  0  0  0
  6 11  1  0  0  0  0
  7 18  1  0  0  0  0
  8  3  1  6  0  0  0
  8  2  1  0  0  0  0
  8  1  1  0  0  0  0
  9  7  2  0  0  0  0
 10  4  1  0  0  0  0
 11  5  2  0  0  0  0
 12 19  2  0  0  0  0
 14  2  1  0  0  0  0
 15 16  1  0  0  0  0
 16 22  1  0  0  0  0
 16 12  1  0  0  0  0
 17 27  1  6  0  0  0
 17 10  1  0  0  0  0
 17  9  1  0  0  0  0
 18  3  2  0  0  0  0
 19 13  1  0  0  0  0
 20 26  1  0  0  0  0
 21 20  2  0  0  0  0
 22 24  2  0  0  0  0
 23 21  1  0  0  0  0
 24 20  1  0  0  0  0
 25 23  2  0  0  0  0
 25 22  1  0  0  0  0
 28 27  1  0  0  0  0
 30 29  1  6  0  0  0
 30 28  1  0  0  0  0
 31 33  1  0  0  0  0
 31 30  1  0  0  0  0
 32 33  2  0  0  0  0
 33 34  1  0  0  0  0
M  END
>  <MODEL>
4

>  <REMARK>
 VINA RESULT:      -8.2      1.224      1.532
  Name = 
  6 active torsions:
  status: ('A' for Active; 'I' for Inactive)
    1  A    between atoms: N_3  and  C_13
    2  A    between atoms: N_3  and  C_29
    3  A    between atoms: C_12  and  N_28
    4  A    between atoms: C_13  and  C_33
    5  A    between atoms: C_20  and  C_22
    6  A    between atoms: C_22  and  C_33
                            x       y       z     vdW  Elec       q    Type
                         _______ _______ _______ _____ _____    ______ ____

>  <TORSDO>
F 6

$$$$
=
 OpenBabel11052414243D

 34 38  0  0  1  0  0  0  0  0999 V2000
  185.0590  179.2250  144.7150 C   0  0  0  0  0  0  0  0  0  0  0  0
  186.7610  177.4480  144.5930 C   0  0  0  0  0  0  0  0  0  0  0  0
  185.7820  178.4350  142.4080 C   0  0  0  0  0  0  0  0  0  0  0  0
  186.2990  178.1690  140.0210 C   0  0  0  0  0  0  0  0  0  0  0  0
  185.3050  179.3470  146.1190 N   0  0  0  0  0  0  0  0  0  0  0  0
  186.8260  177.4730  145.9320 C   0  0  0  0  0  3  0  0  0  0  0  0
  188.1550  178.4740  141.7250 C   0  0  0  0  0  3  0  0  0  0  0  0
  186.1630  178.6380  143.8640 C   0  0  1  0  0  3  0  0  0  0  0  0
  189.0480  178.6160  140.7420 C   0  0  0  0  0  3  0  0  0  0  0  0
  187.3490  177.9410  138.9760 C   0  0  0  0  0  2  0  0  0  0  0  0
  186.1490  178.5440  146.7010 C   0  0  0  0  0  3  0  0  0  0  0  0
  184.3580  178.5370  142.0070 C   0  0  0  0  0  0  0  0  0  0  0  0
  183.8230  179.4040  144.2470 C   0  0  0  0  0  3  0  0  0  0  0  0
  187.5090  176.0970  143.7560 Cl  0  0  0  0  0  0  0  0  0  0  0  0
  185.0450  178.0990  139.6910 N   0  0  0  0  0  0  0  0  0  0  0  0
  184.0070  178.2480  140.6340 N   0  0  0  0  0  0  0  0  0  0  0  0
  188.6150  178.7440  139.3030 C   0  0  2  0  0  3  0  0  0  0  0  0
  186.7100  178.3520  141.4360 C   0  0  0  0  0  0  0  0  0  0  0  0
  183.4640  179.0480  142.8650 C   0  0  0  0  0  3  0  0  0  0  0  0
  180.7360  176.6400  139.7570 C   0  0  0  0  0  0  0  0  0  0  0  0
  179.9790  177.7460  139.3640 C   0  0  0  0  0  3  0  0  0  0  0  0
  182.6480  178.0870  140.1770 C   0  0  0  0  0  0  0  0  0  0  0  0
  180.5450  179.0220  139.3820 C   0  0  0  0  0  3  0  0  0  0  0  0
  182.0620  176.8110  140.1660 C   0  0  0  0  0  3  0  0  0  0  0  0
  181.8700  179.1920  139.7910 C   0  0  0  0  0  3  0  0  0  0  0  0
  180.1860  175.4030  139.7460 F   0  0  0  0  0  0  0  0  0  0  0  0
  189.7100  178.4540  138.3750 N   0  0  0  0  0  2  0  0  0  0  0  0
  189.5320  177.1370  137.7690 C   0  0  0  0  0  2  0  0  0  0  0  0
  190.5060  174.9660  137.9830 O   0  0  0  0  0  1  0  0  0  0  0  0
  190.8120  176.3250  137.9030 C   0  0  2  0  0  3  0  0  0  0  0  0
  191.6450  176.7600  139.1090 C   0  0  0  0  0  2  0  0  0  0  0  0
  193.9270  177.1130  139.7210 O   0  0  0  0  0  0  0  0  0  0  0  0
  193.1110  176.7960  138.8170 C   0  0  0  0  0  0  0  0  0  0  0  0
  193.5880  176.4480  137.5220 N   0  0  0  0  0  1  0  0  0  0  0  0
  1  5  1  0  0  0  0
  2  6  2  0  0  0  0
  4 18  1  0  0  0  0
  5 11  2  0  0  0  0
  6 11  1  0  0  0  0
  8  3  1  6  0  0  0
  8  2  1  0  0  0  0
  8  1  1  0  0  0  0
  9  7  2  0  0  0  0
 10 17  1  0  0  0  0
 10  4  1  0  0  0  0
 12  3  1  0  0  0  0
 12 19  2  0  0  0  0
 13  1  2  0  0  0  0
 14  2  1  0  0  0  0
 15  4  2  0  0  0  0
 15 16  1  0  0  0  0
 16 12  1  0  0  0  0
 17 27  1  6  0  0  0
 17  9  1  0  0  0  0
 18  7  1  0  0  0  0
 18  3  2  0  0  0  0
 19 13  1  0  0  0  0
 20 24  1  0  0  0  0
 21 23  1  0  0  0  0
 21 20  2  0  0  0  0
 22 16  1  0  0  0  0
 23 25  2  0  0  0  0
 24 22  2  0  0  0  0
 25 22  1  0  0  0  0
 26 20  1  0  0  0  0
 28 30  1  0  0  0  0
 28 27  1  0  0  0  0
 30 29  1  1  0  0  0
 30 31  1  0  0  0  0
 33 31  1  0  0  0  0
 33 32  2  0  0  0  0
 34 33  1  0  0  0  0
M  END
>  <MODEL>
5

>  <REMARK>
 VINA RESULT:      -8.2      3.291      5.284
  Name = 
  6 active torsions:
  status: ('A' for Active; 'I' for Inactive)
    1  A    between atoms: N_3  and  C_13
    2  A    between atoms: N_3  and  C_29
    3  A    between atoms: C_12  and  N_28
    4  A    between atoms: C_13  and  C_33
    5  A    between atoms: C_20  and  C_22
    6  A    between atoms: C_22  and  C_33
                            x       y       z     vdW  Elec       q    Type
                         _______ _______ _______ _____ _____    ______ ____

>  <TORSDO>
F 6

$$$$
=
 OpenBabel11052414243D

 34 38  0  0  1  0  0  0  0  0999 V2000
  190.7650  177.3080  146.2830 C   0  0  0  0  0  0  0  0  0  0  0  0
  191.3440  175.3590  144.8920 C   0  0  0  0  0  0  0  0  0  0  0  0
  189.7580  177.1770  143.9520 C   0  0  0  0  0  0  0  0  0  0  0  0
  188.7390  177.5980  141.7560 C   0  0  0  0  0  0  0  0  0  0  0  0
  191.7670  176.9170  147.2270 N   0  0  0  0  0  0  0  0  0  0  0  0
  192.1380  174.9350  145.8850 C   0  0  0  0  0  3  0  0  0  0  0  0
  191.1860  176.9510  141.9490 C   0  0  0  0  0  3  0  0  0  0  0  0
  190.9190  176.8160  144.8620 C   0  0  1  0  0  3  0  0  0  0  0  0
  191.3690  177.2170  140.6540 C   0  0  0  0  0  3  0  0  0  0  0  0
  188.8740  177.5110  140.2660 C   0  0  0  0  0  2  0  0  0  0  0  0
  192.4350  175.8150  147.0410 C   0  0  0  0  0  3  0  0  0  0  0  0
  188.5000  177.6910  144.5450 C   0  0  0  0  0  0  0  0  0  0  0  0
  189.6400  177.8770  146.7180 C   0  0  0  0  0  3  0  0  0  0  0  0
  190.9620  174.2290  143.6030 Cl  0  0  0  0  0  0  0  0  0  0  0  0
  187.5870  177.8960  142.2760 N   0  0  0  0  0  0  0  0  0  0  0  0
  187.3760  177.9400  143.6690 N   0  0  0  0  0  0  0  0  0  0  0  0
  190.2970  177.8900  139.8320 C   0  0  2  0  0  3  0  0  0  0  0  0
  189.8930  177.2260  142.6120 C   0  0  0  0  0  0  0  0  0  0  0  0
  188.4820  178.0680  145.8310 C   0  0  0  0  0  3  0  0  0  0  0  0
  183.6880  178.6100  143.6700 C   0  0  0  0  0  0  0  0  0  0  0  0
  183.4180  178.6800  145.0390 C   0  0  0  0  0  3  0  0  0  0  0  0
  186.0420  178.2160  144.1450 C   0  0  0  0  0  0  0  0  0  0  0  0
  184.4500  178.5110  145.9640 C   0  0  0  0  0  3  0  0  0  0  0  0
  184.9930  178.3740  143.2260 C   0  0  0  0  0  3  0  0  0  0  0  0
  185.7540  178.2760  145.5190 C   0  0  0  0  0  3  0  0  0  0  0  0
  182.6860  178.7670  142.7730 F   0  0  0  0  0  0  0  0  0  0  0  0
  190.5080  177.6990  138.3960 N   0  0  0  0  0  2  0  0  0  0  0  0
  189.3330  178.1330  137.6440 C   0  0  0  0  0  2  0  0  0  0  0  0
  188.0490  177.6810  135.6810 O   0  0  0  0  0  1  0  0  0  0  0  0
  189.0850  177.1900  136.4760 C   0  0  2  0  0  3  0  0  0  0  0  0
  188.7750  175.7670  136.9420 C   0  0  0  0  0  2  0  0  0  0  0  0
  190.3510  174.8900  135.3760 O   0  0  0  0  0  0  0  0  0  0  0  0
  189.8090  174.7780  136.5070 C   0  0  0  0  0  0  0  0  0  0  0  0
  190.2010  173.7250  137.3790 N   0  0  0  0  0  1  0  0  0  0  0  0
  1 13  2  0  0  0  0
  1  5  1  0  0  0  0
  2  6  2  0  0  0  0
  3 12  1  0  0  0  0
  4 15  2  0  0  0  0
  4 18  1  0  0  0  0
  6 11  1  0  0  0  0
  7 18  1  0  0  0  0
  8  3  1  6  0  0  0
  8  2  1  0  0  0  0
  8  1  1  0  0  0  0
  9  7  2  0  0  0  0
 10  4  1  0  0  0  0
 11  5  2  0  0  0  0
 12 19  2  0  0  0  0
 14  2  1  0  0  0  0
 15 16  1  0  0  0  0
 16 22  1  0  0  0  0
 16 12  1  0  0  0  0
 17 27  1  6  0  0  0
 17 10  1  0  0  0  0
 17  9  1  0  0  0  0
 18  3  2  0  0  0  0
 19 13  1  0  0  0  0
 20 21  1  0  0  0  0
 21 23  2  0  0  0  0
 22 25  2  0  0  0  0
 24 20  2  0  0  0  0
 24 22  1  0  0  0  0
 25 23  1  0  0  0  0
 26 20  1  0  0  0  0
 28 27  1  0  0  0  0
 30 29  1  1  0  0  0
 30 31  1  0  0  0  0
 30 28  1  0  0  0  0
 32 33  2  0  0  0  0
 33 31  1  0  0  0  0
 33 34  1  0  0  0  0
M  END
>  <MODEL>
6

>  <REMARK>
 VINA RESULT:      -8.2      1.376      1.806
  Name = 
  6 active torsions:
  status: ('A' for Active; 'I' for Inactive)
    1  A    between atoms: N_3  and  C_13
    2  A    between atoms: N_3  and  C_29
    3  A    between atoms: C_12  and  N_28
    4  A    between atoms: C_13  and  C_33
    5  A    between atoms: C_20  and  C_22
    6  A    between atoms: C_22  and  C_33
                            x       y       z     vdW  Elec       q    Type
                         _______ _______ _______ _____ _____    ______ ____

>  <TORSDO>
F 6

$$$$
=
 OpenBabel11052414243D

 34 38  0  0  1  0  0  0  0  0999 V2000
  193.1580  176.6150  138.1440 C   0  0  0  0  0  0  0  0  0  0  0  0
  191.5050  175.0800  137.1540 C   0  0  0  0  0  0  0  0  0  0  0  0
  190.7280  176.8820  138.8440 C   0  0  0  0  0  0  0  0  0  0  0  0
  188.5370  177.6540  139.6450 C   0  0  0  0  0  0  0  0  0  0  0  0
  194.1380  176.1380  137.2170 N   0  0  0  0  0  2  0  0  0  0  0  0
  192.4970  174.5390  136.4330 C   0  0  0  0  0  3  0  0  0  0  0  0
  188.9440  177.2400  137.1730 C   0  0  0  0  0  3  0  0  0  0  0  0
  191.7040  176.4570  137.7610 C   0  0  0  0  0  0  0  0  0  0  0  0
  187.7670  177.7950  136.8760 C   0  0  0  0  0  3  0  0  0  0  0  0
  187.0940  177.9020  139.3250 C   0  0  0  0  0  2  0  0  0  0  0  0
  193.8350  175.1770  136.3920 C   0  0  0  0  0  3  0  0  0  0  0  0
  191.2270  177.1230  140.2200 C   0  0  0  0  0  0  0  0  0  0  0  0
  193.5330  176.9570  139.3770 C   0  0  0  0  0  3  0  0  0  0  0  0
  189.9760  174.2190  137.2290 Cl  0  0  0  0  0  0  0  0  0  0  0  0
  188.9360  177.7120  140.8790 N   0  0  0  0  0  0  0  0  0  0  0  0
  190.2670  177.4350  141.2550 N   0  0  0  0  0  0  0  0  0  0  0  0
  186.9510  178.5120  137.9230 C   0  0  2  0  0  3  0  0  0  0  0  0
  189.4580  177.2300  138.5600 C   0  0  0  0  0  0  0  0  0  0  0  0
  192.5460  177.2110  140.4380 C   0  0  0  0  0  3  0  0  0  0  0  0
  191.5130  176.3480  144.6200 C   0  0  0  0  0  0  0  0  0  0  0  0
  191.3080  177.5030  145.3790 C   0  0  0  0  0  3  0  0  0  0  0  0
  190.5930  177.4610  142.6610 C   0  0  0  0  0  0  0  0  0  0  0  0
  190.7550  178.6390  144.7850 C   0  0  0  0  0  3  0  0  0  0  0  0
  191.1620  176.3300  143.2670 C   0  0  0  0  0  3  0  0  0  0  0  0
  190.4040  178.6200  143.4330 C   0  0  0  0  0  3  0  0  0  0  0  0
  192.0550  175.2480  145.1930 F   0  0  0  0  0  0  0  0  0  0  0  0
  185.5510  178.6560  137.5220 N   0  0  0  0  0  2  0  0  0  0  0  0
  184.6820  177.8900  138.4120 C   0  0  0  0  0  2  0  0  0  0  0  0
  184.2110  180.1310  139.0930 O   0  0  0  0  0  1  0  0  0  0  0  0
  183.7230  178.8240  139.1340 C   0  0  2  0  0  3  0  0  0  0  0  0
  183.4750  178.3890  140.5790 C   0  0  0  0  0  2  0  0  0  0  0  0
  181.7110  179.0020  142.0680 O   0  0  0  0  0  0  0  0  0  0  0  0
  182.0350  178.4780  140.9700 C   0  0  0  0  0  0  0  0  0  0  0  0
  181.0260  177.9940  140.0920 N   0  0  0  0  0  1  0  0  0  0  0  0
  1 13  2  0  0  0  0
  2 14  1  0  0  0  0
  2  8  2  0  0  0  0
  3 12  1  0  0  0  0
  4 15  2  0  0  0  0
  5  1  1  0  0  0  0
  6  2  1  0  0  0  0
  7 18  1  0  0  0  0
  8  1  1  0  0  0  0
  8  3  1  0  0  0  0
  9  7  2  0  0  0  0
  9 17  1  0  0  0  0
 10  4  1  0  0  0  0
 11  6  2  0  0  0  0
 11  5  1  0  0  0  0
 12 19  2  0  0  0  0
 12 16  1  0  0  0  0
 13 19  1  0  0  0  0
 15 16  1  0  0  0  0
 16 22  1  0  0  0  0
 17 27  1  6  0  0  0
 17 10  1  0  0  0  0
 18  3  2  0  0  0  0
 18  4  1  0  0  0  0
 20 26  1  0  0  0  0
 20 21  1  0  0  0  0
 22 24  1  0  0  0  0
 22 25  2  0  0  0  0
 23 21  2  0  0  0  0
 24 20  2  0  0  0  0
 25 23  1  0  0  0  0
 27 28  1  0  0  0  0
 28 30  1  0  0  0  0
 30 29  1  1  0  0  0
 30 31  1  0  0  0  0
 31 33  1  0  0  0  0
 33 32  2  0  0  0  0
 34 33  1  0  0  0  0
M  END
>  <MODEL>
7

>  <REMARK>
 VINA RESULT:      -8.0      3.493      6.496
  Name = 
  6 active torsions:
  status: ('A' for Active; 'I' for Inactive)
    1  A    between atoms: N_3  and  C_13
    2  A    between atoms: N_3  and  C_29
    3  A    between atoms: C_12  and  N_28
    4  A    between atoms: C_13  and  C_33
    5  A    between atoms: C_20  and  C_22
    6  A    between atoms: C_22  and  C_33
                            x       y       z     vdW  Elec       q    Type
                         _______ _______ _______ _____ _____    ______ ____

>  <TORSDO>
F 6

$$$$
=
 OpenBabel11052414243D

 34 38  0  0  1  0  0  0  0  0999 V2000
  186.5420  176.7290  136.2460 C   0  0  0  0  0  0  0  0  0  0  0  0
  188.5250  178.1270  136.6780 C   0  0  0  0  0  0  0  0  0  0  0  0
  186.7180  177.8650  138.5150 C   0  0  0  0  0  0  0  0  0  0  0  0
  186.5460  178.5590  140.8650 C   0  0  0  0  0  0  0  0  0  0  0  0
  187.1570  176.2490  135.0470 N   0  0  0  0  0  2  0  0  0  0  0  0
  188.9790  177.7890  135.4630 C   0  0  0  0  0  3  0  0  0  0  0  0
  188.6850  177.5260  139.9700 C   0  0  0  0  0  3  0  0  0  0  0  0
  187.4520  177.2700  137.3260 C   0  0  0  0  0  0  0  0  0  0  0  0
  189.1750  177.4410  141.2080 C   0  0  0  0  0  3  0  0  0  0  0  0
  187.2580  178.8110  142.1610 C   0  0  0  0  0  2  0  0  0  0  0  0
  188.3130  176.7220  134.6780 C   0  0  0  0  0  3  0  0  0  0  0  0
  185.2630  178.1320  138.4130 C   0  0  0  0  0  0  0  0  0  0  0  0
  185.2200  176.9010  136.2820 C   0  0  0  0  0  3  0  0  0  0  0  0
  189.3060  179.4630  137.5080 Cl  0  0  0  0  0  0  0  0  0  0  0  0
  185.3130  178.9410  140.7300 N   0  0  0  0  0  0  0  0  0  0  0  0
  184.6030  178.7850  139.5210 N   0  0  0  0  0  0  0  0  0  0  0  0
  188.3140  177.7260  142.4130 C   0  0  2  0  0  3  0  0  0  0  0  0
  187.3020  177.9860  139.7230 C   0  0  0  0  0  0  0  0  0  0  0  0
  184.5680  177.6220  137.3870 C   0  0  0  0  0  3  0  0  0  0  0  0
  181.6980  180.9820  138.6350 C   0  0  0  0  0  0  0  0  0  0  0  0
  180.6390  180.3010  139.2400 C   0  0  0  0  0  3  0  0  0  0  0  0
  183.2580  179.3030  139.4540 C   0  0  0  0  0  0  0  0  0  0  0  0
  180.8800  179.1200  139.9440 C   0  0  0  0  0  3  0  0  0  0  0  0
  183.0000  180.4820  138.7380 C   0  0  0  0  0  3  0  0  0  0  0  0
  182.1810  178.6210  140.0470 C   0  0  0  0  0  3  0  0  0  0  0  0
  181.4640  182.1240  137.9460 F   0  0  0  0  0  0  0  0  0  0  0  0
  189.1170  178.0030  143.6070 N   0  0  0  0  0  2  0  0  0  0  0  0
  188.3670  177.6720  144.8150 C   0  0  0  0  0  2  0  0  0  0  0  0
  189.0230  178.0480  147.0810 O   0  0  0  0  0  1  0  0  0  0  0  0
  189.3260  177.3060  145.9390 C   0  0  2  0  0  3  0  0  0  0  0  0
  190.7870  177.5110  145.5370 C   0  0  0  0  0  2  0  0  0  0  0  0
  192.0950  175.5330  145.2490 O   0  0  0  0  0  0  0  0  0  0  0  0
  191.6810  176.4220  146.0380 C   0  0  0  0  0  0  0  0  0  0  0  0
  192.0870  176.4040  147.4020 N   0  0  0  0  0  1  0  0  0  0  0  0
  1 13  2  0  0  0  0
  1  8  1  0  0  0  0
  2  8  2  0  0  0  0
  2 14  1  0  0  0  0
  3 18  2  0  0  0  0
  4 10  1  0  0  0  0
  5  1  1  0  0  0  0
  6  2  1  0  0  0  0
  7  9  2  0  0  0  0
  8  3  1  0  0  0  0
  9 17  1  0  0  0  0
 10 17  1  0  0  0  0
 11  5  1  0  0  0  0
 11  6  2  0  0  0  0
 12  3  1  0  0  0  0
 12 16  1  0  0  0  0
 13 19  1  0  0  0  0
 15  4  2  0  0  0  0
 16 15  1  0  0  0  0
 17 27  1  1  0  0  0
 18  7  1  0  0  0  0
 18  4  1  0  0  0  0
 19 12  2  0  0  0  0
 20 24  2  0  0  0  0
 20 21  1  0  0  0  0
 21 23  2  0  0  0  0
 22 16  1  0  0  0  0
 22 25  2  0  0  0  0
 23 25  1  0  0  0  0
 24 22  1  0  0  0  0
 26 20  1  0  0  0  0
 27 28  1  0  0  0  0
 28 30  1  0  0  0  0
 30 29  1  1  0  0  0
 31 30  1  0  0  0  0
 31 33  1  0  0  0  0
 32 33  2  0  0  0  0
 33 34  1  0  0  0  0
M  END
>  <MODEL>
8

>  <REMARK>
 VINA RESULT:      -7.9      3.849      7.976
  Name = 
  6 active torsions:
  status: ('A' for Active; 'I' for Inactive)
    1  A    between atoms: N_3  and  C_13
    2  A    between atoms: N_3  and  C_29
    3  A    between atoms: C_12  and  N_28
    4  A    between atoms: C_13  and  C_33
    5  A    between atoms: C_20  and  C_22
    6  A    between atoms: C_22  and  C_33
                            x       y       z     vdW  Elec       q    Type
                         _______ _______ _______ _____ _____    ______ ____

>  <TORSDO>
F 6

$$$$
=
 OpenBabel11052414243D

 34 38  0  0  1  0  0  0  0  0999 V2000
  188.3130  178.4740  138.4690 C   0  0  0  0  0  0  0  0  0  0  0  0
  186.6410  177.0110  137.4030 C   0  0  0  0  0  0  0  0  0  0  0  0
  186.0370  178.2710  139.5840 C   0  0  0  0  0  0  0  0  0  0  0  0
  183.9720  178.5630  140.8820 C   0  0  0  0  0  0  0  0  0  0  0  0
  189.1450  178.3450  137.3110 N   0  0  0  0  0  2  0  0  0  0  0  0
  187.5280  176.7750  136.4250 C   0  0  0  0  0  3  0  0  0  0  0  0
  183.9560  178.7750  138.3520 C   0  0  0  0  0  3  0  0  0  0  0  0
  186.8320  178.2280  138.2900 C   0  0  0  0  0  0  0  0  0  0  0  0
  182.7030  179.2330  138.3880 C   0  0  0  0  0  3  0  0  0  0  0  0
  182.4790  178.6970  140.8630 C   0  0  0  0  0  2  0  0  0  0  0  0
  188.7780  177.5670  136.3340 C   0  0  0  0  0  3  0  0  0  0  0  0
  186.7560  178.2530  140.8810 C   0  0  0  0  0  0  0  0  0  0  0  0
  188.8760  178.5700  139.6740 C   0  0  0  0  0  3  0  0  0  0  0  0
  185.2290  175.9720  137.5040 Cl  0  0  0  0  0  0  0  0  0  0  0  0
  184.5820  178.3880  142.0150 N   0  0  0  0  0  0  0  0  0  0  0  0
  185.9780  178.2000  142.0990 N   0  0  0  0  0  0  0  0  0  0  0  0
  182.0340  179.5860  139.6930 C   0  0  2  0  0  3  0  0  0  0  0  0
  184.7120  178.5140  139.5960 C   0  0  0  0  0  0  0  0  0  0  0  0
  188.0810  178.4520  140.9050 C   0  0  0  0  0  3  0  0  0  0  0  0
  188.4340  177.2090  144.7510 C   0  0  0  0  0  0  0  0  0  0  0  0
  187.7230  177.5100  145.9150 C   0  0  0  0  0  3  0  0  0  0  0  0
  186.5500  177.9460  143.3990 C   0  0  0  0  0  0  0  0  0  0  0  0
  186.4330  178.0360  145.8290 C   0  0  0  0  0  3  0  0  0  0  0  0
  187.8510  177.4310  143.5000 C   0  0  0  0  0  3  0  0  0  0  0  0
  185.8510  178.2570  144.5780 C   0  0  0  0  0  3  0  0  0  0  0  0
  189.6880  176.7050  144.8340 F   0  0  0  0  0  0  0  0  0  0  0  0
  180.5770  179.6430  139.5640 N   0  0  0  0  0  2  0  0  0  0  0  0
  180.1030  181.0160  139.7160 C   0  0  0  0  0  2  0  0  0  0  0  0
  179.4480  180.6150  137.4540 O   0  0  0  0  0  1  0  0  0  0  0  0
  179.8100  181.6210  138.3510 C   0  0  2  0  0  3  0  0  0  0  0  0
  180.9960  182.4210  137.8110 C   0  0  0  0  0  2  0  0  0  0  0  0
  179.5740  184.3330  137.9760 O   0  0  0  0  0  0  0  0  0  0  0  0
  180.6530  183.8510  137.5410 C   0  0  0  0  0  0  0  0  0  0  0  0
  181.5560  184.6750  136.8140 N   0  0  0  0  0  1  0  0  0  0  0  0
  1 13  2  0  0  0  0
  2 14  1  0  0  0  0
  2  8  2  0  0  0  0
  3 18  2  0  0  0  0
  3 12  1  0  0  0  0
  4 15  2  0  0  0  0
  5  1  1  0  0  0  0
  6  2  1  0  0  0  0
  7  9  2  0  0  0  0
  7 18  1  0  0  0  0
  8  1  1  0  0  0  0
  8  3  1  0  0  0  0
  9 17  1  0  0  0  0
 10  4  1  0  0  0  0
 11  6  2  0  0  0  0
 11  5  1  0  0  0  0
 12 19  2  0  0  0  0
 12 16  1  0  0  0  0
 13 19  1  0  0  0  0
 15 16  1  0  0  0  0
 16 22  1  0  0  0  0
 17 27  1  6  0  0  0
 17 10  1  0  0  0  0
 18  4  1  0  0  0  0
 20 26  1  0  0  0  0
 20 21  1  0  0  0  0
 22 24  1  0  0  0  0
 22 25  2  0  0  0  0
 23 21  2  0  0  0  0
 24 20  2  0  0  0  0
 25 23  1  0  0  0  0
 27 28  1  0  0  0  0
 30 29  1  6  0  0  0
 30 28  1  0  0  0  0
 31 30  1  0  0  0  0
 33 31  1  0  0  0  0
 33 32  2  0  0  0  0
 34 33  1  0  0  0  0
M  END
>  <MODEL>
9

>  <REMARK>
 VINA RESULT:      -7.8      4.535      7.465
  Name = 
  6 active torsions:
  status: ('A' for Active; 'I' for Inactive)
    1  A    between atoms: N_3  and  C_13
    2  A    between atoms: N_3  and  C_29
    3  A    between atoms: C_12  and  N_28
    4  A    between atoms: C_13  and  C_33
    5  A    between atoms: C_20  and  C_22
    6  A    between atoms: C_22  and  C_33
                            x       y       z     vdW  Elec       q    Type
                         _______ _______ _______ _____ _____    ______ ____

>  <TORSDO>
F 6

$$$$
