=
 OpenBabel11052416223D

 43 47  0  0  1  0  0  0  0  0999 V2000
  191.4910  176.4070  147.0480 C   0  0  0  0  0  0  0  0  0  0  0  0
  187.5080  177.7510  144.1240 C   0  0  0  0  0  0  0  0  0  0  0  0
  188.4020  178.0590  141.4890 N   0  0  0  0  0  0  0  0  0  0  0  0
  189.3540  177.2520  146.2690 C   0  0  0  0  0  0  0  0  0  0  0  0
  191.9230  176.2840  145.6360 C   0  0  0  0  0  3  0  0  0  0  0  0
  192.3500  176.0170  148.0640 O   0  0  0  0  0  1  0  0  0  0  0  0
  189.9620  177.6240  144.9340 C   0  0  1  0  0  3  0  0  0  0  0  0
  190.2600  176.8380  147.3490 C   0  0  0  0  0  3  0  0  0  0  0  0
  191.1910  176.7980  144.6390 C   0  0  0  0  0  3  0  0  0  0  0  0
  189.3600  177.8620  142.5460 C   0  0  0  0  0  3  0  0  0  0  0  0
  188.9590  177.6860  143.8090 C   0  0  0  0  0  0  0  0  0  0  0  0
  187.0920  177.5930  145.3860 C   0  0  0  0  0  3  0  0  0  0  0  0
  186.5430  177.9820  143.0230 C   0  0  0  0  0  0  0  0  0  0  0  0
  186.9970  178.1140  141.7740 C   0  0  0  0  0  3  0  0  0  0  0  0
  188.0360  177.2960  146.4800 C   0  0  0  0  0  3  0  0  0  0  0  0
  188.8260  178.1510  140.0980 C   0  0  1  0  0  3  0  0  0  0  0  0
  189.7660  177.0130  139.7240 C   0  0  0  0  0  2  0  0  0  0  0  0
  187.3990  178.1410  138.9800 S   0  0  0  0  0  0  0  0  0  0  0  0
  189.4480  176.5470  138.3140 C   0  0  1  0  0  3  0  0  0  0  0  0
  188.4960  177.5410  137.6760 C   0  0  0  0  0  2  0  0  0  0  0  0
  190.7350  176.4360  137.5100 C   0  0  0  0  0  2  0  0  0  0  0  0
  190.7330  175.2020  136.5980 C   0  0  1  0  0  3  0  0  0  0  0  0
  192.2890  173.2900  136.1580 C   0  0  0  0  0  1  0  0  0  0  0  0
  192.1500  174.8070  136.1250 C   0  0  0  0  0  0  0  0  0  0  0  0
  192.3270  175.2500  134.6760 C   0  0  0  0  0  1  0  0  0  0  0  0
  193.2200  175.4590  137.0190 C   0  0  0  0  0  2  0  0  0  0  0  0
  194.5510  174.7140  137.0380 C   0  0  0  0  0  3  0  0  0  0  0  0
  196.5040  174.0950  138.4480 C   0  0  0  0  0  2  0  0  0  0  0  0
  196.9410  174.7820  136.3420 C   0  0  0  0  0  2  0  0  0  0  0  0
  197.3340  174.9370  137.6830 O   0  0  0  0  0  0  0  0  0  0  0  0
  195.5630  175.4100  136.1280 C   0  0  0  0  0  2  0  0  0  0  0  0
  195.0810  174.6520  138.4700 C   0  0  0  0  0  2  0  0  0  0  0  0
  189.9620  174.0670  137.2230 C   0  0  0  0  0  3  0  0  0  0  0  0
  188.9970  173.5720  136.6620 O   0  0  0  0  0  0  0  0  0  0  0  0
  185.0670  177.9870  143.2610 C   0  0  0  0  0  2  0  0  0  0  0  0
  184.3760  180.0280  143.9210 O   0  0  0  0  0  1  0  0  0  0  0  0
  184.4960  179.2500  142.8210 N   0  0  0  0  0  0  0  0  0  0  0  0
  183.1470  178.9780  142.3480 C   0  0  0  0  0  2  0  0  0  0  0  0
  182.1640  179.0050  143.5140 C   0  0  0  0  0  2  0  0  0  0  0  0
  180.5360  178.3270  141.8910 O   0  0  0  0  0  1  0  0  0  0  0  0
  180.7080  179.0710  143.0590 C   0  0  0  0  0  0  0  0  0  0  0  0
  180.3290  180.3930  142.8310 O   0  0  0  0  0  1  0  0  0  0  0  0
  179.8300  178.4900  144.1470 C   0  0  0  0  0  1  0  0  0  0  0  0
  1  8  2  0  0  0  0
  1  6  1  0  0  0  0
  2 12  2  0  0  0  0
  3 14  1  0  0  0  0
  3 10  1  0  0  0  0
  4 15  2  0  0  0  0
  4  8  1  0  0  0  0
  5  1  1  0  0  0  0
  7  9  1  6  0  0  0
  7  4  1  0  0  0  0
  9  5  2  0  0  0  0
 10 11  2  0  0  0  0
 11  2  1  0  0  0  0
 11  7  1  0  0  0  0
 12 15  1  0  0  0  0
 13 35  1  0  0  0  0
 13  2  1  0  0  0  0
 14 13  2  0  0  0  0
 16 17  1  6  0  0  0
 16  3  1  0  0  0  0
 18 16  1  0  0  0  0
 19 21  1  6  0  0  0
 19 17  1  0  0  0  0
 20 19  1  0  0  0  0
 20 18  1  0  0  0  0
 22 33  1  1  0  0  0
 22 21  1  0  0  0  0
 24 23  1  0  0  0  0
 24 22  1  0  0  0  0
 24 26  1  0  0  0  0
 25 24  1  0  0  0  0
 26 27  1  0  0  0  0
 27 32  1  0  0  0  0
 28 32  1  0  0  0  0
 29 30  1  0  0  0  0
 30 28  1  0  0  0  0
 31 29  1  0  0  0  0
 31 27  1  0  0  0  0
 34 33  2  0  0  0  0
 37 35  1  0  0  0  0
 37 36  1  0  0  0  0
 38 37  1  0  0  0  0
 38 39  1  0  0  0  0
 40 41  1  0  0  0  0
 41 39  1  0  0  0  0
 41 43  1  0  0  0  0
 42 41  1  0  0  0  0
M  END
>  <MODEL>
1

>  <REMARK>
 VINA RESULT:      -9.3      0.000      0.000
  Name = 
  12 active torsions:
  status: ('A' for Active; 'I' for Inactive)
    1  A    between atoms: C_1  and  C_34
    2  A    between atoms: C_1  and  N_35
    3  A    between atoms: C_2  and  N_13
    4  A    between atoms: C_3  and  C_4
    5  A    between atoms: C_3  and  C_12
    6  A    between atoms: C_4  and  C_15
    7  A    between atoms: C_4  and  C_22
    8  A    between atoms: C_11  and  C_14
    9  A    between atoms: C_14  and  C_22
   10  A    between atoms: C_19  and  C_39
   11  A    between atoms: C_28  and  N_35
   12  A    between atoms: C_28  and  C_39
                            x       y       z     vdW  Elec       q    Type
                         _______ _______ _______ _____ _____    ______ ____

>  <TORSDO>
F 12

$$$$
=
 OpenBabel11052416223D

 43 47  0  0  1  0  0  0  0  0999 V2000
  191.4780  176.5070  147.0420 C   0  0  0  0  0  0  0  0  0  0  0  0
  187.3740  177.8070  144.2700 C   0  0  0  0  0  0  0  0  0  0  0  0
  188.1720  178.1690  141.6120 N   0  0  0  0  0  0  0  0  0  0  0  0
  189.2990  177.3170  146.3460 C   0  0  0  0  0  0  0  0  0  0  0  0
  191.8650  176.4110  145.6150 C   0  0  0  0  0  3  0  0  0  0  0  0
  192.3780  176.1200  148.0240 O   0  0  0  0  0  1  0  0  0  0  0  0
  189.8550  177.7190  144.9970 C   0  0  1  0  0  3  0  0  0  0  0  0
  190.2490  176.9070  147.3900 C   0  0  0  0  0  3  0  0  0  0  0  0
  191.0900  176.9230  144.6500 C   0  0  0  0  0  3  0  0  0  0  0  0
  189.1690  177.9770  142.6340 C   0  0  0  0  0  3  0  0  0  0  0  0
  188.8140  177.7760  143.9070 C   0  0  0  0  0  0  0  0  0  0  0  0
  187.0030  177.6230  145.5430 C   0  0  0  0  0  3  0  0  0  0  0  0
  186.3680  178.0320  143.2050 C   0  0  0  0  0  0  0  0  0  0  0  0
  186.7770  178.1900  141.9440 C   0  0  0  0  0  3  0  0  0  0  0  0
  187.9890  177.3310  146.6010 C   0  0  0  0  0  3  0  0  0  0  0  0
  188.5480  178.2880  140.2090 C   0  0  1  0  0  3  0  0  0  0  0  0
  189.5590  177.2220  139.8090 C   0  0  0  0  0  2  0  0  0  0  0  0
  187.0940  178.1690  139.1330 S   0  0  0  0  0  0  0  0  0  0  0  0
  189.2360  176.7300  138.4090 C   0  0  1  0  0  3  0  0  0  0  0  0
  188.1950  177.6490  137.7980 C   0  0  0  0  0  2  0  0  0  0  0  0
  190.5040  176.7130  137.5670 C   0  0  0  0  0  2  0  0  0  0  0  0
  190.8420  175.3000  137.0760 C   0  0  1  0  0  3  0  0  0  0  0  0
  190.3630  176.5050  134.9330 C   0  0  0  0  0  1  0  0  0  0  0  0
  190.7010  175.1500  135.5440 C   0  0  0  0  0  0  0  0  0  0  0  0
  192.0430  174.7110  134.9660 C   0  0  0  0  0  1  0  0  0  0  0  0
  189.6070  174.1230  135.2000 C   0  0  0  0  0  2  0  0  0  0  0  0
  188.4070  174.1570  136.1400 C   0  0  0  0  0  3  0  0  0  0  0  0
  186.6660  172.7690  137.2490 C   0  0  0  0  0  2  0  0  0  0  0  0
  185.9930  174.7300  136.3540 C   0  0  0  0  0  2  0  0  0  0  0  0
  185.6700  173.3640  136.4510 O   0  0  0  0  0  0  0  0  0  0  0  0
  187.2440  174.9090  135.4920 C   0  0  0  0  0  2  0  0  0  0  0  0
  187.9880  172.7280  136.4830 C   0  0  0  0  0  2  0  0  0  0  0  0
  192.1760  174.8440  137.6110 C   0  0  0  0  0  3  0  0  0  0  0  0
  192.9060  175.6070  138.2250 O   0  0  0  0  0  0  0  0  0  0  0  0
  184.9000  178.0030  143.4920 C   0  0  0  0  0  2  0  0  0  0  0  0
  184.1070  179.9880  144.2060 O   0  0  0  0  0  1  0  0  0  0  0  0
  184.2880  179.2580  143.0820 N   0  0  0  0  0  0  0  0  0  0  0  0
  182.9650  178.9470  142.5620 C   0  0  0  0  0  2  0  0  0  0  0  0
  181.9370  178.9740  143.6880 C   0  0  0  0  0  2  0  0  0  0  0  0
  180.2800  178.3160  142.0860 O   0  0  0  0  0  1  0  0  0  0  0  0
  180.5080  179.1500  143.1810 C   0  0  0  0  0  0  0  0  0  0  0  0
  180.2830  180.4770  142.8120 O   0  0  0  0  0  1  0  0  0  0  0  0
  179.5460  178.7800  144.2900 C   0  0  0  0  0  1  0  0  0  0  0  0
  1  8  2  0  0  0  0
  1  6  1  0  0  0  0
  2 12  2  0  0  0  0
  3 14  1  0  0  0  0
  3 10  1  0  0  0  0
  4 15  2  0  0  0  0
  4  8  1  0  0  0  0
  5  1  1  0  0  0  0
  7  9  1  6  0  0  0
  7  4  1  0  0  0  0
  9  5  2  0  0  0  0
 10 11  2  0  0  0  0
 11  2  1  0  0  0  0
 11  7  1  0  0  0  0
 12 15  1  0  0  0  0
 13 35  1  0  0  0  0
 13  2  1  0  0  0  0
 14 13  2  0  0  0  0
 16 17  1  6  0  0  0
 16  3  1  0  0  0  0
 18 16  1  0  0  0  0
 19 21  1  6  0  0  0
 19 17  1  0  0  0  0
 20 19  1  0  0  0  0
 20 18  1  0  0  0  0
 22 21  1  6  0  0  0
 22 33  1  0  0  0  0
 23 24  1  0  0  0  0
 24 22  1  0  0  0  0
 25 24  1  0  0  0  0
 26 24  1  0  0  0  0
 26 27  1  0  0  0  0
 27 32  1  0  0  0  0
 29 30  1  0  0  0  0
 30 28  1  0  0  0  0
 31 27  1  0  0  0  0
 31 29  1  0  0  0  0
 32 28  1  0  0  0  0
 33 34  2  0  0  0  0
 37 35  1  0  0  0  0
 37 36  1  0  0  0  0
 38 37  1  0  0  0  0
 38 39  1  0  0  0  0
 40 41  1  0  0  0  0
 41 39  1  0  0  0  0
 41 43  1  0  0  0  0
 42 41  1  0  0  0  0
M  END
>  <MODEL>
2

>  <REMARK>
 VINA RESULT:      -9.2      1.648      3.714
  Name = 
  12 active torsions:
  status: ('A' for Active; 'I' for Inactive)
    1  A    between atoms: C_1  and  C_34
    2  A    between atoms: C_1  and  N_35
    3  A    between atoms: C_2  and  N_13
    4  A    between atoms: C_3  and  C_4
    5  A    between atoms: C_3  and  C_12
    6  A    between atoms: C_4  and  C_15
    7  A    between atoms: C_4  and  C_22
    8  A    between atoms: C_11  and  C_14
    9  A    between atoms: C_14  and  C_22
   10  A    between atoms: C_19  and  C_39
   11  A    between atoms: C_28  and  N_35
   12  A    between atoms: C_28  and  C_39
                            x       y       z     vdW  Elec       q    Type
                         _______ _______ _______ _____ _____    ______ ____

>  <TORSDO>
F 12

$$$$
=
 OpenBabel11052416223D

 43 47  0  0  1  0  0  0  0  0999 V2000
  182.0810  179.0340  142.2710 C   0  0  0  0  0  0  0  0  0  0  0  0
  186.3190  178.2400  145.0320 C   0  0  0  0  0  0  0  0  0  0  0  0
  188.3310  177.3050  143.3260 N   0  0  0  0  0  0  0  0  0  0  0  0
  183.6310  178.6170  144.0910 C   0  0  0  0  0  0  0  0  0  0  0  0
  183.1920  178.8190  141.3150 C   0  0  0  0  0  3  0  0  0  0  0  0
  180.8210  179.3640  141.7940 O   0  0  0  0  0  1  0  0  0  0  0  0
  184.5750  177.8990  143.1510 C   0  0  1  0  0  3  0  0  0  0  0  0
  182.2940  178.9680  143.5900 C   0  0  0  0  0  3  0  0  0  0  0  0
  184.3760  178.3440  141.7230 C   0  0  0  0  0  3  0  0  0  0  0  0
  186.9840  177.4320  142.8330 C   0  0  0  0  0  3  0  0  0  0  0  0
  186.0100  177.9010  143.6190 C   0  0  0  0  0  0  0  0  0  0  0  0
  185.3510  178.6960  145.8360 C   0  0  0  0  0  3  0  0  0  0  0  0
  187.7070  178.0750  145.5240 C   0  0  0  0  0  0  0  0  0  0  0  0
  188.6500  177.6380  144.6840 C   0  0  0  0  0  3  0  0  0  0  0  0
  183.9810  178.9280  145.3410 C   0  0  0  0  0  3  0  0  0  0  0  0
  189.4160  176.8890  142.4470 C   0  0  1  0  0  3  0  0  0  0  0  0
  189.0450  177.0630  140.9800 C   0  0  0  0  0  2  0  0  0  0  0  0
  190.9310  177.8230  142.7960 S   0  0  0  0  0  0  0  0  0  0  0  0
  190.2590  177.5620  140.2150 C   0  0  1  0  0  3  0  0  0  0  0  0
  191.4770  177.4580  141.1120 C   0  0  0  0  0  2  0  0  0  0  0  0
  190.4430  176.7310  138.9530 C   0  0  0  0  0  2  0  0  0  0  0  0
  189.7730  177.3850  137.7380 C   0  0  1  0  0  3  0  0  0  0  0  0
  188.7320  176.9940  135.4940 C   0  0  0  0  0  1  0  0  0  0  0  0
  189.0170  176.3670  136.8530 C   0  0  0  0  0  0  0  0  0  0  0  0
  189.9140  175.1560  136.6190 C   0  0  0  0  0  1  0  0  0  0  0  0
  187.7010  175.9380  137.5280 C   0  0  0  0  0  2  0  0  0  0  0  0
  186.4570  176.2040  136.6860 C   0  0  0  0  0  3  0  0  0  0  0  0
  184.1850  177.2150  136.6980 C   0  0  0  0  0  2  0  0  0  0  0  0
  184.4030  175.2000  135.7020 C   0  0  0  0  0  2  0  0  0  0  0  0
  183.6060  175.9350  136.5980 O   0  0  0  0  0  0  0  0  0  0  0  0
  185.7560  174.8900  136.3440 C   0  0  0  0  0  2  0  0  0  0  0  0
  185.5110  177.1250  137.4530 C   0  0  0  0  0  2  0  0  0  0  0  0
  188.9370  178.5700  138.1510 C   0  0  0  0  0  3  0  0  0  0  0  0
  189.0830  179.6620  137.6230 O   0  0  0  0  0  0  0  0  0  0  0  0
  188.1000  178.4670  146.9130 C   0  0  0  0  0  2  0  0  0  0  0  0
  187.8310  177.4390  148.9010 O   0  0  0  0  0  1  0  0  0  0  0  0
  188.4190  177.2810  147.6920 N   0  0  0  0  0  0  0  0  0  0  0  0
  189.8570  177.2810  147.9190 C   0  0  0  0  0  2  0  0  0  0  0  0
  190.4700  175.9770  147.4200 C   0  0  0  0  0  2  0  0  0  0  0  0
  192.7950  176.1830  147.9630 O   0  0  0  0  0  1  0  0  0  0  0  0
  191.8930  176.1540  146.8980 C   0  0  0  0  0  0  0  0  0  0  0  0
  192.0000  177.3360  146.1650 O   0  0  0  0  0  1  0  0  0  0  0  0
  192.2330  174.9860  145.9980 C   0  0  0  0  0  1  0  0  0  0  0  0
  1  8  2  0  0  0  0
  2 13  1  0  0  0  0
  2 12  2  0  0  0  0
  3 14  1  0  0  0  0
  4 15  2  0  0  0  0
  5  9  2  0  0  0  0
  5  1  1  0  0  0  0
  6  1  1  0  0  0  0
  7  9  1  6  0  0  0
  7 11  1  0  0  0  0
  7  4  1  0  0  0  0
  8  4  1  0  0  0  0
 10  3  1  0  0  0  0
 10 11  2  0  0  0  0
 11  2  1  0  0  0  0
 13 35  1  0  0  0  0
 14 13  2  0  0  0  0
 15 12  1  0  0  0  0
 16 17  1  6  0  0  0
 16 18  1  0  0  0  0
 16  3  1  0  0  0  0
 19 21  1  6  0  0  0
 19 17  1  0  0  0  0
 19 20  1  0  0  0  0
 20 18  1  0  0  0  0
 22 33  1  1  0  0  0
 22 21  1  0  0  0  0
 23 24  1  0  0  0  0
 24 26  1  0  0  0  0
 24 22  1  0  0  0  0
 25 24  1  0  0  0  0
 27 32  1  0  0  0  0
 27 26  1  0  0  0  0
 28 32  1  0  0  0  0
 29 31  1  0  0  0  0
 29 30  1  0  0  0  0
 30 28  1  0  0  0  0
 31 27  1  0  0  0  0
 34 33  2  0  0  0  0
 35 37  1  0  0  0  0
 37 38  1  0  0  0  0
 37 36  1  0  0  0  0
 39 38  1  0  0  0  0
 41 39  1  0  0  0  0
 41 40  1  0  0  0  0
 42 41  1  0  0  0  0
 43 41  1  0  0  0  0
M  END
>  <MODEL>
3

>  <REMARK>
 VINA RESULT:      -9.1      3.222      7.799
  Name = 
  12 active torsions:
  status: ('A' for Active; 'I' for Inactive)
    1  A    between atoms: C_1  and  C_34
    2  A    between atoms: C_1  and  N_35
    3  A    between atoms: C_2  and  N_13
    4  A    between atoms: C_3  and  C_4
    5  A    between atoms: C_3  and  C_12
    6  A    between atoms: C_4  and  C_15
    7  A    between atoms: C_4  and  C_22
    8  A    between atoms: C_11  and  C_14
    9  A    between atoms: C_14  and  C_22
   10  A    between atoms: C_19  and  C_39
   11  A    between atoms: C_28  and  N_35
   12  A    between atoms: C_28  and  C_39
                            x       y       z     vdW  Elec       q    Type
                         _______ _______ _______ _____ _____    ______ ____

>  <TORSDO>
F 12

$$$$
=
 OpenBabel11052416223D

 43 47  0  0  1  0  0  0  0  0999 V2000
  191.3960  176.6630  146.9660 C   0  0  0  0  0  0  0  0  0  0  0  0
  187.4130  177.8160  143.9620 C   0  0  0  0  0  0  0  0  0  0  0  0
  188.3480  178.2010  141.3520 N   0  0  0  0  0  0  0  0  0  0  0  0
  189.2340  177.3970  146.1440 C   0  0  0  0  0  0  0  0  0  0  0  0
  191.8660  176.5790  145.5630 C   0  0  0  0  0  3  0  0  0  0  0  0
  192.2520  176.3100  147.9980 O   0  0  0  0  0  1  0  0  0  0  0  0
  189.8510  177.8160  144.8280 C   0  0  1  0  0  3  0  0  0  0  0  0
  190.1370  177.0220  147.2420 C   0  0  0  0  0  3  0  0  0  0  0  0
  191.1300  177.0620  144.5550 C   0  0  0  0  0  3  0  0  0  0  0  0
  189.2920  178.0460  142.4290 C   0  0  0  0  0  3  0  0  0  0  0  0
  188.8720  177.8350  143.6800 C   0  0  0  0  0  0  0  0  0  0  0  0
  186.9780  177.6220  145.2120 C   0  0  0  0  0  3  0  0  0  0  0  0
  186.4620  178.0050  142.8410 C   0  0  0  0  0  0  0  0  0  0  0  0
  186.9360  178.1750  141.6040 C   0  0  0  0  0  3  0  0  0  0  0  0
  187.9110  177.3660  146.3250 C   0  0  0  0  0  3  0  0  0  0  0  0
  188.7980  178.3310  139.9720 C   0  0  1  0  0  3  0  0  0  0  0  0
  189.9850  177.4210  139.6830 C   0  0  0  0  0  2  0  0  0  0  0  0
  187.4570  177.9540  138.8110 S   0  0  0  0  0  0  0  0  0  0  0  0
  189.8380  176.8390  138.2880 C   0  0  1  0  0  3  0  0  0  0  0  0
  188.7150  177.5660  137.5720 C   0  0  0  0  0  2  0  0  0  0  0  0
  191.1500  176.9900  137.5310 C   0  0  0  0  0  2  0  0  0  0  0  0
  192.1100  175.8290  137.8180 C   0  0  1  0  0  3  0  0  0  0  0  0
  191.3360  173.6040  136.9670 C   0  0  0  0  0  1  0  0  0  0  0  0
  192.1950  174.8210  136.6480 C   0  0  0  0  0  0  0  0  0  0  0  0
  191.6190  175.4720  135.3940 C   0  0  0  0  0  1  0  0  0  0  0  0
  193.6550  174.3940  136.4090 C   0  0  0  0  0  2  0  0  0  0  0  0
  193.9190  172.9150  136.6720 C   0  0  0  0  0  3  0  0  0  0  0  0
  195.3610  171.3060  137.9030 C   0  0  0  0  0  2  0  0  0  0  0  0
  194.8910  170.8170  135.7490 C   0  0  0  0  0  2  0  0  0  0  0  0
  195.9340  170.8780  136.6900 O   0  0  0  0  0  0  0  0  0  0  0  0
  194.4210  172.2300  135.4010 C   0  0  0  0  0  2  0  0  0  0  0  0
  194.9480  172.7730  137.7920 C   0  0  0  0  0  2  0  0  0  0  0  0
  193.4520  176.3360  138.2820 C   0  0  0  0  0  3  0  0  0  0  0  0
  193.5710  176.9340  139.3400 O   0  0  0  0  0  0  0  0  0  0  0  0
  184.9830  177.9260  143.0440 C   0  0  0  0  0  2  0  0  0  0  0  0
  184.0550  179.7720  143.9470 O   0  0  0  0  0  1  0  0  0  0  0  0
  184.3710  179.2140  142.7550 N   0  0  0  0  0  0  0  0  0  0  0  0
  183.1160  178.9550  142.0650 C   0  0  0  0  0  2  0  0  0  0  0  0
  183.3570  178.0720  140.8460 C   0  0  0  0  0  2  0  0  0  0  0  0
  183.7940  178.0200  138.4890 O   0  0  0  0  0  1  0  0  0  0  0  0
  183.5010  178.8730  139.5540 C   0  0  0  0  0  0  0  0  0  0  0  0
  184.5120  179.8250  139.6820 O   0  0  0  0  0  1  0  0  0  0  0  0
  182.1930  179.5810  139.2700 C   0  0  0  0  0  1  0  0  0  0  0  0
  1  8  2  0  0  0  0
  1  6  1  0  0  0  0
  2 12  2  0  0  0  0
  3 14  1  0  0  0  0
  3 10  1  0  0  0  0
  4 15  2  0  0  0  0
  4  8  1  0  0  0  0
  5  1  1  0  0  0  0
  7  9  1  6  0  0  0
  7  4  1  0  0  0  0
  9  5  2  0  0  0  0
 10 11  2  0  0  0  0
 11  2  1  0  0  0  0
 11  7  1  0  0  0  0
 12 15  1  0  0  0  0
 13 35  1  0  0  0  0
 13  2  1  0  0  0  0
 14 13  2  0  0  0  0
 16 17  1  6  0  0  0
 16  3  1  0  0  0  0
 18 16  1  0  0  0  0
 19 21  1  6  0  0  0
 19 17  1  0  0  0  0
 20 19  1  0  0  0  0
 20 18  1  0  0  0  0
 22 21  1  6  0  0  0
 22 33  1  0  0  0  0
 24 23  1  0  0  0  0
 24 22  1  0  0  0  0
 25 24  1  0  0  0  0
 26 24  1  0  0  0  0
 26 27  1  0  0  0  0
 27 32  1  0  0  0  0
 29 30  1  0  0  0  0
 30 28  1  0  0  0  0
 31 29  1  0  0  0  0
 31 27  1  0  0  0  0
 32 28  1  0  0  0  0
 33 34  2  0  0  0  0
 37 35  1  0  0  0  0
 37 36  1  0  0  0  0
 38 37  1  0  0  0  0
 39 38  1  0  0  0  0
 40 41  1  0  0  0  0
 41 42  1  0  0  0  0
 41 39  1  0  0  0  0
 43 41  1  0  0  0  0
M  END
>  <MODEL>
4

>  <REMARK>
 VINA RESULT:      -9.1      1.895      2.399
  Name = 
  12 active torsions:
  status: ('A' for Active; 'I' for Inactive)
    1  A    between atoms: C_1  and  C_34
    2  A    between atoms: C_1  and  N_35
    3  A    between atoms: C_2  and  N_13
    4  A    between atoms: C_3  and  C_4
    5  A    between atoms: C_3  and  C_12
    6  A    between atoms: C_4  and  C_15
    7  A    between atoms: C_4  and  C_22
    8  A    between atoms: C_11  and  C_14
    9  A    between atoms: C_14  and  C_22
   10  A    between atoms: C_19  and  C_39
   11  A    between atoms: C_28  and  N_35
   12  A    between atoms: C_28  and  C_39
                            x       y       z     vdW  Elec       q    Type
                         _______ _______ _______ _____ _____    ______ ____

>  <TORSDO>
F 12

$$$$
=
 OpenBabel11052416223D

 43 47  0  0  1  0  0  0  0  0999 V2000
  191.1770  176.7290  146.9410 C   0  0  0  0  0  0  0  0  0  0  0  0
  189.6450  177.4180  142.1040 C   0  0  0  0  0  0  0  0  0  0  0  0
  187.0110  178.3640  142.1300 N   0  0  0  0  0  0  0  0  0  0  0  0
  190.9540  176.6010  144.5280 C   0  0  0  0  0  0  0  0  0  0  0  0
  189.9070  177.4900  146.9880 C   0  0  0  0  0  3  0  0  0  0  0  0
  191.8690  176.4770  148.1160 O   0  0  0  0  0  1  0  0  0  0  0  0
  189.4690  176.8790  144.6280 C   0  0  1  0  0  3  0  0  0  0  0  0
  191.6920  176.3330  145.7710 C   0  0  0  0  0  3  0  0  0  0  0  0
  189.1310  177.6130  145.9030 C   0  0  0  0  0  3  0  0  0  0  0  0
  187.6170  177.9150  143.3570 C   0  0  0  0  0  3  0  0  0  0  0  0
  188.8820  177.4830  143.3760 C   0  0  0  0  0  0  0  0  0  0  0  0
  190.9070  176.9720  142.1050 C   0  0  0  0  0  3  0  0  0  0  0  0
  188.9910  177.8600  140.8500 C   0  0  0  0  0  0  0  0  0  0  0  0
  187.7370  178.3180  140.8940 C   0  0  0  0  0  3  0  0  0  0  0  0
  191.5920  176.5930  143.3550 C   0  0  0  0  0  3  0  0  0  0  0  0
  185.6680  178.9290  142.1190 C   0  0  1  0  0  3  0  0  0  0  0  0
  184.7840  178.2490  141.0820 C   0  0  0  0  0  2  0  0  0  0  0  0
  184.8900  178.7920  143.7510 S   0  0  0  0  0  0  0  0  0  0  0  0
  183.3840  178.0880  141.6490 C   0  0  1  0  0  3  0  0  0  0  0  0
  183.2830  178.8920  142.9310 C   0  0  0  0  0  2  0  0  0  0  0  0
  182.3610  178.5660  140.6280 C   0  0  0  0  0  2  0  0  0  0  0  0
  182.9650  178.6670  139.2220 C   0  0  1  0  0  3  0  0  0  0  0  0
  180.8840  177.9970  138.0000 C   0  0  0  0  0  1  0  0  0  0  0  0
  182.3490  177.6510  138.2330 C   0  0  0  0  0  0  0  0  0  0  0  0
  183.0660  177.7720  136.8920 C   0  0  0  0  0  1  0  0  0  0  0  0
  182.4760  176.2180  138.7820 C   0  0  0  0  0  2  0  0  0  0  0  0
  182.6700  175.1560  137.7040 C   0  0  0  0  0  3  0  0  0  0  0  0
  181.7680  173.0360  136.7690 C   0  0  0  0  0  2  0  0  0  0  0  0
  184.0090  173.1790  137.0000 C   0  0  0  0  0  2  0  0  0  0  0  0
  182.9040  172.3400  137.2270 O   0  0  0  0  0  0  0  0  0  0  0  0
  183.9600  174.3740  137.9530 C   0  0  0  0  0  2  0  0  0  0  0  0
  181.4700  174.2100  137.7000 C   0  0  0  0  0  2  0  0  0  0  0  0
  182.9440  180.0900  138.7230 C   0  0  0  0  0  3  0  0  0  0  0  0
  183.9470  180.7860  138.7520 O   0  0  0  0  0  0  0  0  0  0  0  0
  189.7260  177.8880  139.5480 C   0  0  0  0  0  2  0  0  0  0  0  0
  190.3250  175.8080  138.9160 O   0  0  0  0  0  1  0  0  0  0  0  0
  189.3550  176.7350  138.7420 N   0  0  0  0  0  0  0  0  0  0  0  0
  189.4070  177.1430  137.3460 C   0  0  0  0  0  2  0  0  0  0  0  0
  188.8840  178.5680  137.1940 C   0  0  0  0  0  2  0  0  0  0  0  0
  187.4460  177.9740  135.3710 O   0  0  0  0  0  1  0  0  0  0  0  0
  187.4760  178.6220  136.6070 C   0  0  0  0  0  0  0  0  0  0  0  0
  187.0650  179.9460  136.4500 O   0  0  0  0  0  1  0  0  0  0  0  0
  186.5240  177.9220  137.5530 C   0  0  0  0  0  1  0  0  0  0  0  0
  1  5  1  0  0  0  0
  1  6  1  0  0  0  0
  2 12  2  0  0  0  0
  2 11  1  0  0  0  0
  3 10  1  0  0  0  0
  4  7  1  0  0  0  0
  4  8  1  0  0  0  0
  7  9  1  1  0  0  0
  8  1  2  0  0  0  0
  9  5  2  0  0  0  0
 10 11  2  0  0  0  0
 11  7  1  0  0  0  0
 12 15  1  0  0  0  0
 13 14  2  0  0  0  0
 13  2  1  0  0  0  0
 14  3  1  0  0  0  0
 15  4  2  0  0  0  0
 16 17  1  6  0  0  0
 16  3  1  0  0  0  0
 16 18  1  0  0  0  0
 17 19  1  0  0  0  0
 19 21  1  6  0  0  0
 19 20  1  0  0  0  0
 20 18  1  0  0  0  0
 22 33  1  6  0  0  0
 22 21  1  0  0  0  0
 23 24  1  0  0  0  0
 24 26  1  0  0  0  0
 24 22  1  0  0  0  0
 25 24  1  0  0  0  0
 27 31  1  0  0  0  0
 27 26  1  0  0  0  0
 28 30  1  0  0  0  0
 28 32  1  0  0  0  0
 29 30  1  0  0  0  0
 29 31  1  0  0  0  0
 32 27  1  0  0  0  0
 33 34  2  0  0  0  0
 35 13  1  0  0  0  0
 37 36  1  0  0  0  0
 37 35  1  0  0  0  0
 38 37  1  0  0  0  0
 39 38  1  0  0  0  0
 40 41  1  0  0  0  0
 41 39  1  0  0  0  0
 41 43  1  0  0  0  0
 42 41  1  0  0  0  0
M  END
>  <MODEL>
5

>  <REMARK>
 VINA RESULT:      -9.0      3.607      8.119
  Name = 
  12 active torsions:
  status: ('A' for Active; 'I' for Inactive)
    1  A    between atoms: C_1  and  C_34
    2  A    between atoms: C_1  and  N_35
    3  A    between atoms: C_2  and  N_13
    4  A    between atoms: C_3  and  C_4
    5  A    between atoms: C_3  and  C_12
    6  A    between atoms: C_4  and  C_15
    7  A    between atoms: C_4  and  C_22
    8  A    between atoms: C_11  and  C_14
    9  A    between atoms: C_14  and  C_22
   10  A    between atoms: C_19  and  C_39
   11  A    between atoms: C_28  and  N_35
   12  A    between atoms: C_28  and  C_39
                            x       y       z     vdW  Elec       q    Type
                         _______ _______ _______ _____ _____    ______ ____

>  <TORSDO>
F 12

$$$$
=
 OpenBabel11052416223D

 43 47  0  0  1  0  0  0  0  0999 V2000
  181.8840  178.8210  143.1020 C   0  0  0  0  0  0  0  0  0  0  0  0
  184.5930  178.0770  138.8210 C   0  0  0  0  0  0  0  0  0  0  0  0
  187.3150  178.2720  139.4440 N   0  0  0  0  0  0  0  0  0  0  0  0
  182.5750  178.6610  140.7810 C   0  0  0  0  0  0  0  0  0  0  0  0
  183.2990  178.6450  143.5040 C   0  0  0  0  0  3  0  0  0  0  0  0
  180.9050  178.9510  144.0760 O   0  0  0  0  0  1  0  0  0  0  0  0
  183.9980  179.0150  141.1570 C   0  0  1  0  0  3  0  0  0  0  0  0
  181.5340  178.7980  141.8100 C   0  0  0  0  0  3  0  0  0  0  0  0
  184.2860  178.6780  142.6000 C   0  0  0  0  0  3  0  0  0  0  0  0
  186.3320  178.6230  140.4370 C   0  0  0  0  0  3  0  0  0  0  0  0
  185.0250  178.5140  140.1730 C   0  0  0  0  0  0  0  0  0  0  0  0
  183.2890  177.9780  138.5370 C   0  0  0  0  0  3  0  0  0  0  0  0
  185.6230  177.7470  137.8080 C   0  0  0  0  0  0  0  0  0  0  0  0
  186.9150  177.8380  138.1370 C   0  0  0  0  0  3  0  0  0  0  0  0
  182.2540  178.2380  139.5560 C   0  0  0  0  0  3  0  0  0  0  0  0
  188.7380  178.2930  139.7570 C   0  0  1  0  0  3  0  0  0  0  0  0
  188.9990  177.8830  141.2000 C   0  0  0  0  0  2  0  0  0  0  0  0
  189.6640  177.1990  138.6470 S   0  0  0  0  0  0  0  0  0  0  0  0
  190.2520  177.0270  141.2560 C   0  0  1  0  0  3  0  0  0  0  0  0
  190.9510  177.0980  139.9120 C   0  0  0  0  0  2  0  0  0  0  0  0
  191.1630  177.5270  142.3680 C   0  0  0  0  0  2  0  0  0  0  0  0
  191.1830  176.5670  143.5640 C   0  0  1  0  0  3  0  0  0  0  0  0
  191.4890  176.7980  146.0390 C   0  0  0  0  0  1  0  0  0  0  0  0
  190.6230  177.2080  144.8540 C   0  0  0  0  0  0  0  0  0  0  0  0
  190.7090  178.7260  144.7280 C   0  0  0  0  0  1  0  0  0  0  0  0
  189.1650  176.7710  145.0850 C   0  0  0  0  0  2  0  0  0  0  0  0
  188.3030  177.8250  145.7720 C   0  0  0  0  0  3  0  0  0  0  0  0
  187.1800  178.4450  147.9030 C   0  0  0  0  0  2  0  0  0  0  0  0
  186.0050  178.7550  146.0000 C   0  0  0  0  0  2  0  0  0  0  0  0
  185.9200  178.2440  147.3080 O   0  0  0  0  0  0  0  0  0  0  0  0
  186.9070  177.8600  145.1500 C   0  0  0  0  0  2  0  0  0  0  0  0
  188.2100  177.5130  147.2650 C   0  0  0  0  0  2  0  0  0  0  0  0
  190.5410  175.2490  143.2120 C   0  0  0  0  0  3  0  0  0  0  0  0
  191.0170  174.1910  143.5940 O   0  0  0  0  0  0  0  0  0  0  0  0
  185.2560  177.2330  136.4530 C   0  0  0  0  0  2  0  0  0  0  0  0
  186.6060  175.9720  135.1610 O   0  0  0  0  0  1  0  0  0  0  0  0
  185.8150  175.9040  136.2560 N   0  0  0  0  0  0  0  0  0  0  0  0
  184.7130  175.0130  135.9260 C   0  0  0  0  0  2  0  0  0  0  0  0
  183.8870  174.7110  137.1720 C   0  0  0  0  0  2  0  0  0  0  0  0
  181.6560  174.6740  138.0470 O   0  0  0  0  0  1  0  0  0  0  0  0
  182.3990  174.5550  136.8720 C   0  0  0  0  0  0  0  0  0  0  0  0
  182.1480  173.3140  136.2850 O   0  0  0  0  0  1  0  0  0  0  0  0
  181.9770  175.6460  135.9100 C   0  0  0  0  0  1  0  0  0  0  0  0
  1  5  1  0  0  0  0
  1  6  1  0  0  0  0
  2 11  1  0  0  0  0
  3 10  1  0  0  0  0
  4  7  1  0  0  0  0
  4  8  1  0  0  0  0
  7  9  1  1  0  0  0
  8  1  2  0  0  0  0
  9  5  2  0  0  0  0
 11 10  2  0  0  0  0
 11  7  1  0  0  0  0
 12  2  2  0  0  0  0
 12 15  1  0  0  0  0
 13 14  2  0  0  0  0
 13  2  1  0  0  0  0
 14  3  1  0  0  0  0
 15  4  2  0  0  0  0
 16  3  1  6  0  0  0
 16 17  1  0  0  0  0
 17 19  1  0  0  0  0
 18 16  1  0  0  0  0
 18 20  1  0  0  0  0
 19 21  1  1  0  0  0
 20 19  1  0  0  0  0
 22 21  1  6  0  0  0
 22 24  1  0  0  0  0
 24 26  1  0  0  0  0
 24 23  1  0  0  0  0
 25 24  1  0  0  0  0
 26 27  1  0  0  0  0
 27 32  1  0  0  0  0
 29 30  1  0  0  0  0
 30 28  1  0  0  0  0
 31 27  1  0  0  0  0
 31 29  1  0  0  0  0
 32 28  1  0  0  0  0
 33 22  1  0  0  0  0
 33 34  2  0  0  0  0
 35 13  1  0  0  0  0
 36 37  1  0  0  0  0
 37 35  1  0  0  0  0
 38 37  1  0  0  0  0
 38 39  1  0  0  0  0
 41 39  1  0  0  0  0
 41 40  1  0  0  0  0
 42 41  1  0  0  0  0
 43 41  1  0  0  0  0
M  END
>  <MODEL>
6

>  <REMARK>
 VINA RESULT:      -8.8      3.527      8.597
  Name = 
  12 active torsions:
  status: ('A' for Active; 'I' for Inactive)
    1  A    between atoms: C_1  and  C_34
    2  A    between atoms: C_1  and  N_35
    3  A    between atoms: C_2  and  N_13
    4  A    between atoms: C_3  and  C_4
    5  A    between atoms: C_3  and  C_12
    6  A    between atoms: C_4  and  C_15
    7  A    between atoms: C_4  and  C_22
    8  A    between atoms: C_11  and  C_14
    9  A    between atoms: C_14  and  C_22
   10  A    between atoms: C_19  and  C_39
   11  A    between atoms: C_28  and  N_35
   12  A    between atoms: C_28  and  C_39
                            x       y       z     vdW  Elec       q    Type
                         _______ _______ _______ _____ _____    ______ ____

>  <TORSDO>
F 12

$$$$
=
 OpenBabel11052416223D

 43 47  0  0  1  0  0  0  0  0999 V2000
  187.1900  177.8050  145.7150 C   0  0  0  0  0  0  0  0  0  0  0  0
  183.1120  178.9320  142.8310 C   0  0  0  0  0  0  0  0  0  0  0  0
  183.8400  178.7180  140.1380 N   0  0  0  0  0  0  0  0  0  0  0  0
  185.0640  178.6650  144.9230 C   0  0  0  0  0  0  0  0  0  0  0  0
  187.5150  177.4110  144.3250 C   0  0  0  0  0  3  0  0  0  0  0  0
  188.0900  177.5280  146.7340 O   0  0  0  0  0  1  0  0  0  0  0  0
  185.6030  178.7570  143.5110 C   0  0  1  0  0  3  0  0  0  0  0  0
  186.0140  178.3730  146.0060 C   0  0  0  0  0  3  0  0  0  0  0  0
  186.7510  177.8020  143.2970 C   0  0  0  0  0  3  0  0  0  0  0  0
  184.8550  178.6310  141.1560 C   0  0  0  0  0  3  0  0  0  0  0  0
  184.5300  178.7040  142.4510 C   0  0  0  0  0  0  0  0  0  0  0  0
  182.7740  179.0230  144.1230 C   0  0  0  0  0  3  0  0  0  0  0  0
  182.0910  179.0450  141.7640 C   0  0  0  0  0  0  0  0  0  0  0  0
  182.4650  178.9270  140.4870 C   0  0  0  0  0  3  0  0  0  0  0  0
  183.7700  178.8450  145.1970 C   0  0  0  0  0  3  0  0  0  0  0  0
  184.1730  178.5400  138.7300 C   0  0  1  0  0  3  0  0  0  0  0  0
  185.6460  178.2020  138.5420 C   0  0  0  0  0  2  0  0  0  0  0  0
  183.1600  177.2360  137.9820 S   0  0  0  0  0  0  0  0  0  0  0  0
  185.7840  177.1670  137.4390 C   0  0  1  0  0  3  0  0  0  0  0  0
  184.4490  177.0290  136.7320 C   0  0  0  0  0  2  0  0  0  0  0  0
  186.8710  177.6000  136.4660 C   0  0  0  0  0  2  0  0  0  0  0  0
  188.0390  176.6070  136.4390 C   0  0  1  0  0  3  0  0  0  0  0  0
  190.5410  176.7020  136.5190 C   0  0  0  0  0  1  0  0  0  0  0  0
  189.2620  177.1010  137.2450 C   0  0  0  0  0  0  0  0  0  0  0  0
  189.2280  178.6250  137.3080 C   0  0  0  0  0  1  0  0  0  0  0  0
  189.2490  176.5060  138.6660 C   0  0  0  0  0  2  0  0  0  0  0  0
  190.0400  177.3170  139.6860 C   0  0  0  0  0  3  0  0  0  0  0  0
  192.2100  177.4890  140.8890 C   0  0  0  0  0  2  0  0  0  0  0  0
  190.3370  177.8280  142.1040 C   0  0  0  0  0  2  0  0  0  0  0  0
  191.5740  177.1580  142.1010 O   0  0  0  0  0  0  0  0  0  0  0  0
  189.4030  177.1990  141.0700 C   0  0  0  0  0  2  0  0  0  0  0  0
  191.4840  176.8190  139.7230 C   0  0  0  0  0  2  0  0  0  0  0  0
  187.5820  175.2200  136.8160 C   0  0  0  0  0  3  0  0  0  0  0  0
  187.9130  174.2440  136.1600 O   0  0  0  0  0  0  0  0  0  0  0  0
  180.6380  179.2030  142.0800 C   0  0  0  0  0  2  0  0  0  0  0  0
  179.6540  181.1770  142.5450 O   0  0  0  0  0  1  0  0  0  0  0  0
  180.1380  180.4470  141.5150 N   0  0  0  0  0  0  0  0  0  0  0  0
  179.0040  180.1140  140.6650 C   0  0  0  0  0  2  0  0  0  0  0  0
  179.4090  180.1750  139.1960 C   0  0  0  0  0  2  0  0  0  0  0  0
  178.9600  182.5000  139.5710 O   0  0  0  0  0  1  0  0  0  0  0  0
  179.5600  181.6050  138.6840 C   0  0  0  0  0  0  0  0  0  0  0  0
  178.9770  181.7350  137.4240 O   0  0  0  0  0  1  0  0  0  0  0  0
  181.0340  181.9340  138.5770 C   0  0  0  0  0  1  0  0  0  0  0  0
  1  8  2  0  0  0  0
  1  6  1  0  0  0  0
  2 12  2  0  0  0  0
  3 14  1  0  0  0  0
  3 10  1  0  0  0  0
  4 15  2  0  0  0  0
  4  8  1  0  0  0  0
  5  1  1  0  0  0  0
  7  9  1  6  0  0  0
  7  4  1  0  0  0  0
  9  5  2  0  0  0  0
 10 11  2  0  0  0  0
 11  2  1  0  0  0  0
 11  7  1  0  0  0  0
 12 15  1  0  0  0  0
 13 35  1  0  0  0  0
 13  2  1  0  0  0  0
 14 13  2  0  0  0  0
 16 17  1  1  0  0  0
 16  3  1  0  0  0  0
 18 16  1  0  0  0  0
 19 21  1  6  0  0  0
 19 17  1  0  0  0  0
 20 19  1  0  0  0  0
 20 18  1  0  0  0  0
 22 21  1  1  0  0  0
 22 33  1  0  0  0  0
 22 24  1  0  0  0  0
 23 24  1  0  0  0  0
 24 25  1  0  0  0  0
 24 26  1  0  0  0  0
 26 27  1  0  0  0  0
 27 32  1  0  0  0  0
 27 31  1  0  0  0  0
 28 30  1  0  0  0  0
 30 29  1  0  0  0  0
 31 29  1  0  0  0  0
 32 28  1  0  0  0  0
 34 33  2  0  0  0  0
 37 35  1  0  0  0  0
 37 36  1  0  0  0  0
 38 37  1  0  0  0  0
 39 38  1  0  0  0  0
 41 39  1  0  0  0  0
 41 40  1  0  0  0  0
 42 41  1  0  0  0  0
 43 41  1  0  0  0  0
M  END
>  <MODEL>
7

>  <REMARK>
 VINA RESULT:      -8.8      3.256      5.039
  Name = 
  12 active torsions:
  status: ('A' for Active; 'I' for Inactive)
    1  A    between atoms: C_1  and  C_34
    2  A    between atoms: C_1  and  N_35
    3  A    between atoms: C_2  and  N_13
    4  A    between atoms: C_3  and  C_4
    5  A    between atoms: C_3  and  C_12
    6  A    between atoms: C_4  and  C_15
    7  A    between atoms: C_4  and  C_22
    8  A    between atoms: C_11  and  C_14
    9  A    between atoms: C_14  and  C_22
   10  A    between atoms: C_19  and  C_39
   11  A    between atoms: C_28  and  N_35
   12  A    between atoms: C_28  and  C_39
                            x       y       z     vdW  Elec       q    Type
                         _______ _______ _______ _____ _____    ______ ____

>  <TORSDO>
F 12

$$$$
=
 OpenBabel11052416223D

 43 47  0  0  1  0  0  0  0  0999 V2000
  190.5350  176.8380  138.0190 C   0  0  0  0  0  0  0  0  0  0  0  0
  188.6500  177.2790  142.7590 C   0  0  0  0  0  0  0  0  0  0  0  0
  186.1390  178.5070  142.6080 N   0  0  0  0  0  0  0  0  0  0  0  0
  190.3080  176.9990  140.4290 C   0  0  0  0  0  0  0  0  0  0  0  0
  189.1090  177.2200  137.8890 C   0  0  0  0  0  3  0  0  0  0  0  0
  191.2770  176.5610  136.8800 O   0  0  0  0  0  1  0  0  0  0  0  0
  189.0820  177.8730  140.2770 C   0  0  0  0  0  0  0  0  0  0  0  0
  191.0980  176.7030  139.2250 C   0  0  0  0  0  2  0  0  0  0  0  0
  188.4080  177.6490  138.9460 C   0  0  0  0  0  3  0  0  0  0  0  0
  186.9650  178.4310  141.4300 C   0  0  0  0  0  3  0  0  0  0  0  0
  188.1570  177.8270  141.4690 C   0  0  0  0  0  0  0  0  0  0  0  0
  189.8480  176.6860  142.8170 C   0  0  0  0  0  3  0  0  0  0  0  0
  187.7940  177.3940  143.9630 C   0  0  0  0  0  0  0  0  0  0  0  0
  186.5950  177.9740  143.8590 C   0  0  0  0  0  3  0  0  0  0  0  0
  190.6810  176.5060  141.6130 C   0  0  0  0  0  3  0  0  0  0  0  0
  184.7990  179.0750  142.5490 C   0  0  1  0  0  3  0  0  0  0  0  0
  183.9700  178.4400  141.4410 C   0  0  0  0  0  2  0  0  0  0  0  0
  183.9370  178.8730  144.1320 S   0  0  0  0  0  0  0  0  0  0  0  0
  182.5430  178.2590  141.9260 C   0  0  1  0  0  3  0  0  0  0  0  0
  182.3740  179.0090  143.2340 C   0  0  0  0  0  2  0  0  0  0  0  0
  181.5750  178.7800  140.8740 C   0  0  0  0  0  2  0  0  0  0  0  0
  182.2000  178.7740  139.4730 C   0  0  1  0  0  3  0  0  0  0  0  0
  180.4880  176.9590  139.2570 C   0  0  0  0  0  1  0  0  0  0  0  0
  181.7110  177.5920  138.6050 C   0  0  0  0  0  0  0  0  0  0  0  0
  181.2780  178.1260  137.2430 C   0  0  0  0  0  1  0  0  0  0  0  0
  182.8280  176.5450  138.4400 C   0  0  0  0  0  2  0  0  0  0  0  0
  183.6770  176.7350  137.1880 C   0  0  0  0  0  3  0  0  0  0  0  0
  185.0320  175.5610  135.4650 C   0  0  0  0  0  2  0  0  0  0  0  0
  185.8870  177.4720  136.3100 C   0  0  0  0  0  2  0  0  0  0  0  0
  186.2070  176.1430  135.9790 O   0  0  0  0  0  0  0  0  0  0  0  0
  184.9590  177.4970  137.5250 C   0  0  0  0  0  2  0  0  0  0  0  0
  184.0130  175.3710  136.5880 C   0  0  0  0  0  2  0  0  0  0  0  0
  182.0520  180.1190  138.8070 C   0  0  0  0  0  3  0  0  0  0  0  0
  182.9970  180.8870  138.7160 O   0  0  0  0  0  0  0  0  0  0  0  0
  188.2000  176.8010  145.2740 C   0  0  0  0  0  2  0  0  0  0  0  0
  189.4650  178.6280  145.6500 O   0  0  0  0  0  1  0  0  0  0  0  0
  188.5110  177.8580  146.2240 N   0  0  0  0  0  0  0  0  0  0  0  0
  189.1180  177.2330  147.3890 C   0  0  0  0  0  2  0  0  0  0  0  0
  190.0750  176.1270  146.9560 C   0  0  0  0  0  2  0  0  0  0  0  0
  191.6800  177.4780  148.1140 O   0  0  0  0  0  1  0  0  0  0  0  0
  191.5420  176.5190  147.1100 C   0  0  0  0  0  0  0  0  0  0  0  0
  192.0390  177.0260  145.9090 O   0  0  0  0  0  1  0  0  0  0  0  0
  192.3390  175.2900  147.4900 C   0  0  0  0  0  1  0  0  0  0  0  0
  1  8  1  0  0  0  0
  2 12  2  0  0  0  0
  2 13  1  0  0  0  0
  3 14  1  0  0  0  0
  4 15  2  0  0  0  0
  5  1  2  0  0  0  0
  5  9  1  0  0  0  0
  6  1  1  0  0  0  0
  7  4  1  0  0  0  0
  7 11  1  0  0  0  0
  8  4  1  0  0  0  0
  9  7  2  0  0  0  0
 10 11  2  0  0  0  0
 10  3  1  0  0  0  0
 11  2  1  0  0  0  0
 13 35  1  0  0  0  0
 14 13  2  0  0  0  0
 15 12  1  0  0  0  0
 16 17  1  6  0  0  0
 16  3  1  0  0  0  0
 16 18  1  0  0  0  0
 17 19  1  0  0  0  0
 19 21  1  6  0  0  0
 19 20  1  0  0  0  0
 20 18  1  0  0  0  0
 22 33  1  6  0  0  0
 22 21  1  0  0  0  0
 24 23  1  0  0  0  0
 24 22  1  0  0  0  0
 25 24  1  0  0  0  0
 26 24  1  0  0  0  0
 27 31  1  0  0  0  0
 27 26  1  0  0  0  0
 28 30  1  0  0  0  0
 28 32  1  0  0  0  0
 29 31  1  0  0  0  0
 30 29  1  0  0  0  0
 32 27  1  0  0  0  0
 34 33  2  0  0  0  0
 35 37  1  0  0  0  0
 36 37  1  0  0  0  0
 37 38  1  0  0  0  0
 39 41  1  0  0  0  0
 39 38  1  0  0  0  0
 41 43  1  0  0  0  0
 41 40  1  0  0  0  0
 42 41  1  0  0  0  0
M  END
>  <MODEL>
8

>  <REMARK>
 VINA RESULT:      -8.5      3.212      8.772
  Name = 
  12 active torsions:
  status: ('A' for Active; 'I' for Inactive)
    1  A    between atoms: C_1  and  C_34
    2  A    between atoms: C_1  and  N_35
    3  A    between atoms: C_2  and  N_13
    4  A    between atoms: C_3  and  C_4
    5  A    between atoms: C_3  and  C_12
    6  A    between atoms: C_4  and  C_15
    7  A    between atoms: C_4  and  C_22
    8  A    between atoms: C_11  and  C_14
    9  A    between atoms: C_14  and  C_22
   10  A    between atoms: C_19  and  C_39
   11  A    between atoms: C_28  and  N_35
   12  A    between atoms: C_28  and  C_39
                            x       y       z     vdW  Elec       q    Type
                         _______ _______ _______ _____ _____    ______ ____

>  <TORSDO>
F 12

$$$$
=
 OpenBabel11052416223D

 43 47  0  0  1  0  0  0  0  0999 V2000
  191.2230  176.6930  146.5760 C   0  0  0  0  0  0  0  0  0  0  0  0
  189.4350  177.7050  141.8860 C   0  0  0  0  0  0  0  0  0  0  0  0
  186.7770  178.5530  142.1100 N   0  0  0  0  0  0  0  0  0  0  0  0
  190.8860  176.7480  144.1740 C   0  0  0  0  0  0  0  0  0  0  0  0
  189.9340  177.4030  146.7430 C   0  0  0  0  0  3  0  0  0  0  0  0
  191.9800  176.3740  147.6940 O   0  0  0  0  0  1  0  0  0  0  0  0
  189.4000  176.9640  144.3650 C   0  0  1  0  0  3  0  0  0  0  0  0
  191.6920  176.4090  145.3560 C   0  0  0  0  0  3  0  0  0  0  0  0
  189.1030  177.5840  145.7080 C   0  0  0  0  0  3  0  0  0  0  0  0
  187.4560  178.0310  143.2680 C   0  0  0  0  0  3  0  0  0  0  0  0
  188.7340  177.6430  143.1940 C   0  0  0  0  0  0  0  0  0  0  0  0
  190.7090  177.3050  141.7930 C   0  0  0  0  0  3  0  0  0  0  0  0
  188.7070  178.2210  140.7040 C   0  0  0  0  0  0  0  0  0  0  0  0
  187.4430  178.6300  140.8420 C   0  0  0  0  0  3  0  0  0  0  0  0
  191.4660  176.8530  142.9760 C   0  0  0  0  0  3  0  0  0  0  0  0
  185.4180  179.0700  142.2070 C   0  0  1  0  0  3  0  0  0  0  0  0
  184.5310  178.5200  141.0980 C   0  0  0  0  0  2  0  0  0  0  0  0
  184.6830  178.6710  143.8160 S   0  0  0  0  0  0  0  0  0  0  0  0
  183.1500  178.2330  141.6610 C   0  0  1  0  0  3  0  0  0  0  0  0
  183.0540  178.8370  143.0490 C   0  0  0  0  0  2  0  0  0  0  0  0
  182.0900  178.8210  140.7400 C   0  0  0  0  0  2  0  0  0  0  0  0
  182.4840  178.6910  139.2640 C   0  0  1  0  0  3  0  0  0  0  0  0
  180.6250  177.0140  139.3230 C   0  0  0  0  0  1  0  0  0  0  0  0
  181.9020  177.4230  138.5990 C   0  0  0  0  0  0  0  0  0  0  0  0
  181.5240  177.7510  137.1580 C   0  0  0  0  0  1  0  0  0  0  0  0
  182.9260  176.2740  138.6370 C   0  0  0  0  0  2  0  0  0  0  0  0
  183.8390  176.2160  137.4170 C   0  0  0  0  0  3  0  0  0  0  0  0
  185.3900  174.7700  136.1180 C   0  0  0  0  0  2  0  0  0  0  0  0
  186.0400  176.9030  136.4770 C   0  0  0  0  0  2  0  0  0  0  0  0
  186.4810  175.5680  136.5150 O   0  0  0  0  0  0  0  0  0  0  0  0
  185.0340  177.1510  137.6020 C   0  0  0  0  0  2  0  0  0  0  0  0
  184.3170  174.7810  137.2060 C   0  0  0  0  0  2  0  0  0  0  0  0
  182.1880  179.9630  138.5100 C   0  0  0  0  0  3  0  0  0  0  0  0
  181.4680  180.8280  138.9850 O   0  0  0  0  0  0  0  0  0  0  0  0
  189.3760  178.3770  139.3750 C   0  0  0  0  0  2  0  0  0  0  0  0
  188.5620  176.2920  139.1030 O   0  0  0  0  0  1  0  0  0  0  0  0
  188.8130  177.4330  138.4210 N   0  0  0  0  0  0  0  0  0  0  0  0
  189.8520  177.1240  137.4500 C   0  0  0  0  0  2  0  0  0  0  0  0
  190.4160  175.7310  137.7070 C   0  0  0  0  0  2  0  0  0  0  0  0
  192.1530  176.0280  136.0820 O   0  0  0  0  0  1  0  0  0  0  0  0
  191.9080  175.6300  137.3970 C   0  0  0  0  0  0  0  0  0  0  0  0
  192.3550  174.3210  137.5800 O   0  0  0  0  0  1  0  0  0  0  0  0
  192.6650  176.5420  138.3380 C   0  0  0  0  0  1  0  0  0  0  0  0
  1  5  1  0  0  0  0
  1  6  1  0  0  0  0
  2 11  1  0  0  0  0
  3 16  1  0  0  0  0
  3 10  1  0  0  0  0
  4  7  1  0  0  0  0
  4  8  1  0  0  0  0
  7  9  1  1  0  0  0
  8  1  2  0  0  0  0
  9  5  2  0  0  0  0
 11 10  2  0  0  0  0
 11  7  1  0  0  0  0
 12  2  2  0  0  0  0
 12 15  1  0  0  0  0
 13 14  2  0  0  0  0
 13  2  1  0  0  0  0
 14  3  1  0  0  0  0
 15  4  2  0  0  0  0
 16 17  1  6  0  0  0
 16 18  1  0  0  0  0
 17 19  1  0  0  0  0
 19 21  1  6  0  0  0
 19 20  1  0  0  0  0
 20 18  1  0  0  0  0
 22 33  1  6  0  0  0
 22 21  1  0  0  0  0
 24 26  1  0  0  0  0
 24 22  1  0  0  0  0
 24 23  1  0  0  0  0
 25 24  1  0  0  0  0
 27 31  1  0  0  0  0
 27 26  1  0  0  0  0
 28 30  1  0  0  0  0
 28 32  1  0  0  0  0
 29 30  1  0  0  0  0
 29 31  1  0  0  0  0
 32 27  1  0  0  0  0
 33 34  2  0  0  0  0
 35 13  1  0  0  0  0
 37 36  1  0  0  0  0
 37 35  1  0  0  0  0
 38 39  1  0  0  0  0
 38 37  1  0  0  0  0
 40 41  1  0  0  0  0
 41 42  1  0  0  0  0
 41 39  1  0  0  0  0
 41 43  1  0  0  0  0
M  END
>  <MODEL>
9

>  <REMARK>
 VINA RESULT:      -8.4      2.845      8.350
  Name = 
  12 active torsions:
  status: ('A' for Active; 'I' for Inactive)
    1  A    between atoms: C_1  and  C_34
    2  A    between atoms: C_1  and  N_35
    3  A    between atoms: C_2  and  N_13
    4  A    between atoms: C_3  and  C_4
    5  A    between atoms: C_3  and  C_12
    6  A    between atoms: C_4  and  C_15
    7  A    between atoms: C_4  and  C_22
    8  A    between atoms: C_11  and  C_14
    9  A    between atoms: C_14  and  C_22
   10  A    between atoms: C_19  and  C_39
   11  A    between atoms: C_28  and  N_35
   12  A    between atoms: C_28  and  C_39
                            x       y       z     vdW  Elec       q    Type
                         _______ _______ _______ _____ _____    ______ ____

>  <TORSDO>
F 12

$$$$
