=
 OpenBabel11052414463D

 32 35  0  0  1  0  0  0  0  0999 V2000
  192.1570  177.2420  139.9840 C   0  0  0  0  0  0  0  0  0  0  0  0
  193.5630  177.4260  139.8830 N   0  0  0  0  0  1  0  0  0  0  0  0
  188.0680  175.6160  143.1510 O   0  0  0  0  0  1  0  0  0  0  0  0
  189.0970  177.5290  139.7790 S   0  0  0  0  0  0  0  0  0  0  0  0
  189.6060  177.2020  142.4180 C   0  0  0  0  0  0  0  0  0  0  0  0
  191.4630  176.4580  138.9360 C   0  0  0  0  0  3  0  0  0  0  0  0
  190.1370  177.4260  141.2260 C   0  0  0  0  0  0  0  0  0  0  0  0
  191.5430  177.6100  141.0720 N   0  0  0  0  0  0  0  0  0  0  0  0
  189.7060  177.0460  143.9110 O   0  0  0  0  0  0  0  0  0  0  0  0
  190.1330  176.3930  138.8180 C   0  0  0  0  0  0  0  0  0  0  0  0
  188.5290  176.9340  143.2290 C   0  0  2  0  0  0  0  0  0  0  0  0
  187.5440  178.0820  143.4260 C   0  0  1  0  0  3  0  0  0  0  0  0
  186.2430  177.7560  142.7150 C   0  0  1  0  0  3  0  0  0  0  0  0
  186.3360  177.6520  144.2470 C   0  0  2  0  0  3  0  0  0  0  0  0
  185.6720  178.7710  145.0870 C   0  0  1  0  0  3  0  0  0  0  0  0
  184.1780  178.6210  145.3560 C   0  0  0  0  0  1  0  0  0  0  0  0
  186.3970  179.0280  146.3240 N   0  0  0  0  0  2  0  0  0  0  0  0
  187.1960  177.5280  146.8120 S   0  0  0  0  0  0  0  0  0  0  0  0
  187.7960  178.2500  148.3680 C   0  0  0  0  0  2  0  0  0  0  0  0
  189.3010  178.0980  148.4630 C   0  0  0  0  0  2  0  0  0  0  0  0
  189.8180  177.3520  147.2460 C   0  0  0  0  0  2  0  0  0  0  0  0
  191.8420  176.1340  146.5720 C   0  0  0  0  0  2  0  0  0  0  0  0
  191.1580  176.7550  147.5330 C   0  0  0  0  0  3  0  0  0  0  0  0
  185.5580  179.2960  142.0180 S   0  0  0  0  0  0  0  0  0  0  0  0
  184.0870  178.4370  141.3970 C   0  0  0  0  0  1  0  0  0  0  0  0
  189.6150  175.4670  137.8890 O   0  0  0  0  0  0  0  0  0  0  0  0
  188.0210  174.3780  136.3580 C   0  0  0  0  0  2  0  0  0  0  0  0
  188.7210  175.6530  136.7750 C   0  0  1  0  0  3  0  0  0  0  0  0
  187.2620  175.4510  137.1290 C   0  0  1  0  0  3  0  0  0  0  0  0
  186.4660  176.1810  136.2470 O   0  0  0  0  0  0  0  0  0  0  0  0
  185.8990  177.9730  137.7030 C   0  0  0  0  0  1  0  0  0  0  0  0
  185.4350  176.6940  137.0390 C   0  0  0  0  0  2  0  0  0  0  0  0
  1  8  2  0  0  0  0
  2  1  1  0  0  0  0
  4  7  1  0  0  0  0
  5 11  1  0  0  0  0
  5  9  1  0  0  0  0
  6  1  1  0  0  0  0
  7  5  2  0  0  0  0
  8  7  1  0  0  0  0
 10  6  2  0  0  0  0
 10  4  1  0  0  0  0
 11  3  1  6  0  0  0
 11  9  1  0  0  0  0
 12 11  1  6  0  0  0
 12 14  1  0  0  0  0
 13 24  1  1  0  0  0
 13 12  1  0  0  0  0
 13 14  1  0  0  0  0
 14 15  1  1  0  0  0
 15 16  1  1  0  0  0
 15 17  1  0  0  0  0
 17 18  1  0  0  0  0
 18 19  1  0  0  0  0
 19 20  1  0  0  0  0
 21 23  1  0  0  0  0
 21 20  1  0  0  0  0
 22 23  2  0  0  0  0
 25 24  1  0  0  0  0
 26 10  1  0  0  0  0
 27 28  1  0  0  0  0
 27 29  1  0  0  0  0
 28 29  1  0  0  0  0
 28 26  1  1  0  0  0
 29 30  1  6  0  0  0
 30 32  1  0  0  0  0
 32 31  1  0  0  0  0
M  END
>  <MODEL>
1

>  <REMARK>
 VINA RESULT:      -6.9      0.000      0.000
  Name = 
  13 active torsions:
  status: ('A' for Active; 'I' for Inactive)
    1  A    between atoms: C_1  and  N_4
    2  A    between atoms: C_1  and  C_30
    3  A    between atoms: C_2  and  C_27
    4  A    between atoms: N_4  and  S_17
    5  A    between atoms: C_5  and  S_14
    6  A    between atoms: C_6  and  S_17
    7  A    between atoms: C_6  and  C_29
    8  A    between atoms: O_7  and  C_26
    9  A    between atoms: O_7  and  C_31
   10  A    between atoms: C_12  and  O_28
   11  A    between atoms: C_18  and  C_25
   12  A    between atoms: C_18  and  C_29
   13  A    between atoms: O_28  and  C_32
                            x       y       z     vdW  Elec       q    Type
                         _______ _______ _______ _____ _____    ______ ____

>  <TORSDO>
F 13

$$$$
=
 OpenBabel11052414463D

 32 35  0  0  1  0  0  0  0  0999 V2000
  188.9510  178.2190  139.3720 C   0  0  0  0  0  0  0  0  0  0  0  0
  188.0360  178.8350  138.4740 N   0  0  0  0  0  1  0  0  0  0  0  0
  191.8890  178.8260  143.8880 O   0  0  0  0  0  1  0  0  0  0  0  0
  190.4780  176.2370  141.1680 S   0  0  0  0  0  0  0  0  0  0  0  0
  189.9080  178.3490  142.7640 C   0  0  0  0  0  0  0  0  0  0  0  0
  190.1860  177.6100  138.8260 C   0  0  0  0  0  3  0  0  0  0  0  0
  189.6780  177.7750  141.5930 C   0  0  0  0  0  0  0  0  0  0  0  0
  188.7750  178.3570  140.6560 N   0  0  0  0  0  0  0  0  0  0  0  0
  189.6670  179.4230  143.7880 O   0  0  0  0  0  0  0  0  0  0  0  0
  191.0070  176.8340  139.5410 C   0  0  0  0  0  0  0  0  0  0  0  0
  190.5580  178.4070  143.9730 C   0  0  2  0  0  0  0  0  0  0  0  0
  190.1490  177.3530  144.9980 C   0  0  1  0  0  3  0  0  0  0  0  0
  191.2100  177.2660  146.0800 C   0  0  1  0  0  3  0  0  0  0  0  0
  189.8720  177.9720  146.3610 C   0  0  2  0  0  3  0  0  0  0  0  0
  188.8310  177.2240  147.2310 C   0  0  1  0  0  3  0  0  0  0  0  0
  188.5780  177.7910  148.6240 C   0  0  0  0  0  1  0  0  0  0  0  0
  187.5750  177.0180  146.5210 N   0  0  0  0  0  2  0  0  0  0  0  0
  186.4430  178.2750  147.0350 S   0  0  0  0  0  0  0  0  0  0  0  0
  185.8140  178.5220  145.3480 C   0  0  0  0  0  2  0  0  0  0  0  0
  186.5150  177.5790  144.3900 C   0  0  0  0  0  2  0  0  0  0  0  0
  186.1710  177.9520  142.9590 C   0  0  0  0  0  2  0  0  0  0  0  0
  183.9240  178.4100  142.0800 C   0  0  0  0  0  2  0  0  0  0  0  0
  184.9040  178.7440  142.9190 C   0  0  0  0  0  3  0  0  0  0  0  0
  191.3660  175.5250  146.6030 S   0  0  0  0  0  0  0  0  0  0  0  0
  192.5100  175.9630  147.9400 C   0  0  0  0  0  1  0  0  0  0  0  0
  192.2330  176.4750  138.9430 O   0  0  0  0  0  0  0  0  0  0  0  0
  193.3150  176.1150  136.7580 C   0  0  0  0  0  2  0  0  0  0  0  0
  192.5290  175.5200  137.9060 C   0  0  1  0  0  3  0  0  0  0  0  0
  194.0060  175.2110  137.7700 C   0  0  1  0  0  3  0  0  0  0  0  0
  194.1640  173.9380  137.2230 O   0  0  0  0  0  0  0  0  0  0  0  0
  195.7090  174.2300  139.0070 C   0  0  0  0  0  1  0  0  0  0  0  0
  194.9380  173.2430  138.1570 C   0  0  0  0  0  2  0  0  0  0  0  0
  1  8  2  0  0  0  0
  2  1  1  0  0  0  0
  4  7  1  0  0  0  0
  5  9  1  0  0  0  0
  5 11  1  0  0  0  0
  6  1  1  0  0  0  0
  6 10  2  0  0  0  0
  7  5  2  0  0  0  0
  8  7  1  0  0  0  0
  9 11  1  0  0  0  0
 10  4  1  0  0  0  0
 11  3  1  6  0  0  0
 12 11  1  6  0  0  0
 12 13  1  0  0  0  0
 12 14  1  0  0  0  0
 13 14  1  0  0  0  0
 13 24  1  1  0  0  0
 14 15  1  1  0  0  0
 15 16  1  1  0  0  0
 17 18  1  0  0  0  0
 17 15  1  0  0  0  0
 19 18  1  0  0  0  0
 20 19  1  0  0  0  0
 21 20  1  0  0  0  0
 22 23  2  0  0  0  0
 23 21  1  0  0  0  0
 24 25  1  0  0  0  0
 26 10  1  0  0  0  0
 27 29  1  0  0  0  0
 27 28  1  0  0  0  0
 28 26  1  1  0  0  0
 29 30  1  6  0  0  0
 29 28  1  0  0  0  0
 30 32  1  0  0  0  0
 32 31  1  0  0  0  0
M  END
>  <MODEL>
2

>  <REMARK>
 VINA RESULT:      -6.2      2.772      5.633
  Name = 
  13 active torsions:
  status: ('A' for Active; 'I' for Inactive)
    1  A    between atoms: C_1  and  N_4
    2  A    between atoms: C_1  and  C_30
    3  A    between atoms: C_2  and  C_27
    4  A    between atoms: N_4  and  S_17
    5  A    between atoms: C_5  and  S_14
    6  A    between atoms: C_6  and  S_17
    7  A    between atoms: C_6  and  C_29
    8  A    between atoms: O_7  and  C_26
    9  A    between atoms: O_7  and  C_31
   10  A    between atoms: C_12  and  O_28
   11  A    between atoms: C_18  and  C_25
   12  A    between atoms: C_18  and  C_29
   13  A    between atoms: O_28  and  C_32
                            x       y       z     vdW  Elec       q    Type
                         _______ _______ _______ _____ _____    ______ ____

>  <TORSDO>
F 13

$$$$
=
 OpenBabel11052414463D

 32 35  0  0  1  0  0  0  0  0999 V2000
  190.8300  176.5700  144.4980 C   0  0  0  0  0  0  0  0  0  0  0  0
  191.9180  176.2660  145.3620 N   0  0  0  0  0  1  0  0  0  0  0  0
  189.3200  178.9150  139.8490 O   0  0  0  0  0  1  0  0  0  0  0  0
  188.2260  176.4960  142.8560 S   0  0  0  0  0  0  0  0  0  0  0  0
  190.1680  177.1320  141.0800 C   0  0  0  0  0  0  0  0  0  0  0  0
  189.6450  177.2590  145.0600 C   0  0  0  0  0  3  0  0  0  0  0  0
  189.9110  176.7100  142.3090 C   0  0  0  0  0  0  0  0  0  0  0  0
  190.9680  176.3990  143.2140 N   0  0  0  0  0  0  0  0  0  0  0  0
  191.1150  177.4760  139.9640 O   0  0  0  0  0  0  0  0  0  0  0  0
  188.4930  177.4100  144.3980 C   0  0  0  0  0  0  0  0  0  0  0  0
  189.7600  177.5880  139.8500 C   0  0  2  0  0  0  0  0  0  0  0  0
  189.0890  176.5560  138.9490 C   0  0  1  0  0  3  0  0  0  0  0  0
  188.4880  177.2560  137.7430 C   0  0  1  0  0  3  0  0  0  0  0  0
  189.7890  176.4470  137.6000 C   0  0  2  0  0  3  0  0  0  0  0  0
  189.7030  175.0590  136.9180 C   0  0  1  0  0  3  0  0  0  0  0  0
  189.9530  175.0270  135.4140 C   0  0  0  0  0  1  0  0  0  0  0  0
  190.5210  174.0650  137.5990 N   0  0  0  0  0  2  0  0  0  0  0  0
  191.8820  173.6600  136.5450 S   0  0  0  0  0  0  0  0  0  0  0  0
  193.0760  174.5320  137.6020 C   0  0  0  0  0  2  0  0  0  0  0  0
  194.4850  174.0820  137.2710 C   0  0  0  0  0  2  0  0  0  0  0  0
  195.0450  173.2620  138.4190 C   0  0  0  0  0  2  0  0  0  0  0  0
  194.8750  171.2780  136.9810 C   0  0  0  0  0  2  0  0  0  0  0  0
  195.5450  171.9440  137.9210 C   0  0  0  0  0  3  0  0  0  0  0  0
  186.9270  176.4210  137.3030 S   0  0  0  0  0  0  0  0  0  0  0  0
  185.9620  177.9250  137.6090 C   0  0  0  0  0  1  0  0  0  0  0  0
  187.5180  178.2420  144.9880 O   0  0  0  0  0  0  0  0  0  0  0  0
  186.2820  178.5360  147.0990 C   0  0  0  0  0  2  0  0  0  0  0  0
  186.3220  177.9140  145.7190 C   0  0  1  0  0  3  0  0  0  0  0  0
  185.4240  179.1080  145.9770 C   0  0  1  0  0  3  0  0  0  0  0  0
  184.1080  178.6730  146.1310 O   0  0  0  0  0  0  0  0  0  0  0  0
  184.2820  179.8930  144.0970 C   0  0  0  0  0  1  0  0  0  0  0  0
  183.5340  178.8240  144.8650 C   0  0  0  0  0  2  0  0  0  0  0  0
  1  6  1  0  0  0  0
  1  2  1  0  0  0  0
  4 10  1  0  0  0  0
  5  7  2  0  0  0  0
  7  4  1  0  0  0  0
  7  8  1  0  0  0  0
  8  1  2  0  0  0  0
  9  5  1  0  0  0  0
 10 26  1  0  0  0  0
 10  6  2  0  0  0  0
 11  3  1  6  0  0  0
 11  9  1  0  0  0  0
 11  5  1  0  0  0  0
 12 11  1  1  0  0  0
 13 24  1  6  0  0  0
 13 12  1  0  0  0  0
 14 15  1  6  0  0  0
 14 13  1  0  0  0  0
 14 12  1  0  0  0  0
 15 16  1  6  0  0  0
 15 17  1  0  0  0  0
 18 17  1  0  0  0  0
 18 19  1  0  0  0  0
 20 19  1  0  0  0  0
 20 21  1  0  0  0  0
 22 23  2  0  0  0  0
 23 21  1  0  0  0  0
 24 25  1  0  0  0  0
 28 26  1  6  0  0  0
 28 29  1  0  0  0  0
 28 27  1  0  0  0  0
 29 30  1  1  0  0  0
 29 27  1  0  0  0  0
 31 32  1  0  0  0  0
 32 30  1  0  0  0  0
M  END
>  <MODEL>
3

>  <REMARK>
 VINA RESULT:      -6.1      3.270      8.275
  Name = 
  13 active torsions:
  status: ('A' for Active; 'I' for Inactive)
    1  A    between atoms: C_1  and  N_4
    2  A    between atoms: C_1  and  C_30
    3  A    between atoms: C_2  and  C_27
    4  A    between atoms: N_4  and  S_17
    5  A    between atoms: C_5  and  S_14
    6  A    between atoms: C_6  and  S_17
    7  A    between atoms: C_6  and  C_29
    8  A    between atoms: O_7  and  C_26
    9  A    between atoms: O_7  and  C_31
   10  A    between atoms: C_12  and  O_28
   11  A    between atoms: C_18  and  C_25
   12  A    between atoms: C_18  and  C_29
   13  A    between atoms: O_28  and  C_32
                            x       y       z     vdW  Elec       q    Type
                         _______ _______ _______ _____ _____    ______ ____

>  <TORSDO>
F 13

$$$$
=
 OpenBabel11052414463D

 32 35  0  0  1  0  0  0  0  0999 V2000
  190.9020  178.4410  143.8260 C   0  0  0  0  0  0  0  0  0  0  0  0
  192.0400  179.0970  144.3720 N   0  0  0  0  0  1  0  0  0  0  0  0
  187.1120  178.5310  139.9510 O   0  0  0  0  0  1  0  0  0  0  0  0
  188.8560  176.3620  142.8400 S   0  0  0  0  0  0  0  0  0  0  0  0
  189.2420  178.0300  140.7420 C   0  0  0  0  0  0  0  0  0  0  0  0
  189.7690  178.1150  144.7230 C   0  0  0  0  0  3  0  0  0  0  0  0
  189.6720  177.6710  141.9420 C   0  0  0  0  0  0  0  0  0  0  0  0
  190.8050  178.3030  142.5350 N   0  0  0  0  0  0  0  0  0  0  0  0
  189.3440  178.8430  139.4810 O   0  0  0  0  0  0  0  0  0  0  0  0
  188.7470  177.3280  144.3690 C   0  0  0  0  0  0  0  0  0  0  0  0
  188.3510  177.9340  139.7010 C   0  0  2  0  0  0  0  0  0  0  0  0
  188.4350  176.6570  138.8700 C   0  0  1  0  0  3  0  0  0  0  0  0
  187.8380  176.9100  137.4970 C   0  0  1  0  0  3  0  0  0  0  0  0
  189.3640  176.8230  137.6760 C   0  0  2  0  0  3  0  0  0  0  0  0
  190.0720  175.5290  137.2010 C   0  0  1  0  0  3  0  0  0  0  0  0
  190.5970  175.5300  135.7700 C   0  0  0  0  0  1  0  0  0  0  0  0
  191.1090  175.1030  138.1320 N   0  0  0  0  0  2  0  0  0  0  0  0
  192.6450  175.7930  137.5940 S   0  0  0  0  0  0  0  0  0  0  0  0
  193.4720  174.1750  137.5880 C   0  0  0  0  0  2  0  0  0  0  0  0
  194.9600  174.3550  137.3620 C   0  0  0  0  0  2  0  0  0  0  0  0
  195.2610  174.3070  135.8740 C   0  0  0  0  0  2  0  0  0  0  0  0
  197.3070  175.6570  135.7000 C   0  0  0  0  0  2  0  0  0  0  0  0
  196.0020  175.5370  135.4550 C   0  0  0  0  0  3  0  0  0  0  0  0
  186.9690  175.4010  136.9540 S   0  0  0  0  0  0  0  0  0  0  0  0
  186.5960  176.1230  135.3330 C   0  0  0  0  0  1  0  0  0  0  0  0
  187.6560  177.2540  145.2600 O   0  0  0  0  0  0  0  0  0  0  0  0
  185.5790  178.5320  145.6140 C   0  0  0  0  0  2  0  0  0  0  0  0
  186.2380  177.3080  145.0150 C   0  0  1  0  0  3  0  0  0  0  0  0
  185.8220  178.4520  144.1120 C   0  0  1  0  0  3  0  0  0  0  0  0
  184.6310  178.1220  143.4670 O   0  0  0  0  0  0  0  0  0  0  0  0
  183.4740  178.4360  141.4130 C   0  0  0  0  0  1  0  0  0  0  0  0
  184.7410  178.7000  142.1990 C   0  0  0  0  0  2  0  0  0  0  0  0
  1  2  1  0  0  0  0
  1  6  1  0  0  0  0
  4 10  1  0  0  0  0
  5  7  2  0  0  0  0
  7  8  1  0  0  0  0
  7  4  1  0  0  0  0
  8  1  2  0  0  0  0
  9 11  1  0  0  0  0
  9  5  1  0  0  0  0
 10  6  2  0  0  0  0
 10 26  1  0  0  0  0
 11  3  1  1  0  0  0
 11  5  1  0  0  0  0
 12 11  1  1  0  0  0
 13 24  1  6  0  0  0
 13 14  1  0  0  0  0
 13 12  1  0  0  0  0
 14 15  1  6  0  0  0
 14 12  1  0  0  0  0
 15 16  1  6  0  0  0
 15 17  1  0  0  0  0
 18 17  1  0  0  0  0
 19 18  1  0  0  0  0
 20 19  1  0  0  0  0
 21 20  1  0  0  0  0
 23 22  2  0  0  0  0
 23 21  1  0  0  0  0
 25 24  1  0  0  0  0
 28 26  1  1  0  0  0
 28 27  1  0  0  0  0
 29 30  1  6  0  0  0
 29 28  1  0  0  0  0
 29 27  1  0  0  0  0
 31 32  1  0  0  0  0
 32 30  1  0  0  0  0
M  END
>  <MODEL>
4

>  <REMARK>
 VINA RESULT:      -5.7      3.142      8.071
  Name = 
  13 active torsions:
  status: ('A' for Active; 'I' for Inactive)
    1  A    between atoms: C_1  and  N_4
    2  A    between atoms: C_1  and  C_30
    3  A    between atoms: C_2  and  C_27
    4  A    between atoms: N_4  and  S_17
    5  A    between atoms: C_5  and  S_14
    6  A    between atoms: C_6  and  S_17
    7  A    between atoms: C_6  and  C_29
    8  A    between atoms: O_7  and  C_26
    9  A    between atoms: O_7  and  C_31
   10  A    between atoms: C_12  and  O_28
   11  A    between atoms: C_18  and  C_25
   12  A    between atoms: C_18  and  C_29
   13  A    between atoms: O_28  and  C_32
                            x       y       z     vdW  Elec       q    Type
                         _______ _______ _______ _____ _____    ______ ____

>  <TORSDO>
F 13

$$$$
=
 OpenBabel11052414463D

 32 35  0  0  1  0  0  0  0  0999 V2000
  190.9310  176.7860  144.7020 C   0  0  0  0  0  0  0  0  0  0  0  0
  191.9110  176.7860  145.7320 N   0  0  0  0  0  1  0  0  0  0  0  0
  189.6200  178.6170  139.7700 O   0  0  0  0  0  1  0  0  0  0  0  0
  188.7280  176.0180  142.6920 S   0  0  0  0  0  0  0  0  0  0  0  0
  190.6950  177.1290  141.2000 C   0  0  0  0  0  0  0  0  0  0  0  0
  189.5350  177.1440  145.0450 C   0  0  0  0  0  3  0  0  0  0  0  0
  190.3650  176.6640  142.3950 C   0  0  0  0  0  0  0  0  0  0  0  0
  191.3100  176.6490  143.4630 N   0  0  0  0  0  0  0  0  0  0  0  0
  191.6840  177.7020  140.2230 O   0  0  0  0  0  0  0  0  0  0  0  0
  188.5030  176.9820  144.2110 C   0  0  0  0  0  0  0  0  0  0  0  0
  190.3820  177.4520  139.9020 C   0  0  2  0  0  0  0  0  0  0  0  0
  190.1520  176.2730  138.9610 C   0  0  1  0  0  3  0  0  0  0  0  0
  189.3550  176.7410  137.7550 C   0  0  1  0  0  3  0  0  0  0  0  0
  190.8650  176.4690  137.6290 C   0  0  2  0  0  3  0  0  0  0  0  0
  191.3060  175.1680  136.9150 C   0  0  1  0  0  3  0  0  0  0  0  0
  191.5840  175.2750  135.4200 C   0  0  0  0  0  1  0  0  0  0  0  0
  192.4150  174.5180  137.6010 N   0  0  0  0  0  2  0  0  0  0  0  0
  193.7380  175.6840  137.7280 S   0  0  0  0  0  0  0  0  0  0  0  0
  195.0070  174.3990  137.5270 C   0  0  0  0  0  2  0  0  0  0  0  0
  194.3680  173.0260  137.5800 C   0  0  0  0  0  2  0  0  0  0  0  0
  194.8810  172.1760  136.4310 C   0  0  0  0  0  2  0  0  0  0  0  0
  192.7530  171.7190  135.2920 C   0  0  0  0  0  2  0  0  0  0  0  0
  193.8100  171.2480  135.9530 C   0  0  0  0  0  3  0  0  0  0  0  0
  188.2180  175.4050  137.2560 S   0  0  0  0  0  0  0  0  0  0  0  0
  187.6590  176.3370  135.8050 C   0  0  0  0  0  1  0  0  0  0  0  0
  187.2660  177.5320  144.6060 O   0  0  0  0  0  0  0  0  0  0  0  0
  185.5490  178.1890  146.2470 C   0  0  0  0  0  2  0  0  0  0  0  0
  186.9360  178.4230  145.6880 C   0  0  1  0  0  3  0  0  0  0  0  0
  186.7750  177.7220  147.0230 C   0  0  1  0  0  3  0  0  0  0  0  0
  187.0430  178.6230  148.0530 O   0  0  0  0  0  0  0  0  0  0  0  0
  189.3600  178.2490  148.4360 C   0  0  0  0  0  1  0  0  0  0  0  0
  187.9450  177.9530  148.8850 C   0  0  0  0  0  2  0  0  0  0  0  0
  1  6  1  0  0  0  0
  1  2  1  0  0  0  0
  4 10  1  0  0  0  0
  5  7  2  0  0  0  0
  7  4  1  0  0  0  0
  7  8  1  0  0  0  0
  8  1  2  0  0  0  0
  9  5  1  0  0  0  0
 10 26  1  0  0  0  0
 10  6  2  0  0  0  0
 11  3  1  6  0  0  0
 11  9  1  0  0  0  0
 11  5  1  0  0  0  0
 12 11  1  1  0  0  0
 13 24  1  6  0  0  0
 13 12  1  0  0  0  0
 14 15  1  6  0  0  0
 14 13  1  0  0  0  0
 14 12  1  0  0  0  0
 15 16  1  6  0  0  0
 15 17  1  0  0  0  0
 17 18  1  0  0  0  0
 19 20  1  0  0  0  0
 19 18  1  0  0  0  0
 21 20  1  0  0  0  0
 22 23  2  0  0  0  0
 23 21  1  0  0  0  0
 25 24  1  0  0  0  0
 27 29  1  0  0  0  0
 28 26  1  6  0  0  0
 28 27  1  0  0  0  0
 28 29  1  0  0  0  0
 29 30  1  1  0  0  0
 30 32  1  0  0  0  0
 31 32  1  0  0  0  0
M  END
>  <MODEL>
5

>  <REMARK>
 VINA RESULT:      -5.7      3.304      9.023
  Name = 
  13 active torsions:
  status: ('A' for Active; 'I' for Inactive)
    1  A    between atoms: C_1  and  N_4
    2  A    between atoms: C_1  and  C_30
    3  A    between atoms: C_2  and  C_27
    4  A    between atoms: N_4  and  S_17
    5  A    between atoms: C_5  and  S_14
    6  A    between atoms: C_6  and  S_17
    7  A    between atoms: C_6  and  C_29
    8  A    between atoms: O_7  and  C_26
    9  A    between atoms: O_7  and  C_31
   10  A    between atoms: C_12  and  O_28
   11  A    between atoms: C_18  and  C_25
   12  A    between atoms: C_18  and  C_29
   13  A    between atoms: O_28  and  C_32
                            x       y       z     vdW  Elec       q    Type
                         _______ _______ _______ _____ _____    ______ ____

>  <TORSDO>
F 13

$$$$
=
 OpenBabel11052414463D

 32 35  0  0  1  0  0  0  0  0999 V2000
  183.8520  179.0070  143.8010 C   0  0  0  0  0  0  0  0  0  0  0  0
  183.3710  179.3750  145.0880 N   0  0  0  0  0  1  0  0  0  0  0  0
  183.0320  175.8980  139.4360 O   0  0  0  0  0  1  0  0  0  0  0  0
  185.0690  178.9940  140.9720 S   0  0  0  0  0  0  0  0  0  0  0  0
  182.6490  177.8070  140.7110 C   0  0  0  0  0  0  0  0  0  0  0  0
  185.2620  178.5740  143.6630 C   0  0  0  0  0  3  0  0  0  0  0  0
  183.4410  178.5010  141.5140 C   0  0  0  0  0  0  0  0  0  0  0  0
  183.0080  178.8880  142.8160 N   0  0  0  0  0  0  0  0  0  0  0  0
  181.3410  177.1410  140.3830 O   0  0  0  0  0  0  0  0  0  0  0  0
  185.8720  178.4030  142.4860 C   0  0  0  0  0  0  0  0  0  0  0  0
  182.4070  177.1450  139.5310 C   0  0  2  0  0  0  0  0  0  0  0  0
  182.2560  178.0260  138.2940 C   0  0  1  0  0  3  0  0  0  0  0  0
  181.6010  177.2240  137.1840 C   0  0  1  0  0  3  0  0  0  0  0  0
  180.7920  178.2780  137.9600 C   0  0  2  0  0  3  0  0  0  0  0  0
  180.4970  179.6240  137.2510 C   0  0  1  0  0  3  0  0  0  0  0  0
  179.1490  179.7380  136.5460 C   0  0  0  0  0  1  0  0  0  0  0  0
  180.7160  180.7630  138.1320 N   0  0  0  0  0  2  0  0  0  0  0  0
  179.1370  181.4170  138.5850 S   0  0  0  0  0  0  0  0  0  0  0  0
  179.6140  181.6000  140.3290 C   0  0  0  0  0  2  0  0  0  0  0  0
  179.8690  180.2380  140.9420 C   0  0  0  0  0  2  0  0  0  0  0  0
  179.7140  180.3170  142.4510 C   0  0  0  0  0  2  0  0  0  0  0  0
  179.7900  178.3270  143.8890 C   0  0  0  0  0  2  0  0  0  0  0  0
  179.1310  179.0460  142.9810 C   0  0  0  0  0  3  0  0  0  0  0  0
  182.3320  177.7320  135.5910 S   0  0  0  0  0  0  0  0  0  0  0  0
  182.0590  176.0910  134.8700 C   0  0  0  0  0  1  0  0  0  0  0  0
  187.1550  177.8170  142.5070 O   0  0  0  0  0  0  0  0  0  0  0  0
  188.9850  176.2130  142.8920 C   0  0  0  0  0  2  0  0  0  0  0  0
  187.7540  176.8990  143.4420 C   0  0  1  0  0  3  0  0  0  0  0  0
  189.1260  177.3300  143.9180 C   0  0  1  0  0  3  0  0  0  0  0  0
  189.3740  176.7780  145.1740 O   0  0  0  0  0  0  0  0  0  0  0  0
  187.9920  177.6550  146.8980 C   0  0  0  0  0  1  0  0  0  0  0  0
  189.2410  177.8460  146.0650 C   0  0  0  0  0  2  0  0  0  0  0  0
  1  2  1  0  0  0  0
  4  7  1  0  0  0  0
  4 10  1  0  0  0  0
  5  7  2  0  0  0  0
  6  1  1  0  0  0  0
  7  8  1  0  0  0  0
  8  1  2  0  0  0  0
  9  5  1  0  0  0  0
 10 26  1  0  0  0  0
 10  6  2  0  0  0  0
 11  3  1  6  0  0  0
 11  9  1  0  0  0  0
 11  5  1  0  0  0  0
 12 11  1  1  0  0  0
 13 24  1  6  0  0  0
 13 14  1  0  0  0  0
 13 12  1  0  0  0  0
 14 15  1  6  0  0  0
 14 12  1  0  0  0  0
 15 16  1  1  0  0  0
 15 17  1  0  0  0  0
 17 18  1  0  0  0  0
 18 19  1  0  0  0  0
 19 20  1  0  0  0  0
 20 21  1  0  0  0  0
 21 23  1  0  0  0  0
 23 22  2  0  0  0  0
 25 24  1  0  0  0  0
 27 28  1  0  0  0  0
 27 29  1  0  0  0  0
 28 26  1  6  0  0  0
 28 29  1  0  0  0  0
 29 30  1  1  0  0  0
 30 32  1  0  0  0  0
 32 31  1  0  0  0  0
M  END
>  <MODEL>
6

>  <REMARK>
 VINA RESULT:      -5.6      4.406      9.060
  Name = 
  13 active torsions:
  status: ('A' for Active; 'I' for Inactive)
    1  A    between atoms: C_1  and  N_4
    2  A    between atoms: C_1  and  C_30
    3  A    between atoms: C_2  and  C_27
    4  A    between atoms: N_4  and  S_17
    5  A    between atoms: C_5  and  S_14
    6  A    between atoms: C_6  and  S_17
    7  A    between atoms: C_6  and  C_29
    8  A    between atoms: O_7  and  C_26
    9  A    between atoms: O_7  and  C_31
   10  A    between atoms: C_12  and  O_28
   11  A    between atoms: C_18  and  C_25
   12  A    between atoms: C_18  and  C_29
   13  A    between atoms: O_28  and  C_32
                            x       y       z     vdW  Elec       q    Type
                         _______ _______ _______ _____ _____    ______ ____

>  <TORSDO>
F 13

$$$$
=
 OpenBabel11052414463D

 32 35  0  0  1  0  0  0  0  0999 V2000
  184.2320  175.1600  137.7140 C   0  0  0  0  0  0  0  0  0  0  0  0
  184.2020  173.7560  137.4930 N   0  0  0  0  0  1  0  0  0  0  0  0
  181.5370  179.8350  137.1910 O   0  0  0  0  0  1  0  0  0  0  0  0
  184.6730  177.9800  138.8690 S   0  0  0  0  0  0  0  0  0  0  0  0
  182.0290  177.8500  138.3010 C   0  0  0  0  0  0  0  0  0  0  0  0
  185.3850  175.9370  137.2040 C   0  0  0  0  0  3  0  0  0  0  0  0
  183.1540  177.1610  138.4140 C   0  0  0  0  0  0  0  0  0  0  0  0
  183.1770  175.7520  138.1950 N   0  0  0  0  0  0  0  0  0  0  0  0
  180.5470  177.9470  138.0620 O   0  0  0  0  0  0  0  0  0  0  0  0
  185.6180  177.2140  137.5260 C   0  0  0  0  0  0  0  0  0  0  0  0
  181.3320  179.0340  138.3180 C   0  0  2  0  0  0  0  0  0  0  0  0
  181.1400  179.6730  139.6900 C   0  0  1  0  0  3  0  0  0  0  0  0
  179.6860  179.5440  140.1060 C   0  0  1  0  0  3  0  0  0  0  0  0
  180.7570  178.6410  140.7430 C   0  0  2  0  0  3  0  0  0  0  0  0
  181.2090  178.9680  142.1870 C   0  0  1  0  0  3  0  0  0  0  0  0
  180.4600  178.2580  143.3100 C   0  0  0  0  0  1  0  0  0  0  0  0
  182.6490  178.8210  142.3550 N   0  0  0  0  0  2  0  0  0  0  0  0
  183.0370  179.1280  144.0520 S   0  0  0  0  0  0  0  0  0  0  0  0
  184.7200  178.4650  143.8790 C   0  0  0  0  0  2  0  0  0  0  0  0
  185.4600  178.5820  145.1970 C   0  0  0  0  0  2  0  0  0  0  0  0
  186.5130  177.4920  145.2920 C   0  0  0  0  0  2  0  0  0  0  0  0
  187.9320  176.4310  143.5900 C   0  0  0  0  0  2  0  0  0  0  0  0
  187.4290  177.5500  144.1120 C   0  0  0  0  0  3  0  0  0  0  0  0
  179.2070  181.0490  141.0190 S   0  0  0  0  0  0  0  0  0  0  0  0
  179.2230  182.0490  139.5070 C   0  0  0  0  0  1  0  0  0  0  0  0
  186.6490  177.8750  136.8260 O   0  0  0  0  0  0  0  0  0  0  0  0
  188.7010  179.1890  137.1940 C   0  0  0  0  0  2  0  0  0  0  0  0
  188.0790  177.8240  136.9890 C   0  0  1  0  0  3  0  0  0  0  0  0
  188.5460  178.2330  138.3710 C   0  0  1  0  0  3  0  0  0  0  0  0
  189.7730  177.6290  138.6420 O   0  0  0  0  0  0  0  0  0  0  0  0
  191.0710  177.1290  140.5710 C   0  0  0  0  0  1  0  0  0  0  0  0
  189.6820  177.2220  139.9770 C   0  0  0  0  0  2  0  0  0  0  0  0
  1  8  2  0  0  0  0
  2  1  1  0  0  0  0
  5 11  1  0  0  0  0
  5  7  2  0  0  0  0
  6 10  2  0  0  0  0
  6  1  1  0  0  0  0
  7  4  1  0  0  0  0
  8  7  1  0  0  0  0
  9  5  1  0  0  0  0
  9 11  1  0  0  0  0
 10  4  1  0  0  0  0
 11  3  1  6  0  0  0
 12 11  1  6  0  0  0
 12 13  1  0  0  0  0
 12 14  1  0  0  0  0
 13 14  1  0  0  0  0
 13 24  1  1  0  0  0
 14 15  1  1  0  0  0
 15 17  1  0  0  0  0
 15 16  1  1  0  0  0
 17 18  1  0  0  0  0
 19 18  1  0  0  0  0
 19 20  1  0  0  0  0
 20 21  1  0  0  0  0
 22 23  2  0  0  0  0
 23 21  1  0  0  0  0
 25 24  1  0  0  0  0
 26 10  1  0  0  0  0
 27 29  1  0  0  0  0
 28 26  1  1  0  0  0
 28 27  1  0  0  0  0
 28 29  1  0  0  0  0
 29 30  1  6  0  0  0
 30 32  1  0  0  0  0
 32 31  1  0  0  0  0
M  END
>  <MODEL>
7

>  <REMARK>
 VINA RESULT:      -5.5      4.092      6.549
  Name = 
  13 active torsions:
  status: ('A' for Active; 'I' for Inactive)
    1  A    between atoms: C_1  and  N_4
    2  A    between atoms: C_1  and  C_30
    3  A    between atoms: C_2  and  C_27
    4  A    between atoms: N_4  and  S_17
    5  A    between atoms: C_5  and  S_14
    6  A    between atoms: C_6  and  S_17
    7  A    between atoms: C_6  and  C_29
    8  A    between atoms: O_7  and  C_26
    9  A    between atoms: O_7  and  C_31
   10  A    between atoms: C_12  and  O_28
   11  A    between atoms: C_18  and  C_25
   12  A    between atoms: C_18  and  C_29
   13  A    between atoms: O_28  and  C_32
                            x       y       z     vdW  Elec       q    Type
                         _______ _______ _______ _____ _____    ______ ____

>  <TORSDO>
F 13

$$$$
=
 OpenBabel11052414463D

 32 35  0  0  1  0  0  0  0  0999 V2000
  182.9710  178.8080  144.0910 C   0  0  0  0  0  0  0  0  0  0  0  0
  183.2430  179.0100  145.4720 N   0  0  0  0  0  1  0  0  0  0  0  0
  184.3090  180.1700  139.0170 O   0  0  0  0  0  1  0  0  0  0  0  0
  182.2750  177.6100  141.3410 S   0  0  0  0  0  0  0  0  0  0  0  0
  184.6050  178.9380  140.9690 C   0  0  0  0  0  0  0  0  0  0  0  0
  181.5780  178.9610  143.6090 C   0  0  0  0  0  3  0  0  0  0  0  0
  183.7390  178.4860  141.8630 C   0  0  0  0  0  0  0  0  0  0  0  0
  183.9640  178.6700  143.2590 N   0  0  0  0  0  0  0  0  0  0  0  0
  185.8960  179.6090  140.5890 O   0  0  0  0  0  0  0  0  0  0  0  0
  181.1750  178.6000  142.3860 C   0  0  0  0  0  0  0  0  0  0  0  0
  185.0010  179.1450  139.6690 C   0  0  2  0  0  0  0  0  0  0  0  0
  185.4340  177.9000  138.9010 C   0  0  1  0  0  3  0  0  0  0  0  0
  184.7580  177.8880  137.5410 C   0  0  1  0  0  3  0  0  0  0  0  0
  186.2470  178.2590  137.6630 C   0  0  2  0  0  3  0  0  0  0  0  0
  187.2900  177.2000  137.2260 C   0  0  1  0  0  3  0  0  0  0  0  0
  188.1750  177.5700  136.0410 C   0  0  0  0  0  1  0  0  0  0  0  0
  188.0970  176.7350  138.3470 N   0  0  0  0  0  2  0  0  0  0  0  0
  189.3660  177.9300  138.6420 S   0  0  0  0  0  0  0  0  0  0  0  0
  190.2380  176.8450  139.8110 C   0  0  0  0  0  2  0  0  0  0  0  0
  190.0450  177.3500  141.2280 C   0  0  0  0  0  2  0  0  0  0  0  0
  188.6440  177.9150  141.3830 C   0  0  0  0  0  2  0  0  0  0  0  0
  188.6130  176.6720  143.5020 C   0  0  0  0  0  2  0  0  0  0  0  0
  187.9290  177.2290  142.5030 C   0  0  0  0  0  3  0  0  0  0  0  0
  184.3550  176.1630  137.1080 S   0  0  0  0  0  0  0  0  0  0  0  0
  183.1650  176.6910  135.8460 C   0  0  0  0  0  1  0  0  0  0  0  0
  179.8670  178.9710  142.0070 O   0  0  0  0  0  0  0  0  0  0  0  0
  179.3080  181.1770  141.0620 C   0  0  0  0  0  2  0  0  0  0  0  0
  179.3900  179.6810  140.8480 C   0  0  1  0  0  3  0  0  0  0  0  0
  180.4320  180.5850  140.2210 C   0  0  1  0  0  3  0  0  0  0  0  0
  180.1390  180.7580  138.8680 O   0  0  0  0  0  0  0  0  0  0  0  0
  181.0440  178.8140  137.8410 C   0  0  0  0  0  1  0  0  0  0  0  0
  181.2630  180.2700  138.1960 C   0  0  0  0  0  2  0  0  0  0  0  0
  1  2  1  0  0  0  0
  4  7  1  0  0  0  0
  4 10  1  0  0  0  0
  5  7  2  0  0  0  0
  6  1  1  0  0  0  0
  7  8  1  0  0  0  0
  8  1  2  0  0  0  0
  9  5  1  0  0  0  0
 10  6  2  0  0  0  0
 11  3  1  6  0  0  0
 11  9  1  0  0  0  0
 11  5  1  0  0  0  0
 12 11  1  1  0  0  0
 13 24  1  6  0  0  0
 13 14  1  0  0  0  0
 13 12  1  0  0  0  0
 14 15  1  6  0  0  0
 14 12  1  0  0  0  0
 15 16  1  6  0  0  0
 15 17  1  0  0  0  0
 17 18  1  0  0  0  0
 18 19  1  0  0  0  0
 19 20  1  0  0  0  0
 20 21  1  0  0  0  0
 21 23  1  0  0  0  0
 23 22  2  0  0  0  0
 25 24  1  0  0  0  0
 26 10  1  0  0  0  0
 28 27  1  0  0  0  0
 28 26  1  1  0  0  0
 29 30  1  6  0  0  0
 29 28  1  0  0  0  0
 29 27  1  0  0  0  0
 31 32  1  0  0  0  0
 32 30  1  0  0  0  0
M  END
>  <MODEL>
8

>  <REMARK>
 VINA RESULT:      -5.3      3.806      8.043
  Name = 
  13 active torsions:
  status: ('A' for Active; 'I' for Inactive)
    1  A    between atoms: C_1  and  N_4
    2  A    between atoms: C_1  and  C_30
    3  A    between atoms: C_2  and  C_27
    4  A    between atoms: N_4  and  S_17
    5  A    between atoms: C_5  and  S_14
    6  A    between atoms: C_6  and  S_17
    7  A    between atoms: C_6  and  C_29
    8  A    between atoms: O_7  and  C_26
    9  A    between atoms: O_7  and  C_31
   10  A    between atoms: C_12  and  O_28
   11  A    between atoms: C_18  and  C_25
   12  A    between atoms: C_18  and  C_29
   13  A    between atoms: O_28  and  C_32
                            x       y       z     vdW  Elec       q    Type
                         _______ _______ _______ _____ _____    ______ ____

>  <TORSDO>
F 13

$$$$
=
 OpenBabel11052414463D

 32 35  0  0  1  0  0  0  0  0999 V2000
  190.2410  177.1800  143.4580 C   0  0  0  0  0  0  0  0  0  0  0  0
  191.6530  177.0120  143.4620 N   0  0  0  0  0  1  0  0  0  0  0  0
  186.0630  179.9410  141.3820 O   0  0  0  0  0  1  0  0  0  0  0  0
  187.1940  176.7400  143.5190 S   0  0  0  0  0  0  0  0  0  0  0  0
  187.6520  178.2420  141.3130 C   0  0  0  0  0  0  0  0  0  0  0  0
  189.5450  177.3840  144.7500 C   0  0  0  0  0  3  0  0  0  0  0  0
  188.2070  177.5180  142.2730 C   0  0  0  0  0  0  0  0  0  0  0  0
  189.6190  177.3270  142.3230 N   0  0  0  0  0  0  0  0  0  0  0  0
  187.7240  179.0590  140.0530 O   0  0  0  0  0  0  0  0  0  0  0  0
  188.2150  177.3490  144.8870 C   0  0  0  0  0  0  0  0  0  0  0  0
  186.5560  178.8160  140.7150 C   0  0  2  0  0  0  0  0  0  0  0  0
  185.5970  177.8520  140.0220 C   0  0  1  0  0  3  0  0  0  0  0  0
  184.3210  178.5900  139.6560 C   0  0  1  0  0  3  0  0  0  0  0  0
  185.3560  178.2460  138.5700 C   0  0  2  0  0  3  0  0  0  0  0  0
  185.0310  177.0740  137.6110 C   0  0  1  0  0  3  0  0  0  0  0  0
  184.2710  177.4310  136.3380 C   0  0  0  0  0  1  0  0  0  0  0  0
  186.2120  176.2800  137.3010 N   0  0  0  0  0  2  0  0  0  0  0  0
  185.8240  175.2330  135.9300 S   0  0  0  0  0  0  0  0  0  0  0  0
  185.8000  173.7380  136.9630 C   0  0  0  0  0  2  0  0  0  0  0  0
  184.3730  173.3840  137.3290 C   0  0  0  0  0  2  0  0  0  0  0  0
  184.1410  171.9000  137.1100 C   0  0  0  0  0  2  0  0  0  0  0  0
  181.7230  172.3310  137.0590 C   0  0  0  0  0  2  0  0  0  0  0  0
  182.7670  171.6630  136.5690 C   0  0  0  0  0  3  0  0  0  0  0  0
  182.9120  177.4500  139.8630 S   0  0  0  0  0  0  0  0  0  0  0  0
  181.7130  178.7970  139.6680 C   0  0  0  0  0  1  0  0  0  0  0  0
  187.6890  177.7380  146.1370 O   0  0  0  0  0  0  0  0  0  0  0  0
  186.1610  179.2510  147.3400 C   0  0  0  0  0  2  0  0  0  0  0  0
  186.3300  177.9690  146.5540 C   0  0  1  0  0  3  0  0  0  0  0  0
  185.6900  179.1740  145.8930 C   0  0  1  0  0  3  0  0  0  0  0  0
  184.3060  179.0050  145.8640 O   0  0  0  0  0  0  0  0  0  0  0  0
  182.5580  178.9920  144.2530 C   0  0  0  0  0  1  0  0  0  0  0  0
  184.0150  178.6890  144.5340 C   0  0  0  0  0  2  0  0  0  0  0  0
  1  2  1  0  0  0  0
  1  6  1  0  0  0  0
  4 10  1  0  0  0  0
  5  7  2  0  0  0  0
  6 10  2  0  0  0  0
  7  8  1  0  0  0  0
  7  4  1  0  0  0  0
  8  1  2  0  0  0  0
  9 11  1  0  0  0  0
  9  5  1  0  0  0  0
 10 26  1  0  0  0  0
 11  5  1  0  0  0  0
 11  3  1  1  0  0  0
 12 11  1  1  0  0  0
 13 24  1  6  0  0  0
 13 12  1  0  0  0  0
 14 15  1  6  0  0  0
 14 13  1  0  0  0  0
 14 12  1  0  0  0  0
 15 16  1  6  0  0  0
 17 15  1  0  0  0  0
 18 19  1  0  0  0  0
 18 17  1  0  0  0  0
 19 20  1  0  0  0  0
 21 20  1  0  0  0  0
 23 22  2  0  0  0  0
 23 21  1  0  0  0  0
 25 24  1  0  0  0  0
 28 26  1  6  0  0  0
 28 27  1  0  0  0  0
 29 30  1  1  0  0  0
 29 28  1  0  0  0  0
 29 27  1  0  0  0  0
 31 32  1  0  0  0  0
 32 30  1  0  0  0  0
M  END
>  <MODEL>
9

>  <REMARK>
 VINA RESULT:      -5.3      3.354      8.315
  Name = 
  13 active torsions:
  status: ('A' for Active; 'I' for Inactive)
    1  A    between atoms: C_1  and  N_4
    2  A    between atoms: C_1  and  C_30
    3  A    between atoms: C_2  and  C_27
    4  A    between atoms: N_4  and  S_17
    5  A    between atoms: C_5  and  S_14
    6  A    between atoms: C_6  and  S_17
    7  A    between atoms: C_6  and  C_29
    8  A    between atoms: O_7  and  C_26
    9  A    between atoms: O_7  and  C_31
   10  A    between atoms: C_12  and  O_28
   11  A    between atoms: C_18  and  C_25
   12  A    between atoms: C_18  and  C_29
   13  A    between atoms: O_28  and  C_32
                            x       y       z     vdW  Elec       q    Type
                         _______ _______ _______ _____ _____    ______ ____

>  <TORSDO>
F 13

$$$$
