=
 OpenBabel11052415283D

 37 36  0  0  1  0  0  0  0  0999 V2000
  187.0080  177.2570  137.6910 C   0  0  2  0  0  3  0  0  0  0  0  0
  188.4430  177.7130  138.0060 C   0  0  1  0  0  3  0  0  0  0  0  0
  188.9850  179.6770  137.3140 O   0  0  0  0  0  1  0  0  0  0  0  0
  188.5150  179.0610  138.3800 O   0  0  0  0  0  0  0  0  0  0  0  0
  189.0780  176.8290  139.0820 C   0  0  0  0  0  2  0  0  0  0  0  0
  190.4380  177.3470  139.5400 C   0  0  2  0  0  3  0  0  0  0  0  0
  191.4440  176.7930  138.7490 O   0  0  0  0  0  1  0  0  0  0  0  0
  190.6790  176.9560  140.9910 C   0  0  0  0  0  2  0  0  0  0  0  0
  189.3970  176.9230  141.8270 C   0  0  2  0  0  3  0  0  0  0  0  0
  188.7870  178.1790  141.8980 O   0  0  0  0  0  0  0  0  0  0  0  0
  187.8430  178.0420  142.8070 O   0  0  0  0  0  1  0  0  0  0  0  0
  189.5960  176.3100  143.2130 C   0  0  0  0  0  2  0  0  0  0  0  0
  191.0630  176.2080  143.6020 C   0  0  0  0  0  2  0  0  0  0  0  0
  191.2210  176.5820  145.0610 C   0  0  0  0  0  2  0  0  0  0  0  0
  189.9040  177.0720  147.0960 C   0  0  0  0  0  1  0  0  0  0  0  0
  189.9150  177.1420  145.5830 C   0  0  0  0  0  2  0  0  0  0  0  0
  186.8870  176.9010  136.2120 C   0  0  0  0  0  2  0  0  0  0  0  0
  187.7110  174.8870  134.9650 C   0  0  0  0  0  1  0  0  0  0  0  0
  186.7170  175.4000  135.9950 C   0  0  1  0  0  3  0  0  0  0  0  0
  185.7300  173.6460  137.3260 C   0  0  0  0  0  1  0  0  0  0  0  0
  186.7990  174.6380  137.2460 N   0  0  0  0  0  2  0  0  0  0  0  0
  185.9730  178.3280  138.0180 C   0  0  0  0  0  2  0  0  0  0  0  0
  185.1120  177.8800  139.1070 N   0  0  0  0  0  0  0  0  0  0  0  0
  185.1940  178.8400  140.2180 C   0  0  0  0  0  2  0  0  0  0  0  0
  184.2400  178.7800  142.4820 C   0  0  0  0  0  3  0  0  0  0  0  0
  184.0290  178.7620  141.1660 C   0  0  0  0  0  3  0  0  0  0  0  0
  183.1000  178.6930  143.4510 C   0  0  0  0  0  2  0  0  0  0  0  0
  183.5520  179.0270  144.8640 C   0  0  0  0  0  2  0  0  0  0  0  0
  185.0490  179.3020  144.8930 C   0  0  0  0  0  2  0  0  0  0  0  0
  185.6490  178.8390  146.2090 C   0  0  0  0  0  2  0  0  0  0  0  0
  186.3550  177.5080  146.0300 C   0  0  0  0  0  1  0  0  0  0  0  0
  183.7400  177.7900  138.6140 C   0  0  0  0  0  2  0  0  0  0  0  0
  183.4840  176.4200  137.9980 C   0  0  0  0  0  2  0  0  0  0  0  0
  182.2650  175.8690  139.9670 O   0  0  0  0  0  0  0  0  0  0  0  0
  182.3980  175.6980  138.7250 C   0  0  0  0  0  0  0  0  0  0  0  0
  181.5550  174.8290  138.0290 O   0  0  0  0  0  0  0  0  0  0  0  0
  181.5030  174.8090  136.6110 C   0  0  0  0  0  1  0  0  0  0  0  0
  1 17  1  6  0  0  0
  1  2  1  0  0  0  0
  1 22  1  0  0  0  0
  2  4  1  0  0  0  0
  2  5  1  1  0  0  0
  3  4  1  0  0  0  0
  5  6  1  0  0  0  0
  6  7  1  6  0  0  0
  6  8  1  0  0  0  0
  9  8  1  1  0  0  0
  9 10  1  0  0  0  0
  9 12  1  0  0  0  0
 10 11  1  0  0  0  0
 12 13  1  0  0  0  0
 13 14  1  0  0  0  0
 14 16  1  0  0  0  0
 16 15  1  0  0  0  0
 19 18  1  6  0  0  0
 19 17  1  0  0  0  0
 19 21  1  0  0  0  0
 21 20  1  0  0  0  0
 22 23  1  0  0  0  0
 23 24  1  0  0  0  0
 24 26  1  0  0  0  0
 25 27  1  0  0  0  0
 26 25  2  0  0  0  0
 27 28  1  0  0  0  0
 28 29  1  0  0  0  0
 29 30  1  0  0  0  0
 31 30  1  0  0  0  0
 32 23  1  0  0  0  0
 33 32  1  0  0  0  0
 33 35  1  0  0  0  0
 35 34  2  0  0  0  0
 36 35  1  0  0  0  0
 37 36  1  0  0  0  0
M  END
>  <MODEL>
1

>  <REMARK>
 VINA RESULT:      -5.5      0.000      0.000
  Name = 
  26 active torsions:
  status: ('A' for Active; 'I' for Inactive)
    1  A    between atoms: O_1  and  C_23
    2  A    between atoms: O_2  and  C_8
    3  A    between atoms: C_3  and  C_15
    4  A    between atoms: C_3  and  C_30
    5  A    between atoms: C_4  and  C_10
    6  A    between atoms: C_4  and  C_24
    7  A    between atoms: C_6  and  C_8
    8  A    between atoms: C_6  and  C_31
    9  A    between atoms: C_7  and  C_33
   10  A    between atoms: C_8  and  C_19
   11  A    between atoms: C_10  and  C_13
   12  A    between atoms: C_10  and  C_30
   13  A    between atoms: C_11  and  C_26
   14  A    between atoms: C_13  and  N_20
   15  A    between atoms: C_14  and  C_31
   16  A    between atoms: C_14  and  C_37
   17  A    between atoms: C_15  and  C_19
   18  A    between atoms: C_17  and  C_26
   19  A    between atoms: C_17  and  C_33
   20  A    between atoms: N_20  and  C_21
   21  A    between atoms: N_20  and  C_29
   22  A    between atoms: C_21  and  C_25
   23  A    between atoms: C_23  and  C_25
   24  A    between atoms: C_24  and  N_28
   25  A    between atoms: C_29  and  C_36
   26  A    between atoms: C_30  and  O_32
                            x       y       z     vdW  Elec       q    Type
                         _______ _______ _______ _____ _____    ______ ____

>  <TORSDO>
F 26

$$$$
=
 OpenBabel11052415283D

 37 36  0  0  1  0  0  0  0  0999 V2000
  189.0690  177.6290  141.7940 C   0  0  2  0  0  3  0  0  0  0  0  0
  187.5930  177.4890  142.2010 C   0  0  1  0  0  3  0  0  0  0  0  0
  188.0180  175.6050  143.1490 O   0  0  0  0  0  1  0  0  0  0  0  0
  187.4220  176.7560  143.3830 O   0  0  0  0  0  0  0  0  0  0  0  0
  186.9230  178.8590  142.3260 C   0  0  0  0  0  2  0  0  0  0  0  0
  185.4390  178.8220  141.9760 C   0  0  2  0  0  3  0  0  0  0  0  0
  185.2240  179.4810  140.7650 O   0  0  0  0  0  1  0  0  0  0  0  0
  184.6320  179.5130  143.0650 C   0  0  0  0  0  2  0  0  0  0  0  0
  184.3290  178.6050  144.2590 C   0  0  2  0  0  3  0  0  0  0  0  0
  182.9550  178.4460  144.4590 O   0  0  0  0  0  0  0  0  0  0  0  0
  182.3960  179.3310  143.6590 O   0  0  0  0  0  1  0  0  0  0  0  0
  185.0430  179.0350  145.5410 C   0  0  0  0  0  2  0  0  0  0  0  0
  185.8590  177.9110  146.1620 C   0  0  0  0  0  2  0  0  0  0  0  0
  187.2840  178.3810  146.3650 C   0  0  0  0  0  2  0  0  0  0  0  0
  188.9000  177.9790  148.1940 C   0  0  0  0  0  1  0  0  0  0  0  0
  188.0620  177.3220  147.1170 C   0  0  0  0  0  2  0  0  0  0  0  0
  189.7900  178.5620  142.7620 C   0  0  0  0  0  2  0  0  0  0  0  0
  191.8620  178.9410  144.1230 C   0  0  0  0  0  1  0  0  0  0  0  0
  191.0400  177.9180  143.3560 C   0  0  1  0  0  3  0  0  0  0  0  0
  191.7150  175.6880  143.9840 C   0  0  0  0  0  1  0  0  0  0  0  0
  190.7300  176.7480  144.1850 N   0  0  0  0  0  2  0  0  0  0  0  0
  189.2330  178.1770  140.3800 C   0  0  0  0  0  2  0  0  0  0  0  0
  189.4880  177.0880  139.4440 N   0  0  0  0  0  0  0  0  0  0  0  0
  189.1590  177.5310  138.0810 C   0  0  0  0  0  2  0  0  0  0  0  0
  187.1740  177.7590  136.6500 C   0  0  0  0  0  3  0  0  0  0  0  0
  187.7980  177.0880  137.6170 C   0  0  0  0  0  3  0  0  0  0  0  0
  185.8140  177.3480  136.1740 C   0  0  0  0  0  2  0  0  0  0  0  0
  185.0080  176.7100  137.2950 C   0  0  0  0  0  2  0  0  0  0  0  0
  184.1360  177.7510  137.9830 C   0  0  0  0  0  2  0  0  0  0  0  0
  182.8290  177.1300  138.4430 C   0  0  0  0  0  2  0  0  0  0  0  0
  182.8090  176.9950  139.9540 C   0  0  0  0  0  1  0  0  0  0  0  0
  190.8970  176.7160  139.5310 C   0  0  0  0  0  2  0  0  0  0  0  0
  191.3000  175.8650  138.3340 C   0  0  0  0  0  2  0  0  0  0  0  0
  193.4720  176.7860  138.6460 O   0  0  0  0  0  0  0  0  0  0  0  0
  192.6680  176.2210  137.8560 C   0  0  0  0  0  0  0  0  0  0  0  0
  193.0390  175.9420  136.5390 O   0  0  0  0  0  0  0  0  0  0  0  0
  194.2630  176.4080  135.9890 C   0  0  0  0  0  1  0  0  0  0  0  0
  1 22  1  6  0  0  0
  1  2  1  0  0  0  0
  1 17  1  0  0  0  0
  2  5  1  1  0  0  0
  2  4  1  0  0  0  0
  3  4  1  0  0  0  0
  6  7  1  6  0  0  0
  6  5  1  0  0  0  0
  6  8  1  0  0  0  0
  9  8  1  6  0  0  0
  9 10  1  0  0  0  0
  9 12  1  0  0  0  0
 11 10  1  0  0  0  0
 12 13  1  0  0  0  0
 13 14  1  0  0  0  0
 14 16  1  0  0  0  0
 16 15  1  0  0  0  0
 17 19  1  0  0  0  0
 19 18  1  1  0  0  0
 19 21  1  0  0  0  0
 20 21  1  0  0  0  0
 23 32  1  0  0  0  0
 23 22  1  0  0  0  0
 24 23  1  0  0  0  0
 25 26  2  0  0  0  0
 26 24  1  0  0  0  0
 27 25  1  0  0  0  0
 27 28  1  0  0  0  0
 28 29  1  0  0  0  0
 29 30  1  0  0  0  0
 30 31  1  0  0  0  0
 33 32  1  0  0  0  0
 35 33  1  0  0  0  0
 35 34  2  0  0  0  0
 36 35  1  0  0  0  0
 37 36  1  0  0  0  0
M  END
>  <MODEL>
2

>  <REMARK>
 VINA RESULT:      -5.3      2.642      7.284
  Name = 
  26 active torsions:
  status: ('A' for Active; 'I' for Inactive)
    1  A    between atoms: O_1  and  C_23
    2  A    between atoms: O_2  and  C_8
    3  A    between atoms: C_3  and  C_15
    4  A    between atoms: C_3  and  C_30
    5  A    between atoms: C_4  and  C_10
    6  A    between atoms: C_4  and  C_24
    7  A    between atoms: C_6  and  C_8
    8  A    between atoms: C_6  and  C_31
    9  A    between atoms: C_7  and  C_33
   10  A    between atoms: C_8  and  C_19
   11  A    between atoms: C_10  and  C_13
   12  A    between atoms: C_10  and  C_30
   13  A    between atoms: C_11  and  C_26
   14  A    between atoms: C_13  and  N_20
   15  A    between atoms: C_14  and  C_31
   16  A    between atoms: C_14  and  C_37
   17  A    between atoms: C_15  and  C_19
   18  A    between atoms: C_17  and  C_26
   19  A    between atoms: C_17  and  C_33
   20  A    between atoms: N_20  and  C_21
   21  A    between atoms: N_20  and  C_29
   22  A    between atoms: C_21  and  C_25
   23  A    between atoms: C_23  and  C_25
   24  A    between atoms: C_24  and  N_28
   25  A    between atoms: C_29  and  C_36
   26  A    between atoms: C_30  and  O_32
                            x       y       z     vdW  Elec       q    Type
                         _______ _______ _______ _____ _____    ______ ____

>  <TORSDO>
F 26

$$$$
=
 OpenBabel11052415283D

 37 36  0  0  1  0  0  0  0  0999 V2000
  187.3070  177.8990  144.3090 C   0  0  2  0  0  3  0  0  0  0  0  0
  188.7770  177.7920  143.8680 C   0  0  1  0  0  3  0  0  0  0  0  0
  190.3760  179.1540  144.3370 O   0  0  0  0  0  1  0  0  0  0  0  0
  189.6760  178.1750  144.8730 O   0  0  0  0  0  0  0  0  0  0  0  0
  189.1040  176.3810  143.3750 C   0  0  0  0  0  2  0  0  0  0  0  0
  190.0430  176.3810  142.1730 C   0  0  2  0  0  3  0  0  0  0  0  0
  191.3510  176.6140  142.5970 O   0  0  0  0  0  1  0  0  0  0  0  0
  189.6360  177.4760  141.1980 C   0  0  0  0  0  2  0  0  0  0  0  0
  189.5200  176.9850  139.7530 C   0  0  2  0  0  3  0  0  0  0  0  0
  190.4920  176.0270  139.4480 O   0  0  0  0  0  0  0  0  0  0  0  0
  191.5130  176.7220  138.9890 O   0  0  0  0  0  1  0  0  0  0  0  0
  189.5000  178.1190  138.7290 C   0  0  0  0  0  2  0  0  0  0  0  0
  188.1280  178.3170  138.1030 C   0  0  0  0  0  2  0  0  0  0  0  0
  188.2630  178.3270  136.5950 C   0  0  0  0  0  2  0  0  0  0  0  0
  189.0990  176.4000  135.2890 C   0  0  0  0  0  1  0  0  0  0  0  0
  189.4980  177.5470  136.1930 C   0  0  0  0  0  2  0  0  0  0  0  0
  187.1010  177.1470  145.6200 C   0  0  0  0  0  2  0  0  0  0  0  0
  185.8630  178.5910  147.2550 C   0  0  0  0  0  1  0  0  0  0  0  0
  187.2260  178.0650  146.8330 C   0  0  1  0  0  3  0  0  0  0  0  0
  189.0300  178.2560  148.4240 C   0  0  0  0  0  1  0  0  0  0  0  0
  187.9240  177.4260  147.9540 N   0  0  0  0  0  2  0  0  0  0  0  0
  186.3460  177.3320  143.2690 C   0  0  0  0  0  2  0  0  0  0  0  0
  185.3550  178.3370  142.9000 N   0  0  0  0  0  0  0  0  0  0  0  0
  184.9620  179.0950  144.0970 C   0  0  0  0  0  2  0  0  0  0  0  0
  182.5730  178.7660  143.6240 C   0  0  0  0  0  3  0  0  0  0  0  0
  183.5370  179.5750  144.0620 C   0  0  0  0  0  3  0  0  0  0  0  0
  181.1450  179.2200  143.5680 C   0  0  0  0  0  2  0  0  0  0  0  0
  180.2400  178.1260  143.0240 C   0  0  0  0  0  2  0  0  0  0  0  0
  179.2010  178.7140  142.0800 C   0  0  0  0  0  2  0  0  0  0  0  0
  179.1610  177.9300  140.7790 C   0  0  0  0  0  2  0  0  0  0  0  0
  179.5560  178.8170  139.6130 C   0  0  0  0  0  1  0  0  0  0  0  0
  185.9430  179.2300  141.9040 C   0  0  0  0  0  2  0  0  0  0  0  0
  185.6810  178.7070  140.4980 C   0  0  0  0  0  2  0  0  0  0  0  0
  184.3510  180.1710  139.1730 O   0  0  0  0  0  0  0  0  0  0  0  0
  184.3720  179.1990  139.9760 C   0  0  0  0  0  0  0  0  0  0  0  0
  183.1850  178.5920  140.3930 O   0  0  0  0  0  0  0  0  0  0  0  0
  182.8490  177.2650  140.0190 C   0  0  0  0  0  1  0  0  0  0  0  0
  1 22  1  6  0  0  0
  1 17  1  0  0  0  0
  2  5  1  1  0  0  0
  2  1  1  0  0  0  0
  2  4  1  0  0  0  0
  3  4  1  0  0  0  0
  6  7  1  1  0  0  0
  6  5  1  0  0  0  0
  8  6  1  0  0  0  0
  9 12  1  6  0  0  0
  9  8  1  0  0  0  0
 10  9  1  0  0  0  0
 11 10  1  0  0  0  0
 13 12  1  0  0  0  0
 14 13  1  0  0  0  0
 15 16  1  0  0  0  0
 16 14  1  0  0  0  0
 17 19  1  0  0  0  0
 19 18  1  1  0  0  0
 19 21  1  0  0  0  0
 21 20  1  0  0  0  0
 23 22  1  0  0  0  0
 23 24  1  0  0  0  0
 25 26  2  0  0  0  0
 26 24  1  0  0  0  0
 27 25  1  0  0  0  0
 28 27  1  0  0  0  0
 29 28  1  0  0  0  0
 30 29  1  0  0  0  0
 31 30  1  0  0  0  0
 32 23  1  0  0  0  0
 33 32  1  0  0  0  0
 34 35  2  0  0  0  0
 35 36  1  0  0  0  0
 35 33  1  0  0  0  0
 37 36  1  0  0  0  0
M  END
>  <MODEL>
3

>  <REMARK>
 VINA RESULT:      -5.3      2.717      6.813
  Name = 
  26 active torsions:
  status: ('A' for Active; 'I' for Inactive)
    1  A    between atoms: O_1  and  C_23
    2  A    between atoms: O_2  and  C_8
    3  A    between atoms: C_3  and  C_15
    4  A    between atoms: C_3  and  C_30
    5  A    between atoms: C_4  and  C_10
    6  A    between atoms: C_4  and  C_24
    7  A    between atoms: C_6  and  C_8
    8  A    between atoms: C_6  and  C_31
    9  A    between atoms: C_7  and  C_33
   10  A    between atoms: C_8  and  C_19
   11  A    between atoms: C_10  and  C_13
   12  A    between atoms: C_10  and  C_30
   13  A    between atoms: C_11  and  C_26
   14  A    between atoms: C_13  and  N_20
   15  A    between atoms: C_14  and  C_31
   16  A    between atoms: C_14  and  C_37
   17  A    between atoms: C_15  and  C_19
   18  A    between atoms: C_17  and  C_26
   19  A    between atoms: C_17  and  C_33
   20  A    between atoms: N_20  and  C_21
   21  A    between atoms: N_20  and  C_29
   22  A    between atoms: C_21  and  C_25
   23  A    between atoms: C_23  and  C_25
   24  A    between atoms: C_24  and  N_28
   25  A    between atoms: C_29  and  C_36
   26  A    between atoms: C_30  and  O_32
                            x       y       z     vdW  Elec       q    Type
                         _______ _______ _______ _____ _____    ______ ____

>  <TORSDO>
F 26

$$$$
=
 OpenBabel11052415283D

 37 36  0  0  1  0  0  0  0  0999 V2000
  188.1210  176.9920  137.3900 C   0  0  2  0  0  3  0  0  0  0  0  0
  187.3280  178.2550  137.7670 C   0  0  1  0  0  3  0  0  0  0  0  0
  188.8460  179.7350  137.4010 O   0  0  0  0  0  1  0  0  0  0  0  0
  187.6570  179.3620  136.9740 O   0  0  0  0  0  0  0  0  0  0  0  0
  185.8210  177.9960  137.7150 C   0  0  0  0  0  2  0  0  0  0  0  0
  185.0380  178.8810  138.6790 C   0  0  2  0  0  3  0  0  0  0  0  0
  185.6180  178.8260  139.9460 O   0  0  0  0  0  1  0  0  0  0  0  0
  183.5980  178.3970  138.7740 C   0  0  0  0  0  2  0  0  0  0  0  0
  183.3130  177.5990  140.0480 C   0  0  2  0  0  3  0  0  0  0  0  0
  183.0760  176.2480  139.7760 O   0  0  0  0  0  0  0  0  0  0  0  0
  181.9710  176.2410  139.0580 O   0  0  0  0  0  1  0  0  0  0  0  0
  182.2040  178.2080  140.9060 C   0  0  0  0  0  2  0  0  0  0  0  0
  182.7460  179.0650  142.0400 C   0  0  0  0  0  2  0  0  0  0  0  0
  183.8840  178.3330  142.7200 C   0  0  0  0  0  2  0  0  0  0  0  0
  184.6700  178.8160  145.0140 C   0  0  0  0  0  1  0  0  0  0  0  0
  184.6660  179.3030  143.5800 C   0  0  0  0  0  2  0  0  0  0  0  0
  187.1930  175.9680  136.7450 C   0  0  0  0  0  2  0  0  0  0  0  0
  187.0020  173.7310  135.6280 C   0  0  0  0  0  1  0  0  0  0  0  0
  187.9590  174.7730  136.1840 C   0  0  1  0  0  3  0  0  0  0  0  0
  190.0900  174.2360  135.1870 C   0  0  0  0  0  1  0  0  0  0  0  0
  188.9620  175.1650  135.1880 N   0  0  0  0  0  2  0  0  0  0  0  0
  188.7930  176.3460  138.5960 C   0  0  0  0  0  2  0  0  0  0  0  0
  190.1400  176.8790  138.7680 N   0  0  0  0  0  0  0  0  0  0  0  0
  190.3290  177.2800  140.1700 C   0  0  0  0  0  2  0  0  0  0  0  0
  188.8620  177.0280  142.1250 C   0  0  0  0  0  3  0  0  0  0  0  0
  189.0400  177.5290  140.9030 C   0  0  0  0  0  3  0  0  0  0  0  0
  187.5840  177.2500  142.8750 C   0  0  0  0  0  2  0  0  0  0  0  0
  187.7210  176.8340  144.3310 C   0  0  0  0  0  2  0  0  0  0  0  0
  188.5080  177.8770  145.1120 C   0  0  0  0  0  2  0  0  0  0  0  0
  189.4110  177.2070  146.1340 C   0  0  0  0  0  2  0  0  0  0  0  0
  188.7010  177.0870  147.4690 C   0  0  0  0  0  1  0  0  0  0  0  0
  191.1040  175.8450  138.4010 C   0  0  0  0  0  2  0  0  0  0  0  0
  192.2810  176.4550  137.6510 C   0  0  0  0  0  2  0  0  0  0  0  0
  193.3730  174.6220  136.5940 O   0  0  0  0  0  0  0  0  0  0  0  0
  193.4010  175.4760  137.5210 C   0  0  0  0  0  0  0  0  0  0  0  0
  194.4570  175.5030  138.4350 O   0  0  0  0  0  0  0  0  0  0  0  0
  195.3230  174.3920  138.6140 C   0  0  0  0  0  1  0  0  0  0  0  0
  1 17  1  1  0  0  0
  1  2  1  0  0  0  0
  1 22  1  0  0  0  0
  2  5  1  6  0  0  0
  4  3  1  0  0  0  0
  4  2  1  0  0  0  0
  5  6  1  0  0  0  0
  6  8  1  0  0  0  0
  6  7  1  1  0  0  0
  9  8  1  6  0  0  0
  9 12  1  0  0  0  0
 10  9  1  0  0  0  0
 11 10  1  0  0  0  0
 12 13  1  0  0  0  0
 13 14  1  0  0  0  0
 14 16  1  0  0  0  0
 16 15  1  0  0  0  0
 19 18  1  6  0  0  0
 19 17  1  0  0  0  0
 20 21  1  0  0  0  0
 21 19  1  0  0  0  0
 22 23  1  0  0  0  0
 23 24  1  0  0  0  0
 24 26  1  0  0  0  0
 25 27  1  0  0  0  0
 26 25  2  0  0  0  0
 27 28  1  0  0  0  0
 28 29  1  0  0  0  0
 29 30  1  0  0  0  0
 30 31  1  0  0  0  0
 32 23  1  0  0  0  0
 33 32  1  0  0  0  0
 34 35  2  0  0  0  0
 35 33  1  0  0  0  0
 35 36  1  0  0  0  0
 36 37  1  0  0  0  0
M  END
>  <MODEL>
4

>  <REMARK>
 VINA RESULT:      -5.2      2.151      6.485
  Name = 
  26 active torsions:
  status: ('A' for Active; 'I' for Inactive)
    1  A    between atoms: O_1  and  C_23
    2  A    between atoms: O_2  and  C_8
    3  A    between atoms: C_3  and  C_15
    4  A    between atoms: C_3  and  C_30
    5  A    between atoms: C_4  and  C_10
    6  A    between atoms: C_4  and  C_24
    7  A    between atoms: C_6  and  C_8
    8  A    between atoms: C_6  and  C_31
    9  A    between atoms: C_7  and  C_33
   10  A    between atoms: C_8  and  C_19
   11  A    between atoms: C_10  and  C_13
   12  A    between atoms: C_10  and  C_30
   13  A    between atoms: C_11  and  C_26
   14  A    between atoms: C_13  and  N_20
   15  A    between atoms: C_14  and  C_31
   16  A    between atoms: C_14  and  C_37
   17  A    between atoms: C_15  and  C_19
   18  A    between atoms: C_17  and  C_26
   19  A    between atoms: C_17  and  C_33
   20  A    between atoms: N_20  and  C_21
   21  A    between atoms: N_20  and  C_29
   22  A    between atoms: C_21  and  C_25
   23  A    between atoms: C_23  and  C_25
   24  A    between atoms: C_24  and  N_28
   25  A    between atoms: C_29  and  C_36
   26  A    between atoms: C_30  and  O_32
                            x       y       z     vdW  Elec       q    Type
                         _______ _______ _______ _____ _____    ______ ____

>  <TORSDO>
F 26

$$$$
=
 OpenBabel11052415283D

 37 36  0  0  1  0  0  0  0  0999 V2000
  188.9050  178.4510  141.6510 C   0  0  2  0  0  3  0  0  0  0  0  0
  189.4950  177.9050  140.3390 C   0  0  1  0  0  3  0  0  0  0  0  0
  191.1420  176.5680  139.9810 O   0  0  0  0  0  1  0  0  0  0  0  0
  189.9080  176.5700  140.4430 O   0  0  0  0  0  0  0  0  0  0  0  0
  188.5060  178.0650  139.1820 C   0  0  0  0  0  2  0  0  0  0  0  0
  189.1680  178.5910  137.9120 C   0  0  2  0  0  3  0  0  0  0  0  0
  188.3530  179.5560  137.3210 O   0  0  0  0  0  1  0  0  0  0  0  0
  189.3790  177.4500  136.9270 C   0  0  0  0  0  2  0  0  0  0  0  0
  188.1270  176.5940  136.7200 C   0  0  2  0  0  3  0  0  0  0  0  0
  188.4200  175.2270  136.7460 O   0  0  0  0  0  0  0  0  0  0  0  0
  189.5510  175.1390  137.4150 O   0  0  0  0  0  1  0  0  0  0  0  0
  187.3310  176.9800  135.4740 C   0  0  0  0  0  2  0  0  0  0  0  0
  185.9090  177.4110  135.7990 C   0  0  0  0  0  2  0  0  0  0  0  0
  185.5830  177.0240  137.2260 C   0  0  0  0  0  2  0  0  0  0  0  0
  183.4660  176.5720  136.0310 C   0  0  0  0  0  1  0  0  0  0  0  0
  184.2920  176.2320  137.2530 C   0  0  0  0  0  2  0  0  0  0  0  0
  189.9690  178.4410  142.7440 C   0  0  0  0  0  2  0  0  0  0  0  0
  190.7160  176.3230  143.8600 C   0  0  0  0  0  1  0  0  0  0  0  0
  189.6610  177.4180  143.8340 C   0  0  1  0  0  3  0  0  0  0  0  0
  189.8950  177.1130  146.2160 C   0  0  0  0  0  1  0  0  0  0  0  0
  189.4950  178.0340  145.1550 N   0  0  0  0  0  2  0  0  0  0  0  0
  187.7070  177.6390  142.1330 C   0  0  0  0  0  2  0  0  0  0  0  0
  186.6630  178.5280  142.6290 N   0  0  0  0  0  0  0  0  0  0  0  0
  185.8520  179.0040  141.4990 C   0  0  0  0  0  2  0  0  0  0  0  0
  183.8780  178.1760  140.2910 C   0  0  0  0  0  3  0  0  0  0  0  0
  184.4690  178.4140  141.4620 C   0  0  0  0  0  3  0  0  0  0  0  0
  182.4970  177.5980  140.2230 C   0  0  0  0  0  2  0  0  0  0  0  0
  181.5760  178.4720  139.3860 C   0  0  0  0  0  2  0  0  0  0  0  0
  182.3810  179.2960  138.3910 C   0  0  0  0  0  2  0  0  0  0  0  0
  181.9310  180.7460  138.4150 C   0  0  0  0  0  2  0  0  0  0  0  0
  180.7300  180.9140  139.3270 C   0  0  0  0  0  1  0  0  0  0  0  0
  185.8310  177.7900  143.5760 C   0  0  0  0  0  2  0  0  0  0  0  0
  185.9760  178.3680  144.9780 C   0  0  0  0  0  2  0  0  0  0  0  0
  184.3660  178.5460  146.7210 O   0  0  0  0  0  0  0  0  0  0  0  0
  184.6540  178.8000  145.5210 C   0  0  0  0  0  0  0  0  0  0  0  0
  183.7450  179.4610  144.6920 O   0  0  0  0  0  0  0  0  0  0  0  0
  182.4900  178.8920  144.3500 C   0  0  0  0  0  1  0  0  0  0  0  0
  1 22  1  1  0  0  0
  1 17  1  0  0  0  0
  2  5  1  6  0  0  0
  2  4  1  0  0  0  0
  2  1  1  0  0  0  0
  3  4  1  0  0  0  0
  6  7  1  6  0  0  0
  6  5  1  0  0  0  0
  8  6  1  0  0  0  0
  9 12  1  6  0  0  0
  9 10  1  0  0  0  0
  9  8  1  0  0  0  0
 10 11  1  0  0  0  0
 12 13  1  0  0  0  0
 13 14  1  0  0  0  0
 14 16  1  0  0  0  0
 15 16  1  0  0  0  0
 17 19  1  0  0  0  0
 19 18  1  1  0  0  0
 19 21  1  0  0  0  0
 21 20  1  0  0  0  0
 22 23  1  0  0  0  0
 23 32  1  0  0  0  0
 24 23  1  0  0  0  0
 25 26  2  0  0  0  0
 26 24  1  0  0  0  0
 27 25  1  0  0  0  0
 28 27  1  0  0  0  0
 29 30  1  0  0  0  0
 29 28  1  0  0  0  0
 30 31  1  0  0  0  0
 32 33  1  0  0  0  0
 33 35  1  0  0  0  0
 35 34  2  0  0  0  0
 36 35  1  0  0  0  0
 37 36  1  0  0  0  0
M  END
>  <MODEL>
5

>  <REMARK>
 VINA RESULT:      -5.2      2.542      6.959
  Name = 
  26 active torsions:
  status: ('A' for Active; 'I' for Inactive)
    1  A    between atoms: O_1  and  C_23
    2  A    between atoms: O_2  and  C_8
    3  A    between atoms: C_3  and  C_15
    4  A    between atoms: C_3  and  C_30
    5  A    between atoms: C_4  and  C_10
    6  A    between atoms: C_4  and  C_24
    7  A    between atoms: C_6  and  C_8
    8  A    between atoms: C_6  and  C_31
    9  A    between atoms: C_7  and  C_33
   10  A    between atoms: C_8  and  C_19
   11  A    between atoms: C_10  and  C_13
   12  A    between atoms: C_10  and  C_30
   13  A    between atoms: C_11  and  C_26
   14  A    between atoms: C_13  and  N_20
   15  A    between atoms: C_14  and  C_31
   16  A    between atoms: C_14  and  C_37
   17  A    between atoms: C_15  and  C_19
   18  A    between atoms: C_17  and  C_26
   19  A    between atoms: C_17  and  C_33
   20  A    between atoms: N_20  and  C_21
   21  A    between atoms: N_20  and  C_29
   22  A    between atoms: C_21  and  C_25
   23  A    between atoms: C_23  and  C_25
   24  A    between atoms: C_24  and  N_28
   25  A    between atoms: C_29  and  C_36
   26  A    between atoms: C_30  and  O_32
                            x       y       z     vdW  Elec       q    Type
                         _______ _______ _______ _____ _____    ______ ____

>  <TORSDO>
F 26

$$$$
=
 OpenBabel11052415283D

 37 36  0  0  1  0  0  0  0  0999 V2000
  185.2040  177.0380  138.0950 C   0  0  2  0  0  3  0  0  0  0  0  0
  186.5360  177.1250  137.3290 C   0  0  1  0  0  3  0  0  0  0  0  0
  187.3230  175.9270  135.7250 O   0  0  0  0  0  1  0  0  0  0  0  0
  186.3990  176.8340  135.9650 O   0  0  0  0  0  0  0  0  0  0  0  0
  187.1890  178.4970  137.5140 C   0  0  0  0  0  2  0  0  0  0  0  0
  188.6530  178.3990  137.9310 C   0  0  2  0  0  3  0  0  0  0  0  0
  189.4650  178.3690  136.7970 O   0  0  0  0  0  1  0  0  0  0  0  0
  188.8790  177.1260  138.7340 C   0  0  0  0  0  2  0  0  0  0  0  0
  190.3470  176.9000  139.1050 C   0  0  2  0  0  3  0  0  0  0  0  0
  190.7270  175.5650  138.9420 O   0  0  0  0  0  0  0  0  0  0  0  0
  189.9620  175.1160  137.9680 O   0  0  0  0  0  1  0  0  0  0  0  0
  190.7050  177.4270  140.4950 C   0  0  0  0  0  2  0  0  0  0  0  0
  189.7510  176.9330  141.5720 C   0  0  0  0  0  2  0  0  0  0  0  0
  190.5470  176.3040  142.6960 C   0  0  0  0  0  2  0  0  0  0  0  0
  190.0970  178.2330  144.1760 C   0  0  0  0  0  1  0  0  0  0  0  0
  189.9670  176.7320  144.0270 C   0  0  0  0  0  2  0  0  0  0  0  0
  184.1400  176.3880  137.2170 C   0  0  0  0  0  2  0  0  0  0  0  0
  181.9550  175.2220  137.6110 C   0  0  0  0  0  1  0  0  0  0  0  0
  183.4420  175.2300  137.9250 C   0  0  1  0  0  3  0  0  0  0  0  0
  184.4330  173.8430  136.2160 C   0  0  0  0  0  1  0  0  0  0  0  0
  184.0600  173.9330  137.6250 N   0  0  0  0  0  2  0  0  0  0  0  0
  184.6980  178.4070  138.5390 C   0  0  0  0  0  2  0  0  0  0  0  0
  184.2330  178.3480  139.9200 N   0  0  0  0  0  0  0  0  0  0  0  0
  185.2190  179.0000  140.7930 C   0  0  0  0  0  2  0  0  0  0  0  0
  186.3750  178.0970  142.7650 C   0  0  0  0  0  3  0  0  0  0  0  0
  185.2260  178.4620  142.1980 C   0  0  0  0  0  3  0  0  0  0  0  0
  186.4120  177.5480  144.1590 C   0  0  0  0  0  2  0  0  0  0  0  0
  185.8360  178.5400  145.1570 C   0  0  0  0  0  2  0  0  0  0  0  0
  186.0400  178.0420  146.5810 C   0  0  0  0  0  2  0  0  0  0  0  0
  187.4840  177.6230  146.7970 C   0  0  0  0  0  2  0  0  0  0  0  0
  188.0230  178.2200  148.0830 C   0  0  0  0  0  1  0  0  0  0  0  0
  182.9450  179.0320  140.0090 C   0  0  0  0  0  2  0  0  0  0  0  0
  182.4070  179.3420  138.6180 C   0  0  0  0  0  2  0  0  0  0  0  0
  181.4510  181.3010  137.6620 O   0  0  0  0  0  0  0  0  0  0  0  0
  181.4870  180.5170  138.6480 C   0  0  0  0  0  0  0  0  0  0  0  0
  180.6880  180.7450  139.7710 O   0  0  0  0  0  0  0  0  0  0  0  0
  179.5760  181.6280  139.7340 C   0  0  0  0  0  1  0  0  0  0  0  0
  1 17  1  6  0  0  0
  1 22  1  0  0  0  0
  2  5  1  6  0  0  0
  2  1  1  0  0  0  0
  3  4  1  0  0  0  0
  4  2  1  0  0  0  0
  5  6  1  0  0  0  0
  6  7  1  6  0  0  0
  6  8  1  0  0  0  0
  9  8  1  1  0  0  0
  9 12  1  0  0  0  0
 10  9  1  0  0  0  0
 11 10  1  0  0  0  0
 12 13  1  0  0  0  0
 13 14  1  0  0  0  0
 14 16  1  0  0  0  0
 16 15  1  0  0  0  0
 17 19  1  0  0  0  0
 19 18  1  6  0  0  0
 20 21  1  0  0  0  0
 21 19  1  0  0  0  0
 22 23  1  0  0  0  0
 23 32  1  0  0  0  0
 23 24  1  0  0  0  0
 24 26  1  0  0  0  0
 25 27  1  0  0  0  0
 26 25  2  0  0  0  0
 27 28  1  0  0  0  0
 28 29  1  0  0  0  0
 29 30  1  0  0  0  0
 30 31  1  0  0  0  0
 33 35  1  0  0  0  0
 33 32  1  0  0  0  0
 34 35  2  0  0  0  0
 35 36  1  0  0  0  0
 37 36  1  0  0  0  0
M  END
>  <MODEL>
6

>  <REMARK>
 VINA RESULT:      -5.1      2.346      3.568
  Name = 
  26 active torsions:
  status: ('A' for Active; 'I' for Inactive)
    1  A    between atoms: O_1  and  C_23
    2  A    between atoms: O_2  and  C_8
    3  A    between atoms: C_3  and  C_15
    4  A    between atoms: C_3  and  C_30
    5  A    between atoms: C_4  and  C_10
    6  A    between atoms: C_4  and  C_24
    7  A    between atoms: C_6  and  C_8
    8  A    between atoms: C_6  and  C_31
    9  A    between atoms: C_7  and  C_33
   10  A    between atoms: C_8  and  C_19
   11  A    between atoms: C_10  and  C_13
   12  A    between atoms: C_10  and  C_30
   13  A    between atoms: C_11  and  C_26
   14  A    between atoms: C_13  and  N_20
   15  A    between atoms: C_14  and  C_31
   16  A    between atoms: C_14  and  C_37
   17  A    between atoms: C_15  and  C_19
   18  A    between atoms: C_17  and  C_26
   19  A    between atoms: C_17  and  C_33
   20  A    between atoms: N_20  and  C_21
   21  A    between atoms: N_20  and  C_29
   22  A    between atoms: C_21  and  C_25
   23  A    between atoms: C_23  and  C_25
   24  A    between atoms: C_24  and  N_28
   25  A    between atoms: C_29  and  C_36
   26  A    between atoms: C_30  and  O_32
                            x       y       z     vdW  Elec       q    Type
                         _______ _______ _______ _____ _____    ______ ____

>  <TORSDO>
F 26

$$$$
=
 OpenBabel11052415283D

 37 36  0  0  1  0  0  0  0  0999 V2000
  190.2140  177.1740  140.8620 C   0  0  2  0  0  3  0  0  0  0  0  0
  189.0460  178.1230  141.1800 C   0  0  1  0  0  3  0  0  0  0  0  0
  187.4310  178.7050  139.8820 O   0  0  0  0  0  1  0  0  0  0  0  0
  188.7070  178.9490  140.1000 O   0  0  0  0  0  0  0  0  0  0  0  0
  187.8170  177.3450  141.6570 C   0  0  0  0  0  2  0  0  0  0  0  0
  187.7660  177.2020  143.1740 C   0  0  2  0  0  3  0  0  0  0  0  0
  187.8960  175.8580  143.5260 O   0  0  0  0  0  1  0  0  0  0  0  0
  186.4350  177.7230  143.6990 C   0  0  0  0  0  2  0  0  0  0  0  0
  186.3180  177.6510  145.2230 C   0  0  2  0  0  3  0  0  0  0  0  0
  185.2400  178.4020  145.7000 O   0  0  0  0  0  0  0  0  0  0  0  0
  184.5350  178.6950  144.6260 O   0  0  0  0  0  1  0  0  0  0  0  0
  187.6190  178.0030  145.9450 C   0  0  0  0  0  2  0  0  0  0  0  0
  187.4400  178.1100  147.4520 C   0  0  0  0  0  2  0  0  0  0  0  0
  188.5120  177.2920  148.1420 C   0  0  0  0  0  2  0  0  0  0  0  0
  190.8760  177.0350  147.4640 C   0  0  0  0  0  1  0  0  0  0  0  0
  189.4430  176.7020  147.1040 C   0  0  0  0  0  2  0  0  0  0  0  0
  191.3920  177.4720  141.7830 C   0  0  0  0  0  2  0  0  0  0  0  0
  191.5770  175.6840  143.5320 C   0  0  0  0  0  1  0  0  0  0  0  0
  191.0960  177.0950  143.2320 C   0  0  1  0  0  3  0  0  0  0  0  0
  191.1240  179.4040  143.9330 C   0  0  0  0  0  1  0  0  0  0  0  0
  191.6440  178.0630  144.1890 N   0  0  0  0  0  2  0  0  0  0  0  0
  190.6850  177.2970  139.4160 C   0  0  0  0  0  2  0  0  0  0  0  0
  190.7000  175.9850  138.7790 N   0  0  0  0  0  0  0  0  0  0  0  0
  189.3480  175.6600  138.3030 C   0  0  0  0  0  2  0  0  0  0  0  0
  187.4700  176.7160  137.1190 C   0  0  0  0  0  3  0  0  0  0  0  0
  188.7810  176.6860  137.3600 C   0  0  0  0  0  3  0  0  0  0  0  0
  186.8780  177.7200  136.1770 C   0  0  0  0  0  2  0  0  0  0  0  0
  185.5310  177.2510  135.6480 C   0  0  0  0  0  2  0  0  0  0  0  0
  185.0660  176.0120  136.3990 C   0  0  0  0  0  2  0  0  0  0  0  0
  183.7170  176.2600  137.0510 C   0  0  0  0  0  2  0  0  0  0  0  0
  183.6040  177.7040  137.5020 C   0  0  0  0  0  1  0  0  0  0  0  0
  191.6380  176.0190  137.6590 C   0  0  0  0  0  2  0  0  0  0  0  0
  192.7900  175.0500  137.8980 C   0  0  0  0  0  2  0  0  0  0  0  0
  194.0860  176.7230  136.8090 O   0  0  0  0  0  0  0  0  0  0  0  0
  194.0860  175.6340  137.4420 C   0  0  0  0  0  0  0  0  0  0  0  0
  195.2810  174.9600  137.7050 O   0  0  0  0  0  0  0  0  0  0  0  0
  195.3450  173.8710  138.6130 C   0  0  0  0  0  1  0  0  0  0  0  0
  1 22  1  6  0  0  0
  1  2  1  0  0  0  0
  1 17  1  0  0  0  0
  2  5  1  6  0  0  0
  3  4  1  0  0  0  0
  4  2  1  0  0  0  0
  5  6  1  0  0  0  0
  6  7  1  6  0  0  0
  6  8  1  0  0  0  0
  9  8  1  6  0  0  0
  9 10  1  0  0  0  0
  9 12  1  0  0  0  0
 11 10  1  0  0  0  0
 12 13  1  0  0  0  0
 13 14  1  0  0  0  0
 16 15  1  0  0  0  0
 16 14  1  0  0  0  0
 17 19  1  0  0  0  0
 19 18  1  1  0  0  0
 19 21  1  0  0  0  0
 20 21  1  0  0  0  0
 23 22  1  0  0  0  0
 24 23  1  0  0  0  0
 25 26  2  0  0  0  0
 26 24  1  0  0  0  0
 27 25  1  0  0  0  0
 28 27  1  0  0  0  0
 28 29  1  0  0  0  0
 29 30  1  0  0  0  0
 30 31  1  0  0  0  0
 32 33  1  0  0  0  0
 32 23  1  0  0  0  0
 34 35  2  0  0  0  0
 35 36  1  0  0  0  0
 35 33  1  0  0  0  0
 36 37  1  0  0  0  0
M  END
>  <MODEL>
7

>  <REMARK>
 VINA RESULT:      -5.1      2.794      7.519
  Name = 
  26 active torsions:
  status: ('A' for Active; 'I' for Inactive)
    1  A    between atoms: O_1  and  C_23
    2  A    between atoms: O_2  and  C_8
    3  A    between atoms: C_3  and  C_15
    4  A    between atoms: C_3  and  C_30
    5  A    between atoms: C_4  and  C_10
    6  A    between atoms: C_4  and  C_24
    7  A    between atoms: C_6  and  C_8
    8  A    between atoms: C_6  and  C_31
    9  A    between atoms: C_7  and  C_33
   10  A    between atoms: C_8  and  C_19
   11  A    between atoms: C_10  and  C_13
   12  A    between atoms: C_10  and  C_30
   13  A    between atoms: C_11  and  C_26
   14  A    between atoms: C_13  and  N_20
   15  A    between atoms: C_14  and  C_31
   16  A    between atoms: C_14  and  C_37
   17  A    between atoms: C_15  and  C_19
   18  A    between atoms: C_17  and  C_26
   19  A    between atoms: C_17  and  C_33
   20  A    between atoms: N_20  and  C_21
   21  A    between atoms: N_20  and  C_29
   22  A    between atoms: C_21  and  C_25
   23  A    between atoms: C_23  and  C_25
   24  A    between atoms: C_24  and  N_28
   25  A    between atoms: C_29  and  C_36
   26  A    between atoms: C_30  and  O_32
                            x       y       z     vdW  Elec       q    Type
                         _______ _______ _______ _____ _____    ______ ____

>  <TORSDO>
F 26

$$$$
=
 OpenBabel11052415283D

 37 36  0  0  1  0  0  0  0  0999 V2000
  185.6970  177.3520  137.8530 C   0  0  2  0  0  3  0  0  0  0  0  0
  187.2180  177.2630  137.6360 C   0  0  1  0  0  3  0  0  0  0  0  0
  188.1480  176.4290  135.8850 O   0  0  0  0  0  1  0  0  0  0  0  0
  187.5950  177.5440  136.3160 O   0  0  0  0  0  0  0  0  0  0  0  0
  187.9670  178.1780  138.6070 C   0  0  0  0  0  2  0  0  0  0  0  0
  189.3290  177.6210  139.0080 C   0  0  2  0  0  3  0  0  0  0  0  0
  189.3190  176.2300  138.9020 O   0  0  0  0  0  1  0  0  0  0  0  0
  189.6430  178.0050  140.4460 C   0  0  0  0  0  2  0  0  0  0  0  0
  189.5010  176.8380  141.4260 C   0  0  2  0  0  3  0  0  0  0  0  0
  188.2980  176.8950  142.1350 O   0  0  0  0  0  0  0  0  0  0  0  0
  188.0220  178.1800  142.2240 O   0  0  0  0  0  1  0  0  0  0  0  0
  190.7030  176.6840  142.3600 C   0  0  0  0  0  2  0  0  0  0  0  0
  191.3080  178.0210  142.7590 C   0  0  0  0  0  2  0  0  0  0  0  0
  191.5250  178.0440  144.2580 C   0  0  0  0  0  2  0  0  0  0  0  0
  190.1730  177.0550  146.0770 C   0  0  0  0  0  1  0  0  0  0  0  0
  190.1850  178.0790  144.9620 C   0  0  0  0  0  2  0  0  0  0  0  0
  184.9680  177.1160  136.5340 C   0  0  0  0  0  2  0  0  0  0  0  0
  182.8150  175.9630  135.9620 C   0  0  0  0  0  1  0  0  0  0  0  0
  184.2170  175.7870  136.5240 C   0  0  1  0  0  3  0  0  0  0  0  0
  184.5240  173.4080  136.2630 C   0  0  0  0  0  1  0  0  0  0  0  0
  184.9500  174.7320  135.8160 N   0  0  0  0  0  2  0  0  0  0  0  0
  185.2670  178.7050  138.4100 C   0  0  0  0  0  2  0  0  0  0  0  0
  184.3810  178.5200  139.5530 N   0  0  0  0  0  0  0  0  0  0  0  0
  185.0430  179.0190  140.7670 C   0  0  0  0  0  2  0  0  0  0  0  0
  184.1780  179.2770  143.0530 C   0  0  0  0  0  3  0  0  0  0  0  0
  184.4660  178.4620  142.0390 C   0  0  0  0  0  3  0  0  0  0  0  0
  183.6100  178.7500  144.3360 C   0  0  0  0  0  2  0  0  0  0  0  0
  184.6110  178.8780  145.4740 C   0  0  0  0  0  2  0  0  0  0  0  0
  185.9630  178.3160  145.0600 C   0  0  0  0  0  2  0  0  0  0  0  0
  186.5400  177.4490  146.1660 C   0  0  0  0  0  2  0  0  0  0  0  0
  186.8470  178.2880  147.3920 C   0  0  0  0  0  1  0  0  0  0  0  0
  183.1430  179.2570  139.3110 C   0  0  0  0  0  2  0  0  0  0  0  0
  182.0650  178.3270  138.7710 C   0  0  0  0  0  2  0  0  0  0  0  0
  182.2020  176.0680  139.5070 O   0  0  0  0  0  0  0  0  0  0  0  0
  181.7690  177.2290  139.7370 C   0  0  0  0  0  0  0  0  0  0  0  0
  181.0020  177.4920  140.8750 O   0  0  0  0  0  0  0  0  0  0  0  0
  179.7360  178.1290  140.7950 C   0  0  0  0  0  1  0  0  0  0  0  0
  1 17  1  6  0  0  0
  1 22  1  0  0  0  0
  2  1  1  0  0  0  0
  2  5  1  1  0  0  0
  3  4  1  0  0  0  0
  4  2  1  0  0  0  0
  5  6  1  0  0  0  0
  6  7  1  1  0  0  0
  6  8  1  0  0  0  0
  9  8  1  1  0  0  0
  9 10  1  0  0  0  0
  9 12  1  0  0  0  0
 10 11  1  0  0  0  0
 12 13  1  0  0  0  0
 13 14  1  0  0  0  0
 14 16  1  0  0  0  0
 16 15  1  0  0  0  0
 19 18  1  6  0  0  0
 19 17  1  0  0  0  0
 21 20  1  0  0  0  0
 21 19  1  0  0  0  0
 22 23  1  0  0  0  0
 23 24  1  0  0  0  0
 24 26  1  0  0  0  0
 25 27  1  0  0  0  0
 26 25  2  0  0  0  0
 27 28  1  0  0  0  0
 29 28  1  0  0  0  0
 29 30  1  0  0  0  0
 30 31  1  0  0  0  0
 32 23  1  0  0  0  0
 33 32  1  0  0  0  0
 33 35  1  0  0  0  0
 34 35  2  0  0  0  0
 35 36  1  0  0  0  0
 37 36  1  0  0  0  0
M  END
>  <MODEL>
8

>  <REMARK>
 VINA RESULT:      -5.0      1.667      2.140
  Name = 
  26 active torsions:
  status: ('A' for Active; 'I' for Inactive)
    1  A    between atoms: O_1  and  C_23
    2  A    between atoms: O_2  and  C_8
    3  A    between atoms: C_3  and  C_15
    4  A    between atoms: C_3  and  C_30
    5  A    between atoms: C_4  and  C_10
    6  A    between atoms: C_4  and  C_24
    7  A    between atoms: C_6  and  C_8
    8  A    between atoms: C_6  and  C_31
    9  A    between atoms: C_7  and  C_33
   10  A    between atoms: C_8  and  C_19
   11  A    between atoms: C_10  and  C_13
   12  A    between atoms: C_10  and  C_30
   13  A    between atoms: C_11  and  C_26
   14  A    between atoms: C_13  and  N_20
   15  A    between atoms: C_14  and  C_31
   16  A    between atoms: C_14  and  C_37
   17  A    between atoms: C_15  and  C_19
   18  A    between atoms: C_17  and  C_26
   19  A    between atoms: C_17  and  C_33
   20  A    between atoms: N_20  and  C_21
   21  A    between atoms: N_20  and  C_29
   22  A    between atoms: C_21  and  C_25
   23  A    between atoms: C_23  and  C_25
   24  A    between atoms: C_24  and  N_28
   25  A    between atoms: C_29  and  C_36
   26  A    between atoms: C_30  and  O_32
                            x       y       z     vdW  Elec       q    Type
                         _______ _______ _______ _____ _____    ______ ____

>  <TORSDO>
F 26

$$$$
=
 OpenBabel11052415283D

 37 36  0  0  1  0  0  0  0  0999 V2000
  187.7500  177.9680  141.1840 C   0  0  2  0  0  3  0  0  0  0  0  0
  186.7550  178.7350  142.0720 C   0  0  1  0  0  3  0  0  0  0  0  0
  184.9720  179.1620  140.9470 O   0  0  0  0  0  1  0  0  0  0  0  0
  186.0720  179.7440  141.3790 O   0  0  0  0  0  0  0  0  0  0  0  0
  185.7600  177.7810  142.7360 C   0  0  0  0  0  2  0  0  0  0  0  0
  185.4340  178.1780  144.1720 C   0  0  2  0  0  3  0  0  0  0  0  0
  185.0560  179.5190  144.2160 O   0  0  0  0  0  1  0  0  0  0  0  0
  186.6580  177.9790  145.0540 C   0  0  0  0  0  2  0  0  0  0  0  0
  186.3070  177.6890  146.5150 C   0  0  2  0  0  3  0  0  0  0  0  0
  185.1770  178.4000  146.9320 O   0  0  0  0  0  0  0  0  0  0  0  0
  185.6580  179.4840  147.5070 O   0  0  0  0  0  1  0  0  0  0  0  0
  187.4850  177.8850  147.4700 C   0  0  0  0  0  2  0  0  0  0  0  0
  188.8290  177.8330  146.7590 C   0  0  0  0  0  2  0  0  0  0  0  0
  189.5390  176.5470  147.1260 C   0  0  0  0  0  2  0  0  0  0  0  0
  191.7990  175.7640  147.7550 C   0  0  0  0  0  1  0  0  0  0  0  0
  191.0200  176.6890  146.8440 C   0  0  0  0  0  2  0  0  0  0  0  0
  188.7310  177.1890  142.0530 C   0  0  0  0  0  2  0  0  0  0  0  0
  190.2400  178.5000  143.5680 C   0  0  0  0  0  1  0  0  0  0  0  0
  190.0750  177.9020  142.1800 C   0  0  1  0  0  3  0  0  0  0  0  0
  191.8960  177.5280  140.6410 C   0  0  0  0  0  1  0  0  0  0  0  0
  191.2070  177.0360  141.8320 N   0  0  0  0  0  2  0  0  0  0  0  0
  188.5440  178.8940  140.2670 C   0  0  0  0  0  2  0  0  0  0  0  0
  188.1860  178.6500  138.8740 N   0  0  0  0  0  0  0  0  0  0  0  0
  189.3940  178.2920  138.1170 C   0  0  0  0  0  2  0  0  0  0  0  0
  189.8130  176.2750  136.7770 C   0  0  0  0  0  3  0  0  0  0  0  0
  189.5990  176.8080  137.9800 C   0  0  0  0  0  3  0  0  0  0  0  0
  190.0100  174.7990  136.6080 C   0  0  0  0  0  2  0  0  0  0  0  0
  191.1510  174.5020  135.6480 C   0  0  0  0  0  2  0  0  0  0  0  0
  191.9990  173.3500  136.1690 C   0  0  0  0  0  2  0  0  0  0  0  0
  193.0780  173.8640  137.1050 C   0  0  0  0  0  2  0  0  0  0  0  0
  194.2830  172.9420  137.0820 C   0  0  0  0  0  1  0  0  0  0  0  0
  187.2140  177.5610  138.8240 C   0  0  0  0  0  2  0  0  0  0  0  0
  186.0830  177.8990  137.8610 C   0  0  0  0  0  2  0  0  0  0  0  0
  186.2670  175.6380  137.1390 O   0  0  0  0  0  0  0  0  0  0  0  0
  185.5440  176.6680  137.2110 C   0  0  0  0  0  0  0  0  0  0  0  0
  184.2540  176.6730  136.6750 O   0  0  0  0  0  0  0  0  0  0  0  0
  183.1260  176.2570  137.4300 C   0  0  0  0  0  1  0  0  0  0  0  0
  1 22  1  1  0  0  0
  1 17  1  0  0  0  0
  1  2  1  0  0  0  0
  2  5  1  6  0  0  0
  3  4  1  0  0  0  0
  4  2  1  0  0  0  0
  5  6  1  0  0  0  0
  6  7  1  6  0  0  0
  6  8  1  0  0  0  0
  9  8  1  6  0  0  0
  9 10  1  0  0  0  0
  9 12  1  0  0  0  0
 10 11  1  0  0  0  0
 13 14  1  0  0  0  0
 13 12  1  0  0  0  0
 16 14  1  0  0  0  0
 16 15  1  0  0  0  0
 17 19  1  0  0  0  0
 19 18  1  1  0  0  0
 20 21  1  0  0  0  0
 21 19  1  0  0  0  0
 23 22  1  0  0  0  0
 24 23  1  0  0  0  0
 25 26  2  0  0  0  0
 26 24  1  0  0  0  0
 27 25  1  0  0  0  0
 28 29  1  0  0  0  0
 28 27  1  0  0  0  0
 29 30  1  0  0  0  0
 31 30  1  0  0  0  0
 32 23  1  0  0  0  0
 33 32  1  0  0  0  0
 34 35  2  0  0  0  0
 35 33  1  0  0  0  0
 36 35  1  0  0  0  0
 36 37  1  0  0  0  0
M  END
>  <MODEL>
9

>  <REMARK>
 VINA RESULT:      -4.9      3.025      6.804
  Name = 
  26 active torsions:
  status: ('A' for Active; 'I' for Inactive)
    1  A    between atoms: O_1  and  C_23
    2  A    between atoms: O_2  and  C_8
    3  A    between atoms: C_3  and  C_15
    4  A    between atoms: C_3  and  C_30
    5  A    between atoms: C_4  and  C_10
    6  A    between atoms: C_4  and  C_24
    7  A    between atoms: C_6  and  C_8
    8  A    between atoms: C_6  and  C_31
    9  A    between atoms: C_7  and  C_33
   10  A    between atoms: C_8  and  C_19
   11  A    between atoms: C_10  and  C_13
   12  A    between atoms: C_10  and  C_30
   13  A    between atoms: C_11  and  C_26
   14  A    between atoms: C_13  and  N_20
   15  A    between atoms: C_14  and  C_31
   16  A    between atoms: C_14  and  C_37
   17  A    between atoms: C_15  and  C_19
   18  A    between atoms: C_17  and  C_26
   19  A    between atoms: C_17  and  C_33
   20  A    between atoms: N_20  and  C_21
   21  A    between atoms: N_20  and  C_29
   22  A    between atoms: C_21  and  C_25
   23  A    between atoms: C_23  and  C_25
   24  A    between atoms: C_24  and  N_28
   25  A    between atoms: C_29  and  C_36
   26  A    between atoms: C_30  and  O_32
                            x       y       z     vdW  Elec       q    Type
                         _______ _______ _______ _____ _____    ______ ____

>  <TORSDO>
F 26

$$$$
