=
 OpenBabel11052414083D

 34 40  0  0  1  0  0  0  0  0999 V2000
  184.4820  178.5250  143.8010 C   0  0  0  0  0  0  0  0  0  0  0  0
  184.6600  178.8570  141.3910 C   0  0  0  0  0  0  0  0  0  0  0  0
  186.6560  178.5230  142.7300 C   0  0  0  0  0  0  0  0  0  0  0  0
  188.6990  178.1470  141.4950 N   0  0  0  0  0  0  0  0  0  0  0  0
  182.5290  178.9330  142.4370 C   0  0  0  0  0  3  0  0  0  0  0  0
  183.3100  178.9740  141.3170 N   0  0  0  0  0  0  0  0  0  0  0  0
  186.8150  178.6280  140.2800 C   0  0  2  0  0  3  0  0  0  0  0  0
  185.2700  178.6730  142.6500 C   0  0  0  0  0  0  0  0  0  0  0  0
  187.5770  177.2230  138.2330 N   0  0  0  0  0  2  0  0  0  0  0  0
  188.8060  177.5290  140.2440 N   0  0  0  0  0  0  0  0  0  0  0  0
  183.1000  178.6910  143.6970 C   0  0  0  0  0  3  0  0  0  0  0  0
  187.2640  178.0410  143.8910 C   0  0  0  0  0  0  0  0  0  0  0  0
  185.0920  178.1380  145.0070 C   0  0  0  0  0  3  0  0  0  0  0  0
  185.4780  178.6280  140.1670 C   0  0  0  0  0  2  0  0  0  0  0  0
  189.3090  177.6230  142.6550 N   0  0  0  0  0  0  0  0  0  0  0  0
  188.6890  177.6080  143.8080 C   0  0  0  0  0  0  0  0  0  0  0  0
  187.7800  177.8310  139.5130 C   0  0  0  0  0  0  0  0  0  0  0  0
  187.4920  178.9420  141.5670 C   0  0  1  0  0  3  0  0  0  0  0  0
  186.4740  177.8690  145.0430 C   0  0  0  0  0  3  0  0  0  0  0  0
  189.7630  177.5020  147.3860 C   0  0  0  0  0  0  0  0  0  0  0  0
  190.8010  176.4190  147.3440 C   0  0  0  0  0  2  0  0  0  0  0  0
  189.3620  177.0120  145.0180 C   0  0  2  0  0  3  0  0  0  0  0  0
  191.6810  176.6120  146.1070 C   0  0  0  0  0  2  0  0  0  0  0  0
  189.0950  177.8130  146.2650 C   0  0  0  0  0  3  0  0  0  0  0  0
  190.8630  176.7230  144.8030 C   0  0  0  0  0  2  0  0  0  0  0  0
  189.5600  178.2100  148.5280 F   0  0  0  0  0  0  0  0  0  0  0  0
  186.5960  177.6280  137.2350 C   0  0  1  0  0  3  0  0  0  0  0  0
  186.8690  176.8390  135.9760 C   0  0  0  0  0  2  0  0  0  0  0  0
  185.6780  176.4790  136.8440 C   0  0  2  0  0  3  0  0  0  0  0  0
  184.4270  176.9510  136.1450 C   0  0  0  0  0  0  0  0  0  0  0  0
  182.0970  177.8780  136.1560 C   0  0  0  0  0  1  0  0  0  0  0  0
  183.1920  177.2110  136.8440 N   0  0  0  0  0  0  0  0  0  0  0  0
  182.9690  176.7990  138.2200 C   0  0  0  0  0  1  0  0  0  0  0  0
  184.4800  177.1280  134.8980 O   0  0  0  0  0  0  0  0  0  0  0  0
  1 13  1  0  0  0  0
  2  8  1  0  0  0  0
  3 12  2  0  0  0  0
  4 18  1  0  0  0  0
  4 15  1  0  0  0  0
  5 11  2  0  0  0  0
  6  2  2  0  0  0  0
  6  5  1  0  0  0  0
  7 14  1  1  0  0  0
  7 18  1  0  0  0  0
  8  3  1  0  0  0  0
  8  1  2  0  0  0  0
  9 17  1  0  0  0  0
 10  4  1  0  0  0  0
 11  1  1  0  0  0  0
 12 19  1  0  0  0  0
 13 19  2  0  0  0  0
 14  2  1  0  0  0  0
 15 16  2  0  0  0  0
 16 12  1  0  0  0  0
 17 10  2  0  0  0  0
 17  7  1  0  0  0  0
 18  3  1  1  0  0  0
 20 26  1  0  0  0  0
 21 20  1  0  0  0  0
 22 16  1  6  0  0  0
 22 24  1  0  0  0  0
 23 21  1  0  0  0  0
 24 20  2  0  0  0  0
 25 22  1  0  0  0  0
 25 23  1  0  0  0  0
 27  9  1  1  0  0  0
 28 29  1  0  0  0  0
 28 27  1  0  0  0  0
 29 30  1  6  0  0  0
 29 27  1  0  0  0  0
 30 32  1  0  0  0  0
 31 32  1  0  0  0  0
 32 33  1  0  0  0  0
 34 30  2  0  0  0  0
M  END
>  <MODEL>
1

>  <REMARK>
 VINA RESULT:     -10.3      0.000      0.000
  Name = 
  3 active torsions:
  status: ('A' for Active; 'I' for Inactive)
    1  A    between atoms: C_3  and  N_17
    2  A    between atoms: C_12  and  C_28
    3  A    between atoms: C_13  and  C_14
                            x       y       z     vdW  Elec       q    Type
                         _______ _______ _______ _____ _____    ______ ____

>  <TORSDO>
F 3

$$$$
=
 OpenBabel11052414083D

 34 40  0  0  1  0  0  0  0  0999 V2000
  183.9470  178.7020  143.2480 C   0  0  0  0  0  0  0  0  0  0  0  0
  183.4000  178.8070  140.8730 C   0  0  0  0  0  0  0  0  0  0  0  0
  185.7150  178.6750  141.5900 C   0  0  0  0  0  0  0  0  0  0  0  0
  187.3330  178.2560  139.8450 N   0  0  0  0  0  0  0  0  0  0  0  0
  181.6620  178.9060  142.4880 C   0  0  0  0  0  3  0  0  0  0  0  0
  182.0820  178.8680  141.1890 N   0  0  0  0  0  0  0  0  0  0  0  0
  185.1520  178.5500  139.2010 C   0  0  2  0  0  3  0  0  0  0  0  0
  184.3580  178.7660  141.9080 C   0  0  0  0  0  0  0  0  0  0  0  0
  185.3750  176.9840  137.1420 N   0  0  0  0  0  2  0  0  0  0  0  0
  187.1120  177.5250  138.6720 N   0  0  0  0  0  0  0  0  0  0  0  0
  182.5860  178.8070  143.5410 C   0  0  0  0  0  3  0  0  0  0  0  0
  186.6610  178.3280  142.5560 C   0  0  0  0  0  0  0  0  0  0  0  0
  184.9020  178.4540  144.2490 C   0  0  0  0  0  3  0  0  0  0  0  0
  183.8420  178.4910  139.4860 C   0  0  0  0  0  2  0  0  0  0  0  0
  188.2840  177.8670  140.8130 N   0  0  0  0  0  0  0  0  0  0  0  0
  188.0250  177.9400  142.0940 C   0  0  0  0  0  0  0  0  0  0  0  0
  185.9020  177.7190  138.2520 C   0  0  0  0  0  0  0  0  0  0  0  0
  186.1510  179.0100  140.2030 C   0  0  1  0  0  3  0  0  0  0  0  0
  186.2490  178.2390  143.8990 C   0  0  0  0  0  3  0  0  0  0  0  0
  191.1720  178.2230  144.0900 C   0  0  0  0  0  0  0  0  0  0  0  0
  191.3300  176.8130  144.5810 C   0  0  0  0  0  2  0  0  0  0  0  0
  189.0550  177.4880  143.0980 C   0  0  2  0  0  3  0  0  0  0  0  0
  191.0320  175.8450  143.4340 C   0  0  0  0  0  2  0  0  0  0  0  0
  190.0990  178.5420  143.3510 C   0  0  0  0  0  3  0  0  0  0  0  0
  189.6650  176.1080  142.7700 C   0  0  0  0  0  2  0  0  0  0  0  0
  192.1430  179.1430  144.3290 F   0  0  0  0  0  0  0  0  0  0  0  0
  184.1250  177.2560  136.4460 C   0  0  1  0  0  3  0  0  0  0  0  0
  184.0650  176.3500  135.2380 C   0  0  0  0  0  2  0  0  0  0  0  0
  183.2010  176.0460  136.4480 C   0  0  2  0  0  3  0  0  0  0  0  0
  181.7750  176.4080  136.1110 C   0  0  0  0  0  0  0  0  0  0  0  0
  179.4880  177.2240  136.7350 C   0  0  0  0  0  1  0  0  0  0  0  0
  180.7740  176.6610  137.1170 N   0  0  0  0  0  0  0  0  0  0  0  0
  180.9750  176.3400  138.5200 C   0  0  0  0  0  1  0  0  0  0  0  0
  181.4630  176.4970  134.8920 O   0  0  0  0  0  0  0  0  0  0  0  0
  1 11  1  0  0  0  0
  1 13  1  0  0  0  0
  2  6  2  0  0  0  0
  2  8  1  0  0  0  0
  3  8  1  0  0  0  0
  3 12  2  0  0  0  0
  4 18  1  0  0  0  0
  4 15  1  0  0  0  0
  5 11  2  0  0  0  0
  6  5  1  0  0  0  0
  7 14  1  1  0  0  0
  7 18  1  0  0  0  0
  8  1  2  0  0  0  0
  9 17  1  0  0  0  0
 10  4  1  0  0  0  0
 12 19  1  0  0  0  0
 14  2  1  0  0  0  0
 15 16  2  0  0  0  0
 16 12  1  0  0  0  0
 17 10  2  0  0  0  0
 17  7  1  0  0  0  0
 18  3  1  1  0  0  0
 19 13  2  0  0  0  0
 20 26  1  0  0  0  0
 20 21  1  0  0  0  0
 22 16  1  6  0  0  0
 22 24  1  0  0  0  0
 23 21  1  0  0  0  0
 24 20  2  0  0  0  0
 25 22  1  0  0  0  0
 25 23  1  0  0  0  0
 27 29  1  0  0  0  0
 27  9  1  1  0  0  0
 28 27  1  0  0  0  0
 28 29  1  0  0  0  0
 29 30  1  6  0  0  0
 30 32  1  0  0  0  0
 31 32  1  0  0  0  0
 32 33  1  0  0  0  0
 34 30  2  0  0  0  0
M  END
>  <MODEL>
2

>  <REMARK>
 VINA RESULT:      -9.2      1.834      2.330
  Name = 
  3 active torsions:
  status: ('A' for Active; 'I' for Inactive)
    1  A    between atoms: C_3  and  N_17
    2  A    between atoms: C_12  and  C_28
    3  A    between atoms: C_13  and  C_14
                            x       y       z     vdW  Elec       q    Type
                         _______ _______ _______ _____ _____    ______ ____

>  <TORSDO>
F 3

$$$$
=
 OpenBabel11052414083D

 34 40  0  0  1  0  0  0  0  0999 V2000
  187.2350  177.6730  137.9620 C   0  0  0  0  0  0  0  0  0  0  0  0
  187.5340  178.4350  140.2600 C   0  0  0  0  0  0  0  0  0  0  0  0
  185.3320  178.4580  139.2410 C   0  0  0  0  0  0  0  0  0  0  0  0
  183.4850  178.8800  140.7410 N   0  0  0  0  0  0  0  0  0  0  0  0
  189.4190  177.7360  138.9950 C   0  0  0  0  0  3  0  0  0  0  0  0
  188.8630  178.1790  140.1620 N   0  0  0  0  0  0  0  0  0  0  0  0
  185.5980  179.0070  141.6220 C   0  0  2  0  0  3  0  0  0  0  0  0
  186.7050  178.2240  139.1390 C   0  0  0  0  0  0  0  0  0  0  0  0
  184.8400  178.2310  143.9810 N   0  0  0  0  0  2  0  0  0  0  0  0
  183.4250  178.5330  142.0960 N   0  0  0  0  0  0  0  0  0  0  0  0
  188.6120  177.4590  137.8800 C   0  0  0  0  0  3  0  0  0  0  0  0
  184.4440  177.9820  138.2750 C   0  0  0  0  0  0  0  0  0  0  0  0
  186.3630  177.2790  136.9330 C   0  0  0  0  0  3  0  0  0  0  0  0
  186.8910  178.6500  141.5860 C   0  0  0  0  0  2  0  0  0  0  0  0
  182.5840  178.3640  139.7850 N   0  0  0  0  0  0  0  0  0  0  0  0
  182.9880  177.9850  138.5990 C   0  0  0  0  0  0  0  0  0  0  0  0
  184.5970  178.6510  142.6340 C   0  0  0  0  0  0  0  0  0  0  0  0
  184.8270  179.2810  140.3790 C   0  0  1  0  0  3  0  0  0  0  0  0
  184.9700  177.4060  137.1030 C   0  0  0  0  0  3  0  0  0  0  0  0
  180.3870  178.1390  135.9190 C   0  0  0  0  0  0  0  0  0  0  0  0
  179.8350  176.7440  135.9720 C   0  0  0  0  0  2  0  0  0  0  0  0
  182.0010  177.4110  137.6150 C   0  0  2  0  0  3  0  0  0  0  0  0
  179.6510  176.3320  137.4340 C   0  0  0  0  0  2  0  0  0  0  0  0
  181.4040  178.4720  136.7290 C   0  0  0  0  0  3  0  0  0  0  0  0
  180.9330  176.5110  138.2720 C   0  0  0  0  0  2  0  0  0  0  0  0
  179.8120  179.0710  135.1150 F   0  0  0  0  0  0  0  0  0  0  0  0
  186.0370  178.5030  144.7640 C   0  0  1  0  0  3  0  0  0  0  0  0
  185.8190  177.9410  146.1490 C   0  0  0  0  0  2  0  0  0  0  0  0
  186.7440  177.2220  145.1830 C   0  0  2  0  0  3  0  0  0  0  0  0
  188.1660  177.4650  145.6260 C   0  0  0  0  0  0  0  0  0  0  0  0
  190.6210  177.6860  145.1710 C   0  0  0  0  0  1  0  0  0  0  0  0
  189.3020  177.2200  144.7730 N   0  0  0  0  0  0  0  0  0  0  0  0
  189.2000  176.4830  143.5240 C   0  0  0  0  0  1  0  0  0  0  0  0
  188.3520  177.9070  146.7920 O   0  0  0  0  0  0  0  0  0  0  0  0
  1  8  1  0  0  0  0
  2 14  1  0  0  0  0
  4 10  1  0  0  0  0
  5  6  2  0  0  0  0
  6  2  1  0  0  0  0
  7 14  1  6  0  0  0
  7 17  1  0  0  0  0
  8  3  1  0  0  0  0
  8  2  2  0  0  0  0
 10 17  2  0  0  0  0
 11  1  2  0  0  0  0
 11  5  1  0  0  0  0
 12 16  1  0  0  0  0
 12  3  2  0  0  0  0
 13 19  2  0  0  0  0
 13  1  1  0  0  0  0
 15  4  1  0  0  0  0
 16 15  2  0  0  0  0
 17  9  1  0  0  0  0
 18  3  1  6  0  0  0
 18  4  1  0  0  0  0
 18  7  1  0  0  0  0
 19 12  1  0  0  0  0
 20 21  1  0  0  0  0
 20 24  2  0  0  0  0
 21 23  1  0  0  0  0
 22 25  1  0  0  0  0
 22 16  1  1  0  0  0
 23 25  1  0  0  0  0
 24 22  1  0  0  0  0
 26 20  1  0  0  0  0
 27  9  1  6  0  0  0
 27 29  1  0  0  0  0
 27 28  1  0  0  0  0
 29 30  1  1  0  0  0
 29 28  1  0  0  0  0
 30 34  2  0  0  0  0
 32 31  1  0  0  0  0
 32 30  1  0  0  0  0
 33 32  1  0  0  0  0
M  END
>  <MODEL>
3

>  <REMARK>
 VINA RESULT:      -9.0      3.857      9.155
  Name = 
  3 active torsions:
  status: ('A' for Active; 'I' for Inactive)
    1  A    between atoms: C_3  and  N_17
    2  A    between atoms: C_12  and  C_28
    3  A    between atoms: C_13  and  C_14
                            x       y       z     vdW  Elec       q    Type
                         _______ _______ _______ _____ _____    ______ ____

>  <TORSDO>
F 3

$$$$
=
 OpenBabel11052414083D

 34 40  0  0  1  0  0  0  0  0999 V2000
  187.8900  177.3160  144.4970 C   0  0  0  0  0  0  0  0  0  0  0  0
  185.7700  178.3760  143.9180 C   0  0  0  0  0  0  0  0  0  0  0  0
  187.5250  178.1650  142.2550 C   0  0  0  0  0  0  0  0  0  0  0  0
  186.8880  178.6850  139.9840 N   0  0  0  0  0  0  0  0  0  0  0  0
  186.1400  177.6140  146.1370 C   0  0  0  0  0  3  0  0  0  0  0  0
  185.3330  178.1740  145.1870 N   0  0  0  0  0  0  0  0  0  0  0  0
  185.3130  179.0230  141.6160 C   0  0  2  0  0  3  0  0  0  0  0  0
  187.0790  177.9860  143.5670 C   0  0  0  0  0  0  0  0  0  0  0  0
  183.3210  178.5160  140.0290 N   0  0  0  0  0  2  0  0  0  0  0  0
  185.6180  178.5090  139.4210 N   0  0  0  0  0  0  0  0  0  0  0  0
  187.4260  177.1600  145.8040 C   0  0  0  0  0  3  0  0  0  0  0  0
  188.6770  177.5280  141.7910 C   0  0  0  0  0  0  0  0  0  0  0  0
  189.1050  176.7540  144.0700 C   0  0  0  0  0  3  0  0  0  0  0  0
  184.8190  178.7270  142.8270 C   0  0  0  0  0  2  0  0  0  0  0  0
  188.0300  178.0090  139.5030 N   0  0  0  0  0  0  0  0  0  0  0  0
  188.9190  177.5030  140.3200 C   0  0  0  0  0  0  0  0  0  0  0  0
  184.7050  178.7510  140.3070 C   0  0  0  0  0  0  0  0  0  0  0  0
  186.7770  179.1000  141.3650 C   0  0  1  0  0  3  0  0  0  0  0  0
  189.4810  176.8350  142.7150 C   0  0  0  0  0  3  0  0  0  0  0  0
  192.5330  177.0250  139.4940 C   0  0  0  0  0  0  0  0  0  0  0  0
  192.4590  175.8760  138.5310 C   0  0  0  0  0  2  0  0  0  0  0  0
  190.1110  176.7620  139.7700 C   0  0  2  0  0  3  0  0  0  0  0  0
  191.2990  176.1050  137.5610 C   0  0  0  0  0  2  0  0  0  0  0  0
  191.4050  177.4750  140.0640 C   0  0  0  0  0  3  0  0  0  0  0  0
  189.9630  176.3820  138.2810 C   0  0  0  0  0  2  0  0  0  0  0  0
  193.7180  177.6490  139.7230 F   0  0  0  0  0  0  0  0  0  0  0  0
  182.1940  178.9430  140.8480 C   0  0  1  0  0  3  0  0  0  0  0  0
  180.9790  179.0240  139.9540 C   0  0  0  0  0  2  0  0  0  0  0  0
  181.1170  177.8710  140.9320 C   0  0  2  0  0  3  0  0  0  0  0  0
  180.1560  178.1060  142.0720 C   0  0  0  0  0  0  0  0  0  0  0  0
  179.5890  179.0020  144.3440 C   0  0  0  0  0  1  0  0  0  0  0  0
  180.5800  178.5810  143.3660 N   0  0  0  0  0  0  0  0  0  0  0  0
  181.9780  178.6270  143.7640 C   0  0  0  0  0  1  0  0  0  0  0  0
  178.9330  177.8780  141.8680 O   0  0  0  0  0  0  0  0  0  0  0  0
  1 11  2  0  0  0  0
  2  6  1  0  0  0  0
  3  8  1  0  0  0  0
  4 18  1  0  0  0  0
  6  5  2  0  0  0  0
  7 14  1  1  0  0  0
  8  2  2  0  0  0  0
  8  1  1  0  0  0  0
  9 17  1  0  0  0  0
 10  4  1  0  0  0  0
 10 17  2  0  0  0  0
 11  5  1  0  0  0  0
 12  3  2  0  0  0  0
 12 19  1  0  0  0  0
 13  1  1  0  0  0  0
 14  2  1  0  0  0  0
 15  4  1  0  0  0  0
 15 16  2  0  0  0  0
 16 12  1  0  0  0  0
 17  7  1  0  0  0  0
 18  7  1  0  0  0  0
 18  3  1  1  0  0  0
 19 13  2  0  0  0  0
 20 26  1  0  0  0  0
 20 24  2  0  0  0  0
 21 20  1  0  0  0  0
 22 24  1  0  0  0  0
 22 16  1  6  0  0  0
 23 25  1  0  0  0  0
 23 21  1  0  0  0  0
 25 22  1  0  0  0  0
 27  9  1  6  0  0  0
 27 29  1  0  0  0  0
 28 27  1  0  0  0  0
 28 29  1  0  0  0  0
 29 30  1  1  0  0  0
 30 32  1  0  0  0  0
 32 33  1  0  0  0  0
 32 31  1  0  0  0  0
 34 30  2  0  0  0  0
M  END
>  <MODEL>
4

>  <REMARK>
 VINA RESULT:      -8.8      3.318      5.660
  Name = 
  3 active torsions:
  status: ('A' for Active; 'I' for Inactive)
    1  A    between atoms: C_3  and  N_17
    2  A    between atoms: C_12  and  C_28
    3  A    between atoms: C_13  and  C_14
                            x       y       z     vdW  Elec       q    Type
                         _______ _______ _______ _____ _____    ______ ____

>  <TORSDO>
F 3

$$$$
=
 OpenBabel11052414083D

 34 40  0  0  1  0  0  0  0  0999 V2000
  187.2100  177.6300  137.8410 C   0  0  0  0  0  0  0  0  0  0  0  0
  187.5610  178.4030  140.1280 C   0  0  0  0  0  0  0  0  0  0  0  0
  185.3400  178.4440  139.1510 C   0  0  0  0  0  0  0  0  0  0  0  0
  183.5270  178.8960  140.6830 N   0  0  0  0  0  0  0  0  0  0  0  0
  189.4130  177.6740  138.8320 C   0  0  0  0  0  3  0  0  0  0  0  0
  188.8860  178.1320  140.0060 N   0  0  0  0  0  0  0  0  0  0  0  0
  185.6580  179.0050  141.5230 C   0  0  2  0  0  3  0  0  0  0  0  0
  186.7080  178.1940  139.0240 C   0  0  0  0  0  0  0  0  0  0  0  0
  184.9370  178.2520  143.9010 N   0  0  0  0  0  2  0  0  0  0  0  0
  183.4890  178.5580  142.0410 N   0  0  0  0  0  0  0  0  0  0  0  0
  188.5820  177.4000  137.7340 C   0  0  0  0  0  3  0  0  0  0  0  0
  184.4290  177.9710  138.2050 C   0  0  0  0  0  0  0  0  0  0  0  0
  186.3130  177.2390  136.8320 C   0  0  0  0  0  3  0  0  0  0  0  0
  186.9460  178.6330  141.4650 C   0  0  0  0  0  2  0  0  0  0  0  0
  182.6020  178.3840  139.7480 N   0  0  0  0  0  0  0  0  0  0  0  0
  182.9800  177.9930  138.5570 C   0  0  0  0  0  0  0  0  0  0  0  0
  184.6720  178.6670  142.5560 C   0  0  0  0  0  0  0  0  0  0  0  0
  184.8670  179.2800  140.2930 C   0  0  1  0  0  3  0  0  0  0  0  0
  184.9260  177.3820  137.0280 C   0  0  0  0  0  3  0  0  0  0  0  0
  181.3890  175.3100  136.4980 C   0  0  0  0  0  0  0  0  0  0  0  0
  180.5260  176.1240  135.5790 C   0  0  0  0  0  2  0  0  0  0  0  0
  181.9680  177.4240  137.5960 C   0  0  2  0  0  3  0  0  0  0  0  0
  181.3200  177.3360  135.0870 C   0  0  0  0  0  2  0  0  0  0  0  0
  182.1080  175.9320  137.4440 C   0  0  0  0  0  3  0  0  0  0  0  0
  181.9280  178.1610  136.2390 C   0  0  0  0  0  2  0  0  0  0  0  0
  181.4980  173.9670  136.3210 F   0  0  0  0  0  0  0  0  0  0  0  0
  186.1520  178.5160  144.6590 C   0  0  1  0  0  3  0  0  0  0  0  0
  185.8670  178.2020  146.1090 C   0  0  0  0  0  2  0  0  0  0  0  0
  186.7150  177.2490  145.2860 C   0  0  2  0  0  3  0  0  0  0  0  0
  188.1530  177.4080  145.7180 C   0  0  0  0  0  0  0  0  0  0  0  0
  190.6120  177.5050  145.2410 C   0  0  0  0  0  1  0  0  0  0  0  0
  189.2660  177.1170  144.8480 N   0  0  0  0  0  0  0  0  0  0  0  0
  189.1120  176.4090  143.5890 C   0  0  0  0  0  1  0  0  0  0  0  0
  188.3740  177.8200  146.8890 O   0  0  0  0  0  0  0  0  0  0  0  0
  1  8  1  0  0  0  0
  2 14  1  0  0  0  0
  4 10  1  0  0  0  0
  5  6  2  0  0  0  0
  6  2  1  0  0  0  0
  7 14  1  6  0  0  0
  7 17  1  0  0  0  0
  8  3  1  0  0  0  0
  8  2  2  0  0  0  0
 10 17  2  0  0  0  0
 11  1  2  0  0  0  0
 11  5  1  0  0  0  0
 12 16  1  0  0  0  0
 12  3  2  0  0  0  0
 13 19  2  0  0  0  0
 13  1  1  0  0  0  0
 15  4  1  0  0  0  0
 16 15  2  0  0  0  0
 17  9  1  0  0  0  0
 18  3  1  6  0  0  0
 18  4  1  0  0  0  0
 18  7  1  0  0  0  0
 19 12  1  0  0  0  0
 20 24  2  0  0  0  0
 21 20  1  0  0  0  0
 22 16  1  1  0  0  0
 23 21  1  0  0  0  0
 23 25  1  0  0  0  0
 24 22  1  0  0  0  0
 25 22  1  0  0  0  0
 26 20  1  0  0  0  0
 27  9  1  6  0  0  0
 27 29  1  0  0  0  0
 27 28  1  0  0  0  0
 29 30  1  1  0  0  0
 29 28  1  0  0  0  0
 30 34  2  0  0  0  0
 32 31  1  0  0  0  0
 32 30  1  0  0  0  0
 33 32  1  0  0  0  0
M  END
>  <MODEL>
5

>  <REMARK>
 VINA RESULT:      -8.7      3.678      9.059
  Name = 
  3 active torsions:
  status: ('A' for Active; 'I' for Inactive)
    1  A    between atoms: C_3  and  N_17
    2  A    between atoms: C_12  and  C_28
    3  A    between atoms: C_13  and  C_14
                            x       y       z     vdW  Elec       q    Type
                         _______ _______ _______ _____ _____    ______ ____

>  <TORSDO>
F 3

$$$$
=
 OpenBabel11052414083D

 34 40  0  0  1  0  0  0  0  0999 V2000
  188.7810  176.4750  137.2090 C   0  0  0  0  0  0  0  0  0  0  0  0
  189.9570  176.6940  139.3340 C   0  0  0  0  0  0  0  0  0  0  0  0
  187.8390  177.8260  138.9880 C   0  0  0  0  0  0  0  0  0  0  0  0
  186.8330  178.7980  140.9580 N   0  0  0  0  0  0  0  0  0  0  0  0
  190.9260  175.4250  137.5760 C   0  0  0  0  0  3  0  0  0  0  0  0
  190.9480  175.8970  138.8580 N   0  0  0  0  0  0  0  0  0  0  0  0
  188.9110  177.8580  141.2000 C   0  0  2  0  0  3  0  0  0  0  0  0
  188.8750  177.0300  138.4950 C   0  0  0  0  0  0  0  0  0  0  0  0
  188.4930  177.1680  143.6680 N   0  0  0  0  0  2  0  0  0  0  0  0
  186.9580  178.3240  142.2690 N   0  0  0  0  0  0  0  0  0  0  0  0
  189.8340  175.6920  136.7350 C   0  0  0  0  0  3  0  0  0  0  0  0
  186.6230  177.9290  138.3100 C   0  0  0  0  0  0  0  0  0  0  0  0
  187.6000  176.6540  136.4680 C   0  0  0  0  0  3  0  0  0  0  0  0
  189.8380  176.9790  140.7920 C   0  0  0  0  0  2  0  0  0  0  0  0
  185.5900  178.8710  140.2930 N   0  0  0  0  0  0  0  0  0  0  0  0
  185.4650  178.5260  139.0370 C   0  0  0  0  0  0  0  0  0  0  0  0
  188.1450  177.8390  142.4520 C   0  0  0  0  0  0  0  0  0  0  0  0
  188.0720  178.6160  140.2330 C   0  0  1  0  0  3  0  0  0  0  0  0
  186.5150  177.3540  137.0300 C   0  0  0  0  0  3  0  0  0  0  0  0
  182.0380  179.8910  138.4320 C   0  0  0  0  0  0  0  0  0  0  0  0
  181.4190  178.7750  137.6430 C   0  0  0  0  0  2  0  0  0  0  0  0
  184.1150  178.5900  138.3690 C   0  0  2  0  0  3  0  0  0  0  0  0
  181.7950  177.4360  138.2820 C   0  0  0  0  0  2  0  0  0  0  0  0
  183.3210  179.7900  138.8110 C   0  0  0  0  0  3  0  0  0  0  0  0
  183.3160  177.2730  138.4750 C   0  0  0  0  0  2  0  0  0  0  0  0
  181.2850  180.9510  138.8230 F   0  0  0  0  0  0  0  0  0  0  0  0
  189.8330  176.7720  144.0790 C   0  0  1  0  0  3  0  0  0  0  0  0
  190.6380  178.0320  144.2930 C   0  0  0  0  0  2  0  0  0  0  0  0
  190.1520  177.2380  145.4920 C   0  0  2  0  0  3  0  0  0  0  0  0
  191.3350  176.5130  146.0860 C   0  0  0  0  0  0  0  0  0  0  0  0
  192.6780  175.6870  148.0350 C   0  0  0  0  0  1  0  0  0  0  0  0
  191.6720  176.5830  147.4860 N   0  0  0  0  0  0  0  0  0  0  0  0
  191.0710  177.5500  148.3890 C   0  0  0  0  0  1  0  0  0  0  0  0
  192.0450  175.8130  145.3130 O   0  0  0  0  0  0  0  0  0  0  0  0
  1  8  1  0  0  0  0
  2 14  1  0  0  0  0
  4 10  1  0  0  0  0
  5  6  2  0  0  0  0
  6  2  1  0  0  0  0
  7 14  1  6  0  0  0
  7 17  1  0  0  0  0
  8  3  1  0  0  0  0
  8  2  2  0  0  0  0
 10 17  2  0  0  0  0
 11  1  2  0  0  0  0
 11  5  1  0  0  0  0
 12  3  2  0  0  0  0
 12 16  1  0  0  0  0
 13 19  2  0  0  0  0
 13  1  1  0  0  0  0
 15  4  1  0  0  0  0
 16 15  2  0  0  0  0
 17  9  1  0  0  0  0
 18  3  1  6  0  0  0
 18  4  1  0  0  0  0
 18  7  1  0  0  0  0
 19 12  1  0  0  0  0
 20 24  2  0  0  0  0
 20 26  1  0  0  0  0
 21 23  1  0  0  0  0
 21 20  1  0  0  0  0
 22 25  1  0  0  0  0
 22 24  1  0  0  0  0
 22 16  1  1  0  0  0
 23 25  1  0  0  0  0
 27  9  1  1  0  0  0
 27 28  1  0  0  0  0
 27 29  1  0  0  0  0
 28 29  1  0  0  0  0
 29 30  1  6  0  0  0
 30 32  1  0  0  0  0
 32 31  1  0  0  0  0
 32 33  1  0  0  0  0
 34 30  2  0  0  0  0
M  END
>  <MODEL>
6

>  <REMARK>
 VINA RESULT:      -8.7      3.896      9.143
  Name = 
  3 active torsions:
  status: ('A' for Active; 'I' for Inactive)
    1  A    between atoms: C_3  and  N_17
    2  A    between atoms: C_12  and  C_28
    3  A    between atoms: C_13  and  C_14
                            x       y       z     vdW  Elec       q    Type
                         _______ _______ _______ _____ _____    ______ ____

>  <TORSDO>
F 3

$$$$
=
 OpenBabel11052414083D

 34 40  0  0  1  0  0  0  0  0999 V2000
  188.5990  177.0410  143.6020 C   0  0  0  0  0  0  0  0  0  0  0  0
  186.5810  178.2520  142.9610 C   0  0  0  0  0  0  0  0  0  0  0  0
  188.3320  177.8460  141.3300 C   0  0  0  0  0  0  0  0  0  0  0  0
  187.7670  178.3440  139.0350 N   0  0  0  0  0  0  0  0  0  0  0  0
  186.8600  177.5320  145.2060 C   0  0  0  0  0  3  0  0  0  0  0  0
  186.1140  178.1270  144.2290 N   0  0  0  0  0  0  0  0  0  0  0  0
  186.2060  178.8620  140.6330 C   0  0  2  0  0  3  0  0  0  0  0  0
  187.8570  177.7450  142.6400 C   0  0  0  0  0  0  0  0  0  0  0  0
  184.1980  178.4700  139.0340 N   0  0  0  0  0  2  0  0  0  0  0  0
  186.4940  178.2550  138.4590 N   0  0  0  0  0  0  0  0  0  0  0  0
  188.1080  176.9640  144.9060 C   0  0  0  0  0  3  0  0  0  0  0  0
  189.4330  177.1020  140.9030 C   0  0  0  0  0  0  0  0  0  0  0  0
  189.7680  176.3680  143.2100 C   0  0  0  0  0  3  0  0  0  0  0  0
  185.6750  178.6450  141.8450 C   0  0  0  0  0  2  0  0  0  0  0  0
  188.8560  177.5620  138.5920 N   0  0  0  0  0  0  0  0  0  0  0  0
  189.6900  177.0110  139.4370 C   0  0  0  0  0  0  0  0  0  0  0  0
  185.5940  178.5990  139.3250 C   0  0  0  0  0  0  0  0  0  0  0  0
  187.6750  178.8110  140.4010 C   0  0  1  0  0  3  0  0  0  0  0  0
  190.1670  176.3740  141.8590 C   0  0  0  0  0  3  0  0  0  0  0  0
  192.9450  176.3670  137.7160 C   0  0  0  0  0  0  0  0  0  0  0  0
  192.8800  174.8790  137.5240 C   0  0  0  0  0  2  0  0  0  0  0  0
  190.8240  176.1580  138.9270 C   0  0  2  0  0  3  0  0  0  0  0  0
  191.4780  174.4940  137.0490 C   0  0  0  0  0  2  0  0  0  0  0  0
  191.9450  176.9880  138.3580 C   0  0  0  0  0  3  0  0  0  0  0  0
  190.3650  175.0370  137.9690 C   0  0  0  0  0  2  0  0  0  0  0  0
  193.9670  177.0810  137.1760 F   0  0  0  0  0  0  0  0  0  0  0  0
  183.1010  179.0130  139.8230 C   0  0  1  0  0  3  0  0  0  0  0  0
  182.5620  180.2210  139.0930 C   0  0  0  0  0  2  0  0  0  0  0  0
  181.7730  178.9240  139.0850 C   0  0  2  0  0  3  0  0  0  0  0  0
  180.5880  179.0890  140.0040 C   0  0  0  0  0  0  0  0  0  0  0  0
  178.9310  178.2050  141.6650 C   0  0  0  0  0  1  0  0  0  0  0  0
  179.9130  177.9720  140.6170 N   0  0  0  0  0  0  0  0  0  0  0  0
  180.1410  176.5970  140.2040 C   0  0  0  0  0  1  0  0  0  0  0  0
  180.1880  180.2610  140.2440 O   0  0  0  0  0  0  0  0  0  0  0  0
  1 11  2  0  0  0  0
  2  6  1  0  0  0  0
  3  8  1  0  0  0  0
  4 18  1  0  0  0  0
  6  5  2  0  0  0  0
  7 14  1  1  0  0  0
  8  2  2  0  0  0  0
  8  1  1  0  0  0  0
  9 17  1  0  0  0  0
 10  4  1  0  0  0  0
 10 17  2  0  0  0  0
 11  5  1  0  0  0  0
 12  3  2  0  0  0  0
 12 19  1  0  0  0  0
 13  1  1  0  0  0  0
 14  2  1  0  0  0  0
 15  4  1  0  0  0  0
 15 16  2  0  0  0  0
 16 12  1  0  0  0  0
 17  7  1  0  0  0  0
 18  7  1  0  0  0  0
 18  3  1  1  0  0  0
 19 13  2  0  0  0  0
 20 24  2  0  0  0  0
 21 20  1  0  0  0  0
 22 16  1  6  0  0  0
 23 21  1  0  0  0  0
 23 25  1  0  0  0  0
 24 22  1  0  0  0  0
 25 22  1  0  0  0  0
 26 20  1  0  0  0  0
 27  9  1  6  0  0  0
 28 27  1  0  0  0  0
 29 28  1  0  0  0  0
 29 27  1  0  0  0  0
 29 30  1  1  0  0  0
 30 34  2  0  0  0  0
 30 32  1  0  0  0  0
 32 31  1  0  0  0  0
 33 32  1  0  0  0  0
M  END
>  <MODEL>
7

>  <REMARK>
 VINA RESULT:      -8.6      3.758      5.740
  Name = 
  3 active torsions:
  status: ('A' for Active; 'I' for Inactive)
    1  A    between atoms: C_3  and  N_17
    2  A    between atoms: C_12  and  C_28
    3  A    between atoms: C_13  and  C_14
                            x       y       z     vdW  Elec       q    Type
                         _______ _______ _______ _____ _____    ______ ____

>  <TORSDO>
F 3

$$$$
=
 OpenBabel11052414083D

 34 40  0  0  1  0  0  0  0  0999 V2000
  184.7270  178.5750  141.7700 C   0  0  0  0  0  0  0  0  0  0  0  0
  186.3460  178.4180  139.9530 C   0  0  0  0  0  0  0  0  0  0  0  0
  187.1000  178.5030  142.2580 C   0  0  0  0  0  0  0  0  0  0  0  0
  189.4410  178.0240  142.6160 N   0  0  0  0  0  0  0  0  0  0  0  0
  184.0280  178.5600  139.4570 C   0  0  0  0  0  3  0  0  0  0  0  0
  185.3270  178.4250  139.0570 N   0  0  0  0  0  0  0  0  0  0  0  0
  188.7120  178.1160  140.4430 C   0  0  2  0  0  3  0  0  0  0  0  0
  186.0580  178.5380  141.3280 C   0  0  0  0  0  0  0  0  0  0  0  0
  190.4530  176.3770  139.6120 N   0  0  0  0  0  2  0  0  0  0  0  0
  190.2380  177.1720  141.8420 N   0  0  0  0  0  0  0  0  0  0  0  0
  183.7040  178.6210  140.8220 C   0  0  0  0  0  3  0  0  0  0  0  0
  186.8480  178.3120  143.6180 C   0  0  0  0  0  0  0  0  0  0  0  0
  184.4560  178.4860  143.1460 C   0  0  0  0  0  3  0  0  0  0  0  0
  187.7180  178.0000  139.5500 C   0  0  0  0  0  2  0  0  0  0  0  0
  189.1890  177.7910  143.9850 N   0  0  0  0  0  0  0  0  0  0  0  0
  187.9990  177.9700  144.5020 C   0  0  0  0  0  0  0  0  0  0  0  0
  189.8850  177.2470  140.5980 C   0  0  0  0  0  0  0  0  0  0  0  0
  188.4950  178.7320  141.7800 C   0  0  1  0  0  3  0  0  0  0  0  0
  185.5130  178.3250  144.0630 C   0  0  0  0  0  3  0  0  0  0  0  0
  187.0610  178.8160  148.0190 C   0  0  0  0  0  0  0  0  0  0  0  0
  187.5920  177.6210  148.7550 C   0  0  0  0  0  2  0  0  0  0  0  0
  187.7620  177.6820  145.9620 C   0  0  2  0  0  3  0  0  0  0  0  0
  188.9800  177.2730  148.2140 C   0  0  0  0  0  2  0  0  0  0  0  0
  187.1710  178.8640  146.6830 C   0  0  0  0  0  3  0  0  0  0  0  0
  188.9990  177.1010  146.6810 C   0  0  0  0  0  2  0  0  0  0  0  0
  186.5450  179.8690  148.7070 F   0  0  0  0  0  0  0  0  0  0  0  0
  190.3050  176.5010  138.1690 C   0  0  1  0  0  3  0  0  0  0  0  0
  190.9360  175.2830  137.5360 C   0  0  0  0  0  2  0  0  0  0  0  0
  189.4240  175.4010  137.5930 C   0  0  2  0  0  3  0  0  0  0  0  0
  188.9250  175.7270  136.2070 C   0  0  0  0  0  0  0  0  0  0  0  0
  187.1100  176.3490  134.5940 C   0  0  0  0  0  1  0  0  0  0  0  0
  187.5230  175.8110  135.8810 N   0  0  0  0  0  0  0  0  0  0  0  0
  186.4810  175.3420  136.7780 C   0  0  0  0  0  1  0  0  0  0  0  0
  189.7830  175.9390  135.3070 O   0  0  0  0  0  0  0  0  0  0  0  0
  1 13  1  0  0  0  0
  2  8  1  0  0  0  0
  3 12  2  0  0  0  0
  4 15  1  0  0  0  0
  5 11  2  0  0  0  0
  6  5  1  0  0  0  0
  6  2  2  0  0  0  0
  7 14  1  1  0  0  0
  7 17  1  0  0  0  0
  7 18  1  0  0  0  0
  8  1  2  0  0  0  0
  8  3  1  0  0  0  0
  9 17  1  0  0  0  0
 10  4  1  0  0  0  0
 11  1  1  0  0  0  0
 12 19  1  0  0  0  0
 12 16  1  0  0  0  0
 13 19  2  0  0  0  0
 14  2  1  0  0  0  0
 15 16  2  0  0  0  0
 17 10  2  0  0  0  0
 18  3  1  1  0  0  0
 18  4  1  0  0  0  0
 20 26  1  0  0  0  0
 20 21  1  0  0  0  0
 22 16  1  6  0  0  0
 22 25  1  0  0  0  0
 22 24  1  0  0  0  0
 23 21  1  0  0  0  0
 24 20  2  0  0  0  0
 25 23  1  0  0  0  0
 27  9  1  1  0  0  0
 28 29  1  0  0  0  0
 28 27  1  0  0  0  0
 29 30  1  6  0  0  0
 29 27  1  0  0  0  0
 31 32  1  0  0  0  0
 32 30  1  0  0  0  0
 32 33  1  0  0  0  0
 34 30  2  0  0  0  0
M  END
>  <MODEL>
8

>  <REMARK>
 VINA RESULT:      -8.5      2.148      3.071
  Name = 
  3 active torsions:
  status: ('A' for Active; 'I' for Inactive)
    1  A    between atoms: C_3  and  N_17
    2  A    between atoms: C_12  and  C_28
    3  A    between atoms: C_13  and  C_14
                            x       y       z     vdW  Elec       q    Type
                         _______ _______ _______ _____ _____    ______ ____

>  <TORSDO>
F 3

$$$$
=
 OpenBabel11052414083D

 34 40  0  0  1  0  0  0  0  0999 V2000
  188.0170  178.3720  140.0430 C   0  0  0  0  0  0  0  0  0  0  0  0
  185.9310  178.4210  138.7810 C   0  0  0  0  0  0  0  0  0  0  0  0
  185.8970  178.0950  141.1850 C   0  0  0  0  0  0  0  0  0  0  0  0
  183.7250  178.2320  142.2340 N   0  0  0  0  0  0  0  0  0  0  0  0
  188.0040  178.6230  137.6400 C   0  0  0  0  0  3  0  0  0  0  0  0
  186.6380  178.6060  137.6370 N   0  0  0  0  0  0  0  0  0  0  0  0
  183.7930  178.3720  139.9460 C   0  0  2  0  0  3  0  0  0  0  0  0
  186.6190  178.2570  140.0010 C   0  0  0  0  0  0  0  0  0  0  0  0
  181.7040  179.9080  139.8130 N   0  0  0  0  0  2  0  0  0  0  0  0
  182.6470  179.0150  141.8030 N   0  0  0  0  0  0  0  0  0  0  0  0
  188.7170  178.5230  138.8450 C   0  0  0  0  0  3  0  0  0  0  0  0
  186.5120  178.2350  142.4310 C   0  0  0  0  0  0  0  0  0  0  0  0
  188.6660  178.4130  141.2890 C   0  0  0  0  0  3  0  0  0  0  0  0
  184.4630  178.6750  138.8240 C   0  0  0  0  0  2  0  0  0  0  0  0
  184.3380  178.4130  143.4920 N   0  0  0  0  0  0  0  0  0  0  0  0
  185.6390  178.3650  143.6330 C   0  0  0  0  0  0  0  0  0  0  0  0
  182.6270  179.0640  140.5090 C   0  0  0  0  0  0  0  0  0  0  0  0
  184.4580  177.7100  141.1010 C   0  0  1  0  0  3  0  0  0  0  0  0
  187.9120  178.3740  142.4780 C   0  0  0  0  0  3  0  0  0  0  0  0
  187.7080  177.4650  146.6120 C   0  0  0  0  0  0  0  0  0  0  0  0
  187.2500  178.4960  147.6030 C   0  0  0  0  0  2  0  0  0  0  0  0
  186.2590  178.5920  144.9870 C   0  0  2  0  0  3  0  0  0  0  0  0
  185.7280  178.6280  147.5250 C   0  0  0  0  0  2  0  0  0  0  0  0
  187.2090  177.4880  145.3670 C   0  0  0  0  0  3  0  0  0  0  0  0
  185.2240  178.8950  146.0920 C   0  0  0  0  0  2  0  0  0  0  0  0
  188.5570  176.4770  146.9970 F   0  0  0  0  0  0  0  0  0  0  0  0
  181.4360  179.8940  138.3810 C   0  0  1  0  0  3  0  0  0  0  0  0
  180.2010  179.0550  138.1520 C   0  0  0  0  0  2  0  0  0  0  0  0
  180.1130  180.5670  138.0450 C   0  0  2  0  0  3  0  0  0  0  0  0
  180.0040  180.9290  136.5840 C   0  0  0  0  0  0  0  0  0  0  0  0
  180.5490  182.3790  134.6130 C   0  0  0  0  0  1  0  0  0  0  0  0
  180.4740  182.1840  136.0530 N   0  0  0  0  0  0  0  0  0  0  0  0
  180.8500  183.3020  136.9020 C   0  0  0  0  0  1  0  0  0  0  0  0
  179.4840  180.0840  135.8050 O   0  0  0  0  0  0  0  0  0  0  0  0
  1 13  1  0  0  0  0
  2 14  1  0  0  0  0
  2  8  1  0  0  0  0
  3 12  2  0  0  0  0
  4 15  1  0  0  0  0
  5 11  2  0  0  0  0
  6  5  1  0  0  0  0
  6  2  2  0  0  0  0
  7 14  1  1  0  0  0
  7 17  1  0  0  0  0
  7 18  1  0  0  0  0
  8  1  2  0  0  0  0
  8  3  1  0  0  0  0
  9 17  1  0  0  0  0
 10  4  1  0  0  0  0
 11  1  1  0  0  0  0
 12 19  1  0  0  0  0
 12 16  1  0  0  0  0
 13 19  2  0  0  0  0
 15 16  2  0  0  0  0
 17 10  2  0  0  0  0
 18  3  1  1  0  0  0
 18  4  1  0  0  0  0
 20 26  1  0  0  0  0
 20 21  1  0  0  0  0
 22 16  1  6  0  0  0
 22 24  1  0  0  0  0
 22 25  1  0  0  0  0
 23 21  1  0  0  0  0
 24 20  2  0  0  0  0
 25 23  1  0  0  0  0
 27  9  1  1  0  0  0
 28 27  1  0  0  0  0
 29 30  1  6  0  0  0
 29 28  1  0  0  0  0
 29 27  1  0  0  0  0
 31 32  1  0  0  0  0
 32 30  1  0  0  0  0
 32 33  1  0  0  0  0
 34 30  2  0  0  0  0
M  END
>  <MODEL>
9

>  <REMARK>
 VINA RESULT:      -8.0      2.656      5.018
  Name = 
  3 active torsions:
  status: ('A' for Active; 'I' for Inactive)
    1  A    between atoms: C_3  and  N_17
    2  A    between atoms: C_12  and  C_28
    3  A    between atoms: C_13  and  C_14
                            x       y       z     vdW  Elec       q    Type
                         _______ _______ _______ _____ _____    ______ ____

>  <TORSDO>
F 3

$$$$
