=
 OpenBabel11052416033D

 34 40  0  0  1  0  0  0  0  0999 V2000
  183.9320  176.4320  138.3830 C   0  0  1  0  0  3  0  0  0  0  0  0
  183.5020  178.9800  138.3030 C   0  0  1  0  0  3  0  0  0  0  0  0
  181.2910  173.7960  136.1450 C   0  0  0  0  0  0  0  0  0  0  0  0
  185.8060  177.9000  137.9930 C   0  0  2  0  0  3  0  0  0  0  0  0
  182.4550  175.7310  135.0580 C   0  0  0  0  0  2  0  0  0  0  0  0
  180.4510  175.7220  138.7260 O   0  0  0  0  0  0  0  0  0  0  0  0
  185.1470  174.3480  136.5510 C   0  0  2  0  0  3  0  0  0  0  0  0
  183.2160  175.1020  138.1480 C   0  0  0  0  0  2  0  0  0  0  0  0
  185.7800  175.7160  136.7890 C   0  0  1  0  0  0  0  0  0  0  0  0
  179.8730  176.4430  137.6720 C   0  0  0  0  0  0  0  0  0  0  0  0
  187.1610  175.7510  137.0670 O   0  0  0  0  0  0  0  0  0  0  0  0
  180.3660  176.0870  140.1060 C   0  0  2  0  0  3  0  0  0  0  0  0
  179.1080  177.4180  137.8990 O   0  0  0  0  0  0  0  0  0  0  0  0
  180.0270  174.5960  135.9800 C   0  0  0  0  0  2  0  0  0  0  0  0
  185.4690  175.2730  135.3770 C   0  0  0  0  0  2  0  0  0  0  0  0
  183.6390  174.3430  136.8870 C   0  0  1  0  0  3  0  0  0  0  0  0
  187.0750  178.2180  137.2050 C   0  0  0  0  0  2  0  0  0  0  0  0
  184.9190  176.8660  137.3060 C   0  0  1  0  0  3  0  0  0  0  0  0
  178.9310  176.0260  140.5980 C   0  0  0  0  0  1  0  0  0  0  0  0
  187.6670  176.9610  136.5320 C   0  0  0  0  0  2  0  0  0  0  0  0
  181.5970  176.6710  135.9030 C   0  0  0  0  0  2  0  0  0  0  0  0
  182.4430  177.4940  140.1300 C   0  0  0  0  0  0  0  0  0  0  0  0
  180.2170  176.0970  136.2600 C   0  0  2  0  0  3  0  0  0  0  0  0
  180.9640  177.4650  140.3740 C   0  0  0  0  0  2  0  0  0  0  0  0
  182.6250  174.3590  135.7230 C   0  0  1  0  0  3  0  0  0  0  0  0
  181.2210  172.6530  136.5660 O   0  0  0  0  0  0  0  0  0  0  0  0
  185.0260  179.1480  138.4420 C   0  0  0  0  0  2  0  0  0  0  0  0
  183.2780  177.5270  141.1690 C   0  0  0  0  0  2  0  0  0  0  0  0
  182.9570  177.5800  138.7150 C   0  0  2  0  0  3  0  0  0  0  0  0
  182.7430  180.1660  138.8820 C   0  0  0  0  0  2  0  0  0  0  0  0
  181.2230  181.9440  138.1000 C   0  0  2  0  0  3  0  0  0  0  0  0
  180.4100  180.9790  138.9340 C   0  0  0  0  0  2  0  0  0  0  0  0
  180.4900  182.3080  136.9720 O   0  0  0  0  0  1  0  0  0  0  0  0
  181.5160  180.4580  138.0400 C   0  0  2  0  0  3  0  0  0  0  0  0
  1  8  1  6  0  0  0
  1 29  1  0  0  0  0
  2 27  1  0  0  0  0
  2 29  1  0  0  0  0
  2 30  1  1  0  0  0
  3 26  2  0  0  0  0
  4 17  1  6  0  0  0
  4 27  1  0  0  0  0
  5 25  1  0  0  0  0
  5 21  1  0  0  0  0
  6 12  1  0  0  0  0
  7 15  1  6  0  0  0
  7  9  1  0  0  0  0
  7 16  1  0  0  0  0
  9 15  1  6  0  0  0
  9 11  1  0  0  0  0
  9 18  1  0  0  0  0
 10 13  2  0  0  0  0
 10  6  1  0  0  0  0
 12 24  1  0  0  0  0
 12 19  1  6  0  0  0
 14  3  1  0  0  0  0
 14 23  1  0  0  0  0
 16  8  1  1  0  0  0
 18  4  1  0  0  0  0
 18  1  1  0  0  0  0
 20 11  1  0  0  0  0
 20 17  1  0  0  0  0
 21 23  1  0  0  0  0
 22 24  1  0  0  0  0
 22 28  2  0  0  0  0
 23 10  1  0  0  0  0
 25  3  1  0  0  0  0
 25 16  1  0  0  0  0
 29 22  1  0  0  0  0
 31 32  1  0  0  0  0
 33 31  1  0  0  0  0
 34 31  1  0  0  0  0
 34 30  1  0  0  0  0
 34 32  1  0  0  0  0
M  END
>  <MODEL>
1

>  <REMARK>
 VINA RESULT:      -5.1      0.000      0.000
  Name = 
  2 active torsions:
  status: ('A' for Active; 'I' for Inactive)
    1  A    between atoms: C_2  and  C_23
    2  A    between atoms: C_23  and  C_25
                            x       y       z     vdW  Elec       q    Type
                         _______ _______ _______ _____ _____    ______ ____

>  <TORSDO>
F 2

$$$$
=
 OpenBabel11052416033D

 34 40  0  0  1  0  0  0  0  0999 V2000
  184.0690  175.2260  137.7920 C   0  0  1  0  0  3  0  0  0  0  0  0
  182.9410  177.3380  136.8180 C   0  0  1  0  0  3  0  0  0  0  0  0
  183.2890  171.3820  135.9070 C   0  0  0  0  0  0  0  0  0  0  0  0
  185.4240  177.1910  137.4390 C   0  0  2  0  0  3  0  0  0  0  0  0
  184.1080  173.3530  134.5950 C   0  0  0  0  0  2  0  0  0  0  0  0
  181.0730  173.3150  137.4680 O   0  0  0  0  0  0  0  0  0  0  0  0
  186.4100  173.4480  137.0610 C   0  0  2  0  0  3  0  0  0  0  0  0
  183.9180  173.7050  137.8140 C   0  0  0  0  0  2  0  0  0  0  0  0
  186.4760  174.9710  137.0090 C   0  0  1  0  0  0  0  0  0  0  0  0
  180.7020  173.5280  136.1330 C   0  0  0  0  0  0  0  0  0  0  0  0
  187.5990  175.5910  137.5940 O   0  0  0  0  0  0  0  0  0  0  0  0
  180.4140  173.8890  138.5990 C   0  0  2  0  0  3  0  0  0  0  0  0
  179.6470  174.1570  135.8490 O   0  0  0  0  0  0  0  0  0  0  0  0
  181.9790  171.5830  135.1940 C   0  0  0  0  0  2  0  0  0  0  0  0
  186.8180  174.1670  135.7750 C   0  0  0  0  0  2  0  0  0  0  0  0
  184.9560  172.9290  136.9980 C   0  0  1  0  0  3  0  0  0  0  0  0
  186.7260  177.8070  136.9300 C   0  0  0  0  0  2  0  0  0  0  0  0
  185.1850  175.7800  136.9120 C   0  0  1  0  0  3  0  0  0  0  0  0
  178.9880  173.3810  138.7150 C   0  0  0  0  0  1  0  0  0  0  0  0
  187.8640  176.7670  136.8510 C   0  0  0  0  0  2  0  0  0  0  0  0
  182.7710  174.0390  134.8650 C   0  0  0  0  0  2  0  0  0  0  0  0
  181.8250  175.9620  138.6950 C   0  0  0  0  0  0  0  0  0  0  0  0
  181.5960  173.0640  135.0300 C   0  0  2  0  0  3  0  0  0  0  0  0
  180.4360  175.4160  138.5630 C   0  0  0  0  0  2  0  0  0  0  0  0
  184.4480  172.3180  135.6750 C   0  0  1  0  0  3  0  0  0  0  0  0
  183.4290  170.4120  136.6330 O   0  0  0  0  0  0  0  0  0  0  0  0
  184.1980  178.1060  137.2690 C   0  0  0  0  0  2  0  0  0  0  0  0
  182.2010  176.5240  139.8450 C   0  0  0  0  0  2  0  0  0  0  0  0
  182.7410  175.9510  137.4970 C   0  0  2  0  0  3  0  0  0  0  0  0
  181.7080  178.2310  136.7920 C   0  0  0  0  0  2  0  0  0  0  0  0
  180.6190  179.6840  138.4600 C   0  0  2  0  0  3  0  0  0  0  0  0
  180.9930  180.5460  137.2760 C   0  0  0  0  0  2  0  0  0  0  0  0
  180.9110  180.3680  139.6380 O   0  0  0  0  0  1  0  0  0  0  0  0
  181.9090  179.4200  137.7100 C   0  0  2  0  0  3  0  0  0  0  0  0
  1  8  1  6  0  0  0
  2 30  1  1  0  0  0
  2 27  1  0  0  0  0
  2 29  1  0  0  0  0
  3 26  2  0  0  0  0
  4 17  1  6  0  0  0
  5 21  1  0  0  0  0
  5 25  1  0  0  0  0
  6 12  1  0  0  0  0
  7 15  1  6  0  0  0
  9 15  1  6  0  0  0
  9  7  1  0  0  0  0
  9 11  1  0  0  0  0
 10  6  1  0  0  0  0
 12 19  1  6  0  0  0
 13 10  2  0  0  0  0
 14  3  1  0  0  0  0
 16  7  1  0  0  0  0
 16  8  1  6  0  0  0
 18  9  1  0  0  0  0
 18  4  1  0  0  0  0
 18  1  1  0  0  0  0
 20 17  1  0  0  0  0
 20 11  1  0  0  0  0
 21 23  1  0  0  0  0
 22 28  2  0  0  0  0
 23 14  1  0  0  0  0
 23 10  1  0  0  0  0
 24 12  1  0  0  0  0
 24 22  1  0  0  0  0
 25  3  1  0  0  0  0
 25 16  1  0  0  0  0
 27  4  1  0  0  0  0
 29  1  1  0  0  0  0
 29 22  1  0  0  0  0
 30 34  1  0  0  0  0
 31 33  1  0  0  0  0
 32 34  1  0  0  0  0
 32 31  1  0  0  0  0
 34 31  1  0  0  0  0
M  END
>  <MODEL>
2

>  <REMARK>
 VINA RESULT:      -5.0      1.765      2.434
  Name = 
  2 active torsions:
  status: ('A' for Active; 'I' for Inactive)
    1  A    between atoms: C_2  and  C_23
    2  A    between atoms: C_23  and  C_25
                            x       y       z     vdW  Elec       q    Type
                         _______ _______ _______ _____ _____    ______ ____

>  <TORSDO>
F 2

$$$$
=
 OpenBabel11052416033D

 34 40  0  0  1  0  0  0  0  0999 V2000
  185.6590  175.7560  135.6570 C   0  0  1  0  0  3  0  0  0  0  0  0
  186.6130  177.1750  137.5970 C   0  0  1  0  0  3  0  0  0  0  0  0
  186.3140  171.4540  135.6950 C   0  0  0  0  0  0  0  0  0  0  0  0
  184.2230  177.3940  136.6950 C   0  0  2  0  0  3  0  0  0  0  0  0
  185.2980  172.6520  137.6480 C   0  0  0  0  0  2  0  0  0  0  0  0
  188.6460  173.8160  135.4310 O   0  0  0  0  0  0  0  0  0  0  0  0
  183.2950  173.9080  135.2410 C   0  0  2  0  0  3  0  0  0  0  0  0
  185.8510  174.4020  134.9740 C   0  0  0  0  0  2  0  0  0  0  0  0
  183.1850  175.2480  135.9620 C   0  0  1  0  0  0  0  0  0  0  0  0
  188.8550  173.3980  136.7530 C   0  0  0  0  0  0  0  0  0  0  0  0
  182.1220  176.0970  135.5910 O   0  0  0  0  0  0  0  0  0  0  0  0
  189.4160  174.8160  134.7620 C   0  0  2  0  0  3  0  0  0  0  0  0
  189.8530  173.8010  137.4080 O   0  0  0  0  0  0  0  0  0  0  0  0
  187.5270  171.2760  136.5680 C   0  0  0  0  0  2  0  0  0  0  0  0
  182.7240  173.9870  136.6560 C   0  0  0  0  0  2  0  0  0  0  0  0
  184.7450  173.3740  135.2300 C   0  0  1  0  0  3  0  0  0  0  0  0
  182.8560  177.7550  137.2730 C   0  0  0  0  0  2  0  0  0  0  0  0
  184.4360  175.8900  136.5570 C   0  0  1  0  0  3  0  0  0  0  0  0
  190.8580  174.3730  134.5950 C   0  0  0  0  0  1  0  0  0  0  0  0
  181.7430  176.8230  136.7470 C   0  0  0  0  0  2  0  0  0  0  0  0
  186.6410  173.3470  137.8690 C   0  0  0  0  0  2  0  0  0  0  0  0
  187.9730  176.7530  135.4430 C   0  0  0  0  0  0  0  0  0  0  0  0
  187.8510  172.5150  137.4200 C   0  0  2  0  0  3  0  0  0  0  0  0
  189.3510  176.1650  135.4750 C   0  0  0  0  0  2  0  0  0  0  0  0
  185.1120  172.2210  136.1880 C   0  0  1  0  0  3  0  0  0  0  0  0
  186.2830  170.9160  134.6010 O   0  0  0  0  0  0  0  0  0  0  0  0
  185.3980  178.0990  137.3960 C   0  0  0  0  0  2  0  0  0  0  0  0
  187.7180  177.7800  134.6320 C   0  0  0  0  0  2  0  0  0  0  0  0
  186.9260  176.2330  136.3950 C   0  0  2  0  0  3  0  0  0  0  0  0
  187.8120  177.9240  138.1610 C   0  0  0  0  0  2  0  0  0  0  0  0
  189.1130  177.8650  140.2550 C   0  0  2  0  0  3  0  0  0  0  0  0
  190.0380  177.4610  139.1290 C   0  0  0  0  0  2  0  0  0  0  0  0
  189.3370  177.0380  141.3540 O   0  0  0  0  0  1  0  0  0  0  0  0
  188.5860  177.0280  139.1070 C   0  0  2  0  0  3  0  0  0  0  0  0
  1  8  1  1  0  0  0
  1 29  1  0  0  0  0
  1 18  1  0  0  0  0
  2 30  1  6  0  0  0
  3 25  1  0  0  0  0
  3 14  1  0  0  0  0
  4 17  1  1  0  0  0
  4 27  1  0  0  0  0
  5 21  1  0  0  0  0
  6 10  1  0  0  0  0
  7  9  1  0  0  0  0
  7 15  1  1  0  0  0
  9 18  1  0  0  0  0
  9 15  1  1  0  0  0
 10 13  2  0  0  0  0
 10 23  1  0  0  0  0
 11  9  1  0  0  0  0
 11 20  1  0  0  0  0
 12 19  1  1  0  0  0
 12  6  1  0  0  0  0
 12 24  1  0  0  0  0
 14 23  1  0  0  0  0
 16  8  1  1  0  0  0
 16  7  1  0  0  0  0
 16 25  1  0  0  0  0
 18  4  1  0  0  0  0
 20 17  1  0  0  0  0
 22 24  1  0  0  0  0
 22 29  1  0  0  0  0
 23 21  1  0  0  0  0
 25  5  1  0  0  0  0
 26  3  2  0  0  0  0
 27  2  1  0  0  0  0
 28 22  2  0  0  0  0
 29  2  1  0  0  0  0
 30 34  1  0  0  0  0
 31 33  1  0  0  0  0
 32 31  1  0  0  0  0
 34 32  1  0  0  0  0
 34 31  1  0  0  0  0
M  END
>  <MODEL>
3

>  <REMARK>
 VINA RESULT:      -5.0      2.832      7.021
  Name = 
  2 active torsions:
  status: ('A' for Active; 'I' for Inactive)
    1  A    between atoms: C_2  and  C_23
    2  A    between atoms: C_23  and  C_25
                            x       y       z     vdW  Elec       q    Type
                         _______ _______ _______ _____ _____    ______ ____

>  <TORSDO>
F 2

$$$$
=
 OpenBabel11052416033D

 34 40  0  0  1  0  0  0  0  0999 V2000
  179.7490  179.1590  137.1070 C   0  0  1  0  0  3  0  0  0  0  0  0
  181.7140  178.2990  135.6650 C   0  0  1  0  0  3  0  0  0  0  0  0
  180.1850  179.1760  141.4370 C   0  0  0  0  0  0  0  0  0  0  0  0
  180.4290  180.4670  135.1980 C   0  0  2  0  0  3  0  0  0  0  0  0
  181.8630  180.2770  139.9370 C   0  0  0  0  0  2  0  0  0  0  0  0
  180.1370  176.5000  139.4570 O   0  0  0  0  0  0  0  0  0  0  0  0
  179.0860  181.6870  138.6390 C   0  0  2  0  0  3  0  0  0  0  0  0
  179.1990  179.0750  138.5310 C   0  0  0  0  0  2  0  0  0  0  0  0
  179.6870  181.6980  137.2360 C   0  0  1  0  0  0  0  0  0  0  0  0
  181.5000  176.5560  139.7780 C   0  0  0  0  0  0  0  0  0  0  0  0
  179.0950  182.5530  136.2850 O   0  0  0  0  0  0  0  0  0  0  0  0
  179.5320  175.4960  138.6380 C   0  0  2  0  0  3  0  0  0  0  0  0
  182.2770  175.6160  139.4590 O   0  0  0  0  0  0  0  0  0  0  0  0
  181.2500  178.1470  141.7020 C   0  0  0  0  0  2  0  0  0  0  0  0
  180.3830  182.4430  138.3520 C   0  0  0  0  0  2  0  0  0  0  0  0
  179.3450  180.3490  139.3680 C   0  0  1  0  0  3  0  0  0  0  0  0
  180.7550  181.8350  134.5990 C   0  0  0  0  0  2  0  0  0  0  0  0
  180.4300  180.4670  136.7240 C   0  0  1  0  0  3  0  0  0  0  0  0
  179.6290  174.1290  139.2920 C   0  0  0  0  0  1  0  0  0  0  0  0
  180.1230  182.9850  135.4120 C   0  0  0  0  0  2  0  0  0  0  0  0
  182.2490  178.8920  139.4180 C   0  0  0  0  0  2  0  0  0  0  0  0
  179.8410  176.7140  136.4660 C   0  0  0  0  0  0  0  0  0  0  0  0
  182.0570  177.7690  140.4480 C   0  0  2  0  0  3  0  0  0  0  0  0
  180.1320  175.4610  137.2350 C   0  0  0  0  0  2  0  0  0  0  0  0
  180.4250  180.3070  140.4690 C   0  0  1  0  0  3  0  0  0  0  0  0
  179.1390  179.1260  142.0620 O   0  0  0  0  0  0  0  0  0  0  0  0
  181.2590  179.3170  134.6020 C   0  0  0  0  0  2  0  0  0  0  0  0
  178.9310  176.6870  135.4910 C   0  0  0  0  0  2  0  0  0  0  0  0
  180.6460  177.9580  136.7460 C   0  0  2  0  0  3  0  0  0  0  0  0
  182.4110  177.0980  135.0410 C   0  0  0  0  0  2  0  0  0  0  0  0
  184.3450  175.8480  135.9230 C   0  0  2  0  0  3  0  0  0  0  0  0
  184.1410  177.0590  136.8050 C   0  0  0  0  0  2  0  0  0  0  0  0
  185.7080  175.6760  135.6860 O   0  0  0  0  0  1  0  0  0  0  0  0
  183.9010  177.1620  135.3130 C   0  0  2  0  0  3  0  0  0  0  0  0
  1  8  1  1  0  0  0
  2 30  1  6  0  0  0
  2 29  1  0  0  0  0
  3 14  1  0  0  0  0
  3 26  2  0  0  0  0
  4 17  1  6  0  0  0
  4 18  1  0  0  0  0
  5 25  1  0  0  0  0
  6 10  1  0  0  0  0
  7 15  1  1  0  0  0
  7 16  1  0  0  0  0
  9 15  1  1  0  0  0
  9  7  1  0  0  0  0
 10 23  1  0  0  0  0
 11  9  1  0  0  0  0
 12 19  1  1  0  0  0
 12  6  1  0  0  0  0
 13 10  2  0  0  0  0
 16  8  1  6  0  0  0
 16 25  1  0  0  0  0
 17 20  1  0  0  0  0
 18  1  1  0  0  0  0
 18  9  1  0  0  0  0
 20 11  1  0  0  0  0
 21  5  1  0  0  0  0
 21 23  1  0  0  0  0
 22 29  1  0  0  0  0
 22 24  1  0  0  0  0
 23 14  1  0  0  0  0
 24 12  1  0  0  0  0
 25  3  1  0  0  0  0
 27  4  1  0  0  0  0
 27  2  1  0  0  0  0
 28 22  2  0  0  0  0
 29  1  1  0  0  0  0
 30 34  1  0  0  0  0
 31 32  1  0  0  0  0
 33 31  1  0  0  0  0
 34 31  1  0  0  0  0
 34 32  1  0  0  0  0
M  END
>  <MODEL>
4

>  <REMARK>
 VINA RESULT:      -4.6      1.997      6.469
  Name = 
  2 active torsions:
  status: ('A' for Active; 'I' for Inactive)
    1  A    between atoms: C_2  and  C_23
    2  A    between atoms: C_23  and  C_25
                            x       y       z     vdW  Elec       q    Type
                         _______ _______ _______ _____ _____    ______ ____

>  <TORSDO>
F 2

$$$$
=
 OpenBabel11052416033D

 34 40  0  0  1  0  0  0  0  0999 V2000
  184.0960  177.7970  137.5470 C   0  0  1  0  0  3  0  0  0  0  0  0
  184.3690  175.3090  136.9000 C   0  0  1  0  0  3  0  0  0  0  0  0
  181.1510  178.8600  140.5690 C   0  0  0  0  0  0  0  0  0  0  0  0
  186.3250  176.8850  137.4110 C   0  0  2  0  0  3  0  0  0  0  0  0
  182.9110  177.1270  140.9930 C   0  0  0  0  0  2  0  0  0  0  0  0
  180.5360  177.5350  137.5770 O   0  0  0  0  0  0  0  0  0  0  0  0
  184.9340  179.5740  139.8520 C   0  0  2  0  0  3  0  0  0  0  0  0
  183.0890  178.7500  138.1900 C   0  0  0  0  0  2  0  0  0  0  0  0
  185.8720  178.5630  139.1990 C   0  0  1  0  0  0  0  0  0  0  0  0
  180.3060  176.4240  138.4000 C   0  0  0  0  0  0  0  0  0  0  0  0
  187.1670  179.0050  138.8630 O   0  0  0  0  0  0  0  0  0  0  0  0
  180.3800  177.5430  136.1570 C   0  0  2  0  0  3  0  0  0  0  0  0
  179.8030  175.3670  137.9320 O   0  0  0  0  0  0  0  0  0  0  0  0
  180.1750  177.7140  140.5490 C   0  0  0  0  0  2  0  0  0  0  0  0
  185.6330  178.5040  140.6900 C   0  0  0  0  0  2  0  0  0  0  0  0
  183.4480  179.2330  139.5980 C   0  0  1  0  0  3  0  0  0  0  0  0
  187.7210  176.7480  138.0160 C   0  0  0  0  0  2  0  0  0  0  0  0
  185.2890  177.3950  138.4070 C   0  0  1  0  0  3  0  0  0  0  0  0
  178.9310  177.3160  135.7660 C   0  0  0  0  0  1  0  0  0  0  0  0
  188.0370  177.8950  139.0000 C   0  0  0  0  0  2  0  0  0  0  0  0
  182.2340  176.2410  139.9490 C   0  0  0  0  0  2  0  0  0  0  0  0
  182.7360  176.8560  135.6330 C   0  0  0  0  0  0  0  0  0  0  0  0
  180.7180  176.4640  139.8360 C   0  0  2  0  0  3  0  0  0  0  0  0
  181.2840  176.5210  135.4730 C   0  0  0  0  0  2  0  0  0  0  0  0
  182.6280  178.6150  140.7490 C   0  0  1  0  0  3  0  0  0  0  0  0
  180.7300  180.0020  140.5020 O   0  0  0  0  0  0  0  0  0  0  0  0
  185.8540  175.6310  136.6520 C   0  0  0  0  0  2  0  0  0  0  0  0
  183.4140  177.3450  134.5940 C   0  0  0  0  0  2  0  0  0  0  0  0
  183.4260  176.5480  136.9380 C   0  0  2  0  0  3  0  0  0  0  0  0
  183.8850  174.1540  136.0350 C   0  0  0  0  0  2  0  0  0  0  0  0
  183.1740  171.7920  136.0080 C   0  0  2  0  0  3  0  0  0  0  0  0
  182.1280  172.5770  136.7660 C   0  0  0  0  0  2  0  0  0  0  0  0
  183.4200  170.5910  136.6720 O   0  0  0  0  0  1  0  0  0  0  0  0
  183.5910  172.9440  136.9000 C   0  0  2  0  0  3  0  0  0  0  0  0
  1  8  1  1  0  0  0
  1 18  1  0  0  0  0
  2 30  1  6  0  0  0
  2 29  1  0  0  0  0
  3 25  1  0  0  0  0
  4 27  1  1  0  0  0
  4 17  1  0  0  0  0
  4 18  1  0  0  0  0
  6 10  1  0  0  0  0
  7 15  1  1  0  0  0
  9  7  1  0  0  0  0
  9 15  1  1  0  0  0
 10 23  1  0  0  0  0
 11 20  1  0  0  0  0
 11  9  1  0  0  0  0
 12 19  1  1  0  0  0
 12  6  1  0  0  0  0
 13 10  2  0  0  0  0
 14  3  1  0  0  0  0
 16  8  1  6  0  0  0
 16  7  1  0  0  0  0
 16 25  1  0  0  0  0
 17 20  1  0  0  0  0
 18  9  1  0  0  0  0
 21  5  1  0  0  0  0
 22 29  1  0  0  0  0
 23 21  1  0  0  0  0
 23 14  1  0  0  0  0
 24 22  1  0  0  0  0
 24 12  1  0  0  0  0
 25  5  1  0  0  0  0
 26  3  2  0  0  0  0
 27  2  1  0  0  0  0
 28 22  2  0  0  0  0
 29  1  1  0  0  0  0
 30 34  1  0  0  0  0
 31 33  1  0  0  0  0
 31 32  1  0  0  0  0
 31 34  1  0  0  0  0
 32 34  1  0  0  0  0
M  END
>  <MODEL>
5

>  <REMARK>
 VINA RESULT:      -4.1      1.830      5.540
  Name = 
  2 active torsions:
  status: ('A' for Active; 'I' for Inactive)
    1  A    between atoms: C_2  and  C_23
    2  A    between atoms: C_23  and  C_25
                            x       y       z     vdW  Elec       q    Type
                         _______ _______ _______ _____ _____    ______ ____

>  <TORSDO>
F 2

$$$$
=
 OpenBabel11052416033D

 34 40  0  0  1  0  0  0  0  0999 V2000
  184.8060  176.3960  136.1850 C   0  0  1  0  0  3  0  0  0  0  0  0
  185.9550  177.5720  138.1800 C   0  0  1  0  0  3  0  0  0  0  0  0
  185.2870  172.0940  135.7350 C   0  0  0  0  0  0  0  0  0  0  0  0
  183.5170  177.9630  137.4900 C   0  0  2  0  0  3  0  0  0  0  0  0
  184.4650  173.1140  137.8720 C   0  0  0  0  0  2  0  0  0  0  0  0
  187.6870  174.3920  135.5360 O   0  0  0  0  0  0  0  0  0  0  0  0
  182.3450  174.6790  135.7640 C   0  0  2  0  0  3  0  0  0  0  0  0
  184.8930  175.1150  135.3540 C   0  0  0  0  0  2  0  0  0  0  0  0
  182.3420  175.9400  136.6240 C   0  0  1  0  0  0  0  0  0  0  0  0
  187.9740  173.8320  136.7880 C   0  0  0  0  0  0  0  0  0  0  0  0
  181.2910  176.8570  136.4240 O   0  0  0  0  0  0  0  0  0  0  0  0
  188.4470  175.4310  134.9140 C   0  0  2  0  0  3  0  0  0  0  0  0
  189.0330  174.1320  137.4020 O   0  0  0  0  0  0  0  0  0  0  0  0
  186.5520  171.7860  136.4900 C   0  0  0  0  0  2  0  0  0  0  0  0
  181.8820  174.6300  137.2200 C   0  0  0  0  0  2  0  0  0  0  0  0
  183.7680  174.1020  135.5890 C   0  0  1  0  0  3  0  0  0  0  0  0
  182.2110  178.3060  138.2040 C   0  0  0  0  0  2  0  0  0  0  0  0
  183.6580  176.4740  137.1840 C   0  0  1  0  0  3  0  0  0  0  0  0
  189.8540  174.9600  134.5940 C   0  0  0  0  0  1  0  0  0  0  0  0
  181.0260  177.4710  137.6730 C   0  0  0  0  0  2  0  0  0  0  0  0
  185.8470  173.7380  138.0590 C   0  0  0  0  0  2  0  0  0  0  0  0
  187.1370  177.3330  135.8970 C   0  0  0  0  0  0  0  0  0  0  0  0
  186.9870  172.9180  137.4370 C   0  0  2  0  0  3  0  0  0  0  0  0
  188.4890  176.6990  135.7630 C   0  0  0  0  0  2  0  0  0  0  0  0
  184.1570  172.8440  136.3930 C   0  0  1  0  0  3  0  0  0  0  0  0
  185.1550  171.6740  134.5980 O   0  0  0  0  0  0  0  0  0  0  0  0
  184.7660  178.5520  138.1670 C   0  0  0  0  0  2  0  0  0  0  0  0
  186.8660  178.4470  135.2160 C   0  0  0  0  0  2  0  0  0  0  0  0
  186.1410  176.7510  136.8680 C   0  0  2  0  0  3  0  0  0  0  0  0
  187.2210  178.2190  138.7240 C   0  0  0  0  0  2  0  0  0  0  0  0
  188.8800  177.7490  140.4860 C   0  0  2  0  0  3  0  0  0  0  0  0
  189.5760  177.6050  139.1510 C   0  0  0  0  0  2  0  0  0  0  0  0
  189.2840  176.7150  141.3300 O   0  0  0  0  0  1  0  0  0  0  0  0
  188.1360  177.1590  139.3050 C   0  0  2  0  0  3  0  0  0  0  0  0
  1  8  1  1  0  0  0
  1 29  1  0  0  0  0
  1 18  1  0  0  0  0
  2 30  1  6  0  0  0
  3 25  1  0  0  0  0
  3 14  1  0  0  0  0
  4 27  1  1  0  0  0
  4 17  1  0  0  0  0
  5 21  1  0  0  0  0
  6 10  1  0  0  0  0
  7  9  1  0  0  0  0
  7 15  1  1  0  0  0
  9 18  1  0  0  0  0
  9 15  1  1  0  0  0
 10 13  2  0  0  0  0
 10 23  1  0  0  0  0
 11  9  1  0  0  0  0
 11 20  1  0  0  0  0
 12 19  1  1  0  0  0
 12  6  1  0  0  0  0
 12 24  1  0  0  0  0
 14 23  1  0  0  0  0
 16  8  1  1  0  0  0
 16  7  1  0  0  0  0
 16 25  1  0  0  0  0
 18  4  1  0  0  0  0
 20 17  1  0  0  0  0
 22 29  1  0  0  0  0
 23 21  1  0  0  0  0
 24 22  1  0  0  0  0
 25  5  1  0  0  0  0
 26  3  2  0  0  0  0
 27  2  1  0  0  0  0
 28 22  2  0  0  0  0
 29  2  1  0  0  0  0
 30 34  1  0  0  0  0
 31 33  1  0  0  0  0
 32 34  1  0  0  0  0
 32 31  1  0  0  0  0
 34 31  1  0  0  0  0
M  END
>  <MODEL>
6

>  <REMARK>
 VINA RESULT:      -3.9      2.317      6.515
  Name = 
  2 active torsions:
  status: ('A' for Active; 'I' for Inactive)
    1  A    between atoms: C_2  and  C_23
    2  A    between atoms: C_23  and  C_25
                            x       y       z     vdW  Elec       q    Type
                         _______ _______ _______ _____ _____    ______ ____

>  <TORSDO>
F 2

$$$$
=
 OpenBabel11052416033D

 34 40  0  0  1  0  0  0  0  0999 V2000
  184.4990  176.4920  136.7480 C   0  0  1  0  0  3  0  0  0  0  0  0
  184.0160  174.0290  137.3640 C   0  0  1  0  0  3  0  0  0  0  0  0
  183.0170  179.6330  139.3690 C   0  0  0  0  0  0  0  0  0  0  0  0
  186.3140  174.9060  136.6430 C   0  0  2  0  0  3  0  0  0  0  0  0
  184.4140  177.7410  140.2350 C   0  0  0  0  0  2  0  0  0  0  0  0
  181.1810  177.4950  137.5970 O   0  0  0  0  0  0  0  0  0  0  0  0
  186.4080  178.6560  137.6710 C   0  0  2  0  0  3  0  0  0  0  0  0
  183.9860  177.9050  137.0240 C   0  0  0  0  0  2  0  0  0  0  0  0
  186.8420  177.2130  137.4280 C   0  0  1  0  0  0  0  0  0  0  0  0
  181.0100  176.9710  138.8860 C   0  0  0  0  0  0  0  0  0  0  0  0
  188.0140  177.0090  136.6730 O   0  0  0  0  0  0  0  0  0  0  0  0
  180.5670  176.9730  136.4160 C   0  0  2  0  0  3  0  0  0  0  0  0
  180.1720  176.0550  139.1040 O   0  0  0  0  0  0  0  0  0  0  0  0
  181.8730  178.9870  140.1040 C   0  0  0  0  0  2  0  0  0  0  0  0
  187.1050  177.8560  138.7710 C   0  0  0  0  0  2  0  0  0  0  0  0
  184.8860  178.7690  137.9130 C   0  0  1  0  0  3  0  0  0  0  0  0
  187.7710  174.5640  136.9520 C   0  0  0  0  0  2  0  0  0  0  0  0
  185.7990  176.0990  137.4420 C   0  0  1  0  0  3  0  0  0  0  0  0
  179.0570  177.1130  136.4800 C   0  0  0  0  0  1  0  0  0  0  0  0
  188.6280  175.8300  137.1640 C   0  0  0  0  0  2  0  0  0  0  0  0
  183.2590  176.7940  139.9150 C   0  0  0  0  0  2  0  0  0  0  0  0
  182.4170  175.3750  135.8490 C   0  0  0  0  0  0  0  0  0  0  0  0
  181.8750  177.4520  140.0050 C   0  0  2  0  0  3  0  0  0  0  0  0
  180.9580  175.5190  136.1600 C   0  0  0  0  0  2  0  0  0  0  0  0
  184.3840  178.9970  139.3540 C   0  0  1  0  0  3  0  0  0  0  0  0
  182.8460  180.7160  138.8350 O   0  0  0  0  0  0  0  0  0  0  0  0
  185.3670  173.6950  136.7050 C   0  0  0  0  0  2  0  0  0  0  0  0
  182.7970  175.1310  134.5940 C   0  0  0  0  0  2  0  0  0  0  0  0
  183.4200  175.4140  136.9730 C   0  0  2  0  0  3  0  0  0  0  0  0
  183.0420  172.8610  137.2890 C   0  0  0  0  0  2  0  0  0  0  0  0
  182.3530  170.9780  135.8540 C   0  0  2  0  0  3  0  0  0  0  0  0
  183.3730  170.4540  136.8400 C   0  0  0  0  0  2  0  0  0  0  0  0
  182.6130  170.4400  134.5940 O   0  0  0  0  0  1  0  0  0  0  0  0
  183.5220  171.8490  136.2680 C   0  0  2  0  0  3  0  0  0  0  0  0
  1 29  1  0  0  0  0
  1  8  1  1  0  0  0
  1 18  1  0  0  0  0
  2 30  1  6  0  0  0
  3 14  1  0  0  0  0
  4 27  1  1  0  0  0
  4 17  1  0  0  0  0
  4 18  1  0  0  0  0
  6 10  1  0  0  0  0
  7 16  1  0  0  0  0
  7 15  1  1  0  0  0
  9 18  1  0  0  0  0
  9  7  1  0  0  0  0
  9 15  1  1  0  0  0
 10 13  2  0  0  0  0
 10 23  1  0  0  0  0
 11 20  1  0  0  0  0
 11  9  1  0  0  0  0
 12 19  1  1  0  0  0
 12  6  1  0  0  0  0
 16  8  1  1  0  0  0
 16 25  1  0  0  0  0
 17 20  1  0  0  0  0
 21 23  1  0  0  0  0
 21  5  1  0  0  0  0
 22 24  1  0  0  0  0
 22 29  1  0  0  0  0
 23 14  1  0  0  0  0
 24 12  1  0  0  0  0
 25  3  1  0  0  0  0
 25  5  1  0  0  0  0
 26  3  2  0  0  0  0
 27  2  1  0  0  0  0
 28 22  2  0  0  0  0
 29  2  1  0  0  0  0
 31 34  1  0  0  0  0
 31 32  1  0  0  0  0
 33 31  1  0  0  0  0
 34 32  1  0  0  0  0
 34 30  1  0  0  0  0
M  END
>  <MODEL>
7

>  <REMARK>
 VINA RESULT:      -3.8      1.702      5.755
  Name = 
  2 active torsions:
  status: ('A' for Active; 'I' for Inactive)
    1  A    between atoms: C_2  and  C_23
    2  A    between atoms: C_23  and  C_25
                            x       y       z     vdW  Elec       q    Type
                         _______ _______ _______ _____ _____    ______ ____

>  <TORSDO>
F 2

$$$$
=
 OpenBabel11052416033D

 34 40  0  0  1  0  0  0  0  0999 V2000
  186.3640  178.3210  138.6180 C   0  0  1  0  0  3  0  0  0  0  0  0
  188.1310  177.3380  140.2290 C   0  0  1  0  0  3  0  0  0  0  0  0
  184.6360  175.7290  135.5790 C   0  0  0  0  0  0  0  0  0  0  0  0
  186.1400  178.7690  140.9780 C   0  0  2  0  0  3  0  0  0  0  0  0
  184.6310  175.1030  138.0060 C   0  0  0  0  0  2  0  0  0  0  0  0
  187.8200  176.6740  135.8060 O   0  0  0  0  0  0  0  0  0  0  0  0
  183.3510  178.2090  138.3250 C   0  0  2  0  0  3  0  0  0  0  0  0
  185.7320  178.0590  137.2510 C   0  0  0  0  0  2  0  0  0  0  0  0
  184.0490  178.4120  139.6670 C   0  0  1  0  0  0  0  0  0  0  0  0
  187.9180  175.3420  136.2320 C   0  0  0  0  0  0  0  0  0  0  0  0
  183.5650  179.4430  140.4980 O   0  0  0  0  0  0  0  0  0  0  0  0
  188.9250  177.5700  135.6710 C   0  0  2  0  0  3  0  0  0  0  0  0
  189.0420  174.8000  136.4030 O   0  0  0  0  0  0  0  0  0  0  0  0
  185.6560  174.6370  135.4060 C   0  0  0  0  0  2  0  0  0  0  0  0
  183.0680  177.2740  139.5010 C   0  0  0  0  0  2  0  0  0  0  0  0
  184.2850  177.5580  137.2800 C   0  0  1  0  0  3  0  0  0  0  0  0
  185.2460  178.8530  142.2130 C   0  0  0  0  0  2  0  0  0  0  0  0
  185.5050  177.9870  139.8320 C   0  0  1  0  0  3  0  0  0  0  0  0
  189.8830  177.0960  134.5940 C   0  0  0  0  0  1  0  0  0  0  0  0
  183.7580  179.0270  141.8380 C   0  0  0  0  0  2  0  0  0  0  0  0
  186.1520  174.9810  137.9360 C   0  0  0  0  0  2  0  0  0  0  0  0
  188.8140  178.4690  138.0120 C   0  0  0  0  0  0  0  0  0  0  0  0
  186.6790  174.5710  136.5530 C   0  0  2  0  0  3  0  0  0  0  0  0
  189.6640  177.7730  136.9920 C   0  0  0  0  0  2  0  0  0  0  0  0
  184.0860  176.0650  136.9420 C   0  0  1  0  0  3  0  0  0  0  0  0
  184.2040  176.3030  134.5940 O   0  0  0  0  0  0  0  0  0  0  0  0
  187.5780  178.3150  141.2840 C   0  0  0  0  0  2  0  0  0  0  0  0
  189.0570  179.7480  138.3030 C   0  0  0  0  0  2  0  0  0  0  0  0
  187.7620  177.6860  138.7560 C   0  0  2  0  0  3  0  0  0  0  0  0
  189.5980  177.0100  140.4700 C   0  0  0  0  0  2  0  0  0  0  0  0
  191.3480  176.7540  142.1880 C   0  0  2  0  0  3  0  0  0  0  0  0
  190.1210  176.0170  142.6710 C   0  0  0  0  0  2  0  0  0  0  0  0
  191.9150  177.4530  143.2530 O   0  0  0  0  0  1  0  0  0  0  0  0
  189.9690  177.3160  141.9070 C   0  0  2  0  0  3  0  0  0  0  0  0
  1  8  1  6  0  0  0
  1 29  1  0  0  0  0
  1 18  1  0  0  0  0
  2 30  1  6  0  0  0
  2 27  1  0  0  0  0
  3 25  1  0  0  0  0
  4 27  1  1  0  0  0
  4 17  1  0  0  0  0
  6 10  1  0  0  0  0
  7 15  1  1  0  0  0
  7  9  1  0  0  0  0
  9 15  1  1  0  0  0
  9 18  1  0  0  0  0
  9 11  1  0  0  0  0
 10 13  2  0  0  0  0
 10 23  1  0  0  0  0
 11 20  1  0  0  0  0
 12 19  1  6  0  0  0
 12  6  1  0  0  0  0
 12 24  1  0  0  0  0
 14  3  1  0  0  0  0
 14 23  1  0  0  0  0
 16  8  1  1  0  0  0
 16  7  1  0  0  0  0
 18  4  1  0  0  0  0
 20 17  1  0  0  0  0
 21  5  1  0  0  0  0
 22 28  2  0  0  0  0
 22 29  1  0  0  0  0
 23 21  1  0  0  0  0
 24 22  1  0  0  0  0
 25 16  1  0  0  0  0
 25  5  1  0  0  0  0
 26  3  2  0  0  0  0
 29  2  1  0  0  0  0
 30 34  1  0  0  0  0
 31 32  1  0  0  0  0
 31 33  1  0  0  0  0
 34 31  1  0  0  0  0
 34 32  1  0  0  0  0
M  END
>  <MODEL>
8

>  <REMARK>
 VINA RESULT:      -3.7      3.194      7.210
  Name = 
  2 active torsions:
  status: ('A' for Active; 'I' for Inactive)
    1  A    between atoms: C_2  and  C_23
    2  A    between atoms: C_23  and  C_25
                            x       y       z     vdW  Elec       q    Type
                         _______ _______ _______ _____ _____    ______ ____

>  <TORSDO>
F 2

$$$$
=
 OpenBabel11052416033D

 34 40  0  0  1  0  0  0  0  0999 V2000
  188.6790  178.0260  139.5330 C   0  0  1  0  0  3  0  0  0  0  0  0
  189.1390  176.3570  141.4530 C   0  0  1  0  0  3  0  0  0  0  0  0
  188.3310  176.4980  135.4730 C   0  0  0  0  0  0  0  0  0  0  0  0
  187.3530  178.1940  141.5410 C   0  0  2  0  0  3  0  0  0  0  0  0
  186.9550  175.5760  137.3530 C   0  0  0  0  0  2  0  0  0  0  0  0
  191.0470  176.4250  137.3960 O   0  0  0  0  0  0  0  0  0  0  0  0
  186.2930  178.8460  137.8560 C   0  0  2  0  0  3  0  0  0  0  0  0
  188.8110  178.1520  138.0150 C   0  0  0  0  0  2  0  0  0  0  0  0
  186.2190  178.6500  139.3670 C   0  0  1  0  0  0  0  0  0  0  0  0
  190.6630  175.0780  137.4470 C   0  0  0  0  0  0  0  0  0  0  0  0
  185.5760  179.6540  140.1190 O   0  0  0  0  0  0  0  0  0  0  0  0
  192.2060  176.9670  138.0350 C   0  0  2  0  0  3  0  0  0  0  0  0
  191.4140  174.2120  137.9690 O   0  0  0  0  0  0  0  0  0  0  0  0
  189.0710  175.1890  135.5100 C   0  0  0  0  0  2  0  0  0  0  0  0
  185.2750  177.8850  138.4680 C   0  0  0  0  0  2  0  0  0  0  0  0
  187.4950  178.0990  137.2340 C   0  0  1  0  0  3  0  0  0  0  0  0
  185.9820  178.3670  142.1910 C   0  0  0  0  0  2  0  0  0  0  0  0
  187.2710  177.7970  140.0700 C   0  0  1  0  0  3  0  0  0  0  0  0
  193.4770  176.3840  137.4440 C   0  0  0  0  0  1  0  0  0  0  0  0
  184.9660  179.0200  141.2300 C   0  0  0  0  0  2  0  0  0  0  0  0
  188.2390  175.0230  137.9690 C   0  0  0  0  0  2  0  0  0  0  0  0
  191.0680  177.5300  140.1990 C   0  0  0  0  0  0  0  0  0  0  0  0
  189.3190  174.6700  136.9360 C   0  0  2  0  0  3  0  0  0  0  0  0
  192.1770  176.7610  139.5470 C   0  0  0  0  0  2  0  0  0  0  0  0
  187.2280  176.7910  136.4590 C   0  0  1  0  0  3  0  0  0  0  0  0
  188.5870  177.3030  134.5940 O   0  0  0  0  0  0  0  0  0  0  0  0
  188.3120  177.3000  142.3470 C   0  0  0  0  0  2  0  0  0  0  0  0
  191.3550  178.6280  140.8990 C   0  0  0  0  0  2  0  0  0  0  0  0
  189.6590  176.9970  140.1300 C   0  0  2  0  0  3  0  0  0  0  0  0
  190.1800  175.5830  142.2500 C   0  0  0  0  0  2  0  0  0  0  0  0
  191.6810  176.9400  143.6610 C   0  0  2  0  0  3  0  0  0  0  0  0
  191.5480  175.5800  144.3080 C   0  0  0  0  0  2  0  0  0  0  0  0
  191.6260  177.9260  144.6450 O   0  0  0  0  0  1  0  0  0  0  0  0
  190.3540  176.2090  143.6200 C   0  0  2  0  0  3  0  0  0  0  0  0
  1  8  1  6  0  0  0
  1 18  1  0  0  0  0
  1 29  1  0  0  0  0
  2 30  1  1  0  0  0
  2 27  1  0  0  0  0
  3 14  1  0  0  0  0
  3 25  1  0  0  0  0
  4 17  1  1  0  0  0
  4 27  1  0  0  0  0
  5 21  1  0  0  0  0
  6 10  1  0  0  0  0
  6 12  1  0  0  0  0
  7 15  1  6  0  0  0
  7  9  1  0  0  0  0
  9 15  1  1  0  0  0
  9 18  1  0  0  0  0
  9 11  1  0  0  0  0
 10 13  2  0  0  0  0
 11 20  1  0  0  0  0
 12 19  1  6  0  0  0
 12 24  1  0  0  0  0
 14 23  1  0  0  0  0
 16  7  1  0  0  0  0
 16  8  1  1  0  0  0
 18  4  1  0  0  0  0
 20 17  1  0  0  0  0
 22 28  2  0  0  0  0
 23 10  1  0  0  0  0
 23 21  1  0  0  0  0
 24 22  1  0  0  0  0
 25 16  1  0  0  0  0
 25  5  1  0  0  0  0
 26  3  2  0  0  0  0
 29 22  1  0  0  0  0
 29  2  1  0  0  0  0
 30 34  1  0  0  0  0
 31 32  1  0  0  0  0
 31 33  1  0  0  0  0
 34 31  1  0  0  0  0
 34 32  1  0  0  0  0
M  END
>  <MODEL>
9

>  <REMARK>
 VINA RESULT:      -3.4      4.557      8.737
  Name = 
  2 active torsions:
  status: ('A' for Active; 'I' for Inactive)
    1  A    between atoms: C_2  and  C_23
    2  A    between atoms: C_23  and  C_25
                            x       y       z     vdW  Elec       q    Type
                         _______ _______ _______ _____ _____    ______ ____

>  <TORSDO>
F 2

$$$$
