=
 OpenBabel11052413523D

 27 32  0  0  1  0  0  0  0  0999 V2000
  187.6740  177.7180  143.9020 C   0  0  2  0  0  3  0  0  0  0  0  0
  187.4620  177.4460  142.4080 C   0  0  1  0  0  3  0  0  0  0  0  0
  189.6860  176.7220  143.0120 C   0  0  2  0  0  0  0  0  0  0  0  0
  188.7270  178.5840  138.6780 N   0  0  0  0  0  0  0  0  0  0  0  0
  189.7790  176.9410  137.2220 C   0  0  0  0  0  1  0  0  0  0  0  0
  186.7870  178.5750  141.6590 C   0  0  0  0  0  3  0  0  0  0  0  0
  190.7150  177.1430  139.7980 S   0  0  0  0  0  0  0  0  0  0  0  0
  191.2590  177.9620  145.0910 C   0  0  2  0  0  3  0  0  0  0  0  0
  190.3500  175.3730  142.8920 C   0  0  0  0  0  2  0  0  0  0  0  0
  191.5060  179.1770  144.4510 O   0  0  0  0  0  1  0  0  0  0  0  0
  189.1630  177.4200  140.6210 C   0  0  2  0  0  3  0  0  0  0  0  0
  190.0020  177.9700  138.3130 C   0  0  2  0  0  3  0  0  0  0  0  0
  188.2870  178.2570  139.8410 C   0  0  0  0  0  0  0  0  0  0  0  0
  188.9540  176.9680  144.3260 C   0  0  1  0  0  3  0  0  0  0  0  0
  188.8220  177.1210  141.8800 C   0  0  2  0  0  3  0  0  0  0  0  0
  191.8560  176.8030  144.2910 C   0  0  0  0  0  2  0  0  0  0  0  0
  187.1550  178.8940  140.4490 N   0  0  0  0  0  0  0  0  0  0  0  0
  189.2540  178.2640  146.2820 O   0  0  0  0  0  0  0  0  0  0  0  0
  189.7810  177.7780  145.2950 C   0  0  0  0  0  0  0  0  0  0  0  0
  191.2030  176.6460  142.9190 C   0  0  2  0  0  3  0  0  0  0  0  0
  186.4580  177.3230  144.7460 C   0  0  0  0  0  2  0  0  0  0  0  0
  182.8480  179.3750  143.6420 C   0  0  0  0  0  3  0  0  0  0  0  0
  185.2060  178.0470  144.3570 C   0  0  0  0  0  0  0  0  0  0  0  0
  184.6980  177.9240  143.0590 C   0  0  0  0  0  3  0  0  0  0  0  0
  183.5200  178.5880  142.7020 C   0  0  0  0  0  3  0  0  0  0  0  0
  183.3540  179.4980  144.9390 C   0  0  0  0  0  3  0  0  0  0  0  0
  184.5310  178.8350  145.2970 C   0  0  0  0  0  3  0  0  0  0  0  0
  1 14  1  0  0  0  0
  1 21  1  1  0  0  0
  2  6  1  6  0  0  0
  2  1  1  0  0  0  0
  3  9  1  6  0  0  0
  3 14  1  0  0  0  0
  4 13  2  0  0  0  0
  8 10  1  6  0  0  0
  8 19  1  0  0  0  0
  9 20  1  0  0  0  0
 11  7  1  1  0  0  0
 11 15  1  0  0  0  0
 12  5  1  6  0  0  0
 12  4  1  0  0  0  0
 12  7  1  0  0  0  0
 13 17  1  0  0  0  0
 13 11  1  0  0  0  0
 14 19  1  1  0  0  0
 15  2  1  0  0  0  0
 15  3  1  0  0  0  0
 16  8  1  0  0  0  0
 17  6  2  0  0  0  0
 19 18  2  0  0  0  0
 20  3  1  0  0  0  0
 20 16  1  0  0  0  0
 22 26  1  0  0  0  0
 23 21  1  0  0  0  0
 23 27  1  0  0  0  0
 24 23  2  0  0  0  0
 25 24  1  0  0  0  0
 25 22  2  0  0  0  0
 26 27  2  0  0  0  0
M  END
>  <MODEL>
1

>  <REMARK>
 VINA RESULT:      -9.6      0.000      0.000
  Name = 
  2 active torsions:
  status: ('A' for Active; 'I' for Inactive)
    1  A    between atoms: C_1  and  C_15
    2  A    between atoms: C_9  and  C_15
                            x       y       z     vdW  Elec       q    Type
                         _______ _______ _______ _____ _____    ______ ____

>  <TORSDO>
F 2

$$$$
=
 OpenBabel11052413523D

 27 32  0  0  1  0  0  0  0  0999 V2000
  187.7700  177.6560  143.7430 C   0  0  2  0  0  3  0  0  0  0  0  0
  187.3570  177.3740  142.2940 C   0  0  1  0  0  3  0  0  0  0  0  0
  189.7400  177.0310  142.4930 C   0  0  2  0  0  0  0  0  0  0  0  0
  187.7680  178.7670  138.4600 N   0  0  0  0  0  0  0  0  0  0  0  0
  188.8170  177.3490  136.7810 C   0  0  0  0  0  1  0  0  0  0  0  0
  186.3880  178.3820  141.7150 C   0  0  0  0  0  3  0  0  0  0  0  0
  190.1280  177.6700  139.1760 S   0  0  0  0  0  0  0  0  0  0  0  0
  191.4130  178.4900  144.3380 C   0  0  2  0  0  3  0  0  0  0  0  0
  190.5880  175.8180  142.2080 C   0  0  0  0  0  2  0  0  0  0  0  0
  191.3440  179.7390  143.7190 O   0  0  0  0  0  1  0  0  0  0  0  0
  188.7130  177.6660  140.2530 C   0  0  2  0  0  3  0  0  0  0  0  0
  189.0470  178.3840  137.8650 C   0  0  2  0  0  3  0  0  0  0  0  0
  187.5910  178.3510  139.6640 C   0  0  0  0  0  0  0  0  0  0  0  0
  189.2090  177.1290  143.9190 C   0  0  1  0  0  3  0  0  0  0  0  0
  188.6430  177.2940  141.5360 C   0  0  2  0  0  3  0  0  0  0  0  0
  192.0510  177.4630  143.4020 C   0  0  0  0  0  2  0  0  0  0  0  0
  186.4880  178.7770  140.4760 N   0  0  0  0  0  0  0  0  0  0  0  0
  189.6160  178.4280  145.8540 O   0  0  0  0  0  0  0  0  0  0  0  0
  190.0420  178.0540  144.7730 C   0  0  0  0  0  0  0  0  0  0  0  0
  191.2110  177.2170  142.1500 C   0  0  2  0  0  3  0  0  0  0  0  0
  186.7960  177.0470  144.7570 C   0  0  0  0  0  2  0  0  0  0  0  0
  186.7790  179.1290  148.5150 C   0  0  0  0  0  3  0  0  0  0  0  0
  186.7810  177.7650  146.0700 C   0  0  0  0  0  0  0  0  0  0  0  0
  187.5140  177.2660  147.1530 C   0  0  0  0  0  3  0  0  0  0  0  0
  187.5130  177.9470  148.3740 C   0  0  0  0  0  3  0  0  0  0  0  0
  186.0470  179.6290  147.4340 C   0  0  0  0  0  3  0  0  0  0  0  0
  186.0470  178.9490  146.2130 C   0  0  0  0  0  3  0  0  0  0  0  0
  1 14  1  0  0  0  0
  1 21  1  1  0  0  0
  2  6  1  6  0  0  0
  2  1  1  0  0  0  0
  3  9  1  6  0  0  0
  3 14  1  0  0  0  0
  4 13  2  0  0  0  0
  8 10  1  6  0  0  0
  8 19  1  0  0  0  0
 11  7  1  1  0  0  0
 11 15  1  0  0  0  0
 12  5  1  6  0  0  0
 12  4  1  0  0  0  0
 12  7  1  0  0  0  0
 13 11  1  0  0  0  0
 13 17  1  0  0  0  0
 14 19  1  1  0  0  0
 15  2  1  0  0  0  0
 15  3  1  0  0  0  0
 16  8  1  0  0  0  0
 17  6  2  0  0  0  0
 19 18  2  0  0  0  0
 20  9  1  0  0  0  0
 20  3  1  0  0  0  0
 20 16  1  0  0  0  0
 21 23  1  0  0  0  0
 23 27  2  0  0  0  0
 23 24  1  0  0  0  0
 24 25  2  0  0  0  0
 25 22  1  0  0  0  0
 26 22  2  0  0  0  0
 27 26  1  0  0  0  0
M  END
>  <MODEL>
2

>  <REMARK>
 VINA RESULT:      -9.2      1.520      2.339
  Name = 
  2 active torsions:
  status: ('A' for Active; 'I' for Inactive)
    1  A    between atoms: C_1  and  C_15
    2  A    between atoms: C_9  and  C_15
                            x       y       z     vdW  Elec       q    Type
                         _______ _______ _______ _____ _____    ______ ____

>  <TORSDO>
F 2

$$$$
=
 OpenBabel11052413523D

 27 32  0  0  1  0  0  0  0  0999 V2000
  188.4620  177.8670  141.0620 C   0  0  2  0  0  3  0  0  0  0  0  0
  187.4940  178.5620  142.0250 C   0  0  1  0  0  3  0  0  0  0  0  0
  189.5230  178.0360  143.2250 C   0  0  2  0  0  0  0  0  0  0  0  0
  185.2180  177.9300  145.3770 N   0  0  0  0  0  0  0  0  0  0  0  0
  185.6710  179.2250  147.3880 C   0  0  0  0  0  1  0  0  0  0  0  0
  186.0620  178.0800  141.9250 C   0  0  0  0  0  3  0  0  0  0  0  0
  187.8010  177.9980  146.1570 S   0  0  0  0  0  0  0  0  0  0  0  0
  191.1850  175.7530  142.6240 C   0  0  2  0  0  3  0  0  0  0  0  0
  190.4850  178.9240  143.9720 C   0  0  0  0  0  2  0  0  0  0  0  0
  190.3130  174.7550  143.0630 O   0  0  0  0  0  1  0  0  0  0  0  0
  187.3120  178.2570  144.4670 C   0  0  2  0  0  3  0  0  0  0  0  0
  186.0120  177.9740  146.6030 C   0  0  2  0  0  3  0  0  0  0  0  0
  185.8880  178.1240  144.2970 C   0  0  0  0  0  0  0  0  0  0  0  0
  189.8430  177.8310  141.7490 C   0  0  1  0  0  3  0  0  0  0  0  0
  188.0880  178.3580  143.3820 C   0  0  2  0  0  3  0  0  0  0  0  0
  191.5710  176.6750  143.7820 C   0  0  0  0  0  2  0  0  0  0  0  0
  185.3240  177.9370  142.9910 N   0  0  0  0  0  0  0  0  0  0  0  0
  190.6650  176.1030  140.3580 O   0  0  0  0  0  0  0  0  0  0  0  0
  190.5590  176.5260  141.4980 C   0  0  0  0  0  0  0  0  0  0  0  0
  190.3710  177.4400  144.3400 C   0  0  2  0  0  3  0  0  0  0  0  0
  188.5090  178.5460  139.6890 C   0  0  0  0  0  2  0  0  0  0  0  0
  186.3640  176.3670  136.6720 C   0  0  0  0  0  3  0  0  0  0  0  0
  187.7670  177.7930  138.6290 C   0  0  0  0  0  0  0  0  0  0  0  0
  188.3560  176.6840  138.0120 C   0  0  0  0  0  3  0  0  0  0  0  0
  187.6550  175.9720  137.0340 C   0  0  0  0  0  3  0  0  0  0  0  0
  185.7730  177.4740  137.2880 C   0  0  0  0  0  3  0  0  0  0  0  0
  186.4730  178.1870  138.2660 C   0  0  0  0  0  3  0  0  0  0  0  0
  1 21  1  6  0  0  0
  1 14  1  0  0  0  0
  1  2  1  0  0  0  0
  2  6  1  1  0  0  0
  2 15  1  0  0  0  0
  3 15  1  0  0  0  0
  3  9  1  1  0  0  0
  3 20  1  0  0  0  0
  4 12  1  0  0  0  0
  6 17  2  0  0  0  0
  7 12  1  0  0  0  0
  8 10  1  1  0  0  0
  8 16  1  0  0  0  0
  9 20  1  0  0  0  0
 11 13  1  6  0  0  0
 11  7  1  0  0  0  0
 12  5  1  6  0  0  0
 13  4  2  0  0  0  0
 14 19  1  1  0  0  0
 14  3  1  0  0  0  0
 15 11  1  0  0  0  0
 16 20  1  0  0  0  0
 17 13  1  0  0  0  0
 18 19  2  0  0  0  0
 19  8  1  0  0  0  0
 22 25  2  0  0  0  0
 22 26  1  0  0  0  0
 23 21  1  0  0  0  0
 24 23  2  0  0  0  0
 25 24  1  0  0  0  0
 26 27  2  0  0  0  0
 27 23  1  0  0  0  0
M  END
>  <MODEL>
3

>  <REMARK>
 VINA RESULT:      -9.0      2.766      5.666
  Name = 
  2 active torsions:
  status: ('A' for Active; 'I' for Inactive)
    1  A    between atoms: C_1  and  C_15
    2  A    between atoms: C_9  and  C_15
                            x       y       z     vdW  Elec       q    Type
                         _______ _______ _______ _____ _____    ______ ____

>  <TORSDO>
F 2

$$$$
=
 OpenBabel11052413523D

 27 32  0  0  1  0  0  0  0  0999 V2000
  185.6280  178.3850  139.4410 C   0  0  2  0  0  3  0  0  0  0  0  0
  186.5710  178.6920  140.6090 C   0  0  1  0  0  3  0  0  0  0  0  0
  187.9000  178.0340  138.7030 C   0  0  2  0  0  0  0  0  0  0  0  0
  189.2240  176.9440  143.2010 N   0  0  0  0  0  0  0  0  0  0  0  0
  191.5520  177.6570  143.1870 C   0  0  0  0  0  1  0  0  0  0  0  0
  186.1180  178.1310  141.9410 C   0  0  0  0  0  3  0  0  0  0  0  0
  190.4010  177.0200  140.7730 S   0  0  0  0  0  0  0  0  0  0  0  0
  186.9940  176.1700  136.6930 C   0  0  2  0  0  3  0  0  0  0  0  0
  189.0000  178.7590  137.9700 C   0  0  0  0  0  2  0  0  0  0  0  0
  187.0070  175.0150  137.4770 O   0  0  0  0  0  1  0  0  0  0  0  0
  188.7830  177.6990  141.0660 C   0  0  2  0  0  3  0  0  0  0  0  0
  190.5300  176.7120  142.5850 C   0  0  2  0  0  3  0  0  0  0  0  0
  188.3570  177.4920  142.4260 C   0  0  0  0  0  0  0  0  0  0  0  0
  186.4940  178.2810  138.1690 C   0  0  1  0  0  3  0  0  0  0  0  0
  187.9030  178.1700  140.1760 C   0  0  2  0  0  3  0  0  0  0  0  0
  188.4000  176.7610  136.5850 C   0  0  0  0  0  2  0  0  0  0  0  0
  186.9750  177.6290  142.7860 N   0  0  0  0  0  0  0  0  0  0  0  0
  184.8470  177.0940  136.9540 O   0  0  0  0  0  0  0  0  0  0  0  0
  186.0260  177.1690  137.2620 C   0  0  0  0  0  0  0  0  0  0  0  0
  188.9400  177.2280  137.9370 C   0  0  2  0  0  3  0  0  0  0  0  0
  184.5090  179.4240  139.3050 C   0  0  0  0  0  2  0  0  0  0  0  0
  180.5790  177.7480  139.7510 C   0  0  0  0  0  3  0  0  0  0  0  0
  183.1390  178.8440  139.4710 C   0  0  0  0  0  0  0  0  0  0  0  0
  182.0090  179.6210  139.1910 C   0  0  0  0  0  3  0  0  0  0  0  0
  180.7300  179.0730  139.3310 C   0  0  0  0  0  3  0  0  0  0  0  0
  181.7060  176.9710  140.0310 C   0  0  0  0  0  3  0  0  0  0  0  0
  182.9850  177.5170  139.8910 C   0  0  0  0  0  3  0  0  0  0  0  0
  1 21  1  6  0  0  0
  1  2  1  0  0  0  0
  2  6  1  1  0  0  0
  3  9  1  6  0  0  0
  3 15  1  0  0  0  0
  6 17  2  0  0  0  0
  7 12  1  0  0  0  0
  8 19  1  0  0  0  0
  8 10  1  1  0  0  0
 11  7  1  6  0  0  0
 11 13  1  0  0  0  0
 12  5  1  1  0  0  0
 12  4  1  0  0  0  0
 13 17  1  0  0  0  0
 13  4  2  0  0  0  0
 14 19  1  6  0  0  0
 14  3  1  0  0  0  0
 14  1  1  0  0  0  0
 15  2  1  0  0  0  0
 15 11  1  0  0  0  0
 16  8  1  0  0  0  0
 16 20  1  0  0  0  0
 18 19  2  0  0  0  0
 20  9  1  0  0  0  0
 20  3  1  0  0  0  0
 21 23  1  0  0  0  0
 22 26  1  0  0  0  0
 23 27  1  0  0  0  0
 24 25  1  0  0  0  0
 24 23  2  0  0  0  0
 25 22  2  0  0  0  0
 27 26  2  0  0  0  0
M  END
>  <MODEL>
4

>  <REMARK>
 VINA RESULT:      -8.9      3.643      5.799
  Name = 
  2 active torsions:
  status: ('A' for Active; 'I' for Inactive)
    1  A    between atoms: C_1  and  C_15
    2  A    between atoms: C_9  and  C_15
                            x       y       z     vdW  Elec       q    Type
                         _______ _______ _______ _____ _____    ______ ____

>  <TORSDO>
F 2

$$$$
=
 OpenBabel11052413523D

 27 32  0  0  1  0  0  0  0  0999 V2000
  189.8370  176.9500  146.4220 C   0  0  2  0  0  3  0  0  0  0  0  0
  188.3160  176.9180  146.6060 C   0  0  1  0  0  3  0  0  0  0  0  0
  188.7980  177.2150  144.2580 C   0  0  2  0  0  0  0  0  0  0  0  0
  184.9510  179.2420  146.3240 N   0  0  0  0  0  0  0  0  0  0  0  0
  183.1960  178.6160  144.7560 C   0  0  0  0  0  1  0  0  0  0  0  0
  187.8150  177.7230  147.7860 C   0  0  0  0  0  3  0  0  0  0  0  0
  185.7760  178.7090  143.8090 S   0  0  0  0  0  0  0  0  0  0  0  0
  191.1310  178.6000  143.2710 C   0  0  2  0  0  3  0  0  0  0  0  0
  188.4040  176.3910  143.0590 C   0  0  0  0  0  2  0  0  0  0  0  0
  190.7750  179.8900  143.6670 O   0  0  0  0  0  1  0  0  0  0  0  0
  186.6040  178.0530  145.2400 C   0  0  2  0  0  3  0  0  0  0  0  0
  184.4900  179.3840  144.9440 C   0  0  2  0  0  3  0  0  0  0  0  0
  186.0050  178.5190  146.4640 C   0  0  0  0  0  0  0  0  0  0  0  0
  190.1170  176.8190  144.9100 C   0  0  1  0  0  3  0  0  0  0  0  0
  187.7600  177.3820  145.3000 C   0  0  2  0  0  3  0  0  0  0  0  0
  190.1120  178.0450  142.2740 C   0  0  0  0  0  2  0  0  0  0  0  0
  186.7110  178.4140  147.7080 N   0  0  0  0  0  0  0  0  0  0  0  0
  192.3140  177.6800  145.0830 O   0  0  0  0  0  0  0  0  0  0  0  0
  191.2570  177.7080  144.4740 C   0  0  0  0  0  0  0  0  0  0  0  0
  188.7240  177.8810  142.8920 C   0  0  2  0  0  3  0  0  0  0  0  0
  190.5490  175.8690  147.2440 C   0  0  0  0  0  2  0  0  0  0  0  0
  193.5570  177.4220  149.8890 C   0  0  0  0  0  3  0  0  0  0  0  0
  191.6020  176.4170  148.1570 C   0  0  0  0  0  0  0  0  0  0  0  0
  191.4180  177.6570  148.7780 C   0  0  0  0  0  3  0  0  0  0  0  0
  192.3950  178.1600  149.6430 C   0  0  0  0  0  3  0  0  0  0  0  0
  193.7420  176.1830  149.2700 C   0  0  0  0  0  3  0  0  0  0  0  0
  192.7660  175.6790  148.4050 C   0  0  0  0  0  3  0  0  0  0  0  0
  1  2  1  0  0  0  0
  1 21  1  1  0  0  0
  2  6  1  1  0  0  0
  3  9  1  6  0  0  0
  3 14  1  0  0  0  0
  3 15  1  0  0  0  0
  4 13  2  0  0  0  0
  7 12  1  0  0  0  0
  8 10  1  1  0  0  0
  8 19  1  0  0  0  0
 11  7  1  6  0  0  0
 11 15  1  0  0  0  0
 11 13  1  0  0  0  0
 12  5  1  1  0  0  0
 12  4  1  0  0  0  0
 13 17  1  0  0  0  0
 14 19  1  6  0  0  0
 14  1  1  0  0  0  0
 15  2  1  0  0  0  0
 16 20  1  0  0  0  0
 16  8  1  0  0  0  0
 17  6  2  0  0  0  0
 19 18  2  0  0  0  0
 20  9  1  0  0  0  0
 20  3  1  0  0  0  0
 21 23  1  0  0  0  0
 23 27  2  0  0  0  0
 23 24  1  0  0  0  0
 24 25  2  0  0  0  0
 25 22  1  0  0  0  0
 26 22  2  0  0  0  0
 27 26  1  0  0  0  0
M  END
>  <MODEL>
5

>  <REMARK>
 VINA RESULT:      -8.7      3.365      6.733
  Name = 
  2 active torsions:
  status: ('A' for Active; 'I' for Inactive)
    1  A    between atoms: C_1  and  C_15
    2  A    between atoms: C_9  and  C_15
                            x       y       z     vdW  Elec       q    Type
                         _______ _______ _______ _____ _____    ______ ____

>  <TORSDO>
F 2

$$$$
=
 OpenBabel11052413523D

 27 32  0  0  1  0  0  0  0  0999 V2000
  185.2650  178.7400  141.8690 C   0  0  2  0  0  3  0  0  0  0  0  0
  186.5160  178.8930  140.9970 C   0  0  1  0  0  3  0  0  0  0  0  0
  184.5800  178.8100  139.5550 C   0  0  2  0  0  0  0  0  0  0  0  0
  188.8080  176.9390  138.2160 N   0  0  0  0  0  0  0  0  0  0  0  0
  189.0570  177.8940  135.9910 C   0  0  0  0  0  1  0  0  0  0  0  0
  187.6760  178.0150  141.4120 C   0  0  0  0  0  3  0  0  0  0  0  0
  186.5100  177.6640  137.0000 S   0  0  0  0  0  0  0  0  0  0  0  0
  182.1830  177.3300  140.1850 C   0  0  2  0  0  3  0  0  0  0  0  0
  184.0700  179.7940  138.5320 C   0  0  0  0  0  2  0  0  0  0  0  0
  182.7070  176.0440  140.0530 O   0  0  0  0  0  1  0  0  0  0  0  0
  186.8610  178.0790  138.6940 C   0  0  2  0  0  3  0  0  0  0  0  0
  188.2220  176.9910  136.8790 C   0  0  2  0  0  3  0  0  0  0  0  0
  188.1250  177.5400  139.1250 C   0  0  0  0  0  0  0  0  0  0  0  0
  184.0430  179.0080  140.9670 C   0  0  1  0  0  3  0  0  0  0  0  0
  186.0470  178.6280  139.6030 C   0  0  2  0  0  3  0  0  0  0  0  0
  182.2700  178.0840  138.8570 C   0  0  0  0  0  2  0  0  0  0  0  0
  188.4380  177.4420  140.5210 N   0  0  0  0  0  0  0  0  0  0  0  0
  182.5280  177.9320  142.4320 O   0  0  0  0  0  0  0  0  0  0  0  0
  182.9010  178.0700  141.2780 C   0  0  0  0  0  0  0  0  0  0  0  0
  183.7140  178.3080  138.4090 C   0  0  2  0  0  3  0  0  0  0  0  0
  185.2950  179.6530  143.1000 C   0  0  0  0  0  2  0  0  0  0  0  0
  186.1070  177.5760  146.7720 C   0  0  0  0  0  3  0  0  0  0  0  0
  185.5730  178.9190  144.3750 C   0  0  0  0  0  0  0  0  0  0  0  0
  186.7510  178.1760  144.5160 C   0  0  0  0  0  3  0  0  0  0  0  0
  187.0180  177.5050  145.7130 C   0  0  0  0  0  3  0  0  0  0  0  0
  184.9300  178.3170  146.6330 C   0  0  0  0  0  3  0  0  0  0  0  0
  184.6630  178.9890  145.4370 C   0  0  0  0  0  3  0  0  0  0  0  0
  1 21  1  1  0  0  0
  2  6  1  1  0  0  0
  2  1  1  0  0  0  0
  3  9  1  6  0  0  0
  3 15  1  0  0  0  0
  3 14  1  0  0  0  0
  4 13  2  0  0  0  0
  8 10  1  6  0  0  0
  8 19  1  0  0  0  0
 11  7  1  1  0  0  0
 11 13  1  0  0  0  0
 11 15  1  0  0  0  0
 12  5  1  6  0  0  0
 12  7  1  0  0  0  0
 12  4  1  0  0  0  0
 13 17  1  0  0  0  0
 14 19  1  1  0  0  0
 14  1  1  0  0  0  0
 15  2  1  0  0  0  0
 16  8  1  0  0  0  0
 17  6  2  0  0  0  0
 19 18  2  0  0  0  0
 20  9  1  0  0  0  0
 20 16  1  0  0  0  0
 20  3  1  0  0  0  0
 21 23  1  0  0  0  0
 23 24  2  0  0  0  0
 23 27  1  0  0  0  0
 24 25  1  0  0  0  0
 25 22  2  0  0  0  0
 26 22  1  0  0  0  0
 27 26  2  0  0  0  0
M  END
>  <MODEL>
6

>  <REMARK>
 VINA RESULT:      -8.7      3.393      5.622
  Name = 
  2 active torsions:
  status: ('A' for Active; 'I' for Inactive)
    1  A    between atoms: C_1  and  C_15
    2  A    between atoms: C_9  and  C_15
                            x       y       z     vdW  Elec       q    Type
                         _______ _______ _______ _____ _____    ______ ____

>  <TORSDO>
F 2

$$$$
=
 OpenBabel11052413523D

 27 32  0  0  1  0  0  0  0  0999 V2000
  186.4200  178.2550  140.0450 C   0  0  2  0  0  3  0  0  0  0  0  0
  187.9490  178.2530  139.9420 C   0  0  1  0  0  3  0  0  0  0  0  0
  187.0310  177.9020  137.7360 C   0  0  2  0  0  0  0  0  0  0  0  0
  191.1560  175.8370  139.1120 N   0  0  0  0  0  0  0  0  0  0  0  0
  192.5980  176.3740  137.2250 C   0  0  0  0  0  1  0  0  0  0  0  0
  188.6470  177.4690  141.0330 C   0  0  0  0  0  3  0  0  0  0  0  0
  189.8850  176.3200  136.7800 S   0  0  0  0  0  0  0  0  0  0  0  0
  184.5280  176.5510  137.2460 C   0  0  2  0  0  3  0  0  0  0  0  0
  187.2100  178.6820  136.4580 C   0  0  0  0  0  2  0  0  0  0  0  0
  184.9260  175.2630  137.6100 O   0  0  0  0  0  1  0  0  0  0  0  0
  189.3520  177.0360  138.3180 C   0  0  2  0  0  3  0  0  0  0  0  0
  191.3480  175.6440  137.6760 C   0  0  2  0  0  3  0  0  0  0  0  0
  190.1610  176.5900  139.4230 C   0  0  0  0  0  0  0  0  0  0  0  0
  185.8650  178.3500  138.6090 C   0  0  1  0  0  3  0  0  0  0  0  0
  188.2410  177.7380  138.5700 C   0  0  2  0  0  3  0  0  0  0  0  0
  185.3520  177.0510  136.0590 C   0  0  0  0  0  2  0  0  0  0  0  0
  189.7020  176.7480  140.7730 N   0  0  0  0  0  0  0  0  0  0  0  0
  183.7220  177.5510  139.2160 O   0  0  0  0  0  0  0  0  0  0  0  0
  184.6460  177.4790  138.4210 C   0  0  0  0  0  0  0  0  0  0  0  0
  186.8340  177.1970  136.4010 C   0  0  2  0  0  3  0  0  0  0  0  0
  185.8960  179.3760  140.9500 C   0  0  0  0  0  2  0  0  0  0  0  0
  184.7440  178.0380  144.8670 C   0  0  0  0  0  3  0  0  0  0  0  0
  185.4930  178.8990  142.3110 C   0  0  0  0  0  0  0  0  0  0  0  0
  186.4380  178.3070  143.1570 C   0  0  0  0  0  3  0  0  0  0  0  0
  186.0640  177.8770  144.4340 C   0  0  0  0  0  3  0  0  0  0  0  0
  183.7990  178.6290  144.0230 C   0  0  0  0  0  3  0  0  0  0  0  0
  184.1720  179.0590  142.7470 C   0  0  0  0  0  3  0  0  0  0  0  0
  1 21  1  1  0  0  0
  2  1  1  0  0  0  0
  2  6  1  1  0  0  0
  3  9  1  6  0  0  0
  3 15  1  0  0  0  0
  3 14  1  0  0  0  0
  4 13  2  0  0  0  0
  7 12  1  0  0  0  0
  8 10  1  1  0  0  0
  8 19  1  0  0  0  0
 11  7  1  1  0  0  0
 11 15  1  0  0  0  0
 11 13  1  0  0  0  0
 12  5  1  6  0  0  0
 12  4  1  0  0  0  0
 13 17  1  0  0  0  0
 14 19  1  1  0  0  0
 14  1  1  0  0  0  0
 15  2  1  0  0  0  0
 16 20  1  0  0  0  0
 16  8  1  0  0  0  0
 17  6  2  0  0  0  0
 19 18  2  0  0  0  0
 20  9  1  0  0  0  0
 20  3  1  0  0  0  0
 21 23  1  0  0  0  0
 23 27  2  0  0  0  0
 23 24  1  0  0  0  0
 24 25  2  0  0  0  0
 25 22  1  0  0  0  0
 26 22  2  0  0  0  0
 27 26  1  0  0  0  0
M  END
>  <MODEL>
7

>  <REMARK>
 VINA RESULT:      -8.5      3.562      5.577
  Name = 
  2 active torsions:
  status: ('A' for Active; 'I' for Inactive)
    1  A    between atoms: C_1  and  C_15
    2  A    between atoms: C_9  and  C_15
                            x       y       z     vdW  Elec       q    Type
                         _______ _______ _______ _____ _____    ______ ____

>  <TORSDO>
F 2

$$$$
=
 OpenBabel11052413523D

 27 32  0  0  1  0  0  0  0  0999 V2000
  187.3560  178.3440  142.2030 C   0  0  2  0  0  3  0  0  0  0  0  0
  187.0460  178.6990  143.6610 C   0  0  1  0  0  3  0  0  0  0  0  0
  189.4180  178.2870  143.4590 C   0  0  2  0  0  0  0  0  0  0  0  0
  186.9870  177.1370  147.4510 N   0  0  0  0  0  0  0  0  0  0  0  0
  188.4200  178.1070  149.1640 C   0  0  0  0  0  1  0  0  0  0  0  0
  185.8080  178.0270  144.2160 C   0  0  0  0  0  3  0  0  0  0  0  0
  189.5750  177.4630  146.7540 S   0  0  0  0  0  0  0  0  0  0  0  0
  190.5590  176.4330  141.5630 C   0  0  2  0  0  3  0  0  0  0  0  0
  190.6010  179.1670  143.7740 C   0  0  0  0  0  2  0  0  0  0  0  0
  190.1020  175.2510  142.1470 O   0  0  0  0  0  1  0  0  0  0  0  0
  188.2350  177.9400  145.6850 C   0  0  2  0  0  3  0  0  0  0  0  0
  188.3200  177.0840  148.0500 C   0  0  2  0  0  3  0  0  0  0  0  0
  186.9540  177.6210  146.2610 C   0  0  0  0  0  0  0  0  0  0  0  0
  188.8890  178.4010  142.0340 C   0  0  1  0  0  3  0  0  0  0  0  0
  188.2900  178.3520  144.4140 C   0  0  2  0  0  3  0  0  0  0  0  0
  191.4830  177.1830  142.5250 C   0  0  0  0  0  2  0  0  0  0  0  0
  185.7760  177.5840  145.4430 N   0  0  0  0  0  0  0  0  0  0  0  0
  188.8770  177.0960  140.0600 O   0  0  0  0  0  0  0  0  0  0  0  0
  189.3950  177.2880  141.1490 C   0  0  0  0  0  0  0  0  0  0  0  0
  190.7560  177.6420  143.7890 C   0  0  2  0  0  3  0  0  0  0  0  0
  186.6240  179.2560  141.2110 C   0  0  0  0  0  2  0  0  0  0  0  0
  183.3040  177.3650  139.2490 C   0  0  0  0  0  3  0  0  0  0  0  0
  185.4720  178.5860  140.5300 C   0  0  0  0  0  0  0  0  0  0  0  0
  184.3470  178.2000  141.2690 C   0  0  0  0  0  3  0  0  0  0  0  0
  183.2640  177.5890  140.6280 C   0  0  0  0  0  3  0  0  0  0  0  0
  184.4260  177.7510  138.5100 C   0  0  0  0  0  3  0  0  0  0  0  0
  185.5090  178.3610  139.1490 C   0  0  0  0  0  3  0  0  0  0  0  0
  1 21  1  6  0  0  0
  1  2  1  0  0  0  0
  2  6  1  1  0  0  0
  2 15  1  0  0  0  0
  3  9  1  1  0  0  0
  3 20  1  0  0  0  0
  3 15  1  0  0  0  0
  4 12  1  0  0  0  0
  6 17  2  0  0  0  0
  7 12  1  0  0  0  0
  8 10  1  1  0  0  0
  8 16  1  0  0  0  0
  9 20  1  0  0  0  0
 11 13  1  6  0  0  0
 11  7  1  0  0  0  0
 12  5  1  1  0  0  0
 13  4  2  0  0  0  0
 14 19  1  6  0  0  0
 14  1  1  0  0  0  0
 14  3  1  0  0  0  0
 15 11  1  0  0  0  0
 16 20  1  0  0  0  0
 17 13  1  0  0  0  0
 18 19  2  0  0  0  0
 19  8  1  0  0  0  0
 22 25  1  0  0  0  0
 23 21  1  0  0  0  0
 23 24  1  0  0  0  0
 25 24  2  0  0  0  0
 26 27  1  0  0  0  0
 26 22  2  0  0  0  0
 27 23  2  0  0  0  0
M  END
>  <MODEL>
8

>  <REMARK>
 VINA RESULT:      -8.5      3.233      5.347
  Name = 
  2 active torsions:
  status: ('A' for Active; 'I' for Inactive)
    1  A    between atoms: C_1  and  C_15
    2  A    between atoms: C_9  and  C_15
                            x       y       z     vdW  Elec       q    Type
                         _______ _______ _______ _____ _____    ______ ____

>  <TORSDO>
F 2

$$$$
=
 OpenBabel11052413523D

 27 32  0  0  1  0  0  0  0  0999 V2000
  188.0290  177.9810  139.7500 C   0  0  2  0  0  3  0  0  0  0  0  0
  189.5010  177.7530  139.3900 C   0  0  1  0  0  3  0  0  0  0  0  0
  188.2320  177.9480  137.3440 C   0  0  2  0  0  0  0  0  0  0  0  0
  192.0520  175.0370  137.6770 N   0  0  0  0  0  0  0  0  0  0  0  0
  193.2870  175.6600  135.6740 C   0  0  0  0  0  1  0  0  0  0  0  0
  190.1870  176.6860  140.2170 C   0  0  0  0  0  3  0  0  0  0  0  0
  190.5770  176.1220  135.6930 S   0  0  0  0  0  0  0  0  0  0  0  0
  185.4770  177.1240  137.0920 C   0  0  2  0  0  3  0  0  0  0  0  0
  188.3710  178.9020  136.1850 C   0  0  0  0  0  2  0  0  0  0  0  0
  185.6750  175.7460  137.1880 O   0  0  0  0  0  1  0  0  0  0  0  0
  190.4090  176.6320  137.3880 C   0  0  2  0  0  3  0  0  0  0  0  0
  191.9990  175.0720  136.2170 C   0  0  2  0  0  3  0  0  0  0  0  0
  191.2680  175.8740  138.2610 C   0  0  0  0  0  0  0  0  0  0  0  0
  187.3050  178.4160  138.4600 C   0  0  1  0  0  3  0  0  0  0  0  0
  189.4960  177.4470  137.9270 C   0  0  2  0  0  3  0  0  0  0  0  0
  186.2040  177.6870  135.8700 C   0  0  0  0  0  2  0  0  0  0  0  0
  191.0420  175.8630  139.6780 N   0  0  0  0  0  0  0  0  0  0  0  0
  185.1580  177.8770  139.2960 O   0  0  0  0  0  0  0  0  0  0  0  0
  185.9310  177.7990  138.3550 C   0  0  0  0  0  0  0  0  0  0  0  0
  187.7210  177.5300  135.9730 C   0  0  2  0  0  3  0  0  0  0  0  0
  187.8570  178.9940  140.8880 C   0  0  0  0  0  2  0  0  0  0  0  0
  186.5630  177.2380  144.5890 C   0  0  0  0  0  3  0  0  0  0  0  0
  187.4050  178.3720  142.1720 C   0  0  0  0  0  0  0  0  0  0  0  0
  188.3160  177.6780  142.9760 C   0  0  0  0  0  3  0  0  0  0  0  0
  187.8960  177.1120  144.1840 C   0  0  0  0  0  3  0  0  0  0  0  0
  185.6520  177.9310  143.7870 C   0  0  0  0  0  3  0  0  0  0  0  0
  186.0710  178.4980  142.5800 C   0  0  0  0  0  3  0  0  0  0  0  0
  1 21  1  1  0  0  0
  2  1  1  0  0  0  0
  2  6  1  1  0  0  0
  3  9  1  6  0  0  0
  3 15  1  0  0  0  0
  3 14  1  0  0  0  0
  4 13  2  0  0  0  0
  7 12  1  0  0  0  0
  8 10  1  1  0  0  0
  8 19  1  0  0  0  0
 11  7  1  1  0  0  0
 11 15  1  0  0  0  0
 11 13  1  0  0  0  0
 12  5  1  6  0  0  0
 12  4  1  0  0  0  0
 13 17  1  0  0  0  0
 14 19  1  6  0  0  0
 14  1  1  0  0  0  0
 15  2  1  0  0  0  0
 16 20  1  0  0  0  0
 16  8  1  0  0  0  0
 17  6  2  0  0  0  0
 19 18  2  0  0  0  0
 20  9  1  0  0  0  0
 20  3  1  0  0  0  0
 21 23  1  0  0  0  0
 23 27  2  0  0  0  0
 23 24  1  0  0  0  0
 24 25  2  0  0  0  0
 25 22  1  0  0  0  0
 26 22  2  0  0  0  0
 27 26  1  0  0  0  0
M  END
>  <MODEL>
9

>  <REMARK>
 VINA RESULT:      -8.3      3.446      5.854
  Name = 
  2 active torsions:
  status: ('A' for Active; 'I' for Inactive)
    1  A    between atoms: C_1  and  C_15
    2  A    between atoms: C_9  and  C_15
                            x       y       z     vdW  Elec       q    Type
                         _______ _______ _______ _____ _____    ______ ____

>  <TORSDO>
F 2

$$$$
