=
 OpenBabel11052414083D

 34 40  0  0  1  0  0  0  0  0999 V2000
  189.7820  177.4770  140.4530 C   0  0  0  0  0  0  0  0  0  0  0  0
  187.7810  178.2040  139.1600 C   0  0  0  0  0  0  0  0  0  0  0  0
  187.7270  178.1010  141.6080 N   0  0  0  0  0  0  0  0  0  0  0  0
  185.6250  178.4860  142.6920 C   0  0  0  0  0  0  0  0  0  0  0  0
  189.7530  177.3910  138.0400 C   0  0  0  0  0  3  0  0  0  0  0  0
  188.3770  177.8270  138.0650 N   0  0  0  0  0  0  0  0  0  0  0  0
  185.6940  178.6570  140.2500 C   0  0  0  0  0  0  0  0  0  0  0  0
  188.5640  178.3550  140.4400 C   0  0  1  0  0  3  0  0  0  0  0  0
  184.2320  179.0370  140.2370 C   0  0  2  0  0  3  0  0  0  0  0  0
  184.1810  178.9050  142.6390 C   0  0  0  0  0  2  0  0  0  0  0  0
  190.4400  177.1960  139.1730 C   0  0  0  0  0  3  0  0  0  0  0  0
  188.3310  177.7310  142.8530 C   0  0  0  0  0  0  0  0  0  0  0  0
  190.2530  177.0150  141.5760 N   0  0  0  0  0  0  0  0  0  0  0  0
  186.3830  178.5400  139.1480 N   0  0  0  0  0  0  0  0  0  0  0  0
  186.2560  178.2270  143.9610 N   0  0  0  0  0  0  0  0  0  0  0  0
  187.5090  177.8730  144.0910 C   0  0  0  0  0  0  0  0  0  0  0  0
  183.5500  178.4460  141.3960 N   0  0  0  0  0  2  0  0  0  0  0  0
  186.3380  178.4340  141.5610 C   0  0  0  0  0  0  0  0  0  0  0  0
  189.5620  177.1990  142.8270 C   0  0  0  0  0  3  0  0  0  0  0  0
  189.8430  177.0070  146.9720 C   0  0  0  0  0  0  0  0  0  0  0  0
  189.0190  177.2580  148.0720 C   0  0  0  0  0  3  0  0  0  0  0  0
  188.0410  177.6410  145.4610 C   0  0  0  0  0  0  0  0  0  0  0  0
  187.7100  177.7030  147.8740 C   0  0  0  0  0  3  0  0  0  0  0  0
  189.3570  177.2010  145.6760 C   0  0  0  0  0  3  0  0  0  0  0  0
  187.2270  177.8960  146.5770 C   0  0  0  0  0  3  0  0  0  0  0  0
  191.4850  176.4540  147.2160 Cl  0  0  0  0  0  0  0  0  0  0  0  0
  183.5460  178.5710  138.9580 C   0  0  0  0  0  2  0  0  0  0  0  0
  182.3210  175.8720  139.2450 C   0  0  0  0  0  1  0  0  0  0  0  0
  182.1210  178.3460  139.2000 N   0  0  0  0  0  0  0  0  0  0  0  0
  181.6750  177.0800  138.5860 C   0  0  1  0  0  3  0  0  0  0  0  0
  181.6450  178.4220  136.4230 C   0  0  0  0  0  2  0  0  0  0  0  0
  180.7460  179.2930  137.2900 C   0  0  0  0  0  2  0  0  0  0  0  0
  181.3770  179.5080  138.6760 C   0  0  0  0  0  2  0  0  0  0  0  0
  181.8570  177.0480  137.0610 C   0  0  0  0  0  2  0  0  0  0  0  0
  1 13  2  0  0  0  0
  3 12  1  0  0  0  0
  4 15  1  0  0  0  0
  5  6  1  0  0  0  0
  5 11  2  0  0  0  0
  6  2  2  0  0  0  0
  7 18  1  0  0  0  0
  8  2  1  6  0  0  0
  8  1  1  0  0  0  0
  8  3  1  0  0  0  0
  9 27  1  6  0  0  0
  9  7  1  0  0  0  0
  9 17  1  0  0  0  0
 10  4  1  0  0  0  0
 11  1  1  0  0  0  0
 12 16  1  0  0  0  0
 13 19  1  0  0  0  0
 14  2  1  0  0  0  0
 14  7  2  0  0  0  0
 15 16  2  0  0  0  0
 16 22  1  0  0  0  0
 17 10  1  0  0  0  0
 18  3  1  0  0  0  0
 18  4  2  0  0  0  0
 19 12  2  0  0  0  0
 20 26  1  0  0  0  0
 20 21  1  0  0  0  0
 22 24  1  0  0  0  0
 22 25  2  0  0  0  0
 23 21  2  0  0  0  0
 24 20  2  0  0  0  0
 25 23  1  0  0  0  0
 27 29  1  0  0  0  0
 30 29  1  0  0  0  0
 30 28  1  1  0  0  0
 31 34  1  0  0  0  0
 31 32  1  0  0  0  0
 32 33  1  0  0  0  0
 33 29  1  0  0  0  0
 34 30  1  0  0  0  0
M  END
>  <MODEL>
1

>  <REMARK>
 VINA RESULT:     -10.3      0.000      0.000
  Name = 
  3 active torsions:
  status: ('A' for Active; 'I' for Inactive)
    1  A    between atoms: C_3  and  N_13
    2  A    between atoms: C_3  and  C_17
    3  A    between atoms: C_12  and  C_28
                            x       y       z     vdW  Elec       q    Type
                         _______ _______ _______ _____ _____    ______ ____

>  <TORSDO>
F 3

$$$$
=
 OpenBabel11052414083D

 34 40  0  0  1  0  0  0  0  0999 V2000
  187.9920  178.0750  140.5790 C   0  0  0  0  0  0  0  0  0  0  0  0
  185.6240  178.7120  140.1400 C   0  0  0  0  0  0  0  0  0  0  0  0
  186.4440  178.4180  142.4310 N   0  0  0  0  0  0  0  0  0  0  0  0
  184.8410  178.5260  144.2090 C   0  0  0  0  0  0  0  0  0  0  0  0
  187.1180  178.1700  138.3300 C   0  0  0  0  0  3  0  0  0  0  0  0
  185.8170  178.4750  138.8740 N   0  0  0  0  0  0  0  0  0  0  0  0
  184.0330  178.8880  141.9250 C   0  0  0  0  0  0  0  0  0  0  0  0
  186.7980  178.8350  141.0790 C   0  0  1  0  0  3  0  0  0  0  0  0
  182.6410  179.1320  142.4580 C   0  0  2  0  0  3  0  0  0  0  0  0
  183.4490  178.8140  144.7020 C   0  0  0  0  0  2  0  0  0  0  0  0
  188.1710  177.9530  139.1280 C   0  0  0  0  0  3  0  0  0  0  0  0
  187.4690  178.0110  143.3450 C   0  0  0  0  0  0  0  0  0  0  0  0
  188.8550  177.5730  141.4160 N   0  0  0  0  0  0  0  0  0  0  0  0
  184.2950  178.9190  140.6470 N   0  0  0  0  0  0  0  0  0  0  0  0
  185.8920  178.2300  145.1470 N   0  0  0  0  0  0  0  0  0  0  0  0
  187.1300  177.9830  144.7980 C   0  0  0  0  0  0  0  0  0  0  0  0
  182.4480  178.3950  143.7130 N   0  0  0  0  0  2  0  0  0  0  0  0
  185.1100  178.6260  142.9010 C   0  0  0  0  0  0  0  0  0  0  0  0
  188.6410  177.5980  142.8400 C   0  0  0  0  0  3  0  0  0  0  0  0
  190.3330  176.9700  146.5900 C   0  0  0  0  0  0  0  0  0  0  0  0
  189.9860  177.2130  147.9210 C   0  0  0  0  0  3  0  0  0  0  0  0
  188.1240  177.6980  145.8690 C   0  0  0  0  0  0  0  0  0  0  0  0
  188.7150  177.7000  148.2320 C   0  0  0  0  0  3  0  0  0  0  0  0
  189.4080  177.2150  145.5710 C   0  0  0  0  0  3  0  0  0  0  0  0
  187.7920  177.9440  147.2110 C   0  0  0  0  0  3  0  0  0  0  0  0
  191.9270  176.3640  146.1970 Cl  0  0  0  0  0  0  0  0  0  0  0  0
  181.5770  178.7040  141.4540 C   0  0  0  0  0  2  0  0  0  0  0  0
  179.4760  176.6570  140.9410 C   0  0  0  0  0  1  0  0  0  0  0  0
  180.2540  178.7200  142.0800 N   0  0  0  0  0  0  0  0  0  0  0  0
  179.2380  178.1380  141.1820 C   0  0  1  0  0  3  0  0  0  0  0  0
  179.3120  180.4060  140.0270 C   0  0  0  0  0  2  0  0  0  0  0  0
  179.0140  180.8430  141.4550 C   0  0  0  0  0  2  0  0  0  0  0  0
  179.9370  180.1140  142.4460 C   0  0  0  0  0  2  0  0  0  0  0  0
  179.0910  178.9020  139.8570 C   0  0  0  0  0  2  0  0  0  0  0  0
  1  8  1  0  0  0  0
  1 13  2  0  0  0  0
  2 14  1  0  0  0  0
  3 18  1  0  0  0  0
  3 12  1  0  0  0  0
  4 10  1  0  0  0  0
  4 15  1  0  0  0  0
  5  6  1  0  0  0  0
  5 11  2  0  0  0  0
  6  2  2  0  0  0  0
  7  9  1  0  0  0  0
  7 18  1  0  0  0  0
  8  2  1  6  0  0  0
  8  3  1  0  0  0  0
  9 27  1  6  0  0  0
  9 17  1  0  0  0  0
 11  1  1  0  0  0  0
 12 16  1  0  0  0  0
 13 19  1  0  0  0  0
 14  7  2  0  0  0  0
 16 15  2  0  0  0  0
 16 22  1  0  0  0  0
 17 10  1  0  0  0  0
 18  4  2  0  0  0  0
 19 12  2  0  0  0  0
 20 21  1  0  0  0  0
 21 23  2  0  0  0  0
 22 25  2  0  0  0  0
 24 22  1  0  0  0  0
 24 20  2  0  0  0  0
 25 23  1  0  0  0  0
 26 20  1  0  0  0  0
 27 29  1  0  0  0  0
 29 33  1  0  0  0  0
 30 28  1  6  0  0  0
 30 29  1  0  0  0  0
 31 32  1  0  0  0  0
 32 33  1  0  0  0  0
 34 31  1  0  0  0  0
 34 30  1  0  0  0  0
M  END
>  <MODEL>
2

>  <REMARK>
 VINA RESULT:     -10.1      1.926      2.505
  Name = 
  3 active torsions:
  status: ('A' for Active; 'I' for Inactive)
    1  A    between atoms: C_3  and  N_13
    2  A    between atoms: C_3  and  C_17
    3  A    between atoms: C_12  and  C_28
                            x       y       z     vdW  Elec       q    Type
                         _______ _______ _______ _____ _____    ______ ____

>  <TORSDO>
F 3

$$$$
=
 OpenBabel11052414083D

 34 40  0  0  1  0  0  0  0  0999 V2000
  189.7690  177.3490  139.1890 C   0  0  0  0  0  0  0  0  0  0  0  0
  187.6130  178.1730  138.2530 C   0  0  0  0  0  0  0  0  0  0  0  0
  187.9600  178.0320  140.6750 N   0  0  0  0  0  0  0  0  0  0  0  0
  186.0830  178.4780  142.0960 C   0  0  0  0  0  0  0  0  0  0  0  0
  189.3390  177.3040  136.8140 C   0  0  0  0  0  3  0  0  0  0  0  0
  188.0050  177.7920  137.0700 N   0  0  0  0  0  0  0  0  0  0  0  0
  185.7540  178.6880  139.6770 C   0  0  0  0  0  0  0  0  0  0  0  0
  188.6020  178.2720  139.3870 C   0  0  1  0  0  3  0  0  0  0  0  0
  184.3270  179.1220  139.9110 C   0  0  2  0  0  3  0  0  0  0  0  0
  184.6690  178.9530  142.2870 C   0  0  0  0  0  2  0  0  0  0  0  0
  190.1950  177.0640  137.8150 C   0  0  0  0  0  3  0  0  0  0  0  0
  188.7460  177.6180  141.7990 C   0  0  0  0  0  0  0  0  0  0  0  0
  190.4000  176.8510  140.2140 N   0  0  0  0  0  0  0  0  0  0  0  0
  186.2470  178.5630  138.4760 N   0  0  0  0  0  0  0  0  0  0  0  0
  186.9030  178.1740  143.2400 N   0  0  0  0  0  0  0  0  0  0  0  0
  188.1460  177.7700  143.1570 C   0  0  0  0  0  0  0  0  0  0  0  0
  183.8230  178.5390  141.1600 N   0  0  0  0  0  2  0  0  0  0  0  0
  186.5970  178.4180  140.8610 C   0  0  0  0  0  0  0  0  0  0  0  0
  189.9330  177.0400  141.5640 C   0  0  0  0  0  3  0  0  0  0  0  0
  188.9710  177.3000  146.8440 C   0  0  0  0  0  0  0  0  0  0  0  0
  190.3150  176.9270  146.7750 C   0  0  0  0  0  3  0  0  0  0  0  0
  188.8870  177.4960  144.4180 C   0  0  0  0  0  0  0  0  0  0  0  0
  190.9480  176.8330  145.5340 C   0  0  0  0  0  3  0  0  0  0  0  0
  188.2610  177.5790  145.6730 C   0  0  0  0  0  3  0  0  0  0  0  0
  190.2370  177.1130  144.3630 C   0  0  0  0  0  3  0  0  0  0  0  0
  188.1720  177.4140  148.3970 Cl  0  0  0  0  0  0  0  0  0  0  0  0
  183.4210  178.7050  138.7580 C   0  0  0  0  0  2  0  0  0  0  0  0
  181.6300  176.3300  138.8980 C   0  0  0  0  0  1  0  0  0  0  0  0
  182.0180  178.7660  139.1690 N   0  0  0  0  0  0  0  0  0  0  0  0
  181.2210  177.7330  138.4800 C   0  0  1  0  0  3  0  0  0  0  0  0
  181.2760  179.3470  136.5120 C   0  0  0  0  0  2  0  0  0  0  0  0
  180.7080  180.2600  137.5900 C   0  0  0  0  0  2  0  0  0  0  0  0
  181.5180  180.1270  138.8910 C   0  0  0  0  0  2  0  0  0  0  0  0
  181.2240  177.8820  136.9510 C   0  0  0  0  0  2  0  0  0  0  0  0
  1  8  1  0  0  0  0
  1 13  2  0  0  0  0
  2 14  1  0  0  0  0
  3 18  1  0  0  0  0
  3 12  1  0  0  0  0
  4 10  1  0  0  0  0
  4 15  1  0  0  0  0
  5  6  1  0  0  0  0
  5 11  2  0  0  0  0
  6  2  2  0  0  0  0
  7  9  1  0  0  0  0
  7 18  1  0  0  0  0
  8  2  1  6  0  0  0
  8  3  1  0  0  0  0
  9 27  1  6  0  0  0
  9 17  1  0  0  0  0
 11  1  1  0  0  0  0
 12 16  1  0  0  0  0
 13 19  1  0  0  0  0
 14  7  2  0  0  0  0
 16 15  2  0  0  0  0
 16 22  1  0  0  0  0
 17 10  1  0  0  0  0
 18  4  2  0  0  0  0
 19 12  2  0  0  0  0
 20 26  1  0  0  0  0
 21 20  1  0  0  0  0
 22 24  1  0  0  0  0
 23 21  2  0  0  0  0
 24 20  2  0  0  0  0
 25 22  2  0  0  0  0
 25 23  1  0  0  0  0
 27 29  1  0  0  0  0
 30 28  1  6  0  0  0
 30 29  1  0  0  0  0
 31 34  1  0  0  0  0
 31 32  1  0  0  0  0
 32 33  1  0  0  0  0
 33 29  1  0  0  0  0
 34 30  1  0  0  0  0
M  END
>  <MODEL>
3

>  <REMARK>
 VINA RESULT:      -9.7      1.095      1.499
  Name = 
  3 active torsions:
  status: ('A' for Active; 'I' for Inactive)
    1  A    between atoms: C_3  and  N_13
    2  A    between atoms: C_3  and  C_17
    3  A    between atoms: C_12  and  C_28
                            x       y       z     vdW  Elec       q    Type
                         _______ _______ _______ _____ _____    ______ ____

>  <TORSDO>
F 3

$$$$
=
 OpenBabel11052414083D

 34 40  0  0  1  0  0  0  0  0999 V2000
  183.8760  178.8440  144.2180 C   0  0  0  0  0  0  0  0  0  0  0  0
  186.2910  178.2690  144.4170 C   0  0  0  0  0  0  0  0  0  0  0  0
  185.2810  178.7150  142.2290 N   0  0  0  0  0  0  0  0  0  0  0  0
  186.6300  178.3420  140.2840 C   0  0  0  0  0  0  0  0  0  0  0  0
  184.8390  178.2060  146.3380 C   0  0  0  0  0  3  0  0  0  0  0  0
  186.0940  177.9640  145.6680 N   0  0  0  0  0  0  0  0  0  0  0  0
  187.6610  177.9630  142.4730 C   0  0  0  0  0  0  0  0  0  0  0  0
  185.2510  179.0460  143.6500 C   0  0  1  0  0  3  0  0  0  0  0  0
  188.9680  177.6240  141.7970 C   0  0  2  0  0  3  0  0  0  0  0  0
  187.9600  178.0370  139.6510 C   0  0  0  0  0  2  0  0  0  0  0  0
  183.7570  178.6080  145.6610 C   0  0  0  0  0  3  0  0  0  0  0  0
  184.1270  178.9540  141.4150 C   0  0  0  0  0  0  0  0  0  0  0  0
  182.8260  178.9160  143.4510 N   0  0  0  0  0  0  0  0  0  0  0  0
  187.5280  177.9220  143.7710 N   0  0  0  0  0  0  0  0  0  0  0  0
  185.5020  178.6940  139.4610 N   0  0  0  0  0  0  0  0  0  0  0  0
  184.3180  178.9870  139.9350 C   0  0  0  0  0  0  0  0  0  0  0  0
  188.7130  177.0710  140.4610 N   0  0  0  0  0  2  0  0  0  0  0  0
  186.5240  178.3620  141.6180 C   0  0  0  0  0  0  0  0  0  0  0  0
  182.9330  179.0480  142.0200 C   0  0  0  0  0  3  0  0  0  0  0  0
  181.7140  180.9600  137.9800 C   0  0  0  0  0  0  0  0  0  0  0  0
  181.2250  179.9790  137.1140 C   0  0  0  0  0  3  0  0  0  0  0  0
  183.2380  179.3420  138.9750 C   0  0  0  0  0  0  0  0  0  0  0  0
  181.7390  178.6820  137.1710 C   0  0  0  0  0  3  0  0  0  0  0  0
  182.7160  180.6430  138.9010 C   0  0  0  0  0  3  0  0  0  0  0  0
  182.7410  178.3670  138.0940 C   0  0  0  0  0  3  0  0  0  0  0  0
  181.0750  182.5880  137.9090 Cl  0  0  0  0  0  0  0  0  0  0  0  0
  189.7750  176.6200  142.6120 C   0  0  0  0  0  2  0  0  0  0  0  0
  191.8780  175.1070  144.0800 C   0  0  0  0  0  1  0  0  0  0  0  0
  191.1450  177.0990  142.7950 N   0  0  0  0  0  0  0  0  0  0  0  0
  191.7070  176.6170  144.0710 C   0  0  1  0  0  3  0  0  0  0  0  0
  190.3390  178.4980  145.1050 C   0  0  0  0  0  2  0  0  0  0  0  0
  191.1440  179.2860  144.0810 C   0  0  0  0  0  2  0  0  0  0  0  0
  191.1290  178.5730  142.7190 C   0  0  0  0  0  2  0  0  0  0  0  0
  190.9210  177.0970  145.3010 C   0  0  0  0  0  2  0  0  0  0  0  0
  1 11  1  0  0  0  0
  2  6  2  0  0  0  0
  3  8  1  0  0  0  0
  4 18  2  0  0  0  0
  6  5  1  0  0  0  0
  7 14  2  0  0  0  0
  8  1  1  1  0  0  0
  8  2  1  0  0  0  0
  9  7  1  0  0  0  0
  9 27  1  1  0  0  0
 10  4  1  0  0  0  0
 10 17  1  0  0  0  0
 11  5  2  0  0  0  0
 12 19  2  0  0  0  0
 12  3  1  0  0  0  0
 13  1  2  0  0  0  0
 14  2  1  0  0  0  0
 15 16  2  0  0  0  0
 15  4  1  0  0  0  0
 16 12  1  0  0  0  0
 17  9  1  0  0  0  0
 18  3  1  0  0  0  0
 18  7  1  0  0  0  0
 19 13  1  0  0  0  0
 20 24  1  0  0  0  0
 21 23  1  0  0  0  0
 21 20  2  0  0  0  0
 22 16  1  0  0  0  0
 23 25  2  0  0  0  0
 24 22  2  0  0  0  0
 25 22  1  0  0  0  0
 26 20  1  0  0  0  0
 27 29  1  0  0  0  0
 29 30  1  0  0  0  0
 30 28  1  6  0  0  0
 30 34  1  0  0  0  0
 31 34  1  0  0  0  0
 32 31  1  0  0  0  0
 33 29  1  0  0  0  0
 33 32  1  0  0  0  0
M  END
>  <MODEL>
4

>  <REMARK>
 VINA RESULT:      -9.5      3.180      8.775
  Name = 
  3 active torsions:
  status: ('A' for Active; 'I' for Inactive)
    1  A    between atoms: C_3  and  N_13
    2  A    between atoms: C_3  and  C_17
    3  A    between atoms: C_12  and  C_28
                            x       y       z     vdW  Elec       q    Type
                         _______ _______ _______ _____ _____    ______ ____

>  <TORSDO>
F 3

$$$$
=
 OpenBabel11052414083D

 34 40  0  0  1  0  0  0  0  0999 V2000
  189.4210  177.2410  144.9080 C   0  0  0  0  0  0  0  0  0  0  0  0
  190.8190  176.9560  142.8660 C   0  0  0  0  0  0  0  0  0  0  0  0
  188.4770  177.6580  142.6980 N   0  0  0  0  0  0  0  0  0  0  0  0
  187.5170  177.8230  140.5090 C   0  0  0  0  0  0  0  0  0  0  0  0
  191.6640  176.3570  145.0400 C   0  0  0  0  0  3  0  0  0  0  0  0
  191.7430  176.4050  143.6000 N   0  0  0  0  0  0  0  0  0  0  0  0
  189.8780  177.1880  140.6720 C   0  0  0  0  0  0  0  0  0  0  0  0
  189.6880  177.7180  143.5090 C   0  0  1  0  0  3  0  0  0  0  0  0
  189.9700  177.1500  139.1660 C   0  0  2  0  0  3  0  0  0  0  0  0
  187.6620  177.8130  139.0120 C   0  0  0  0  0  2  0  0  0  0  0  0
  190.5540  176.7330  145.6880 C   0  0  0  0  0  3  0  0  0  0  0  0
  187.1990  177.8910  143.3040 C   0  0  0  0  0  0  0  0  0  0  0  0
  188.2240  177.3150  145.4150 N   0  0  0  0  0  0  0  0  0  0  0  0
  190.8980  176.8950  141.4320 N   0  0  0  0  0  0  0  0  0  0  0  0
  186.2560  178.1710  141.1100 N   0  0  0  0  0  0  0  0  0  0  0  0
  186.0550  178.2170  142.4030 C   0  0  0  0  0  0  0  0  0  0  0  0
  188.6590  176.8210  138.5910 N   0  0  0  0  0  2  0  0  0  0  0  0
  188.5890  177.5860  141.2760 C   0  0  0  0  0  0  0  0  0  0  0  0
  187.0850  177.7180  144.6300 C   0  0  0  0  0  3  0  0  0  0  0  0
  182.3200  178.9420  142.5370 C   0  0  0  0  0  0  0  0  0  0  0  0
  182.1590  179.2840  143.8820 C   0  0  0  0  0  3  0  0  0  0  0  0
  184.7040  178.5980  142.8960 C   0  0  0  0  0  0  0  0  0  0  0  0
  183.2620  179.2820  144.7370 C   0  0  0  0  0  3  0  0  0  0  0  0
  183.5830  178.5980  142.0500 C   0  0  0  0  0  3  0  0  0  0  0  0
  184.5250  178.9370  144.2480 C   0  0  0  0  0  3  0  0  0  0  0  0
  180.9380  178.9400  141.4630 Cl  0  0  0  0  0  0  0  0  0  0  0  0
  190.9970  176.1270  138.6950 C   0  0  0  0  0  2  0  0  0  0  0  0
  190.3530  176.2490  135.7910 C   0  0  0  0  0  1  0  0  0  0  0  0
  191.8800  176.7190  137.6900 N   0  0  0  0  0  0  0  0  0  0  0  0
  191.7330  176.0360  136.3900 C   0  0  1  0  0  3  0  0  0  0  0  0
  193.2260  174.2560  137.4320 C   0  0  0  0  0  2  0  0  0  0  0  0
  194.0980  175.4880  137.6360 C   0  0  0  0  0  2  0  0  0  0  0  0
  193.2640  176.6520  138.1980 C   0  0  0  0  0  2  0  0  0  0  0  0
  192.0930  174.5430  136.4450 C   0  0  0  0  0  2  0  0  0  0  0  0
  1 13  2  0  0  0  0
  1 11  1  0  0  0  0
  2  6  2  0  0  0  0
  3 12  1  0  0  0  0
  3  8  1  0  0  0  0
  4 15  1  0  0  0  0
  4 18  2  0  0  0  0
  5 11  2  0  0  0  0
  6  5  1  0  0  0  0
  7 18  1  0  0  0  0
  7 14  2  0  0  0  0
  8  2  1  6  0  0  0
  8  1  1  0  0  0  0
  9 27  1  1  0  0  0
  9  7  1  0  0  0  0
 10  4  1  0  0  0  0
 12 19  2  0  0  0  0
 14  2  1  0  0  0  0
 15 16  2  0  0  0  0
 16 22  1  0  0  0  0
 16 12  1  0  0  0  0
 17 10  1  0  0  0  0
 17  9  1  0  0  0  0
 18  3  1  0  0  0  0
 19 13  1  0  0  0  0
 20 21  1  0  0  0  0
 21 23  2  0  0  0  0
 22 25  2  0  0  0  0
 24 20  2  0  0  0  0
 24 22  1  0  0  0  0
 25 23  1  0  0  0  0
 26 20  1  0  0  0  0
 29 33  1  0  0  0  0
 29 27  1  0  0  0  0
 30 28  1  1  0  0  0
 30 34  1  0  0  0  0
 30 29  1  0  0  0  0
 31 32  1  0  0  0  0
 32 33  1  0  0  0  0
 34 31  1  0  0  0  0
M  END
>  <MODEL>
5

>  <REMARK>
 VINA RESULT:      -9.3      3.399      7.213
  Name = 
  3 active torsions:
  status: ('A' for Active; 'I' for Inactive)
    1  A    between atoms: C_3  and  N_13
    2  A    between atoms: C_3  and  C_17
    3  A    between atoms: C_12  and  C_28
                            x       y       z     vdW  Elec       q    Type
                         _______ _______ _______ _____ _____    ______ ____

>  <TORSDO>
F 3

$$$$
=
 OpenBabel11052414083D

 34 40  0  0  1  0  0  0  0  0999 V2000
  186.7540  177.7630  138.3430 C   0  0  0  0  0  0  0  0  0  0  0  0
  187.0940  178.6750  140.6360 C   0  0  0  0  0  0  0  0  0  0  0  0
  188.8820  177.4480  139.4930 N   0  0  0  0  0  0  0  0  0  0  0  0
  190.8640  176.9500  140.7420 C   0  0  0  0  0  0  0  0  0  0  0  0
  184.9420  178.7940  139.5600 C   0  0  0  0  0  3  0  0  0  0  0  0
  185.8210  178.9450  140.6950 N   0  0  0  0  0  0  0  0  0  0  0  0
  189.1070  178.2360  141.8630 C   0  0  0  0  0  0  0  0  0  0  0  0
  187.7410  178.3410  139.3150 C   0  0  1  0  0  3  0  0  0  0  0  0
  189.9720  178.3410  143.0960 C   0  0  2  0  0  3  0  0  0  0  0  0
  191.7100  177.1120  141.9760 C   0  0  0  0  0  2  0  0  0  0  0  0
  185.3600  178.2120  138.4300 C   0  0  0  0  0  3  0  0  0  0  0  0
  189.3390  176.6480  138.3960 C   0  0  0  0  0  0  0  0  0  0  0  0
  187.1410  176.9170  137.4310 N   0  0  0  0  0  0  0  0  0  0  0  0
  187.9080  178.7510  141.8180 N   0  0  0  0  0  0  0  0  0  0  0  0
  191.3800  176.2400  139.6000 N   0  0  0  0  0  0  0  0  0  0  0  0
  190.7130  176.0710  138.4870 C   0  0  0  0  0  0  0  0  0  0  0  0
  190.8710  177.1830  143.1780 N   0  0  0  0  0  2  0  0  0  0  0  0
  189.6640  177.5400  140.6850 C   0  0  0  0  0  0  0  0  0  0  0  0
  188.4820  176.3910  137.3970 C   0  0  0  0  0  3  0  0  0  0  0  0
  192.9840  175.1740  135.5650 C   0  0  0  0  0  0  0  0  0  0  0  0
  192.5990  173.8550  135.3190 C   0  0  0  0  0  3  0  0  0  0  0  0
  191.3640  175.3220  137.3780 C   0  0  0  0  0  0  0  0  0  0  0  0
  191.6030  173.2630  136.0980 C   0  0  0  0  0  3  0  0  0  0  0  0
  192.3730  175.9010  136.5910 C   0  0  0  0  0  3  0  0  0  0  0  0
  190.9920  173.9920  137.1230 C   0  0  0  0  0  3  0  0  0  0  0  0
  194.2350  175.9180  134.5940 Cl  0  0  0  0  0  0  0  0  0  0  0  0
  189.1290  178.4140  144.3640 C   0  0  0  0  0  2  0  0  0  0  0  0
  186.4350  177.1490  144.2740 C   0  0  0  0  0  1  0  0  0  0  0  0
  188.8440  177.0680  144.8630 N   0  0  0  0  0  0  0  0  0  0  0  0
  187.4650  176.9770  145.3780 C   0  0  1  0  0  3  0  0  0  0  0  0
  188.4180  178.1240  147.4420 C   0  0  0  0  0  2  0  0  0  0  0  0
  189.3550  176.9270  147.3440 C   0  0  0  0  0  2  0  0  0  0  0  0
  189.8450  176.7420  145.8980 C   0  0  0  0  0  2  0  0  0  0  0  0
  187.1900  177.9320  146.5500 C   0  0  0  0  0  2  0  0  0  0  0  0
  1 11  1  0  0  0  0
  2  6  2  0  0  0  0
  2 14  1  0  0  0  0
  3 18  1  0  0  0  0
  4 10  1  0  0  0  0
  5  6  1  0  0  0  0
  7  9  1  0  0  0  0
  8  1  1  6  0  0  0
  8  3  1  0  0  0  0
  8  2  1  0  0  0  0
  9 17  1  0  0  0  0
  9 27  1  1  0  0  0
 10 17  1  0  0  0  0
 11  5  2  0  0  0  0
 12 16  1  0  0  0  0
 12  3  1  0  0  0  0
 13  1  2  0  0  0  0
 14  7  2  0  0  0  0
 15  4  1  0  0  0  0
 16 15  2  0  0  0  0
 18  4  2  0  0  0  0
 18  7  1  0  0  0  0
 19 13  1  0  0  0  0
 19 12  2  0  0  0  0
 20 24  1  0  0  0  0
 21 20  2  0  0  0  0
 21 23  1  0  0  0  0
 22 16  1  0  0  0  0
 23 25  2  0  0  0  0
 24 22  2  0  0  0  0
 25 22  1  0  0  0  0
 26 20  1  0  0  0  0
 27 29  1  0  0  0  0
 29 30  1  0  0  0  0
 29 33  1  0  0  0  0
 30 28  1  6  0  0  0
 30 34  1  0  0  0  0
 32 31  1  0  0  0  0
 33 32  1  0  0  0  0
 34 31  1  0  0  0  0
M  END
>  <MODEL>
6

>  <REMARK>
 VINA RESULT:      -8.9      3.163      8.271
  Name = 
  3 active torsions:
  status: ('A' for Active; 'I' for Inactive)
    1  A    between atoms: C_3  and  N_13
    2  A    between atoms: C_3  and  C_17
    3  A    between atoms: C_12  and  C_28
                            x       y       z     vdW  Elec       q    Type
                         _______ _______ _______ _____ _____    ______ ____

>  <TORSDO>
F 3

$$$$
=
 OpenBabel11052414083D

 34 40  0  0  1  0  0  0  0  0999 V2000
  189.3740  177.5510  140.3140 C   0  0  0  0  0  0  0  0  0  0  0  0
  187.5590  177.9560  138.6560 C   0  0  0  0  0  0  0  0  0  0  0  0
  187.1150  178.0850  141.0620 N   0  0  0  0  0  0  0  0  0  0  0  0
  184.8410  178.3700  141.7600 C   0  0  0  0  0  0  0  0  0  0  0  0
  189.7450  177.2300  137.9500 C   0  0  0  0  0  3  0  0  0  0  0  0
  188.3540  177.5320  137.7140 N   0  0  0  0  0  0  0  0  0  0  0  0
  185.2930  178.3110  139.3540 C   0  0  0  0  0  0  0  0  0  0  0  0
  188.1080  178.3030  140.0160 C   0  0  1  0  0  3  0  0  0  0  0  0
  183.8280  178.5460  139.0740 C   0  0  2  0  0  3  0  0  0  0  0  0
  183.3970  178.6430  141.4390 C   0  0  0  0  0  2  0  0  0  0  0  0
  190.2520  177.2120  139.1890 C   0  0  0  0  0  3  0  0  0  0  0  0
  187.5350  177.8970  142.4190 C   0  0  0  0  0  0  0  0  0  0  0  0
  189.6900  177.2470  141.5400 N   0  0  0  0  0  0  0  0  0  0  0  0
  186.1600  178.1540  138.3910 N   0  0  0  0  0  0  0  0  0  0  0  0
  185.2740  178.2970  143.1320 N   0  0  0  0  0  0  0  0  0  0  0  0
  186.5140  178.0790  143.4920 C   0  0  0  0  0  0  0  0  0  0  0  0
  183.0150  178.0080  140.1720 N   0  0  0  0  0  2  0  0  0  0  0  0
  185.7310  178.2780  140.7650 C   0  0  0  0  0  0  0  0  0  0  0  0
  188.7920  177.4850  142.6420 C   0  0  0  0  0  3  0  0  0  0  0  0
  188.2850  177.3970  146.7920 C   0  0  0  0  0  0  0  0  0  0  0  0
  187.4150  178.0080  147.6980 C   0  0  0  0  0  3  0  0  0  0  0  0
  186.8320  178.0330  144.9450 C   0  0  0  0  0  0  0  0  0  0  0  0
  186.2560  178.6340  147.2340 C   0  0  0  0  0  3  0  0  0  0  0  0
  187.9970  177.4130  145.4250 C   0  0  0  0  0  3  0  0  0  0  0  0
  185.9690  178.6490  145.8660 C   0  0  0  0  0  3  0  0  0  0  0  0
  189.7400  176.6140  147.3690 Cl  0  0  0  0  0  0  0  0  0  0  0  0
  183.3990  177.8950  137.7640 C   0  0  0  0  0  2  0  0  0  0  0  0
  185.1790  176.8280  135.6290 C   0  0  0  0  0  1  0  0  0  0  0  0
  183.8650  176.5090  137.7100 N   0  0  0  0  0  0  0  0  0  0  0  0
  184.0540  176.0700  136.3140 C   0  0  1  0  0  3  0  0  0  0  0  0
  181.5240  175.7870  136.3150 C   0  0  0  0  0  2  0  0  0  0  0  0
  181.8900  174.9280  137.5180 C   0  0  0  0  0  2  0  0  0  0  0  0
  182.8860  175.6680  138.4260 C   0  0  0  0  0  2  0  0  0  0  0  0
  182.7630  176.1190  135.4810 C   0  0  0  0  0  2  0  0  0  0  0  0
  1 13  2  0  0  0  0
  3 12  1  0  0  0  0
  4 15  1  0  0  0  0
  5 11  2  0  0  0  0
  6  5  1  0  0  0  0
  6  2  2  0  0  0  0
  7 18  1  0  0  0  0
  8  2  1  6  0  0  0
  8  1  1  0  0  0  0
  8  3  1  0  0  0  0
  9 27  1  6  0  0  0
  9  7  1  0  0  0  0
  9 17  1  0  0  0  0
 10  4  1  0  0  0  0
 11  1  1  0  0  0  0
 12 19  2  0  0  0  0
 12 16  1  0  0  0  0
 13 19  1  0  0  0  0
 14  2  1  0  0  0  0
 14  7  2  0  0  0  0
 15 16  2  0  0  0  0
 16 22  1  0  0  0  0
 17 10  1  0  0  0  0
 18  3  1  0  0  0  0
 18  4  2  0  0  0  0
 20 26  1  0  0  0  0
 20 21  1  0  0  0  0
 22 24  1  0  0  0  0
 22 25  2  0  0  0  0
 23 21  2  0  0  0  0
 24 20  2  0  0  0  0
 25 23  1  0  0  0  0
 29 27  1  0  0  0  0
 29 33  1  0  0  0  0
 30 28  1  6  0  0  0
 30 29  1  0  0  0  0
 31 32  1  0  0  0  0
 32 33  1  0  0  0  0
 34 30  1  0  0  0  0
 34 31  1  0  0  0  0
M  END
>  <MODEL>
7

>  <REMARK>
 VINA RESULT:      -8.4      1.398      1.949
  Name = 
  3 active torsions:
  status: ('A' for Active; 'I' for Inactive)
    1  A    between atoms: C_3  and  N_13
    2  A    between atoms: C_3  and  C_17
    3  A    between atoms: C_12  and  C_28
                            x       y       z     vdW  Elec       q    Type
                         _______ _______ _______ _____ _____    ______ ____

>  <TORSDO>
F 3

$$$$
=
 OpenBabel11052414083D

 34 40  0  0  1  0  0  0  0  0999 V2000
  187.2790  178.0370  138.7150 C   0  0  0  0  0  0  0  0  0  0  0  0
  189.3210  177.3800  137.4480 C   0  0  0  0  0  0  0  0  0  0  0  0
  189.3160  177.4070  139.8990 N   0  0  0  0  0  0  0  0  0  0  0  0
  191.3980  177.0200  141.0200 C   0  0  0  0  0  0  0  0  0  0  0  0
  187.3630  178.1980  136.3080 C   0  0  0  0  0  3  0  0  0  0  0  0
  188.7440  177.7820  136.3520 N   0  0  0  0  0  0  0  0  0  0  0  0
  191.3890  176.9230  138.5730 C   0  0  0  0  0  0  0  0  0  0  0  0
  188.5110  177.1780  138.7050 C   0  0  1  0  0  3  0  0  0  0  0  0
  192.8560  176.5660  138.5830 C   0  0  2  0  0  3  0  0  0  0  0  0
  192.8490  176.6230  140.9890 C   0  0  0  0  0  2  0  0  0  0  0  0
  186.6470  178.3480  137.4290 C   0  0  0  0  0  3  0  0  0  0  0  0
  188.6780  177.7300  141.1400 C   0  0  0  0  0  0  0  0  0  0  0  0
  186.7750  178.4570  139.8400 N   0  0  0  0  0  0  0  0  0  0  0  0
  190.7230  177.0640  137.4590 N   0  0  0  0  0  0  0  0  0  0  0  0
  190.7340  177.2300  142.2810 N   0  0  0  0  0  0  0  0  0  0  0  0
  189.4730  177.5610  142.3920 C   0  0  0  0  0  0  0  0  0  0  0  0
  193.5010  177.1300  139.7750 N   0  0  0  0  0  2  0  0  0  0  0  0
  190.7100  177.0960  139.8740 C   0  0  0  0  0  0  0  0  0  0  0  0
  187.4390  178.2450  141.1010 C   0  0  0  0  0  3  0  0  0  0  0  0
  187.0110  178.0290  145.2580 C   0  0  0  0  0  0  0  0  0  0  0  0
  187.8730  178.0390  146.3570 C   0  0  0  0  0  3  0  0  0  0  0  0
  188.9060  177.7420  143.7560 C   0  0  0  0  0  0  0  0  0  0  0  0
  189.2490  177.8990  146.1630 C   0  0  0  0  0  3  0  0  0  0  0  0
  187.5240  177.8780  143.9680 C   0  0  0  0  0  3  0  0  0  0  0  0
  189.7600  177.7480  144.8710 C   0  0  0  0  0  3  0  0  0  0  0  0
  185.2860  178.2010  145.4980 Cl  0  0  0  0  0  0  0  0  0  0  0  0
  193.5640  177.0810  137.3360 C   0  0  0  0  0  2  0  0  0  0  0  0
  195.4320  177.5630  135.0670 C   0  0  0  0  0  1  0  0  0  0  0  0
  194.5670  176.1140  136.8870 N   0  0  0  0  0  0  0  0  0  0  0  0
  194.8000  176.2310  135.4340 C   0  0  1  0  0  3  0  0  0  0  0  0
  192.6400  174.8990  135.2270 C   0  0  0  0  0  2  0  0  0  0  0  0
  193.4410  173.9700  136.1300 C   0  0  0  0  0  2  0  0  0  0  0  0
  194.1050  174.7650  137.2670 C   0  0  0  0  0  2  0  0  0  0  0  0
  193.5420  175.9600  134.5940 C   0  0  0  0  0  2  0  0  0  0  0  0
  1 13  2  0  0  0  0
  2 14  1  0  0  0  0
  3 12  1  0  0  0  0
  4 15  1  0  0  0  0
  5  6  1  0  0  0  0
  5 11  2  0  0  0  0
  6  2  2  0  0  0  0
  7  9  1  0  0  0  0
  7 18  1  0  0  0  0
  8  2  1  6  0  0  0
  8  1  1  0  0  0  0
  8  3  1  0  0  0  0
  9 27  1  6  0  0  0
  9 17  1  0  0  0  0
 10  4  1  0  0  0  0
 11  1  1  0  0  0  0
 12 16  1  0  0  0  0
 13 19  1  0  0  0  0
 14  7  2  0  0  0  0
 15 16  2  0  0  0  0
 16 22  1  0  0  0  0
 17 10  1  0  0  0  0
 18  3  1  0  0  0  0
 18  4  2  0  0  0  0
 19 12  2  0  0  0  0
 20 26  1  0  0  0  0
 20 21  1  0  0  0  0
 22 24  1  0  0  0  0
 22 25  2  0  0  0  0
 23 21  2  0  0  0  0
 24 20  2  0  0  0  0
 25 23  1  0  0  0  0
 29 33  1  0  0  0  0
 29 27  1  0  0  0  0
 30 28  1  1  0  0  0
 30 29  1  0  0  0  0
 31 32  1  0  0  0  0
 32 33  1  0  0  0  0
 34 31  1  0  0  0  0
 34 30  1  0  0  0  0
M  END
>  <MODEL>
8

>  <REMARK>
 VINA RESULT:      -8.4      3.202      7.472
  Name = 
  3 active torsions:
  status: ('A' for Active; 'I' for Inactive)
    1  A    between atoms: C_3  and  N_13
    2  A    between atoms: C_3  and  C_17
    3  A    between atoms: C_12  and  C_28
                            x       y       z     vdW  Elec       q    Type
                         _______ _______ _______ _____ _____    ______ ____

>  <TORSDO>
F 3

$$$$
=
 OpenBabel11052414083D

 34 40  0  0  1  0  0  0  0  0999 V2000
  187.0860  177.9870  142.9270 C   0  0  0  0  0  0  0  0  0  0  0  0
  189.0040  177.4130  141.4460 C   0  0  0  0  0  0  0  0  0  0  0  0
  186.8950  178.2380  140.5090 N   0  0  0  0  0  0  0  0  0  0  0  0
  186.6620  178.2410  138.1240 C   0  0  0  0  0  0  0  0  0  0  0  0
  189.0950  176.9840  143.8140 C   0  0  0  0  0  3  0  0  0  0  0  0
  189.6100  176.8820  142.4700 N   0  0  0  0  0  0  0  0  0  0  0  0
  188.7960  177.4810  139.0580 C   0  0  0  0  0  0  0  0  0  0  0  0
  187.8050  178.3040  141.6480 C   0  0  1  0  0  3  0  0  0  0  0  0
  189.3360  177.2870  137.6610 C   0  0  2  0  0  3  0  0  0  0  0  0
  187.2520  178.0720  136.7500 C   0  0  0  0  0  2  0  0  0  0  0  0
  187.8790  177.4900  144.0560 C   0  0  0  0  0  3  0  0  0  0  0  0
  185.5210  178.6090  140.6700 C   0  0  0  0  0  0  0  0  0  0  0  0
  185.8030  178.1860  143.0320 N   0  0  0  0  0  0  0  0  0  0  0  0
  189.5080  177.2040  140.1160 N   0  0  0  0  0  0  0  0  0  0  0  0
  185.3150  178.7250  138.2780 N   0  0  0  0  0  0  0  0  0  0  0  0
  184.7370  178.9130  139.4370 C   0  0  0  0  0  0  0  0  0  0  0  0
  188.2370  176.9840  136.7360 N   0  0  0  0  0  2  0  0  0  0  0  0
  187.4260  178.0170  139.2010 C   0  0  0  0  0  0  0  0  0  0  0  0
  184.9960  178.5770  141.9040 C   0  0  0  0  0  3  0  0  0  0  0  0
  181.6430  181.0240  138.7570 C   0  0  0  0  0  0  0  0  0  0  0  0
  180.6760  180.3310  139.4890 C   0  0  0  0  0  3  0  0  0  0  0  0
  183.3400  179.4240  139.4570 C   0  0  0  0  0  0  0  0  0  0  0  0
  181.0320  179.1860  140.2030 C   0  0  0  0  0  3  0  0  0  0  0  0
  182.9640  180.5710  138.7380 C   0  0  0  0  0  3  0  0  0  0  0  0
  182.3550  178.7340  140.1840 C   0  0  0  0  0  3  0  0  0  0  0  0
  181.1980  182.4580  137.8570 Cl  0  0  0  0  0  0  0  0  0  0  0  0
  190.3610  176.1600  137.6120 C   0  0  0  0  0  2  0  0  0  0  0  0
  190.8830  176.0030  134.6840 C   0  0  0  0  0  1  0  0  0  0  0  0
  191.5950  176.6260  136.9780 N   0  0  0  0  0  0  0  0  0  0  0  0
  191.9140  175.8180  135.7850 C   0  0  1  0  0  3  0  0  0  0  0  0
  192.7820  174.1160  137.4680 C   0  0  0  0  0  2  0  0  0  0  0  0
  193.5850  175.3400  137.8870 C   0  0  0  0  0  2  0  0  0  0  0  0
  192.6740  176.5760  137.9840 C   0  0  0  0  0  2  0  0  0  0  0  0
  192.1310  174.3290  136.1000 C   0  0  0  0  0  2  0  0  0  0  0  0
  1 13  2  0  0  0  0
  1 11  1  0  0  0  0
  2  6  2  0  0  0  0
  3 12  1  0  0  0  0
  3  8  1  0  0  0  0
  4 15  1  0  0  0  0
  4 18  2  0  0  0  0
  5 11  2  0  0  0  0
  6  5  1  0  0  0  0
  7 18  1  0  0  0  0
  7 14  2  0  0  0  0
  8  2  1  6  0  0  0
  8  1  1  0  0  0  0
  9 27  1  1  0  0  0
  9  7  1  0  0  0  0
 10  4  1  0  0  0  0
 12 19  2  0  0  0  0
 14  2  1  0  0  0  0
 15 16  2  0  0  0  0
 16 22  1  0  0  0  0
 16 12  1  0  0  0  0
 17 10  1  0  0  0  0
 17  9  1  0  0  0  0
 18  3  1  0  0  0  0
 19 13  1  0  0  0  0
 20 21  1  0  0  0  0
 21 23  2  0  0  0  0
 22 25  2  0  0  0  0
 24 20  2  0  0  0  0
 24 22  1  0  0  0  0
 25 23  1  0  0  0  0
 26 20  1  0  0  0  0
 29 27  1  0  0  0  0
 29 33  1  0  0  0  0
 30 28  1  6  0  0  0
 30 34  1  0  0  0  0
 30 29  1  0  0  0  0
 31 32  1  0  0  0  0
 32 33  1  0  0  0  0
 34 31  1  0  0  0  0
M  END
>  <MODEL>
9

>  <REMARK>
 VINA RESULT:      -8.3      3.323      8.074
  Name = 
  3 active torsions:
  status: ('A' for Active; 'I' for Inactive)
    1  A    between atoms: C_3  and  N_13
    2  A    between atoms: C_3  and  C_17
    3  A    between atoms: C_12  and  C_28
                            x       y       z     vdW  Elec       q    Type
                         _______ _______ _______ _____ _____    ______ ____

>  <TORSDO>
F 3

$$$$
