=
 OpenBabel11052414173D

 34 41  0  0  1  0  0  0  0  0999 V2000
  188.5760  177.5190  144.4710 C   0  0  0  0  0  0  0  0  0  0  0  0
  186.1830  178.0730  144.3260 C   0  0  0  0  0  0  0  0  0  0  0  0
  187.6550  178.2760  142.3870 C   0  0  0  0  0  0  0  0  0  0  0  0
  186.6360  178.1720  140.2580 C   0  0  1  0  0  3  0  0  0  0  0  0
  187.1660  177.3610  146.4350 C   0  0  0  0  0  3  0  0  0  0  0  0
  186.0530  177.7700  145.6860 C   0  0  0  0  0  3  0  0  0  0  0  0
  185.2390  178.5660  142.0470 C   0  0  0  0  0  0  0  0  0  0  0  0
  187.4680  177.9750  143.7320 C   0  0  0  0  0  0  0  0  0  0  0  0
  185.2520  178.4640  139.6970 C   0  0  0  0  0  2  0  0  0  0  0  0
  188.4210  177.2270  145.8290 C   0  0  0  0  0  3  0  0  0  0  0  0
  188.8640  178.0110  141.7380 C   0  0  0  0  0  0  0  0  0  0  0  0
  189.8060  177.3300  143.8170 C   0  0  0  0  0  3  0  0  0  0  0  0
  184.9390  178.4440  143.5220 C   0  0  0  0  0  2  0  0  0  0  0  0
  187.7920  178.6440  139.6070 O   0  0  0  0  0  0  0  0  0  0  0  0
  188.8560  178.0510  140.2680 N   0  0  0  0  0  0  0  0  0  0  0  0
  184.4510  178.4140  140.9780 C   0  0  0  0  0  0  0  0  0  0  0  0
  186.5860  178.8630  141.5790 C   0  0  1  0  0  3  0  0  0  0  0  0
  189.9190  177.5550  142.4720 N   0  0  0  0  0  0  0  0  0  0  0  0
  192.1030  176.6860  138.9320 C   0  0  0  0  0  0  0  0  0  0  0  0
  191.6380  175.8630  137.9040 C   0  0  0  0  0  3  0  0  0  0  0  0
  189.8150  177.3290  139.4670 C   0  0  0  0  0  0  0  0  0  0  0  0
  190.2680  175.7670  137.6530 C   0  0  0  0  0  3  0  0  0  0  0  0
  191.1960  177.4100  139.7100 C   0  0  0  0  0  3  0  0  0  0  0  0
  189.3630  176.4940  138.4320 C   0  0  0  0  0  3  0  0  0  0  0  0
  193.4310  176.7780  139.1800 F   0  0  0  0  0  0  0  0  0  0  0  0
  183.0470  178.1250  141.0030 N   0  0  0  0  0  2  0  0  0  0  0  0
  182.0090  179.1410  140.9600 C   0  0  0  0  0  2  0  0  0  0  0  0
  182.2830  179.7380  143.6830 F   0  0  0  0  0  0  0  0  0  0  0  0
  180.8500  178.7220  141.8440 C   0  0  1  0  0  3  0  0  0  0  0  0
  181.1270  179.0800  143.2940 C   0  0  2  0  0  0  0  0  0  0  0  0
  179.1260  179.1200  144.2200 C   0  0  0  0  0  2  0  0  0  0  0  0
  178.9310  179.6610  142.9390 O   0  0  0  0  0  0  0  0  0  0  0  0
  180.2190  179.9540  142.4910 C   0  0  2  0  0  3  0  0  0  0  0  0
  180.3610  178.4540  144.2740 O   0  0  0  0  0  0  0  0  0  0  0  0
  1 10  2  0  0  0  0
  2  6  1  0  0  0  0
  3  8  1  0  0  0  0
  4  9  1  6  0  0  0
  4 17  1  0  0  0  0
  6  5  2  0  0  0  0
  7 13  1  0  0  0  0
  8  2  2  0  0  0  0
  8  1  1  0  0  0  0
  9 16  1  0  0  0  0
 10  5  1  0  0  0  0
 11  3  2  0  0  0  0
 11 18  1  0  0  0  0
 12  1  1  0  0  0  0
 13  2  1  0  0  0  0
 14  4  1  0  0  0  0
 14 15  1  0  0  0  0
 15 11  1  0  0  0  0
 16 26  1  0  0  0  0
 16  7  2  0  0  0  0
 17  7  1  1  0  0  0
 17  3  1  0  0  0  0
 18 12  2  0  0  0  0
 19 25  1  0  0  0  0
 19 23  1  0  0  0  0
 20 19  2  0  0  0  0
 21 23  2  0  0  0  0
 21 15  1  0  0  0  0
 22 20  1  0  0  0  0
 22 24  2  0  0  0  0
 24 21  1  0  0  0  0
 27 26  1  0  0  0  0
 29 27  1  6  0  0  0
 29 33  1  0  0  0  0
 29 30  1  0  0  0  0
 30 28  1  1  0  0  0
 30 34  1  0  0  0  0
 31 34  1  0  0  0  0
 32 31  1  0  0  0  0
 33 32  1  1  0  0  0
 33 30  1  0  0  0  0
M  END
>  <MODEL>
1

>  <REMARK>
 VINA RESULT:      -9.9      0.000      0.000
  Name = 
  4 active torsions:
  status: ('A' for Active; 'I' for Inactive)
    1  A    between atoms: C_3  and  C_13
    2  A    between atoms: C_3  and  N_17
    3  A    between atoms: C_12  and  N_28
    4  A    between atoms: N_17  and  C_29
                            x       y       z     vdW  Elec       q    Type
                         _______ _______ _______ _____ _____    ______ ____

>  <TORSDO>
F 4

$$$$
=
 OpenBabel11052414173D

 34 41  0  0  1  0  0  0  0  0999 V2000
  189.9210  177.1500  145.2850 C   0  0  0  0  0  0  0  0  0  0  0  0
  187.6290  177.7390  145.9580 C   0  0  0  0  0  0  0  0  0  0  0  0
  188.4230  178.1230  143.6800 C   0  0  0  0  0  0  0  0  0  0  0  0
  186.7820  178.2440  141.9840 C   0  0  1  0  0  3  0  0  0  0  0  0
  189.1950  176.8090  147.5710 C   0  0  0  0  0  3  0  0  0  0  0  0
  187.9210  177.3030  147.2550 C   0  0  0  0  0  3  0  0  0  0  0  0
  186.0370  178.4690  144.1530 C   0  0  0  0  0  0  0  0  0  0  0  0
  188.6570  177.6900  144.9810 C   0  0  0  0  0  0  0  0  0  0  0  0
  185.3060  178.6040  141.9210 C   0  0  0  0  0  2  0  0  0  0  0  0
  190.1900  176.7250  146.5880 C   0  0  0  0  0  3  0  0  0  0  0  0
  189.3550  177.9130  142.6590 C   0  0  0  0  0  0  0  0  0  0  0  0
  190.8740  177.0170  144.2600 C   0  0  0  0  0  3  0  0  0  0  0  0
  186.2120  178.2020  145.6290 C   0  0  0  0  0  2  0  0  0  0  0  0
  187.6930  178.7680  141.0470 O   0  0  0  0  0  0  0  0  0  0  0  0
  188.8860  178.1010  141.2780 N   0  0  0  0  0  0  0  0  0  0  0  0
  184.9470  178.4330  143.3800 C   0  0  0  0  0  0  0  0  0  0  0  0
  187.1800  178.7990  143.3110 C   0  0  1  0  0  3  0  0  0  0  0  0
  190.5670  177.3750  142.9750 N   0  0  0  0  0  0  0  0  0  0  0  0
  191.4840  176.6130  138.9920 C   0  0  0  0  0  0  0  0  0  0  0  0
  190.6800  176.1440  137.9510 C   0  0  0  0  0  3  0  0  0  0  0  0
  189.5130  177.4540  140.1510 C   0  0  0  0  0  0  0  0  0  0  0  0
  189.2960  176.3240  138.0030 C   0  0  0  0  0  3  0  0  0  0  0  0
  190.9030  177.2590  140.0860 C   0  0  0  0  0  3  0  0  0  0  0  0
  188.7180  176.9730  139.0980 C   0  0  0  0  0  3  0  0  0  0  0  0
  192.8260  176.4360  138.9460 F   0  0  0  0  0  0  0  0  0  0  0  0
  183.6120  178.1570  143.8210 N   0  0  0  0  0  2  0  0  0  0  0  0
  182.5480  179.1470  143.8580 C   0  0  0  0  0  2  0  0  0  0  0  0
  180.0130  178.1010  144.4270 F   0  0  0  0  0  0  0  0  0  0  0  0
  181.6330  178.9560  142.6630 C   0  0  1  0  0  3  0  0  0  0  0  0
  180.3030  178.3660  143.0980 C   0  0  2  0  0  0  0  0  0  0  0  0
  178.9310  178.8890  141.4530 C   0  0  0  0  0  2  0  0  0  0  0  0
  179.7670  180.0100  141.5810 O   0  0  0  0  0  0  0  0  0  0  0  0
  180.3910  179.8320  142.8160 C   0  0  2  0  0  3  0  0  0  0  0  0
  179.4980  177.7910  142.1180 O   0  0  0  0  0  0  0  0  0  0  0  0
  1 10  2  0  0  0  0
  2  6  1  0  0  0  0
  3  8  1  0  0  0  0
  4  9  1  6  0  0  0
  4 17  1  0  0  0  0
  6  5  2  0  0  0  0
  7 13  1  0  0  0  0
  8  1  1  0  0  0  0
  8  2  2  0  0  0  0
  9 16  1  0  0  0  0
 10  5  1  0  0  0  0
 11 18  1  0  0  0  0
 11  3  2  0  0  0  0
 12  1  1  0  0  0  0
 13  2  1  0  0  0  0
 14 15  1  0  0  0  0
 14  4  1  0  0  0  0
 15 11  1  0  0  0  0
 16 26  1  0  0  0  0
 16  7  2  0  0  0  0
 17  3  1  1  0  0  0
 17  7  1  0  0  0  0
 18 12  2  0  0  0  0
 19 23  1  0  0  0  0
 20 22  1  0  0  0  0
 20 19  2  0  0  0  0
 21 15  1  0  0  0  0
 22 24  2  0  0  0  0
 23 21  2  0  0  0  0
 24 21  1  0  0  0  0
 25 19  1  0  0  0  0
 26 27  1  0  0  0  0
 29 33  1  0  0  0  0
 29 30  1  0  0  0  0
 29 27  1  1  0  0  0
 30 28  1  1  0  0  0
 31 32  1  0  0  0  0
 31 34  1  0  0  0  0
 33 32  1  6  0  0  0
 33 30  1  0  0  0  0
 34 30  1  0  0  0  0
M  END
>  <MODEL>
2

>  <REMARK>
 VINA RESULT:      -9.7      1.302      1.824
  Name = 
  4 active torsions:
  status: ('A' for Active; 'I' for Inactive)
    1  A    between atoms: C_3  and  C_13
    2  A    between atoms: C_3  and  N_17
    3  A    between atoms: C_12  and  N_28
    4  A    between atoms: N_17  and  C_29
                            x       y       z     vdW  Elec       q    Type
                         _______ _______ _______ _____ _____    ______ ____

>  <TORSDO>
F 4

$$$$
=
 OpenBabel11052414173D

 34 41  0  0  1  0  0  0  0  0999 V2000
  187.8350  178.0290  138.7180 C   0  0  0  0  0  0  0  0  0  0  0  0
  188.6800  177.8480  141.0220 C   0  0  0  0  0  0  0  0  0  0  0  0
  186.4060  178.6100  140.5580 C   0  0  0  0  0  0  0  0  0  0  0  0
  184.8180  178.3450  142.2880 C   0  0  1  0  0  3  0  0  0  0  0  0
  190.1170  177.3280  139.1280 C   0  0  0  0  0  3  0  0  0  0  0  0
  189.9160  177.4330  140.5120 C   0  0  0  0  0  3  0  0  0  0  0  0
  187.0350  178.1840  142.8940 C   0  0  0  0  0  0  0  0  0  0  0  0
  187.6480  178.1790  140.1050 C   0  0  0  0  0  0  0  0  0  0  0  0
  184.8670  178.2440  143.8040 C   0  0  0  0  0  2  0  0  0  0  0  0
  189.0790  177.6160  138.2340 C   0  0  0  0  0  3  0  0  0  0  0  0
  185.3220  178.7620  139.6890 C   0  0  0  0  0  0  0  0  0  0  0  0
  186.7520  178.2600  137.8510 C   0  0  0  0  0  3  0  0  0  0  0  0
  188.4700  177.8820  142.5330 C   0  0  0  0  0  2  0  0  0  0  0  0
  183.8840  179.1820  141.6500 O   0  0  0  0  0  0  0  0  0  0  0  0
  183.9900  178.8940  140.2980 N   0  0  0  0  0  0  0  0  0  0  0  0
  186.3220  177.8730  143.9810 C   0  0  0  0  0  0  0  0  0  0  0  0
  186.1660  178.9010  141.9710 C   0  0  1  0  0  3  0  0  0  0  0  0
  185.5230  178.5960  138.3500 N   0  0  0  0  0  0  0  0  0  0  0  0
  180.9950  176.9760  139.0560 C   0  0  0  0  0  0  0  0  0  0  0  0
  180.3880  177.9360  138.2440 C   0  0  0  0  0  3  0  0  0  0  0  0
  182.7780  178.5460  139.5970 C   0  0  0  0  0  0  0  0  0  0  0  0
  180.9650  179.2000  138.1060 C   0  0  0  0  0  3  0  0  0  0  0  0
  182.1800  177.2810  139.7310 C   0  0  0  0  0  3  0  0  0  0  0  0
  182.1520  179.5020  138.7820 C   0  0  0  0  0  3  0  0  0  0  0  0
  180.4350  175.7510  139.1940 F   0  0  0  0  0  0  0  0  0  0  0  0
  186.8090  177.1760  145.1350 N   0  0  0  0  0  2  0  0  0  0  0  0
  187.7260  177.7520  146.1040 C   0  0  0  0  0  2  0  0  0  0  0  0
  190.1730  178.6710  145.0960 F   0  0  0  0  0  0  0  0  0  0  0  0
  188.9090  176.8220  146.3000 C   0  0  1  0  0  3  0  0  0  0  0  0
  190.1660  177.4220  145.6940 C   0  0  2  0  0  0  0  0  0  0  0  0
  191.8040  176.3650  146.7260 C   0  0  0  0  0  2  0  0  0  0  0  0
  190.8270  176.5500  147.7180 O   0  0  0  0  0  0  0  0  0  0  0  0
  189.9630  177.5000  147.1730 C   0  0  2  0  0  3  0  0  0  0  0  0
  191.2410  176.5690  145.4560 O   0  0  0  0  0  0  0  0  0  0  0  0
  1  8  1  0  0  0  0
  2 13  1  0  0  0  0
  4  9  1  1  0  0  0
  5  6  2  0  0  0  0
  6  2  1  0  0  0  0
  7 16  2  0  0  0  0
  8  3  1  0  0  0  0
  8  2  2  0  0  0  0
  9 16  1  0  0  0  0
 10  1  2  0  0  0  0
 10  5  1  0  0  0  0
 11 15  1  0  0  0  0
 11  3  2  0  0  0  0
 12 18  2  0  0  0  0
 12  1  1  0  0  0  0
 13  7  1  0  0  0  0
 14  4  1  0  0  0  0
 15 14  1  0  0  0  0
 16 26  1  0  0  0  0
 17  3  1  6  0  0  0
 17  4  1  0  0  0  0
 17  7  1  0  0  0  0
 18 11  1  0  0  0  0
 19 25  1  0  0  0  0
 19 23  1  0  0  0  0
 20 19  2  0  0  0  0
 21 23  2  0  0  0  0
 21 15  1  0  0  0  0
 22 20  1  0  0  0  0
 22 24  2  0  0  0  0
 24 21  1  0  0  0  0
 26 27  1  0  0  0  0
 29 27  1  6  0  0  0
 29 33  1  0  0  0  0
 30 28  1  6  0  0  0
 30 29  1  0  0  0  0
 30 33  1  0  0  0  0
 31 32  1  0  0  0  0
 33 32  1  1  0  0  0
 34 30  1  0  0  0  0
 34 31  1  0  0  0  0
M  END
>  <MODEL>
3

>  <REMARK>
 VINA RESULT:      -9.7      3.215      7.822
  Name = 
  4 active torsions:
  status: ('A' for Active; 'I' for Inactive)
    1  A    between atoms: C_3  and  C_13
    2  A    between atoms: C_3  and  N_17
    3  A    between atoms: C_12  and  N_28
    4  A    between atoms: N_17  and  C_29
                            x       y       z     vdW  Elec       q    Type
                         _______ _______ _______ _____ _____    ______ ____

>  <TORSDO>
F 4

$$$$
=
 OpenBabel11052414173D

 34 41  0  0  1  0  0  0  0  0999 V2000
  188.2110  177.5370  144.1230 C   0  0  0  0  0  0  0  0  0  0  0  0
  185.8550  178.2460  144.1630 C   0  0  0  0  0  0  0  0  0  0  0  0
  187.1710  178.3220  142.1060 C   0  0  0  0  0  0  0  0  0  0  0  0
  185.9730  178.2530  140.0700 C   0  0  1  0  0  3  0  0  0  0  0  0
  186.9620  177.5030  146.1980 C   0  0  0  0  0  3  0  0  0  0  0  0
  185.8200  177.9730  145.5350 C   0  0  0  0  0  3  0  0  0  0  0  0
  184.7590  178.7650  141.9600 C   0  0  0  0  0  0  0  0  0  0  0  0
  187.0770  178.0540  143.4680 C   0  0  0  0  0  0  0  0  0  0  0  0
  184.5700  178.6260  139.6200 C   0  0  0  0  0  2  0  0  0  0  0  0
  188.1520  177.2770  145.4940 C   0  0  0  0  0  3  0  0  0  0  0  0
  188.3020  177.9670  141.3660 C   0  0  0  0  0  0  0  0  0  0  0  0
  189.3680  177.2580  143.3750 C   0  0  0  0  0  3  0  0  0  0  0  0
  184.5750  178.6860  143.4570 C   0  0  0  0  0  2  0  0  0  0  0  0
  187.1000  178.6370  139.3180 O   0  0  0  0  0  0  0  0  0  0  0  0
  188.1750  177.9850  139.9010 N   0  0  0  0  0  0  0  0  0  0  0  0
  183.8760  178.6490  140.9630 C   0  0  0  0  0  0  0  0  0  0  0  0
  186.0790  178.9650  141.3770 C   0  0  1  0  0  3  0  0  0  0  0  0
  189.3830  177.4540  142.0200 N   0  0  0  0  0  0  0  0  0  0  0  0
  191.2030  176.3820  138.3370 C   0  0  0  0  0  0  0  0  0  0  0  0
  190.6030  175.5830  137.3620 C   0  0  0  0  0  3  0  0  0  0  0  0
  189.0150  177.1890  139.0390 C   0  0  0  0  0  0  0  0  0  0  0  0
  189.2140  175.5800  137.2210 C   0  0  0  0  0  3  0  0  0  0  0  0
  190.4140  177.1760  139.1720 C   0  0  0  0  0  3  0  0  0  0  0  0
  188.4260  176.3770  138.0570 C   0  0  0  0  0  3  0  0  0  0  0  0
  192.5510  176.3830  138.4780 F   0  0  0  0  0  0  0  0  0  0  0  0
  182.4640  178.4540  141.1080 N   0  0  0  0  0  2  0  0  0  0  0  0
  181.5110  178.5840  140.0190 C   0  0  0  0  0  2  0  0  0  0  0  0
  182.1500  179.7770  137.5660 F   0  0  0  0  0  0  0  0  0  0  0  0
  181.1040  180.0390  139.8690 C   0  0  1  0  0  3  0  0  0  0  0  0
  181.5230  180.5740  138.5110 C   0  0  2  0  0  0  0  0  0  0  0  0
  180.2170  182.3240  138.2070 C   0  0  0  0  0  2  0  0  0  0  0  0
  179.3960  181.3810  138.8480 O   0  0  0  0  0  0  0  0  0  0  0  0
  180.0970  180.1810  138.7300 C   0  0  2  0  0  3  0  0  0  0  0  0
  181.5640  181.9560  138.3430 O   0  0  0  0  0  0  0  0  0  0  0  0
  1 10  2  0  0  0  0
  2  6  1  0  0  0  0
  3  8  1  0  0  0  0
  4  9  1  6  0  0  0
  4 17  1  0  0  0  0
  6  5  2  0  0  0  0
  7 13  1  0  0  0  0
  8  1  1  0  0  0  0
  8  2  2  0  0  0  0
  9 16  1  0  0  0  0
 10  5  1  0  0  0  0
 11 18  1  0  0  0  0
 11  3  2  0  0  0  0
 12  1  1  0  0  0  0
 13  2  1  0  0  0  0
 14 15  1  0  0  0  0
 14  4  1  0  0  0  0
 15 11  1  0  0  0  0
 16 26  1  0  0  0  0
 16  7  2  0  0  0  0
 17  7  1  1  0  0  0
 17  3  1  0  0  0  0
 18 12  2  0  0  0  0
 19 25  1  0  0  0  0
 19 23  1  0  0  0  0
 20 19  2  0  0  0  0
 21 23  2  0  0  0  0
 21 15  1  0  0  0  0
 22 20  1  0  0  0  0
 22 24  2  0  0  0  0
 24 21  1  0  0  0  0
 27 26  1  0  0  0  0
 29 27  1  6  0  0  0
 30 28  1  6  0  0  0
 30 33  1  0  0  0  0
 30 29  1  0  0  0  0
 31 34  1  0  0  0  0
 31 32  1  0  0  0  0
 33 32  1  1  0  0  0
 33 29  1  0  0  0  0
 34 30  1  0  0  0  0
M  END
>  <MODEL>
4

>  <REMARK>
 VINA RESULT:      -9.4      2.145      2.516
  Name = 
  4 active torsions:
  status: ('A' for Active; 'I' for Inactive)
    1  A    between atoms: C_3  and  C_13
    2  A    between atoms: C_3  and  N_17
    3  A    between atoms: C_12  and  N_28
    4  A    between atoms: N_17  and  C_29
                            x       y       z     vdW  Elec       q    Type
                         _______ _______ _______ _____ _____    ______ ____

>  <TORSDO>
F 4

$$$$
=
 OpenBabel11052414173D

 34 41  0  0  1  0  0  0  0  0999 V2000
  185.9820  178.2460  144.5610 C   0  0  0  0  0  0  0  0  0  0  0  0
  185.6010  178.5920  142.1540 C   0  0  0  0  0  0  0  0  0  0  0  0
  187.8520  178.2910  143.0540 C   0  0  0  0  0  0  0  0  0  0  0  0
  189.5010  177.4970  141.5600 C   0  0  1  0  0  3  0  0  0  0  0  0
  183.7380  178.6020  143.7200 C   0  0  0  0  0  3  0  0  0  0  0  0
  184.2290  178.7030  142.4100 C   0  0  0  0  0  3  0  0  0  0  0  0
  187.5710  178.3260  140.6140 C   0  0  0  0  0  0  0  0  0  0  0  0
  186.4790  178.3960  143.2520 C   0  0  0  0  0  0  0  0  0  0  0  0
  189.7110  177.5270  140.0540 C   0  0  0  0  0  2  0  0  0  0  0  0
  184.6090  178.3650  144.7910 C   0  0  0  0  0  3  0  0  0  0  0  0
  188.7140  177.9140  144.0880 C   0  0  0  0  0  0  0  0  0  0  0  0
  186.8750  177.9420  145.6020 C   0  0  0  0  0  3  0  0  0  0  0  0
  186.0950  178.6340  140.7110 C   0  0  0  0  0  2  0  0  0  0  0  0
  190.5500  177.8180  142.4420 O   0  0  0  0  0  0  0  0  0  0  0  0
  190.0770  177.5130  143.7080 N   0  0  0  0  0  0  0  0  0  0  0  0
  188.2940  177.8160  139.6120 C   0  0  0  0  0  0  0  0  0  0  0  0
  188.4580  178.5470  141.7480 C   0  0  1  0  0  3  0  0  0  0  0  0
  188.2070  177.7610  145.3440 N   0  0  0  0  0  0  0  0  0  0  0  0
  191.8860  176.0320  146.6620 C   0  0  0  0  0  0  0  0  0  0  0  0
  192.4300  174.8830  146.0870 C   0  0  0  0  0  3  0  0  0  0  0  0
  190.8850  176.6410  144.5260 C   0  0  0  0  0  0  0  0  0  0  0  0
  192.2050  174.6040  144.7370 C   0  0  0  0  0  3  0  0  0  0  0  0
  191.1150  176.9030  145.8870 C   0  0  0  0  0  3  0  0  0  0  0  0
  191.4350  175.4780  143.9630 C   0  0  0  0  0  3  0  0  0  0  0  0
  192.1000  176.3020  147.9720 F   0  0  0  0  0  0  0  0  0  0  0  0
  187.8020  177.4670  138.3120 N   0  0  0  0  0  2  0  0  0  0  0  0
  188.6560  177.2130  137.1630 C   0  0  0  0  0  2  0  0  0  0  0  0
  190.4980  176.4410  135.1990 F   0  0  0  0  0  0  0  0  0  0  0  0
  188.8470  175.7170  136.9930 C   0  0  1  0  0  3  0  0  0  0  0  0
  189.8500  175.4290  135.8890 C   0  0  2  0  0  0  0  0  0  0  0  0
  190.5400  173.3800  136.3240 C   0  0  0  0  0  2  0  0  0  0  0  0
  190.3880  173.9750  137.5880 O   0  0  0  0  0  0  0  0  0  0  0  0
  190.2920  175.3400  137.3140 C   0  0  2  0  0  3  0  0  0  0  0  0
  189.8730  174.1440  135.3530 O   0  0  0  0  0  0  0  0  0  0  0  0
  1 10  1  0  0  0  0
  1 12  1  0  0  0  0
  2  6  2  0  0  0  0
  2  8  1  0  0  0  0
  3  8  1  0  0  0  0
  3 11  2  0  0  0  0
  4  9  1  6  0  0  0
  4 17  1  0  0  0  0
  4 14  1  0  0  0  0
  5 10  2  0  0  0  0
  6  5  1  0  0  0  0
  7 13  1  0  0  0  0
  8  1  2  0  0  0  0
 11 18  1  0  0  0  0
 13  2  1  0  0  0  0
 14 15  1  0  0  0  0
 15 11  1  0  0  0  0
 15 21  1  0  0  0  0
 16  9  1  0  0  0  0
 16  7  2  0  0  0  0
 17  7  1  6  0  0  0
 17  3  1  0  0  0  0
 18 12  2  0  0  0  0
 19 25  1  0  0  0  0
 20 19  1  0  0  0  0
 21 23  1  0  0  0  0
 22 20  2  0  0  0  0
 23 19  2  0  0  0  0
 24 21  2  0  0  0  0
 24 22  1  0  0  0  0
 26 16  1  0  0  0  0
 27 26  1  0  0  0  0
 29 27  1  6  0  0  0
 29 33  1  0  0  0  0
 30 28  1  6  0  0  0
 30 29  1  0  0  0  0
 30 33  1  0  0  0  0
 31 32  1  0  0  0  0
 33 32  1  1  0  0  0
 34 30  1  0  0  0  0
 34 31  1  0  0  0  0
M  END
>  <MODEL>
5

>  <REMARK>
 VINA RESULT:      -9.3      4.008      7.274
  Name = 
  4 active torsions:
  status: ('A' for Active; 'I' for Inactive)
    1  A    between atoms: C_3  and  C_13
    2  A    between atoms: C_3  and  N_17
    3  A    between atoms: C_12  and  N_28
    4  A    between atoms: N_17  and  C_29
                            x       y       z     vdW  Elec       q    Type
                         _______ _______ _______ _____ _____    ______ ____

>  <TORSDO>
F 4

$$$$
=
 OpenBabel11052414173D

 34 41  0  0  1  0  0  0  0  0999 V2000
  187.8250  177.5730  143.8870 C   0  0  0  0  0  0  0  0  0  0  0  0
  185.5150  178.4150  143.7780 C   0  0  0  0  0  0  0  0  0  0  0  0
  186.9590  178.4070  141.8080 C   0  0  0  0  0  0  0  0  0  0  0  0
  185.8890  178.3970  139.7010 C   0  0  1  0  0  3  0  0  0  0  0  0
  186.4490  177.6200  145.8800 C   0  0  0  0  0  3  0  0  0  0  0  0
  185.3790  178.1510  145.1460 C   0  0  0  0  0  3  0  0  0  0  0  0
  184.5900  178.9860  141.5110 C   0  0  0  0  0  0  0  0  0  0  0  0
  186.7660  178.1510  143.1610 C   0  0  0  0  0  0  0  0  0  0  0  0
  184.5400  178.8470  139.1630 C   0  0  0  0  0  2  0  0  0  0  0  0
  187.6650  177.3230  145.2520 C   0  0  0  0  0  3  0  0  0  0  0  0
  188.1120  177.9850  141.1400 C   0  0  0  0  0  0  0  0  0  0  0  0
  189.0080  177.2250  143.2120 C   0  0  0  0  0  3  0  0  0  0  0  0
  184.3090  178.9240  142.9930 C   0  0  0  0  0  2  0  0  0  0  0  0
  187.0800  178.7120  139.0200 O   0  0  0  0  0  0  0  0  0  0  0  0
  188.0770  178.0030  139.6700 N   0  0  0  0  0  0  0  0  0  0  0  0
  183.7660  178.9160  140.4600 C   0  0  0  0  0  0  0  0  0  0  0  0
  185.9530  179.1080  141.0110 C   0  0  1  0  0  3  0  0  0  0  0  0
  189.1190  177.4140  141.8610 N   0  0  0  0  0  0  0  0  0  0  0  0
  191.1180  176.3370  138.1990 C   0  0  0  0  0  0  0  0  0  0  0  0
  190.5230  175.4520  137.2980 C   0  0  0  0  0  3  0  0  0  0  0  0
  188.9230  177.1570  138.8630 C   0  0  0  0  0  0  0  0  0  0  0  0
  189.1320  175.4120  137.1760 C   0  0  0  0  0  3  0  0  0  0  0  0
  190.3230  177.1800  138.9790 C   0  0  0  0  0  3  0  0  0  0  0  0
  188.3390  176.2580  137.9560 C   0  0  0  0  0  3  0  0  0  0  0  0
  192.4670  176.3740  138.3220 F   0  0  0  0  0  0  0  0  0  0  0  0
  182.3390  178.8020  140.5170 N   0  0  0  0  0  2  0  0  0  0  0  0
  181.6320  177.5520  140.7440 C   0  0  0  0  0  2  0  0  0  0  0  0
  183.1290  175.5890  139.4200 F   0  0  0  0  0  0  0  0  0  0  0  0
  181.0490  177.0520  139.4360 C   0  0  1  0  0  3  0  0  0  0  0  0
  181.9600  176.0110  138.8080 C   0  0  2  0  0  0  0  0  0  0  0  0
  180.6330  174.9080  137.4350 C   0  0  0  0  0  2  0  0  0  0  0  0
  179.8300  175.1810  138.5550 O   0  0  0  0  0  0  0  0  0  0  0  0
  180.7390  175.5610  139.5430 C   0  0  2  0  0  3  0  0  0  0  0  0
  181.7780  175.7200  137.4580 O   0  0  0  0  0  0  0  0  0  0  0  0
  1 10  2  0  0  0  0
  2  6  1  0  0  0  0
  3  8  1  0  0  0  0
  4  9  1  6  0  0  0
  4 17  1  0  0  0  0
  6  5  2  0  0  0  0
  7 13  1  0  0  0  0
  8  2  2  0  0  0  0
  8  1  1  0  0  0  0
  9 16  1  0  0  0  0
 10  5  1  0  0  0  0
 11  3  2  0  0  0  0
 11 18  1  0  0  0  0
 12  1  1  0  0  0  0
 13  2  1  0  0  0  0
 14 15  1  0  0  0  0
 14  4  1  0  0  0  0
 15 11  1  0  0  0  0
 16 26  1  0  0  0  0
 16  7  2  0  0  0  0
 17  7  1  1  0  0  0
 17  3  1  0  0  0  0
 18 12  2  0  0  0  0
 19 25  1  0  0  0  0
 19 23  1  0  0  0  0
 20 19  2  0  0  0  0
 21 23  2  0  0  0  0
 21 15  1  0  0  0  0
 22 20  1  0  0  0  0
 22 24  2  0  0  0  0
 24 21  1  0  0  0  0
 26 27  1  0  0  0  0
 29 33  1  0  0  0  0
 29 27  1  1  0  0  0
 30 28  1  1  0  0  0
 30 29  1  0  0  0  0
 30 33  1  0  0  0  0
 31 34  1  0  0  0  0
 31 32  1  0  0  0  0
 33 32  1  6  0  0  0
 34 30  1  0  0  0  0
M  END
>  <MODEL>
6

>  <REMARK>
 VINA RESULT:      -9.3      2.541      2.952
  Name = 
  4 active torsions:
  status: ('A' for Active; 'I' for Inactive)
    1  A    between atoms: C_3  and  C_13
    2  A    between atoms: C_3  and  N_17
    3  A    between atoms: C_12  and  N_28
    4  A    between atoms: N_17  and  C_29
                            x       y       z     vdW  Elec       q    Type
                         _______ _______ _______ _____ _____    ______ ____

>  <TORSDO>
F 4

$$$$
=
 OpenBabel11052414173D

 34 41  0  0  1  0  0  0  0  0999 V2000
  188.1430  177.5370  144.1740 C   0  0  0  0  0  0  0  0  0  0  0  0
  185.7880  178.2450  144.1020 C   0  0  0  0  0  0  0  0  0  0  0  0
  187.1990  178.3220  142.1100 C   0  0  0  0  0  0  0  0  0  0  0  0
  186.0980  178.2530  140.0200 C   0  0  1  0  0  3  0  0  0  0  0  0
  186.7980  177.5030  146.1880 C   0  0  0  0  0  3  0  0  0  0  0  0
  185.6870  177.9730  145.4720 C   0  0  0  0  0  3  0  0  0  0  0  0
  184.7960  178.7650  141.8500 C   0  0  2  0  0  3  0  0  0  0  0  0
  187.0410  178.0540  143.4660 C   0  0  0  0  0  0  0  0  0  0  0  0
  184.7180  178.6260  139.5040 C   0  0  0  0  0  2  0  0  0  0  0  0
  188.0190  177.2770  145.5410 C   0  0  0  0  0  3  0  0  0  0  0  0
  188.3640  177.9680  141.4240 C   0  0  0  0  0  0  0  0  0  0  0  0
  189.3340  177.2580  143.4810 C   0  0  0  0  0  3  0  0  0  0  0  0
  184.5420  178.6850  143.3370 C   0  0  0  0  0  2  0  0  0  0  0  0
  187.2590  178.6370  139.3210 O   0  0  0  0  0  0  0  0  0  0  0  0
  188.3050  177.9860  139.9540 N   0  0  0  0  0  0  0  0  0  0  0  0
  183.9610  178.6480  140.8130 C   0  0  0  0  0  0  0  0  0  0  0  0
  186.1420  178.9650  141.3300 C   0  0  1  0  0  3  0  0  0  0  0  0
  189.4120  177.4550  142.1290 N   0  0  0  0  0  0  0  0  0  0  0  0
  191.4070  176.4010  138.5200 C   0  0  0  0  0  0  0  0  0  0  0  0
  190.8520  175.5840  137.5340 C   0  0  0  0  0  3  0  0  0  0  0  0
  189.1850  177.1900  139.1330 C   0  0  0  0  0  0  0  0  0  0  0  0
  189.4690  175.5620  137.3430 C   0  0  0  0  0  3  0  0  0  0  0  0
  190.5790  177.1960  139.3160 C   0  0  0  0  0  3  0  0  0  0  0  0
  188.6420  176.3590  138.1400 C   0  0  0  0  0  3  0  0  0  0  0  0
  192.7480  176.4210  138.7090 F   0  0  0  0  0  0  0  0  0  0  0  0
  182.5440  178.4530  140.8910 N   0  0  0  0  0  0  0  0  0  0  0  0
  181.7180  178.0440  139.7670 C   0  0  0  0  0  2  0  0  0  0  0  0
  179.1090  177.3020  140.4660 F   0  0  0  0  0  0  0  0  0  0  0  0
  181.4570  176.5510  139.8440 C   0  0  1  0  0  3  0  0  0  0  0  0
  180.0190  176.2800  140.2500 C   0  0  2  0  0  0  0  0  0  0  0  0
  179.6550  174.2170  139.5610 C   0  0  0  0  0  2  0  0  0  0  0  0
  180.4600  174.7850  138.5590 O   0  0  0  0  0  0  0  0  0  0  0  0
  180.4030  176.1560  138.8110 C   0  0  2  0  0  3  0  0  0  0  0  0
  179.7080  175.0070  140.7210 O   0  0  0  0  0  0  0  0  0  0  0  0
  1 10  2  0  0  0  0
  2  6  1  0  0  0  0
  3  8  1  0  0  0  0
  4  9  1  6  0  0  0
  4 17  1  0  0  0  0
  6  5  2  0  0  0  0
  7 13  1  6  0  0  0
  8  2  2  0  0  0  0
  8  1  1  0  0  0  0
  9 16  1  0  0  0  0
 10  5  1  0  0  0  0
 11  3  2  0  0  0  0
 11 18  1  0  0  0  0
 12  1  1  0  0  0  0
 13  2  1  0  0  0  0
 14 15  1  0  0  0  0
 14  4  1  0  0  0  0
 15 11  1  0  0  0  0
 16 26  2  0  0  0  0
 16  7  1  0  0  0  0
 17  7  1  0  0  0  0
 17  3  1  1  0  0  0
 18 12  2  0  0  0  0
 19 25  1  0  0  0  0
 19 23  1  0  0  0  0
 20 19  2  0  0  0  0
 21 23  2  0  0  0  0
 21 15  1  0  0  0  0
 22 20  1  0  0  0  0
 22 24  2  0  0  0  0
 24 21  1  0  0  0  0
 27 26  1  0  0  0  0
 29 27  1  6  0  0  0
 29 30  1  0  0  0  0
 30 28  1  1  0  0  0
 30 34  1  0  0  0  0
 31 34  1  0  0  0  0
 32 31  1  0  0  0  0
 33 32  1  1  0  0  0
 33 29  1  0  0  0  0
 33 30  1  0  0  0  0
M  END
>  <MODEL>
7

>  <REMARK>
 VINA RESULT:      -9.3      2.235      2.494
  Name = 
  4 active torsions:
  status: ('A' for Active; 'I' for Inactive)
    1  A    between atoms: C_3  and  C_13
    2  A    between atoms: C_3  and  N_17
    3  A    between atoms: C_12  and  N_28
    4  A    between atoms: N_17  and  C_29
                            x       y       z     vdW  Elec       q    Type
                         _______ _______ _______ _____ _____    ______ ____

>  <TORSDO>
F 4

$$$$
=
 OpenBabel11052414173D

 34 41  0  0  1  0  0  0  0  0999 V2000
  189.0690  177.1260  146.7720 C   0  0  0  0  0  0  0  0  0  0  0  0
  190.9670  176.7960  145.2410 C   0  0  0  0  0  0  0  0  0  0  0  0
  188.6660  176.8350  144.4230 C   0  0  0  0  0  0  0  0  0  0  0  0
  188.3510  177.4040  142.1510 C   0  0  1  0  0  3  0  0  0  0  0  0
  191.3310  177.0320  147.6350 C   0  0  0  0  0  3  0  0  0  0  0  0
  191.8340  176.8540  146.3390 C   0  0  0  0  0  3  0  0  0  0  0  0
  190.4860  176.8010  142.7730 C   0  0  0  0  0  0  0  0  0  0  0  0
  189.5710  176.9000  145.4760 C   0  0  0  0  0  0  0  0  0  0  0  0
  189.1870  177.3280  140.8840 C   0  0  0  0  0  2  0  0  0  0  0  0
  189.9540  177.1770  147.8520 C   0  0  0  0  0  3  0  0  0  0  0  0
  187.3090  177.1200  144.6040 C   0  0  0  0  0  0  0  0  0  0  0  0
  187.6900  177.3350  146.9460 C   0  0  0  0  0  3  0  0  0  0  0  0
  191.5510  176.6750  143.8360 C   0  0  0  0  0  2  0  0  0  0  0  0
  187.0110  176.9710  142.1590 O   0  0  0  0  0  0  0  0  0  0  0  0
  186.5070  177.3490  143.3930 N   0  0  0  0  0  0  0  0  0  0  0  0
  190.5620  177.2060  141.5010 C   0  0  0  0  0  0  0  0  0  0  0  0
  189.0930  176.4900  143.0670 C   0  0  1  0  0  3  0  0  0  0  0  0
  186.8490  177.3510  145.8670 N   0  0  0  0  0  0  0  0  0  0  0  0
  183.2310  178.8890  142.3510 C   0  0  0  0  0  0  0  0  0  0  0  0
  182.9140  179.6280  143.4920 C   0  0  0  0  0  3  0  0  0  0  0  0
  185.2930  178.1280  143.4030 C   0  0  0  0  0  0  0  0  0  0  0  0
  183.7770  179.6220  144.5900 C   0  0  0  0  0  3  0  0  0  0  0  0
  184.4100  178.1410  142.3090 C   0  0  0  0  0  3  0  0  0  0  0  0
  184.9580  178.8740  144.5450 C   0  0  0  0  0  3  0  0  0  0  0  0
  182.3930  178.8910  141.2870 F   0  0  0  0  0  0  0  0  0  0  0  0
  191.7580  177.5940  140.8120 N   0  0  0  0  0  2  0  0  0  0  0  0
  191.9110  177.5540  139.3680 C   0  0  0  0  0  2  0  0  0  0  0  0
  189.9260  176.5560  137.6610 F   0  0  0  0  0  0  0  0  0  0  0  0
  192.0940  176.1170  138.9150 C   0  0  1  0  0  3  0  0  0  0  0  0
  190.9470  175.6900  138.0150 C   0  0  2  0  0  0  0  0  0  0  0  0
  191.7640  173.9730  136.8980 C   0  0  0  0  0  2  0  0  0  0  0  0
  192.8440  174.8650  137.0090 O   0  0  0  0  0  0  0  0  0  0  0  0
  192.2550  176.0680  137.3970 C   0  0  2  0  0  3  0  0  0  0  0  0
  190.7580  174.3250  137.8110 O   0  0  0  0  0  0  0  0  0  0  0  0
  1 12  1  0  0  0  0
  1 10  2  0  0  0  0
  2  8  2  0  0  0  0
  2  6  1  0  0  0  0
  3 11  2  0  0  0  0
  3  8  1  0  0  0  0
  4  9  1  6  0  0  0
  4 14  1  0  0  0  0
  4 17  1  0  0  0  0
  5 10  1  0  0  0  0
  6  5  2  0  0  0  0
  7 13  1  0  0  0  0
  8  1  1  0  0  0  0
  9 16  1  0  0  0  0
 11 18  1  0  0  0  0
 13  2  1  0  0  0  0
 14 15  1  0  0  0  0
 15 21  1  0  0  0  0
 15 11  1  0  0  0  0
 16  7  2  0  0  0  0
 17  7  1  1  0  0  0
 17  3  1  0  0  0  0
 18 12  2  0  0  0  0
 19 20  1  0  0  0  0
 20 22  2  0  0  0  0
 21 24  2  0  0  0  0
 23 19  2  0  0  0  0
 23 21  1  0  0  0  0
 24 22  1  0  0  0  0
 25 19  1  0  0  0  0
 26 16  1  0  0  0  0
 27 26  1  0  0  0  0
 29 27  1  6  0  0  0
 30 28  1  6  0  0  0
 30 29  1  0  0  0  0
 31 32  1  0  0  0  0
 31 34  1  0  0  0  0
 33 32  1  1  0  0  0
 33 30  1  0  0  0  0
 33 29  1  0  0  0  0
 34 30  1  0  0  0  0
M  END
>  <MODEL>
8

>  <REMARK>
 VINA RESULT:      -9.3      2.811      8.308
  Name = 
  4 active torsions:
  status: ('A' for Active; 'I' for Inactive)
    1  A    between atoms: C_3  and  C_13
    2  A    between atoms: C_3  and  N_17
    3  A    between atoms: C_12  and  N_28
    4  A    between atoms: N_17  and  C_29
                            x       y       z     vdW  Elec       q    Type
                         _______ _______ _______ _____ _____    ______ ____

>  <TORSDO>
F 4

$$$$
=
 OpenBabel11052414173D

 34 41  0  0  1  0  0  0  0  0999 V2000
  190.7410  177.0730  141.6940 C   0  0  0  0  0  0  0  0  0  0  0  0
  189.0330  177.7410  140.0540 C   0  0  0  0  0  0  0  0  0  0  0  0
  188.4390  177.2110  142.3630 C   0  0  0  0  0  0  0  0  0  0  0  0
  186.4340  178.1480  143.1910 C   0  0  1  0  0  3  0  0  0  0  0  0
  191.3670  177.5300  139.3990 C   0  0  0  0  0  3  0  0  0  0  0  0
  190.0340  177.8280  139.0790 C   0  0  0  0  0  3  0  0  0  0  0  0
  186.7010  178.1510  140.9030 C   0  0  0  0  0  0  0  0  0  0  0  0
  189.3970  177.3260  141.3610 C   0  0  0  0  0  0  0  0  0  0  0  0
  185.1300  178.6410  142.5840 C   0  0  0  0  0  2  0  0  0  0  0  0
  191.7220  177.1630  140.7030 C   0  0  0  0  0  3  0  0  0  0  0  0
  188.7960  176.9860  143.6960 C   0  0  0  0  0  0  0  0  0  0  0  0
  191.0730  176.7740  143.0270 C   0  0  0  0  0  3  0  0  0  0  0  0
  187.6040  178.1410  139.6930 C   0  0  0  0  0  2  0  0  0  0  0  0
  186.4320  177.3100  144.3230 O   0  0  0  0  0  0  0  0  0  0  0  0
  187.7580  177.2100  144.7130 N   0  0  0  0  0  0  0  0  0  0  0  0
  185.5820  178.8380  141.1540 C   0  0  0  0  0  0  0  0  0  0  0  0
  187.0110  177.3430  142.0750 C   0  0  1  0  0  3  0  0  0  0  0  0
  190.1070  176.7590  143.9960 N   0  0  0  0  0  0  0  0  0  0  0  0
  189.6460  177.6860  147.9370 C   0  0  0  0  0  0  0  0  0  0  0  0
  188.6400  178.1990  148.7570 C   0  0  0  0  0  3  0  0  0  0  0  0
  188.0710  177.5250  146.0850 C   0  0  0  0  0  0  0  0  0  0  0  0
  187.3510  178.3800  148.2500 C   0  0  0  0  0  3  0  0  0  0  0  0
  189.3640  177.3560  146.6090 C   0  0  0  0  0  3  0  0  0  0  0  0
  187.0710  178.0470  146.9220 C   0  0  0  0  0  3  0  0  0  0  0  0
  190.8980  177.5140  148.4250 F   0  0  0  0  0  0  0  0  0  0  0  0
  184.9300  179.7420  140.2530 N   0  0  0  0  0  2  0  0  0  0  0  0
  183.6750  179.4510  139.5810 C   0  0  0  0  0  2  0  0  0  0  0  0
  183.0850  176.7300  139.8880 F   0  0  0  0  0  0  0  0  0  0  0  0
  183.9380  178.5810  138.3660 C   0  0  1  0  0  3  0  0  0  0  0  0
  183.6000  177.1300  138.6650 C   0  0  2  0  0  0  0  0  0  0  0  0
  183.3030  176.2360  136.6720 C   0  0  0  0  0  2  0  0  0  0  0  0
  182.7570  177.5250  136.5620 O   0  0  0  0  0  0  0  0  0  0  0  0
  182.6300  177.9560  137.8830 C   0  0  2  0  0  3  0  0  0  0  0  0
  184.1150  176.1560  137.8140 O   0  0  0  0  0  0  0  0  0  0  0  0
  1 12  1  0  0  0  0
  2  8  1  0  0  0  0
  3 11  2  0  0  0  0
  4  9  1  6  0  0  0
  4 14  1  0  0  0  0
  5 10  2  0  0  0  0
  6  5  1  0  0  0  0
  6  2  2  0  0  0  0
  7 16  2  0  0  0  0
  8  1  2  0  0  0  0
  8  3  1  0  0  0  0
 10  1  1  0  0  0  0
 11 18  1  0  0  0  0
 11 15  1  0  0  0  0
 12 18  2  0  0  0  0
 13  2  1  0  0  0  0
 13  7  1  0  0  0  0
 14 15  1  0  0  0  0
 15 21  1  0  0  0  0
 16  9  1  0  0  0  0
 17  7  1  6  0  0  0
 17  3  1  0  0  0  0
 17  4  1  0  0  0  0
 19 25  1  0  0  0  0
 19 20  1  0  0  0  0
 21 23  1  0  0  0  0
 21 24  2  0  0  0  0
 22 20  2  0  0  0  0
 23 19  2  0  0  0  0
 24 22  1  0  0  0  0
 26 16  1  0  0  0  0
 27 26  1  0  0  0  0
 29 30  1  0  0  0  0
 29 27  1  1  0  0  0
 30 28  1  1  0  0  0
 31 34  1  0  0  0  0
 32 31  1  0  0  0  0
 33 32  1  6  0  0  0
 33 29  1  0  0  0  0
 33 30  1  0  0  0  0
 34 30  1  0  0  0  0
M  END
>  <MODEL>
9

>  <REMARK>
 VINA RESULT:      -9.1      3.398      6.089
  Name = 
  4 active torsions:
  status: ('A' for Active; 'I' for Inactive)
    1  A    between atoms: C_3  and  C_13
    2  A    between atoms: C_3  and  N_17
    3  A    between atoms: C_12  and  N_28
    4  A    between atoms: N_17  and  C_29
                            x       y       z     vdW  Elec       q    Type
                         _______ _______ _______ _____ _____    ______ ____

>  <TORSDO>
F 4

$$$$
