=
 OpenBabel11052416013D

 34 34  0  0  1  0  0  0  0  0999 V2000
  187.3520  178.6630  141.2050 C   0  0  0  0  0  0  0  0  0  0  0  0
  186.3830  178.7140  140.4040 O   0  0  0  0  0  0  0  0  0  0  0  0
  187.0890  178.7480  142.5790 O   0  0  0  0  0  0  0  0  0  0  0  0
  186.0090  178.0800  143.2200 C   0  0  2  0  0  3  0  0  0  0  0  0
  184.9950  179.1090  143.7010 C   0  0  0  0  0  2  0  0  0  0  0  0
  181.0550  178.9980  141.9080 C   0  0  2  0  0  3  0  0  0  0  0  0
  182.1310  178.2010  141.1770 C   0  0  0  0  0  2  0  0  0  0  0  0
  183.5160  178.6740  141.6150 C   0  0  0  0  0  2  0  0  0  0  0  0
  182.5630  178.9610  143.9070 C   0  0  0  0  0  3  0  0  0  0  0  0
  183.6420  178.8560  143.1120 C   0  0  0  0  0  0  0  0  0  0  0  0
  181.1590  178.7400  143.4100 C   0  0  0  0  0  2  0  0  0  0  0  0
  179.7550  178.6710  141.4240 O   0  0  0  0  0  0  0  0  0  0  0  0
  179.2980  176.4010  141.0020 C   0  0  0  0  0  2  0  0  0  0  0  0
  179.5350  177.6180  140.5370 C   0  0  0  0  0  3  0  0  0  0  0  0
  186.5260  177.2810  144.4100 C   0  0  0  0  0  2  0  0  0  0  0  0
  187.6500  177.5830  146.6080 C   0  0  0  0  0  1  0  0  0  0  0  0
  186.6020  178.1360  145.6630 C   0  0  0  0  0  2  0  0  0  0  0  0
  188.6450  178.5360  140.6780 O   0  0  0  0  0  0  0  0  0  0  0  0
  189.0280  177.5180  139.7600 C   0  0  1  0  0  3  0  0  0  0  0  0
  188.9650  179.4240  138.1170 O   0  0  0  0  0  1  0  0  0  0  0  0
  189.3240  178.1140  138.4150 C   0  0  0  0  0  0  0  0  0  0  0  0
  189.9350  177.4300  137.5520 O   0  0  0  0  0  0  0  0  0  0  0  0
  190.2200  176.7280  140.3030 C   0  0  0  0  0  2  0  0  0  0  0  0
  190.8320  177.3500  141.5660 C   0  0  1  0  0  3  0  0  0  0  0  0
  190.6120  176.4470  142.7870 C   0  0  2  0  0  3  0  0  0  0  0  0
  189.2200  175.8310  142.7630 C   0  0  0  0  0  1  0  0  0  0  0  0
  190.8280  177.1500  144.0570 N   0  0  0  0  0  0  0  0  0  0  0  0
  190.3580  178.4940  144.2350 C   0  0  0  0  0  3  0  0  0  0  0  0
  191.1750  179.5410  144.2110 C   0  0  0  0  0  2  0  0  0  0  0  0
  191.7540  176.6100  145.0490 C   0  0  0  0  0  2  0  0  0  0  0  0
  191.7360  176.0580  147.4510 C   0  0  0  0  0  2  0  0  0  0  0  0
  191.1850  176.7090  146.4300 C   0  0  0  0  0  3  0  0  0  0  0  0
  192.1940  177.6170  141.3730 O   0  0  0  0  0  0  0  0  0  0  0  0
  192.4500  177.2630  140.0460 C   0  0  0  0  0  1  0  0  0  0  0  0
  1  3  1  0  0  0  0
  2  1  2  0  0  0  0
  3  4  1  0  0  0  0
  4  5  1  1  0  0  0
  4 15  1  0  0  0  0
  6 12  1  6  0  0  0
  6 11  1  0  0  0  0
  7  8  1  0  0  0  0
  7  6  1  0  0  0  0
  8 10  1  0  0  0  0
 10  5  1  0  0  0  0
 10  9  2  0  0  0  0
 11  9  1  0  0  0  0
 14 13  2  0  0  0  0
 14 12  1  0  0  0  0
 15 17  1  0  0  0  0
 17 16  1  0  0  0  0
 18  1  1  0  0  0  0
 19 23  1  1  0  0  0
 19 18  1  0  0  0  0
 20 21  1  0  0  0  0
 21 19  1  0  0  0  0
 22 21  2  0  0  0  0
 24 23  1  6  0  0  0
 24 25  1  0  0  0  0
 25 26  1  1  0  0  0
 25 27  1  0  0  0  0
 27 28  1  0  0  0  0
 27 30  1  0  0  0  0
 29 28  2  0  0  0  0
 30 32  1  0  0  0  0
 32 31  2  0  0  0  0
 33 24  1  0  0  0  0
 34 33  1  0  0  0  0
M  END
>  <MODEL>
1

>  <REMARK>
 VINA RESULT:      -6.7      0.000      0.000
  Name = 
  19 active torsions:
  status: ('A' for Active; 'I' for Inactive)
    1  A    between atoms: C_1  and  O_8
    2  A    between atoms: C_1  and  O_34
    3  A    between atoms: C_2  and  N_25
    4  A    between atoms: C_2  and  C_32
    5  A    between atoms: C_3  and  C_24
    6  A    between atoms: C_3  and  N_25
    7  A    between atoms: C_5  and  C_20
    8  A    between atoms: C_5  and  C_32
    9  A    between atoms: C_6  and  C_18
   10  A    between atoms: C_6  and  C_28
   11  A    between atoms: C_7  and  O_11
   12  A    between atoms: O_8  and  C_18
   13  A    between atoms: O_11  and  C_21
   14  A    between atoms: C_12  and  C_20
   15  A    between atoms: C_18  and  C_30
   16  A    between atoms: O_19  and  C_32
   17  A    between atoms: C_20  and  O_34
   18  A    between atoms: N_25  and  C_27
   19  A    between atoms: C_30  and  C_31
                            x       y       z     vdW  Elec       q    Type
                         _______ _______ _______ _____ _____    ______ ____

>  <TORSDO>
F 19

$$$$
=
 OpenBabel11052416013D

 34 34  0  0  1  0  0  0  0  0999 V2000
  185.4420  177.7840  138.0220 C   0  0  0  0  0  0  0  0  0  0  0  0
  185.4280  176.6540  137.4700 O   0  0  0  0  0  0  0  0  0  0  0  0
  184.2480  178.5160  138.0770 O   0  0  0  0  0  0  0  0  0  0  0  0
  183.7940  179.2020  139.2370 C   0  0  2  0  0  3  0  0  0  0  0  0
  183.1570  178.2040  140.1940 C   0  0  0  0  0  2  0  0  0  0  0  0
  183.9980  178.5250  144.4290 C   0  0  2  0  0  3  0  0  0  0  0  0
  185.1690  178.8350  143.5020 C   0  0  0  0  0  2  0  0  0  0  0  0
  184.9000  178.2590  142.1130 C   0  0  0  0  0  2  0  0  0  0  0  0
  182.5030  178.8780  142.4520 C   0  0  0  0  0  3  0  0  0  0  0  0
  183.4950  178.5230  141.6170 C   0  0  0  0  0  0  0  0  0  0  0  0
  182.7350  179.2050  143.9030 C   0  0  0  0  0  2  0  0  0  0  0  0
  184.2770  178.9340  145.7660 O   0  0  0  0  0  0  0  0  0  0  0  0
  186.1190  178.3890  147.1260 C   0  0  0  0  0  2  0  0  0  0  0  0
  185.5760  179.1770  146.2130 C   0  0  0  0  0  3  0  0  0  0  0  0
  182.7680  180.2590  138.8460 C   0  0  0  0  0  2  0  0  0  0  0  0
  180.6570  180.7450  137.6230 C   0  0  0  0  0  1  0  0  0  0  0  0
  181.6580  179.6690  137.9950 C   0  0  0  0  0  2  0  0  0  0  0  0
  186.6560  178.2560  138.5420 O   0  0  0  0  0  0  0  0  0  0  0  0
  187.9160  178.0620  137.9090 C   0  0  1  0  0  3  0  0  0  0  0  0
  188.3550  177.9320  135.4340 O   0  0  0  0  0  0  0  0  0  0  0  0
  187.9030  178.6570  136.5310 C   0  0  0  0  0  0  0  0  0  0  0  0
  187.4470  179.8170  136.3580 O   0  0  0  0  0  1  0  0  0  0  0  0
  189.0410  178.6430  138.7650 C   0  0  0  0  0  2  0  0  0  0  0  0
  189.7470  177.5900  139.6310 C   0  0  1  0  0  3  0  0  0  0  0  0
  189.0380  177.4230  140.9830 C   0  0  2  0  0  3  0  0  0  0  0  0
  188.4290  178.7400  141.4420 C   0  0  0  0  0  1  0  0  0  0  0  0
  189.9230  176.8880  142.0230 N   0  0  0  0  0  0  0  0  0  0  0  0
  189.3970  176.0660  143.0750 C   0  0  0  0  0  3  0  0  0  0  0  0
  188.1420  176.1670  143.4950 C   0  0  0  0  0  2  0  0  0  0  0  0
  191.2840  177.4000  142.1680 C   0  0  0  0  0  2  0  0  0  0  0  0
  191.5370  178.9690  144.0520 C   0  0  0  0  0  2  0  0  0  0  0  0
  191.5910  177.7200  143.5980 C   0  0  0  0  0  3  0  0  0  0  0  0
  189.8310  176.3680  138.9500 O   0  0  0  0  0  0  0  0  0  0  0  0
  191.1380  176.3160  138.4600 C   0  0  0  0  0  1  0  0  0  0  0  0
  1  3  1  0  0  0  0
  1 18  1  0  0  0  0
  2  1  2  0  0  0  0
  3  4  1  0  0  0  0
  4 15  1  6  0  0  0
  4  5  1  0  0  0  0
  5 10  1  0  0  0  0
  6 12  1  1  0  0  0
  7  6  1  0  0  0  0
  8  7  1  0  0  0  0
  9 11  1  0  0  0  0
 10  8  1  0  0  0  0
 10  9  2  0  0  0  0
 11  6  1  0  0  0  0
 12 14  1  0  0  0  0
 14 13  2  0  0  0  0
 16 17  1  0  0  0  0
 17 15  1  0  0  0  0
 19 18  1  0  0  0  0
 19 23  1  1  0  0  0
 20 21  2  0  0  0  0
 21 19  1  0  0  0  0
 22 21  1  0  0  0  0
 24 23  1  6  0  0  0
 24 25  1  0  0  0  0
 25 26  1  1  0  0  0
 25 27  1  0  0  0  0
 27 30  1  0  0  0  0
 27 28  1  0  0  0  0
 28 29  2  0  0  0  0
 30 32  1  0  0  0  0
 32 31  2  0  0  0  0
 33 24  1  0  0  0  0
 34 33  1  0  0  0  0
M  END
>  <MODEL>
2

>  <REMARK>
 VINA RESULT:      -6.3      2.324      4.778
  Name = 
  19 active torsions:
  status: ('A' for Active; 'I' for Inactive)
    1  A    between atoms: C_1  and  O_8
    2  A    between atoms: C_1  and  O_34
    3  A    between atoms: C_2  and  N_25
    4  A    between atoms: C_2  and  C_32
    5  A    between atoms: C_3  and  C_24
    6  A    between atoms: C_3  and  N_25
    7  A    between atoms: C_5  and  C_20
    8  A    between atoms: C_5  and  C_32
    9  A    between atoms: C_6  and  C_18
   10  A    between atoms: C_6  and  C_28
   11  A    between atoms: C_7  and  O_11
   12  A    between atoms: O_8  and  C_18
   13  A    between atoms: O_11  and  C_21
   14  A    between atoms: C_12  and  C_20
   15  A    between atoms: C_18  and  C_30
   16  A    between atoms: O_19  and  C_32
   17  A    between atoms: C_20  and  O_34
   18  A    between atoms: N_25  and  C_27
   19  A    between atoms: C_30  and  C_31
                            x       y       z     vdW  Elec       q    Type
                         _______ _______ _______ _____ _____    ______ ____

>  <TORSDO>
F 19

$$$$
=
 OpenBabel11052416013D

 34 34  0  0  1  0  0  0  0  0999 V2000
  187.7090  178.3400  139.9540 C   0  0  0  0  0  0  0  0  0  0  0  0
  186.8180  178.5520  139.0920 O   0  0  0  0  0  0  0  0  0  0  0  0
  187.7170  179.1260  141.1140 O   0  0  0  0  0  0  0  0  0  0  0  0
  186.8220  178.9380  142.2030 C   0  0  2  0  0  3  0  0  0  0  0  0
  187.0220  177.5460  142.7850 C   0  0  0  0  0  2  0  0  0  0  0  0
  189.4320  177.0600  146.3490 C   0  0  2  0  0  3  0  0  0  0  0  0
  190.0280  177.9610  145.2720 C   0  0  0  0  0  2  0  0  0  0  0  0
  189.3440  177.6940  143.9330 C   0  0  0  0  0  2  0  0  0  0  0  0
  187.2230  177.3800  145.2160 C   0  0  0  0  0  3  0  0  0  0  0  0
  187.8370  177.5930  144.0400 C   0  0  0  0  0  0  0  0  0  0  0  0
  187.9520  177.3920  146.5320 C   0  0  0  0  0  2  0  0  0  0  0  0
  190.1400  177.1910  147.5800 O   0  0  0  0  0  0  0  0  0  0  0  0
  191.9020  175.6460  147.3570 C   0  0  0  0  0  2  0  0  0  0  0  0
  191.4890  176.8560  147.7010 C   0  0  0  0  0  3  0  0  0  0  0  0
  185.3830  179.0860  141.7220 C   0  0  0  0  0  2  0  0  0  0  0  0
  184.0050  179.1960  143.7900 C   0  0  0  0  0  1  0  0  0  0  0  0
  184.4170  178.3290  142.6170 C   0  0  0  0  0  2  0  0  0  0  0  0
  188.6550  177.3360  139.7010 O   0  0  0  0  0  0  0  0  0  0  0  0
  190.0410  177.5880  139.4990 C   0  0  1  0  0  3  0  0  0  0  0  0
  191.8980  177.8620  141.1760 O   0  0  0  0  0  0  0  0  0  0  0  0
  190.8340  177.1140  140.6820 C   0  0  0  0  0  0  0  0  0  0  0  0
  190.5140  176.0420  141.2570 O   0  0  0  0  0  1  0  0  0  0  0  0
  190.5200  176.9380  138.2000 C   0  0  0  0  0  2  0  0  0  0  0  0
  189.6260  175.7770  137.7400 C   0  0  1  0  0  3  0  0  0  0  0  0
  189.0990  176.0170  136.3200 C   0  0  2  0  0  3  0  0  0  0  0  0
  189.5410  177.3760  135.7980 C   0  0  0  0  0  1  0  0  0  0  0  0
  187.6400  175.8940  136.2300 N   0  0  0  0  0  0  0  0  0  0  0  0
  186.8470  176.9760  135.7200 C   0  0  0  0  0  3  0  0  0  0  0  0
  185.7900  176.7770  134.9420 C   0  0  0  0  0  2  0  0  0  0  0  0
  186.9490  174.7970  136.9050 C   0  0  0  0  0  2  0  0  0  0  0  0
  187.0260  173.2460  134.9920 C   0  0  0  0  0  2  0  0  0  0  0  0
  187.2810  173.4810  136.2770 C   0  0  0  0  0  3  0  0  0  0  0  0
  190.3170  174.5610  137.8250 O   0  0  0  0  0  0  0  0  0  0  0  0
  191.6460  174.8760  137.5290 C   0  0  0  0  0  1  0  0  0  0  0  0
  1  3  1  0  0  0  0
  2  1  2  0  0  0  0
  3  4  1  0  0  0  0
  4 15  1  6  0  0  0
  4  5  1  0  0  0  0
  5 10  1  0  0  0  0
  6 11  1  0  0  0  0
  6 12  1  1  0  0  0
  7  6  1  0  0  0  0
  8 10  1  0  0  0  0
  8  7  1  0  0  0  0
  9 11  1  0  0  0  0
 10  9  2  0  0  0  0
 12 14  1  0  0  0  0
 13 14  2  0  0  0  0
 15 17  1  0  0  0  0
 17 16  1  0  0  0  0
 18  1  1  0  0  0  0
 19 23  1  6  0  0  0
 19 18  1  0  0  0  0
 19 21  1  0  0  0  0
 21 20  2  0  0  0  0
 21 22  1  0  0  0  0
 24 33  1  0  0  0  0
 24 23  1  6  0  0  0
 25 26  1  1  0  0  0
 25 24  1  0  0  0  0
 27 25  1  0  0  0  0
 27 30  1  0  0  0  0
 28 27  1  0  0  0  0
 29 28  2  0  0  0  0
 31 32  2  0  0  0  0
 32 30  1  0  0  0  0
 34 33  1  0  0  0  0
M  END
>  <MODEL>
3

>  <REMARK>
 VINA RESULT:      -6.2      3.071      7.316
  Name = 
  19 active torsions:
  status: ('A' for Active; 'I' for Inactive)
    1  A    between atoms: C_1  and  O_8
    2  A    between atoms: C_1  and  O_34
    3  A    between atoms: C_2  and  N_25
    4  A    between atoms: C_2  and  C_32
    5  A    between atoms: C_3  and  C_24
    6  A    between atoms: C_3  and  N_25
    7  A    between atoms: C_5  and  C_20
    8  A    between atoms: C_5  and  C_32
    9  A    between atoms: C_6  and  C_18
   10  A    between atoms: C_6  and  C_28
   11  A    between atoms: C_7  and  O_11
   12  A    between atoms: O_8  and  C_18
   13  A    between atoms: O_11  and  C_21
   14  A    between atoms: C_12  and  C_20
   15  A    between atoms: C_18  and  C_30
   16  A    between atoms: O_19  and  C_32
   17  A    between atoms: C_20  and  O_34
   18  A    between atoms: N_25  and  C_27
   19  A    between atoms: C_30  and  C_31
                            x       y       z     vdW  Elec       q    Type
                         _______ _______ _______ _____ _____    ______ ____

>  <TORSDO>
F 19

$$$$
=
 OpenBabel11052416013D

 34 34  0  0  1  0  0  0  0  0999 V2000
  185.2800  178.6970  142.4880 C   0  0  0  0  0  0  0  0  0  0  0  0
  186.3340  178.8900  141.8290 O   0  0  0  0  0  0  0  0  0  0  0  0
  184.0780  179.2260  141.9970 O   0  0  0  0  0  0  0  0  0  0  0  0
  182.8380  178.5290  142.0240 C   0  0  2  0  0  3  0  0  0  0  0  0
  182.0200  178.9110  140.7980 C   0  0  0  0  0  2  0  0  0  0  0  0
  180.9830  175.1530  138.9150 C   0  0  2  0  0  3  0  0  0  0  0  0
  180.1250  176.3480  138.5110 C   0  0  0  0  0  2  0  0  0  0  0  0
  180.2710  177.4660  139.5420 C   0  0  0  0  0  2  0  0  0  0  0  0
  182.6730  176.8060  139.7410 C   0  0  0  0  0  3  0  0  0  0  0  0
  181.7050  177.7120  139.9590 C   0  0  0  0  0  0  0  0  0  0  0  0
  182.4550  175.5600  138.9240 C   0  0  0  0  0  2  0  0  0  0  0  0
  180.7650  174.0460  138.0430 O   0  0  0  0  0  0  0  0  0  0  0  0
  180.8550  173.3330  135.8020 C   0  0  0  0  0  2  0  0  0  0  0  0
  180.4370  174.2120  136.6980 C   0  0  0  0  0  3  0  0  0  0  0  0
  182.0660  178.8940  143.2850 C   0  0  0  0  0  2  0  0  0  0  0  0
  179.6120  178.8130  143.6880 C   0  0  0  0  0  1  0  0  0  0  0  0
  180.7270  179.5310  142.9540 C   0  0  0  0  0  2  0  0  0  0  0  0
  185.3660  177.9720  143.6860 O   0  0  0  0  0  0  0  0  0  0  0  0
  186.2060  178.3420  144.7740 C   0  0  1  0  0  3  0  0  0  0  0  0
  184.1040  179.1390  145.9070 O   0  0  0  0  0  0  0  0  0  0  0  0
  185.3830  178.6000  146.0020 C   0  0  0  0  0  0  0  0  0  0  0  0
  185.8410  178.2950  147.1340 O   0  0  0  0  0  1  0  0  0  0  0  0
  187.2680  177.2700  145.0210 C   0  0  0  0  0  2  0  0  0  0  0  0
  188.5920  177.5540  144.2970 C   0  0  1  0  0  3  0  0  0  0  0  0
  189.6040  178.2180  145.2400 C   0  0  2  0  0  3  0  0  0  0  0  0
  190.7730  178.8010  144.4590 C   0  0  0  0  0  1  0  0  0  0  0  0
  190.0970  177.3040  146.2760 N   0  0  0  0  0  0  0  0  0  0  0  0
  189.3680  177.1290  147.5000 C   0  0  0  0  0  3  0  0  0  0  0  0
  189.1160  178.1370  148.3270 C   0  0  0  0  0  2  0  0  0  0  0  0
  191.4570  176.7750  146.2070 C   0  0  0  0  0  2  0  0  0  0  0  0
  192.7540  175.7680  148.0440 C   0  0  0  0  0  2  0  0  0  0  0  0
  191.6850  175.7300  147.2530 C   0  0  0  0  0  3  0  0  0  0  0  0
  189.1130  176.3760  143.7440 O   0  0  0  0  0  0  0  0  0  0  0  0
  189.0290  176.5560  142.3610 C   0  0  0  0  0  1  0  0  0  0  0  0
  1 18  1  0  0  0  0
  2  1  2  0  0  0  0
  3  4  1  0  0  0  0
  3  1  1  0  0  0  0
  4  5  1  6  0  0  0
  4 15  1  0  0  0  0
  6 12  1  6  0  0  0
  6 11  1  0  0  0  0
  7  6  1  0  0  0  0
  7  8  1  0  0  0  0
  8 10  1  0  0  0  0
  9 10  2  0  0  0  0
 10  5  1  0  0  0  0
 11  9  1  0  0  0  0
 13 14  2  0  0  0  0
 14 12  1  0  0  0  0
 17 15  1  0  0  0  0
 17 16  1  0  0  0  0
 18 19  1  0  0  0  0
 19 23  1  1  0  0  0
 19 21  1  0  0  0  0
 20 21  2  0  0  0  0
 21 22  1  0  0  0  0
 24 23  1  1  0  0  0
 24 25  1  0  0  0  0
 25 26  1  6  0  0  0
 25 27  1  0  0  0  0
 27 28  1  0  0  0  0
 28 29  2  0  0  0  0
 30 27  1  0  0  0  0
 30 32  1  0  0  0  0
 32 31  2  0  0  0  0
 33 24  1  0  0  0  0
 34 33  1  0  0  0  0
M  END
>  <MODEL>
4

>  <REMARK>
 VINA RESULT:      -6.2      2.622      5.095
  Name = 
  19 active torsions:
  status: ('A' for Active; 'I' for Inactive)
    1  A    between atoms: C_1  and  O_8
    2  A    between atoms: C_1  and  O_34
    3  A    between atoms: C_2  and  N_25
    4  A    between atoms: C_2  and  C_32
    5  A    between atoms: C_3  and  C_24
    6  A    between atoms: C_3  and  N_25
    7  A    between atoms: C_5  and  C_20
    8  A    between atoms: C_5  and  C_32
    9  A    between atoms: C_6  and  C_18
   10  A    between atoms: C_6  and  C_28
   11  A    between atoms: C_7  and  O_11
   12  A    between atoms: O_8  and  C_18
   13  A    between atoms: O_11  and  C_21
   14  A    between atoms: C_12  and  C_20
   15  A    between atoms: C_18  and  C_30
   16  A    between atoms: O_19  and  C_32
   17  A    between atoms: C_20  and  O_34
   18  A    between atoms: N_25  and  C_27
   19  A    between atoms: C_30  and  C_31
                            x       y       z     vdW  Elec       q    Type
                         _______ _______ _______ _____ _____    ______ ____

>  <TORSDO>
F 19

$$$$
=
 OpenBabel11052416013D

 34 34  0  0  1  0  0  0  0  0999 V2000
  185.2820  179.1450  139.7640 C   0  0  0  0  0  0  0  0  0  0  0  0
  184.3200  179.8730  139.4090 O   0  0  0  0  0  0  0  0  0  0  0  0
  185.9570  179.4600  140.9510 O   0  0  0  0  0  0  0  0  0  0  0  0
  185.7930  178.7440  142.1690 C   0  0  2  0  0  3  0  0  0  0  0  0
  186.7850  177.5900  142.2120 C   0  0  0  0  0  2  0  0  0  0  0  0
  189.4900  177.2640  145.5770 C   0  0  2  0  0  3  0  0  0  0  0  0
  189.9220  178.2310  144.4790 C   0  0  0  0  0  2  0  0  0  0  0  0
  189.1640  177.9250  143.1880 C   0  0  0  0  0  2  0  0  0  0  0  0
  187.1810  177.4050  144.6170 C   0  0  0  0  0  3  0  0  0  0  0  0
  187.6840  177.6900  143.4040 C   0  0  0  0  0  0  0  0  0  0  0  0
  188.0040  177.4610  145.8760 C   0  0  0  0  0  2  0  0  0  0  0  0
  190.2740  177.4380  146.7550 O   0  0  0  0  0  0  0  0  0  0  0  0
  192.0840  175.9390  146.8890 C   0  0  0  0  0  2  0  0  0  0  0  0
  190.9320  176.3750  147.3730 C   0  0  0  0  0  3  0  0  0  0  0  0
  184.3730  178.1990  142.2620 C   0  0  0  0  0  2  0  0  0  0  0  0
  184.4940  179.7670  144.1890 C   0  0  0  0  0  1  0  0  0  0  0  0
  183.6700  178.6870  143.5170 C   0  0  0  0  0  2  0  0  0  0  0  0
  185.6350  178.0620  138.9460 O   0  0  0  0  0  0  0  0  0  0  0  0
  186.5700  178.1520  137.8760 C   0  0  1  0  0  3  0  0  0  0  0  0
  188.4510  177.1210  139.1920 O   0  0  0  0  0  1  0  0  0  0  0  0
  187.9730  178.1650  138.4090 C   0  0  0  0  0  0  0  0  0  0  0  0
  188.7400  179.1190  138.1180 O   0  0  0  0  0  0  0  0  0  0  0  0
  186.3550  177.0120  136.8800 C   0  0  0  0  0  2  0  0  0  0  0  0
  185.2440  176.0400  137.3040 C   0  0  1  0  0  3  0  0  0  0  0  0
  184.0160  176.1760  136.3940 C   0  0  2  0  0  3  0  0  0  0  0  0
  184.3380  177.0210  135.1700 C   0  0  0  0  0  1  0  0  0  0  0  0
  182.8510  176.7270  137.0940 N   0  0  0  0  0  0  0  0  0  0  0  0
  182.4770  178.1010  136.9180 C   0  0  0  0  0  3  0  0  0  0  0  0
  181.2460  178.4640  136.5790 C   0  0  0  0  0  2  0  0  0  0  0  0
  182.2240  175.9800  138.1820 C   0  0  0  0  0  2  0  0  0  0  0  0
  181.4270  177.1160  140.2190 C   0  0  0  0  0  2  0  0  0  0  0  0
  182.4470  176.6550  139.4990 C   0  0  0  0  0  3  0  0  0  0  0  0
  185.7210  174.7220  137.3170 O   0  0  0  0  0  0  0  0  0  0  0  0
  187.0600  174.8160  136.9290 C   0  0  0  0  0  1  0  0  0  0  0  0
  1  3  1  0  0  0  0
  2  1  2  0  0  0  0
  3  4  1  0  0  0  0
  4  5  1  6  0  0  0
  4 15  1  0  0  0  0
  5 10  1  0  0  0  0
  6 11  1  0  0  0  0
  6 12  1  1  0  0  0
  7  6  1  0  0  0  0
  8 10  1  0  0  0  0
  8  7  1  0  0  0  0
  9 11  1  0  0  0  0
 10  9  2  0  0  0  0
 12 14  1  0  0  0  0
 13 14  2  0  0  0  0
 15 17  1  0  0  0  0
 17 16  1  0  0  0  0
 18  1  1  0  0  0  0
 19 23  1  6  0  0  0
 19 21  1  0  0  0  0
 19 18  1  0  0  0  0
 21 20  1  0  0  0  0
 22 21  2  0  0  0  0
 24 23  1  6  0  0  0
 24 33  1  0  0  0  0
 25 26  1  6  0  0  0
 25 27  1  0  0  0  0
 25 24  1  0  0  0  0
 27 30  1  0  0  0  0
 28 27  1  0  0  0  0
 29 28  2  0  0  0  0
 30 32  1  0  0  0  0
 32 31  2  0  0  0  0
 34 33  1  0  0  0  0
M  END
>  <MODEL>
5

>  <REMARK>
 VINA RESULT:      -6.1      3.410      7.821
  Name = 
  19 active torsions:
  status: ('A' for Active; 'I' for Inactive)
    1  A    between atoms: C_1  and  O_8
    2  A    between atoms: C_1  and  O_34
    3  A    between atoms: C_2  and  N_25
    4  A    between atoms: C_2  and  C_32
    5  A    between atoms: C_3  and  C_24
    6  A    between atoms: C_3  and  N_25
    7  A    between atoms: C_5  and  C_20
    8  A    between atoms: C_5  and  C_32
    9  A    between atoms: C_6  and  C_18
   10  A    between atoms: C_6  and  C_28
   11  A    between atoms: C_7  and  O_11
   12  A    between atoms: O_8  and  C_18
   13  A    between atoms: O_11  and  C_21
   14  A    between atoms: C_12  and  C_20
   15  A    between atoms: C_18  and  C_30
   16  A    between atoms: O_19  and  C_32
   17  A    between atoms: C_20  and  O_34
   18  A    between atoms: N_25  and  C_27
   19  A    between atoms: C_30  and  C_31
                            x       y       z     vdW  Elec       q    Type
                         _______ _______ _______ _____ _____    ______ ____

>  <TORSDO>
F 19

$$$$
=
 OpenBabel11052416013D

 34 34  0  0  1  0  0  0  0  0999 V2000
  188.2970  178.2190  138.5960 C   0  0  0  0  0  0  0  0  0  0  0  0
  187.9400  178.9410  137.6290 O   0  0  0  0  0  0  0  0  0  0  0  0
  188.6350  178.8400  139.8060 O   0  0  0  0  0  0  0  0  0  0  0  0
  187.9390  178.6230  141.0270 C   0  0  2  0  0  3  0  0  0  0  0  0
  188.4100  177.3150  141.6490 C   0  0  0  0  0  2  0  0  0  0  0  0
  189.4750  177.2020  145.8440 C   0  0  2  0  0  3  0  0  0  0  0  0
  190.3170  178.1340  144.9780 C   0  0  0  0  0  2  0  0  0  0  0  0
  190.1660  177.7550  143.5060 C   0  0  0  0  0  2  0  0  0  0  0  0
  187.7730  177.2400  144.0080 C   0  0  0  0  0  3  0  0  0  0  0  0
  188.7320  177.4880  143.1000 C   0  0  0  0  0  0  0  0  0  0  0  0
  187.9990  177.3700  145.4900 C   0  0  0  0  0  2  0  0  0  0  0  0
  189.6990  177.4460  147.2310 O   0  0  0  0  0  0  0  0  0  0  0  0
  188.0930  177.8370  148.9060 C   0  0  0  0  0  2  0  0  0  0  0  0
  188.8980  178.3150  147.9710 C   0  0  0  0  0  3  0  0  0  0  0  0
  186.4400  178.5500  140.7640 C   0  0  0  0  0  2  0  0  0  0  0  0
  184.5870  178.3410  142.4100 C   0  0  0  0  0  1  0  0  0  0  0  0
  185.6490  179.2630  141.8470 C   0  0  0  0  0  2  0  0  0  0  0  0
  188.3490  176.8300  138.4050 O   0  0  0  0  0  0  0  0  0  0  0  0
  189.0580  176.2040  137.3410 C   0  0  1  0  0  3  0  0  0  0  0  0
  190.9920  175.7380  138.8840 O   0  0  0  0  0  1  0  0  0  0  0  0
  190.1260  175.3020  137.8870 C   0  0  0  0  0  0  0  0  0  0  0  0
  190.2200  174.1210  137.4620 O   0  0  0  0  0  0  0  0  0  0  0  0
  188.0940  175.4500  136.4260 C   0  0  0  0  0  2  0  0  0  0  0  0
  186.7840  175.0550  137.1220 C   0  0  1  0  0  3  0  0  0  0  0  0
  185.5730  175.6720  136.4100 C   0  0  2  0  0  3  0  0  0  0  0  0
  186.0090  176.7670  135.4470 C   0  0  0  0  0  1  0  0  0  0  0  0
  184.5720  176.1950  137.3470 N   0  0  0  0  0  0  0  0  0  0  0  0
  183.5420  175.3410  137.8650 C   0  0  0  0  0  3  0  0  0  0  0  0
  182.8900  174.4720  137.1010 C   0  0  0  0  0  2  0  0  0  0  0  0
  184.4360  177.6360  137.5510 C   0  0  0  0  0  2  0  0  0  0  0  0
  183.0220  179.1310  138.9060 C   0  0  0  0  0  2  0  0  0  0  0  0
  183.5790  177.9340  138.7410 C   0  0  0  0  0  3  0  0  0  0  0  0
  186.6680  173.6600  137.1990 O   0  0  0  0  0  0  0  0  0  0  0  0
  186.9820  173.1980  135.9180 C   0  0  0  0  0  1  0  0  0  0  0  0
  1  3  1  0  0  0  0
  2  1  2  0  0  0  0
  3  4  1  0  0  0  0
  4 15  1  6  0  0  0
  4  5  1  0  0  0  0
  5 10  1  0  0  0  0
  6 12  1  1  0  0  0
  7  6  1  0  0  0  0
  8  7  1  0  0  0  0
  9 11  1  0  0  0  0
 10  8  1  0  0  0  0
 10  9  2  0  0  0  0
 11  6  1  0  0  0  0
 12 14  1  0  0  0  0
 14 13  2  0  0  0  0
 15 17  1  0  0  0  0
 17 16  1  0  0  0  0
 18  1  1  0  0  0  0
 19 23  1  1  0  0  0
 19 21  1  0  0  0  0
 19 18  1  0  0  0  0
 21 20  1  0  0  0  0
 22 21  2  0  0  0  0
 24 23  1  6  0  0  0
 24 33  1  0  0  0  0
 25 26  1  6  0  0  0
 25 24  1  0  0  0  0
 25 27  1  0  0  0  0
 27 30  1  0  0  0  0
 27 28  1  0  0  0  0
 29 28  2  0  0  0  0
 30 32  1  0  0  0  0
 32 31  2  0  0  0  0
 34 33  1  0  0  0  0
M  END
>  <MODEL>
6

>  <REMARK>
 VINA RESULT:      -6.1      3.450      7.583
  Name = 
  19 active torsions:
  status: ('A' for Active; 'I' for Inactive)
    1  A    between atoms: C_1  and  O_8
    2  A    between atoms: C_1  and  O_34
    3  A    between atoms: C_2  and  N_25
    4  A    between atoms: C_2  and  C_32
    5  A    between atoms: C_3  and  C_24
    6  A    between atoms: C_3  and  N_25
    7  A    between atoms: C_5  and  C_20
    8  A    between atoms: C_5  and  C_32
    9  A    between atoms: C_6  and  C_18
   10  A    between atoms: C_6  and  C_28
   11  A    between atoms: C_7  and  O_11
   12  A    between atoms: O_8  and  C_18
   13  A    between atoms: O_11  and  C_21
   14  A    between atoms: C_12  and  C_20
   15  A    between atoms: C_18  and  C_30
   16  A    between atoms: O_19  and  C_32
   17  A    between atoms: C_20  and  O_34
   18  A    between atoms: N_25  and  C_27
   19  A    between atoms: C_30  and  C_31
                            x       y       z     vdW  Elec       q    Type
                         _______ _______ _______ _____ _____    ______ ____

>  <TORSDO>
F 19

$$$$
=
 OpenBabel11052416013D

 34 34  0  0  1  0  0  0  0  0999 V2000
  188.0640  178.4940  141.1390 C   0  0  0  0  0  0  0  0  0  0  0  0
  189.0370  179.2110  141.4900 O   0  0  0  0  0  0  0  0  0  0  0  0
  186.8160  178.7230  141.7350 O   0  0  0  0  0  0  0  0  0  0  0  0
  186.4760  178.2910  143.0470 C   0  0  2  0  0  3  0  0  0  0  0  0
  186.9790  176.8700  143.2560 C   0  0  0  0  0  2  0  0  0  0  0  0
  190.3620  177.3310  145.9190 C   0  0  2  0  0  3  0  0  0  0  0  0
  189.0140  177.1110  146.6010 C   0  0  0  0  0  2  0  0  0  0  0  0
  187.8810  177.4190  145.6250 C   0  0  0  0  0  2  0  0  0  0  0  0
  189.3120  176.4240  143.8350 C   0  0  0  0  0  3  0  0  0  0  0  0
  188.0990  176.8300  144.2470 C   0  0  0  0  0  0  0  0  0  0  0  0
  190.5070  176.3600  144.7480 C   0  0  0  0  0  2  0  0  0  0  0  0
  191.4370  177.1800  146.8430 O   0  0  0  0  0  0  0  0  0  0  0  0
  192.8620  175.8400  148.1520 C   0  0  0  0  0  2  0  0  0  0  0  0
  191.8730  175.9280  147.2770 C   0  0  0  0  0  3  0  0  0  0  0  0
  184.9630  178.3270  143.2280 C   0  0  0  0  0  2  0  0  0  0  0  0
  184.6180  178.8580  145.6330 C   0  0  0  0  0  1  0  0  0  0  0  0
  184.5460  179.3990  144.2190 C   0  0  0  0  0  2  0  0  0  0  0  0
  188.2850  177.4960  140.1790 O   0  0  0  0  0  0  0  0  0  0  0  0
  189.3810  177.5000  139.2720 C   0  0  1  0  0  3  0  0  0  0  0  0
  190.9430  175.6250  138.6530 O   0  0  0  0  0  0  0  0  0  0  0  0
  190.3610  176.4220  139.6330 C   0  0  0  0  0  0  0  0  0  0  0  0
  190.6880  176.2560  140.8370 O   0  0  0  0  0  1  0  0  0  0  0  0
  188.8870  177.3550  137.8320 C   0  0  0  0  0  2  0  0  0  0  0  0
  187.5760  176.5630  137.7210 C   0  0  1  0  0  3  0  0  0  0  0  0
  186.5570  177.3040  136.8440 C   0  0  2  0  0  3  0  0  0  0  0  0
  187.1070  178.6490  136.3910 C   0  0  0  0  0  1  0  0  0  0  0  0
  185.2640  177.4880  137.5120 N   0  0  0  0  0  0  0  0  0  0  0  0
  184.0890  176.8300  137.0180 C   0  0  0  0  0  3  0  0  0  0  0  0
  183.3730  177.3150  136.0110 C   0  0  0  0  0  2  0  0  0  0  0  0
  185.0920  178.5460  138.5050 C   0  0  0  0  0  2  0  0  0  0  0  0
  183.1780  178.9560  140.0030 C   0  0  0  0  0  2  0  0  0  0  0  0
  184.1310  178.1320  139.5750 C   0  0  0  0  0  3  0  0  0  0  0  0
  187.8200  175.2730  137.2330 O   0  0  0  0  0  0  0  0  0  0  0  0
  188.2000  175.4540  135.9000 C   0  0  0  0  0  1  0  0  0  0  0  0
  1  2  2  0  0  0  0
  1  3  1  0  0  0  0
  3  4  1  0  0  0  0
  4 15  1  6  0  0  0
  4  5  1  0  0  0  0
  5 10  1  0  0  0  0
  6  7  1  0  0  0  0
  6 12  1  1  0  0  0
  8  7  1  0  0  0  0
  9 10  2  0  0  0  0
  9 11  1  0  0  0  0
 10  8  1  0  0  0  0
 11  6  1  0  0  0  0
 12 14  1  0  0  0  0
 14 13  2  0  0  0  0
 15 17  1  0  0  0  0
 17 16  1  0  0  0  0
 18  1  1  0  0  0  0
 19 23  1  6  0  0  0
 19 21  1  0  0  0  0
 19 18  1  0  0  0  0
 20 21  2  0  0  0  0
 21 22  1  0  0  0  0
 24 23  1  6  0  0  0
 25 26  1  1  0  0  0
 25 27  1  0  0  0  0
 25 24  1  0  0  0  0
 27 30  1  0  0  0  0
 28 27  1  0  0  0  0
 29 28  2  0  0  0  0
 30 32  1  0  0  0  0
 32 31  2  0  0  0  0
 33 24  1  0  0  0  0
 34 33  1  0  0  0  0
M  END
>  <MODEL>
7

>  <REMARK>
 VINA RESULT:      -6.1      2.775      7.528
  Name = 
  19 active torsions:
  status: ('A' for Active; 'I' for Inactive)
    1  A    between atoms: C_1  and  O_8
    2  A    between atoms: C_1  and  O_34
    3  A    between atoms: C_2  and  N_25
    4  A    between atoms: C_2  and  C_32
    5  A    between atoms: C_3  and  C_24
    6  A    between atoms: C_3  and  N_25
    7  A    between atoms: C_5  and  C_20
    8  A    between atoms: C_5  and  C_32
    9  A    between atoms: C_6  and  C_18
   10  A    between atoms: C_6  and  C_28
   11  A    between atoms: C_7  and  O_11
   12  A    between atoms: O_8  and  C_18
   13  A    between atoms: O_11  and  C_21
   14  A    between atoms: C_12  and  C_20
   15  A    between atoms: C_18  and  C_30
   16  A    between atoms: O_19  and  C_32
   17  A    between atoms: C_20  and  O_34
   18  A    between atoms: N_25  and  C_27
   19  A    between atoms: C_30  and  C_31
                            x       y       z     vdW  Elec       q    Type
                         _______ _______ _______ _____ _____    ______ ____

>  <TORSDO>
F 19

$$$$
=
 OpenBabel11052416013D

 34 34  0  0  1  0  0  0  0  0999 V2000
  185.5110  178.8200  141.5470 C   0  0  0  0  0  0  0  0  0  0  0  0
  185.3850  180.0620  141.6970 O   0  0  0  0  0  0  0  0  0  0  0  0
  185.8050  178.3280  140.2680 O   0  0  0  0  0  0  0  0  0  0  0  0
  184.9990  178.5740  139.1220 C   0  0  2  0  0  3  0  0  0  0  0  0
  183.5640  178.1600  139.4170 C   0  0  0  0  0  2  0  0  0  0  0  0
  181.1990  181.0690  137.2520 C   0  0  2  0  0  3  0  0  0  0  0  0
  180.6600  179.6420  137.2350 C   0  0  0  0  0  2  0  0  0  0  0  0
  181.7700  178.6620  137.6130 C   0  0  0  0  0  2  0  0  0  0  0  0
  182.5800  180.3900  139.2270 C   0  0  0  0  0  3  0  0  0  0  0  0
  182.5860  179.1140  138.8060 C   0  0  0  0  0  0  0  0  0  0  0  0
  181.6470  181.4300  138.6670 C   0  0  0  0  0  2  0  0  0  0  0  0
  180.2240  181.9930  136.7740 O   0  0  0  0  0  0  0  0  0  0  0  0
  181.1530  184.0740  136.1870 C   0  0  0  0  0  2  0  0  0  0  0  0
  180.3480  183.3690  136.9650 C   0  0  0  0  0  3  0  0  0  0  0  0
  185.5250  177.7730  137.9370 C   0  0  0  0  0  2  0  0  0  0  0  0
  187.8860  177.0650  137.6020 C   0  0  0  0  0  1  0  0  0  0  0  0
  186.9170  178.2280  137.5310 C   0  0  0  0  0  2  0  0  0  0  0  0
  185.3390  177.9930  142.6660 O   0  0  0  0  0  0  0  0  0  0  0  0
  185.6690  178.3830  143.9950 C   0  0  1  0  0  3  0  0  0  0  0  0
  183.1930  178.8150  144.1170 O   0  0  0  0  0  0  0  0  0  0  0  0
  184.4280  178.7580  144.7510 C   0  0  0  0  0  0  0  0  0  0  0  0
  184.4990  178.9910  145.9860 O   0  0  0  0  0  1  0  0  0  0  0  0
  186.4490  177.2730  144.7010 C   0  0  0  0  0  2  0  0  0  0  0  0
  187.9380  177.2500  144.3300 C   0  0  1  0  0  3  0  0  0  0  0  0
  188.8160  177.1180  145.5820 C   0  0  2  0  0  3  0  0  0  0  0  0
  188.1740  177.8160  146.7720 C   0  0  0  0  0  1  0  0  0  0  0  0
  190.1770  177.6250  145.3750 N   0  0  0  0  0  0  0  0  0  0  0  0
  190.3970  178.8520  144.6630 C   0  0  0  0  0  3  0  0  0  0  0  0
  191.4190  179.0170  143.8320 C   0  0  0  0  0  2  0  0  0  0  0  0
  191.3310  176.7690  145.6390 C   0  0  0  0  0  2  0  0  0  0  0  0
  192.3210  175.6130  147.5780 C   0  0  0  0  0  2  0  0  0  0  0  0
  191.5450  176.5880  147.1090 C   0  0  0  0  0  3  0  0  0  0  0  0
  188.2030  176.2220  143.4160 O   0  0  0  0  0  0  0  0  0  0  0  0
  188.7100  176.8650  142.2830 C   0  0  0  0  0  1  0  0  0  0  0  0
  1  2  2  0  0  0  0
  1 18  1  0  0  0  0
  3  1  1  0  0  0  0
  4 15  1  6  0  0  0
  4  5  1  0  0  0  0
  4  3  1  0  0  0  0
  6 12  1  1  0  0  0
  6 11  1  0  0  0  0
  7  6  1  0  0  0  0
  7  8  1  0  0  0  0
  8 10  1  0  0  0  0
 10  9  2  0  0  0  0
 10  5  1  0  0  0  0
 11  9  1  0  0  0  0
 12 14  1  0  0  0  0
 13 14  2  0  0  0  0
 17 16  1  0  0  0  0
 17 15  1  0  0  0  0
 18 19  1  0  0  0  0
 19 23  1  1  0  0  0
 19 21  1  0  0  0  0
 20 21  2  0  0  0  0
 21 22  1  0  0  0  0
 24 23  1  1  0  0  0
 24 25  1  0  0  0  0
 25 26  1  1  0  0  0
 27 25  1  0  0  0  0
 27 30  1  0  0  0  0
 28 27  1  0  0  0  0
 29 28  2  0  0  0  0
 30 32  1  0  0  0  0
 32 31  2  0  0  0  0
 33 24  1  0  0  0  0
 34 33  1  0  0  0  0
M  END
>  <MODEL>
8

>  <REMARK>
 VINA RESULT:      -6.0      3.117      5.313
  Name = 
  19 active torsions:
  status: ('A' for Active; 'I' for Inactive)
    1  A    between atoms: C_1  and  O_8
    2  A    between atoms: C_1  and  O_34
    3  A    between atoms: C_2  and  N_25
    4  A    between atoms: C_2  and  C_32
    5  A    between atoms: C_3  and  C_24
    6  A    between atoms: C_3  and  N_25
    7  A    between atoms: C_5  and  C_20
    8  A    between atoms: C_5  and  C_32
    9  A    between atoms: C_6  and  C_18
   10  A    between atoms: C_6  and  C_28
   11  A    between atoms: C_7  and  O_11
   12  A    between atoms: O_8  and  C_18
   13  A    between atoms: O_11  and  C_21
   14  A    between atoms: C_12  and  C_20
   15  A    between atoms: C_18  and  C_30
   16  A    between atoms: O_19  and  C_32
   17  A    between atoms: C_20  and  O_34
   18  A    between atoms: N_25  and  C_27
   19  A    between atoms: C_30  and  C_31
                            x       y       z     vdW  Elec       q    Type
                         _______ _______ _______ _____ _____    ______ ____

>  <TORSDO>
F 19

$$$$
=
 OpenBabel11052416013D

 34 34  0  0  1  0  0  0  0  0999 V2000
  186.2070  178.7390  141.0670 C   0  0  0  0  0  0  0  0  0  0  0  0
  187.4030  178.8320  140.6860 O   0  0  0  0  0  0  0  0  0  0  0  0
  185.9380  178.0650  142.2650 O   0  0  0  0  0  0  0  0  0  0  0  0
  185.9040  178.6980  143.5380 C   0  0  2  0  0  3  0  0  0  0  0  0
  185.9420  177.6360  144.6290 C   0  0  0  0  0  2  0  0  0  0  0  0
  189.6420  177.1270  146.8190 C   0  0  2  0  0  3  0  0  0  0  0  0
  189.7700  177.8250  145.4680 C   0  0  0  0  0  2  0  0  0  0  0  0
  188.5340  177.5400  144.6170 C   0  0  0  0  0  2  0  0  0  0  0  0
  187.1990  177.6680  146.7260 C   0  0  0  0  0  3  0  0  0  0  0  0
  187.2350  177.6770  145.3820 C   0  0  0  0  0  0  0  0  0  0  0  0
  188.4410  177.6930  147.5760 C   0  0  0  0  0  2  0  0  0  0  0  0
  190.8370  177.2640  147.5840 O   0  0  0  0  0  0  0  0  0  0  0  0
  192.2330  175.6260  146.6310 C   0  0  0  0  0  2  0  0  0  0  0  0
  191.7610  176.2270  147.7120 C   0  0  0  0  0  3  0  0  0  0  0  0
  184.6280  179.5210  143.6740 C   0  0  0  0  0  2  0  0  0  0  0  0
  182.3380  178.7720  144.2910 C   0  0  0  0  0  1  0  0  0  0  0  0
  183.7480  179.0020  144.7980 C   0  0  0  0  0  2  0  0  0  0  0  0
  185.2070  179.3060  140.2640 O   0  0  0  0  0  0  0  0  0  0  0  0
  184.1190  178.5680  139.7170 C   0  0  1  0  0  3  0  0  0  0  0  0
  181.9040  179.2220  140.7170 O   0  0  0  0  0  1  0  0  0  0  0  0
  182.8680  179.3960  139.7310 C   0  0  0  0  0  0  0  0  0  0  0  0
  182.7010  180.2860  138.8560 O   0  0  0  0  0  0  0  0  0  0  0  0
  184.4580  178.0780  138.3090 C   0  0  0  0  0  2  0  0  0  0  0  0
  183.8100  176.7280  137.9670 C   0  0  1  0  0  3  0  0  0  0  0  0
  184.8140  175.7940  137.2770 C   0  0  2  0  0  3  0  0  0  0  0  0
  185.4060  176.4530  136.0400 C   0  0  0  0  0  1  0  0  0  0  0  0
  184.2280  174.4960  136.9250 N   0  0  0  0  0  0  0  0  0  0  0  0
  184.7110  173.2900  137.5350 C   0  0  0  0  0  3  0  0  0  0  0  0
  186.0000  172.9720  137.5590 C   0  0  0  0  0  2  0  0  0  0  0  0
  183.3520  174.3740  135.7620 C   0  0  0  0  0  2  0  0  0  0  0  0
  180.8940  174.2060  135.7390 C   0  0  0  0  0  2  0  0  0  0  0  0
  182.0640  173.7030  136.1240 C   0  0  0  0  0  3  0  0  0  0  0  0
  183.2740  176.1330  139.1170 O   0  0  0  0  0  0  0  0  0  0  0  0
  181.9010  176.0420  138.8730 C   0  0  0  0  0  1  0  0  0  0  0  0
  1  3  1  0  0  0  0
  2  1  2  0  0  0  0
  3  4  1  0  0  0  0
  4 15  1  6  0  0  0
  4  5  1  0  0  0  0
  5 10  1  0  0  0  0
  6 11  1  0  0  0  0
  6 12  1  1  0  0  0
  7  6  1  0  0  0  0
  8 10  1  0  0  0  0
  8  7  1  0  0  0  0
  9 11  1  0  0  0  0
 10  9  2  0  0  0  0
 12 14  1  0  0  0  0
 13 14  2  0  0  0  0
 15 17  1  0  0  0  0
 16 17  1  0  0  0  0
 18  1  1  0  0  0  0
 19 23  1  6  0  0  0
 19 21  1  0  0  0  0
 19 18  1  0  0  0  0
 21 20  1  0  0  0  0
 22 21  2  0  0  0  0
 24 23  1  1  0  0  0
 24 33  1  0  0  0  0
 25 26  1  6  0  0  0
 25 24  1  0  0  0  0
 27 25  1  0  0  0  0
 27 28  1  0  0  0  0
 28 29  2  0  0  0  0
 30 32  1  0  0  0  0
 30 27  1  0  0  0  0
 31 32  2  0  0  0  0
 34 33  1  0  0  0  0
M  END
>  <MODEL>
9

>  <REMARK>
 VINA RESULT:      -6.0      3.826      8.627
  Name = 
  19 active torsions:
  status: ('A' for Active; 'I' for Inactive)
    1  A    between atoms: C_1  and  O_8
    2  A    between atoms: C_1  and  O_34
    3  A    between atoms: C_2  and  N_25
    4  A    between atoms: C_2  and  C_32
    5  A    between atoms: C_3  and  C_24
    6  A    between atoms: C_3  and  N_25
    7  A    between atoms: C_5  and  C_20
    8  A    between atoms: C_5  and  C_32
    9  A    between atoms: C_6  and  C_18
   10  A    between atoms: C_6  and  C_28
   11  A    between atoms: C_7  and  O_11
   12  A    between atoms: O_8  and  C_18
   13  A    between atoms: O_11  and  C_21
   14  A    between atoms: C_12  and  C_20
   15  A    between atoms: C_18  and  C_30
   16  A    between atoms: O_19  and  C_32
   17  A    between atoms: C_20  and  O_34
   18  A    between atoms: N_25  and  C_27
   19  A    between atoms: C_30  and  C_31
                            x       y       z     vdW  Elec       q    Type
                         _______ _______ _______ _____ _____    ______ ____

>  <TORSDO>
F 19

$$$$
