=
 OpenBabel11052415293D

 37 45  0  0  1  0  0  0  0  0999 V2000
  190.0300  177.6920  140.6980 O   0  0  0  0  0  0  0  0  0  0  0  0
  191.7350  177.4990  145.0640 C   0  0  0  0  0  2  0  0  0  0  0  0
  187.4860  177.5040  144.4270 C   0  0  0  0  0  0  0  0  0  0  0  0
  190.0920  177.1180  139.4110 C   0  0  0  0  0  0  0  0  0  0  0  0
  185.7140  178.2900  141.0820 C   0  0  0  0  0  2  0  0  0  0  0  0
  189.3470  177.6810  146.0740 C   0  0  1  0  0  3  0  0  0  0  0  0
  187.1750  177.6550  142.9750 C   0  0  1  0  0  3  0  0  0  0  0  0
  190.2110  175.6150  139.2940 C   0  0  0  0  0  2  0  0  0  0  0  0
  188.7860  177.6470  144.6670 C   0  0  0  0  0  0  0  0  0  0  0  0
  185.9380  178.4870  142.5890 C   0  0  2  0  0  3  0  0  0  0  0  0
  188.4520  176.9640  147.0510 C   0  0  0  0  0  3  0  0  0  0  0  0
  189.5470  177.8450  138.3230 O   0  0  0  0  0  0  0  0  0  0  0  0
  189.5430  177.9980  143.4280 C   0  0  2  0  0  3  0  0  0  0  0  0
  191.8110  179.0070  143.1010 C   0  0  0  0  0  2  0  0  0  0  0  0
  185.5420  178.2510  145.7380 C   0  0  0  0  0  3  0  0  0  0  0  0
  191.4350  176.5050  139.1000 C   0  0  0  0  0  2  0  0  0  0  0  0
  187.1570  176.7200  146.7920 C   0  0  0  0  0  3  0  0  0  0  0  0
  190.4240  179.2270  143.6710 C   0  0  2  0  0  3  0  0  0  0  0  0
  188.1880  178.1640  138.5880 C   0  0  2  0  0  3  0  0  0  0  0  0
  186.5750  179.2570  140.2720 C   0  0  0  0  0  2  0  0  0  0  0  0
  186.4920  177.1240  145.4970 C   0  0  2  0  0  3  0  0  0  0  0  0
  188.4340  178.3230  142.4280 C   0  0  1  0  0  3  0  0  0  0  0  0
  190.7820  177.1510  146.2120 C   0  0  0  0  0  2  0  0  0  0  0  0
  184.6720  178.1110  143.3980 C   0  0  1  0  0  3  0  0  0  0  0  0
  191.6160  178.9530  144.6030 C   0  0  1  0  0  3  0  0  0  0  0  0
  188.0090  178.7680  139.9860 C   0  0  1  0  0  3  0  0  0  0  0  0
  188.6650  177.8270  141.0050 C   0  0  1  0  0  3  0  0  0  0  0  0
  184.7170  178.6950  144.7860 C   0  0  0  0  0  3  0  0  0  0  0  0
  183.2350  178.4930  141.3450 C   0  0  0  0  0  3  0  0  0  0  0  0
  183.3920  178.5430  142.7400 C   0  0  0  0  0  0  0  0  0  0  0  0
  182.3360  178.9990  143.5370 C   0  0  0  0  0  3  0  0  0  0  0  0
  180.1150  179.8430  143.7260 F   0  0  0  0  0  0  0  0  0  0  0  0
  180.9820  179.3510  141.5610 C   0  0  0  0  0  3  0  0  0  0  0  0
  181.1330  179.4020  142.9490 C   0  0  0  0  0  0  0  0  0  0  0  0
  182.0320  178.8970  140.7590 C   0  0  0  0  0  3  0  0  0  0  0  0
  187.2720  176.9640  138.3370 C   0  0  0  0  0  2  0  0  0  0  0  0
  186.3830  177.2260  137.1380 C   0  0  0  0  0  1  0  0  0  0  0  0
  1 27  1  0  0  0  0
  2 23  1  0  0  0  0
  3  9  2  0  0  0  0
  3 21  1  0  0  0  0
  4  1  1  0  0  0  0
  6 23  1  6  0  0  0
  6 11  1  0  0  0  0
  7  3  1  1  0  0  0
  8  4  1  0  0  0  0
  9  6  1  0  0  0  0
 10  5  1  6  0  0  0
 10  7  1  0  0  0  0
 10 24  1  0  0  0  0
 12 19  1  0  0  0  0
 12  4  1  0  0  0  0
 13 18  1  0  0  0  0
 13  9  1  1  0  0  0
 14 25  1  0  0  0  0
 16  8  1  0  0  0  0
 16  4  1  0  0  0  0
 17 11  2  0  0  0  0
 18 14  1  6  0  0  0
 18 25  1  0  0  0  0
 19 36  1  1  0  0  0
 19 26  1  0  0  0  0
 20  5  1  0  0  0  0
 21 15  1  1  0  0  0
 21 17  1  0  0  0  0
 22  7  1  0  0  0  0
 22 13  1  0  0  0  0
 24 28  1  0  0  0  0
 25  2  1  0  0  0  0
 26 20  1  0  0  0  0
 26 27  1  0  0  0  0
 27 22  1  0  0  0  0
 28 15  2  0  0  0  0
 29 30  1  0  0  0  0
 30 24  1  0  0  0  0
 30 31  2  0  0  0  0
 33 34  2  0  0  0  0
 34 31  1  0  0  0  0
 34 32  1  0  0  0  0
 35 29  2  0  0  0  0
 35 33  1  0  0  0  0
 37 36  1  0  0  0  0
M  END
>  <MODEL>
1

>  <REMARK>
 VINA RESULT:      -8.9      0.000      0.000
  Name = 
  2 active torsions:
  status: ('A' for Active; 'I' for Inactive)
    1  A    between atoms: C_6  and  C_31
    2  A    between atoms: C_11  and  C_26
                            x       y       z     vdW  Elec       q    Type
                         _______ _______ _______ _____ _____    ______ ____

>  <TORSDO>
F 2

$$$$
=
 OpenBabel11052415293D

 37 45  0  0  1  0  0  0  0  0999 V2000
  190.5900  177.4220  140.1470 O   0  0  0  0  0  0  0  0  0  0  0  0
  191.5270  177.3320  144.7430 C   0  0  0  0  0  2  0  0  0  0  0  0
  187.4550  177.5800  143.3960 C   0  0  0  0  0  0  0  0  0  0  0  0
  190.8240  176.7840  138.9120 C   0  0  0  0  0  0  0  0  0  0  0  0
  186.3240  178.3150  139.7730 C   0  0  0  0  0  2  0  0  0  0  0  0
  189.0230  177.7170  145.3270 C   0  0  1  0  0  3  0  0  0  0  0  0
  187.4000  177.6800  141.9080 C   0  0  1  0  0  3  0  0  0  0  0  0
  190.8530  175.2720  138.8720 C   0  0  0  0  0  2  0  0  0  0  0  0
  188.7030  177.6500  143.8470 C   0  0  0  0  0  0  0  0  0  0  0  0
  186.3080  178.5700  141.2880 C   0  0  2  0  0  3  0  0  0  0  0  0
  187.9290  177.1070  146.1640 C   0  0  0  0  0  3  0  0  0  0  0  0
  190.5210  177.4910  137.7210 O   0  0  0  0  0  0  0  0  0  0  0  0
  189.6790  177.8910  142.7420 C   0  0  2  0  0  3  0  0  0  0  0  0
  192.0360  178.7340  142.7670 C   0  0  0  0  0  2  0  0  0  0  0  0
  185.3780  178.5140  144.3310 C   0  0  0  0  0  3  0  0  0  0  0  0
  192.1520  176.0710  138.8560 C   0  0  0  0  0  2  0  0  0  0  0  0
  186.6810  176.9350  145.6990 C   0  0  0  0  0  3  0  0  0  0  0  0
  190.5930  179.0710  143.0850 C   0  0  2  0  0  3  0  0  0  0  0  0
  189.1630  177.9090  137.7400 C   0  0  2  0  0  3  0  0  0  0  0  0
  187.3760  179.1840  139.0850 C   0  0  0  0  0  2  0  0  0  0  0  0
  186.2720  177.3170  144.2960 C   0  0  2  0  0  3  0  0  0  0  0  0
  188.7780  178.2380  141.5580 C   0  0  1  0  0  3  0  0  0  0  0  0
  190.3730  177.1020  145.7250 C   0  0  0  0  0  2  0  0  0  0  0  0
  184.9020  178.3160  141.8840 C   0  0  1  0  0  3  0  0  0  0  0  0
  191.5910  178.7670  144.2150 C   0  0  1  0  0  3  0  0  0  0  0  0
  188.7980  178.5910  139.0640 C   0  0  1  0  0  3  0  0  0  0  0  0
  189.2060  177.6600  140.2130 C   0  0  1  0  0  3  0  0  0  0  0  0
  184.7570  178.9630  143.2370 C   0  0  0  0  0  3  0  0  0  0  0  0
  184.0410  179.4540  139.7880 C   0  0  0  0  0  3  0  0  0  0  0  0
  183.7830  178.7980  141.0030 C   0  0  0  0  0  0  0  0  0  0  0  0
  182.4600  178.5800  141.4030 C   0  0  0  0  0  3  0  0  0  0  0  0
  180.1220  178.8010  140.9910 F   0  0  0  0  0  0  0  0  0  0  0  0
  181.6620  179.6680  139.3910 C   0  0  0  0  0  3  0  0  0  0  0  0
  181.4010  179.0140  140.5980 C   0  0  0  0  0  0  0  0  0  0  0  0
  182.9820  179.8870  138.9860 C   0  0  0  0  0  3  0  0  0  0  0  0
  188.2180  176.7600  137.3820 C   0  0  0  0  0  2  0  0  0  0  0  0
  187.7030  176.9270  135.9660 C   0  0  0  0  0  1  0  0  0  0  0  0
  1 27  1  0  0  0  0
  2 23  1  0  0  0  0
  3  9  2  0  0  0  0
  3 21  1  0  0  0  0
  4  1  1  0  0  0  0
  6 23  1  6  0  0  0
  6 11  1  0  0  0  0
  7  3  1  1  0  0  0
  8  4  1  0  0  0  0
  9  6  1  0  0  0  0
 10  5  1  6  0  0  0
 10 24  1  0  0  0  0
 10  7  1  0  0  0  0
 12 19  1  0  0  0  0
 12  4  1  0  0  0  0
 13 18  1  0  0  0  0
 13  9  1  1  0  0  0
 14 25  1  0  0  0  0
 16  8  1  0  0  0  0
 16  4  1  0  0  0  0
 17 11  2  0  0  0  0
 18 14  1  6  0  0  0
 18 25  1  0  0  0  0
 19 36  1  1  0  0  0
 19 26  1  0  0  0  0
 20  5  1  0  0  0  0
 21 15  1  1  0  0  0
 21 17  1  0  0  0  0
 22  7  1  0  0  0  0
 22 13  1  0  0  0  0
 24 28  1  0  0  0  0
 25  2  1  0  0  0  0
 26 20  1  0  0  0  0
 26 27  1  0  0  0  0
 27 22  1  0  0  0  0
 28 15  2  0  0  0  0
 29 30  1  0  0  0  0
 30 31  2  0  0  0  0
 30 24  1  0  0  0  0
 33 34  2  0  0  0  0
 34 32  1  0  0  0  0
 34 31  1  0  0  0  0
 35 33  1  0  0  0  0
 35 29  2  0  0  0  0
 37 36  1  0  0  0  0
M  END
>  <MODEL>
2

>  <REMARK>
 VINA RESULT:      -8.2      1.150      1.411
  Name = 
  2 active torsions:
  status: ('A' for Active; 'I' for Inactive)
    1  A    between atoms: C_6  and  C_31
    2  A    between atoms: C_11  and  C_26
                            x       y       z     vdW  Elec       q    Type
                         _______ _______ _______ _____ _____    ______ ____

>  <TORSDO>
F 2

$$$$
=
 OpenBabel11052415293D

 37 45  0  0  1  0  0  0  0  0999 V2000
  185.3180  178.0190  138.0590 O   0  0  0  0  0  0  0  0  0  0  0  0
  189.7550  177.5240  136.6190 C   0  0  0  0  0  2  0  0  0  0  0  0
  188.8200  177.2310  140.8030 C   0  0  0  0  0  0  0  0  0  0  0  0
  183.9890  177.5880  137.8640 C   0  0  0  0  0  0  0  0  0  0  0  0
  185.4490  178.2030  142.4280 C   0  0  0  0  0  2  0  0  0  0  0  0
  190.6050  177.3960  139.0730 C   0  0  1  0  0  3  0  0  0  0  0  0
  187.3710  177.5030  141.0360 C   0  0  1  0  0  3  0  0  0  0  0  0
  183.7350  176.1210  137.6000 C   0  0  0  0  0  2  0  0  0  0  0  0
  189.1640  177.4590  139.5400 C   0  0  0  0  0  0  0  0  0  0  0  0
  186.9800  178.2620  142.3180 C   0  0  2  0  0  3  0  0  0  0  0  0
  191.4410  176.5080  139.9580 C   0  0  0  0  0  3  0  0  0  0  0  0
  182.9410  178.3740  138.4050 O   0  0  0  0  0  0  0  0  0  0  0  0
  188.0220  178.0000  138.7420 C   0  0  2  0  0  3  0  0  0  0  0  0
  187.9580  179.2270  136.5610 C   0  0  0  0  0  2  0  0  0  0  0  0
  190.0550  177.6690  142.8860 C   0  0  0  0  0  3  0  0  0  0  0  0
  183.7170  177.1280  136.4530 C   0  0  0  0  0  2  0  0  0  0  0  0
  191.0680  176.1820  141.2050 C   0  0  0  0  0  3  0  0  0  0  0  0
  188.4460  179.2680  137.9960 C   0  0  2  0  0  3  0  0  0  0  0  0
  183.1380  178.5460  139.8010 C   0  0  2  0  0  3  0  0  0  0  0  0
  184.8000  179.3180  141.6100 C   0  0  0  0  0  2  0  0  0  0  0  0
  189.7740  176.6590  141.8230 C   0  0  2  0  0  3  0  0  0  0  0  0
  186.9820  178.3290  139.8110 C   0  0  1  0  0  3  0  0  0  0  0  0
  190.7930  176.9790  137.6070 C   0  0  0  0  0  2  0  0  0  0  0  0
  187.6560  177.6970  143.5910 C   0  0  1  0  0  3  0  0  0  0  0  0
  189.4300  179.0030  136.8430 C   0  0  1  0  0  3  0  0  0  0  0  0
  184.5710  178.9860  140.1230 C   0  0  1  0  0  3  0  0  0  0  0  0
  185.5380  178.0050  139.4480 C   0  0  1  0  0  3  0  0  0  0  0  0
  189.0940  178.1360  143.6870 C   0  0  0  0  0  3  0  0  0  0  0  0
  185.6620  178.6380  144.8440 C   0  0  0  0  0  3  0  0  0  0  0  0
  186.9530  178.0830  144.8620 C   0  0  0  0  0  0  0  0  0  0  0  0
  187.6000  177.8810  146.0870 C   0  0  0  0  0  3  0  0  0  0  0  0
  187.5950  178.0290  148.4660 F   0  0  0  0  0  0  0  0  0  0  0  0
  185.6810  178.7790  147.2600 C   0  0  0  0  0  3  0  0  0  0  0  0
  186.9650  178.2270  147.2830 C   0  0  0  0  0  0  0  0  0  0  0  0
  185.0300  178.9840  146.0400 C   0  0  0  0  0  3  0  0  0  0  0  0
  182.7070  177.3050  140.5850 C   0  0  0  0  0  2  0  0  0  0  0  0
  181.2680  176.9540  140.2610 C   0  0  0  0  0  1  0  0  0  0  0  0
  1 27  1  0  0  0  0
  2 25  1  0  0  0  0
  2 23  1  0  0  0  0
  3 21  1  0  0  0  0
  4  1  1  0  0  0  0
  4 12  1  0  0  0  0
  6 23  1  6  0  0  0
  6  9  1  0  0  0  0
  6 11  1  0  0  0  0
  7  3  1  1  0  0  0
  7 10  1  0  0  0  0
  8  4  1  0  0  0  0
  9  3  2  0  0  0  0
 10  5  1  1  0  0  0
 10 24  1  0  0  0  0
 11 17  2  0  0  0  0
 12 19  1  0  0  0  0
 13  9  1  1  0  0  0
 13 22  1  0  0  0  0
 14 25  1  0  0  0  0
 15 28  2  0  0  0  0
 16  8  1  0  0  0  0
 16  4  1  0  0  0  0
 18 14  1  6  0  0  0
 18 13  1  0  0  0  0
 19 26  1  0  0  0  0
 19 36  1  1  0  0  0
 20  5  1  0  0  0  0
 21 17  1  6  0  0  0
 21 15  1  0  0  0  0
 22  7  1  0  0  0  0
 24 28  1  0  0  0  0
 24 30  1  0  0  0  0
 25 18  1  0  0  0  0
 26 20  1  0  0  0  0
 27 22  1  0  0  0  0
 27 26  1  0  0  0  0
 29 30  2  0  0  0  0
 29 35  1  0  0  0  0
 30 31  1  0  0  0  0
 31 34  2  0  0  0  0
 33 34  1  0  0  0  0
 34 32  1  0  0  0  0
 35 33  2  0  0  0  0
 37 36  1  0  0  0  0
M  END
>  <MODEL>
3

>  <REMARK>
 VINA RESULT:      -8.0      2.517      5.863
  Name = 
  2 active torsions:
  status: ('A' for Active; 'I' for Inactive)
    1  A    between atoms: C_6  and  C_31
    2  A    between atoms: C_11  and  C_26
                            x       y       z     vdW  Elec       q    Type
                         _______ _______ _______ _____ _____    ______ ____

>  <TORSDO>
F 2

$$$$
=
 OpenBabel11052415293D

 37 45  0  0  1  0  0  0  0  0999 V2000
  188.6950  177.5360  140.6430 O   0  0  0  0  0  0  0  0  0  0  0  0
  185.6170  176.6940  137.2040 C   0  0  0  0  0  2  0  0  0  0  0  0
  189.5450  174.9600  137.0290 C   0  0  0  0  0  0  0  0  0  0  0  0
  188.8930  177.5250  142.0390 C   0  0  0  0  0  0  0  0  0  0  0  0
  192.5290  175.9170  139.2950 C   0  0  0  0  0  2  0  0  0  0  0  0
  187.4080  175.4080  135.8280 C   0  0  1  0  0  3  0  0  0  0  0  0
  190.3750  175.4290  138.1780 C   0  0  1  0  0  3  0  0  0  0  0  0
  188.3140  176.3820  142.8430 C   0  0  0  0  0  2  0  0  0  0  0  0
  188.3780  175.5940  136.9780 C   0  0  0  0  0  0  0  0  0  0  0  0
  191.8740  175.6750  137.9260 C   0  0  2  0  0  3  0  0  0  0  0  0
  187.6010  174.0790  135.1440 C   0  0  0  0  0  3  0  0  0  0  0  0
  189.9980  178.2370  142.5680 O   0  0  0  0  0  0  0  0  0  0  0  0
  188.2710  176.6470  138.0330 C   0  0  2  0  0  3  0  0  0  0  0  0
  186.7560  178.6280  138.2510 C   0  0  0  0  0  2  0  0  0  0  0  0
  191.0380  174.2410  135.2100 C   0  0  0  0  0  3  0  0  0  0  0  0
  187.6200  177.7410  142.8200 C   0  0  0  0  0  2  0  0  0  0  0  0
  188.7360  173.3700  135.2590 C   0  0  0  0  0  3  0  0  0  0  0  0
  187.8410  177.9800  137.4140 C   0  0  2  0  0  3  0  0  0  0  0  0
  191.2000  177.7860  141.9580 C   0  0  2  0  0  3  0  0  0  0  0  0
  192.3930  177.3790  139.7130 C   0  0  0  0  0  2  0  0  0  0  0  0
  189.9070  173.8320  136.0950 C   0  0  2  0  0  3  0  0  0  0  0  0
  189.6980  176.7400  138.5700 C   0  0  1  0  0  3  0  0  0  0  0  0
  185.9270  175.5840  136.1940 C   0  0  0  0  0  2  0  0  0  0  0  0
  192.5650  174.5130  137.1710 C   0  0  1  0  0  3  0  0  0  0  0  0
  186.3820  177.9900  136.9280 C   0  0  1  0  0  3  0  0  0  0  0  0
  191.0760  177.7320  140.4310 C   0  0  1  0  0  3  0  0  0  0  0  0
  189.8240  176.9170  140.0790 C   0  0  1  0  0  3  0  0  0  0  0  0
  192.2430  174.5470  135.7000 C   0  0  0  0  0  3  0  0  0  0  0  0
  194.6810  173.7510  138.3430 C   0  0  0  0  0  3  0  0  0  0  0  0
  194.0600  174.5010  137.3320 C   0  0  0  0  0  0  0  0  0  0  0  0
  194.8450  175.2530  136.4500 C   0  0  0  0  0  3  0  0  0  0  0  0
  196.9930  175.9840  135.7180 F   0  0  0  0  0  0  0  0  0  0  0  0
  196.8510  174.5070  137.5840 C   0  0  0  0  0  3  0  0  0  0  0  0
  196.2380  175.2550  136.5750 C   0  0  0  0  0  0  0  0  0  0  0  0
  196.0720  173.7540  138.4680 C   0  0  0  0  0  3  0  0  0  0  0  0
  191.6730  176.4640  142.5640 C   0  0  0  0  0  2  0  0  0  0  0  0
  191.6810  176.5530  144.0770 C   0  0  0  0  0  1  0  0  0  0  0  0
  1  4  1  0  0  0  0
  4 12  1  0  0  0  0
  4 16  1  0  0  0  0
  4  8  1  0  0  0  0
  5 20  1  0  0  0  0
  6 11  1  1  0  0  0
  6 23  1  0  0  0  0
  6  9  1  0  0  0  0
  7  3  1  6  0  0  0
  7 22  1  0  0  0  0
  9  3  2  0  0  0  0
 10  7  1  0  0  0  0
 10  5  1  1  0  0  0
 11 17  2  0  0  0  0
 13  9  1  6  0  0  0
 13 22  1  0  0  0  0
 15 28  2  0  0  0  0
 16  8  1  0  0  0  0
 17 21  1  0  0  0  0
 18 13  1  0  0  0  0
 18 14  1  1  0  0  0
 19 36  1  1  0  0  0
 19 12  1  0  0  0  0
 20 26  1  0  0  0  0
 21 15  1  6  0  0  0
 21  3  1  0  0  0  0
 22 27  1  0  0  0  0
 23  2  1  0  0  0  0
 24 30  1  0  0  0  0
 24 10  1  0  0  0  0
 25  2  1  0  0  0  0
 25 18  1  0  0  0  0
 25 14  1  0  0  0  0
 26 19  1  0  0  0  0
 27 26  1  0  0  0  0
 27  1  1  0  0  0  0
 28 24  1  0  0  0  0
 29 35  1  0  0  0  0
 30 29  2  0  0  0  0
 31 34  2  0  0  0  0
 31 30  1  0  0  0  0
 32 34  1  0  0  0  0
 33 35  2  0  0  0  0
 34 33  1  0  0  0  0
 36 37  1  0  0  0  0
M  END
>  <MODEL>
4

>  <REMARK>
 VINA RESULT:      -7.9      4.387      9.963
  Name = 
  2 active torsions:
  status: ('A' for Active; 'I' for Inactive)
    1  A    between atoms: C_6  and  C_31
    2  A    between atoms: C_11  and  C_26
                            x       y       z     vdW  Elec       q    Type
                         _______ _______ _______ _____ _____    ______ ____

>  <TORSDO>
F 2

$$$$
=
 OpenBabel11052415293D

 37 45  0  0  1  0  0  0  0  0999 V2000
  185.0510  178.1000  138.3450 O   0  0  0  0  0  0  0  0  0  0  0  0
  187.5390  176.7790  134.5940 C   0  0  0  0  0  2  0  0  0  0  0  0
  189.2810  176.5200  138.5130 C   0  0  0  0  0  0  0  0  0  0  0  0
  183.8230  177.9530  139.0220 C   0  0  0  0  0  0  0  0  0  0  0  0
  187.8200  178.0860  141.7320 C   0  0  0  0  0  2  0  0  0  0  0  0
  189.6550  176.3900  136.0530 C   0  0  1  0  0  3  0  0  0  0  0  0
  188.3460  177.0680  139.5390 C   0  0  1  0  0  3  0  0  0  0  0  0
  183.1990  176.5780  139.0980 C   0  0  0  0  0  2  0  0  0  0  0  0
  188.8290  176.7220  137.2800 C   0  0  0  0  0  0  0  0  0  0  0  0
  188.9540  177.8410  140.7240 C   0  0  2  0  0  3  0  0  0  0  0  0
  190.6750  175.3190  136.3400 C   0  0  0  0  0  3  0  0  0  0  0  0
  183.4790  178.9120  140.0080 O   0  0  0  0  0  0  0  0  0  0  0  0
  187.5600  177.5120  137.2760 C   0  0  2  0  0  3  0  0  0  0  0  0
  186.4200  178.8100  135.4650 C   0  0  0  0  0  2  0  0  0  0  0  0
  191.5770  176.6210  139.3950 C   0  0  0  0  0  3  0  0  0  0  0  0
  182.6770  177.6110  138.1030 C   0  0  0  0  0  2  0  0  0  0  0  0
  191.0780  175.0270  137.5870 C   0  0  0  0  0  3  0  0  0  0  0  0
  187.6710  178.6970  136.3130 C   0  0  2  0  0  3  0  0  0  0  0  0
  184.5050  178.9870  140.9880 C   0  0  2  0  0  3  0  0  0  0  0  0
  187.0280  179.3390  141.3660 C   0  0  0  0  0  2  0  0  0  0  0  0
  190.5330  175.7290  138.8080 C   0  0  2  0  0  3  0  0  0  0  0  0
  187.4570  178.0020  138.7200 C   0  0  1  0  0  3  0  0  0  0  0  0
  188.8410  176.0000  134.8100 C   0  0  0  0  0  2  0  0  0  0  0  0
  190.1440  177.1030  141.3870 C   0  0  1  0  0  3  0  0  0  0  0  0
  187.6920  178.2840  134.8310 C   0  0  1  0  0  3  0  0  0  0  0  0
  185.8930  179.1170  140.3470 C   0  0  1  0  0  3  0  0  0  0  0  0
  186.0570  177.9890  139.3220 C   0  0  1  0  0  3  0  0  0  0  0  0
  191.3980  177.2410  140.5650 C   0  0  0  0  0  3  0  0  0  0  0  0
  191.2850  178.6650  143.0260 C   0  0  0  0  0  3  0  0  0  0  0  0
  190.4340  177.5740  142.7850 C   0  0  0  0  0  0  0  0  0  0  0  0
  189.8390  176.9100  143.8640 C   0  0  0  0  0  3  0  0  0  0  0  0
  189.5110  176.6860  146.2140 F   0  0  0  0  0  0  0  0  0  0  0  0
  190.9370  178.4180  145.4090 C   0  0  0  0  0  3  0  0  0  0  0  0
  190.0900  177.3320  145.1730 C   0  0  0  0  0  0  0  0  0  0  0  0
  191.5350  179.0850  144.3350 C   0  0  0  0  0  3  0  0  0  0  0  0
  184.4160  177.8290  141.9830 C   0  0  0  0  0  2  0  0  0  0  0  0
  184.1760  178.3580  143.3830 C   0  0  0  0  0  1  0  0  0  0  0  0
  1  4  1  0  0  0  0
  1 27  1  0  0  0  0
  2 23  1  0  0  0  0
  2 25  1  0  0  0  0
  3 21  1  0  0  0  0
  4  8  1  0  0  0  0
  4 12  1  0  0  0  0
  6 23  1  6  0  0  0
  6 11  1  0  0  0  0
  6  9  1  0  0  0  0
  7  3  1  6  0  0  0
  7 10  1  0  0  0  0
  9  3  2  0  0  0  0
 10 24  1  0  0  0  0
 10  5  1  1  0  0  0
 11 17  2  0  0  0  0
 12 19  1  0  0  0  0
 13  9  1  1  0  0  0
 13 22  1  0  0  0  0
 15 28  2  0  0  0  0
 16  4  1  0  0  0  0
 16  8  1  0  0  0  0
 18 14  1  6  0  0  0
 18 13  1  0  0  0  0
 19 36  1  6  0  0  0
 20  5  1  0  0  0  0
 21 17  1  6  0  0  0
 21 15  1  0  0  0  0
 22 27  1  0  0  0  0
 22  7  1  0  0  0  0
 24 30  1  0  0  0  0
 25 14  1  0  0  0  0
 25 18  1  0  0  0  0
 26 19  1  0  0  0  0
 26 20  1  0  0  0  0
 27 26  1  0  0  0  0
 28 24  1  0  0  0  0
 29 35  1  0  0  0  0
 30 29  2  0  0  0  0
 30 31  1  0  0  0  0
 31 34  2  0  0  0  0
 34 33  1  0  0  0  0
 34 32  1  0  0  0  0
 35 33  2  0  0  0  0
 36 37  1  0  0  0  0
M  END
>  <MODEL>
5

>  <REMARK>
 VINA RESULT:      -7.8      2.773      7.729
  Name = 
  2 active torsions:
  status: ('A' for Active; 'I' for Inactive)
    1  A    between atoms: C_6  and  C_31
    2  A    between atoms: C_11  and  C_26
                            x       y       z     vdW  Elec       q    Type
                         _______ _______ _______ _____ _____    ______ ____

>  <TORSDO>
F 2

$$$$
=
 OpenBabel11052415293D

 37 45  0  0  1  0  0  0  0  0999 V2000
  184.6200  177.0520  136.3190 O   0  0  0  0  0  0  0  0  0  0  0  0
  189.0910  176.9560  134.9020 C   0  0  0  0  0  2  0  0  0  0  0  0
  188.1820  177.2330  139.0920 C   0  0  0  0  0  0  0  0  0  0  0  0
  183.3670  176.4110  136.2220 C   0  0  0  0  0  0  0  0  0  0  0  0
  184.6980  177.9760  140.5940 C   0  0  0  0  0  2  0  0  0  0  0  0
  189.9360  177.3590  137.3270 C   0  0  1  0  0  3  0  0  0  0  0  0
  186.7080  177.3330  139.3030 C   0  0  1  0  0  3  0  0  0  0  0  0
  183.3260  174.9000  136.2090 C   0  0  0  0  0  2  0  0  0  0  0  0
  188.4980  177.2940  137.8030 C   0  0  0  0  0  0  0  0  0  0  0  0
  186.2060  178.2310  140.4480 C   0  0  2  0  0  3  0  0  0  0  0  0
  190.8850  176.7580  138.3310 C   0  0  0  0  0  3  0  0  0  0  0  0
  182.2150  177.1200  136.6450 O   0  0  0  0  0  0  0  0  0  0  0  0
  187.2960  177.5280  136.9470 C   0  0  2  0  0  3  0  0  0  0  0  0
  187.0700  178.3540  134.5950 C   0  0  0  0  0  2  0  0  0  0  0  0
  189.3310  178.1820  141.0520 C   0  0  0  0  0  3  0  0  0  0  0  0
  183.1710  175.6890  134.9120 C   0  0  0  0  0  2  0  0  0  0  0  0
  190.5540  176.5940  139.6220 C   0  0  0  0  0  3  0  0  0  0  0  0
  187.5390  178.7020  135.9940 C   0  0  2  0  0  3  0  0  0  0  0  0
  182.3770  177.5480  137.9890 C   0  0  2  0  0  3  0  0  0  0  0  0
  183.9020  178.8370  139.6160 C   0  0  0  0  0  2  0  0  0  0  0  0
  189.2030  176.9790  140.1750 C   0  0  2  0  0  3  0  0  0  0  0  0
  186.2130  177.8810  137.9660 C   0  0  1  0  0  3  0  0  0  0  0  0
  190.1900  176.7350  135.9470 C   0  0  0  0  0  2  0  0  0  0  0  0
  186.9480  177.9870  141.7850 C   0  0  1  0  0  3  0  0  0  0  0  0
  188.5580  178.3900  134.8840 C   0  0  1  0  0  3  0  0  0  0  0  0
  183.7310  178.2330  138.2080 C   0  0  1  0  0  3  0  0  0  0  0  0
  184.8320  177.3000  137.6870 C   0  0  1  0  0  3  0  0  0  0  0  0
  188.3080  178.6350  141.7820 C   0  0  0  0  0  3  0  0  0  0  0  0
  185.2670  179.5310  142.8900 C   0  0  0  0  0  3  0  0  0  0  0  0
  186.1890  178.4760  142.9870 C   0  0  0  0  0  0  0  0  0  0  0  0
  186.4080  177.8620  144.2260 C   0  0  0  0  0  3  0  0  0  0  0  0
  185.9270  177.6980  146.5550 F   0  0  0  0  0  0  0  0  0  0  0  0
  184.7940  179.3450  145.2570 C   0  0  0  0  0  3  0  0  0  0  0  0
  185.7110  178.2950  145.3580 C   0  0  0  0  0  0  0  0  0  0  0  0
  184.5720  179.9620  144.0230 C   0  0  0  0  0  3  0  0  0  0  0  0
  182.1220  176.4060  138.9750 C   0  0  0  0  0  2  0  0  0  0  0  0
  180.7070  176.4830  139.5120 C   0  0  0  0  0  1  0  0  0  0  0  0
  1 27  1  0  0  0  0
  2 23  1  0  0  0  0
  3 21  1  0  0  0  0
  4  1  1  0  0  0  0
  4 12  1  0  0  0  0
  6 23  1  6  0  0  0
  6  9  1  0  0  0  0
  6 11  1  0  0  0  0
  7  3  1  6  0  0  0
  7 10  1  0  0  0  0
  8  4  1  0  0  0  0
  9  3  2  0  0  0  0
 10  5  1  1  0  0  0
 10 24  1  0  0  0  0
 11 17  2  0  0  0  0
 12 19  1  0  0  0  0
 13  9  1  1  0  0  0
 13 22  1  0  0  0  0
 14 25  1  0  0  0  0
 15 28  2  0  0  0  0
 16  8  1  0  0  0  0
 16  4  1  0  0  0  0
 18 14  1  6  0  0  0
 18 13  1  0  0  0  0
 19 26  1  0  0  0  0
 19 36  1  1  0  0  0
 20  5  1  0  0  0  0
 21 17  1  6  0  0  0
 21 15  1  0  0  0  0
 22  7  1  0  0  0  0
 24 30  1  0  0  0  0
 25  2  1  0  0  0  0
 25 18  1  0  0  0  0
 26 20  1  0  0  0  0
 27 22  1  0  0  0  0
 27 26  1  0  0  0  0
 28 24  1  0  0  0  0
 29 30  2  0  0  0  0
 29 35  1  0  0  0  0
 30 31  1  0  0  0  0
 31 34  2  0  0  0  0
 33 34  1  0  0  0  0
 34 32  1  0  0  0  0
 35 33  2  0  0  0  0
 36 37  1  0  0  0  0
M  END
>  <MODEL>
6

>  <REMARK>
 VINA RESULT:      -6.7      2.915      6.559
  Name = 
  2 active torsions:
  status: ('A' for Active; 'I' for Inactive)
    1  A    between atoms: C_6  and  C_31
    2  A    between atoms: C_11  and  C_26
                            x       y       z     vdW  Elec       q    Type
                         _______ _______ _______ _____ _____    ______ ____

>  <TORSDO>
F 2

$$$$
=
 OpenBabel11052415293D

 37 45  0  0  1  0  0  0  0  0999 V2000
  183.6060  178.7940  141.9800 O   0  0  0  0  0  0  0  0  0  0  0  0
  179.1890  177.3490  141.3420 C   0  0  0  0  0  2  0  0  0  0  0  0
  182.3050  175.9020  138.7620 C   0  0  0  0  0  0  0  0  0  0  0  0
  184.6400  178.9530  142.9250 C   0  0  0  0  0  0  0  0  0  0  0  0
  185.8950  177.3220  138.5540 C   0  0  0  0  0  2  0  0  0  0  0  0
  179.8550  176.0530  139.1890 C   0  0  1  0  0  3  0  0  0  0  0  0
  183.6050  176.5550  139.0940 C   0  0  1  0  0  3  0  0  0  0  0  0
  184.8510  177.8680  143.9570 C   0  0  0  0  0  2  0  0  0  0  0  0
  181.2990  176.4380  139.4450 C   0  0  0  0  0  0  0  0  0  0  0  0
  184.5610  176.8820  137.9310 C   0  0  2  0  0  3  0  0  0  0  0  0
  179.7410  174.6740  138.5920 C   0  0  0  0  0  3  0  0  0  0  0  0
  185.7290  179.8000  142.5960 O   0  0  0  0  0  0  0  0  0  0  0  0
  181.7480  177.5910  140.2820 C   0  0  2  0  0  3  0  0  0  0  0  0
  180.4730  179.4660  141.3420 C   0  0  0  0  0  2  0  0  0  0  0  0
  182.3910  175.0970  136.4370 C   0  0  0  0  0  3  0  0  0  0  0  0
  184.1320  179.1610  144.3300 C   0  0  0  0  0  2  0  0  0  0  0  0
  180.7720  174.0690  137.9820 C   0  0  0  0  0  3  0  0  0  0  0  0
  180.8580  178.8120  140.0300 C   0  0  2  0  0  3  0  0  0  0  0  0
  186.3200  179.3740  141.3770 C   0  0  2  0  0  3  0  0  0  0  0  0
  185.8680  178.8080  138.9060 C   0  0  0  0  0  2  0  0  0  0  0  0
  182.1360  174.7060  137.8560 C   0  0  2  0  0  3  0  0  0  0  0  0
  183.1670  177.8490  139.7770 C   0  0  1  0  0  3  0  0  0  0  0  0
  178.9310  176.1590  140.4110 C   0  0  0  0  0  2  0  0  0  0  0  0
  184.7620  175.6970  136.9550 C   0  0  1  0  0  3  0  0  0  0  0  0
  179.4340  178.6590  140.5900 C   0  0  1  0  0  3  0  0  0  0  0  0
  185.2680  179.1400  140.2860 C   0  0  1  0  0  3  0  0  0  0  0  0
  184.1930  178.2010  140.8480 C   0  0  1  0  0  3  0  0  0  0  0  0
  183.5830  175.5440  136.0310 C   0  0  0  0  0  3  0  0  0  0  0  0
  186.2700  176.9620  135.3560 C   0  0  0  0  0  3  0  0  0  0  0  0
  186.0080  175.8140  136.1220 C   0  0  0  0  0  0  0  0  0  0  0  0
  186.9250  174.7560  136.1170 C   0  0  0  0  0  3  0  0  0  0  0  0
  188.9780  173.8160  135.3530 F   0  0  0  0  0  0  0  0  0  0  0  0
  188.3510  175.9860  134.5940 C   0  0  0  0  0  3  0  0  0  0  0  0
  188.0940  174.8430  135.3550 C   0  0  0  0  0  0  0  0  0  0  0  0
  187.4390  177.0460  134.5950 C   0  0  0  0  0  3  0  0  0  0  0  0
  187.2340  178.1660  141.5900 C   0  0  0  0  0  2  0  0  0  0  0  0
  188.6880  178.5900  141.5260 C   0  0  0  0  0  1  0  0  0  0  0  0
  1  4  1  0  0  0  0
  3  9  2  0  0  0  0
  4  8  1  0  0  0  0
  4 16  1  0  0  0  0
  5 20  1  0  0  0  0
  6 11  1  1  0  0  0
  6  9  1  0  0  0  0
  6 23  1  0  0  0  0
  7  3  1  6  0  0  0
  7 22  1  0  0  0  0
  8 16  1  0  0  0  0
 10  5  1  1  0  0  0
 10  7  1  0  0  0  0
 12  4  1  0  0  0  0
 13  9  1  6  0  0  0
 17 11  2  0  0  0  0
 18 13  1  0  0  0  0
 18 25  1  0  0  0  0
 18 14  1  1  0  0  0
 19 36  1  1  0  0  0
 19 12  1  0  0  0  0
 20 26  1  0  0  0  0
 21 15  1  6  0  0  0
 21 17  1  0  0  0  0
 21  3  1  0  0  0  0
 22 13  1  0  0  0  0
 22 27  1  0  0  0  0
 23  2  1  0  0  0  0
 24 10  1  0  0  0  0
 25 14  1  0  0  0  0
 25  2  1  0  0  0  0
 26 27  1  0  0  0  0
 26 19  1  0  0  0  0
 27  1  1  0  0  0  0
 28 15  2  0  0  0  0
 28 24  1  0  0  0  0
 29 30  1  0  0  0  0
 30 24  1  0  0  0  0
 31 30  2  0  0  0  0
 32 34  1  0  0  0  0
 33 35  1  0  0  0  0
 33 34  2  0  0  0  0
 34 31  1  0  0  0  0
 35 29  2  0  0  0  0
 37 36  1  0  0  0  0
M  END
>  <MODEL>
7

>  <REMARK>
 VINA RESULT:      -6.6      3.754      8.781
  Name = 
  2 active torsions:
  status: ('A' for Active; 'I' for Inactive)
    1  A    between atoms: C_6  and  C_31
    2  A    between atoms: C_11  and  C_26
                            x       y       z     vdW  Elec       q    Type
                         _______ _______ _______ _____ _____    ______ ____

>  <TORSDO>
F 2

$$$$
=
 OpenBabel11052415293D

 37 45  0  0  1  0  0  0  0  0999 V2000
  187.7710  177.4470  138.9860 O   0  0  0  0  0  0  0  0  0  0  0  0
  183.8610  175.4670  137.3140 C   0  0  0  0  0  2  0  0  0  0  0  0
  187.6680  173.6060  136.6080 C   0  0  0  0  0  0  0  0  0  0  0  0
  188.3910  177.9820  140.1340 C   0  0  0  0  0  0  0  0  0  0  0  0
  191.1190  175.2280  137.2510 C   0  0  0  0  0  2  0  0  0  0  0  0
  185.2370  173.6480  136.0660 C   0  0  1  0  0  3  0  0  0  0  0  0
  188.7730  174.4490  137.1550 C   0  0  1  0  0  3  0  0  0  0  0  0
  188.1810  177.2860  141.4600 C   0  0  0  0  0  2  0  0  0  0  0  0
  186.4960  174.2260  136.6820 C   0  0  0  0  0  0  0  0  0  0  0  0
  190.0960  174.4960  136.3690 C   0  0  2  0  0  3  0  0  0  0  0  0
  185.3150  172.1490  135.9380 C   0  0  0  0  0  3  0  0  0  0  0  0
  189.5450  178.7870  139.9630 O   0  0  0  0  0  0  0  0  0  0  0  0
  186.6360  175.6160  137.2130 C   0  0  2  0  0  3  0  0  0  0  0  0
  185.1080  177.5960  137.1000 C   0  0  0  0  0  2  0  0  0  0  0  0
  188.5810  172.1460  134.8490 C   0  0  0  0  0  3  0  0  0  0  0  0
  187.4080  178.5570  141.1230 C   0  0  0  0  0  2  0  0  0  0  0  0
  186.4830  171.4870  135.9580 C   0  0  0  0  0  3  0  0  0  0  0  0
  185.9310  176.6140  136.2890 C   0  0  2  0  0  3  0  0  0  0  0  0
  190.5310  178.0690  139.2350 C   0  0  2  0  0  3  0  0  0  0  0  0
  191.0020  176.7410  137.0800 C   0  0  0  0  0  2  0  0  0  0  0  0
  187.8140  172.1820  136.1300 C   0  0  2  0  0  3  0  0  0  0  0  0
  188.1470  175.8410  137.1910 C   0  0  1  0  0  3  0  0  0  0  0  0
  183.9320  174.0320  136.7790 C   0  0  0  0  0  2  0  0  0  0  0  0
  190.6110  173.0950  135.9560 C   0  0  1  0  0  3  0  0  0  0  0  0
  184.3960  176.5050  136.3240 C   0  0  1  0  0  3  0  0  0  0  0  0
  189.9470  177.4180  137.9760 C   0  0  1  0  0  3  0  0  0  0  0  0
  188.7180  176.5970  138.3860 C   0  0  1  0  0  3  0  0  0  0  0  0
  189.8490  172.5580  134.7740 C   0  0  0  0  0  3  0  0  0  0  0  0
  192.6770  174.0970  134.8800 C   0  0  0  0  0  3  0  0  0  0  0  0
  192.0790  173.0710  135.6290 C   0  0  0  0  0  0  0  0  0  0  0  0
  192.8600  172.0040  136.0870 C   0  0  0  0  0  3  0  0  0  0  0  0
  194.9800  170.9250  136.2460 F   0  0  0  0  0  0  0  0  0  0  0  0
  194.8200  172.9830  135.0540 C   0  0  0  0  0  3  0  0  0  0  0  0
  194.2280  171.9600  135.8000 C   0  0  0  0  0  0  0  0  0  0  0  0
  194.0440  174.0520  134.5940 C   0  0  0  0  0  3  0  0  0  0  0  0
  191.2730  177.0740  140.1300 C   0  0  0  0  0  2  0  0  0  0  0  0
  192.7170  177.5020  140.3050 C   0  0  0  0  0  1  0  0  0  0  0  0
  1  4  1  0  0  0  0
  3  9  2  0  0  0  0
  4 16  1  0  0  0  0
  4  8  1  0  0  0  0
  6 11  1  1  0  0  0
  6  9  1  0  0  0  0
  6 23  1  0  0  0  0
  7  3  1  6  0  0  0
  7 22  1  0  0  0  0
 10  7  1  0  0  0  0
 10  5  1  1  0  0  0
 11 17  2  0  0  0  0
 12  4  1  0  0  0  0
 13  9  1  6  0  0  0
 16  8  1  0  0  0  0
 17 21  1  0  0  0  0
 18 25  1  0  0  0  0
 18 14  1  1  0  0  0
 18 13  1  0  0  0  0
 19 12  1  0  0  0  0
 19 36  1  1  0  0  0
 20  5  1  0  0  0  0
 20 26  1  0  0  0  0
 21 15  1  6  0  0  0
 21  3  1  0  0  0  0
 22 13  1  0  0  0  0
 22 27  1  0  0  0  0
 23  2  1  0  0  0  0
 24 10  1  0  0  0  0
 25 14  1  0  0  0  0
 25  2  1  0  0  0  0
 26 27  1  0  0  0  0
 26 19  1  0  0  0  0
 27  1  1  0  0  0  0
 28 15  2  0  0  0  0
 28 24  1  0  0  0  0
 29 30  1  0  0  0  0
 30 24  1  0  0  0  0
 30 31  2  0  0  0  0
 33 34  2  0  0  0  0
 34 31  1  0  0  0  0
 34 32  1  0  0  0  0
 35 29  2  0  0  0  0
 35 33  1  0  0  0  0
 36 37  1  0  0  0  0
M  END
>  <MODEL>
8

>  <REMARK>
 VINA RESULT:      -6.5      4.804     10.121
  Name = 
  2 active torsions:
  status: ('A' for Active; 'I' for Inactive)
    1  A    between atoms: C_6  and  C_31
    2  A    between atoms: C_11  and  C_26
                            x       y       z     vdW  Elec       q    Type
                         _______ _______ _______ _____ _____    ______ ____

>  <TORSDO>
F 2

$$$$
=
 OpenBabel11052415293D

 37 45  0  0  1  0  0  0  0  0999 V2000
  187.3550  177.9210  140.7450 O   0  0  0  0  0  0  0  0  0  0  0  0
  183.4780  177.0590  138.2470 C   0  0  0  0  0  2  0  0  0  0  0  0
  187.2410  175.4060  136.9930 C   0  0  0  0  0  0  0  0  0  0  0  0
  187.9210  177.8970  142.0360 C   0  0  0  0  0  0  0  0  0  0  0  0
  190.7090  176.3930  138.3880 C   0  0  0  0  0  2  0  0  0  0  0  0
  184.8530  175.8250  136.4180 C   0  0  1  0  0  3  0  0  0  0  0  0
  188.3420  175.8770  137.8830 C   0  0  1  0  0  3  0  0  0  0  0  0
  187.5980  176.7340  142.9470 C   0  0  0  0  0  2  0  0  0  0  0  0
  186.0930  176.0170  137.2680 C   0  0  0  0  0  0  0  0  0  0  0  0
  189.7140  176.1550  137.2410 C   0  0  2  0  0  3  0  0  0  0  0  0
  184.8750  174.5090  135.6860 C   0  0  0  0  0  3  0  0  0  0  0  0
  189.1170  178.6240  142.2590 O   0  0  0  0  0  0  0  0  0  0  0  0
  186.2580  177.0550  138.3300 C   0  0  2  0  0  3  0  0  0  0  0  0
  184.8270  179.0030  138.9810 C   0  0  0  0  0  2  0  0  0  0  0  0
  188.2000  174.7380  134.8270 C   0  0  0  0  0  3  0  0  0  0  0  0
  186.9030  178.0790  143.1330 C   0  0  0  0  0  2  0  0  0  0  0  0
  186.0100  173.8210  135.4790 C   0  0  0  0  0  3  0  0  0  0  0  0
  185.6570  178.3870  137.8720 C   0  0  2  0  0  3  0  0  0  0  0  0
  190.1170  178.2050  141.3420 C   0  0  2  0  0  3  0  0  0  0  0  0
  190.6680  177.8480  138.8520 C   0  0  0  0  0  2  0  0  0  0  0  0
  187.3550  174.2960  135.9770 C   0  0  2  0  0  3  0  0  0  0  0  0
  187.7760  177.1700  138.4650 C   0  0  1  0  0  3  0  0  0  0  0  0
  183.5230  175.9680  137.1720 C   0  0  0  0  0  2  0  0  0  0  0  0
  190.1940  175.0160  136.3090 C   0  0  1  0  0  3  0  0  0  0  0  0
  184.1200  178.3740  137.7960 C   0  0  1  0  0  3  0  0  0  0  0  0
  189.5870  178.1660  139.9030 C   0  0  1  0  0  3  0  0  0  0  0  0
  188.3000  177.3310  139.8870 C   0  0  1  0  0  3  0  0  0  0  0  0
  189.4880  175.0610  134.9810 C   0  0  0  0  0  3  0  0  0  0  0  0
  192.2650  175.9750  135.2030 C   0  0  0  0  0  3  0  0  0  0  0  0
  191.6770  175.0320  136.0620 C   0  0  0  0  0  0  0  0  0  0  0  0
  192.4850  174.0870  136.7060 C   0  0  0  0  0  3  0  0  0  0  0  0
  194.6450  173.1670  137.1220 F   0  0  0  0  0  0  0  0  0  0  0  0
  194.4480  175.0240  135.6410 C   0  0  0  0  0  3  0  0  0  0  0  0
  193.8670  174.0840  136.4960 C   0  0  0  0  0  0  0  0  0  0  0  0
  193.6460  175.9700  134.9950 C   0  0  0  0  0  3  0  0  0  0  0  0
  190.7570  176.8840  141.7760 C   0  0  0  0  0  2  0  0  0  0  0  0
  191.4760  177.0600  143.0990 C   0  0  0  0  0  1  0  0  0  0  0  0
  1  4  1  0  0  0  0
  3  9  2  0  0  0  0
  4 12  1  0  0  0  0
  4  8  1  0  0  0  0
  4 16  1  0  0  0  0
  5 20  1  0  0  0  0
  6 11  1  1  0  0  0
  6 23  1  0  0  0  0
  6  9  1  0  0  0  0
  7  3  1  6  0  0  0
  7 22  1  0  0  0  0
  8 16  1  0  0  0  0
 10  7  1  0  0  0  0
 10  5  1  1  0  0  0
 13  9  1  6  0  0  0
 13 22  1  0  0  0  0
 15 28  2  0  0  0  0
 17 11  2  0  0  0  0
 17 21  1  0  0  0  0
 18 13  1  0  0  0  0
 18 14  1  1  0  0  0
 19 36  1  1  0  0  0
 19 12  1  0  0  0  0
 20 26  1  0  0  0  0
 21 15  1  6  0  0  0
 21  3  1  0  0  0  0
 22 27  1  0  0  0  0
 23  2  1  0  0  0  0
 24 10  1  0  0  0  0
 25 18  1  0  0  0  0
 25  2  1  0  0  0  0
 25 14  1  0  0  0  0
 26 19  1  0  0  0  0
 27 26  1  0  0  0  0
 27  1  1  0  0  0  0
 28 24  1  0  0  0  0
 29 30  1  0  0  0  0
 30 24  1  0  0  0  0
 30 31  2  0  0  0  0
 33 34  2  0  0  0  0
 34 31  1  0  0  0  0
 34 32  1  0  0  0  0
 35 29  2  0  0  0  0
 35 33  1  0  0  0  0
 36 37  1  0  0  0  0
M  END
>  <MODEL>
9

>  <REMARK>
 VINA RESULT:      -6.5      3.913      9.329
  Name = 
  2 active torsions:
  status: ('A' for Active; 'I' for Inactive)
    1  A    between atoms: C_6  and  C_31
    2  A    between atoms: C_11  and  C_26
                            x       y       z     vdW  Elec       q    Type
                         _______ _______ _______ _____ _____    ______ ____

>  <TORSDO>
F 2

$$$$
