=
 OpenBabel11052416193D

 43 50  0  0  1  0  0  0  0  0999 V2000
  181.9050  178.8660  142.6990 N   0  0  0  0  0  2  0  0  0  0  0  0
  187.7370  177.8650  147.3190 C   0  0  0  0  0  0  0  0  0  0  0  0
  184.1260  178.6510  143.8700 C   0  0  0  0  0  0  0  0  0  0  0  0
  185.3940  178.7350  141.3400 C   0  0  2  0  0  3  0  0  0  0  0  0
  185.6510  178.4030  146.2100 C   0  0  0  0  0  0  0  0  0  0  0  0
  188.3220  177.5710  146.0850 C   0  0  0  0  0  3  0  0  0  0  0  0
  188.4800  177.7440  148.4850 O   0  0  0  0  0  1  0  0  0  0  0  0
  186.2380  178.1090  144.9560 C   0  0  0  0  0  0  0  0  0  0  0  0
  186.4030  178.2780  147.3820 C   0  0  0  0  0  3  0  0  0  0  0  0
  187.5780  177.6920  144.9090 C   0  0  0  0  0  3  0  0  0  0  0  0
  186.0270  177.8660  142.4330 C   0  0  0  0  0  2  0  0  0  0  0  0
  185.4710  178.2410  143.7830 C   0  0  0  0  0  0  0  0  0  0  0  0
  183.5580  178.9330  145.1170 C   0  0  0  0  0  3  0  0  0  0  0  0
  183.3330  178.7740  142.6290 C   0  0  0  0  0  0  0  0  0  0  0  0
  183.9330  178.7500  141.4740 N   0  0  0  0  0  0  0  0  0  0  0  0
  184.3180  178.8110  146.2820 C   0  0  0  0  0  3  0  0  0  0  0  0
  180.3800  177.3370  139.7730 C   0  0  2  0  0  3  0  0  0  0  0  0
  179.7830  176.2340  140.6290 C   0  0  1  0  0  3  0  0  0  0  0  0
  179.6770  178.3850  141.8650 C   0  0  0  0  0  2  0  0  0  0  0  0
  181.5880  177.9380  140.4690 C   0  0  0  0  0  2  0  0  0  0  0  0
  181.0560  178.8920  141.5170 C   0  0  2  0  0  3  0  0  0  0  0  0
  179.1740  177.6220  140.6520 C   0  0  1  0  0  3  0  0  0  0  0  0
  179.6240  174.1450  139.5120 O   0  0  0  0  0  1  0  0  0  0  0  0
  178.9360  175.3320  139.7560 C   0  0  0  0  0  2  0  0  0  0  0  0
  185.8040  178.2480  139.9520 C   0  0  1  0  0  3  0  0  0  0  0  0
  184.8600  178.7980  138.8950 C   0  0  0  0  0  1  0  0  0  0  0  0
  187.1610  178.6860  139.6550 N   0  0  0  0  0  2  0  0  0  0  0  0
  187.9340  178.1270  138.5930 C   0  0  0  0  0  0  0  0  0  0  0  0
  187.4770  177.1850  137.8900 O   0  0  0  0  0  0  0  0  0  0  0  0
  189.3130  178.6280  138.3470 C   0  0  0  0  0  2  0  0  0  0  0  0
  190.2830  177.6260  138.7640 N   0  0  0  0  0  0  0  0  0  0  0  0
  191.0830  177.1830  140.9890 C   0  0  2  0  0  3  0  0  0  0  0  0
  189.8960  177.1990  140.1000 C   0  0  2  0  0  3  0  0  0  0  0  0
  190.5680  176.0020  140.4250 O   0  0  0  0  0  0  0  0  0  0  0  0
  190.6840  177.2830  142.4610 C   0  0  1  0  0  0  0  0  0  0  0  0
  189.9800  178.5500  142.8870 C   0  0  0  0  0  2  0  0  0  0  0  0
  191.4430  176.3240  144.5520 C   0  0  0  0  0  2  0  0  0  0  0  0
  191.6290  177.8270  144.6150 C   0  0  0  0  0  2  0  0  0  0  0  0
  190.5380  176.0690  143.3670 C   0  0  0  0  0  2  0  0  0  0  0  0
  191.4570  178.3520  143.2010 C   0  0  1  0  0  3  0  0  0  0  0  0
  190.1140  176.4770  137.8850 C   0  0  0  0  0  2  0  0  0  0  0  0
  192.3400  174.9100  137.5020 S   0  0  0  0  0  1  0  0  0  0  0  0
  191.3220  176.3210  136.9750 C   0  0  0  0  0  2  0  0  0  0  0  0
  2  9  1  0  0  0  0
  2  7  1  0  0  0  0
  3 13  1  0  0  0  0
  4 25  1  6  0  0  0
  4 15  1  0  0  0  0
  4 11  1  0  0  0  0
  5 16  1  0  0  0  0
  5  9  2  0  0  0  0
  6  2  2  0  0  0  0
  8  5  1  0  0  0  0
 10  8  2  0  0  0  0
 10  6  1  0  0  0  0
 11 12  1  0  0  0  0
 12  3  2  0  0  0  0
 12  8  1  0  0  0  0
 13 16  2  0  0  0  0
 14  1  1  0  0  0  0
 14  3  1  0  0  0  0
 15 14  2  0  0  0  0
 17 20  1  1  0  0  0
 17 18  1  0  0  0  0
 17 22  1  0  0  0  0
 18 24  1  6  0  0  0
 18 22  1  0  0  0  0
 20 21  1  0  0  0  0
 21 19  1  0  0  0  0
 21  1  1  1  0  0  0
 22 19  1  1  0  0  0
 23 24  1  0  0  0  0
 25 26  1  6  0  0  0
 27 25  1  0  0  0  0
 28 27  1  0  0  0  0
 29 28  2  0  0  0  0
 30 28  1  0  0  0  0
 30 31  1  0  0  0  0
 32 34  1  1  0  0  0
 32 35  1  0  0  0  0
 33 31  1  6  0  0  0
 33 34  1  0  0  0  0
 33 32  1  0  0  0  0
 35 36  1  6  0  0  0
 35 40  1  0  0  0  0
 35 39  1  0  0  0  0
 37 38  1  0  0  0  0
 39 37  1  0  0  0  0
 40 36  1  1  0  0  0
 40 38  1  0  0  0  0
 41 31  1  0  0  0  0
 43 42  1  0  0  0  0
 43 41  1  0  0  0  0
M  END
>  <MODEL>
1

>  <REMARK>
 VINA RESULT:     -10.3      0.000      0.000
  Name = 
  10 active torsions:
  status: ('A' for Active; 'I' for Inactive)
    1  A    between atoms: N_1  and  C_35
    2  A    between atoms: C_2  and  N_6
    3  A    between atoms: C_2  and  C_13
    4  A    between atoms: C_3  and  N_4
    5  A    between atoms: C_3  and  C_12
    6  A    between atoms: N_4  and  C_15
    7  A    between atoms: N_4  and  C_22
    8  A    between atoms: C_11  and  C_14
    9  A    between atoms: C_15  and  C_42
   10  A    between atoms: C_19  and  C_37
                            x       y       z     vdW  Elec       q    Type
                         _______ _______ _______ _____ _____    ______ ____

>  <TORSDO>
F 10

$$$$
=
 OpenBabel11052416193D

 43 50  0  0  1  0  0  0  0  0999 V2000
  184.4310  178.7790  140.8240 N   0  0  0  0  0  2  0  0  0  0  0  0
  187.8440  177.4700  147.3810 C   0  0  0  0  0  0  0  0  0  0  0  0
  185.9740  178.4630  142.7910 C   0  0  0  0  0  0  0  0  0  0  0  0
  188.1680  178.5730  141.0040 C   0  0  2  0  0  3  0  0  0  0  0  0
  186.4050  178.1040  145.5380 C   0  0  0  0  0  0  0  0  0  0  0  0
  188.8780  177.1900  146.4830 C   0  0  0  0  0  3  0  0  0  0  0  0
  188.0440  177.2950  148.7430 O   0  0  0  0  0  1  0  0  0  0  0  0
  187.4480  177.8240  144.6230 C   0  0  0  0  0  0  0  0  0  0  0  0
  186.6100  177.9240  146.9090 C   0  0  0  0  0  3  0  0  0  0  0  0
  188.6820  177.3660  145.1110 C   0  0  0  0  0  3  0  0  0  0  0  0
  188.2820  177.6550  142.2260 C   0  0  0  0  0  2  0  0  0  0  0  0
  187.2300  178.0120  143.2450 C   0  0  0  0  0  0  0  0  0  0  0  0
  184.9510  178.7290  143.7070 C   0  0  0  0  0  3  0  0  0  0  0  0
  185.7610  178.6440  141.3400 C   0  0  0  0  0  0  0  0  0  0  0  0
  186.7800  178.6310  140.5300 N   0  0  0  0  0  0  0  0  0  0  0  0
  185.1660  178.5520  145.0750 C   0  0  0  0  0  3  0  0  0  0  0  0
  182.5630  177.8670  137.8400 C   0  0  2  0  0  3  0  0  0  0  0  0
  181.2570  178.2640  138.5040 C   0  0  1  0  0  3  0  0  0  0  0  0
  183.0360  179.8670  139.1610 C   0  0  0  0  0  2  0  0  0  0  0  0
  183.6050  177.5420  138.8950 C   0  0  0  0  0  2  0  0  0  0  0  0
  184.1410  178.8640  139.4000 C   0  0  2  0  0  3  0  0  0  0  0  0
  182.2070  179.3340  138.0060 C   0  0  1  0  0  3  0  0  0  0  0  0
  179.4870  179.3250  137.3310 O   0  0  0  0  0  1  0  0  0  0  0  0
  180.1250  178.0990  137.5120 C   0  0  0  0  0  2  0  0  0  0  0  0
  189.1000  178.1110  139.8860 C   0  0  1  0  0  3  0  0  0  0  0  0
  190.0550  177.0440  140.3960 C   0  0  0  0  0  1  0  0  0  0  0  0
  188.3190  177.5660  138.7840 N   0  0  0  0  0  2  0  0  0  0  0  0
  188.1540  178.2530  137.5440 C   0  0  0  0  0  0  0  0  0  0  0  0
  188.6530  179.3990  137.3710 O   0  0  0  0  0  0  0  0  0  0  0  0
  187.3440  177.6310  136.4620 C   0  0  0  0  0  2  0  0  0  0  0  0
  187.8460  176.2960  136.1760 N   0  0  0  0  0  0  0  0  0  0  0  0
  186.5190  174.3410  136.6280 C   0  0  2  0  0  3  0  0  0  0  0  0
  186.7070  175.5070  135.7310 C   0  0  2  0  0  3  0  0  0  0  0  0
  187.1410  174.2130  135.3740 O   0  0  0  0  0  0  0  0  0  0  0  0
  185.0880  173.8090  136.5640 C   0  0  1  0  0  0  0  0  0  0  0  0
  184.1690  174.1970  137.6990 C   0  0  0  0  0  2  0  0  0  0  0  0
  183.9650  171.9200  135.5440 C   0  0  0  0  0  2  0  0  0  0  0  0
  183.8190  171.8130  137.0490 C   0  0  0  0  0  2  0  0  0  0  0  0
  184.4360  173.3310  135.2740 C   0  0  0  0  0  2  0  0  0  0  0  0
  184.7920  172.8070  137.6580 C   0  0  1  0  0  3  0  0  0  0  0  0
  188.7510  176.4150  135.0400 C   0  0  0  0  0  2  0  0  0  0  0  0
  190.3020  175.0680  136.8660 S   0  0  0  0  0  1  0  0  0  0  0  0
  190.1940  176.2510  135.4900 C   0  0  0  0  0  2  0  0  0  0  0  0
  1 14  1  0  0  0  0
  2  7  1  0  0  0  0
  3 12  2  0  0  0  0
  3 13  1  0  0  0  0
  4 25  1  6  0  0  0
  4 11  1  0  0  0  0
  5  9  2  0  0  0  0
  6  2  2  0  0  0  0
  8 10  2  0  0  0  0
  8  5  1  0  0  0  0
  9  2  1  0  0  0  0
 10  6  1  0  0  0  0
 11 12  1  0  0  0  0
 12  8  1  0  0  0  0
 13 16  2  0  0  0  0
 14  3  1  0  0  0  0
 15  4  1  0  0  0  0
 15 14  2  0  0  0  0
 16  5  1  0  0  0  0
 17 22  1  0  0  0  0
 17 18  1  0  0  0  0
 17 20  1  1  0  0  0
 18 24  1  6  0  0  0
 19 21  1  0  0  0  0
 20 21  1  0  0  0  0
 21  1  1  1  0  0  0
 22 18  1  0  0  0  0
 22 19  1  1  0  0  0
 23 24  1  0  0  0  0
 25 26  1  1  0  0  0
 27 25  1  0  0  0  0
 28 27  1  0  0  0  0
 29 28  2  0  0  0  0
 30 28  1  0  0  0  0
 31 30  1  0  0  0  0
 32 34  1  6  0  0  0
 33 31  1  1  0  0  0
 33 32  1  0  0  0  0
 34 33  1  0  0  0  0
 35 39  1  6  0  0  0
 35 32  1  0  0  0  0
 35 40  1  0  0  0  0
 35 36  1  0  0  0  0
 37 38  1  0  0  0  0
 39 37  1  0  0  0  0
 40 38  1  6  0  0  0
 40 36  1  0  0  0  0
 41 43  1  0  0  0  0
 41 31  1  0  0  0  0
 43 42  1  0  0  0  0
M  END
>  <MODEL>
2

>  <REMARK>
 VINA RESULT:     -10.3      3.109      5.025
  Name = 
  10 active torsions:
  status: ('A' for Active; 'I' for Inactive)
    1  A    between atoms: N_1  and  C_35
    2  A    between atoms: C_2  and  N_6
    3  A    between atoms: C_2  and  C_13
    4  A    between atoms: C_3  and  N_4
    5  A    between atoms: C_3  and  C_12
    6  A    between atoms: N_4  and  C_15
    7  A    between atoms: N_4  and  C_22
    8  A    between atoms: C_11  and  C_14
    9  A    between atoms: C_15  and  C_42
   10  A    between atoms: C_19  and  C_37
                            x       y       z     vdW  Elec       q    Type
                         _______ _______ _______ _____ _____    ______ ____

>  <TORSDO>
F 10

$$$$
=
 OpenBabel11052416193D

 43 50  0  0  1  0  0  0  0  0999 V2000
  183.9880  178.3930  141.3480 N   0  0  0  0  0  2  0  0  0  0  0  0
  187.9860  177.8820  147.6810 C   0  0  0  0  0  0  0  0  0  0  0  0
  185.6920  178.3770  143.2040 C   0  0  0  0  0  0  0  0  0  0  0  0
  187.7260  178.6440  141.2510 C   0  0  2  0  0  3  0  0  0  0  0  0
  186.3550  178.2310  145.9240 C   0  0  0  0  0  0  0  0  0  0  0  0
  188.9810  177.6760  146.7220 C   0  0  0  0  0  3  0  0  0  0  0  0
  188.3010  177.8110  149.0310 O   0  0  0  0  0  1  0  0  0  0  0  0
  187.3580  178.0260  144.9470 C   0  0  0  0  0  0  0  0  0  0  0  0
  186.6750  178.1570  147.2830 C   0  0  0  0  0  3  0  0  0  0  0  0
  188.6690  177.7470  145.3620 C   0  0  0  0  0  3  0  0  0  0  0  0
  188.0370  177.8190  142.5040 C   0  0  0  0  0  2  0  0  0  0  0  0
  187.0230  178.1060  143.5820 C   0  0  0  0  0  0  0  0  0  0  0  0
  184.7110  178.5720  144.1810 C   0  0  0  0  0  3  0  0  0  0  0  0
  185.3580  178.4460  141.7660 C   0  0  0  0  0  0  0  0  0  0  0  0
  186.3120  178.5080  140.8820 N   0  0  0  0  0  0  0  0  0  0  0  0
  185.0410  178.5010  145.5360 C   0  0  0  0  0  3  0  0  0  0  0  0
  181.5590  178.7260  138.6620 C   0  0  2  0  0  3  0  0  0  0  0  0
  181.2250  180.1390  139.1040 C   0  0  1  0  0  3  0  0  0  0  0  0
  183.6640  179.7500  139.3610 C   0  0  0  0  0  2  0  0  0  0  0  0
  182.1420  177.9420  139.8240 C   0  0  0  0  0  2  0  0  0  0  0  0
  183.5910  178.3590  139.9470 C   0  0  2  0  0  3  0  0  0  0  0  0
  182.5210  179.8640  138.3680 C   0  0  1  0  0  3  0  0  0  0  0  0
  180.8750  181.1250  136.9730 O   0  0  0  0  0  1  0  0  0  0  0  0
  180.2210  180.7360  138.1410 C   0  0  0  0  0  2  0  0  0  0  0  0
  188.6270  178.2320  140.0900 C   0  0  1  0  0  3  0  0  0  0  0  0
  189.6250  177.1770  140.5380 C   0  0  0  0  0  1  0  0  0  0  0  0
  187.8200  177.6960  139.0030 N   0  0  0  0  0  2  0  0  0  0  0  0
  187.8590  178.2290  137.6790 C   0  0  0  0  0  0  0  0  0  0  0  0
  188.5750  179.2320  137.4100 O   0  0  0  0  0  0  0  0  0  0  0  0
  187.0070  177.6260  136.6190 C   0  0  0  0  0  2  0  0  0  0  0  0
  187.1770  176.1800  136.6140 N   0  0  0  0  0  0  0  0  0  0  0  0
  185.1400  174.9550  136.9880 C   0  0  2  0  0  3  0  0  0  0  0  0
  185.9950  175.6220  135.9750 C   0  0  2  0  0  3  0  0  0  0  0  0
  185.9880  174.2210  136.1390 O   0  0  0  0  0  0  0  0  0  0  0  0
  183.6920  174.8420  136.5140 C   0  0  1  0  0  0  0  0  0  0  0  0
  182.8710  176.1110  136.5370 C   0  0  0  0  0  2  0  0  0  0  0  0
  182.0260  173.0890  136.3710 C   0  0  0  0  0  2  0  0  0  0  0  0
  181.5180  174.1630  137.3130 C   0  0  0  0  0  2  0  0  0  0  0  0
  183.1920  173.7070  135.6320 C   0  0  0  0  0  2  0  0  0  0  0  0
  182.6970  175.0650  137.6310 C   0  0  1  0  0  3  0  0  0  0  0  0
  188.3080  175.8870  135.7440 C   0  0  0  0  0  2  0  0  0  0  0  0
  190.8960  176.1290  136.6390 S   0  0  0  0  0  1  0  0  0  0  0  0
  189.3830  175.1300  136.5090 C   0  0  0  0  0  2  0  0  0  0  0  0
  1 14  1  0  0  0  0
  2  7  1  0  0  0  0
  3 12  2  0  0  0  0
  3 13  1  0  0  0  0
  4 25  1  6  0  0  0
  4 11  1  0  0  0  0
  5  9  2  0  0  0  0
  6  2  2  0  0  0  0
  8 10  2  0  0  0  0
  8  5  1  0  0  0  0
  9  2  1  0  0  0  0
 10  6  1  0  0  0  0
 11 12  1  0  0  0  0
 12  8  1  0  0  0  0
 13 16  2  0  0  0  0
 14  3  1  0  0  0  0
 15  4  1  0  0  0  0
 15 14  2  0  0  0  0
 16  5  1  0  0  0  0
 17 18  1  0  0  0  0
 17 20  1  1  0  0  0
 18 24  1  6  0  0  0
 19 21  1  0  0  0  0
 20 21  1  0  0  0  0
 21  1  1  1  0  0  0
 22 17  1  0  0  0  0
 22 18  1  0  0  0  0
 22 19  1  1  0  0  0
 23 24  1  0  0  0  0
 25 26  1  1  0  0  0
 27 25  1  0  0  0  0
 28 27  1  0  0  0  0
 29 28  2  0  0  0  0
 30 28  1  0  0  0  0
 31 30  1  0  0  0  0
 32 34  1  6  0  0  0
 33 34  1  0  0  0  0
 33 31  1  1  0  0  0
 33 32  1  0  0  0  0
 35 39  1  6  0  0  0
 35 36  1  0  0  0  0
 35 32  1  0  0  0  0
 35 40  1  0  0  0  0
 37 38  1  0  0  0  0
 38 40  1  0  0  0  0
 39 37  1  0  0  0  0
 40 36  1  6  0  0  0
 41 43  1  0  0  0  0
 41 31  1  0  0  0  0
 43 42  1  0  0  0  0
M  END
>  <MODEL>
3

>  <REMARK>
 VINA RESULT:      -9.8      2.827      5.265
  Name = 
  10 active torsions:
  status: ('A' for Active; 'I' for Inactive)
    1  A    between atoms: N_1  and  C_35
    2  A    between atoms: C_2  and  N_6
    3  A    between atoms: C_2  and  C_13
    4  A    between atoms: C_3  and  N_4
    5  A    between atoms: C_3  and  C_12
    6  A    between atoms: N_4  and  C_15
    7  A    between atoms: N_4  and  C_22
    8  A    between atoms: C_11  and  C_14
    9  A    between atoms: C_15  and  C_42
   10  A    between atoms: C_19  and  C_37
                            x       y       z     vdW  Elec       q    Type
                         _______ _______ _______ _____ _____    ______ ____

>  <TORSDO>
F 10

$$$$
=
 OpenBabel11052416193D

 43 50  0  0  1  0  0  0  0  0999 V2000
  184.4710  178.7740  140.8580 N   0  0  0  0  0  2  0  0  0  0  0  0
  187.7020  177.6070  147.5330 C   0  0  0  0  0  0  0  0  0  0  0  0
  185.9600  178.5000  142.8730 C   0  0  0  0  0  0  0  0  0  0  0  0
  188.2020  178.5680  141.1440 C   0  0  2  0  0  3  0  0  0  0  0  0
  186.3140  178.2010  145.6370 C   0  0  0  0  0  0  0  0  0  0  0  0
  188.7590  177.3070  146.6700 C   0  0  0  0  0  3  0  0  0  0  0  0
  187.8640  177.4620  148.9040 O   0  0  0  0  0  1  0  0  0  0  0  0
  187.3820  177.9010  144.7580 C   0  0  0  0  0  0  0  0  0  0  0  0
  186.4810  178.0520  147.0180 C   0  0  0  0  0  3  0  0  0  0  0  0
  188.6010  177.4520  145.2900 C   0  0  0  0  0  3  0  0  0  0  0  0
  188.2810  177.6780  142.3890 C   0  0  0  0  0  2  0  0  0  0  0  0
  187.2020  178.0580  143.3700 C   0  0  0  0  0  0  0  0  0  0  0  0
  184.9120  178.7870  143.7540 C   0  0  0  0  0  3  0  0  0  0  0  0
  185.7860  178.6480  141.4130 C   0  0  0  0  0  0  0  0  0  0  0  0
  186.8270  178.6170  140.6310 N   0  0  0  0  0  0  0  0  0  0  0  0
  185.0900  178.6400  145.1310 C   0  0  0  0  0  3  0  0  0  0  0  0
  182.7370  177.7400  137.8340 C   0  0  2  0  0  3  0  0  0  0  0  0
  181.3950  178.0850  138.4540 C   0  0  1  0  0  3  0  0  0  0  0  0
  183.0790  179.7750  139.1400 C   0  0  0  0  0  2  0  0  0  0  0  0
  183.7600  177.4760  138.9230 C   0  0  0  0  0  2  0  0  0  0  0  0
  184.2200  178.8270  139.4250 C   0  0  2  0  0  3  0  0  0  0  0  0
  182.3100  179.1910  137.9680 C   0  0  1  0  0  3  0  0  0  0  0  0
  180.2310  178.9540  136.5760 O   0  0  0  0  0  1  0  0  0  0  0  0
  180.3020  177.8560  137.4310 C   0  0  0  0  0  2  0  0  0  0  0  0
  189.1630  178.0810  140.0630 C   0  0  1  0  0  3  0  0  0  0  0  0
  190.0330  176.9520  140.5920 C   0  0  0  0  0  1  0  0  0  0  0  0
  188.4110  177.6030  138.9100 N   0  0  0  0  0  2  0  0  0  0  0  0
  188.4200  178.2790  137.6530 C   0  0  0  0  0  0  0  0  0  0  0  0
  189.0560  179.3580  137.5050 O   0  0  0  0  0  0  0  0  0  0  0  0
  187.6290  177.7290  136.5190 C   0  0  0  0  0  2  0  0  0  0  0  0
  188.5210  177.1230  135.5430 N   0  0  0  0  0  0  0  0  0  0  0  0
  190.7320  176.2210  135.8410 C   0  0  2  0  0  3  0  0  0  0  0  0
  189.3110  176.1310  136.2570 C   0  0  2  0  0  3  0  0  0  0  0  0
  189.8770  175.2260  135.3340 O   0  0  0  0  0  0  0  0  0  0  0  0
  191.6640  175.6280  136.8960 C   0  0  1  0  0  0  0  0  0  0  0  0
  192.1250  176.5590  137.9940 C   0  0  0  0  0  2  0  0  0  0  0  0
  193.2430  173.7930  137.0090 C   0  0  0  0  0  2  0  0  0  0  0  0
  193.9940  175.0910  137.2330 C   0  0  0  0  0  2  0  0  0  0  0  0
  191.7770  174.1330  137.1610 C   0  0  0  0  0  2  0  0  0  0  0  0
  193.0560  176.2170  136.8380 C   0  0  1  0  0  3  0  0  0  0  0  0
  187.6870  176.3980  134.5940 C   0  0  0  0  0  2  0  0  0  0  0  0
  186.2500  174.0570  134.7010 S   0  0  0  0  0  1  0  0  0  0  0  0
  186.5100  175.7510  135.3070 C   0  0  0  0  0  2  0  0  0  0  0  0
  1 14  1  0  0  0  0
  2  7  1  0  0  0  0
  3 12  2  0  0  0  0
  3 13  1  0  0  0  0
  4 25  1  6  0  0  0
  4 11  1  0  0  0  0
  5  9  2  0  0  0  0
  6  2  2  0  0  0  0
  8 10  2  0  0  0  0
  8  5  1  0  0  0  0
  9  2  1  0  0  0  0
 10  6  1  0  0  0  0
 11 12  1  0  0  0  0
 12  8  1  0  0  0  0
 13 16  2  0  0  0  0
 14  3  1  0  0  0  0
 15  4  1  0  0  0  0
 15 14  2  0  0  0  0
 16  5  1  0  0  0  0
 17 22  1  0  0  0  0
 17 18  1  0  0  0  0
 17 20  1  1  0  0  0
 18 24  1  6  0  0  0
 19 21  1  0  0  0  0
 20 21  1  0  0  0  0
 21  1  1  1  0  0  0
 22 18  1  0  0  0  0
 22 19  1  1  0  0  0
 23 24  1  0  0  0  0
 25 26  1  1  0  0  0
 27 25  1  0  0  0  0
 28 27  1  0  0  0  0
 29 28  2  0  0  0  0
 30 28  1  0  0  0  0
 31 30  1  0  0  0  0
 32 34  1  6  0  0  0
 32 33  1  0  0  0  0
 32 35  1  0  0  0  0
 33 31  1  6  0  0  0
 34 33  1  0  0  0  0
 35 39  1  1  0  0  0
 35 36  1  0  0  0  0
 37 39  1  0  0  0  0
 37 38  1  0  0  0  0
 40 35  1  0  0  0  0
 40 38  1  1  0  0  0
 40 36  1  0  0  0  0
 41 43  1  0  0  0  0
 41 31  1  0  0  0  0
 42 43  1  0  0  0  0
M  END
>  <MODEL>
4

>  <REMARK>
 VINA RESULT:      -9.7      2.461      4.078
  Name = 
  10 active torsions:
  status: ('A' for Active; 'I' for Inactive)
    1  A    between atoms: N_1  and  C_35
    2  A    between atoms: C_2  and  N_6
    3  A    between atoms: C_2  and  C_13
    4  A    between atoms: C_3  and  N_4
    5  A    between atoms: C_3  and  C_12
    6  A    between atoms: N_4  and  C_15
    7  A    between atoms: N_4  and  C_22
    8  A    between atoms: C_11  and  C_14
    9  A    between atoms: C_15  and  C_42
   10  A    between atoms: C_19  and  C_37
                            x       y       z     vdW  Elec       q    Type
                         _______ _______ _______ _____ _____    ______ ____

>  <TORSDO>
F 10

$$$$
=
 OpenBabel11052416193D

 43 50  0  0  1  0  0  0  0  0999 V2000
  181.8810  178.6430  143.0030 N   0  0  0  0  0  2  0  0  0  0  0  0
  188.0720  177.8890  147.1810 C   0  0  0  0  0  0  0  0  0  0  0  0
  184.1880  178.5320  144.0110 C   0  0  0  0  0  0  0  0  0  0  0  0
  185.2670  178.7290  141.4000 C   0  0  2  0  0  3  0  0  0  0  0  0
  185.8870  178.3290  146.2320 C   0  0  0  0  0  0  0  0  0  0  0  0
  188.5840  177.6490  145.9030 C   0  0  0  0  0  3  0  0  0  0  0  0
  188.9030  177.7910  148.2890 O   0  0  0  0  0  1  0  0  0  0  0  0
  186.3990  178.0890  144.9340 C   0  0  0  0  0  0  0  0  0  0  0  0
  186.7260  178.2270  147.3460 C   0  0  0  0  0  3  0  0  0  0  0  0
  187.7520  177.7480  144.7850 C   0  0  0  0  0  3  0  0  0  0  0  0
  186.0210  177.8780  142.4280 C   0  0  0  0  0  2  0  0  0  0  0  0
  185.5440  178.1990  143.8210 C   0  0  0  0  0  0  0  0  0  0  0  0
  183.6950  178.7600  145.3010 C   0  0  0  0  0  3  0  0  0  0  0  0
  183.3030  178.6310  142.8320 C   0  0  0  0  0  0  0  0  0  0  0  0
  183.8200  178.6600  141.6370 N   0  0  0  0  0  0  0  0  0  0  0  0
  184.5420  178.6610  146.4060 C   0  0  0  0  0  3  0  0  0  0  0  0
  180.2400  180.1970  140.1550 C   0  0  2  0  0  3  0  0  0  0  0  0
  181.5820  180.5030  139.5150 C   0  0  1  0  0  3  0  0  0  0  0  0
  181.6790  178.2770  140.6120 C   0  0  0  0  0  2  0  0  0  0  0  0
  180.4050  180.0340  141.6550 C   0  0  0  0  0  2  0  0  0  0  0  0
  180.9500  178.6410  141.8840 C   0  0  2  0  0  3  0  0  0  0  0  0
  181.0410  179.0870  139.4970 C   0  0  1  0  0  3  0  0  0  0  0  0
  181.7710  182.4710  138.2000 O   0  0  0  0  0  1  0  0  0  0  0  0
  181.3530  181.1420  138.1610 C   0  0  0  0  0  2  0  0  0  0  0  0
  185.6020  178.2890  139.9770 C   0  0  1  0  0  3  0  0  0  0  0  0
  184.6470  178.9290  138.9830 C   0  0  0  0  0  1  0  0  0  0  0  0
  186.9670  178.6790  139.6480 N   0  0  0  0  0  2  0  0  0  0  0  0
  187.6230  178.2480  138.4560 C   0  0  0  0  0  0  0  0  0  0  0  0
  187.0490  177.4630  137.6520 O   0  0  0  0  0  0  0  0  0  0  0  0
  189.0170  178.6900  138.1850 C   0  0  0  0  0  2  0  0  0  0  0  0
  189.9340  177.5770  138.3810 N   0  0  0  0  0  0  0  0  0  0  0  0
  190.9180  177.2280  140.5490 C   0  0  2  0  0  3  0  0  0  0  0  0
  189.6960  177.0700  139.7250 C   0  0  2  0  0  3  0  0  0  0  0  0
  190.5660  175.9900  139.9820 O   0  0  0  0  0  0  0  0  0  0  0  0
  190.5920  177.2360  142.0410 C   0  0  1  0  0  0  0  0  0  0  0  0
  190.0680  178.5330  142.6130 C   0  0  0  0  0  2  0  0  0  0  0  0
  191.3070  176.0010  143.9990 C   0  0  0  0  0  2  0  0  0  0  0  0
  191.6800  177.4580  144.1850 C   0  0  0  0  0  2  0  0  0  0  0  0
  190.3320  175.9690  142.8430 C   0  0  0  0  0  2  0  0  0  0  0  0
  191.5210  178.1300  142.8330 C   0  0  1  0  0  3  0  0  0  0  0  0
  189.5350  176.5270  137.4540 C   0  0  0  0  0  2  0  0  0  0  0  0
  189.6620  176.5910  134.7090 S   0  0  0  0  0  1  0  0  0  0  0  0
  190.5230  176.4320  136.3010 C   0  0  0  0  0  2  0  0  0  0  0  0
  2  9  1  0  0  0  0
  2  7  1  0  0  0  0
  3 13  1  0  0  0  0
  4 25  1  6  0  0  0
  4 15  1  0  0  0  0
  4 11  1  0  0  0  0
  5 16  1  0  0  0  0
  5  9  2  0  0  0  0
  6  2  2  0  0  0  0
  8  5  1  0  0  0  0
 10  8  2  0  0  0  0
 10  6  1  0  0  0  0
 11 12  1  0  0  0  0
 12  3  2  0  0  0  0
 12  8  1  0  0  0  0
 13 16  2  0  0  0  0
 14  1  1  0  0  0  0
 14  3  1  0  0  0  0
 15 14  2  0  0  0  0
 17 20  1  1  0  0  0
 18 24  1  6  0  0  0
 18 17  1  0  0  0  0
 19 21  1  0  0  0  0
 20 21  1  0  0  0  0
 21  1  1  1  0  0  0
 22 18  1  0  0  0  0
 22 17  1  0  0  0  0
 22 19  1  1  0  0  0
 24 23  1  0  0  0  0
 25 26  1  6  0  0  0
 27 25  1  0  0  0  0
 28 27  1  0  0  0  0
 29 28  2  0  0  0  0
 30 31  1  0  0  0  0
 30 28  1  0  0  0  0
 32 34  1  1  0  0  0
 32 35  1  0  0  0  0
 33 31  1  6  0  0  0
 33 34  1  0  0  0  0
 33 32  1  0  0  0  0
 35 36  1  1  0  0  0
 35 40  1  0  0  0  0
 35 39  1  0  0  0  0
 37 38  1  0  0  0  0
 39 37  1  0  0  0  0
 40 36  1  1  0  0  0
 40 38  1  0  0  0  0
 41 31  1  0  0  0  0
 42 43  1  0  0  0  0
 43 41  1  0  0  0  0
M  END
>  <MODEL>
5

>  <REMARK>
 VINA RESULT:      -9.7      1.733      2.116
  Name = 
  10 active torsions:
  status: ('A' for Active; 'I' for Inactive)
    1  A    between atoms: N_1  and  C_35
    2  A    between atoms: C_2  and  N_6
    3  A    between atoms: C_2  and  C_13
    4  A    between atoms: C_3  and  N_4
    5  A    between atoms: C_3  and  C_12
    6  A    between atoms: N_4  and  C_15
    7  A    between atoms: N_4  and  C_22
    8  A    between atoms: C_11  and  C_14
    9  A    between atoms: C_15  and  C_42
   10  A    between atoms: C_19  and  C_37
                            x       y       z     vdW  Elec       q    Type
                         _______ _______ _______ _____ _____    ______ ____

>  <TORSDO>
F 10

$$$$
=
 OpenBabel11052416193D

 43 50  0  0  1  0  0  0  0  0999 V2000
  186.7340  178.2880  146.8880 N   0  0  0  0  0  2  0  0  0  0  0  0
  181.8640  179.0040  141.2210 C   0  0  0  0  0  0  0  0  0  0  0  0
  185.3950  178.2340  144.7540 C   0  0  0  0  0  0  0  0  0  0  0  0
  187.6280  177.0680  143.4600 C   0  0  2  0  0  3  0  0  0  0  0  0
  183.0390  178.7440  143.3230 C   0  0  0  0  0  0  0  0  0  0  0  0
  183.0480  178.7510  140.5230 C   0  0  0  0  0  3  0  0  0  0  0  0
  180.6910  179.2600  140.5240 O   0  0  0  0  0  1  0  0  0  0  0  0
  184.2410  178.4850  142.6230 C   0  0  0  0  0  0  0  0  0  0  0  0
  181.8600  179.0020  142.6180 C   0  0  0  0  0  3  0  0  0  0  0  0
  184.2310  178.4930  141.2200 C   0  0  0  0  0  3  0  0  0  0  0  0
  186.7420  178.0180  142.6470 C   0  0  0  0  0  2  0  0  0  0  0  0
  185.4210  178.2220  143.3450 C   0  0  0  0  0  0  0  0  0  0  0  0
  184.2000  178.4980  145.4320 C   0  0  0  0  0  3  0  0  0  0  0  0
  186.6460  177.9680  145.4950 C   0  0  0  0  0  0  0  0  0  0  0  0
  187.6800  177.4870  144.8660 N   0  0  0  0  0  0  0  0  0  0  0  0
  183.0270  178.7500  144.7190 C   0  0  0  0  0  3  0  0  0  0  0  0
  189.8560  176.6170  147.7180 C   0  0  2  0  0  3  0  0  0  0  0  0
  190.3340  176.7410  146.2830 C   0  0  1  0  0  3  0  0  0  0  0  0
  189.1060  178.8020  146.9230 C   0  0  0  0  0  2  0  0  0  0  0  0
  188.3400  176.6810  147.7680 C   0  0  0  0  0  2  0  0  0  0  0  0
  187.9620  178.1430  147.6560 C   0  0  2  0  0  3  0  0  0  0  0  0
  190.3390  177.9560  147.1880 C   0  0  1  0  0  3  0  0  0  0  0  0
  192.3790  176.3150  147.4110 O   0  0  0  0  0  1  0  0  0  0  0  0
  191.7400  176.1890  146.1780 C   0  0  0  0  0  2  0  0  0  0  0  0
  189.0330  176.9930  142.8680 C   0  0  1  0  0  3  0  0  0  0  0  0
  189.6560  175.6340  143.1420 C   0  0  0  0  0  1  0  0  0  0  0  0
  188.9750  177.2100  141.4290 N   0  0  0  0  0  2  0  0  0  0  0  0
  190.1440  177.4180  140.6350 C   0  0  0  0  0  0  0  0  0  0  0  0
  191.2850  177.4650  141.1680 O   0  0  0  0  0  0  0  0  0  0  0  0
  190.0060  177.6300  139.1680 C   0  0  0  0  0  2  0  0  0  0  0  0
  189.4110  176.4530  138.5540 N   0  0  0  0  0  0  0  0  0  0  0  0
  187.2080  176.3190  137.5960 C   0  0  2  0  0  3  0  0  0  0  0  0
  188.5540  176.9290  137.4780 C   0  0  2  0  0  3  0  0  0  0  0  0
  188.1570  175.8410  136.6750 O   0  0  0  0  0  0  0  0  0  0  0  0
  186.1490  177.1530  136.8770 C   0  0  1  0  0  0  0  0  0  0  0  0
  185.5010  178.2600  137.6760 C   0  0  0  0  0  2  0  0  0  0  0  0
  184.6300  176.8330  135.0170 C   0  0  0  0  0  2  0  0  0  0  0  0
  183.8130  177.0770  136.2700 C   0  0  0  0  0  2  0  0  0  0  0  0
  186.0460  177.2390  135.3610 C   0  0  0  0  0  2  0  0  0  0  0  0
  184.7630  176.9480  137.4480 C   0  0  1  0  0  3  0  0  0  0  0  0
  190.4940  175.7020  137.9330 C   0  0  0  0  0  2  0  0  0  0  0  0
  193.2210  176.0230  137.7910 S   0  0  0  0  0  1  0  0  0  0  0  0
  191.5590  176.6480  137.4010 C   0  0  0  0  0  2  0  0  0  0  0  0
  2  9  1  0  0  0  0
  3 13  1  0  0  0  0
  3 14  1  0  0  0  0
  4 25  1  6  0  0  0
  4 15  1  0  0  0  0
  5 16  1  0  0  0  0
  6 10  1  0  0  0  0
  6  2  2  0  0  0  0
  7  2  1  0  0  0  0
  8  5  1  0  0  0  0
  8 12  1  0  0  0  0
  9  5  2  0  0  0  0
 10  8  2  0  0  0  0
 11 12  1  0  0  0  0
 11  4  1  0  0  0  0
 12  3  2  0  0  0  0
 14  1  1  0  0  0  0
 15 14  2  0  0  0  0
 16 13  2  0  0  0  0
 17 20  1  6  0  0  0
 18 24  1  1  0  0  0
 18 22  1  0  0  0  0
 18 17  1  0  0  0  0
 19 21  1  0  0  0  0
 21  1  1  6  0  0  0
 21 20  1  0  0  0  0
 22 19  1  6  0  0  0
 22 17  1  0  0  0  0
 24 23  1  0  0  0  0
 25 26  1  6  0  0  0
 27 25  1  0  0  0  0
 28 29  2  0  0  0  0
 28 27  1  0  0  0  0
 30 28  1  0  0  0  0
 31 30  1  0  0  0  0
 32 34  1  6  0  0  0
 33 32  1  0  0  0  0
 33 31  1  1  0  0  0
 34 33  1  0  0  0  0
 35 39  1  6  0  0  0
 35 40  1  0  0  0  0
 35 32  1  0  0  0  0
 35 36  1  0  0  0  0
 37 39  1  0  0  0  0
 37 38  1  0  0  0  0
 40 38  1  6  0  0  0
 40 36  1  0  0  0  0
 41 31  1  0  0  0  0
 43 42  1  0  0  0  0
 43 41  1  0  0  0  0
M  END
>  <MODEL>
6

>  <REMARK>
 VINA RESULT:      -9.2      2.395      7.433
  Name = 
  10 active torsions:
  status: ('A' for Active; 'I' for Inactive)
    1  A    between atoms: N_1  and  C_35
    2  A    between atoms: C_2  and  N_6
    3  A    between atoms: C_2  and  C_13
    4  A    between atoms: C_3  and  N_4
    5  A    between atoms: C_3  and  C_12
    6  A    between atoms: N_4  and  C_15
    7  A    between atoms: N_4  and  C_22
    8  A    between atoms: C_11  and  C_14
    9  A    between atoms: C_15  and  C_42
   10  A    between atoms: C_19  and  C_37
                            x       y       z     vdW  Elec       q    Type
                         _______ _______ _______ _____ _____    ______ ____

>  <TORSDO>
F 10

$$$$
=
 OpenBabel11052416193D

 43 50  0  0  1  0  0  0  0  0999 V2000
  184.4350  178.3060  142.2430 N   0  0  0  0  0  2  0  0  0  0  0  0
  190.3070  176.8960  146.7020 C   0  0  0  0  0  0  0  0  0  0  0  0
  186.6590  178.0490  143.3980 C   0  0  0  0  0  0  0  0  0  0  0  0
  187.9290  178.7450  140.9650 C   0  0  2  0  0  3  0  0  0  0  0  0
  188.1880  177.4670  145.6750 C   0  0  0  0  0  0  0  0  0  0  0  0
  190.9220  176.9050  145.4480 C   0  0  0  0  0  3  0  0  0  0  0  0
  191.0520  176.6080  147.8370 O   0  0  0  0  0  1  0  0  0  0  0  0
  188.8060  177.4810  144.4010 C   0  0  0  0  0  0  0  0  0  0  0  0
  188.9420  177.1750  146.8160 C   0  0  0  0  0  3  0  0  0  0  0  0
  190.1760  177.1960  144.3030 C   0  0  0  0  0  3  0  0  0  0  0  0
  188.6290  177.7310  141.8760 C   0  0  0  0  0  2  0  0  0  0  0  0
  188.0360  177.7800  143.2610 C   0  0  0  0  0  0  0  0  0  0  0  0
  186.0620  178.0270  144.6630 C   0  0  0  0  0  3  0  0  0  0  0  0
  185.8660  178.3510  142.1890 C   0  0  0  0  0  0  0  0  0  0  0  0
  186.4710  178.6090  141.0650 N   0  0  0  0  0  0  0  0  0  0  0  0
  186.8240  177.7390  145.7970 C   0  0  0  0  0  3  0  0  0  0  0  0
  181.6610  177.4120  140.0680 C   0  0  2  0  0  3  0  0  0  0  0  0
  180.6900  177.4870  141.2320 C   0  0  1  0  0  3  0  0  0  0  0  0
  182.3710  179.3020  141.4430 C   0  0  0  0  0  2  0  0  0  0  0  0
  183.0680  177.1650  140.5810 C   0  0  0  0  0  2  0  0  0  0  0  0
  183.5930  178.4970  141.0710 C   0  0  2  0  0  3  0  0  0  0  0  0
  181.2220  178.7620  140.6090 C   0  0  1  0  0  3  0  0  0  0  0  0
  179.1460  175.8820  140.4090 O   0  0  0  0  0  1  0  0  0  0  0  0
  179.2860  177.2320  140.7250 C   0  0  0  0  0  2  0  0  0  0  0  0
  188.3870  178.5820  139.5170 C   0  0  1  0  0  3  0  0  0  0  0  0
  189.6800  177.7860  139.4520 C   0  0  0  0  0  1  0  0  0  0  0  0
  187.3600  177.8900  138.7490 N   0  0  0  0  0  2  0  0  0  0  0  0
  187.0210  178.2580  137.4120 C   0  0  0  0  0  0  0  0  0  0  0  0
  187.5760  179.2440  136.8550 O   0  0  0  0  0  0  0  0  0  0  0  0
  185.9630  177.5020  136.6890 C   0  0  0  0  0  2  0  0  0  0  0  0
  186.4920  176.9950  135.4320 N   0  0  0  0  0  0  0  0  0  0  0  0
  188.7310  176.1720  135.1140 C   0  0  2  0  0  3  0  0  0  0  0  0
  187.4230  175.9280  135.7690 C   0  0  2  0  0  3  0  0  0  0  0  0
  187.8060  175.2490  134.5940 O   0  0  0  0  0  0  0  0  0  0  0  0
  189.8630  175.4380  135.8300 C   0  0  1  0  0  0  0  0  0  0  0  0
  190.9510  176.2960  136.4340 C   0  0  0  0  0  2  0  0  0  0  0  0
  190.8690  173.2360  135.7240 C   0  0  0  0  0  2  0  0  0  0  0  0
  191.9190  174.2650  135.3530 C   0  0  0  0  0  2  0  0  0  0  0  0
  189.7330  174.0130  136.3500 C   0  0  0  0  0  2  0  0  0  0  0  0
  191.1880  175.5740  135.1130 C   0  0  1  0  0  3  0  0  0  0  0  0
  185.3810  176.3800  134.7180 C   0  0  0  0  0  2  0  0  0  0  0  0
  182.7370  175.7760  135.1650 S   0  0  0  0  0  1  0  0  0  0  0  0
  184.4720  175.6390  135.6870 C   0  0  0  0  0  2  0  0  0  0  0  0
  2  9  1  0  0  0  0
  2  7  1  0  0  0  0
  3 13  1  0  0  0  0
  4 25  1  6  0  0  0
  4 15  1  0  0  0  0
  4 11  1  0  0  0  0
  5 16  1  0  0  0  0
  5  9  2  0  0  0  0
  6  2  2  0  0  0  0
  8  5  1  0  0  0  0
 10  8  2  0  0  0  0
 10  6  1  0  0  0  0
 11 12  1  0  0  0  0
 12  3  2  0  0  0  0
 12  8  1  0  0  0  0
 13 16  2  0  0  0  0
 14  1  1  0  0  0  0
 14  3  1  0  0  0  0
 15 14  2  0  0  0  0
 17 20  1  1  0  0  0
 17 22  1  0  0  0  0
 17 18  1  0  0  0  0
 18 24  1  6  0  0  0
 20 21  1  0  0  0  0
 21 19  1  0  0  0  0
 21  1  1  1  0  0  0
 22 18  1  0  0  0  0
 22 19  1  1  0  0  0
 23 24  1  0  0  0  0
 25 26  1  1  0  0  0
 27 25  1  0  0  0  0
 28 27  1  0  0  0  0
 29 28  2  0  0  0  0
 30 28  1  0  0  0  0
 31 30  1  0  0  0  0
 32 34  1  6  0  0  0
 32 33  1  0  0  0  0
 32 35  1  0  0  0  0
 33 31  1  6  0  0  0
 34 33  1  0  0  0  0
 35 39  1  1  0  0  0
 35 36  1  0  0  0  0
 37 39  1  0  0  0  0
 38 37  1  0  0  0  0
 40 38  1  1  0  0  0
 40 35  1  0  0  0  0
 40 36  1  0  0  0  0
 41 31  1  0  0  0  0
 41 43  1  0  0  0  0
 42 43  1  0  0  0  0
M  END
>  <MODEL>
7

>  <REMARK>
 VINA RESULT:      -9.0      2.673      4.662
  Name = 
  10 active torsions:
  status: ('A' for Active; 'I' for Inactive)
    1  A    between atoms: N_1  and  C_35
    2  A    between atoms: C_2  and  N_6
    3  A    between atoms: C_2  and  C_13
    4  A    between atoms: C_3  and  N_4
    5  A    between atoms: C_3  and  C_12
    6  A    between atoms: N_4  and  C_15
    7  A    between atoms: N_4  and  C_22
    8  A    between atoms: C_11  and  C_14
    9  A    between atoms: C_15  and  C_42
   10  A    between atoms: C_19  and  C_37
                            x       y       z     vdW  Elec       q    Type
                         _______ _______ _______ _____ _____    ______ ____

>  <TORSDO>
F 10

$$$$
=
 OpenBabel11052416193D

 43 50  0  0  1  0  0  0  0  0999 V2000
  188.5130  177.9310  143.7610 N   0  0  0  0  0  2  0  0  0  0  0  0
  181.4840  179.1350  141.4150 C   0  0  0  0  0  0  0  0  0  0  0  0
  186.3100  178.1600  142.5570 C   0  0  0  0  0  0  0  0  0  0  0  0
  187.6770  177.7390  140.1130 C   0  0  2  0  0  3  0  0  0  0  0  0
  183.5390  178.5850  142.5740 C   0  0  0  0  0  0  0  0  0  0  0  0
  182.1900  179.2640  140.2150 C   0  0  0  0  0  3  0  0  0  0  0  0
  180.1120  179.3440  141.4370 O   0  0  0  0  0  1  0  0  0  0  0  0
  184.2600  178.7110  141.3620 C   0  0  0  0  0  0  0  0  0  0  0  0
  182.1580  178.7980  142.5920 C   0  0  0  0  0  3  0  0  0  0  0  0
  183.5710  179.0530  140.1890 C   0  0  0  0  0  3  0  0  0  0  0  0
  186.4740  178.6890  140.1100 C   0  0  0  0  0  2  0  0  0  0  0  0
  185.6510  178.4910  141.3570 C   0  0  0  0  0  0  0  0  0  0  0  0
  185.5850  178.0450  143.7480 C   0  0  0  0  0  3  0  0  0  0  0  0
  187.7720  177.9430  142.5340 C   0  0  0  0  0  0  0  0  0  0  0  0
  188.3880  177.8120  141.3950 N   0  0  0  0  0  0  0  0  0  0  0  0
  184.2050  178.2540  143.7560 C   0  0  0  0  0  3  0  0  0  0  0  0
  191.6760  177.5230  145.5080 C   0  0  2  0  0  3  0  0  0  0  0  0
  191.1890  176.2340  146.1430 C   0  0  1  0  0  3  0  0  0  0  0  0
  190.3650  176.3630  143.8040 C   0  0  0  0  0  2  0  0  0  0  0  0
  190.4920  178.3840  145.1070 C   0  0  0  0  0  2  0  0  0  0  0  0
  189.9630  177.8190  143.8060 C   0  0  2  0  0  3  0  0  0  0  0  0
  191.5980  176.2500  144.6830 C   0  0  1  0  0  3  0  0  0  0  0  0
  192.5070  176.4070  148.1100 O   0  0  0  0  0  1  0  0  0  0  0  0
  192.3080  175.6330  146.9680 C   0  0  0  0  0  2  0  0  0  0  0  0
  188.6210  178.0510  138.9540 C   0  0  1  0  0  3  0  0  0  0  0  0
  190.0120  177.5100  139.2400 C   0  0  0  0  0  1  0  0  0  0  0  0
  188.1160  177.4460  137.7290 N   0  0  0  0  0  2  0  0  0  0  0  0
  187.6240  178.2210  136.6350 C   0  0  0  0  0  0  0  0  0  0  0  0
  187.5670  179.4790  136.7110 O   0  0  0  0  0  0  0  0  0  0  0  0
  187.1270  177.5320  135.4130 C   0  0  0  0  0  2  0  0  0  0  0  0
  186.7110  176.1780  135.7450 N   0  0  0  0  0  0  0  0  0  0  0  0
  184.8660  175.8000  137.2430 C   0  0  2  0  0  3  0  0  0  0  0  0
  185.2610  176.2050  135.8720 C   0  0  2  0  0  3  0  0  0  0  0  0
  184.7890  174.9070  136.1590 O   0  0  0  0  0  0  0  0  0  0  0  0
  183.4730  176.3160  137.6010 C   0  0  1  0  0  0  0  0  0  0  0  0
  182.9110  175.8800  138.9340 C   0  0  0  0  0  2  0  0  0  0  0  0
  181.5210  177.0830  136.3870 C   0  0  0  0  0  2  0  0  0  0  0  0
  181.1440  175.8420  137.1730 C   0  0  0  0  0  2  0  0  0  0  0  0
  182.8470  177.5420  136.9510 C   0  0  0  0  0  2  0  0  0  0  0  0
  182.4400  175.2110  137.6490 C   0  0  1  0  0  3  0  0  0  0  0  0
  187.0210  175.3420  134.5940 C   0  0  0  0  0  2  0  0  0  0  0  0
  188.1870  173.9450  136.6540 S   0  0  0  0  0  1  0  0  0  0  0  0
  188.1970  174.4280  134.9020 C   0  0  0  0  0  2  0  0  0  0  0  0
  2  7  1  0  0  0  0
  2  9  1  0  0  0  0
  3 13  1  0  0  0  0
  4 25  1  6  0  0  0
  4 15  1  0  0  0  0
  5  9  2  0  0  0  0
  5 16  1  0  0  0  0
  6  2  2  0  0  0  0
  8  5  1  0  0  0  0
 10  6  1  0  0  0  0
 10  8  2  0  0  0  0
 11  4  1  0  0  0  0
 11 12  1  0  0  0  0
 12  8  1  0  0  0  0
 12  3  2  0  0  0  0
 13 16  2  0  0  0  0
 14  3  1  0  0  0  0
 14  1  1  0  0  0  0
 15 14  2  0  0  0  0
 17 20  1  6  0  0  0
 17 18  1  0  0  0  0
 18 24  1  1  0  0  0
 19 21  1  0  0  0  0
 21  1  1  1  0  0  0
 21 20  1  0  0  0  0
 22 19  1  6  0  0  0
 22 17  1  0  0  0  0
 22 18  1  0  0  0  0
 24 23  1  0  0  0  0
 25 26  1  1  0  0  0
 27 25  1  0  0  0  0
 28 29  2  0  0  0  0
 28 27  1  0  0  0  0
 30 31  1  0  0  0  0
 30 28  1  0  0  0  0
 32 34  1  6  0  0  0
 32 35  1  0  0  0  0
 33 31  1  1  0  0  0
 33 34  1  0  0  0  0
 33 32  1  0  0  0  0
 35 39  1  6  0  0  0
 35 40  1  0  0  0  0
 35 36  1  0  0  0  0
 37 39  1  0  0  0  0
 37 38  1  0  0  0  0
 40 38  1  6  0  0  0
 40 36  1  0  0  0  0
 41 43  1  0  0  0  0
 41 31  1  0  0  0  0
 43 42  1  0  0  0  0
M  END
>  <MODEL>
8

>  <REMARK>
 VINA RESULT:      -9.0      2.723      8.072
  Name = 
  10 active torsions:
  status: ('A' for Active; 'I' for Inactive)
    1  A    between atoms: N_1  and  C_35
    2  A    between atoms: C_2  and  N_6
    3  A    between atoms: C_2  and  C_13
    4  A    between atoms: C_3  and  N_4
    5  A    between atoms: C_3  and  C_12
    6  A    between atoms: N_4  and  C_15
    7  A    between atoms: N_4  and  C_22
    8  A    between atoms: C_11  and  C_14
    9  A    between atoms: C_15  and  C_42
   10  A    between atoms: C_19  and  C_37
                            x       y       z     vdW  Elec       q    Type
                         _______ _______ _______ _____ _____    ______ ____

>  <TORSDO>
F 10

$$$$
=
 OpenBabel11052416193D

 43 50  0  0  1  0  0  0  0  0999 V2000
  187.9660  178.2590  145.9710 N   0  0  0  0  0  2  0  0  0  0  0  0
  181.2760  179.0400  142.6570 C   0  0  0  0  0  0  0  0  0  0  0  0
  185.9250  178.2900  144.4930 C   0  0  0  0  0  0  0  0  0  0  0  0
  187.5700  177.5390  142.3150 C   0  0  2  0  0  3  0  0  0  0  0  0
  183.1740  178.6830  144.1190 C   0  0  0  0  0  0  0  0  0  0  0  0
  182.1200  179.0030  141.5440 C   0  0  0  0  0  3  0  0  0  0  0  0
  179.9120  179.2350  142.4850 O   0  0  0  0  0  1  0  0  0  0  0  0
  184.0360  178.6420  142.9960 C   0  0  0  0  0  0  0  0  0  0  0  0
  181.8020  178.8810  143.9420 C   0  0  0  0  0  3  0  0  0  0  0  0
  183.4930  178.8060  141.7120 C   0  0  0  0  0  3  0  0  0  0  0  0
  186.3830  178.4650  142.0320 C   0  0  0  0  0  2  0  0  0  0  0  0
  185.4150  178.4380  143.1880 C   0  0  0  0  0  0  0  0  0  0  0  0
  185.0620  178.3380  145.5940 C   0  0  0  0  0  3  0  0  0  0  0  0
  187.3770  178.0880  144.6760 C   0  0  0  0  0  0  0  0  0  0  0  0
  188.1240  177.8020  143.6480 N   0  0  0  0  0  0  0  0  0  0  0  0
  183.6920  178.5320  145.4070 C   0  0  0  0  0  3  0  0  0  0  0  0
  191.1210  176.4540  146.1010 C   0  0  2  0  0  3  0  0  0  0  0  0
  190.9560  176.0090  144.6590 C   0  0  1  0  0  3  0  0  0  0  0  0
  190.1430  178.3430  144.9000 C   0  0  0  0  0  2  0  0  0  0  0  0
  189.7660  176.7880  146.7000 C   0  0  0  0  0  2  0  0  0  0  0  0
  189.4000  178.1700  146.2040 C   0  0  2  0  0  3  0  0  0  0  0  0
  191.3600  177.4370  144.9680 C   0  0  1  0  0  3  0  0  0  0  0  0
  192.5320  174.3360  145.2540 O   0  0  0  0  0  1  0  0  0  0  0  0
  192.1800  175.2240  144.2390 C   0  0  0  0  0  2  0  0  0  0  0  0
  188.6480  177.6920  141.2440 C   0  0  1  0  0  3  0  0  0  0  0  0
  189.8060  176.7450  141.5130 C   0  0  0  0  0  1  0  0  0  0  0  0
  188.0860  177.3980  139.9320 N   0  0  0  0  0  2  0  0  0  0  0  0
  188.3490  178.2060  138.7850 C   0  0  0  0  0  0  0  0  0  0  0  0
  189.0550  179.2470  138.8780 O   0  0  0  0  0  0  0  0  0  0  0  0
  187.7430  177.8410  137.4760 C   0  0  0  0  0  2  0  0  0  0  0  0
  188.1770  176.5080  137.0860 N   0  0  0  0  0  0  0  0  0  0  0  0
  186.8170  174.5280  136.9680 C   0  0  2  0  0  3  0  0  0  0  0  0
  187.0500  175.8820  136.4110 C   0  0  2  0  0  3  0  0  0  0  0  0
  187.4880  174.7170  135.7470 O   0  0  0  0  0  0  0  0  0  0  0  0
  185.3850  174.0560  136.7160 C   0  0  1  0  0  0  0  0  0  0  0  0
  184.3950  174.2670  137.8380 C   0  0  0  0  0  2  0  0  0  0  0  0
  184.3050  172.4060  135.3090 C   0  0  0  0  0  2  0  0  0  0  0  0
  184.0520  172.0440  136.7590 C   0  0  0  0  0  2  0  0  0  0  0  0
  184.8180  173.8290  135.3220 C   0  0  0  0  0  2  0  0  0  0  0  0
  184.9960  172.8880  137.5960 C   0  0  1  0  0  3  0  0  0  0  0  0
  189.2280  176.6760  136.0910 C   0  0  0  0  0  2  0  0  0  0  0  0
  190.6080  174.8250  137.5830 S   0  0  0  0  0  1  0  0  0  0  0  0
  190.5930  176.4200  136.7120 C   0  0  0  0  0  2  0  0  0  0  0  0
  2  9  1  0  0  0  0
  3 14  1  0  0  0  0
  3 13  1  0  0  0  0
  4 25  1  6  0  0  0
  4 15  1  0  0  0  0
  5 16  1  0  0  0  0
  6 10  1  0  0  0  0
  6  2  2  0  0  0  0
  7  2  1  0  0  0  0
  8 12  1  0  0  0  0
  8  5  1  0  0  0  0
  9  5  2  0  0  0  0
 10  8  2  0  0  0  0
 11  4  1  0  0  0  0
 11 12  1  0  0  0  0
 12  3  2  0  0  0  0
 14  1  1  0  0  0  0
 15 14  2  0  0  0  0
 16 13  2  0  0  0  0
 17 20  1  1  0  0  0
 18 24  1  6  0  0  0
 18 22  1  0  0  0  0
 18 17  1  0  0  0  0
 19 21  1  0  0  0  0
 21  1  1  6  0  0  0
 21 20  1  0  0  0  0
 22 19  1  1  0  0  0
 22 17  1  0  0  0  0
 24 23  1  0  0  0  0
 25 26  1  1  0  0  0
 27 25  1  0  0  0  0
 28 29  2  0  0  0  0
 28 27  1  0  0  0  0
 30 28  1  0  0  0  0
 31 30  1  0  0  0  0
 32 34  1  6  0  0  0
 33 32  1  0  0  0  0
 33 31  1  1  0  0  0
 34 33  1  0  0  0  0
 35 39  1  6  0  0  0
 35 32  1  0  0  0  0
 35 40  1  0  0  0  0
 35 36  1  0  0  0  0
 37 39  1  0  0  0  0
 37 38  1  0  0  0  0
 40 38  1  6  0  0  0
 40 36  1  0  0  0  0
 41 43  1  0  0  0  0
 41 31  1  0  0  0  0
 43 42  1  0  0  0  0
M  END
>  <MODEL>
9

>  <REMARK>
 VINA RESULT:      -9.0      3.186      7.525
  Name = 
  10 active torsions:
  status: ('A' for Active; 'I' for Inactive)
    1  A    between atoms: N_1  and  C_35
    2  A    between atoms: C_2  and  N_6
    3  A    between atoms: C_2  and  C_13
    4  A    between atoms: C_3  and  N_4
    5  A    between atoms: C_3  and  C_12
    6  A    between atoms: N_4  and  C_15
    7  A    between atoms: N_4  and  C_22
    8  A    between atoms: C_11  and  C_14
    9  A    between atoms: C_15  and  C_42
   10  A    between atoms: C_19  and  C_37
                            x       y       z     vdW  Elec       q    Type
                         _______ _______ _______ _____ _____    ______ ____

>  <TORSDO>
F 10

$$$$
