=
 OpenBabel11052412423D

 25 27  0  0  1  0  0  0  0  0999 V2000
  187.0190  177.7450  146.3560 C   0  0  1  0  0  3  0  0  0  0  0  0
  188.3700  177.1520  145.9290 C   0  0  1  0  0  3  0  0  0  0  0  0
  188.4750  178.9720  148.0670 C   0  0  0  0  0  2  0  0  0  0  0  0
  188.9970  177.5800  148.4180 C   0  0  0  0  0  2  0  0  0  0  0  0
  190.5890  176.3770  146.8910 C   0  0  0  0  0  0  0  0  0  0  0  0
  191.1500  175.4650  147.4770 O   0  0  0  0  0  0  0  0  0  0  0  0
  189.1830  178.1410  145.0820 C   0  0  0  0  0  2  0  0  0  0  0  0
  187.1120  178.8980  147.3720 C   0  0  0  0  0  2  0  0  0  0  0  0
  191.3650  177.2360  145.9410 C   0  0  0  0  0  2  0  0  0  0  0  0
  190.5310  177.5370  144.7000 C   0  0  2  0  0  3  0  0  0  0  0  0
  189.1460  176.6750  147.1820 C   0  0  2  0  0  3  0  0  0  0  0  0
  186.0670  177.9980  145.2200 C   0  0  0  0  0  0  0  0  0  0  0  0
  184.4030  178.4800  143.0120 C   0  0  0  0  0  3  0  0  0  0  0  0
  184.7640  178.5070  145.4090 C   0  0  0  0  0  0  0  0  0  0  0  0
  183.9410  178.7420  144.3040 C   0  0  0  0  0  3  0  0  0  0  0  0
  185.6930  177.9820  142.8210 C   0  0  0  0  0  3  0  0  0  0  0  0
  184.2760  178.7780  146.6820 O   0  0  0  0  0  1  0  0  0  0  0  0
  186.5210  177.7440  143.9200 C   0  0  0  0  0  3  0  0  0  0  0  0
  191.2870  178.4410  143.7300 C   0  0  0  0  0  2  0  0  0  0  0  0
  191.4340  177.8170  142.3450 C   0  0  0  0  0  2  0  0  0  0  0  0
  190.0700  177.4940  141.7600 C   0  0  1  0  0  3  0  0  0  0  0  0
  189.2230  178.5690  141.9520 F   0  0  0  0  0  0  0  0  0  0  0  0
  190.1780  177.1980  140.3010 C   0  0  0  0  0  0  0  0  0  0  0  0
  189.7480  178.1270  139.3620 O   0  0  0  0  0  0  0  0  0  0  0  0
  190.6760  176.1070  139.9190 O   0  0  0  0  0  1  0  0  0  0  0  0
  1 12  1  6  0  0  0
  1  8  1  0  0  0  0
  2  7  1  1  0  0  0
  2  1  1  0  0  0  0
  2 11  1  0  0  0  0
  3  4  1  0  0  0  0
  5 11  1  0  0  0  0
  5  6  2  0  0  0  0
  8  3  1  0  0  0  0
  9  5  1  0  0  0  0
 10 19  1  6  0  0  0
 10  7  1  0  0  0  0
 10  9  1  0  0  0  0
 11  4  1  1  0  0  0
 12 14  1  0  0  0  0
 13 15  1  0  0  0  0
 14 17  1  0  0  0  0
 15 14  2  0  0  0  0
 16 13  2  0  0  0  0
 16 18  1  0  0  0  0
 18 12  2  0  0  0  0
 20 19  1  0  0  0  0
 21 22  1  6  0  0  0
 21 20  1  0  0  0  0
 23 21  1  0  0  0  0
 24 23  2  0  0  0  0
 25 23  1  0  0  0  0
M  END
>  <MODEL>
1

>  <REMARK>
 VINA RESULT:      -9.2      0.000      0.000
  Name = 
  5 active torsions:
  status: ('A' for Active; 'I' for Inactive)
    1  A    between atoms: C_1  and  C_5
    2  A    between atoms: C_2  and  C_21
    3  A    between atoms: C_6  and  C_15
    4  A    between atoms: C_6  and  C_23
    5  A    between atoms: C_15  and  C_21
                            x       y       z     vdW  Elec       q    Type
                         _______ _______ _______ _____ _____    ______ ____

>  <TORSDO>
F 5

$$$$
=
 OpenBabel11052412423D

 25 27  0  0  1  0  0  0  0  0999 V2000
  189.9700  177.3650  144.6460 C   0  0  1  0  0  3  0  0  0  0  0  0
  189.3540  177.0440  143.2750 C   0  0  1  0  0  3  0  0  0  0  0  0
  191.5010  178.8560  143.2380 C   0  0  0  0  0  2  0  0  0  0  0  0
  191.7480  177.5930  142.4150 C   0  0  0  0  0  2  0  0  0  0  0  0
  189.9970  176.7170  140.8400 C   0  0  0  0  0  0  0  0  0  0  0  0
  190.4830  175.9340  140.0410 O   0  0  0  0  0  0  0  0  0  0  0  0
  188.4310  178.1690  142.7900 C   0  0  0  0  0  2  0  0  0  0  0  0
  190.9900  178.5170  144.6420 C   0  0  0  0  0  2  0  0  0  0  0  0
  188.9740  177.7080  140.3790 C   0  0  0  0  0  2  0  0  0  0  0  0
  187.8600  177.8380  141.4140 C   0  0  2  0  0  3  0  0  0  0  0  0
  190.4830  176.7300  142.2620 C   0  0  2  0  0  3  0  0  0  0  0  0
  188.9750  177.4250  145.7720 C   0  0  0  0  0  0  0  0  0  0  0  0
  187.0400  177.6250  147.7950 C   0  0  0  0  0  3  0  0  0  0  0  0
  189.3130  177.1350  147.1110 C   0  0  0  0  0  0  0  0  0  0  0  0
  188.3430  177.2360  148.1130 C   0  0  0  0  0  3  0  0  0  0  0  0
  186.7020  177.9180  146.4720 C   0  0  0  0  0  3  0  0  0  0  0  0
  190.6020  176.7460  147.4590 O   0  0  0  0  0  1  0  0  0  0  0  0
  187.6670  177.8200  145.4660 C   0  0  0  0  0  3  0  0  0  0  0  0
  186.8200  178.8680  140.9830 C   0  0  0  0  0  2  0  0  0  0  0  0
  185.8740  179.2520  142.1170 C   0  0  0  0  0  2  0  0  0  0  0  0
  184.8530  178.1520  142.3520 C   0  0  1  0  0  3  0  0  0  0  0  0
  184.7850  177.8720  143.7040 F   0  0  0  0  0  0  0  0  0  0  0  0
  183.5060  178.5680  141.8600 C   0  0  0  0  0  0  0  0  0  0  0  0
  182.5080  178.9210  142.7600 O   0  0  0  0  0  1  0  0  0  0  0  0
  183.2790  178.6130  140.6230 O   0  0  0  0  0  0  0  0  0  0  0  0
  1 12  1  1  0  0  0
  2  7  1  6  0  0  0
  2  1  1  0  0  0  0
  3  8  1  0  0  0  0
  4  3  1  0  0  0  0
  5 11  1  0  0  0  0
  6  5  2  0  0  0  0
  8  1  1  0  0  0  0
  9  5  1  0  0  0  0
  9 10  1  0  0  0  0
 10 19  1  6  0  0  0
 10  7  1  0  0  0  0
 11  4  1  6  0  0  0
 11  2  1  0  0  0  0
 12 14  1  0  0  0  0
 13 15  1  0  0  0  0
 14 17  1  0  0  0  0
 14 15  2  0  0  0  0
 16 13  2  0  0  0  0
 18 12  2  0  0  0  0
 18 16  1  0  0  0  0
 19 20  1  0  0  0  0
 20 21  1  0  0  0  0
 21 22  1  1  0  0  0
 23 21  1  0  0  0  0
 23 24  1  0  0  0  0
 25 23  2  0  0  0  0
M  END
>  <MODEL>
2

>  <REMARK>
 VINA RESULT:      -8.5      2.135      5.474
  Name = 
  5 active torsions:
  status: ('A' for Active; 'I' for Inactive)
    1  A    between atoms: C_1  and  C_5
    2  A    between atoms: C_2  and  C_21
    3  A    between atoms: C_6  and  C_15
    4  A    between atoms: C_6  and  C_23
    5  A    between atoms: C_15  and  C_21
                            x       y       z     vdW  Elec       q    Type
                         _______ _______ _______ _____ _____    ______ ____

>  <TORSDO>
F 5

$$$$
=
 OpenBabel11052412423D

 25 27  0  0  1  0  0  0  0  0999 V2000
  188.6730  178.1450  141.7080 C   0  0  1  0  0  3  0  0  0  0  0  0
  189.2770  178.4880  143.0780 C   0  0  1  0  0  3  0  0  0  0  0  0
  190.4710  176.3220  141.7440 C   0  0  0  0  0  2  0  0  0  0  0  0
  191.4350  177.4700  142.0390 C   0  0  0  0  0  2  0  0  0  0  0  0
  191.4990  178.5500  144.3070 C   0  0  0  0  0  0  0  0  0  0  0  0
  192.5300  179.1850  144.4580 O   0  0  0  0  0  0  0  0  0  0  0  0
  188.8010  177.5190  144.1680 C   0  0  0  0  0  2  0  0  0  0  0  0
  189.1820  176.8300  141.0890 C   0  0  0  0  0  2  0  0  0  0  0  0
  190.9590  177.7320  145.4390 C   0  0  0  0  0  2  0  0  0  0  0  0
  189.4410  177.8650  145.5100 C   0  0  2  0  0  3  0  0  0  0  0  0
  190.8210  178.5340  142.9660 C   0  0  2  0  0  3  0  0  0  0  0  0
  187.1830  178.3300  141.6250 C   0  0  0  0  0  0  0  0  0  0  0  0
  184.3900  178.6040  141.5910 C   0  0  0  0  0  3  0  0  0  0  0  0
  186.5090  178.5880  140.4120 C   0  0  0  0  0  0  0  0  0  0  0  0
  185.1170  178.7250  140.4040 C   0  0  0  0  0  3  0  0  0  0  0  0
  185.0530  178.3430  142.7910 C   0  0  0  0  0  3  0  0  0  0  0  0
  187.2040  178.7140  139.2150 O   0  0  0  0  0  1  0  0  0  0  0  0
  186.4430  178.2050  142.8070 C   0  0  0  0  0  3  0  0  0  0  0  0
  188.8620  177.0130  146.6360 C   0  0  0  0  0  2  0  0  0  0  0  0
  187.6470  177.6620  147.2930 C   0  0  0  0  0  2  0  0  0  0  0  0
  186.6070  178.0240  146.2470 C   0  0  1  0  0  3  0  0  0  0  0  0
  186.0030  176.8710  145.7830 F   0  0  0  0  0  0  0  0  0  0  0  0
  185.5720  178.9330  146.8230 C   0  0  0  0  0  0  0  0  0  0  0  0
  184.2360  178.7900  146.4680 O   0  0  0  0  0  0  0  0  0  0  0  0
  185.9100  179.8220  147.6460 O   0  0  0  0  0  1  0  0  0  0  0  0
  1 12  1  1  0  0  0
  1  2  1  0  0  0  0
  2  7  1  1  0  0  0
  3  4  1  0  0  0  0
  5  6  2  0  0  0  0
  5  9  1  0  0  0  0
  7 10  1  0  0  0  0
  8  1  1  0  0  0  0
  8  3  1  0  0  0  0
  9 10  1  0  0  0  0
 10 19  1  1  0  0  0
 11  4  1  6  0  0  0
 11  2  1  0  0  0  0
 11  5  1  0  0  0  0
 12 18  1  0  0  0  0
 13 16  1  0  0  0  0
 14 12  2  0  0  0  0
 15 14  1  0  0  0  0
 15 13  2  0  0  0  0
 16 18  2  0  0  0  0
 17 14  1  0  0  0  0
 19 20  1  0  0  0  0
 21 22  1  1  0  0  0
 21 23  1  0  0  0  0
 21 20  1  0  0  0  0
 23 25  1  0  0  0  0
 24 23  2  0  0  0  0
M  END
>  <MODEL>
3

>  <REMARK>
 VINA RESULT:      -8.4      2.077      5.415
  Name = 
  5 active torsions:
  status: ('A' for Active; 'I' for Inactive)
    1  A    between atoms: C_1  and  C_5
    2  A    between atoms: C_2  and  C_21
    3  A    between atoms: C_6  and  C_15
    4  A    between atoms: C_6  and  C_23
    5  A    between atoms: C_15  and  C_21
                            x       y       z     vdW  Elec       q    Type
                         _______ _______ _______ _____ _____    ______ ____

>  <TORSDO>
F 5

$$$$
=
 OpenBabel11052412423D

 25 27  0  0  1  0  0  0  0  0999 V2000
  190.0300  177.3590  144.6880 C   0  0  1  0  0  3  0  0  0  0  0  0
  189.4030  177.0600  143.3180 C   0  0  1  0  0  3  0  0  0  0  0  0
  191.6000  178.8110  143.2800 C   0  0  0  0  0  2  0  0  0  0  0  0
  191.8090  177.5430  142.4540 C   0  0  0  0  0  2  0  0  0  0  0  0
  190.0310  176.7210  140.8800 C   0  0  0  0  0  0  0  0  0  0  0  0
  190.4930  175.9260  140.0780 O   0  0  0  0  0  0  0  0  0  0  0  0
  188.5100  178.2120  142.8370 C   0  0  0  0  0  2  0  0  0  0  0  0
  191.0820  178.4820  144.6850 C   0  0  0  0  0  2  0  0  0  0  0  0
  189.0350  177.7420  140.4240 C   0  0  0  0  0  2  0  0  0  0  0  0
  187.9270  177.9000  141.4620 C   0  0  2  0  0  3  0  0  0  0  0  0
  190.5200  176.7170  142.3010 C   0  0  2  0  0  3  0  0  0  0  0  0
  189.0400  177.4440  145.8160 C   0  0  0  0  0  0  0  0  0  0  0  0
  187.1130  177.6900  147.8420 C   0  0  0  0  0  3  0  0  0  0  0  0
  189.3810  177.1730  147.1590 C   0  0  0  0  0  0  0  0  0  0  0  0
  188.4150  177.2970  148.1620 C   0  0  0  0  0  3  0  0  0  0  0  0
  186.7730  177.9650  146.5170 C   0  0  0  0  0  3  0  0  0  0  0  0
  190.6670  176.7790  147.5080 O   0  0  0  0  0  1  0  0  0  0  0  0
  187.7340  177.8440  145.5090 C   0  0  0  0  0  3  0  0  0  0  0  0
  186.9160  178.9600  141.0350 C   0  0  0  0  0  2  0  0  0  0  0  0
  185.6380  178.9160  141.8680 C   0  0  0  0  0  2  0  0  0  0  0  0
  184.4680  178.4460  141.0220 C   0  0  1  0  0  3  0  0  0  0  0  0
  183.2920  178.9510  141.5460 F   0  0  0  0  0  0  0  0  0  0  0  0
  184.6210  178.9030  139.6090 C   0  0  0  0  0  0  0  0  0  0  0  0
  184.3940  180.2320  139.2720 O   0  0  0  0  0  1  0  0  0  0  0  0
  184.9710  178.0830  138.7210 O   0  0  0  0  0  0  0  0  0  0  0  0
  1 12  1  1  0  0  0
  2  7  1  6  0  0  0
  2  1  1  0  0  0  0
  3  8  1  0  0  0  0
  4  3  1  0  0  0  0
  5 11  1  0  0  0  0
  6  5  2  0  0  0  0
  8  1  1  0  0  0  0
  9  5  1  0  0  0  0
  9 10  1  0  0  0  0
 10 19  1  6  0  0  0
 10  7  1  0  0  0  0
 11  4  1  6  0  0  0
 11  2  1  0  0  0  0
 12 14  1  0  0  0  0
 13 15  1  0  0  0  0
 14 17  1  0  0  0  0
 14 15  2  0  0  0  0
 16 13  2  0  0  0  0
 18 12  2  0  0  0  0
 18 16  1  0  0  0  0
 19 20  1  0  0  0  0
 21 22  1  1  0  0  0
 21 20  1  0  0  0  0
 23 21  1  0  0  0  0
 24 23  1  0  0  0  0
 25 23  2  0  0  0  0
M  END
>  <MODEL>
4

>  <REMARK>
 VINA RESULT:      -8.3      2.354      5.289
  Name = 
  5 active torsions:
  status: ('A' for Active; 'I' for Inactive)
    1  A    between atoms: C_1  and  C_5
    2  A    between atoms: C_2  and  C_21
    3  A    between atoms: C_6  and  C_15
    4  A    between atoms: C_6  and  C_23
    5  A    between atoms: C_15  and  C_21
                            x       y       z     vdW  Elec       q    Type
                         _______ _______ _______ _____ _____    ______ ____

>  <TORSDO>
F 5

$$$$
=
 OpenBabel11052412423D

 25 27  0  0  1  0  0  0  0  0999 V2000
  186.8050  177.5390  144.6770 C   0  0  1  0  0  3  0  0  0  0  0  0
  187.5720  176.9990  143.4600 C   0  0  1  0  0  3  0  0  0  0  0  0
  189.1410  178.3080  145.3880 C   0  0  0  0  0  2  0  0  0  0  0  0
  189.5430  176.8530  145.1520 C   0  0  0  0  0  2  0  0  0  0  0  0
  189.7930  175.9450  142.8230 C   0  0  0  0  0  0  0  0  0  0  0  0
  190.4340  174.9060  142.8270 O   0  0  0  0  0  0  0  0  0  0  0  0
  187.9150  178.1130  142.4630 C   0  0  0  0  0  2  0  0  0  0  0  0
  187.6320  178.4410  145.6110 C   0  0  0  0  0  2  0  0  0  0  0  0
  190.0280  176.9570  141.7450 C   0  0  0  0  0  2  0  0  0  0  0  0
  188.7020  177.5530  141.2820 C   0  0  2  0  0  3  0  0  0  0  0  0
  188.8290  176.2310  143.9390 C   0  0  2  0  0  3  0  0  0  0  0  0
  185.4350  178.0700  144.3590 C   0  0  0  0  0  0  0  0  0  0  0  0
  182.9220  179.0870  143.6330 C   0  0  0  0  0  3  0  0  0  0  0  0
  184.5520  178.5550  145.3470 C   0  0  0  0  0  0  0  0  0  0  0  0
  183.3010  179.0580  144.9770 C   0  0  0  0  0  3  0  0  0  0  0  0
  183.7950  178.6130  142.6520 C   0  0  0  0  0  3  0  0  0  0  0  0
  184.9000  178.5400  146.6920 O   0  0  0  0  0  1  0  0  0  0  0  0
  185.0470  178.1090  143.0140 C   0  0  0  0  0  3  0  0  0  0  0  0
  188.9170  178.6130  140.2050 C   0  0  0  0  0  2  0  0  0  0  0  0
  189.4630  178.0250  138.9080 C   0  0  0  0  0  2  0  0  0  0  0  0
  188.7580  178.6370  137.7090 C   0  0  1  0  0  3  0  0  0  0  0  0
  189.5070  178.4040  136.5700 F   0  0  0  0  0  0  0  0  0  0  0  0
  187.3970  178.0490  137.5390 C   0  0  0  0  0  0  0  0  0  0  0  0
  186.2710  178.7550  137.9440 O   0  0  0  0  0  1  0  0  0  0  0  0
  187.2680  176.9130  137.0140 O   0  0  0  0  0  0  0  0  0  0  0  0
  1 12  1  6  0  0  0
  1  8  1  0  0  0  0
  2  7  1  6  0  0  0
  2 11  1  0  0  0  0
  2  1  1  0  0  0  0
  3  8  1  0  0  0  0
  4  3  1  0  0  0  0
  5  6  2  0  0  0  0
  5 11  1  0  0  0  0
  9  5  1  0  0  0  0
 10 19  1  6  0  0  0
 10  9  1  0  0  0  0
 10  7  1  0  0  0  0
 11  4  1  1  0  0  0
 12 14  1  0  0  0  0
 13 15  1  0  0  0  0
 14 17  1  0  0  0  0
 15 14  2  0  0  0  0
 16 18  1  0  0  0  0
 16 13  2  0  0  0  0
 18 12  2  0  0  0  0
 20 19  1  0  0  0  0
 21 22  1  6  0  0  0
 21 20  1  0  0  0  0
 23 21  1  0  0  0  0
 23 24  1  0  0  0  0
 25 23  2  0  0  0  0
M  END
>  <MODEL>
5

>  <REMARK>
 VINA RESULT:      -8.2      2.281      3.303
  Name = 
  5 active torsions:
  status: ('A' for Active; 'I' for Inactive)
    1  A    between atoms: C_1  and  C_5
    2  A    between atoms: C_2  and  C_21
    3  A    between atoms: C_6  and  C_15
    4  A    between atoms: C_6  and  C_23
    5  A    between atoms: C_15  and  C_21
                            x       y       z     vdW  Elec       q    Type
                         _______ _______ _______ _____ _____    ______ ____

>  <TORSDO>
F 5

$$$$
=
 OpenBabel11052412423D

 25 27  0  0  1  0  0  0  0  0999 V2000
  187.0130  177.7600  146.3120 C   0  0  1  0  0  3  0  0  0  0  0  0
  188.3990  177.1850  145.9790 C   0  0  1  0  0  3  0  0  0  0  0  0
  188.2870  178.8100  148.2690 C   0  0  0  0  0  2  0  0  0  0  0  0
  188.7590  177.3830  148.5480 C   0  0  0  0  0  2  0  0  0  0  0  0
  190.4960  176.2920  147.0980 C   0  0  0  0  0  0  0  0  0  0  0  0
  190.9840  175.3240  147.6580 O   0  0  0  0  0  0  0  0  0  0  0  0
  189.3040  178.2300  145.3140 C   0  0  0  0  0  2  0  0  0  0  0  0
  187.0060  178.8190  147.4290 C   0  0  0  0  0  2  0  0  0  0  0  0
  191.3750  177.2180  146.3160 C   0  0  0  0  0  2  0  0  0  0  0  0
  190.6810  177.6400  145.0240 C   0  0  2  0  0  3  0  0  0  0  0  0
  189.0320  176.5870  147.2600 C   0  0  2  0  0  3  0  0  0  0  0  0
  186.1910  178.1270  145.1080 C   0  0  0  0  0  0  0  0  0  0  0  0
  184.5620  178.8720  142.9470 C   0  0  0  0  0  3  0  0  0  0  0  0
  186.2800  177.4380  143.8790 C   0  0  0  0  0  0  0  0  0  0  0  0
  185.4660  177.8170  142.8070 C   0  0  0  0  0  3  0  0  0  0  0  0
  184.4670  179.5530  144.1620 C   0  0  0  0  0  3  0  0  0  0  0  0
  187.1690  176.3830  143.7090 O   0  0  0  0  0  1  0  0  0  0  0  0
  185.2770  179.1800  145.2380 C   0  0  0  0  0  3  0  0  0  0  0  0
  191.5430  178.6120  144.2240 C   0  0  0  0  0  2  0  0  0  0  0  0
  191.0750  178.7540  142.7790 C   0  0  0  0  0  2  0  0  0  0  0  0
  191.5510  177.5750  141.9470 C   0  0  1  0  0  3  0  0  0  0  0  0
  192.0790  176.6090  142.7830 F   0  0  0  0  0  0  0  0  0  0  0  0
  190.4240  176.9930  141.1610 C   0  0  0  0  0  0  0  0  0  0  0  0
  190.6790  176.1890  140.0570 O   0  0  0  0  0  0  0  0  0  0  0  0
  189.2360  177.2210  141.5080 O   0  0  0  0  0  1  0  0  0  0  0  0
  1 12  1  6  0  0  0
  1  8  1  0  0  0  0
  2  7  1  1  0  0  0
  2  1  1  0  0  0  0
  2 11  1  0  0  0  0
  3  4  1  0  0  0  0
  5 11  1  0  0  0  0
  5  6  2  0  0  0  0
  8  3  1  0  0  0  0
  9  5  1  0  0  0  0
 10 19  1  1  0  0  0
 10  7  1  0  0  0  0
 10  9  1  0  0  0  0
 11  4  1  1  0  0  0
 12 18  1  0  0  0  0
 13 16  1  0  0  0  0
 14 12  2  0  0  0  0
 15 13  2  0  0  0  0
 15 14  1  0  0  0  0
 16 18  2  0  0  0  0
 17 14  1  0  0  0  0
 20 19  1  0  0  0  0
 21 20  1  0  0  0  0
 21 22  1  1  0  0  0
 23 25  1  0  0  0  0
 23 21  1  0  0  0  0
 24 23  2  0  0  0  0
M  END
>  <MODEL>
6

>  <REMARK>
 VINA RESULT:      -8.2      1.366      1.726
  Name = 
  5 active torsions:
  status: ('A' for Active; 'I' for Inactive)
    1  A    between atoms: C_1  and  C_5
    2  A    between atoms: C_2  and  C_21
    3  A    between atoms: C_6  and  C_15
    4  A    between atoms: C_6  and  C_23
    5  A    between atoms: C_15  and  C_21
                            x       y       z     vdW  Elec       q    Type
                         _______ _______ _______ _____ _____    ______ ____

>  <TORSDO>
F 5

$$$$
=
 OpenBabel11052412423D

 25 27  0  0  1  0  0  0  0  0999 V2000
  189.4350  177.7710  145.9360 C   0  0  1  0  0  3  0  0  0  0  0  0
  188.1170  178.5600  145.8790 C   0  0  1  0  0  3  0  0  0  0  0  0
  188.2210  176.5240  147.8130 C   0  0  0  0  0  2  0  0  0  0  0  0
  187.9810  177.9160  148.3970 C   0  0  0  0  0  2  0  0  0  0  0  0
  186.2810  179.4630  147.3820 C   0  0  0  0  0  0  0  0  0  0  0  0
  185.9870  180.3570  148.1590 O   0  0  0  0  0  0  0  0  0  0  0  0
  187.0170  177.7760  145.1520 C   0  0  0  0  0  2  0  0  0  0  0  0
  189.4030  176.5250  146.8380 C   0  0  0  0  0  2  0  0  0  0  0  0
  185.2110  178.8150  146.5590 C   0  0  0  0  0  2  0  0  0  0  0  0
  185.7130  178.5700  145.1390 C   0  0  2  0  0  3  0  0  0  0  0  0
  187.6980  178.9710  147.3120 C   0  0  2  0  0  3  0  0  0  0  0  0
  190.0800  177.5480  144.5960 C   0  0  0  0  0  0  0  0  0  0  0  0
  191.2790  176.9910  142.1200 C   0  0  0  0  0  3  0  0  0  0  0  0
  190.8540  178.5310  143.9440 C   0  0  0  0  0  0  0  0  0  0  0  0
  191.4460  178.2460  142.7100 C   0  0  0  0  0  3  0  0  0  0  0  0
  190.5190  176.0140  142.7650 C   0  0  0  0  0  3  0  0  0  0  0  0
  191.0390  179.7890  144.5050 O   0  0  0  0  0  1  0  0  0  0  0  0
  189.9240  176.2910  143.9990 C   0  0  0  0  0  3  0  0  0  0  0  0
  184.6520  177.8780  144.2880 C   0  0  0  0  0  2  0  0  0  0  0  0
  184.0780  178.7960  143.2120 C   0  0  0  0  0  2  0  0  0  0  0  0
  184.2640  178.1820  141.8350 C   0  0  1  0  0  3  0  0  0  0  0  0
  183.0490  178.1580  141.1770 F   0  0  0  0  0  0  0  0  0  0  0  0
  185.2500  178.9680  141.0360 C   0  0  0  0  0  0  0  0  0  0  0  0
  184.8260  179.7390  139.9600 O   0  0  0  0  0  0  0  0  0  0  0  0
  186.4690  178.9430  141.3470 O   0  0  0  0  0  1  0  0  0  0  0  0
  1 12  1  6  0  0  0
  1  8  1  0  0  0  0
  2  7  1  1  0  0  0
  2  1  1  0  0  0  0
  2 11  1  0  0  0  0
  3  4  1  0  0  0  0
  5  6  2  0  0  0  0
  8  3  1  0  0  0  0
  9  5  1  0  0  0  0
 10 19  1  6  0  0  0
 10  7  1  0  0  0  0
 10  9  1  0  0  0  0
 11  5  1  0  0  0  0
 11  4  1  1  0  0  0
 13 15  2  0  0  0  0
 13 16  1  0  0  0  0
 14 17  1  0  0  0  0
 14 12  2  0  0  0  0
 15 14  1  0  0  0  0
 16 18  2  0  0  0  0
 18 12  1  0  0  0  0
 20 19  1  0  0  0  0
 21 22  1  6  0  0  0
 21 20  1  0  0  0  0
 23 25  1  0  0  0  0
 23 21  1  0  0  0  0
 24 23  2  0  0  0  0
M  END
>  <MODEL>
7

>  <REMARK>
 VINA RESULT:      -8.0      2.399      5.282
  Name = 
  5 active torsions:
  status: ('A' for Active; 'I' for Inactive)
    1  A    between atoms: C_1  and  C_5
    2  A    between atoms: C_2  and  C_21
    3  A    between atoms: C_6  and  C_15
    4  A    between atoms: C_6  and  C_23
    5  A    between atoms: C_15  and  C_21
                            x       y       z     vdW  Elec       q    Type
                         _______ _______ _______ _____ _____    ______ ____

>  <TORSDO>
F 5

$$$$
=
 OpenBabel11052412423D

 25 27  0  0  1  0  0  0  0  0999 V2000
  181.5180  178.4280  140.1920 C   0  0  1  0  0  3  0  0  0  0  0  0
  182.9650  178.9440  140.2080 C   0  0  1  0  0  3  0  0  0  0  0  0
  182.6610  176.2300  139.5460 C   0  0  0  0  0  2  0  0  0  0  0  0
  183.3320  177.0600  138.4520 C   0  0  0  0  0  2  0  0  0  0  0  0
  185.1840  178.6660  139.0040 C   0  0  0  0  0  0  0  0  0  0  0  0
  185.8120  178.9680  138.0030 O   0  0  0  0  0  0  0  0  0  0  0  0
  183.7050  178.5220  141.4850 C   0  0  0  0  0  2  0  0  0  0  0  0
  181.3790  176.9020  140.0470 C   0  0  0  0  0  2  0  0  0  0  0  0
  185.9130  178.4120  140.2880 C   0  0  0  0  0  2  0  0  0  0  0  0
  185.1470  179.0210  141.4590 C   0  0  2  0  0  3  0  0  0  0  0  0
  183.6950  178.4790  138.9240 C   0  0  2  0  0  3  0  0  0  0  0  0
  180.6340  179.0320  141.2480 C   0  0  0  0  0  0  0  0  0  0  0  0
  178.9600  180.0290  143.2680 C   0  0  0  0  0  3  0  0  0  0  0  0
  180.0240  180.2970  141.1060 C   0  0  0  0  0  0  0  0  0  0  0  0
  179.1930  180.7860  142.1180 C   0  0  0  0  0  3  0  0  0  0  0  0
  179.5570  178.7750  143.4090 C   0  0  0  0  0  3  0  0  0  0  0  0
  180.2370  181.0740  139.9740 O   0  0  0  0  0  1  0  0  0  0  0  0
  180.3890  178.2790  142.4020 C   0  0  0  0  0  3  0  0  0  0  0  0
  185.8520  178.7460  142.7840 C   0  0  0  0  0  2  0  0  0  0  0  0
  184.9090  178.1740  143.8390 C   0  0  0  0  0  2  0  0  0  0  0  0
  184.7390  179.1530  144.9880 C   0  0  1  0  0  3  0  0  0  0  0  0
  183.4040  179.2180  145.3410 F   0  0  0  0  0  0  0  0  0  0  0  0
  185.5480  178.7270  146.1680 C   0  0  0  0  0  0  0  0  0  0  0  0
  185.6340  179.5400  147.2910 O   0  0  0  0  0  1  0  0  0  0  0  0
  186.1430  177.6180  146.1510 O   0  0  0  0  0  0  0  0  0  0  0  0
  1  2  1  0  0  0  0
  1 12  1  1  0  0  0
  2  7  1  1  0  0  0
  3  8  1  0  0  0  0
  4  3  1  0  0  0  0
  5  9  1  0  0  0  0
  6  5  2  0  0  0  0
  8  1  1  0  0  0  0
  9 10  1  0  0  0  0
 10  7  1  0  0  0  0
 10 19  1  1  0  0  0
 11  4  1  1  0  0  0
 11  5  1  0  0  0  0
 11  2  1  0  0  0  0
 12 18  1  0  0  0  0
 13 16  1  0  0  0  0
 14 12  2  0  0  0  0
 14 15  1  0  0  0  0
 15 13  2  0  0  0  0
 17 14  1  0  0  0  0
 18 16  2  0  0  0  0
 19 20  1  0  0  0  0
 20 21  1  0  0  0  0
 21 22  1  1  0  0  0
 21 23  1  0  0  0  0
 23 24  1  0  0  0  0
 25 23  2  0  0  0  0
M  END
>  <MODEL>
8

>  <REMARK>
 VINA RESULT:      -7.5      4.098      8.026
  Name = 
  5 active torsions:
  status: ('A' for Active; 'I' for Inactive)
    1  A    between atoms: C_1  and  C_5
    2  A    between atoms: C_2  and  C_21
    3  A    between atoms: C_6  and  C_15
    4  A    between atoms: C_6  and  C_23
    5  A    between atoms: C_15  and  C_21
                            x       y       z     vdW  Elec       q    Type
                         _______ _______ _______ _____ _____    ______ ____

>  <TORSDO>
F 5

$$$$
=
 OpenBabel11052412423D

 25 27  0  0  1  0  0  0  0  0999 V2000
  190.9330  176.9910  143.1700 C   0  0  1  0  0  3  0  0  0  0  0  0
  190.4150  177.4950  144.5260 C   0  0  1  0  0  3  0  0  0  0  0  0
  191.3320  174.8390  144.4990 C   0  0  0  0  0  2  0  0  0  0  0  0
  192.0900  175.7420  145.4710 C   0  0  0  0  0  2  0  0  0  0  0  0
  190.8580  177.2920  147.0190 C   0  0  0  0  0  0  0  0  0  0  0  0
  191.5810  177.6630  147.9290 O   0  0  0  0  0  0  0  0  0  0  0  0
  189.0020  176.9750  144.8240 C   0  0  0  0  0  2  0  0  0  0  0  0
  191.2230  175.4800  143.1110 C   0  0  0  0  0  2  0  0  0  0  0  0
  189.4300  176.9400  147.3010 C   0  0  0  0  0  2  0  0  0  0  0  0
  188.5270  177.4660  146.1890 C   0  0  2  0  0  3  0  0  0  0  0  0
  191.4260  177.1200  145.6380 C   0  0  2  0  0  3  0  0  0  0  0  0
  190.1770  177.5210  141.9840 C   0  0  0  0  0  0  0  0  0  0  0  0
  188.6450  178.4800  139.8360 C   0  0  0  0  0  3  0  0  0  0  0  0
  190.7350  177.5960  140.6890 C   0  0  0  0  0  0  0  0  0  0  0  0
  189.9650  178.0760  139.6260 C   0  0  0  0  0  3  0  0  0  0  0  0
  188.0870  178.4010  141.1140 C   0  0  0  0  0  3  0  0  0  0  0  0
  192.0460  177.2020  140.4480 O   0  0  0  0  0  1  0  0  0  0  0  0
  188.8500  177.9220  142.1820 C   0  0  0  0  0  3  0  0  0  0  0  0
  187.0690  177.0910  146.4360 C   0  0  0  0  0  2  0  0  0  0  0  0
  186.1330  178.2920  146.3370 C   0  0  0  0  0  2  0  0  0  0  0  0
  185.7690  178.5640  144.8870 C   0  0  1  0  0  3  0  0  0  0  0  0
  185.9030  177.4000  144.1540 F   0  0  0  0  0  0  0  0  0  0  0  0
  184.3670  179.0640  144.7800 C   0  0  0  0  0  0  0  0  0  0  0  0
  183.5410  179.0830  145.8970 O   0  0  0  0  0  1  0  0  0  0  0  0
  183.9350  179.4820  143.6740 O   0  0  0  0  0  0  0  0  0  0  0  0
  1 12  1  6  0  0  0
  1  2  1  0  0  0  0
  2  7  1  1  0  0  0
  2 11  1  0  0  0  0
  3  4  1  0  0  0  0
  5  9  1  0  0  0  0
  5  6  2  0  0  0  0
  7 10  1  0  0  0  0
  8  1  1  0  0  0  0
  8  3  1  0  0  0  0
 10 19  1  1  0  0  0
 10  9  1  0  0  0  0
 11  4  1  6  0  0  0
 11  5  1  0  0  0  0
 12 18  1  0  0  0  0
 13 16  1  0  0  0  0
 14 12  2  0  0  0  0
 15 13  2  0  0  0  0
 15 14  1  0  0  0  0
 16 18  2  0  0  0  0
 17 14  1  0  0  0  0
 20 19  1  0  0  0  0
 21 22  1  6  0  0  0
 21 20  1  0  0  0  0
 23 21  1  0  0  0  0
 23 24  1  0  0  0  0
 25 23  2  0  0  0  0
M  END
>  <MODEL>
9

>  <REMARK>
 VINA RESULT:      -7.4      1.719      5.608
  Name = 
  5 active torsions:
  status: ('A' for Active; 'I' for Inactive)
    1  A    between atoms: C_1  and  C_5
    2  A    between atoms: C_2  and  C_21
    3  A    between atoms: C_6  and  C_15
    4  A    between atoms: C_6  and  C_23
    5  A    between atoms: C_15  and  C_21
                            x       y       z     vdW  Elec       q    Type
                         _______ _______ _______ _____ _____    ______ ____

>  <TORSDO>
F 5

$$$$
