=
 OpenBabel11052416493D

 32 38  0  0  1  0  0  0  0  0999 V2000
  186.7380  178.2390  145.6910 S   0  0  0  0  0  0  0  0  0  0  0  0
  187.4820  178.6900  140.6120 N   0  0  0  0  0  0  0  0  0  0  0  0
  182.9000  177.6070  139.2790 C   0  0  0  0  0  3  0  0  0  0  0  0
  183.3700  177.1680  138.0390 C   0  0  0  0  0  3  0  0  0  0  0  0
  189.2530  178.3160  138.8910 C   0  0  2  0  0  3  0  0  0  0  0  0
  189.8580  177.3980  139.9230 C   0  0  0  0  0  0  0  0  0  0  0  0
  187.7880  178.0400  143.0280 C   0  0  1  0  0  3  0  0  0  0  0  0
  185.6870  178.9150  142.3510 C   0  0  0  0  0  2  0  0  0  0  0  0
  190.1220  176.6970  137.1830 C   0  0  0  0  0  0  0  0  0  0  0  0
  185.7190  177.6070  144.3070 C   0  0  0  0  0  2  0  0  0  0  0  0
  183.7760  178.1910  140.1980 C   0  0  0  0  0  3  0  0  0  0  0  0
  186.0740  179.0410  140.8640 C   0  0  2  0  0  3  0  0  0  0  0  0
  185.1380  178.3280  139.8940 C   0  0  0  0  0  0  0  0  0  0  0  0
  187.0340  178.0580  138.3120 C   0  0  0  0  0  0  0  0  0  0  0  0
  190.9190  176.1400  138.1030 C   0  0  0  0  0  3  0  0  0  0  0  0
  186.3390  177.7690  142.9810 N   0  0  2  0  0  0  0  0  0  0  0  0
  190.7020  176.4300  139.5400 C   0  0  0  0  0  3  0  0  0  0  0  0
  188.5270  177.0150  143.8990 C   0  0  0  0  0  2  0  0  0  0  0  0
  188.0530  177.0140  145.3550 C   0  0  1  0  0  3  0  0  0  0  0  0
  184.7180  177.3180  137.7090 C   0  0  0  0  0  3  0  0  0  0  0  0
  185.6030  177.9080  138.6200 C   0  0  0  0  0  0  0  0  0  0  0  0
  187.7170  177.4540  137.3500 C   0  0  0  0  0  3  0  0  0  0  0  0
  188.3120  178.0830  141.6200 C   0  0  0  0  0  0  0  0  0  0  0  0
  189.4220  177.4800  141.2870 N   0  0  0  0  0  0  0  0  0  0  0  0
  190.2640  176.3380  135.7470 C   0  0  0  0  0  1  0  0  0  0  0  0
  187.8960  178.6270  139.2750 N   0  0  0  0  0  0  0  0  0  0  0  0
  189.1130  177.6210  137.6130 N   0  0  0  0  0  0  0  0  0  0  0  0
  189.1820  177.2530  146.2380 N   0  0  0  0  0  2  0  0  0  0  0  0
  190.3580  177.3790  145.3950 C   0  0  0  0  0  2  0  0  0  0  0  0
  191.4860  176.6120  145.9910 C   0  0  0  0  0  0  0  0  0  0  0  0
  191.9130  176.8920  147.2820 O   0  0  0  0  0  1  0  0  0  0  0  0
  192.0300  175.6860  145.3350 O   0  0  0  0  0  0  0  0  0  0  0  0
  2 12  1  0  0  0  0
  2 23  1  0  0  0  0
  3 11  1  0  0  0  0
  4  3  2  0  0  0  0
  5 26  1  0  0  0  0
  5  6  1  1  0  0  0
  6 24  1  0  0  0  0
  7 18  1  1  0  0  0
  9 27  1  0  0  0  0
  9 15  2  0  0  0  0
 10  1  1  0  0  0  0
 12  8  1  1  0  0  0
 13 11  2  0  0  0  0
 13 12  1  0  0  0  0
 14 21  1  0  0  0  0
 14 26  1  0  0  0  0
 15 17  1  0  0  0  0
 16  8  1  1  0  0  0
 16  7  1  0  0  0  0
 16 10  1  0  0  0  0
 17  6  2  0  0  0  0
 18 19  1  0  0  0  0
 19  1  1  0  0  0  0
 19 28  1  1  0  0  0
 20  4  1  0  0  0  0
 20 21  2  0  0  0  0
 21 13  1  0  0  0  0
 22 27  1  0  0  0  0
 22 14  2  0  0  0  0
 23  7  1  0  0  0  0
 24 23  2  0  0  0  0
 25  9  1  0  0  0  0
 26  2  1  0  0  0  0
 27  5  1  0  0  0  0
 29 30  1  0  0  0  0
 29 28  1  0  0  0  0
 30 31  1  0  0  0  0
 32 30  2  0  0  0  0
M  END
>  <MODEL>
1

>  <REMARK>
 VINA RESULT:      -8.3      0.000      0.000
  Name = 
  3 active torsions:
  status: ('A' for Active; 'I' for Inactive)
    1  A    between atoms: C_1  and  C_10
    2  A    between atoms: C_10  and  N_19
    3  A    between atoms: N_19  and  C_24
                            x       y       z     vdW  Elec       q    Type
                         _______ _______ _______ _____ _____    ______ ____

>  <TORSDO>
F 3

$$$$
=
 OpenBabel11052416493D

 32 38  0  0  1  0  0  0  0  0999 V2000
  187.8890  177.9810  145.4760 S   0  0  0  0  0  0  0  0  0  0  0  0
  187.0930  178.6160  140.4240 N   0  0  0  0  0  0  0  0  0  0  0  0
  182.2820  177.7250  140.5020 C   0  0  0  0  0  3  0  0  0  0  0  0
  182.3410  177.3240  139.1660 C   0  0  0  0  0  3  0  0  0  0  0  0
  188.2500  178.2590  138.2390 C   0  0  2  0  0  3  0  0  0  0  0  0
  189.0990  177.2830  139.0140 C   0  0  0  0  0  0  0  0  0  0  0  0
  188.0840  177.8590  142.6160 C   0  0  1  0  0  3  0  0  0  0  0  0
  185.9130  178.8230  142.6300 C   0  0  0  0  0  2  0  0  0  0  0  0
  188.5000  176.6860  136.3020 C   0  0  0  0  0  0  0  0  0  0  0  0
  186.4770  177.4370  144.4450 C   0  0  0  0  0  2  0  0  0  0  0  0
  183.4170  178.2440  141.1320 C   0  0  0  0  0  3  0  0  0  0  0  0
  185.8420  178.9980  141.1000 C   0  0  2  0  0  3  0  0  0  0  0  0
  184.6290  178.3530  140.4360 C   0  0  0  0  0  0  0  0  0  0  0  0
  185.9510  178.0910  138.3490 C   0  0  0  0  0  0  0  0  0  0  0  0
  189.5130  176.0690  136.9220 C   0  0  0  0  0  3  0  0  0  0  0  0
  186.6770  177.6340  142.9990 N   0  0  2  0  0  0  0  0  0  0  0  0
  189.7480  176.3060  138.3660 C   0  0  0  0  0  3  0  0  0  0  0  0
  189.0070  176.7780  143.1930 C   0  0  0  0  0  2  0  0  0  0  0  0
  188.9930  176.7310  144.7230 C   0  0  1  0  0  3  0  0  0  0  0  0
  183.5330  177.4460  138.4490 C   0  0  0  0  0  3  0  0  0  0  0  0
  184.6730  177.9720  139.0680 C   0  0  0  0  0  0  0  0  0  0  0  0
  186.2880  177.5070  137.2080 C   0  0  0  0  0  3  0  0  0  0  0  0
  188.1630  177.9440  141.1170 C   0  0  0  0  0  0  0  0  0  0  0  0
  189.0960  177.3220  140.4480 N   0  0  0  0  0  0  0  0  0  0  0  0
  188.1900  176.3820  134.8790 C   0  0  0  0  0  1  0  0  0  0  0  0
  187.0850  178.5950  139.0240 N   0  0  0  0  0  0  0  0  0  0  0  0
  187.7050  177.6210  137.0430 N   0  0  0  0  0  0  0  0  0  0  0  0
  190.3430  176.9010  145.2320 N   0  0  0  0  0  2  0  0  0  0  0  0
  190.2720  176.7520  146.6750 C   0  0  0  0  0  2  0  0  0  0  0  0
  191.6140  176.3900  147.2070 C   0  0  0  0  0  0  0  0  0  0  0  0
  192.3170  175.3260  146.6570 O   0  0  0  0  0  0  0  0  0  0  0  0
  192.1260  177.0700  148.1340 O   0  0  0  0  0  1  0  0  0  0  0  0
  2 12  1  0  0  0  0
  2 23  1  0  0  0  0
  3 11  1  0  0  0  0
  4  3  2  0  0  0  0
  5  6  1  1  0  0  0
  5 26  1  0  0  0  0
  6 24  1  0  0  0  0
  7 16  1  0  0  0  0
  7 18  1  6  0  0  0
  9 15  2  0  0  0  0
  9 27  1  0  0  0  0
 10  1  1  0  0  0  0
 12  8  1  1  0  0  0
 13 12  1  0  0  0  0
 13 11  2  0  0  0  0
 14 26  1  0  0  0  0
 14 21  1  0  0  0  0
 15 17  1  0  0  0  0
 16  8  1  1  0  0  0
 16 10  1  0  0  0  0
 17  6  2  0  0  0  0
 18 19  1  0  0  0  0
 19 28  1  1  0  0  0
 19  1  1  0  0  0  0
 20 21  2  0  0  0  0
 20  4  1  0  0  0  0
 21 13  1  0  0  0  0
 22 14  2  0  0  0  0
 23  7  1  0  0  0  0
 24 23  2  0  0  0  0
 25  9  1  0  0  0  0
 26  2  1  0  0  0  0
 27 22  1  0  0  0  0
 27  5  1  0  0  0  0
 28 29  1  0  0  0  0
 29 30  1  0  0  0  0
 30 32  1  0  0  0  0
 31 30  2  0  0  0  0
M  END
>  <MODEL>
2

>  <REMARK>
 VINA RESULT:      -8.3      1.079      1.336
  Name = 
  3 active torsions:
  status: ('A' for Active; 'I' for Inactive)
    1  A    between atoms: C_1  and  C_10
    2  A    between atoms: C_10  and  N_19
    3  A    between atoms: N_19  and  C_24
                            x       y       z     vdW  Elec       q    Type
                         _______ _______ _______ _____ _____    ______ ____

>  <TORSDO>
F 3

$$$$
=
 OpenBabel11052416493D

 32 38  0  0  1  0  0  0  0  0999 V2000
  183.4460  179.4360  143.9680 S   0  0  0  0  0  0  0  0  0  0  0  0
  186.3300  178.7480  139.7540 N   0  0  0  0  0  0  0  0  0  0  0  0
  182.9610  176.3200  137.1650 C   0  0  0  0  0  3  0  0  0  0  0  0
  183.9770  175.7040  136.4310 C   0  0  0  0  0  3  0  0  0  0  0  0
  188.7110  178.3750  139.0980 C   0  0  2  0  0  3  0  0  0  0  0  0
  188.8810  177.9170  140.5240 C   0  0  0  0  0  0  0  0  0  0  0  0
  185.5890  178.8210  142.1630 C   0  0  1  0  0  3  0  0  0  0  0  0
  183.9340  178.9780  140.4660 C   0  0  0  0  0  2  0  0  0  0  0  0
  190.4090  176.6260  138.5080 C   0  0  0  0  0  0  0  0  0  0  0  0
  183.2220  178.2550  142.5890 C   0  0  0  0  0  2  0  0  0  0  0  0
  183.2700  177.3050  138.1060 C   0  0  0  0  0  3  0  0  0  0  0  0
  184.9300  178.8110  139.3010 C   0  0  2  0  0  3  0  0  0  0  0  0
  184.6030  177.6770  138.3360 C   0  0  0  0  0  0  0  0  0  0  0  0
  187.0230  177.4660  137.8130 C   0  0  0  0  0  0  0  0  0  0  0  0
  190.7640  176.5240  139.7950 C   0  0  0  0  0  3  0  0  0  0  0  0
  184.3490  178.2160  141.6410 N   0  0  2  0  0  0  0  0  0  0  0  0
  189.9000  177.1090  140.8470 C   0  0  0  0  0  3  0  0  0  0  0  0
  185.9610  178.2530  143.5390 C   0  0  0  0  0  2  0  0  0  0  0  0
  184.8900  178.5100  144.6030 C   0  0  1  0  0  3  0  0  0  0  0  0
  185.3080  176.0760  136.6290 C   0  0  0  0  0  3  0  0  0  0  0  0
  185.6280  177.0680  137.5640 C   0  0  0  0  0  0  0  0  0  0  0  0
  188.1200  176.8150  137.4550 C   0  0  0  0  0  3  0  0  0  0  0  0
  186.6790  178.6280  141.1460 C   0  0  0  0  0  0  0  0  0  0  0  0
  187.8760  178.2370  141.4960 N   0  0  0  0  0  0  0  0  0  0  0  0
  191.2140  175.9590  137.4500 C   0  0  0  0  0  1  0  0  0  0  0  0
  187.3010  178.4460  138.7910 N   0  0  0  0  0  0  0  0  0  0  0  0
  189.2270  177.3660  138.1750 N   0  0  0  0  0  0  0  0  0  0  0  0
  185.4750  179.2230  145.7250 N   0  0  0  0  0  2  0  0  0  0  0  0
  185.6580  178.2530  146.7920 C   0  0  0  0  0  2  0  0  0  0  0  0
  187.1050  178.1300  147.1130 C   0  0  0  0  0  0  0  0  0  0  0  0
  187.9660  177.5030  146.2220 O   0  0  0  0  0  0  0  0  0  0  0  0
  187.5560  178.6270  148.1780 O   0  0  0  0  0  1  0  0  0  0  0  0
  1 19  1  0  0  0  0
  2 23  1  0  0  0  0
  3 11  1  0  0  0  0
  4 20  1  0  0  0  0
  4  3  2  0  0  0  0
  5  6  1  1  0  0  0
  6 17  2  0  0  0  0
  6 24  1  0  0  0  0
  7 18  1  1  0  0  0
  9 15  2  0  0  0  0
 10  1  1  0  0  0  0
 11 13  2  0  0  0  0
 12  2  1  0  0  0  0
 12  8  1  1  0  0  0
 13 12  1  0  0  0  0
 14 26  1  0  0  0  0
 15 17  1  0  0  0  0
 16  8  1  6  0  0  0
 16  7  1  0  0  0  0
 16 10  1  0  0  0  0
 18 19  1  0  0  0  0
 19 28  1  1  0  0  0
 20 21  2  0  0  0  0
 21 14  1  0  0  0  0
 21 13  1  0  0  0  0
 22 14  2  0  0  0  0
 22 27  1  0  0  0  0
 23 24  2  0  0  0  0
 23  7  1  0  0  0  0
 25  9  1  0  0  0  0
 26  5  1  0  0  0  0
 26  2  1  0  0  0  0
 27  9  1  0  0  0  0
 27  5  1  0  0  0  0
 28 29  1  0  0  0  0
 29 30  1  0  0  0  0
 30 32  1  0  0  0  0
 31 30  2  0  0  0  0
M  END
>  <MODEL>
3

>  <REMARK>
 VINA RESULT:      -8.1      2.176      2.718
  Name = 
  3 active torsions:
  status: ('A' for Active; 'I' for Inactive)
    1  A    between atoms: C_1  and  C_10
    2  A    between atoms: C_10  and  N_19
    3  A    between atoms: N_19  and  C_24
                            x       y       z     vdW  Elec       q    Type
                         _______ _______ _______ _____ _____    ______ ____

>  <TORSDO>
F 3

$$$$
=
 OpenBabel11052416493D

 32 38  0  0  1  0  0  0  0  0999 V2000
  182.3820  179.1260  138.8000 S   0  0  0  0  0  0  0  0  0  0  0  0
  187.3640  178.5750  139.9960 N   0  0  0  0  0  0  0  0  0  0  0  0
  188.5400  175.7360  136.1880 C   0  0  0  0  0  3  0  0  0  0  0  0
  189.5980  175.1980  136.9240 C   0  0  0  0  0  3  0  0  0  0  0  0
  188.8510  178.4160  141.9970 C   0  0  2  0  0  3  0  0  0  0  0  0
  187.5880  178.0290  142.7240 C   0  0  0  0  0  0  0  0  0  0  0  0
  184.8510  178.6610  140.1860 C   0  0  1  0  0  3  0  0  0  0  0  0
  185.8200  178.5940  138.0180 C   0  0  0  0  0  2  0  0  0  0  0  0
  190.0300  176.8240  143.5350 C   0  0  0  0  0  0  0  0  0  0  0  0
  183.5860  177.8800  138.2120 C   0  0  0  0  0  2  0  0  0  0  0  0
  187.7760  176.7800  136.7150 C   0  0  0  0  0  3  0  0  0  0  0  0
  187.2700  178.4840  138.5300 C   0  0  2  0  0  3  0  0  0  0  0  0
  188.0510  177.2890  137.9930 C   0  0  0  0  0  0  0  0  0  0  0  0
  189.4280  177.3000  140.0610 C   0  0  0  0  0  0  0  0  0  0  0  0
  188.9630  176.8020  144.3450 C   0  0  0  0  0  3  0  0  0  0  0  0
  184.8820  177.9180  138.9120 N   0  0  2  0  0  0  0  0  0  0  0  0
  187.6660  177.3360  143.8690 C   0  0  0  0  0  3  0  0  0  0  0  0
  183.7100  178.1820  141.0930 C   0  0  0  0  0  2  0  0  0  0  0  0
  182.3260  178.3700  140.4640 C   0  0  1  0  0  3  0  0  0  0  0  0
  189.9030  175.7060  138.1880 C   0  0  0  0  0  3  0  0  0  0  0  0
  189.1480  176.7570  138.7220 C   0  0  0  0  0  0  0  0  0  0  0  0
  190.1660  176.7480  141.0130 C   0  0  0  0  0  3  0  0  0  0  0  0
  186.1980  178.5400  140.8420 C   0  0  0  0  0  0  0  0  0  0  0  0
  186.3140  178.2820  142.1170 N   0  0  0  0  0  0  0  0  0  0  0  0
  191.3110  176.2020  143.9620 C   0  0  0  0  0  1  0  0  0  0  0  0
  188.6170  178.3370  140.5740 N   0  0  0  0  0  0  0  0  0  0  0  0
  189.9020  177.4300  142.2430 N   0  0  0  0  0  0  0  0  0  0  0  0
  181.4950  179.1770  141.3420 N   0  0  0  0  0  2  0  0  0  0  0  0
  180.4980  178.2880  141.9140 C   0  0  0  0  0  2  0  0  0  0  0  0
  180.4960  178.4260  143.3950 C   0  0  0  0  0  0  0  0  0  0  0  0
  179.3170  178.2540  144.1090 O   0  0  0  0  0  1  0  0  0  0  0  0
  181.5710  178.6660  144.0040 O   0  0  0  0  0  0  0  0  0  0  0  0
  1 19  1  0  0  0  0
  2 26  1  0  0  0  0
  2 23  1  0  0  0  0
  3 11  2  0  0  0  0
  3  4  1  0  0  0  0
  4 20  2  0  0  0  0
  5 27  1  0  0  0  0
  5  6  1  1  0  0  0
  6 17  2  0  0  0  0
  7 23  1  0  0  0  0
  7 18  1  1  0  0  0
  9 25  1  0  0  0  0
  9 15  2  0  0  0  0
 10  1  1  0  0  0  0
 10 16  1  0  0  0  0
 11 13  1  0  0  0  0
 12  8  1  1  0  0  0
 12  2  1  0  0  0  0
 13 12  1  0  0  0  0
 13 21  2  0  0  0  0
 14 26  1  0  0  0  0
 14 22  2  0  0  0  0
 16  8  1  6  0  0  0
 16  7  1  0  0  0  0
 17 15  1  0  0  0  0
 19 18  1  0  0  0  0
 19 28  1  1  0  0  0
 20 21  1  0  0  0  0
 21 14  1  0  0  0  0
 22 27  1  0  0  0  0
 23 24  2  0  0  0  0
 24  6  1  0  0  0  0
 26  5  1  0  0  0  0
 27  9  1  0  0  0  0
 28 29  1  0  0  0  0
 29 30  1  0  0  0  0
 30 32  2  0  0  0  0
 30 31  1  0  0  0  0
M  END
>  <MODEL>
4

>  <REMARK>
 VINA RESULT:      -7.9      3.792      6.448
  Name = 
  3 active torsions:
  status: ('A' for Active; 'I' for Inactive)
    1  A    between atoms: C_1  and  C_10
    2  A    between atoms: C_10  and  N_19
    3  A    between atoms: N_19  and  C_24
                            x       y       z     vdW  Elec       q    Type
                         _______ _______ _______ _____ _____    ______ ____

>  <TORSDO>
F 3

$$$$
=
 OpenBabel11052416493D

 32 38  0  0  1  0  0  0  0  0999 V2000
  183.2120  178.7660  145.0940 S   0  0  0  0  0  0  0  0  0  0  0  0
  187.6950  176.7290  143.5750 N   0  0  0  0  0  0  0  0  0  0  0  0
  190.1060  177.5030  147.7620 C   0  0  0  0  0  3  0  0  0  0  0  0
  191.3120  177.5170  147.0590 C   0  0  0  0  0  3  0  0  0  0  0  0
  189.0940  176.4860  141.5200 C   0  0  2  0  0  3  0  0  0  0  0  0
  188.2930  177.6570  141.0120 C   0  0  0  0  0  0  0  0  0  0  0  0
  185.5720  178.0890  143.6090 C   0  0  1  0  0  3  0  0  0  0  0  0
  186.3270  177.1210  145.6420 C   0  0  0  0  0  2  0  0  0  0  0  0
  191.0200  177.4600  140.2430 C   0  0  0  0  0  0  0  0  0  0  0  0
  184.8830  178.9700  145.8120 C   0  0  0  0  0  2  0  0  0  0  0  0
  188.9090  177.2050  147.1040 C   0  0  0  0  0  3  0  0  0  0  0  0
  187.6100  176.5240  145.0300 C   0  0  2  0  0  3  0  0  0  0  0  0
  188.9040  176.9320  145.7280 C   0  0  0  0  0  0  0  0  0  0  0  0
  190.1190  176.6280  143.5830 C   0  0  0  0  0  0  0  0  0  0  0  0
  190.1810  178.2480  139.5600 C   0  0  0  0  0  3  0  0  0  0  0  0
  185.9620  178.3820  145.0010 N   0  0  2  0  0  0  0  0  0  0  0  0
  188.7880  178.4280  140.0330 C   0  0  0  0  0  3  0  0  0  0  0  0
  184.9290  179.3070  142.9330 C   0  0  0  0  0  2  0  0  0  0  0  0
  183.6530  179.7790  143.6360 C   0  0  1  0  0  3  0  0  0  0  0  0
  191.3300  177.2250  145.6930 C   0  0  0  0  0  3  0  0  0  0  0  0
  190.1380  176.9170  145.0260 C   0  0  0  0  0  0  0  0  0  0  0  0
  191.0770  176.8780  142.7010 C   0  0  0  0  0  3  0  0  0  0  0  0
  186.7810  177.5900  142.8680 C   0  0  0  0  0  0  0  0  0  0  0  0
  187.0710  178.0200  141.6700 N   0  0  0  0  0  0  0  0  0  0  0  0
  192.4470  177.3480  139.8360 C   0  0  0  0  0  1  0  0  0  0  0  0
  188.8890  176.3580  142.9440 N   0  0  0  0  0  0  0  0  0  0  0  0
  190.5250  176.7530  141.3870 N   0  0  0  0  0  0  0  0  0  0  0  0
  182.5480  179.7870  142.6920 N   0  0  0  0  0  2  0  0  0  0  0  0
  181.5030  178.9530  143.2600 C   0  0  0  0  0  2  0  0  0  0  0  0
  180.1720  179.5450  142.9570 C   0  0  0  0  0  0  0  0  0  0  0  0
  179.0520  178.7290  142.8640 O   0  0  0  0  0  1  0  0  0  0  0  0
  180.0560  180.7900  142.8190 O   0  0  0  0  0  0  0  0  0  0  0  0
  1 10  1  0  0  0  0
  2 12  1  0  0  0  0
  4  3  2  0  0  0  0
  5  6  1  1  0  0  0
  5 26  1  0  0  0  0
  6 24  1  0  0  0  0
  7 18  1  6  0  0  0
  7 16  1  0  0  0  0
  9 27  1  0  0  0  0
 11  3  1  0  0  0  0
 12  8  1  1  0  0  0
 12 13  1  0  0  0  0
 13 11  2  0  0  0  0
 14 21  1  0  0  0  0
 15 17  1  0  0  0  0
 15  9  2  0  0  0  0
 16  8  1  1  0  0  0
 16 10  1  0  0  0  0
 17  6  2  0  0  0  0
 18 19  1  0  0  0  0
 19 28  1  6  0  0  0
 19  1  1  0  0  0  0
 20  4  1  0  0  0  0
 21 20  2  0  0  0  0
 21 13  1  0  0  0  0
 22 14  2  0  0  0  0
 23  2  1  0  0  0  0
 23  7  1  0  0  0  0
 24 23  2  0  0  0  0
 25  9  1  0  0  0  0
 26  2  1  0  0  0  0
 26 14  1  0  0  0  0
 27  5  1  0  0  0  0
 27 22  1  0  0  0  0
 28 29  1  0  0  0  0
 30 29  1  0  0  0  0
 31 30  1  0  0  0  0
 32 30  2  0  0  0  0
M  END
>  <MODEL>
5

>  <REMARK>
 VINA RESULT:      -7.7      4.240      6.939
  Name = 
  3 active torsions:
  status: ('A' for Active; 'I' for Inactive)
    1  A    between atoms: C_1  and  C_10
    2  A    between atoms: C_10  and  N_19
    3  A    between atoms: N_19  and  C_24
                            x       y       z     vdW  Elec       q    Type
                         _______ _______ _______ _____ _____    ______ ____

>  <TORSDO>
F 3

$$$$
=
 OpenBabel11052416493D

 32 38  0  0  1  0  0  0  0  0999 V2000
  190.9330  176.7190  137.5370 S   0  0  0  0  0  0  0  0  0  0  0  0
  186.9370  178.6340  140.1680 N   0  0  0  0  0  0  0  0  0  0  0  0
  188.4070  177.1280  144.5860 C   0  0  0  0  0  3  0  0  0  0  0  0
  187.0800  177.1280  145.0210 C   0  0  0  0  0  3  0  0  0  0  0  0
  184.4900  179.0610  139.9010 C   0  0  2  0  0  3  0  0  0  0  0  0
  184.5780  178.0280  138.8060 C   0  0  0  0  0  0  0  0  0  0  0  0
  188.2970  177.4310  138.4190 C   0  0  1  0  0  3  0  0  0  0  0  0
  189.3640  178.0560  140.4470 C   0  0  0  0  0  2  0  0  0  0  0  0
  182.2030  178.1420  140.3600 C   0  0  0  0  0  0  0  0  0  0  0  0
  190.3450  176.3040  139.2200 C   0  0  0  0  0  2  0  0  0  0  0  0
  188.7290  177.5950  143.3090 C   0  0  0  0  0  3  0  0  0  0  0  0
  188.0890  178.6420  141.0850 C   0  0  2  0  0  3  0  0  0  0  0  0
  187.7250  178.0550  142.4450 C   0  0  0  0  0  0  0  0  0  0  0  0
  185.3360  178.5660  141.9910 C   0  0  0  0  0  0  0  0  0  0  0  0
  182.2080  177.5150  139.1770 C   0  0  0  0  0  3  0  0  0  0  0  0
  189.0570  176.9240  139.5760 N   0  0  2  0  0  0  0  0  0  0  0  0
  183.4760  177.3670  138.4250 C   0  0  0  0  0  3  0  0  0  0  0  0
  188.1510  176.3640  137.3250 C   0  0  0  0  0  2  0  0  0  0  0  0
  189.4960  175.8890  136.7680 C   0  0  1  0  0  3  0  0  0  0  0  0
  186.0680  177.6030  144.1840 C   0  0  0  0  0  3  0  0  0  0  0  0
  186.3810  178.0810  142.9060 C   0  0  0  0  0  0  0  0  0  0  0  0
  184.0290  178.3750  142.0910 C   0  0  0  0  0  3  0  0  0  0  0  0
  186.9700  177.9430  138.9050 C   0  0  0  0  0  0  0  0  0  0  0  0
  185.8600  177.6630  138.2760 N   0  0  0  0  0  0  0  0  0  0  0  0
  180.9580  178.2100  141.1700 C   0  0  0  0  0  1  0  0  0  0  0  0
  185.6950  179.0050  140.6970 N   0  0  0  0  0  0  0  0  0  0  0  0
  183.4250  178.7170  140.8400 N   0  0  0  0  0  0  0  0  0  0  0  0
  189.5280  176.0870  135.3290 N   0  0  0  0  0  2  0  0  0  0  0  0
  188.8510  174.9490  134.7320 C   0  0  0  0  0  2  0  0  0  0  0  0
  189.6250  173.7070  135.0050 C   0  0  0  0  0  0  0  0  0  0  0  0
  189.0260  172.6450  135.6690 O   0  0  0  0  0  1  0  0  0  0  0  0
  190.8130  173.6070  134.6020 O   0  0  0  0  0  0  0  0  0  0  0  0
  1 10  1  0  0  0  0
  2 26  1  0  0  0  0
  2 12  1  0  0  0  0
  3  4  1  0  0  0  0
  5  6  1  6  0  0  0
  5 26  1  0  0  0  0
  5 27  1  0  0  0  0
  7 18  1  6  0  0  0
  7 23  1  0  0  0  0
  7 16  1  0  0  0  0
  9 27  1  0  0  0  0
  9 25  1  0  0  0  0
 11  3  2  0  0  0  0
 12  8  1  6  0  0  0
 12 13  1  0  0  0  0
 13 21  2  0  0  0  0
 13 11  1  0  0  0  0
 14 22  2  0  0  0  0
 14 21  1  0  0  0  0
 15  9  2  0  0  0  0
 16 10  1  6  0  0  0
 16  8  1  0  0  0  0
 17  6  2  0  0  0  0
 17 15  1  0  0  0  0
 19 28  1  6  0  0  0
 19 18  1  0  0  0  0
 19  1  1  0  0  0  0
 20  4  2  0  0  0  0
 21 20  1  0  0  0  0
 23  2  1  0  0  0  0
 24  6  1  0  0  0  0
 24 23  2  0  0  0  0
 26 14  1  0  0  0  0
 27 22  1  0  0  0  0
 29 30  1  0  0  0  0
 29 28  1  0  0  0  0
 30 31  1  0  0  0  0
 32 30  2  0  0  0  0
M  END
>  <MODEL>
6

>  <REMARK>
 VINA RESULT:      -7.6      3.777      7.345
  Name = 
  3 active torsions:
  status: ('A' for Active; 'I' for Inactive)
    1  A    between atoms: C_1  and  C_10
    2  A    between atoms: C_10  and  N_19
    3  A    between atoms: N_19  and  C_24
                            x       y       z     vdW  Elec       q    Type
                         _______ _______ _______ _____ _____    ______ ____

>  <TORSDO>
F 3

$$$$
=
 OpenBabel11052416493D

 32 38  0  0  1  0  0  0  0  0999 V2000
  191.5530  177.0590  139.0280 S   0  0  0  0  0  0  0  0  0  0  0  0
  187.1710  178.9010  141.0180 N   0  0  0  0  0  0  0  0  0  0  0  0
  187.8660  177.2090  145.5570 C   0  0  0  0  0  3  0  0  0  0  0  0
  186.4840  177.2030  145.7600 C   0  0  0  0  0  3  0  0  0  0  0  0
  184.8060  179.3580  140.3570 C   0  0  2  0  0  3  0  0  0  0  0  0
  185.0770  178.3690  139.2520 C   0  0  0  0  0  0  0  0  0  0  0  0
  188.8060  177.7570  139.4780 C   0  0  1  0  0  3  0  0  0  0  0  0
  189.5140  178.2930  141.6810 C   0  0  0  0  0  2  0  0  0  0  0  0
  182.4720  178.4410  140.3830 C   0  0  0  0  0  0  0  0  0  0  0  0
  190.6870  176.5830  140.5690 C   0  0  0  0  0  2  0  0  0  0  0  0
  188.4020  177.7240  144.3730 C   0  0  0  0  0  3  0  0  0  0  0  0
  188.1500  178.8630  142.1170 C   0  0  2  0  0  3  0  0  0  0  0  0
  187.5590  178.2260  143.3710 C   0  0  0  0  0  0  0  0  0  0  0  0
  185.2840  178.7740  142.5380 C   0  0  0  0  0  0  0  0  0  0  0  0
  182.6770  177.8610  139.1940 C   0  0  0  0  0  3  0  0  0  0  0  0
  189.3580  177.1980  140.7260 N   0  0  2  0  0  0  0  0  0  0  0  0
  184.0550  177.7330  138.6630 C   0  0  0  0  0  3  0  0  0  0  0  0
  188.8470  176.7350  138.3330 C   0  0  0  0  0  2  0  0  0  0  0  0
  190.2660  176.2720  137.9940 C   0  0  1  0  0  3  0  0  0  0  0  0
  185.6310  177.7190  144.7840 C   0  0  0  0  0  3  0  0  0  0  0  0
  186.1570  178.2450  143.5970 C   0  0  0  0  0  0  0  0  0  0  0  0
  183.9780  178.5900  142.4070 C   0  0  0  0  0  3  0  0  0  0  0  0
  187.4170  178.2600  139.7520 C   0  0  0  0  0  0  0  0  0  0  0  0
  186.4290  178.0140  138.9330 N   0  0  0  0  0  0  0  0  0  0  0  0
  181.1070  178.4870  140.9730 C   0  0  0  0  0  1  0  0  0  0  0  0
  185.8570  179.2610  141.3430 N   0  0  0  0  0  0  0  0  0  0  0  0
  183.5950  178.9870  141.0870 N   0  0  0  0  0  0  0  0  0  0  0  0
  190.5430  176.5260  136.5910 N   0  0  0  0  0  2  0  0  0  0  0  0
  191.8330  175.9240  136.2990 C   0  0  0  0  0  2  0  0  0  0  0  0
  191.7010  174.4430  136.2790 C   0  0  0  0  0  0  0  0  0  0  0  0
  190.7450  173.8390  135.4730 O   0  0  0  0  0  0  0  0  0  0  0  0
  192.4800  173.7340  136.9690 O   0  0  0  0  0  1  0  0  0  0  0  0
  1 10  1  0  0  0  0
  2 26  1  0  0  0  0
  2 12  1  0  0  0  0
  3  4  1  0  0  0  0
  5  6  1  6  0  0  0
  5 27  1  0  0  0  0
  5 26  1  0  0  0  0
  7 18  1  6  0  0  0
  7 23  1  0  0  0  0
  7 16  1  0  0  0  0
  9 25  1  0  0  0  0
  9 27  1  0  0  0  0
 11  3  2  0  0  0  0
 12  8  1  6  0  0  0
 12 13  1  0  0  0  0
 13 21  2  0  0  0  0
 13 11  1  0  0  0  0
 14 21  1  0  0  0  0
 15  9  2  0  0  0  0
 16 10  1  6  0  0  0
 16  8  1  0  0  0  0
 17 15  1  0  0  0  0
 17  6  2  0  0  0  0
 19 28  1  6  0  0  0
 19 18  1  0  0  0  0
 19  1  1  0  0  0  0
 20  4  2  0  0  0  0
 21 20  1  0  0  0  0
 22 14  2  0  0  0  0
 23  2  1  0  0  0  0
 24  6  1  0  0  0  0
 24 23  2  0  0  0  0
 26 14  1  0  0  0  0
 27 22  1  0  0  0  0
 29 28  1  0  0  0  0
 30 29  1  0  0  0  0
 30 32  1  0  0  0  0
 31 30  2  0  0  0  0
M  END
>  <MODEL>
7

>  <REMARK>
 VINA RESULT:      -7.2      3.279      6.869
  Name = 
  3 active torsions:
  status: ('A' for Active; 'I' for Inactive)
    1  A    between atoms: C_1  and  C_10
    2  A    between atoms: C_10  and  N_19
    3  A    between atoms: N_19  and  C_24
                            x       y       z     vdW  Elec       q    Type
                         _______ _______ _______ _____ _____    ______ ____

>  <TORSDO>
F 3

$$$$
=
 OpenBabel11052416493D

 32 38  0  0  1  0  0  0  0  0999 V2000
  182.8270  178.6830  144.5050 S   0  0  0  0  0  0  0  0  0  0  0  0
  187.5870  176.7510  144.1010 N   0  0  0  0  0  0  0  0  0  0  0  0
  189.1720  178.2530  148.4810 C   0  0  0  0  0  3  0  0  0  0  0  0
  190.4830  178.2480  148.0020 C   0  0  0  0  0  3  0  0  0  0  0  0
  189.3420  176.3170  142.3780 C   0  0  2  0  0  3  0  0  0  0  0  0
  188.6000  177.3520  141.5710 C   0  0  0  0  0  0  0  0  0  0  0  0
  185.4410  177.9610  143.5670 C   0  0  1  0  0  3  0  0  0  0  0  0
  185.8550  177.3360  145.8210 C   0  0  0  0  0  2  0  0  0  0  0  0
  191.4270  177.2280  141.3220 C   0  0  0  0  0  0  0  0  0  0  0  0
  184.3320  179.0930  145.4630 C   0  0  0  0  0  2  0  0  0  0  0  0
  188.1260  177.7900  147.6770 C   0  0  0  0  0  3  0  0  0  0  0  0
  187.2500  176.7450  145.5340 C   0  0  2  0  0  3  0  0  0  0  0  0
  188.3790  177.3290  146.3770 C   0  0  0  0  0  0  0  0  0  0  0  0
  189.9730  176.8100  144.5420 C   0  0  0  0  0  0  0  0  0  0  0  0
  190.6940  177.8560  140.3960 C   0  0  0  0  0  3  0  0  0  0  0  0
  185.5620  178.4690  144.9470 N   0  0  2  0  0  0  0  0  0  0  0  0
  189.2330  178.0100  140.5900 C   0  0  0  0  0  3  0  0  0  0  0  0
  184.8830  179.0300  142.6180 C   0  0  0  0  0  2  0  0  0  0  0  0
  183.4840  179.5100  143.0120 C   0  0  1  0  0  3  0  0  0  0  0  0
  190.7580  177.7710  146.7180 C   0  0  0  0  0  3  0  0  0  0  0  0
  189.7200  177.2970  145.9080 C   0  0  0  0  0  0  0  0  0  0  0  0
  191.0620  176.9970  143.8120 C   0  0  0  0  0  3  0  0  0  0  0  0
  186.7820  177.4450  143.1280 C   0  0  0  0  0  0  0  0  0  0  0  0
  187.2660  177.7220  141.9480 N   0  0  0  0  0  0  0  0  0  0  0  0
  192.9060  177.1540  141.1890 C   0  0  0  0  0  1  0  0  0  0  0  0
  188.8890  176.3750  143.7480 N   0  0  0  0  0  0  0  0  0  0  0  0
  190.7620  176.6550  142.4560 N   0  0  0  0  0  0  0  0  0  0  0  0
  182.5670  179.3160  141.9010 N   0  0  0  0  0  2  0  0  0  0  0  0
  183.3460  178.7720  140.8020 C   0  0  0  0  0  2  0  0  0  0  0  0
  183.2760  179.6940  139.6360 C   0  0  0  0  0  0  0  0  0  0  0  0
  184.4420  180.1120  139.0070 O   0  0  0  0  0  0  0  0  0  0  0  0
  182.1570  180.0670  139.1980 O   0  0  0  0  0  1  0  0  0  0  0  0
  1 10  1  0  0  0  0
  2 12  1  0  0  0  0
  4  3  1  0  0  0  0
  5  6  1  6  0  0  0
  5 27  1  0  0  0  0
  5 26  1  0  0  0  0
  6 24  1  0  0  0  0
  7 18  1  6  0  0  0
  7 16  1  0  0  0  0
  9 27  1  0  0  0  0
 11  3  2  0  0  0  0
 12  8  1  6  0  0  0
 12 13  1  0  0  0  0
 13 11  1  0  0  0  0
 14 21  1  0  0  0  0
 15 17  1  0  0  0  0
 15  9  2  0  0  0  0
 16 10  1  1  0  0  0
 16  8  1  0  0  0  0
 17  6  2  0  0  0  0
 18 19  1  0  0  0  0
 19 28  1  6  0  0  0
 19  1  1  0  0  0  0
 20  4  2  0  0  0  0
 21 13  2  0  0  0  0
 21 20  1  0  0  0  0
 22 14  2  0  0  0  0
 23  7  1  0  0  0  0
 23  2  1  0  0  0  0
 24 23  2  0  0  0  0
 25  9  1  0  0  0  0
 26  2  1  0  0  0  0
 26 14  1  0  0  0  0
 27 22  1  0  0  0  0
 29 28  1  0  0  0  0
 30 29  1  0  0  0  0
 31 30  2  0  0  0  0
 32 30  1  0  0  0  0
M  END
>  <MODEL>
8

>  <REMARK>
 VINA RESULT:      -7.2      3.719      6.932
  Name = 
  3 active torsions:
  status: ('A' for Active; 'I' for Inactive)
    1  A    between atoms: C_1  and  C_10
    2  A    between atoms: C_10  and  N_19
    3  A    between atoms: N_19  and  C_24
                            x       y       z     vdW  Elec       q    Type
                         _______ _______ _______ _____ _____    ______ ____

>  <TORSDO>
F 3

$$$$
=
 OpenBabel11052416493D

 32 38  0  0  1  0  0  0  0  0999 V2000
  182.3870  178.1570  136.7930 S   0  0  0  0  0  0  0  0  0  0  0  0
  187.4300  177.8640  137.8070 N   0  0  0  0  0  0  0  0  0  0  0  0
  188.2230  173.6350  135.4750 C   0  0  0  0  0  3  0  0  0  0  0  0
  189.3200  173.3900  136.3040 C   0  0  0  0  0  3  0  0  0  0  0  0
  189.0660  178.4640  139.5970 C   0  0  2  0  0  3  0  0  0  0  0  0
  187.8550  178.4890  140.4940 C   0  0  0  0  0  0  0  0  0  0  0  0
  184.9440  178.1670  138.0940 C   0  0  1  0  0  3  0  0  0  0  0  0
  185.7360  177.1480  136.1000 C   0  0  0  0  0  2  0  0  0  0  0  0
  190.3180  177.5900  141.5860 C   0  0  0  0  0  0  0  0  0  0  0  0
  183.5060  176.7110  136.7100 C   0  0  0  0  0  2  0  0  0  0  0  0
  187.5310  174.8470  135.5620 C   0  0  0  0  0  3  0  0  0  0  0  0
  187.2180  177.1770  136.5230 C   0  0  2  0  0  3  0  0  0  0  0  0
  187.9210  175.8230  136.4890 C   0  0  0  0  0  0  0  0  0  0  0  0
  189.4570  176.6130  138.2760 C   0  0  0  0  0  0  0  0  0  0  0  0
  189.3190  177.9690  142.3930 C   0  0  0  0  0  3  0  0  0  0  0  0
  184.8530  176.9610  137.2490 N   0  0  2  0  0  0  0  0  0  0  0  0
  188.0030  178.3320  141.8170 C   0  0  0  0  0  3  0  0  0  0  0  0
  183.8650  178.1760  139.1850 C   0  0  0  0  0  2  0  0  0  0  0  0
  182.4420  178.1660  138.6210 C   0  0  1  0  0  3  0  0  0  0  0  0
  189.7380  174.3600  137.2180 C   0  0  0  0  0  3  0  0  0  0  0  0
  189.0570  175.5800  137.3070 C   0  0  0  0  0  0  0  0  0  0  0  0
  190.2520  176.4650  139.3250 C   0  0  0  0  0  3  0  0  0  0  0  0
  186.3350  178.2520  138.6580 C   0  0  0  0  0  0  0  0  0  0  0  0
  186.5440  178.5410  139.9140 N   0  0  0  0  0  0  0  0  0  0  0  0
  191.6120  177.1280  142.1570 C   0  0  0  0  0  1  0  0  0  0  0  0
  188.7180  177.8150  138.3540 N   0  0  0  0  0  0  0  0  0  0  0  0
  190.1050  177.6110  140.1690 N   0  0  0  0  0  0  0  0  0  0  0  0
  181.7050  179.3110  139.1270 N   0  0  0  0  0  2  0  0  0  0  0  0
  181.5900  180.2580  138.0310 C   0  0  0  0  0  2  0  0  0  0  0  0
  181.1160  181.5690  138.5500 C   0  0  0  0  0  0  0  0  0  0  0  0
  181.5540  182.7490  137.9650 O   0  0  0  0  0  0  0  0  0  0  0  0
  180.2890  181.6060  139.4990 O   0  0  0  0  0  1  0  0  0  0  0  0
  1 19  1  0  0  0  0
  2 26  1  0  0  0  0
  2 23  1  0  0  0  0
  3 11  2  0  0  0  0
  3  4  1  0  0  0  0
  4 20  2  0  0  0  0
  5 27  1  0  0  0  0
  5  6  1  1  0  0  0
  6 17  2  0  0  0  0
  7 23  1  0  0  0  0
  7 18  1  1  0  0  0
  9 25  1  0  0  0  0
  9 15  2  0  0  0  0
 10  1  1  0  0  0  0
 10 16  1  0  0  0  0
 11 13  1  0  0  0  0
 12  8  1  1  0  0  0
 12  2  1  0  0  0  0
 13 12  1  0  0  0  0
 13 21  2  0  0  0  0
 14 26  1  0  0  0  0
 14 22  2  0  0  0  0
 16  8  1  6  0  0  0
 16  7  1  0  0  0  0
 17 15  1  0  0  0  0
 19 28  1  6  0  0  0
 19 18  1  0  0  0  0
 20 21  1  0  0  0  0
 21 14  1  0  0  0  0
 22 27  1  0  0  0  0
 23 24  2  0  0  0  0
 24  6  1  0  0  0  0
 26  5  1  0  0  0  0
 27  9  1  0  0  0  0
 29 30  1  0  0  0  0
 29 28  1  0  0  0  0
 30 32  1  0  0  0  0
 31 30  2  0  0  0  0
M  END
>  <MODEL>
9

>  <REMARK>
 VINA RESULT:      -6.9      4.600      7.290
  Name = 
  3 active torsions:
  status: ('A' for Active; 'I' for Inactive)
    1  A    between atoms: C_1  and  C_10
    2  A    between atoms: C_10  and  N_19
    3  A    between atoms: N_19  and  C_24
                            x       y       z     vdW  Elec       q    Type
                         _______ _______ _______ _____ _____    ______ ____

>  <TORSDO>
F 3

$$$$
