=
 OpenBabel11052412213D

 30 33  0  0  1  0  0  0  0  0999 V2000
  183.3600  178.7200  139.2910 C   0  0  2  0  0  3  0  0  0  0  0  0
  181.5540  177.0930  139.8640 C   0  0  2  0  0  3  0  0  0  0  0  0
  182.5700  180.0360  139.1790 C   0  0  0  0  0  2  0  0  0  0  0  0
  179.1320  179.0060  138.0230 N   0  0  0  0  0  0  0  0  0  0  0  0
  179.2470  177.9830  140.8750 C   0  0  1  0  0  3  0  0  0  0  0  0
  180.2700  179.0810  138.7680 C   0  0  0  0  0  0  0  0  0  0  0  0
  181.1550  180.7120  137.2200 C   0  0  0  0  0  3  0  0  0  0  0  0
  181.3150  179.9300  138.3660 C   0  0  0  0  0  0  0  0  0  0  0  0
  180.4600  178.1810  139.9610 C   0  0  2  0  0  0  0  0  0  0  0  0
  179.3050  176.7770  141.5760 O   0  0  0  0  0  1  0  0  0  0  0  0
  178.9630  179.7600  136.9030 C   0  0  0  0  0  3  0  0  0  0  0  0
  179.9730  180.6280  136.4820 C   0  0  0  0  0  3  0  0  0  0  0  0
  182.6230  177.4900  138.9120 N   0  0  0  0  0  0  0  0  0  0  0  0
  180.0050  180.2010  141.2410 O   0  0  0  0  0  1  0  0  0  0  0  0
  180.3960  178.8640  141.3300 C   0  0  1  0  0  3  0  0  0  0  0  0
  185.5680  178.5850  140.5260 C   0  0  0  0  0  0  0  0  0  0  0  0
  186.3020  178.4980  141.7130 C   0  0  0  0  0  3  0  0  0  0  0  0
  186.4440  178.6450  139.0030 Cl  0  0  0  0  0  0  0  0  0  0  0  0
  183.5130  178.5850  141.8120 C   0  0  0  0  0  3  0  0  0  0  0  0
  183.6120  178.4580  144.1880 F   0  0  0  0  0  0  0  0  0  0  0  0
  184.1600  178.6260  140.5690 C   0  0  0  0  0  0  0  0  0  0  0  0
  185.6450  178.4550  142.9460 C   0  0  0  0  0  3  0  0  0  0  0  0
  184.2500  178.4990  142.9950 C   0  0  0  0  0  0  0  0  0  0  0  0
  183.6000  176.4130  138.7410 C   0  0  0  0  0  2  0  0  0  0  0  0
  185.2150  175.8440  137.1230 O   0  0  0  0  0  0  0  0  0  0  0  0
  184.2070  176.4830  137.3790 C   0  0  0  0  0  3  0  0  0  0  0  0
  180.8830  175.7940  139.3960 C   0  0  0  0  0  2  0  0  0  0  0  0
  180.8560  176.2030  136.9790 O   0  0  0  0  0  0  0  0  0  0  0  0
  180.1630  176.0080  138.1510 N   0  0  0  0  0  0  0  0  0  0  0  0
  178.9310  175.8230  138.1140 O   0  0  0  0  0  0  0  0  0  0  0  0
  1 21  1  1  0  0  0
  2 27  1  6  0  0  0
  2  9  1  0  0  0  0
  3  1  1  0  0  0  0
  4  6  1  0  0  0  0
  5 15  1  0  0  0  0
  5 10  1  1  0  0  0
  7  8  1  0  0  0  0
  8  6  2  0  0  0  0
  8  3  1  0  0  0  0
  9  6  1  6  0  0  0
  9  5  1  0  0  0  0
  9 15  1  0  0  0  0
 11  4  2  0  0  0  0
 12 11  1  0  0  0  0
 12  7  2  0  0  0  0
 13  1  1  0  0  0  0
 13  2  1  0  0  0  0
 15 14  1  6  0  0  0
 16 21  2  0  0  0  0
 16 17  1  0  0  0  0
 17 22  2  0  0  0  0
 18 16  1  0  0  0  0
 19 23  2  0  0  0  0
 21 19  1  0  0  0  0
 22 23  1  0  0  0  0
 23 20  1  0  0  0  0
 24 13  1  0  0  0  0
 25 26  2  0  0  0  0
 26 24  1  0  0  0  0
 28 29  2  0  0  0  0
 29 27  1  0  0  0  0
 30 29  2  0  0  0  0
M  END
>  <MODEL>
1

>  <REMARK>
 VINA RESULT:      -5.1      0.000      0.000
  Name = 
  5 active torsions:
  status: ('A' for Active; 'I' for Inactive)
    1  A    between atoms: C_1  and  C_22
    2  A    between atoms: C_4  and  C_25
    3  A    between atoms: C_10  and  N_23
    4  A    between atoms: C_10  and  C_26
    5  A    between atoms: N_11  and  C_25
                            x       y       z     vdW  Elec       q    Type
                         _______ _______ _______ _____ _____    ______ ____

>  <TORSDO>
F 5

$$$$
=
 OpenBabel11052412213D

 30 33  0  0  1  0  0  0  0  0999 V2000
  181.7970  177.5470  140.9590 C   0  0  2  0  0  3  0  0  0  0  0  0
  181.4380  178.6580  138.7510 C   0  0  2  0  0  3  0  0  0  0  0  0
  181.9180  176.0690  140.5490 C   0  0  0  0  0  2  0  0  0  0  0  0
  179.7790  175.7420  137.4620 N   0  0  0  0  0  0  0  0  0  0  0  0
  182.1380  177.3900  136.5060 C   0  0  1  0  0  3  0  0  0  0  0  0
  180.7420  176.1820  138.3180 C   0  0  0  0  0  0  0  0  0  0  0  0
  179.9960  174.5700  139.9560 C   0  0  0  0  0  3  0  0  0  0  0  0
  180.8560  175.6080  139.5960 C   0  0  0  0  0  0  0  0  0  0  0  0
  181.6170  177.3500  137.9460 C   0  0  2  0  0  0  0  0  0  0  0  0
  182.4350  178.6870  136.0870 O   0  0  0  0  0  1  0  0  0  0  0  0
  178.9310  174.7330  137.8000 C   0  0  0  0  0  3  0  0  0  0  0  0
  179.0260  174.1270  139.0550 C   0  0  0  0  0  3  0  0  0  0  0  0
  180.9110  178.3820  140.1120 N   0  0  0  0  0  0  0  0  0  0  0  0
  183.3160  175.6420  137.5950 O   0  0  0  0  0  1  0  0  0  0  0  0
  183.0800  177.0180  137.6370 C   0  0  1  0  0  3  0  0  0  0  0  0
  183.3470  178.7140  142.5890 C   0  0  0  0  0  0  0  0  0  0  0  0
  184.5830  179.2870  142.9040 C   0  0  0  0  0  3  0  0  0  0  0  0
  182.0940  178.6950  143.8210 Cl  0  0  0  0  0  0  0  0  0  0  0  0
  184.1670  178.2020  140.3660 C   0  0  0  0  0  3  0  0  0  0  0  0
  186.3920  178.8020  139.7660 F   0  0  0  0  0  0  0  0  0  0  0  0
  183.1290  178.1680  141.3080 C   0  0  0  0  0  0  0  0  0  0  0  0
  185.6080  179.3180  141.9560 C   0  0  0  0  0  3  0  0  0  0  0  0
  185.4000  178.7740  140.6860 C   0  0  0  0  0  0  0  0  0  0  0  0
  180.6410  179.6270  140.8330 C   0  0  0  0  0  2  0  0  0  0  0  0
  178.9630  178.4720  142.0170 O   0  0  0  0  0  0  0  0  0  0  0  0
  179.3320  179.5350  141.5440 C   0  0  0  0  0  3  0  0  0  0  0  0
  180.4630  179.5540  137.9760 C   0  0  0  0  0  2  0  0  0  0  0  0
  182.1440  181.2760  138.4410 O   0  0  0  0  0  0  0  0  0  0  0  0
  181.0620  180.8520  137.7070 N   0  0  0  0  0  0  0  0  0  0  0  0
  180.7190  181.4870  136.6910 O   0  0  0  0  0  0  0  0  0  0  0  0
  1 21  1  6  0  0  0
  2 27  1  6  0  0  0
  2 13  1  0  0  0  0
  3  1  1  0  0  0  0
  4 11  2  0  0  0  0
  4  6  1  0  0  0  0
  5 10  1  1  0  0  0
  5 15  1  0  0  0  0
  5  9  1  0  0  0  0
  6  8  2  0  0  0  0
  8  7  1  0  0  0  0
  8  3  1  0  0  0  0
  9  6  1  1  0  0  0
  9  2  1  0  0  0  0
 11 12  1  0  0  0  0
 12  7  2  0  0  0  0
 13 24  1  0  0  0  0
 13  1  1  0  0  0  0
 15 14  1  6  0  0  0
 15  9  1  0  0  0  0
 16 17  1  0  0  0  0
 16 18  1  0  0  0  0
 19 23  2  0  0  0  0
 19 21  1  0  0  0  0
 20 23  1  0  0  0  0
 21 16  2  0  0  0  0
 22 17  2  0  0  0  0
 23 22  1  0  0  0  0
 24 26  1  0  0  0  0
 26 25  2  0  0  0  0
 29 27  1  0  0  0  0
 29 28  2  0  0  0  0
 30 29  2  0  0  0  0
M  END
>  <MODEL>
2

>  <REMARK>
 VINA RESULT:      -4.5      2.423      4.801
  Name = 
  5 active torsions:
  status: ('A' for Active; 'I' for Inactive)
    1  A    between atoms: C_1  and  C_22
    2  A    between atoms: C_4  and  C_25
    3  A    between atoms: C_10  and  N_23
    4  A    between atoms: C_10  and  C_26
    5  A    between atoms: N_11  and  C_25
                            x       y       z     vdW  Elec       q    Type
                         _______ _______ _______ _____ _____    ______ ____

>  <TORSDO>
F 5

$$$$
=
 OpenBabel11052412213D

 30 33  0  0  1  0  0  0  0  0999 V2000
  182.9370  177.6130  138.0640 C   0  0  2  0  0  3  0  0  0  0  0  0
  181.2640  175.8430  138.6170 C   0  0  2  0  0  3  0  0  0  0  0  0
  183.6830  176.9770  136.8780 C   0  0  0  0  0  2  0  0  0  0  0  0
  183.5030  173.2630  137.5000 N   0  0  0  0  0  0  0  0  0  0  0  0
  180.6460  173.9930  136.7910 C   0  0  1  0  0  3  0  0  0  0  0  0
  183.1180  174.5550  137.3100 C   0  0  0  0  0  0  0  0  0  0  0  0
  185.4350  175.1910  137.0610 C   0  0  0  0  0  3  0  0  0  0  0  0
  184.0870  175.5510  137.1010 C   0  0  0  0  0  0  0  0  0  0  0  0
  181.6670  174.9430  137.4260 C   0  0  2  0  0  0  0  0  0  0  0  0
  179.3890  174.0910  137.3900 O   0  0  0  0  0  1  0  0  0  0  0  0
  184.8130  172.8970  137.4660 C   0  0  0  0  0  3  0  0  0  0  0  0
  185.8040  173.8570  137.2450 C   0  0  0  0  0  3  0  0  0  0  0  0
  182.4110  176.6670  139.0770 N   0  0  0  0  0  0  0  0  0  0  0  0
  181.7650  175.0680  134.9970 O   0  0  0  0  0  1  0  0  0  0  0  0
  180.9660  175.3140  136.1160 C   0  0  1  0  0  3  0  0  0  0  0  0
  182.1730  180.0280  138.0640 C   0  0  0  0  0  0  0  0  0  0  0  0
  181.2820  181.0290  137.6630 C   0  0  0  0  0  3  0  0  0  0  0  0
  183.5220  180.4740  139.0980 Cl  0  0  0  0  0  0  0  0  0  0  0  0
  180.8910  178.4030  136.8030 C   0  0  0  0  0  3  0  0  0  0  0  0
  178.9570  179.1030  135.6030 F   0  0  0  0  0  0  0  0  0  0  0  0
  181.9790  178.7000  137.6360 C   0  0  0  0  0  0  0  0  0  0  0  0
  180.2000  180.7190  136.8360 C   0  0  0  0  0  3  0  0  0  0  0  0
  180.0040  179.4050  136.4050 C   0  0  0  0  0  0  0  0  0  0  0  0
  182.0570  177.4370  140.2720 C   0  0  0  0  0  2  0  0  0  0  0  0
  183.2130  178.5580  141.9920 O   0  0  0  0  0  0  0  0  0  0  0  0
  183.2930  177.8600  140.9940 C   0  0  0  0  0  3  0  0  0  0  0  0
  180.7790  174.9290  139.7510 C   0  0  0  0  0  2  0  0  0  0  0  0
  179.1260  175.0150  141.5600 O   0  0  0  0  0  0  0  0  0  0  0  0
  179.5310  175.4230  140.3100 N   0  0  0  0  0  0  0  0  0  0  0  0
  178.9320  176.3580  139.7430 O   0  0  0  0  0  0  0  0  0  0  0  0
  1 21  1  6  0  0  0
  1 13  1  0  0  0  0
  2 13  1  0  0  0  0
  2 27  1  1  0  0  0
  3  8  1  0  0  0  0
  3  1  1  0  0  0  0
  5 10  1  1  0  0  0
  5  9  1  0  0  0  0
  6  4  2  0  0  0  0
  7  8  2  0  0  0  0
  7 12  1  0  0  0  0
  8  6  1  0  0  0  0
  9  6  1  6  0  0  0
  9  2  1  0  0  0  0
 11  4  1  0  0  0  0
 12 11  2  0  0  0  0
 13 24  1  0  0  0  0
 15 14  1  6  0  0  0
 15  5  1  0  0  0  0
 15  9  1  0  0  0  0
 16 18  1  0  0  0  0
 17 16  1  0  0  0  0
 19 21  1  0  0  0  0
 20 23  1  0  0  0  0
 21 16  2  0  0  0  0
 22 17  2  0  0  0  0
 23 19  2  0  0  0  0
 23 22  1  0  0  0  0
 24 26  1  0  0  0  0
 26 25  2  0  0  0  0
 27 29  1  0  0  0  0
 29 28  2  0  0  0  0
 30 29  2  0  0  0  0
M  END
>  <MODEL>
3

>  <REMARK>
 VINA RESULT:      -4.1      2.835      5.709
  Name = 
  5 active torsions:
  status: ('A' for Active; 'I' for Inactive)
    1  A    between atoms: C_1  and  C_22
    2  A    between atoms: C_4  and  C_25
    3  A    between atoms: C_10  and  N_23
    4  A    between atoms: C_10  and  C_26
    5  A    between atoms: N_11  and  C_25
                            x       y       z     vdW  Elec       q    Type
                         _______ _______ _______ _____ _____    ______ ____

>  <TORSDO>
F 5

$$$$
=
 OpenBabel11052412213D

 30 33  0  0  1  0  0  0  0  0999 V2000
  182.9600  179.0780  139.8380 C   0  0  2  0  0  3  0  0  0  0  0  0
  180.8030  178.7920  138.6120 C   0  0  2  0  0  3  0  0  0  0  0  0
  182.7160  178.2340  141.1010 C   0  0  0  0  0  2  0  0  0  0  0  0
  178.9990  178.4430  141.7010 N   0  0  0  0  0  0  0  0  0  0  0  0
  179.2100  176.7310  139.2070 C   0  0  1  0  0  3  0  0  0  0  0  0
  180.1910  178.2190  141.0820 C   0  0  0  0  0  0  0  0  0  0  0  0
  181.3440  178.9490  143.0760 C   0  0  0  0  0  3  0  0  0  0  0  0
  181.3930  178.4860  141.7600 C   0  0  0  0  0  0  0  0  0  0  0  0
  180.2320  177.7870  139.6390 C   0  0  2  0  0  0  0  0  0  0  0  0
  178.9310  176.7950  137.8400 O   0  0  0  0  0  1  0  0  0  0  0  0
  178.9350  178.8970  142.9820 C   0  0  0  0  0  3  0  0  0  0  0  0
  180.1090  179.1570  143.6940 C   0  0  0  0  0  3  0  0  0  0  0  0
  181.7620  179.7270  139.2540 N   0  0  0  0  0  0  0  0  0  0  0  0
  180.7960  175.6090  140.5680 O   0  0  0  0  0  1  0  0  0  0  0  0
  180.6660  176.3410  139.3860 C   0  0  1  0  0  3  0  0  0  0  0  0
  185.2590  178.3190  139.0910 C   0  0  0  0  0  0  0  0  0  0  0  0
  186.0980  177.6860  138.1690 C   0  0  0  0  0  3  0  0  0  0  0  0
  185.9760  179.0020  140.5440 Cl  0  0  0  0  0  0  0  0  0  0  0  0
  183.3540  177.8250  137.6760 C   0  0  0  0  0  3  0  0  0  0  0  0
  183.6800  176.6480  135.6320 F   0  0  0  0  0  0  0  0  0  0  0  0
  183.8740  178.3960  138.8470 C   0  0  0  0  0  0  0  0  0  0  0  0
  185.5680  177.1240  137.0050 C   0  0  0  0  0  3  0  0  0  0  0  0
  184.1950  177.1930  136.7590 C   0  0  0  0  0  0  0  0  0  0  0  0
  182.2190  180.7440  138.3040 C   0  0  0  0  0  2  0  0  0  0  0  0
  181.1000  182.7740  137.8790 O   0  0  0  0  0  0  0  0  0  0  0  0
  181.6920  182.0850  138.6940 C   0  0  0  0  0  3  0  0  0  0  0  0
  179.6240  179.5700  138.0120 C   0  0  0  0  0  2  0  0  0  0  0  0
  179.2630  180.7930  135.9190 O   0  0  0  0  0  0  0  0  0  0  0  0
  179.7710  179.6930  136.5710 N   0  0  0  0  0  0  0  0  0  0  0  0
  180.5200  178.9060  135.9600 O   0  0  0  0  0  0  0  0  0  0  0  0
  1 21  1  6  0  0  0
  1  3  1  0  0  0  0
  2 27  1  1  0  0  0
  2 13  1  0  0  0  0
  2  9  1  0  0  0  0
  3  8  1  0  0  0  0
  4 11  1  0  0  0  0
  5 10  1  6  0  0  0
  5 15  1  0  0  0  0
  5  9  1  0  0  0  0
  6  4  2  0  0  0  0
  6  8  1  0  0  0  0
  7 12  1  0  0  0  0
  8  7  2  0  0  0  0
  9  6  1  1  0  0  0
 11 12  2  0  0  0  0
 13  1  1  0  0  0  0
 15  9  1  0  0  0  0
 15 14  1  1  0  0  0
 16 18  1  0  0  0  0
 17 16  2  0  0  0  0
 19 21  2  0  0  0  0
 20 23  1  0  0  0  0
 21 16  1  0  0  0  0
 22 17  1  0  0  0  0
 23 22  2  0  0  0  0
 23 19  1  0  0  0  0
 24 26  1  0  0  0  0
 24 13  1  0  0  0  0
 25 26  2  0  0  0  0
 28 29  2  0  0  0  0
 29 27  1  0  0  0  0
 30 29  2  0  0  0  0
M  END
>  <MODEL>
4

>  <REMARK>
 VINA RESULT:      -4.1      2.685      4.571
  Name = 
  5 active torsions:
  status: ('A' for Active; 'I' for Inactive)
    1  A    between atoms: C_1  and  C_22
    2  A    between atoms: C_4  and  C_25
    3  A    between atoms: C_10  and  N_23
    4  A    between atoms: C_10  and  C_26
    5  A    between atoms: N_11  and  C_25
                            x       y       z     vdW  Elec       q    Type
                         _______ _______ _______ _____ _____    ______ ____

>  <TORSDO>
F 5

$$$$
=
 OpenBabel11052412213D

 30 33  0  0  1  0  0  0  0  0999 V2000
  180.5800  178.1910  138.7620 C   0  0  2  0  0  3  0  0  0  0  0  0
  182.2360  177.3580  137.0880 C   0  0  2  0  0  3  0  0  0  0  0  0
  179.4580  178.7230  137.8530 C   0  0  0  0  0  2  0  0  0  0  0  0
  181.2100  179.8500  134.7110 N   0  0  0  0  0  0  0  0  0  0  0  0
  181.4390  176.8290  134.5940 C   0  0  1  0  0  3  0  0  0  0  0  0
  180.7920  179.0580  135.7360 C   0  0  0  0  0  0  0  0  0  0  0  0
  179.5090  180.9060  136.6180 C   0  0  0  0  0  3  0  0  0  0  0  0
  179.9400  179.5820  136.7230 C   0  0  0  0  0  0  0  0  0  0  0  0
  181.3190  177.6540  135.8790 C   0  0  2  0  0  0  0  0  0  0  0  0
  182.4040  175.8250  134.6980 O   0  0  0  0  0  1  0  0  0  0  0  0
  180.8010  181.1430  134.5970 C   0  0  0  0  0  3  0  0  0  0  0  0
  179.9410  181.6940  135.5490 C   0  0  0  0  0  3  0  0  0  0  0  0
  181.9540  178.2850  138.2140 N   0  0  0  0  0  0  0  0  0  0  0  0
  179.1190  177.0130  135.0560 O   0  0  0  0  0  1  0  0  0  0  0  0
  180.3220  176.5310  135.5770 C   0  0  1  0  0  3  0  0  0  0  0  0
  179.7970  176.8270  140.7480 C   0  0  0  0  0  0  0  0  0  0  0  0
  179.4760  175.6010  141.3400 C   0  0  0  0  0  3  0  0  0  0  0  0
  179.6390  178.2890  141.7120 Cl  0  0  0  0  0  0  0  0  0  0  0  0
  180.3290  175.6750  138.6830 C   0  0  0  0  0  3  0  0  0  0  0  0
  180.1080  173.3070  138.5660 F   0  0  0  0  0  0  0  0  0  0  0  0
  180.2320  176.8710  139.4090 C   0  0  0  0  0  0  0  0  0  0  0  0
  179.5800  174.4170  140.6070 C   0  0  0  0  0  3  0  0  0  0  0  0
  180.0070  174.4540  139.2780 C   0  0  0  0  0  0  0  0  0  0  0  0
  182.8950  178.0730  139.3160 C   0  0  0  0  0  2  0  0  0  0  0  0
  184.5710  179.7130  139.5420 O   0  0  0  0  0  0  0  0  0  0  0  0
  183.4240  179.3830  139.7980 C   0  0  0  0  0  3  0  0  0  0  0  0
  183.6900  177.5130  136.6230 C   0  0  0  0  0  2  0  0  0  0  0  0
  185.8610  176.5140  137.1690 O   0  0  0  0  0  0  0  0  0  0  0  0
  184.4950  176.3880  137.0690 N   0  0  0  0  0  0  0  0  0  0  0  0
  183.9330  175.3800  137.5430 O   0  0  0  0  0  0  0  0  0  0  0  0
  1 21  1  6  0  0  0
  2 27  1  6  0  0  0
  2 13  1  0  0  0  0
  3  1  1  0  0  0  0
  4  6  1  0  0  0  0
  5 10  1  1  0  0  0
  5 15  1  0  0  0  0
  5  9  1  0  0  0  0
  6  8  2  0  0  0  0
  7  8  1  0  0  0  0
  8  3  1  0  0  0  0
  9  6  1  6  0  0  0
  9  2  1  0  0  0  0
 11  4  2  0  0  0  0
 11 12  1  0  0  0  0
 12  7  2  0  0  0  0
 13  1  1  0  0  0  0
 13 24  1  0  0  0  0
 15 14  1  6  0  0  0
 15  9  1  0  0  0  0
 16 17  1  0  0  0  0
 16 18  1  0  0  0  0
 19 23  2  0  0  0  0
 19 21  1  0  0  0  0
 20 23  1  0  0  0  0
 21 16  2  0  0  0  0
 22 17  2  0  0  0  0
 23 22  1  0  0  0  0
 24 26  1  0  0  0  0
 25 26  2  0  0  0  0
 27 29  1  0  0  0  0
 29 28  2  0  0  0  0
 29 30  2  0  0  0  0
M  END
>  <MODEL>
5

>  <REMARK>
 VINA RESULT:      -4.1      3.189      5.118
  Name = 
  5 active torsions:
  status: ('A' for Active; 'I' for Inactive)
    1  A    between atoms: C_1  and  C_22
    2  A    between atoms: C_4  and  C_25
    3  A    between atoms: C_10  and  N_23
    4  A    between atoms: C_10  and  C_26
    5  A    between atoms: N_11  and  C_25
                            x       y       z     vdW  Elec       q    Type
                         _______ _______ _______ _____ _____    ______ ____

>  <TORSDO>
F 5

$$$$
=
 OpenBabel11052412213D

 30 33  0  0  1  0  0  0  0  0999 V2000
  183.8100  177.8230  138.0800 C   0  0  2  0  0  3  0  0  0  0  0  0
  184.0330  175.5360  137.1020 C   0  0  2  0  0  3  0  0  0  0  0  0
  185.0890  178.5090  137.5670 C   0  0  0  0  0  2  0  0  0  0  0  0
  187.6190  175.7300  137.2600 N   0  0  0  0  0  0  0  0  0  0  0  0
  185.6610  175.1450  135.0190 C   0  0  1  0  0  3  0  0  0  0  0  0
  186.4760  176.4520  137.0980 C   0  0  0  0  0  0  0  0  0  0  0  0
  187.3870  178.1800  138.5200 C   0  0  0  0  0  3  0  0  0  0  0  0
  186.3340  177.6920  137.7430 C   0  0  0  0  0  0  0  0  0  0  0  0
  185.3200  175.8840  136.3170 C   0  0  2  0  0  0  0  0  0  0  0  0
  184.6850  174.2100  134.6710 O   0  0  0  0  0  1  0  0  0  0  0  0
  188.6520  176.1910  138.0160 C   0  0  0  0  0  3  0  0  0  0  0  0
  188.5540  177.4270  138.6590 C   0  0  0  0  0  3  0  0  0  0  0  0
  183.9140  176.3650  138.3280 N   0  0  0  0  0  0  0  0  0  0  0  0
  186.0400  177.4480  134.5950 O   0  0  0  0  0  1  0  0  0  0  0  0
  185.0490  176.5320  134.9560 C   0  0  1  0  0  3  0  0  0  0  0  0
  181.9270  179.4700  137.6790 C   0  0  0  0  0  0  0  0  0  0  0  0
  180.7810  179.8720  136.9840 C   0  0  0  0  0  3  0  0  0  0  0  0
  182.5280  180.5000  138.9700 Cl  0  0  0  0  0  0  0  0  0  0  0  0
  182.0550  177.4870  136.2900 C   0  0  0  0  0  3  0  0  0  0  0  0
  180.4210  177.1310  134.5940 F   0  0  0  0  0  0  0  0  0  0  0  0
  182.5720  178.2650  137.3350 C   0  0  0  0  0  0  0  0  0  0  0  0
  180.2740  179.0870  135.9470 C   0  0  0  0  0  3  0  0  0  0  0  0
  180.9110  177.8930  135.5990 C   0  0  0  0  0  0  0  0  0  0  0  0
  182.7530  175.9600  139.1240 C   0  0  0  0  0  2  0  0  0  0  0  0
  181.4210  177.3280  140.5040 O   0  0  0  0  0  0  0  0  0  0  0  0
  182.5420  176.9180  140.2480 C   0  0  0  0  0  3  0  0  0  0  0  0
  184.0980  174.0480  137.4710 C   0  0  0  0  0  2  0  0  0  0  0  0
  181.8970  174.0400  136.3920 O   0  0  0  0  0  0  0  0  0  0  0  0
  182.9430  173.3380  136.9460 N   0  0  0  0  0  0  0  0  0  0  0  0
  182.9870  172.0990  136.8230 O   0  0  0  0  0  0  0  0  0  0  0  0
  1 21  1  6  0  0  0
  1 13  1  0  0  0  0
  2 27  1  1  0  0  0
  2 13  1  0  0  0  0
  3  8  1  0  0  0  0
  3  1  1  0  0  0  0
  4 11  1  0  0  0  0
  5 10  1  6  0  0  0
  5  9  1  0  0  0  0
  6  4  2  0  0  0  0
  6  8  1  0  0  0  0
  7 12  1  0  0  0  0
  8  7  2  0  0  0  0
  9  6  1  1  0  0  0
  9  2  1  0  0  0  0
 11 12  2  0  0  0  0
 13 24  1  0  0  0  0
 15 14  1  1  0  0  0
 15  5  1  0  0  0  0
 15  9  1  0  0  0  0
 16 18  1  0  0  0  0
 17 16  2  0  0  0  0
 19 21  2  0  0  0  0
 20 23  1  0  0  0  0
 21 16  1  0  0  0  0
 22 17  1  0  0  0  0
 23 22  2  0  0  0  0
 23 19  1  0  0  0  0
 24 26  1  0  0  0  0
 26 25  2  0  0  0  0
 28 29  2  0  0  0  0
 29 27  1  0  0  0  0
 30 29  2  0  0  0  0
M  END
>  <MODEL>
6

>  <REMARK>
 VINA RESULT:      -3.9      3.348      6.599
  Name = 
  5 active torsions:
  status: ('A' for Active; 'I' for Inactive)
    1  A    between atoms: C_1  and  C_22
    2  A    between atoms: C_4  and  C_25
    3  A    between atoms: C_10  and  N_23
    4  A    between atoms: C_10  and  C_26
    5  A    between atoms: N_11  and  C_25
                            x       y       z     vdW  Elec       q    Type
                         _______ _______ _______ _____ _____    ______ ____

>  <TORSDO>
F 5

$$$$
=
 OpenBabel11052412213D

 30 33  0  0  1  0  0  0  0  0999 V2000
  181.9110  175.4720  137.8330 C   0  0  2  0  0  3  0  0  0  0  0  0
  181.8110  177.9410  137.4700 C   0  0  2  0  0  3  0  0  0  0  0  0
  183.3440  175.2930  138.3650 C   0  0  0  0  0  2  0  0  0  0  0  0
  185.3290  178.0600  136.7470 N   0  0  0  0  0  0  0  0  0  0  0  0
  183.5570  179.5310  138.7190 C   0  0  1  0  0  3  0  0  0  0  0  0
  184.3660  177.4180  137.4650 C   0  0  0  0  0  0  0  0  0  0  0  0
  185.4200  175.3040  136.9560 C   0  0  0  0  0  3  0  0  0  0  0  0
  184.3880  176.0170  137.5690 C   0  0  0  0  0  0  0  0  0  0  0  0
  183.2180  178.1900  138.0600 C   0  0  2  0  0  0  0  0  0  0  0  0
  182.4680  180.4040  138.7320 O   0  0  0  0  0  1  0  0  0  0  0  0
  186.3400  177.3790  136.1430 C   0  0  0  0  0  3  0  0  0  0  0  0
  186.4040  175.9870  136.2380 C   0  0  0  0  0  3  0  0  0  0  0  0
  181.7120  176.5840  136.8730 N   0  0  0  0  0  0  0  0  0  0  0  0
  184.4030  177.8460  140.1590 O   0  0  0  0  0  1  0  0  0  0  0  0
  183.2250  178.3300  139.5850 C   0  0  1  0  0  3  0  0  0  0  0  0
  180.0750  174.2040  139.0330 C   0  0  0  0  0  0  0  0  0  0  0  0
  179.1110  174.1110  140.0420 C   0  0  0  0  0  3  0  0  0  0  0  0
  180.2660  172.8490  137.9300 Cl  0  0  0  0  0  0  0  0  0  0  0  0
  180.6790  176.4100  139.8340 C   0  0  0  0  0  3  0  0  0  0  0  0
  179.5430  177.3320  141.7130 F   0  0  0  0  0  0  0  0  0  0  0  0
  180.8670  175.3630  138.9200 C   0  0  0  0  0  0  0  0  0  0  0  0
  178.9310  175.1620  140.9440 C   0  0  0  0  0  3  0  0  0  0  0  0
  179.7160  176.3130  140.8400 C   0  0  0  0  0  0  0  0  0  0  0  0
  180.4160  176.3910  136.2200 C   0  0  0  0  0  2  0  0  0  0  0  0
  179.8900  174.4760  134.9520 O   0  0  0  0  0  0  0  0  0  0  0  0
  180.5650  175.4900  135.0400 C   0  0  0  0  0  3  0  0  0  0  0  0
  181.5560  179.0110  136.4000 C   0  0  0  0  0  2  0  0  0  0  0  0
  179.5060  179.3460  137.7030 O   0  0  0  0  0  0  0  0  0  0  0  0
  180.3610  179.7780  136.7150 N   0  0  0  0  0  0  0  0  0  0  0  0
  180.2150  180.9160  136.2290 O   0  0  0  0  0  0  0  0  0  0  0  0
  1  3  1  0  0  0  0
  1 21  1  1  0  0  0
  2 27  1  6  0  0  0
  2  9  1  0  0  0  0
  4  6  1  0  0  0  0
  5 10  1  6  0  0  0
  5 15  1  0  0  0  0
  6  8  2  0  0  0  0
  7  8  1  0  0  0  0
  8  3  1  0  0  0  0
  9  6  1  6  0  0  0
  9  5  1  0  0  0  0
  9 15  1  0  0  0  0
 11 12  1  0  0  0  0
 11  4  2  0  0  0  0
 12  7  2  0  0  0  0
 13  2  1  0  0  0  0
 13  1  1  0  0  0  0
 15 14  1  1  0  0  0
 16 17  1  0  0  0  0
 17 22  2  0  0  0  0
 18 16  1  0  0  0  0
 19 23  2  0  0  0  0
 21 16  2  0  0  0  0
 21 19  1  0  0  0  0
 23 22  1  0  0  0  0
 23 20  1  0  0  0  0
 24 13  1  0  0  0  0
 25 26  2  0  0  0  0
 26 24  1  0  0  0  0
 27 29  1  0  0  0  0
 29 28  2  0  0  0  0
 30 29  2  0  0  0  0
M  END
>  <MODEL>
7

>  <REMARK>
 VINA RESULT:      -3.8      3.066      5.534
  Name = 
  5 active torsions:
  status: ('A' for Active; 'I' for Inactive)
    1  A    between atoms: C_1  and  C_22
    2  A    between atoms: C_4  and  C_25
    3  A    between atoms: C_10  and  N_23
    4  A    between atoms: C_10  and  C_26
    5  A    between atoms: N_11  and  C_25
                            x       y       z     vdW  Elec       q    Type
                         _______ _______ _______ _____ _____    ______ ____

>  <TORSDO>
F 5

$$$$
=
 OpenBabel11052412213D

 30 33  0  0  1  0  0  0  0  0999 V2000
  182.8240  179.0070  139.9410 C   0  0  2  0  0  3  0  0  0  0  0  0
  182.4410  176.6020  139.3870 C   0  0  2  0  0  3  0  0  0  0  0  0
  181.4470  179.6210  139.6320 C   0  0  0  0  0  2  0  0  0  0  0  0
  180.0300  177.4800  136.8710 N   0  0  0  0  0  0  0  0  0  0  0  0
  179.9470  175.6510  139.2880 C   0  0  1  0  0  3  0  0  0  0  0  0
  180.5660  177.8460  138.0680 C   0  0  0  0  0  0  0  0  0  0  0  0
  180.5810  180.1490  137.3370 C   0  0  0  0  0  3  0  0  0  0  0  0
  180.8680  179.1960  138.3160 C   0  0  0  0  0  0  0  0  0  0  0  0
  180.9370  176.8020  139.0880 C   0  0  2  0  0  0  0  0  0  0  0  0
  180.5650  174.5000  139.7780 O   0  0  0  0  0  1  0  0  0  0  0  0
  179.7480  178.3970  135.9060 C   0  0  0  0  0  3  0  0  0  0  0  0
  180.0180  179.7510  136.1230 C   0  0  0  0  0  3  0  0  0  0  0  0
  183.2120  177.8420  139.1110 N   0  0  0  0  0  0  0  0  0  0  0  0
  178.9350  177.5750  140.2380 O   0  0  0  0  0  1  0  0  0  0  0  0
  180.0520  176.7420  140.3370 C   0  0  1  0  0  3  0  0  0  0  0  0
  182.0680  179.1730  142.3540 C   0  0  0  0  0  0  0  0  0  0  0  0
  182.3100  179.0320  143.7240 C   0  0  0  0  0  3  0  0  0  0  0  0
  180.4870  179.7430  141.8380 Cl  0  0  0  0  0  0  0  0  0  0  0  0
  184.3170  178.3970  141.8900 C   0  0  0  0  0  3  0  0  0  0  0  0
  185.7560  177.8140  143.6950 F   0  0  0  0  0  0  0  0  0  0  0  0
  183.0770  178.8580  141.4230 C   0  0  0  0  0  0  0  0  0  0  0  0
  183.5500  178.5750  144.1760 C   0  0  0  0  0  3  0  0  0  0  0  0
  184.5540  178.2570  143.2580 C   0  0  0  0  0  0  0  0  0  0  0  0
  184.6480  177.6180  139.2920 C   0  0  0  0  0  2  0  0  0  0  0  0
  186.6070  178.6290  138.4610 O   0  0  0  0  0  0  0  0  0  0  0  0
  185.4200  178.4040  138.2860 C   0  0  0  0  0  3  0  0  0  0  0  0
  182.9460  175.4550  138.5020 C   0  0  0  0  0  2  0  0  0  0  0  0
  183.2510  176.6530  136.3850 O   0  0  0  0  0  0  0  0  0  0  0  0
  182.5940  175.6870  137.1110 N   0  0  0  0  0  0  0  0  0  0  0  0
  181.8390  174.8850  136.5260 O   0  0  0  0  0  0  0  0  0  0  0  0
  1 21  1  1  0  0  0
  2 27  1  6  0  0  0
  3  1  1  0  0  0  0
  4  6  1  0  0  0  0
  5 10  1  1  0  0  0
  5 15  1  0  0  0  0
  6  8  2  0  0  0  0
  7  8  1  0  0  0  0
  8  3  1  0  0  0  0
  9  6  1  6  0  0  0
  9  5  1  0  0  0  0
  9  2  1  0  0  0  0
  9 15  1  0  0  0  0
 11 12  1  0  0  0  0
 11  4  2  0  0  0  0
 12  7  2  0  0  0  0
 13 24  1  0  0  0  0
 13  2  1  0  0  0  0
 13  1  1  0  0  0  0
 15 14  1  6  0  0  0
 16 17  1  0  0  0  0
 17 22  2  0  0  0  0
 18 16  1  0  0  0  0
 19 23  2  0  0  0  0
 21 19  1  0  0  0  0
 21 16  2  0  0  0  0
 23 20  1  0  0  0  0
 23 22  1  0  0  0  0
 26 25  2  0  0  0  0
 26 24  1  0  0  0  0
 28 29  2  0  0  0  0
 29 27  1  0  0  0  0
 30 29  2  0  0  0  0
M  END
>  <MODEL>
8

>  <REMARK>
 VINA RESULT:      -3.7      2.046      2.571
  Name = 
  5 active torsions:
  status: ('A' for Active; 'I' for Inactive)
    1  A    between atoms: C_1  and  C_22
    2  A    between atoms: C_4  and  C_25
    3  A    between atoms: C_10  and  N_23
    4  A    between atoms: C_10  and  C_26
    5  A    between atoms: N_11  and  C_25
                            x       y       z     vdW  Elec       q    Type
                         _______ _______ _______ _____ _____    ______ ____

>  <TORSDO>
F 5

$$$$
=
 OpenBabel11052412213D

 30 33  0  0  1  0  0  0  0  0999 V2000
  180.1960  178.3420  140.0030 C   0  0  2  0  0  3  0  0  0  0  0  0
  182.0420  178.2830  138.3220 C   0  0  2  0  0  3  0  0  0  0  0  0
  179.1200  179.1520  139.2580 C   0  0  0  0  0  2  0  0  0  0  0  0
  181.0500  181.4750  137.0000 N   0  0  0  0  0  0  0  0  0  0  0  0
  181.4980  178.7500  135.7480 C   0  0  1  0  0  3  0  0  0  0  0  0
  180.6020  180.3310  137.5890 C   0  0  0  0  0  0  0  0  0  0  0  0
  179.1240  181.6450  138.9770 C   0  0  0  0  0  3  0  0  0  0  0  0
  179.6350  180.4000  138.6060 C   0  0  0  0  0  0  0  0  0  0  0  0
  181.2120  179.0010  137.2320 C   0  0  2  0  0  0  0  0  0  0  0  0
  182.5180  177.8170  135.5570 O   0  0  0  0  0  1  0  0  0  0  0  0
  180.5630  182.6950  137.3530 C   0  0  0  0  0  3  0  0  0  0  0  0
  179.5880  182.8020  138.3480 C   0  0  0  0  0  3  0  0  0  0  0  0
  181.6020  178.6860  139.6820 N   0  0  0  0  0  0  0  0  0  0  0  0
  179.1400  178.6650  135.9990 O   0  0  0  0  0  1  0  0  0  0  0  0
  180.3260  178.0560  136.4160 C   0  0  1  0  0  3  0  0  0  0  0  0
  179.5500  176.2440  141.2680 C   0  0  0  0  0  0  0  0  0  0  0  0
  179.2650  174.8750  141.3010 C   0  0  0  0  0  3  0  0  0  0  0  0
  179.4710  177.1520  142.7700 Cl  0  0  0  0  0  0  0  0  0  0  0  0
  179.9250  176.0930  138.8780 C   0  0  0  0  0  3  0  0  0  0  0  0
  179.6820  173.9940  137.7790 F   0  0  0  0  0  0  0  0  0  0  0  0
  179.8870  176.8640  140.0490 C   0  0  0  0  0  0  0  0  0  0  0  0
  179.3100  174.1170  140.1290 C   0  0  0  0  0  3  0  0  0  0  0  0
  179.6400  174.7270  138.9160 C   0  0  0  0  0  0  0  0  0  0  0  0
  182.4580  178.0890  140.7090 C   0  0  0  0  0  2  0  0  0  0  0  0
  183.1890  178.7740  142.8410 O   0  0  0  0  0  0  0  0  0  0  0  0
  182.3110  178.8310  141.9950 C   0  0  0  0  0  3  0  0  0  0  0  0
  183.5160  178.6540  138.1090 C   0  0  0  0  0  2  0  0  0  0  0  0
  184.9590  179.5560  139.8730 O   0  0  0  0  0  0  0  0  0  0  0  0
  183.9080  179.7320  139.0030 N   0  0  0  0  0  0  0  0  0  0  0  0
  183.4230  180.8690  138.8440 O   0  0  0  0  0  0  0  0  0  0  0  0
  1 21  1  6  0  0  0
  2 27  1  6  0  0  0
  2 13  1  0  0  0  0
  3  1  1  0  0  0  0
  4 11  2  0  0  0  0
  4  6  1  0  0  0  0
  5 10  1  1  0  0  0
  5 15  1  0  0  0  0
  5  9  1  0  0  0  0
  6  8  2  0  0  0  0
  8  7  1  0  0  0  0
  8  3  1  0  0  0  0
  9  6  1  1  0  0  0
  9  2  1  0  0  0  0
 11 12  1  0  0  0  0
 12  7  2  0  0  0  0
 13  1  1  0  0  0  0
 13 24  1  0  0  0  0
 15 14  1  6  0  0  0
 15  9  1  0  0  0  0
 16 17  1  0  0  0  0
 16 18  1  0  0  0  0
 19 23  2  0  0  0  0
 19 21  1  0  0  0  0
 20 23  1  0  0  0  0
 21 16  2  0  0  0  0
 22 17  2  0  0  0  0
 23 22  1  0  0  0  0
 24 26  1  0  0  0  0
 26 25  2  0  0  0  0
 27 29  1  0  0  0  0
 29 28  2  0  0  0  0
 30 29  2  0  0  0  0
M  END
>  <MODEL>
9

>  <REMARK>
 VINA RESULT:      -3.5      3.239      5.309
  Name = 
  5 active torsions:
  status: ('A' for Active; 'I' for Inactive)
    1  A    between atoms: C_1  and  C_22
    2  A    between atoms: C_4  and  C_25
    3  A    between atoms: C_10  and  N_23
    4  A    between atoms: C_10  and  C_26
    5  A    between atoms: N_11  and  C_25
                            x       y       z     vdW  Elec       q    Type
                         _______ _______ _______ _____ _____    ______ ____

>  <TORSDO>
F 5

$$$$
