=
 OpenBabel11052415003D

 55 59  0  0  1  0  0  0  0  0999 V2000
  191.9440  176.8960  146.5800 O   0  0  0  0  0  1  0  0  0  0  0  0
  191.0170  177.4690  145.7070 C   0  0  1  0  0  3  0  0  0  0  0  0
  191.2360  176.8930  144.3410 C   0  0  0  0  0  3  0  0  0  0  0  0
  191.7250  177.6280  143.3420 C   0  0  0  0  0  3  0  0  0  0  0  0
  191.9240  177.0100  142.0010 C   0  0  0  0  0  2  0  0  0  0  0  0
  191.4600  177.8880  141.0020 O   0  0  0  0  0  0  0  0  0  0  0  0
  187.9500  177.4080  141.2530 C   0  0  0  0  0  3  0  0  0  0  0  0
  188.4420  177.8550  138.8810 N   0  0  1  0  0  0  0  0  0  0  0  0
  189.2450  177.1390  141.4580 C   0  0  0  0  0  3  0  0  0  0  0  0
  189.7380  178.3330  139.3560 C   0  0  0  0  0  2  0  0  0  0  0  0
  187.4780  178.0400  139.9680 C   0  0  0  0  0  2  0  0  0  0  0  0
  190.3070  177.3380  140.3870 C   0  0  1  0  0  0  0  0  0  0  0  0
  188.0230  178.7290  137.7940 C   0  0  0  0  0  3  0  0  0  0  0  0
  189.0420  178.6820  136.6650 C   0  0  0  0  0  2  0  0  0  0  0  0
  187.7500  177.8920  136.5530 C   0  0  0  0  0  2  0  0  0  0  0  0
  190.6120  176.1230  139.6890 O   0  0  0  0  0  0  0  0  0  0  0  0
  192.7970  175.6730  136.0700 C   0  0  0  0  0  3  0  0  0  0  0  0
  193.2820  176.5070  137.0060 C   0  0  0  0  0  3  0  0  0  0  0  0
  189.5650  174.9510  137.3500 O   0  0  0  0  0  0  0  0  0  0  0  0
  191.2270  176.2740  138.4120 C   0  0  1  0  0  3  0  0  0  0  0  0
  192.7540  176.4610  138.4120 C   0  0  0  0  0  2  0  0  0  0  0  0
  190.7450  175.2680  137.3900 C   0  0  0  0  0  0  0  0  0  0  0  0
  191.7150  174.6740  136.3960 C   0  0  2  0  0  3  0  0  0  0  0  0
  192.3030  173.5120  136.9300 O   0  0  0  0  0  0  0  0  0  0  0  0
  193.1590  173.0460  134.8820 F   0  0  0  0  0  0  0  0  0  0  0  0
  191.1320  172.2330  135.4010 F   0  0  0  0  0  0  0  0  0  0  0  0
  192.9930  171.3880  136.3820 F   0  0  0  0  0  0  0  0  0  0  0  0
  192.3870  172.5390  135.9110 C   0  0  0  0  0  0  0  0  0  0  0  0
  189.5920  177.2000  146.2010 C   0  0  1  0  0  3  0  0  0  0  0  0
  189.4070  177.7580  147.4660 O   0  0  0  0  0  1  0  0  0  0  0  0
  188.5860  177.8140  145.2410 C   0  0  0  0  0  2  0  0  0  0  0  0
  187.2000  177.2380  145.4840 C   0  0  0  0  0  2  0  0  0  0  0  0
  186.1520  178.3180  145.2800 C   0  0  0  0  0  2  0  0  0  0  0  0
  184.3600  178.6680  143.6460 C   0  0  0  0  0  3  0  0  0  0  0  0
  185.5820  178.2140  143.9080 C   0  0  0  0  0  3  0  0  0  0  0  0
  183.8020  178.5810  142.2610 C   0  0  0  0  0  2  0  0  0  0  0  0
  182.3360  179.0170  142.2270 C   0  0  2  0  0  3  0  0  0  0  0  0
  179.6380  177.9270  144.4810 O   0  0  0  0  0  1  0  0  0  0  0  0
  181.5540  178.2680  143.2040 N   0  0  0  0  0  2  0  0  0  0  0  0
  180.2340  178.6270  143.6210 C   0  0  0  0  0  0  0  0  0  0  0  0
  179.6000  179.7390  143.0830 O   0  0  0  0  0  0  0  0  0  0  0  0
  181.7350  178.8780  140.8300 C   0  0  0  0  0  2  0  0  0  0  0  0
  181.4240  179.9850  137.7860 C   0  0  2  0  0  3  0  0  0  0  0  0
  182.8480  176.2470  139.7510 O   0  0  0  0  0  0  0  0  0  0  0  0
  182.8160  178.9790  139.7650 C   0  0  1  0  0  3  0  0  0  0  0  0
  181.3920  177.7550  134.8760 C   0  0  0  0  0  2  0  0  0  0  0  0
  184.3090  177.4040  138.1500 O   0  0  0  0  0  0  0  0  0  0  0  0
  182.9800  177.4440  138.8480 S   0  0  0  0  0  0  0  0  0  0  0  0
  180.0400  179.9300  138.4220 C   0  0  0  0  0  1  0  0  0  0  0  0
  182.1520  176.5830  135.5530 C   0  0  0  0  0  2  0  0  0  0  0  0
  181.6410  176.3000  136.8410 O   0  0  0  0  0  0  0  0  0  0  0  0
  181.7110  178.7820  136.8870 C   0  0  1  0  0  3  0  0  0  0  0  0
  181.6610  177.4600  137.6620 C   0  0  2  0  0  3  0  0  0  0  0  0
  180.8440  178.6970  135.7860 O   0  0  0  0  0  0  0  0  0  0  0  0
  182.5460  180.1760  138.8290 C   0  0  0  0  0  2  0  0  0  0  0  0
  2 29  1  0  0  0  0
  2  1  1  1  0  0  0
  3  2  1  0  0  0  0
  4  3  2  0  0  0  0
  5  4  1  0  0  0  0
  6  5  1  0  0  0  0
  7  9  2  0  0  0  0
  8 13  1  6  0  0  0
  8 10  1  0  0  0  0
  8 11  1  0  0  0  0
 10 12  1  0  0  0  0
 11  7  1  0  0  0  0
 12 16  1  6  0  0  0
 12  6  1  0  0  0  0
 12  9  1  0  0  0  0
 14 13  1  0  0  0  0
 15 14  1  0  0  0  0
 15 13  1  0  0  0  0
 17 23  1  0  0  0  0
 17 18  2  0  0  0  0
 18 21  1  0  0  0  0
 19 22  2  0  0  0  0
 20 21  1  0  0  0  0
 20 16  1  1  0  0  0
 22 20  1  0  0  0  0
 23 24  1  1  0  0  0
 23 22  1  0  0  0  0
 25 28  1  0  0  0  0
 26 28  1  0  0  0  0
 28 27  1  0  0  0  0
 28 24  1  0  0  0  0
 29 30  1  1  0  0  0
 31 32  1  0  0  0  0
 31 29  1  0  0  0  0
 33 32  1  0  0  0  0
 34 35  2  0  0  0  0
 35 33  1  0  0  0  0
 36 34  1  0  0  0  0
 37 42  1  6  0  0  0
 37 36  1  0  0  0  0
 37 39  1  0  0  0  0
 39 40  1  0  0  0  0
 40 38  1  0  0  0  0
 41 40  2  0  0  0  0
 43 49  1  1  0  0  0
 43 55  1  0  0  0  0
 45 42  1  1  0  0  0
 46 50  1  0  0  0  0
 46 54  1  0  0  0  0
 47 48  2  0  0  0  0
 48 44  2  0  0  0  0
 48 45  1  0  0  0  0
 50 51  1  0  0  0  0
 52 54  1  6  0  0  0
 52 53  1  0  0  0  0
 52 43  1  0  0  0  0
 53 51  1  6  0  0  0
 53 48  1  0  0  0  0
 55 45  1  0  0  0  0
M  END
>  <MODEL>
1

>  <REMARK>
 VINA RESULT:      -7.4      0.000      0.000
  Name = 
  19 active torsions:
  status: ('A' for Active; 'I' for Inactive)
    1  A    between atoms: C_2  and  C_44
    2  A    between atoms: C_6  and  C_46
    3  A    between atoms: N_8  and  C_22
    4  A    between atoms: C_10  and  N_32
    5  A    between atoms: C_17  and  O_36
    6  A    between atoms: O_19  and  C_40
    7  A    between atoms: O_19  and  C_45
    8  A    between atoms: C_22  and  C_35
    9  A    between atoms: C_22  and  C_46
   10  A    between atoms: C_24  and  C_31
   11  A    between atoms: C_24  and  C_44
   12  A    between atoms: C_27  and  C_31
   13  A    between atoms: C_27  and  C_54
   14  A    between atoms: C_28  and  C_49
   15  A    between atoms: O_33  and  C_49
   16  A    between atoms: O_33  and  C_52
   17  A    between atoms: C_35  and  C_43
   18  A    between atoms: O_36  and  C_52
   19  A    between atoms: C_51  and  C_54
                            x       y       z     vdW  Elec       q    Type
                         _______ _______ _______ _____ _____    ______ ____

>  <TORSDO>
F 19

$$$$
=
 OpenBabel11052415003D

 55 59  0  0  1  0  0  0  0  0999 V2000
  191.2980  178.0940  142.5470 O   0  0  0  0  0  1  0  0  0  0  0  0
  190.2100  177.5030  141.9030 C   0  0  1  0  0  3  0  0  0  0  0  0
  190.4790  177.4970  140.4290 C   0  0  0  0  0  3  0  0  0  0  0  0
  191.3510  176.6530  139.8800 C   0  0  0  0  0  3  0  0  0  0  0  0
  191.5860  176.6870  138.4100 C   0  0  0  0  0  2  0  0  0  0  0  0
  191.3450  175.4120  137.8610 O   0  0  0  0  0  0  0  0  0  0  0  0
  194.5660  175.9780  136.4760 C   0  0  0  0  0  3  0  0  0  0  0  0
  193.8800  173.7150  135.7870 N   0  0  1  0  0  0  0  0  0  0  0  0
  193.2940  176.2570  136.7820 C   0  0  0  0  0  3  0  0  0  0  0  0
  192.8600  173.8290  136.8270 C   0  0  0  0  0  2  0  0  0  0  0  0
  195.0050  174.5660  136.1770 C   0  0  0  0  0  2  0  0  0  0  0  0
  192.1870  175.2130  136.7390 C   0  0  1  0  0  0  0  0  0  0  0  0
  194.3670  172.3420  135.7980 C   0  0  0  0  0  3  0  0  0  0  0  0
  193.2090  171.3800  136.0170 C   0  0  0  0  0  2  0  0  0  0  0  0
  193.7690  171.5870  134.6210 C   0  0  0  0  0  2  0  0  0  0  0  0
  191.4470  175.2530  135.5110 O   0  0  0  0  0  0  0  0  0  0  0  0
  187.3640  174.9910  136.6640 C   0  0  0  0  0  3  0  0  0  0  0  0
  188.1250  173.8880  136.7660 C   0  0  0  0  0  3  0  0  0  0  0  0
  189.4960  177.1780  134.8540 O   0  0  0  0  0  0  0  0  0  0  0  0
  190.0500  174.9970  135.6150 C   0  0  1  0  0  3  0  0  0  0  0  0
  189.6230  173.9890  136.6970 C   0  0  0  0  0  2  0  0  0  0  0  0
  189.2050  176.2520  135.5980 C   0  0  0  0  0  0  0  0  0  0  0  0
  187.9820  176.3550  136.4780 C   0  0  2  0  0  3  0  0  0  0  0  0
  188.3330  176.8790  137.7350 O   0  0  0  0  0  0  0  0  0  0  0  0
  187.7330  178.7060  138.9390 F   0  0  0  0  0  0  0  0  0  0  0  0
  187.2330  178.6590  136.7510 F   0  0  0  0  0  0  0  0  0  0  0  0
  189.3820  178.9040  137.4320 F   0  0  0  0  0  0  0  0  0  0  0  0
  188.1750  178.2820  137.7000 C   0  0  0  0  0  0  0  0  0  0  0  0
  189.9940  176.0820  142.4330 C   0  0  1  0  0  3  0  0  0  0  0  0
  190.9140  175.7980  143.4420 O   0  0  0  0  0  1  0  0  0  0  0  0
  188.5890  175.9460  142.9960 C   0  0  0  0  0  2  0  0  0  0  0  0
  188.0420  177.3050  143.3980 C   0  0  0  0  0  2  0  0  0  0  0  0
  186.8790  177.1290  144.3570 C   0  0  0  0  0  2  0  0  0  0  0  0
  184.7120  178.2430  144.0900 C   0  0  0  0  0  3  0  0  0  0  0  0
  186.0160  178.3420  144.3320 C   0  0  0  0  0  3  0  0  0  0  0  0
  183.8480  179.4640  144.0890 C   0  0  0  0  0  2  0  0  0  0  0  0
  182.5800  179.2420  143.2610 C   0  0  2  0  0  3  0  0  0  0  0  0
  179.3120  178.2540  144.6350 O   0  0  0  0  0  1  0  0  0  0  0  0
  181.5400  178.6160  144.0700 N   0  0  0  0  0  2  0  0  0  0  0  0
  180.1390  178.8280  143.8800 C   0  0  0  0  0  0  0  0  0  0  0  0
  179.6800  179.6570  142.8650 O   0  0  0  0  0  0  0  0  0  0  0  0
  182.8580  178.4200  142.0050 C   0  0  0  0  0  2  0  0  0  0  0  0
  181.2830  178.0490  139.1830 C   0  0  2  0  0  3  0  0  0  0  0  0
  185.5170  178.4840  140.5040 O   0  0  0  0  0  0  0  0  0  0  0  0
  182.9300  179.3170  140.7780 C   0  0  1  0  0  3  0  0  0  0  0  0
  182.9600  176.9060  136.1290 C   0  0  0  0  0  2  0  0  0  0  0  0
  184.6260  179.9940  138.7830 O   0  0  0  0  0  0  0  0  0  0  0  0
  184.2960  178.8570  139.7080 S   0  0  0  0  0  0  0  0  0  0  0  0
  181.0170  176.8220  140.0470 C   0  0  0  0  0  1  0  0  0  0  0  0
  184.3900  177.3460  136.5470 C   0  0  0  0  0  2  0  0  0  0  0  0
  184.6910  176.9570  137.8740 O   0  0  0  0  0  0  0  0  0  0  0  0
  182.3740  177.8120  138.1380 C   0  0  1  0  0  3  0  0  0  0  0  0
  183.7200  177.4580  138.7830 C   0  0  2  0  0  3  0  0  0  0  0  0
  182.0400  176.8170  137.2060 O   0  0  0  0  0  0  0  0  0  0  0  0
  181.5850  179.3090  140.0220 C   0  0  0  0  0  2  0  0  0  0  0  0
  2 29  1  0  0  0  0
  2  1  1  1  0  0  0
  3  2  1  0  0  0  0
  4  3  2  0  0  0  0
  5  4  1  0  0  0  0
  6  5  1  0  0  0  0
  7  9  2  0  0  0  0
  8 13  1  1  0  0  0
  8 11  1  0  0  0  0
  8 10  1  0  0  0  0
 11  7  1  0  0  0  0
 12 16  1  6  0  0  0
 12  9  1  0  0  0  0
 12 10  1  0  0  0  0
 12  6  1  0  0  0  0
 13 14  1  0  0  0  0
 15 13  1  0  0  0  0
 15 14  1  0  0  0  0
 17 18  2  0  0  0  0
 19 22  2  0  0  0  0
 20 16  1  1  0  0  0
 20 21  1  0  0  0  0
 21 18  1  0  0  0  0
 22 20  1  0  0  0  0
 22 23  1  0  0  0  0
 23 17  1  0  0  0  0
 23 24  1  1  0  0  0
 26 28  1  0  0  0  0
 27 28  1  0  0  0  0
 28 24  1  0  0  0  0
 28 25  1  0  0  0  0
 29 31  1  0  0  0  0
 29 30  1  1  0  0  0
 31 32  1  0  0  0  0
 32 33  1  0  0  0  0
 34 35  2  0  0  0  0
 35 33  1  0  0  0  0
 36 34  1  0  0  0  0
 37 42  1  6  0  0  0
 37 39  1  0  0  0  0
 37 36  1  0  0  0  0
 40 39  1  0  0  0  0
 40 38  1  0  0  0  0
 41 40  2  0  0  0  0
 43 55  1  0  0  0  0
 43 49  1  1  0  0  0
 45 42  1  1  0  0  0
 46 50  1  0  0  0  0
 46 54  1  0  0  0  0
 47 48  2  0  0  0  0
 48 44  2  0  0  0  0
 48 45  1  0  0  0  0
 50 51  1  0  0  0  0
 52 54  1  6  0  0  0
 52 53  1  0  0  0  0
 52 43  1  0  0  0  0
 53 51  1  6  0  0  0
 53 48  1  0  0  0  0
 55 45  1  0  0  0  0
M  END
>  <MODEL>
2

>  <REMARK>
 VINA RESULT:      -6.9      2.706      4.705
  Name = 
  19 active torsions:
  status: ('A' for Active; 'I' for Inactive)
    1  A    between atoms: C_2  and  C_44
    2  A    between atoms: C_6  and  C_46
    3  A    between atoms: N_8  and  C_22
    4  A    between atoms: C_10  and  N_32
    5  A    between atoms: C_17  and  O_36
    6  A    between atoms: O_19  and  C_40
    7  A    between atoms: O_19  and  C_45
    8  A    between atoms: C_22  and  C_35
    9  A    between atoms: C_22  and  C_46
   10  A    between atoms: C_24  and  C_31
   11  A    between atoms: C_24  and  C_44
   12  A    between atoms: C_27  and  C_31
   13  A    between atoms: C_27  and  C_54
   14  A    between atoms: C_28  and  C_49
   15  A    between atoms: O_33  and  C_49
   16  A    between atoms: O_33  and  C_52
   17  A    between atoms: C_35  and  C_43
   18  A    between atoms: O_36  and  C_52
   19  A    between atoms: C_51  and  C_54
                            x       y       z     vdW  Elec       q    Type
                         _______ _______ _______ _____ _____    ______ ____

>  <TORSDO>
F 19

$$$$
=
 OpenBabel11052415003D

 55 59  0  0  1  0  0  0  0  0999 V2000
  190.7530  177.0980  146.7320 O   0  0  0  0  0  1  0  0  0  0  0  0
  189.7540  177.6690  145.9410 C   0  0  1  0  0  3  0  0  0  0  0  0
  189.9810  177.2520  144.5200 C   0  0  0  0  0  3  0  0  0  0  0  0
  191.2080  177.1190  144.0180 C   0  0  0  0  0  3  0  0  0  0  0  0
  191.3840  176.7040  142.5980 C   0  0  0  0  0  2  0  0  0  0  0  0
  191.0260  177.7660  141.7460 O   0  0  0  0  0  0  0  0  0  0  0  0
  187.5080  177.5140  141.3320 C   0  0  0  0  0  3  0  0  0  0  0  0
  188.4430  178.1240  139.1370 N   0  0  1  0  0  0  0  0  0  0  0  0
  188.7280  177.1390  141.7330 C   0  0  0  0  0  3  0  0  0  0  0  0
  189.6560  178.4690  139.8740 C   0  0  0  0  0  2  0  0  0  0  0  0
  187.3110  178.2840  140.0500 C   0  0  0  0  0  2  0  0  0  0  0  0
  189.9750  177.3530  140.8890 C   0  0  1  0  0  0  0  0  0  0  0  0
  188.2750  179.1140  138.0810 C   0  0  0  0  0  3  0  0  0  0  0  0
  189.2160  178.8090  136.9250 C   0  0  0  0  0  2  0  0  0  0  0  0
  187.7490  178.4300  136.8290 C   0  0  0  0  0  2  0  0  0  0  0  0
  190.3350  176.1830  140.1420 O   0  0  0  0  0  0  0  0  0  0  0  0
  192.6220  175.9200  136.5680 C   0  0  0  0  0  3  0  0  0  0  0  0
  193.1460  176.5880  137.6100 C   0  0  0  0  0  3  0  0  0  0  0  0
  189.2810  175.3970  137.6500 O   0  0  0  0  0  0  0  0  0  0  0  0
  191.0170  176.4120  138.9130 C   0  0  1  0  0  3  0  0  0  0  0  0
  192.5540  176.4400  138.9840 C   0  0  0  0  0  2  0  0  0  0  0  0
  190.4840  175.5830  137.7650 C   0  0  0  0  0  0  0  0  0  0  0  0
  191.4330  175.0080  136.7400 C   0  0  2  0  0  3  0  0  0  0  0  0
  191.8790  173.7390  137.1540 O   0  0  0  0  0  0  0  0  0  0  0  0
  190.7740  172.2960  135.7970 F   0  0  0  0  0  0  0  0  0  0  0  0
  192.9470  171.9170  136.2130 F   0  0  0  0  0  0  0  0  0  0  0  0
  192.3160  173.6530  134.8970 F   0  0  0  0  0  0  0  0  0  0  0  0
  191.9940  172.9080  136.0180 C   0  0  0  0  0  0  0  0  0  0  0  0
  188.3730  177.2250  146.4350 C   0  0  1  0  0  3  0  0  0  0  0  0
  188.0750  177.8410  147.6510 O   0  0  0  0  0  1  0  0  0  0  0  0
  187.3100  177.6060  145.4180 C   0  0  0  0  0  2  0  0  0  0  0  0
  186.0150  177.9840  146.1170 C   0  0  0  0  0  2  0  0  0  0  0  0
  185.2720  179.0230  145.2970 C   0  0  0  0  0  2  0  0  0  0  0  0
  184.0290  178.8510  143.1910 C   0  0  0  0  0  3  0  0  0  0  0  0
  185.1130  178.5400  143.8970 C   0  0  0  0  0  3  0  0  0  0  0  0
  183.8860  178.3810  141.7790 C   0  0  0  0  0  2  0  0  0  0  0  0
  182.4730  178.6370  141.2510 C   0  0  2  0  0  3  0  0  0  0  0  0
  179.6940  180.1090  143.1640 O   0  0  0  0  0  1  0  0  0  0  0  0
  181.5800  179.0230  142.3380 N   0  0  0  0  0  2  0  0  0  0  0  0
  180.4000  179.8130  142.1650 C   0  0  0  0  0  0  0  0  0  0  0  0
  180.0210  180.2520  140.9040 O   0  0  0  0  0  0  0  0  0  0  0  0
  181.9200  177.4280  140.4990 C   0  0  0  0  0  2  0  0  0  0  0  0
  179.9480  175.8160  138.4760 C   0  0  2  0  0  3  0  0  0  0  0  0
  184.1470  177.3070  138.4120 O   0  0  0  0  0  0  0  0  0  0  0  0
  181.5430  177.8050  139.0740 C   0  0  1  0  0  3  0  0  0  0  0  0
  181.2080  173.8720  135.6340 C   0  0  0  0  0  2  0  0  0  0  0  0
  182.6150  177.9270  136.5940 O   0  0  0  0  0  0  0  0  0  0  0  0
  182.7410  177.1800  137.8910 S   0  0  0  0  0  0  0  0  0  0  0  0
  180.1430  174.9730  139.7310 C   0  0  0  0  0  1  0  0  0  0  0  0
  182.5530  174.6330  135.4920 C   0  0  0  0  0  2  0  0  0  0  0  0
  183.1900  174.8130  136.7420 O   0  0  0  0  0  0  0  0  0  0  0  0
  180.8370  175.3650  137.3160 C   0  0  1  0  0  3  0  0  0  0  0  0
  182.3280  175.4710  137.6610 C   0  0  2  0  0  3  0  0  0  0  0  0
  180.5620  174.0580  136.8840 O   0  0  0  0  0  0  0  0  0  0  0  0
  180.1140  177.3260  138.7470 C   0  0  0  0  0  2  0  0  0  0  0  0
  2 29  1  0  0  0  0
  2  1  1  1  0  0  0
  3  2  1  0  0  0  0
  4  3  2  0  0  0  0
  5  4  1  0  0  0  0
  6  5  1  0  0  0  0
  7  9  2  0  0  0  0
  8 13  1  6  0  0  0
  8 10  1  0  0  0  0
  8 11  1  0  0  0  0
 10 12  1  0  0  0  0
 11  7  1  0  0  0  0
 12 16  1  6  0  0  0
 12  9  1  0  0  0  0
 12  6  1  0  0  0  0
 14 13  1  0  0  0  0
 15 14  1  0  0  0  0
 15 13  1  0  0  0  0
 17 23  1  0  0  0  0
 17 18  2  0  0  0  0
 18 21  1  0  0  0  0
 19 22  2  0  0  0  0
 20 21  1  0  0  0  0
 20 16  1  1  0  0  0
 22 20  1  0  0  0  0
 23 24  1  1  0  0  0
 23 22  1  0  0  0  0
 25 28  1  0  0  0  0
 27 28  1  0  0  0  0
 28 26  1  0  0  0  0
 28 24  1  0  0  0  0
 29 30  1  1  0  0  0
 31 32  1  0  0  0  0
 31 29  1  0  0  0  0
 33 32  1  0  0  0  0
 34 35  2  0  0  0  0
 35 33  1  0  0  0  0
 36 34  1  0  0  0  0
 37 42  1  1  0  0  0
 37 36  1  0  0  0  0
 37 39  1  0  0  0  0
 40 39  1  0  0  0  0
 40 38  1  0  0  0  0
 41 40  2  0  0  0  0
 43 55  1  0  0  0  0
 43 49  1  1  0  0  0
 45 42  1  1  0  0  0
 46 54  1  0  0  0  0
 47 48  2  0  0  0  0
 48 44  2  0  0  0  0
 48 45  1  0  0  0  0
 50 46  1  0  0  0  0
 50 51  1  0  0  0  0
 52 54  1  1  0  0  0
 52 53  1  0  0  0  0
 52 43  1  0  0  0  0
 53 51  1  6  0  0  0
 53 48  1  0  0  0  0
 55 45  1  0  0  0  0
M  END
>  <MODEL>
3

>  <REMARK>
 VINA RESULT:      -6.8      1.310      1.910
  Name = 
  19 active torsions:
  status: ('A' for Active; 'I' for Inactive)
    1  A    between atoms: C_2  and  C_44
    2  A    between atoms: C_6  and  C_46
    3  A    between atoms: N_8  and  C_22
    4  A    between atoms: C_10  and  N_32
    5  A    between atoms: C_17  and  O_36
    6  A    between atoms: O_19  and  C_40
    7  A    between atoms: O_19  and  C_45
    8  A    between atoms: C_22  and  C_35
    9  A    between atoms: C_22  and  C_46
   10  A    between atoms: C_24  and  C_31
   11  A    between atoms: C_24  and  C_44
   12  A    between atoms: C_27  and  C_31
   13  A    between atoms: C_27  and  C_54
   14  A    between atoms: C_28  and  C_49
   15  A    between atoms: O_33  and  C_49
   16  A    between atoms: O_33  and  C_52
   17  A    between atoms: C_35  and  C_43
   18  A    between atoms: O_36  and  C_52
   19  A    between atoms: C_51  and  C_54
                            x       y       z     vdW  Elec       q    Type
                         _______ _______ _______ _____ _____    ______ ____

>  <TORSDO>
F 19

$$$$
=
 OpenBabel11052415003D

 55 59  0  0  1  0  0  0  0  0999 V2000
  187.7570  176.3290  136.9420 O   0  0  0  0  0  1  0  0  0  0  0  0
  187.3350  177.6270  137.2360 C   0  0  1  0  0  3  0  0  0  0  0  0
  185.8540  177.7010  137.0260 C   0  0  0  0  0  3  0  0  0  0  0  0
  185.2420  176.9730  136.0920 C   0  0  0  0  0  3  0  0  0  0  0  0
  183.7660  177.0830  135.9210 C   0  0  0  0  0  2  0  0  0  0  0  0
  183.1190  176.6470  137.0930 O   0  0  0  0  0  0  0  0  0  0  0  0
  181.2410  174.9590  134.5950 C   0  0  0  0  0  3  0  0  0  0  0  0
  182.3760  173.2270  135.9290 N   0  0  1  0  0  0  0  0  0  0  0  0
  181.4700  175.8440  135.5730 C   0  0  0  0  0  3  0  0  0  0  0  0
  183.2070  174.3180  136.4330 C   0  0  0  0  0  2  0  0  0  0  0  0
  181.9100  173.6070  134.5940 C   0  0  0  0  0  2  0  0  0  0  0  0
  182.3130  175.5200  136.7980 C   0  0  1  0  0  0  0  0  0  0  0  0
  183.2350  172.0630  135.7590 C   0  0  0  0  0  3  0  0  0  0  0  0
  184.3630  172.0940  136.7790 C   0  0  0  0  0  2  0  0  0  0  0  0
  183.1600  171.1960  137.0070 C   0  0  0  0  0  2  0  0  0  0  0  0
  181.5140  175.1340  137.9240 O   0  0  0  0  0  0  0  0  0  0  0  0
  181.6020  178.5920  140.3950 C   0  0  0  0  0  3  0  0  0  0  0  0
  182.5060  177.6240  140.6230 C   0  0  0  0  0  3  0  0  0  0  0  0
  179.4180  177.0110  138.0850 O   0  0  0  0  0  0  0  0  0  0  0  0
  181.4160  176.0880  138.9770 C   0  0  1  0  0  3  0  0  0  0  0  0
  182.7450  176.5500  139.6000 C   0  0  0  0  0  2  0  0  0  0  0  0
  180.4690  177.2270  138.6710 C   0  0  0  0  0  0  0  0  0  0  0  0
  180.8030  178.6320  139.1150 C   0  0  2  0  0  3  0  0  0  0  0  0
  181.5540  179.2870  138.1210 O   0  0  0  0  0  0  0  0  0  0  0  0
  179.6090  180.4510  138.2160 F   0  0  0  0  0  0  0  0  0  0  0  0
  180.2410  179.5880  136.2420 F   0  0  0  0  0  0  0  0  0  0  0  0
  181.3520  181.3530  137.1310 F   0  0  0  0  0  0  0  0  0  0  0  0
  180.7010  180.1660  137.4180 C   0  0  0  0  0  0  0  0  0  0  0  0
  187.7100  177.9890  138.6770 C   0  0  1  0  0  3  0  0  0  0  0  0
  188.6180  179.0480  138.6870 O   0  0  0  0  0  1  0  0  0  0  0  0
  186.4680  178.3980  139.4500 C   0  0  0  0  0  2  0  0  0  0  0  0
  186.8210  178.7250  140.8910 C   0  0  0  0  0  2  0  0  0  0  0  0
  185.5630  179.0920  141.6580 C   0  0  0  0  0  2  0  0  0  0  0  0
  186.1980  178.5310  143.9590 C   0  0  0  0  0  3  0  0  0  0  0  0
  185.4600  178.2560  142.8860 C   0  0  0  0  0  3  0  0  0  0  0  0
  186.0730  177.7000  145.1960 C   0  0  0  0  0  2  0  0  0  0  0  0
  187.4390  177.4580  145.8400 C   0  0  2  0  0  3  0  0  0  0  0  0
  188.2210  178.1120  149.3760 O   0  0  0  0  0  1  0  0  0  0  0  0
  187.4990  178.0660  147.1640 N   0  0  0  0  0  2  0  0  0  0  0  0
  188.2360  177.5250  148.2640 C   0  0  0  0  0  0  0  0  0  0  0  0
  188.9740  176.3580  148.1140 O   0  0  0  0  0  0  0  0  0  0  0  0
  188.5790  177.9640  144.9590 C   0  0  0  0  0  2  0  0  0  0  0  0
  191.6320  178.2850  143.8830 C   0  0  2  0  0  3  0  0  0  0  0  0
  187.9750  176.0580  142.6500 O   0  0  0  0  0  0  0  0  0  0  0  0
  189.5930  176.8590  144.7010 C   0  0  1  0  0  3  0  0  0  0  0  0
  192.6140  177.4130  140.4600 C   0  0  0  0  0  2  0  0  0  0  0  0
  190.0830  174.8380  142.9710 O   0  0  0  0  0  0  0  0  0  0  0  0
  189.4210  176.1850  143.0460 S   0  0  0  0  0  0  0  0  0  0  0  0
  190.9590  179.6520  143.8330 C   0  0  0  0  0  1  0  0  0  0  0  0
  191.4490  176.4210  140.1970 C   0  0  0  0  0  2  0  0  0  0  0  0
  190.2050  176.9510  140.6110 O   0  0  0  0  0  0  0  0  0  0  0  0
  191.6580  177.5880  142.5220 C   0  0  1  0  0  3  0  0  0  0  0  0
  190.2460  177.3360  141.9790 C   0  0  2  0  0  3  0  0  0  0  0  0
  192.3990  178.2880  141.5570 O   0  0  0  0  0  0  0  0  0  0  0  0
  191.0260  177.3660  144.9640 C   0  0  0  0  0  2  0  0  0  0  0  0
  2  1  1  1  0  0  0
  2 29  1  0  0  0  0
  3  2  1  0  0  0  0
  4  3  2  0  0  0  0
  5  4  1  0  0  0  0
  5  6  1  0  0  0  0
  7  9  2  0  0  0  0
  8 13  1  6  0  0  0
  8 10  1  0  0  0  0
  9 12  1  0  0  0  0
 10 12  1  0  0  0  0
 11  7  1  0  0  0  0
 11  8  1  0  0  0  0
 12  6  1  1  0  0  0
 12 16  1  0  0  0  0
 13 14  1  0  0  0  0
 13 15  1  0  0  0  0
 14 15  1  0  0  0  0
 17 18  2  0  0  0  0
 19 22  2  0  0  0  0
 20 16  1  6  0  0  0
 20 21  1  0  0  0  0
 21 18  1  0  0  0  0
 22 20  1  0  0  0  0
 22 23  1  0  0  0  0
 23 24  1  6  0  0  0
 23 17  1  0  0  0  0
 26 28  1  0  0  0  0
 27 28  1  0  0  0  0
 28 24  1  0  0  0  0
 28 25  1  0  0  0  0
 29 30  1  6  0  0  0
 29 31  1  0  0  0  0
 31 32  1  0  0  0  0
 32 33  1  0  0  0  0
 33 35  1  0  0  0  0
 34 36  1  0  0  0  0
 35 34  2  0  0  0  0
 36 37  1  0  0  0  0
 37 42  1  6  0  0  0
 37 39  1  0  0  0  0
 39 40  1  0  0  0  0
 40 38  1  0  0  0  0
 41 40  2  0  0  0  0
 43 49  1  6  0  0  0
 43 55  1  0  0  0  0
 44 48  2  0  0  0  0
 45 42  1  6  0  0  0
 45 55  1  0  0  0  0
 46 54  1  0  0  0  0
 47 48  2  0  0  0  0
 48 45  1  0  0  0  0
 50 46  1  0  0  0  0
 50 51  1  0  0  0  0
 52 54  1  6  0  0  0
 52 43  1  0  0  0  0
 53 51  1  6  0  0  0
 53 52  1  0  0  0  0
 53 48  1  0  0  0  0
M  END
>  <MODEL>
4

>  <REMARK>
 VINA RESULT:      -6.7      4.479      9.796
  Name = 
  19 active torsions:
  status: ('A' for Active; 'I' for Inactive)
    1  A    between atoms: C_2  and  C_44
    2  A    between atoms: C_6  and  C_46
    3  A    between atoms: N_8  and  C_22
    4  A    between atoms: C_10  and  N_32
    5  A    between atoms: C_17  and  O_36
    6  A    between atoms: O_19  and  C_40
    7  A    between atoms: O_19  and  C_45
    8  A    between atoms: C_22  and  C_35
    9  A    between atoms: C_22  and  C_46
   10  A    between atoms: C_24  and  C_31
   11  A    between atoms: C_24  and  C_44
   12  A    between atoms: C_27  and  C_31
   13  A    between atoms: C_27  and  C_54
   14  A    between atoms: C_28  and  C_49
   15  A    between atoms: O_33  and  C_49
   16  A    between atoms: O_33  and  C_52
   17  A    between atoms: C_35  and  C_43
   18  A    between atoms: O_36  and  C_52
   19  A    between atoms: C_51  and  C_54
                            x       y       z     vdW  Elec       q    Type
                         _______ _______ _______ _____ _____    ______ ____

>  <TORSDO>
F 19

$$$$
=
 OpenBabel11052415003D

 55 59  0  0  1  0  0  0  0  0999 V2000
  186.4430  178.6820  138.4470 O   0  0  0  0  0  1  0  0  0  0  0  0
  186.6710  177.4480  137.8360 C   0  0  1  0  0  3  0  0  0  0  0  0
  185.5830  177.2080  136.8350 C   0  0  0  0  0  3  0  0  0  0  0  0
  184.3030  177.4430  137.1230 C   0  0  0  0  0  3  0  0  0  0  0  0
  183.2560  177.1870  136.0950 C   0  0  0  0  0  2  0  0  0  0  0  0
  181.9970  177.0790  136.7170 O   0  0  0  0  0  0  0  0  0  0  0  0
  180.5990  174.5960  134.5980 C   0  0  0  0  0  3  0  0  0  0  0  0
  182.2260  173.4570  136.0550 N   0  0  1  0  0  0  0  0  0  0  0  0
  180.5970  175.6390  135.4360 C   0  0  0  0  0  3  0  0  0  0  0  0
  182.7270  174.7970  136.3540 C   0  0  0  0  0  2  0  0  0  0  0  0
  181.6270  173.4980  134.7200 C   0  0  0  0  0  2  0  0  0  0  0  0
  181.5380  175.7410  136.6270 C   0  0  1  0  0  0  0  0  0  0  0  0
  183.3770  172.5680  135.9710 C   0  0  0  0  0  3  0  0  0  0  0  0
  184.0940  172.5160  137.3120 C   0  0  0  0  0  2  0  0  0  0  0  0
  183.1670  171.3850  136.9050 C   0  0  0  0  0  2  0  0  0  0  0  0
  180.9220  175.3120  137.8480 O   0  0  0  0  0  0  0  0  0  0  0  0
  182.3250  178.1390  140.6960 C   0  0  0  0  0  3  0  0  0  0  0  0
  183.0420  177.0190  140.5060 C   0  0  0  0  0  3  0  0  0  0  0  0
  179.3580  177.4150  138.8850 O   0  0  0  0  0  0  0  0  0  0  0  0
  181.2870  176.0350  139.0200 C   0  0  1  0  0  3  0  0  0  0  0  0
  182.7950  176.1520  139.3040 C   0  0  0  0  0  2  0  0  0  0  0  0
  180.5440  177.3440  139.1750 C   0  0  0  0  0  0  0  0  0  0  0  0
  181.2560  178.5600  139.7180 C   0  0  2  0  0  3  0  0  0  0  0  0
  181.8500  179.2820  138.6650 O   0  0  0  0  0  0  0  0  0  0  0  0
  182.0720  181.4940  138.2180 F   0  0  0  0  0  0  0  0  0  0  0  0
  180.4820  180.8530  139.6670 F   0  0  0  0  0  0  0  0  0  0  0  0
  180.2600  180.4190  137.4520 F   0  0  0  0  0  0  0  0  0  0  0  0
  181.1550  180.5010  138.5040 C   0  0  0  0  0  0  0  0  0  0  0  0
  188.0510  177.4380  137.1690 C   0  0  1  0  0  3  0  0  0  0  0  0
  187.9150  177.4240  135.7810 O   0  0  0  0  0  1  0  0  0  0  0  0
  188.8320  178.6770  137.5740 C   0  0  0  0  0  2  0  0  0  0  0  0
  189.6280  178.4140  138.8420 C   0  0  0  0  0  2  0  0  0  0  0  0
  189.3210  177.0210  139.3620 C   0  0  0  0  0  2  0  0  0  0  0  0
  190.6800  177.4690  141.3520 C   0  0  0  0  0  3  0  0  0  0  0  0
  190.3350  176.6290  140.3790 C   0  0  0  0  0  3  0  0  0  0  0  0
  191.6820  177.0600  142.3840 C   0  0  0  0  0  2  0  0  0  0  0  0
  191.2030  177.4170  143.7920 C   0  0  2  0  0  3  0  0  0  0  0  0
  191.6780  175.2650  146.7400 O   0  0  0  0  0  1  0  0  0  0  0  0
  191.2810  176.2560  144.6720 N   0  0  0  0  0  2  0  0  0  0  0  0
  191.6240  176.3210  146.0590 C   0  0  0  0  0  0  0  0  0  0  0  0
  191.8920  177.5410  146.6640 O   0  0  0  0  0  0  0  0  0  0  0  0
  189.7910  177.9960  143.7820 C   0  0  0  0  0  2  0  0  0  0  0  0
  186.7350  177.4600  142.8020 C   0  0  2  0  0  3  0  0  0  0  0  0
  188.7790  178.5370  146.6130 O   0  0  0  0  0  0  0  0  0  0  0  0
  188.7940  176.9990  144.3540 C   0  0  1  0  0  3  0  0  0  0  0  0
  183.8250  178.6130  144.7120 C   0  0  0  0  0  2  0  0  0  0  0  0
  187.2730  176.5970  146.5550 O   0  0  0  0  0  0  0  0  0  0  0  0
  187.8880  177.6970  145.7370 S   0  0  0  0  0  0  0  0  0  0  0  0
  187.2830  178.6560  142.0330 C   0  0  0  0  0  1  0  0  0  0  0  0
  184.5470  178.6980  146.0840 C   0  0  0  0  0  2  0  0  0  0  0  0
  185.8010  179.3450  145.9790 O   0  0  0  0  0  0  0  0  0  0  0  0
  185.8530  177.8680  143.9830 C   0  0  1  0  0  3  0  0  0  0  0  0
  186.6230  178.7060  145.0120 C   0  0  2  0  0  3  0  0  0  0  0  0
  184.7000  178.5690  143.5950 O   0  0  0  0  0  0  0  0  0  0  0  0
  187.8450  176.4860  143.2510 C   0  0  0  0  0  2  0  0  0  0  0  0
  2  1  1  6  0  0  0
  3  4  2  0  0  0  0
  3  2  1  0  0  0  0
  5  6  1  0  0  0  0
  5  4  1  0  0  0  0
  7 11  1  0  0  0  0
  7  9  2  0  0  0  0
  8 13  1  6  0  0  0
  8 10  1  0  0  0  0
  9 12  1  0  0  0  0
 10 12  1  0  0  0  0
 11  8  1  0  0  0  0
 12  6  1  1  0  0  0
 12 16  1  0  0  0  0
 13 15  1  0  0  0  0
 13 14  1  0  0  0  0
 15 14  1  0  0  0  0
 18 17  2  0  0  0  0
 19 22  2  0  0  0  0
 20 16  1  6  0  0  0
 20 22  1  0  0  0  0
 20 21  1  0  0  0  0
 21 18  1  0  0  0  0
 22 23  1  0  0  0  0
 23 24  1  6  0  0  0
 23 17  1  0  0  0  0
 25 28  1  0  0  0  0
 27 28  1  0  0  0  0
 28 24  1  0  0  0  0
 28 26  1  0  0  0  0
 29 30  1  6  0  0  0
 29 31  1  0  0  0  0
 29  2  1  0  0  0  0
 31 32  1  0  0  0  0
 32 33  1  0  0  0  0
 33 35  1  0  0  0  0
 34 36  1  0  0  0  0
 35 34  2  0  0  0  0
 37 36  1  6  0  0  0
 37 39  1  0  0  0  0
 39 40  1  0  0  0  0
 40 41  2  0  0  0  0
 40 38  1  0  0  0  0
 42 37  1  0  0  0  0
 43 49  1  1  0  0  0
 43 55  1  0  0  0  0
 43 52  1  0  0  0  0
 45 42  1  6  0  0  0
 45 48  1  0  0  0  0
 46 50  1  0  0  0  0
 48 47  2  0  0  0  0
 48 44  2  0  0  0  0
 51 50  1  0  0  0  0
 52 54  1  6  0  0  0
 52 53  1  0  0  0  0
 53 48  1  0  0  0  0
 53 51  1  1  0  0  0
 54 46  1  0  0  0  0
 55 45  1  0  0  0  0
M  END
>  <MODEL>
5

>  <REMARK>
 VINA RESULT:      -6.1      4.617     10.013
  Name = 
  19 active torsions:
  status: ('A' for Active; 'I' for Inactive)
    1  A    between atoms: C_2  and  C_44
    2  A    between atoms: C_6  and  C_46
    3  A    between atoms: N_8  and  C_22
    4  A    between atoms: C_10  and  N_32
    5  A    between atoms: C_17  and  O_36
    6  A    between atoms: O_19  and  C_40
    7  A    between atoms: O_19  and  C_45
    8  A    between atoms: C_22  and  C_35
    9  A    between atoms: C_22  and  C_46
   10  A    between atoms: C_24  and  C_31
   11  A    between atoms: C_24  and  C_44
   12  A    between atoms: C_27  and  C_31
   13  A    between atoms: C_27  and  C_54
   14  A    between atoms: C_28  and  C_49
   15  A    between atoms: O_33  and  C_49
   16  A    between atoms: O_33  and  C_52
   17  A    between atoms: C_35  and  C_43
   18  A    between atoms: O_36  and  C_52
   19  A    between atoms: C_51  and  C_54
                            x       y       z     vdW  Elec       q    Type
                         _______ _______ _______ _____ _____    ______ ____

>  <TORSDO>
F 19

$$$$
=
 OpenBabel11052415003D

 55 59  0  0  1  0  0  0  0  0999 V2000
  189.2370  178.2790  140.9820 O   0  0  0  0  0  1  0  0  0  0  0  0
  189.8660  177.0540  141.2150 C   0  0  1  0  0  3  0  0  0  0  0  0
  190.6910  176.7110  140.0130 C   0  0  0  0  0  3  0  0  0  0  0  0
  190.7110  177.4910  138.9320 C   0  0  0  0  0  3  0  0  0  0  0  0
  191.5460  177.1070  137.7600 C   0  0  0  0  0  2  0  0  0  0  0  0
  191.3910  175.7310  137.4980 O   0  0  0  0  0  0  0  0  0  0  0  0
  194.3520  175.9930  135.5540 C   0  0  0  0  0  3  0  0  0  0  0  0
  193.4250  173.7490  135.1450 N   0  0  1  0  0  0  0  0  0  0  0  0
  193.1700  176.3770  136.0510 C   0  0  0  0  0  3  0  0  0  0  0  0
  192.6090  173.9910  136.3320 C   0  0  0  0  0  2  0  0  0  0  0  0
  194.6490  174.5400  135.2810 C   0  0  0  0  0  2  0  0  0  0  0  0
  192.0140  175.4120  136.2650 C   0  0  1  0  0  0  0  0  0  0  0  0
  193.8260  172.3480  135.1660 C   0  0  0  0  0  3  0  0  0  0  0  0
  192.9280  171.5640  136.1110 C   0  0  0  0  0  2  0  0  0  0  0  0
  192.6960  171.4930  134.6120 C   0  0  0  0  0  2  0  0  0  0  0  0
  191.0760  175.4340  135.1810 O   0  0  0  0  0  0  0  0  0  0  0  0
  187.2770  174.4880  136.8360 C   0  0  0  0  0  3  0  0  0  0  0  0
  188.2460  173.5590  136.8980 C   0  0  0  0  0  3  0  0  0  0  0  0
  188.7260  176.9030  134.6730 O   0  0  0  0  0  0  0  0  0  0  0  0
  189.7770  174.9260  135.4670 C   0  0  1  0  0  3  0  0  0  0  0  0
  189.6780  173.9360  136.6410 C   0  0  0  0  0  2  0  0  0  0  0  0
  188.7060  175.9940  135.4920 C   0  0  0  0  0  0  0  0  0  0  0  0
  187.5910  175.9270  136.5080 C   0  0  2  0  0  3  0  0  0  0  0  0
  187.9690  176.5980  137.6860 O   0  0  0  0  0  0  0  0  0  0  0  0
  187.9170  178.8460  137.3850 F   0  0  0  0  0  0  0  0  0  0  0  0
  186.8220  177.9790  139.1430 F   0  0  0  0  0  0  0  0  0  0  0  0
  186.0400  177.6690  137.0370 F   0  0  0  0  0  0  0  0  0  0  0  0
  187.1780  177.7600  137.8180 C   0  0  0  0  0  0  0  0  0  0  0  0
  190.7300  177.1370  142.4760 C   0  0  1  0  0  3  0  0  0  0  0  0
  192.0830  177.1010  142.1370 O   0  0  0  0  0  1  0  0  0  0  0  0
  190.4430  178.4320  143.2180 C   0  0  0  0  0  2  0  0  0  0  0  0
  189.5080  178.1790  144.3890 C   0  0  0  0  0  2  0  0  0  0  0  0
  188.9900  176.7530  144.3340 C   0  0  0  0  0  2  0  0  0  0  0  0
  187.0100  177.5330  143.1160 C   0  0  0  0  0  3  0  0  0  0  0  0
  187.5240  176.7600  144.0700 C   0  0  0  0  0  3  0  0  0  0  0  0
  185.5400  177.5180  142.8410 C   0  0  0  0  0  2  0  0  0  0  0  0
  184.8810  178.8240  143.2890 C   0  0  2  0  0  3  0  0  0  0  0  0
  184.1670  178.6290  146.8950 O   0  0  0  0  0  1  0  0  0  0  0  0
  184.2020  178.6450  144.5680 N   0  0  0  0  0  2  0  0  0  0  0  0
  184.8290  178.8160  145.8410 C   0  0  0  0  0  0  0  0  0  0  0  0
  186.1630  179.1930  145.9280 O   0  0  0  0  0  0  0  0  0  0  0  0
  183.9190  179.3650  142.2350 C   0  0  0  0  0  2  0  0  0  0  0  0
  183.0980  178.4800  139.2140 C   0  0  2  0  0  3  0  0  0  0  0  0
  180.9820  179.9250  142.8600 O   0  0  0  0  0  0  0  0  0  0  0  0
  182.9160  178.2980  141.8210 C   0  0  1  0  0  3  0  0  0  0  0  0
  179.8970  179.4160  137.6900 C   0  0  0  0  0  2  0  0  0  0  0  0
  180.2500  177.8410  141.7820 O   0  0  0  0  0  0  0  0  0  0  0  0
  181.2500  178.9620  141.7350 S   0  0  0  0  0  0  0  0  0  0  0  0
  184.0200  179.6910  139.1260 C   0  0  0  0  0  1  0  0  0  0  0  0
  179.1330  179.6330  139.0240 C   0  0  0  0  0  2  0  0  0  0  0  0
  179.8880  180.3980  139.9430 O   0  0  0  0  0  0  0  0  0  0  0  0
  181.6210  178.8480  139.0710 C   0  0  1  0  0  3  0  0  0  0  0  0
  181.1570  179.8040  140.1770 C   0  0  2  0  0  3  0  0  0  0  0  0
  181.3110  179.4110  137.8220 O   0  0  0  0  0  0  0  0  0  0  0  0
  183.3390  177.6440  140.4880 C   0  0  0  0  0  2  0  0  0  0  0  0
  2  1  1  6  0  0  0
  2 29  1  0  0  0  0
  3  2  1  0  0  0  0
  4  3  2  0  0  0  0
  5  4  1  0  0  0  0
  6  5  1  0  0  0  0
  7  9  2  0  0  0  0
  8 13  1  1  0  0  0
  8 11  1  0  0  0  0
  8 10  1  0  0  0  0
  9 12  1  0  0  0  0
 11  7  1  0  0  0  0
 12 16  1  6  0  0  0
 12 10  1  0  0  0  0
 12  6  1  0  0  0  0
 13 14  1  0  0  0  0
 15 13  1  0  0  0  0
 15 14  1  0  0  0  0
 17 18  2  0  0  0  0
 19 22  2  0  0  0  0
 20 16  1  1  0  0  0
 20 22  1  0  0  0  0
 20 21  1  0  0  0  0
 21 18  1  0  0  0  0
 22 23  1  0  0  0  0
 23 17  1  0  0  0  0
 23 24  1  1  0  0  0
 24 28  1  0  0  0  0
 25 28  1  0  0  0  0
 27 28  1  0  0  0  0
 28 26  1  0  0  0  0
 29 30  1  6  0  0  0
 29 31  1  0  0  0  0
 31 32  1  0  0  0  0
 33 32  1  0  0  0  0
 34 35  2  0  0  0  0
 35 33  1  0  0  0  0
 36 34  1  0  0  0  0
 36 37  1  0  0  0  0
 37 42  1  6  0  0  0
 37 39  1  0  0  0  0
 39 40  1  0  0  0  0
 40 41  2  0  0  0  0
 40 38  1  0  0  0  0
 43 49  1  1  0  0  0
 43 55  1  0  0  0  0
 45 42  1  6  0  0  0
 46 54  1  0  0  0  0
 46 50  1  0  0  0  0
 48 47  2  0  0  0  0
 48 45  1  0  0  0  0
 48 44  2  0  0  0  0
 50 51  1  0  0  0  0
 52 54  1  6  0  0  0
 52 43  1  0  0  0  0
 52 53  1  0  0  0  0
 53 51  1  6  0  0  0
 53 48  1  0  0  0  0
 55 45  1  0  0  0  0
M  END
>  <MODEL>
6

>  <REMARK>
 VINA RESULT:      -5.8      3.015      5.341
  Name = 
  19 active torsions:
  status: ('A' for Active; 'I' for Inactive)
    1  A    between atoms: C_2  and  C_44
    2  A    between atoms: C_6  and  C_46
    3  A    between atoms: N_8  and  C_22
    4  A    between atoms: C_10  and  N_32
    5  A    between atoms: C_17  and  O_36
    6  A    between atoms: O_19  and  C_40
    7  A    between atoms: O_19  and  C_45
    8  A    between atoms: C_22  and  C_35
    9  A    between atoms: C_22  and  C_46
   10  A    between atoms: C_24  and  C_31
   11  A    between atoms: C_24  and  C_44
   12  A    between atoms: C_27  and  C_31
   13  A    between atoms: C_27  and  C_54
   14  A    between atoms: C_28  and  C_49
   15  A    between atoms: O_33  and  C_49
   16  A    between atoms: O_33  and  C_52
   17  A    between atoms: C_35  and  C_43
   18  A    between atoms: O_36  and  C_52
   19  A    between atoms: C_51  and  C_54
                            x       y       z     vdW  Elec       q    Type
                         _______ _______ _______ _____ _____    ______ ____

>  <TORSDO>
F 19

$$$$
=
 OpenBabel11052415003D

 55 59  0  0  1  0  0  0  0  0999 V2000
  182.5850  176.2870  139.7600 O   0  0  0  0  0  1  0  0  0  0  0  0
  182.2370  177.6250  139.5650 C   0  0  1  0  0  3  0  0  0  0  0  0
  183.2450  178.2470  138.6490 C   0  0  0  0  0  3  0  0  0  0  0  0
  184.2070  177.5250  138.0740 C   0  0  0  0  0  3  0  0  0  0  0  0
  185.1890  178.1890  137.1720 C   0  0  0  0  0  2  0  0  0  0  0  0
  185.6070  177.2840  136.1770 O   0  0  0  0  0  0  0  0  0  0  0  0
  189.0290  176.7600  135.3870 C   0  0  0  0  0  3  0  0  0  0  0  0
  188.8950  177.0370  137.8310 N   0  0  1  0  0  0  0  0  0  0  0  0
  187.7120  176.5310  135.3530 C   0  0  0  0  0  3  0  0  0  0  0  0
  187.5580  177.5730  137.5840 C   0  0  0  0  0  2  0  0  0  0  0  0
  189.6980  177.2860  136.6330 C   0  0  0  0  0  2  0  0  0  0  0  0
  186.8190  176.6680  136.5780 C   0  0  1  0  0  0  0  0  0  0  0  0
  189.4900  177.8190  138.9060 C   0  0  0  0  0  3  0  0  0  0  0  0
  188.9520  177.3520  140.2500 C   0  0  0  0  0  2  0  0  0  0  0  0
  190.3280  176.9060  139.7880 C   0  0  0  0  0  2  0  0  0  0  0  0
  186.5830  175.4110  137.2240 O   0  0  0  0  0  0  0  0  0  0  0  0
  186.4100  171.5440  135.4670 C   0  0  0  0  0  3  0  0  0  0  0  0
  187.5510  171.9170  136.0700 C   0  0  0  0  0  3  0  0  0  0  0  0
  184.5930  174.5940  135.4040 O   0  0  0  0  0  0  0  0  0  0  0  0
  186.7190  174.2520  136.4070 C   0  0  1  0  0  3  0  0  0  0  0  0
  187.5730  173.1100  136.9840 C   0  0  0  0  0  2  0  0  0  0  0  0
  185.4110  173.7800  135.8090 C   0  0  0  0  0  0  0  0  0  0  0  0
  185.1240  172.3030  135.6840 C   0  0  2  0  0  3  0  0  0  0  0  0
  184.5000  171.8320  136.8540 O   0  0  0  0  0  0  0  0  0  0  0  0
  182.5800  170.9070  137.6310 F   0  0  0  0  0  0  0  0  0  0  0  0
  182.9590  170.8770  135.4190 F   0  0  0  0  0  0  0  0  0  0  0  0
  182.4600  172.8220  136.4710 F   0  0  0  0  0  0  0  0  0  0  0  0
  183.1310  171.6180  136.5810 C   0  0  0  0  0  0  0  0  0  0  0  0
  180.8230  177.7210  138.9820 C   0  0  1  0  0  3  0  0  0  0  0  0
  180.1640  176.4990  139.1120 O   0  0  0  0  0  1  0  0  0  0  0  0
  180.0300  178.7890  139.7180 C   0  0  0  0  0  2  0  0  0  0  0  0
  180.9180  179.5270  140.7050 C   0  0  0  0  0  2  0  0  0  0  0  0
  180.7500  178.9330  142.0920 C   0  0  0  0  0  2  0  0  0  0  0  0
  182.5660  179.0100  143.7370 C   0  0  0  0  0  3  0  0  0  0  0  0
  182.0730  178.4920  142.6150 C   0  0  0  0  0  3  0  0  0  0  0  0
  183.8850  178.5460  144.2680 C   0  0  0  0  0  2  0  0  0  0  0  0
  184.9170  179.6740  144.2460 C   0  0  2  0  0  3  0  0  0  0  0  0
  185.7490  179.3650  140.6740 O   0  0  0  0  0  0  0  0  0  0  0  0
  185.3170  179.9790  142.8770 N   0  0  0  0  0  2  0  0  0  0  0  0
  185.3810  179.0130  141.8250 C   0  0  0  0  0  0  0  0  0  0  0  0
  185.0360  177.6890  142.0590 O   0  0  0  0  0  1  0  0  0  0  0  0
  186.1350  179.3460  145.1060 C   0  0  0  0  0  2  0  0  0  0  0  0
  187.6990  177.4900  147.2730 C   0  0  2  0  0  3  0  0  0  0  0  0
  188.2470  178.6610  143.0080 O   0  0  0  0  0  0  0  0  0  0  0  0
  186.5130  177.8790  144.9700 C   0  0  1  0  0  3  0  0  0  0  0  0
  191.2020  176.4950  146.8480 C   0  0  0  0  0  2  0  0  0  0  0  0
  188.2250  176.2810  143.6160 O   0  0  0  0  0  0  0  0  0  0  0  0
  188.0940  177.6820  144.1410 S   0  0  0  0  0  0  0  0  0  0  0  0
  187.6880  178.9250  147.7870 C   0  0  0  0  0  1  0  0  0  0  0  0
  191.2380  176.6600  145.3040 C   0  0  0  0  0  2  0  0  0  0  0  0
  190.6480  177.8780  144.8920 O   0  0  0  0  0  0  0  0  0  0  0  0
  189.0200  177.1110  146.6030 C   0  0  1  0  0  3  0  0  0  0  0  0
  189.3200  177.9920  145.3840 C   0  0  2  0  0  3  0  0  0  0  0  0
  190.1160  177.1570  147.4790 O   0  0  0  0  0  0  0  0  0  0  0  0
  186.5020  177.1860  146.3480 C   0  0  0  0  0  2  0  0  0  0  0  0
  2  1  1  6  0  0  0
  3  2  1  0  0  0  0
  4  3  2  0  0  0  0
  5  4  1  0  0  0  0
  6  5  1  0  0  0  0
  7 11  1  0  0  0  0
  8 13  1  1  0  0  0
  9  7  2  0  0  0  0
  9 12  1  0  0  0  0
 10  8  1  0  0  0  0
 11  8  1  0  0  0  0
 12  6  1  6  0  0  0
 12 16  1  0  0  0  0
 12 10  1  0  0  0  0
 13 15  1  0  0  0  0
 13 14  1  0  0  0  0
 15 14  1  0  0  0  0
 17 23  1  0  0  0  0
 17 18  2  0  0  0  0
 18 21  1  0  0  0  0
 19 22  2  0  0  0  0
 20 21  1  0  0  0  0
 20 16  1  1  0  0  0
 22 20  1  0  0  0  0
 23 22  1  0  0  0  0
 23 24  1  1  0  0  0
 26 28  1  0  0  0  0
 27 28  1  0  0  0  0
 28 24  1  0  0  0  0
 28 25  1  0  0  0  0
 29 30  1  1  0  0  0
 29  2  1  0  0  0  0
 29 31  1  0  0  0  0
 31 32  1  0  0  0  0
 32 33  1  0  0  0  0
 33 35  1  0  0  0  0
 34 36  1  0  0  0  0
 35 34  2  0  0  0  0
 37 36  1  6  0  0  0
 37 42  1  0  0  0  0
 38 40  2  0  0  0  0
 39 37  1  0  0  0  0
 40 41  1  0  0  0  0
 40 39  1  0  0  0  0
 43 49  1  6  0  0  0
 44 48  2  0  0  0  0
 45 42  1  1  0  0  0
 45 55  1  0  0  0  0
 46 54  1  0  0  0  0
 47 48  2  0  0  0  0
 48 45  1  0  0  0  0
 48 53  1  0  0  0  0
 50 46  1  0  0  0  0
 51 50  1  0  0  0  0
 52 43  1  0  0  0  0
 52 54  1  1  0  0  0
 53 51  1  6  0  0  0
 53 52  1  0  0  0  0
 55 43  1  0  0  0  0
M  END
>  <MODEL>
7

>  <REMARK>
 VINA RESULT:      -5.8      3.560      8.331
  Name = 
  19 active torsions:
  status: ('A' for Active; 'I' for Inactive)
    1  A    between atoms: C_2  and  C_44
    2  A    between atoms: C_6  and  C_46
    3  A    between atoms: N_8  and  C_22
    4  A    between atoms: C_10  and  N_32
    5  A    between atoms: C_17  and  O_36
    6  A    between atoms: O_19  and  C_40
    7  A    between atoms: O_19  and  C_45
    8  A    between atoms: C_22  and  C_35
    9  A    between atoms: C_22  and  C_46
   10  A    between atoms: C_24  and  C_31
   11  A    between atoms: C_24  and  C_44
   12  A    between atoms: C_27  and  C_31
   13  A    between atoms: C_27  and  C_54
   14  A    between atoms: C_28  and  C_49
   15  A    between atoms: O_33  and  C_49
   16  A    between atoms: O_33  and  C_52
   17  A    between atoms: C_35  and  C_43
   18  A    between atoms: O_36  and  C_52
   19  A    between atoms: C_51  and  C_54
                            x       y       z     vdW  Elec       q    Type
                         _______ _______ _______ _____ _____    ______ ____

>  <TORSDO>
F 19

$$$$
=
 OpenBabel11052415003D

 55 59  0  0  1  0  0  0  0  0999 V2000
  181.0220  179.1610  144.1560 O   0  0  0  0  0  1  0  0  0  0  0  0
  181.2340  179.1170  142.7760 C   0  0  1  0  0  3  0  0  0  0  0  0
  182.6230  178.6150  142.5280 C   0  0  0  0  0  3  0  0  0  0  0  0
  183.5990  178.7860  143.4190 C   0  0  0  0  0  3  0  0  0  0  0  0
  184.9650  178.2710  143.1260 C   0  0  0  0  0  2  0  0  0  0  0  0
  185.4010  177.4500  144.1840 O   0  0  0  0  0  0  0  0  0  0  0  0
  185.9720  179.7360  146.8420 C   0  0  0  0  0  3  0  0  0  0  0  0
  187.7300  178.0160  146.9880 N   0  0  1  0  0  0  0  0  0  0  0  0
  185.7170  179.3500  145.5860 C   0  0  0  0  0  3  0  0  0  0  0  0
  186.8840  177.2350  146.0880 C   0  0  0  0  0  2  0  0  0  0  0  0
  186.8560  178.9130  147.7460 C   0  0  0  0  0  2  0  0  0  0  0  0
  186.3780  178.1390  144.9450 C   0  0  1  0  0  0  0  0  0  0  0  0
  188.3180  177.0930  147.9480 C   0  0  0  0  0  3  0  0  0  0  0  0
  189.5800  176.4710  147.3680 C   0  0  0  0  0  2  0  0  0  0  0  0
  189.6870  177.6080  148.3680 C   0  0  0  0  0  2  0  0  0  0  0  0
  187.5130  178.4950  144.1450 O   0  0  0  0  0  0  0  0  0  0  0  0
  190.8770  176.0860  143.1730 C   0  0  0  0  0  3  0  0  0  0  0  0
  189.6560  175.5300  143.1000 C   0  0  0  0  0  3  0  0  0  0  0  0
  190.1740  179.1750  144.7760 O   0  0  0  0  0  0  0  0  0  0  0  0
  188.5760  177.5480  144.1110 C   0  0  1  0  0  3  0  0  0  0  0  0
  188.4260  176.3940  143.1030 C   0  0  0  0  0  2  0  0  0  0  0  0
  189.9490  178.1840  144.0950 C   0  0  0  0  0  0  0  0  0  0  0  0
  191.0540  177.5810  143.2610 C   0  0  2  0  0  3  0  0  0  0  0  0
  191.0330  178.1270  141.9640 O   0  0  0  0  0  0  0  0  0  0  0  0
  192.7860  176.6860  141.9690 F   0  0  0  0  0  0  0  0  0  0  0  0
  192.6810  178.2340  140.3460 F   0  0  0  0  0  0  0  0  0  0  0  0
  191.2340  176.4890  140.3620 F   0  0  0  0  0  0  0  0  0  0  0  0
  191.9240  177.3920  141.1500 C   0  0  0  0  0  0  0  0  0  0  0  0
  180.1900  178.2140  142.1130 C   0  0  1  0  0  3  0  0  0  0  0  0
  178.9310  178.8120  142.1660 O   0  0  0  0  0  1  0  0  0  0  0  0
  180.5590  177.9750  140.6580 C   0  0  0  0  0  2  0  0  0  0  0  0
  180.1590  179.1660  139.8040 C   0  0  0  0  0  2  0  0  0  0  0  0
  181.4020  179.8890  139.3160 C   0  0  0  0  0  2  0  0  0  0  0  0
  182.2190  178.2130  137.7250 C   0  0  0  0  0  3  0  0  0  0  0  0
  181.7400  179.4350  137.9380 C   0  0  0  0  0  3  0  0  0  0  0  0
  182.5350  177.7550  136.3370 C   0  0  0  0  0  2  0  0  0  0  0  0
  183.0510  176.3150  136.3330 C   0  0  2  0  0  3  0  0  0  0  0  0
  181.3150  173.3450  137.6420 O   0  0  0  0  0  1  0  0  0  0  0  0
  182.1480  175.4430  137.0770 N   0  0  0  0  0  2  0  0  0  0  0  0
  182.1390  174.0180  136.9690 C   0  0  0  0  0  0  0  0  0  0  0  0
  183.0340  173.3660  136.1320 O   0  0  0  0  0  0  0  0  0  0  0  0
  184.4720  176.2190  136.8820 C   0  0  0  0  0  2  0  0  0  0  0  0
  187.2900  175.6160  135.3720 C   0  0  2  0  0  3  0  0  0  0  0  0
  185.8760  178.2610  138.6670 O   0  0  0  0  0  0  0  0  0  0  0  0
  185.3860  177.2190  136.1890 C   0  0  1  0  0  3  0  0  0  0  0  0
  190.5340  176.5020  136.8320 C   0  0  0  0  0  2  0  0  0  0  0  0
  187.0910  179.2390  136.7680 O   0  0  0  0  0  0  0  0  0  0  0  0
  186.5360  177.9680  137.3470 S   0  0  0  0  0  0  0  0  0  0  0  0
  186.8200  174.3310  136.0440 C   0  0  0  0  0  1  0  0  0  0  0  0
  189.9990  177.6210  137.7650 C   0  0  0  0  0  2  0  0  0  0  0  0
  188.8400  177.2110  138.4650 O   0  0  0  0  0  0  0  0  0  0  0  0
  188.3520  176.3550  136.1850 C   0  0  1  0  0  3  0  0  0  0  0  0
  187.8300  176.7750  137.5650 C   0  0  2  0  0  3  0  0  0  0  0  0
  189.5340  175.6160  136.3510 O   0  0  0  0  0  0  0  0  0  0  0  0
  186.1200  176.5530  135.0060 C   0  0  0  0  0  2  0  0  0  0  0  0
  2  1  1  1  0  0  0
  3  2  1  0  0  0  0
  3  4  2  0  0  0  0
  5  4  1  0  0  0  0
  5  6  1  0  0  0  0
  6 12  1  0  0  0  0
  7 11  1  0  0  0  0
  8 11  1  0  0  0  0
  8 13  1  1  0  0  0
  9  7  2  0  0  0  0
 10  8  1  0  0  0  0
 12 16  1  6  0  0  0
 12  9  1  0  0  0  0
 12 10  1  0  0  0  0
 13 15  1  0  0  0  0
 14 13  1  0  0  0  0
 14 15  1  0  0  0  0
 17 23  1  0  0  0  0
 18 21  1  0  0  0  0
 18 17  2  0  0  0  0
 20 16  1  6  0  0  0
 21 20  1  0  0  0  0
 22 20  1  0  0  0  0
 22 19  2  0  0  0  0
 23 24  1  6  0  0  0
 23 22  1  0  0  0  0
 26 28  1  0  0  0  0
 27 28  1  0  0  0  0
 28 24  1  0  0  0  0
 28 25  1  0  0  0  0
 29 30  1  6  0  0  0
 29  2  1  0  0  0  0
 31 29  1  0  0  0  0
 32 31  1  0  0  0  0
 33 32  1  0  0  0  0
 34 35  2  0  0  0  0
 35 33  1  0  0  0  0
 36 34  1  0  0  0  0
 37 36  1  1  0  0  0
 37 42  1  0  0  0  0
 37 39  1  0  0  0  0
 40 39  1  0  0  0  0
 40 38  1  0  0  0  0
 41 40  2  0  0  0  0
 43 49  1  1  0  0  0
 43 52  1  0  0  0  0
 45 42  1  1  0  0  0
 45 48  1  0  0  0  0
 46 50  1  0  0  0  0
 47 48  2  0  0  0  0
 48 53  1  0  0  0  0
 48 44  2  0  0  0  0
 50 51  1  0  0  0  0
 52 54  1  1  0  0  0
 52 53  1  0  0  0  0
 53 51  1  1  0  0  0
 54 46  1  0  0  0  0
 55 43  1  0  0  0  0
 55 45  1  0  0  0  0
M  END
>  <MODEL>
8

>  <REMARK>
 VINA RESULT:      -5.7      2.999      7.889
  Name = 
  19 active torsions:
  status: ('A' for Active; 'I' for Inactive)
    1  A    between atoms: C_2  and  C_44
    2  A    between atoms: C_6  and  C_46
    3  A    between atoms: N_8  and  C_22
    4  A    between atoms: C_10  and  N_32
    5  A    between atoms: C_17  and  O_36
    6  A    between atoms: O_19  and  C_40
    7  A    between atoms: O_19  and  C_45
    8  A    between atoms: C_22  and  C_35
    9  A    between atoms: C_22  and  C_46
   10  A    between atoms: C_24  and  C_31
   11  A    between atoms: C_24  and  C_44
   12  A    between atoms: C_27  and  C_31
   13  A    between atoms: C_27  and  C_54
   14  A    between atoms: C_28  and  C_49
   15  A    between atoms: O_33  and  C_49
   16  A    between atoms: O_33  and  C_52
   17  A    between atoms: C_35  and  C_43
   18  A    between atoms: O_36  and  C_52
   19  A    between atoms: C_51  and  C_54
                            x       y       z     vdW  Elec       q    Type
                         _______ _______ _______ _____ _____    ______ ____

>  <TORSDO>
F 19

$$$$
=
 OpenBabel11052415003D

 55 59  0  0  1  0  0  0  0  0999 V2000
  186.1670  177.8770  136.7400 O   0  0  0  0  0  1  0  0  0  0  0  0
  185.2930  176.7880  136.7720 C   0  0  1  0  0  3  0  0  0  0  0  0
  183.9170  177.2960  137.0770 C   0  0  0  0  0  3  0  0  0  0  0  0
  183.0340  176.5610  137.7530 C   0  0  0  0  0  3  0  0  0  0  0  0
  181.6770  177.1090  138.0310 C   0  0  0  0  0  2  0  0  0  0  0  0
  181.7820  178.4540  138.4370 O   0  0  0  0  0  0  0  0  0  0  0  0
  179.3470  177.1340  140.6590 C   0  0  0  0  0  3  0  0  0  0  0  0
  180.2180  179.1920  141.6950 N   0  0  1  0  0  0  0  0  0  0  0  0
  179.8560  177.5250  139.4850 C   0  0  0  0  0  3  0  0  0  0  0  0
  181.3090  179.0840  140.7280 C   0  0  0  0  0  2  0  0  0  0  0  0
  179.7110  177.8410  141.9410 C   0  0  0  0  0  2  0  0  0  0  0  0
  180.7300  178.7600  139.3360 C   0  0  1  0  0  0  0  0  0  0  0  0
  180.7900  179.6610  142.9500 C   0  0  0  0  0  3  0  0  0  0  0  0
  180.5690  178.6260  144.0430 C   0  0  0  0  0  2  0  0  0  0  0  0
  181.9230  178.7340  143.3640 C   0  0  0  0  0  2  0  0  0  0  0  0
  179.9860  179.9070  138.9030 O   0  0  0  0  0  0  0  0  0  0  0  0
  180.4750  182.2450  135.3870 C   0  0  0  0  0  3  0  0  0  0  0  0
  179.7010  181.1490  135.3190 C   0  0  0  0  0  3  0  0  0  0  0  0
  181.9830  181.8680  138.5790 O   0  0  0  0  0  0  0  0  0  0  0  0
  180.3410  180.4390  137.6300 C   0  0  1  0  0  3  0  0  0  0  0  0
  179.2220  180.4760  136.5740 C   0  0  0  0  0  2  0  0  0  0  0  0
  181.1290  181.7270  137.7150 C   0  0  0  0  0  0  0  0  0  0  0  0
  180.8860  182.8320  136.7150 C   0  0  2  0  0  3  0  0  0  0  0  0
  179.8690  183.6880  137.1780 O   0  0  0  0  0  0  0  0  0  0  0  0
  179.7580  185.6700  138.2760 F   0  0  0  0  0  0  0  0  0  0  0  0
  180.1130  185.6960  136.0590 F   0  0  0  0  0  0  0  0  0  0  0  0
  181.7400  184.9940  137.4730 F   0  0  0  0  0  0  0  0  0  0  0  0
  180.3770  185.0040  137.2340 C   0  0  0  0  0  0  0  0  0  0  0  0
  185.3260  176.0470  135.4310 C   0  0  1  0  0  3  0  0  0  0  0  0
  186.2950  176.6040  134.5960 O   0  0  0  0  0  1  0  0  0  0  0  0
  185.6570  174.5810  135.6570 C   0  0  0  0  0  2  0  0  0  0  0  0
  186.7260  174.4340  136.7270 C   0  0  0  0  0  2  0  0  0  0  0  0
  188.0550  174.0860  136.0810 C   0  0  0  0  0  2  0  0  0  0  0  0
  189.2470  175.7100  137.4770 C   0  0  0  0  0  3  0  0  0  0  0  0
  189.0150  175.2090  136.2660 C   0  0  0  0  0  3  0  0  0  0  0  0
  190.2290  176.8240  137.6590 C   0  0  0  0  0  2  0  0  0  0  0  0
  191.2120  176.5150  138.7890 C   0  0  2  0  0  3  0  0  0  0  0  0
  193.6030  174.2340  137.1680 O   0  0  0  0  0  1  0  0  0  0  0  0
  192.0200  175.3450  138.4630 N   0  0  0  0  0  2  0  0  0  0  0  0
  192.9560  175.2920  137.3830 C   0  0  0  0  0  0  0  0  0  0  0  0
  193.1640  176.3990  136.5710 O   0  0  0  0  0  0  0  0  0  0  0  0
  190.4990  176.3250  140.1250 C   0  0  0  0  0  2  0  0  0  0  0  0
  190.5240  176.9260  143.3230 C   0  0  2  0  0  3  0  0  0  0  0  0
  187.7110  177.5570  139.9240 O   0  0  0  0  0  0  0  0  0  0  0  0
  190.2900  177.6630  140.8200 C   0  0  1  0  0  3  0  0  0  0  0  0
  187.4590  177.5840  145.2250 C   0  0  0  0  0  2  0  0  0  0  0  0
  188.3380  179.4610  141.3450 O   0  0  0  0  0  0  0  0  0  0  0  0
  188.5480  177.9940  141.0970 S   0  0  0  0  0  0  0  0  0  0  0  0
  190.6210  175.4190  143.1160 C   0  0  0  0  0  1  0  0  0  0  0  0
  186.6110  178.0660  144.0170 C   0  0  0  0  0  2  0  0  0  0  0  0
  186.7470  177.2050  142.9030 O   0  0  0  0  0  0  0  0  0  0  0  0
  189.1050  177.3870  143.6600 C   0  0  1  0  0  3  0  0  0  0  0  0
  188.1120  177.0570  142.5380 C   0  0  2  0  0  3  0  0  0  0  0  0
  188.6230  176.8550  144.8660 O   0  0  0  0  0  0  0  0  0  0  0  0
  191.0980  177.7240  142.1340 C   0  0  0  0  0  2  0  0  0  0  0  0
  2  1  1  6  0  0  0
  2  3  1  0  0  0  0
  3  4  2  0  0  0  0
  4  5  1  0  0  0  0
  5  6  1  0  0  0  0
  7 11  1  0  0  0  0
  8 11  1  0  0  0  0
  8 13  1  1  0  0  0
  9  7  2  0  0  0  0
 10  8  1  0  0  0  0
 12  6  1  6  0  0  0
 12  9  1  0  0  0  0
 12 10  1  0  0  0  0
 13 15  1  0  0  0  0
 13 14  1  0  0  0  0
 15 14  1  0  0  0  0
 16 12  1  0  0  0  0
 17 23  1  0  0  0  0
 18 17  2  0  0  0  0
 18 21  1  0  0  0  0
 20 22  1  0  0  0  0
 20 16  1  1  0  0  0
 21 20  1  0  0  0  0
 22 19  2  0  0  0  0
 23 24  1  1  0  0  0
 23 22  1  0  0  0  0
 24 28  1  0  0  0  0
 26 28  1  0  0  0  0
 28 27  1  0  0  0  0
 28 25  1  0  0  0  0
 29 30  1  6  0  0  0
 29 31  1  0  0  0  0
 29  2  1  0  0  0  0
 31 32  1  0  0  0  0
 33 35  1  0  0  0  0
 33 32  1  0  0  0  0
 34 36  1  0  0  0  0
 35 34  2  0  0  0  0
 37 36  1  6  0  0  0
 37 42  1  0  0  0  0
 38 40  1  0  0  0  0
 39 37  1  0  0  0  0
 40 39  1  0  0  0  0
 41 40  2  0  0  0  0
 43 49  1  6  0  0  0
 43 52  1  0  0  0  0
 44 48  2  0  0  0  0
 45 42  1  1  0  0  0
 45 48  1  0  0  0  0
 45 55  1  0  0  0  0
 48 47  2  0  0  0  0
 48 53  1  0  0  0  0
 50 46  1  0  0  0  0
 51 50  1  0  0  0  0
 52 54  1  1  0  0  0
 53 51  1  1  0  0  0
 53 52  1  0  0  0  0
 54 46  1  0  0  0  0
 55 43  1  0  0  0  0
M  END
>  <MODEL>
9

>  <REMARK>
 VINA RESULT:      -5.7      4.820     11.491
  Name = 
  19 active torsions:
  status: ('A' for Active; 'I' for Inactive)
    1  A    between atoms: C_2  and  C_44
    2  A    between atoms: C_6  and  C_46
    3  A    between atoms: N_8  and  C_22
    4  A    between atoms: C_10  and  N_32
    5  A    between atoms: C_17  and  O_36
    6  A    between atoms: O_19  and  C_40
    7  A    between atoms: O_19  and  C_45
    8  A    between atoms: C_22  and  C_35
    9  A    between atoms: C_22  and  C_46
   10  A    between atoms: C_24  and  C_31
   11  A    between atoms: C_24  and  C_44
   12  A    between atoms: C_27  and  C_31
   13  A    between atoms: C_27  and  C_54
   14  A    between atoms: C_28  and  C_49
   15  A    between atoms: O_33  and  C_49
   16  A    between atoms: O_33  and  C_52
   17  A    between atoms: C_35  and  C_43
   18  A    between atoms: O_36  and  C_52
   19  A    between atoms: C_51  and  C_54
                            x       y       z     vdW  Elec       q    Type
                         _______ _______ _______ _____ _____    ______ ____

>  <TORSDO>
F 19

$$$$
