=
 OpenBabel11052414503D

 55 59  0  0  1  0  0  0  0  0999 V2000
  183.9040  175.2510  136.6800 C   0  0  0  0  0  2  0  0  0  0  0  0
  187.1240  178.1980  140.4910 C   0  0  0  0  0  2  0  0  0  0  0  0
  185.0890  179.0050  142.3790 O   0  0  0  0  0  1  0  0  0  0  0  0
  181.1910  178.1950  140.5720 C   0  0  0  0  0  2  0  0  0  0  0  0
  180.1750  179.3380  140.6270 C   0  0  0  0  0  2  0  0  0  0  0  0
  181.3790  178.4810  138.0480 C   0  0  1  0  0  3  0  0  0  0  0  0
  180.3610  179.6230  138.1200 C   0  0  0  0  0  2  0  0  0  0  0  0
  184.1310  177.5570  140.7410 C   0  0  0  0  0  2  0  0  0  0  0  0
  179.4030  179.4430  139.3090 C   0  0  0  0  0  2  0  0  0  0  0  0
  185.5260  176.8440  135.6300 C   0  0  0  0  0  3  0  0  0  0  0  0
  182.1420  178.4320  139.3920 C   0  0  2  0  0  3  0  0  0  0  0  0
  187.4610  176.2130  137.5620 C   0  0  0  0  0  0  0  0  0  0  0  0
  182.9420  176.1500  137.4460 C   0  0  1  0  0  3  0  0  0  0  0  0
  186.2190  175.5750  137.5750 C   0  0  0  0  0  3  0  0  0  0  0  0
  181.4590  176.0580  137.0430 C   0  0  2  0  0  3  0  0  0  0  0  0
  188.3560  178.5870  139.6990 C   0  0  0  0  0  2  0  0  0  0  0  0
  180.6400  177.1640  137.7500 C   0  0  0  0  0  2  0  0  0  0  0  0
  185.9980  179.1650  140.1640 C   0  0  0  0  0  2  0  0  0  0  0  0
  184.7630  178.9150  141.0270 C   0  0  2  0  0  3  0  0  0  0  0  0
  186.7680  177.4790  135.6060 C   0  0  0  0  0  3  0  0  0  0  0  0
  189.4600  177.5680  139.9260 C   0  0  1  0  0  3  0  0  0  0  0  0
  185.2530  175.8830  136.6110 C   0  0  0  0  0  0  0  0  0  0  0  0
  183.4100  177.5500  139.3980 C   0  0  2  0  0  3  0  0  0  0  0  0
  183.1610  176.1220  138.9480 C   0  0  0  0  0  2  0  0  0  0  0  0
  189.6010  176.6350  138.7310 C   0  0  0  0  0  2  0  0  0  0  0  0
  188.4050  175.8860  138.5440 O   0  0  0  0  0  0  0  0  0  0  0  0
  187.7330  177.1650  136.5700 C   0  0  0  0  0  3  0  0  0  0  0  0
  179.4590  174.6210  136.9430 C   0  0  0  0  0  2  0  0  0  0  0  0
  180.0550  173.6950  134.6710 C   0  0  2  0  0  3  0  0  0  0  0  0
  181.6220  173.6450  136.6460 C   0  0  0  0  0  2  0  0  0  0  0  0
  181.5160  173.7380  135.1210 C   0  0  0  0  0  2  0  0  0  0  0  0
  179.2470  174.7480  135.4270 C   0  0  0  0  0  2  0  0  0  0  0  0
  180.8800  174.7190  137.3230 N   0  0  1  0  0  0  0  0  0  0  0  0
  179.4420  172.3040  134.8250 C   0  0  0  0  0  3  0  0  0  0  0  0
  178.9310  172.1390  136.1110 O   0  0  0  0  0  1  0  0  0  0  0  0
  180.4180  171.3350  134.5940 O   0  0  0  0  0  1  0  0  0  0  0  0
  190.6650  178.2430  140.1430 O   0  0  0  0  0  0  0  0  0  0  0  0
  191.4760  177.3400  140.7550 N   0  0  0  0  0  0  0  0  0  0  0  0
  192.5260  177.0330  138.6930 F   0  0  0  0  0  0  0  0  0  0  0  0
  192.7410  177.3290  140.0290 C   0  0  0  0  0  3  0  0  0  0  0  0
  193.5840  176.3700  140.5670 F   0  0  0  0  0  0  0  0  0  0  0  0
  191.7560  177.8540  142.0920 C   0  0  0  0  0  2  0  0  0  0  0  0
  190.4870  177.8510  142.9340 C   0  0  0  0  0  2  0  0  0  0  0  0
  190.0100  178.4830  145.3590 N   0  0  0  0  0  2  0  0  0  0  0  0
  190.5540  178.8220  144.0790 C   0  0  0  0  0  0  0  0  0  0  0  0
  191.1380  179.9320  143.9380 O   0  0  0  0  0  0  0  0  0  0  0  0
  189.4660  177.1710  145.6800 C   0  0  2  0  0  3  0  0  0  0  0  0
  187.9770  177.2940  145.9640 C   0  0  0  0  0  2  0  0  0  0  0  0
  187.2110  177.7130  144.7200 C   0  0  0  0  0  3  0  0  0  0  0  0
  187.2260  176.5770  143.7290 C   0  0  0  0  0  1  0  0  0  0  0  0
  185.7710  178.0420  145.0760 C   0  0  0  0  0  1  0  0  0  0  0  0
  190.2220  176.5270  146.8520 C   0  0  0  0  0  2  0  0  0  0  0  0
  191.6490  176.2180  146.5270 C   0  0  0  0  0  0  0  0  0  0  0  0
  191.9710  175.8610  145.3570 O   0  0  0  0  0  0  0  0  0  0  0  0
  192.6480  176.3620  147.5290 N   0  0  0  0  0  1  0  0  0  0  0  0
  4  5  1  0  0  0  0
  6 17  1  1  0  0  0
  6  7  1  0  0  0  0
  6 11  1  0  0  0  0
  7  9  1  0  0  0  0
  8 19  1  0  0  0  0
  9  5  1  0  0  0  0
 10 22  1  0  0  0  0
 11 23  1  0  0  0  0
 11  4  1  1  0  0  0
 12 14  1  0  0  0  0
 12 26  1  0  0  0  0
 13  1  1  6  0  0  0
 13 24  1  0  0  0  0
 15 33  1  0  0  0  0
 15 13  1  0  0  0  0
 15 17  1  1  0  0  0
 16 21  1  0  0  0  0
 16  2  1  0  0  0  0
 18  2  1  0  0  0  0
 18 19  1  0  0  0  0
 19  3  1  1  0  0  0
 20 10  2  0  0  0  0
 20 27  1  0  0  0  0
 21 37  1  6  0  0  0
 22  1  1  0  0  0  0
 22 14  2  0  0  0  0
 23 24  1  1  0  0  0
 23  8  1  0  0  0  0
 25 21  1  0  0  0  0
 26 25  1  0  0  0  0
 27 12  2  0  0  0  0
 28 33  1  0  0  0  0
 29 34  1  1  0  0  0
 29 31  1  0  0  0  0
 29 32  1  0  0  0  0
 31 30  1  0  0  0  0
 32 28  1  0  0  0  0
 33 30  1  6  0  0  0
 34 35  1  0  0  0  0
 36 34  1  0  0  0  0
 37 38  1  0  0  0  0
 38 42  1  0  0  0  0
 39 40  1  0  0  0  0
 40 41  1  0  0  0  0
 40 38  1  0  0  0  0
 42 43  1  0  0  0  0
 43 45  1  0  0  0  0
 44 47  1  0  0  0  0
 45 44  1  0  0  0  0
 46 45  2  0  0  0  0
 47 48  1  1  0  0  0
 47 52  1  0  0  0  0
 49 51  1  0  0  0  0
 49 48  1  0  0  0  0
 50 49  1  0  0  0  0
 53 52  1  0  0  0  0
 53 55  1  0  0  0  0
 54 53  2  0  0  0  0
M  END
>  <MODEL>
1

>  <REMARK>
 VINA RESULT:      -6.5      0.000      0.000
  Name = 
  13 active torsions:
  status: ('A' for Active; 'I' for Inactive)
    1  A    between atoms: C_1  and  C_53
    2  A    between atoms: N_3  and  C_38
    3  A    between atoms: C_6  and  C_12
    4  A    between atoms: C_6  and  C_46
    5  A    between atoms: O_8  and  N_22
    6  A    between atoms: O_8  and  C_43
    7  A    between atoms: C_10  and  C_32
    8  A    between atoms: C_11  and  C_29
    9  A    between atoms: C_20  and  N_22
   10  A    between atoms: N_22  and  C_46
   11  A    between atoms: C_29  and  C_38
   12  A    between atoms: C_33  and  N_52
   13  A    between atoms: C_38  and  C_53
                            x       y       z     vdW  Elec       q    Type
                         _______ _______ _______ _____ _____    ______ ____

>  <TORSDO>
F 13

$$$$
=
 OpenBabel11052414503D

 55 59  0  0  1  0  0  0  0  0999 V2000
  189.0010  174.9590  136.1950 C   0  0  0  0  0  2  0  0  0  0  0  0
  183.8650  177.4220  137.2620 C   0  0  0  0  0  2  0  0  0  0  0  0
  184.6800  179.6090  138.9650 O   0  0  0  0  0  1  0  0  0  0  0  0
  188.8440  178.9300  140.1160 C   0  0  0  0  0  2  0  0  0  0  0  0
  189.1580  179.0660  141.6080 C   0  0  0  0  0  2  0  0  0  0  0  0
  189.2600  176.4220  140.2530 C   0  0  1  0  0  3  0  0  0  0  0  0
  189.5720  176.5730  141.7450 C   0  0  0  0  0  2  0  0  0  0  0  0
  186.6120  178.4750  138.1430 C   0  0  0  0  0  2  0  0  0  0  0  0
  190.1290  177.9720  142.0590 C   0  0  0  0  0  2  0  0  0  0  0  0
  187.1960  173.3330  136.8000 C   0  0  0  0  0  3  0  0  0  0  0  0
  188.2630  177.5350  139.8550 C   0  0  2  0  0  3  0  0  0  0  0  0
  185.3140  174.8110  135.3340 C   0  0  0  0  0  0  0  0  0  0  0  0
  189.1840  175.7990  137.4520 C   0  0  1  0  0  3  0  0  0  0  0  0
  186.6510  175.2150  135.3720 C   0  0  0  0  0  3  0  0  0  0  0  0
  190.5890  175.7830  138.0820 C   0  0  2  0  0  3  0  0  0  0  0  0
  182.8690  176.3080  137.0020 C   0  0  0  0  0  2  0  0  0  0  0  0
  190.5730  176.5010  139.4520 C   0  0  0  0  0  2  0  0  0  0  0  0
  184.4610  177.2420  138.6480 C   0  0  0  0  0  2  0  0  0  0  0  0
  185.3760  178.4030  139.0310 C   0  0  2  0  0  3  0  0  0  0  0  0
  185.8640  172.9200  136.7590 C   0  0  0  0  0  3  0  0  0  0  0  0
  182.3450  176.4060  135.5800 C   0  0  1  0  0  3  0  0  0  0  0  0
  187.5930  174.4780  136.0980 C   0  0  0  0  0  0  0  0  0  0  0  0
  187.5990  177.3600  138.4720 C   0  0  2  0  0  3  0  0  0  0  0  0
  188.5910  177.1920  137.3370 C   0  0  0  0  0  2  0  0  0  0  0  0
  182.9900  175.3570  134.6830 C   0  0  0  0  0  2  0  0  0  0  0  0
  184.3950  175.5730  134.6010 O   0  0  0  0  0  0  0  0  0  0  0  0
  184.9240  173.6570  136.0280 C   0  0  0  0  0  3  0  0  0  0  0  0
  192.8390  176.7730  137.9110 C   0  0  0  0  0  2  0  0  0  0  0  0
  193.9380  174.5590  137.3970 C   0  0  2  0  0  3  0  0  0  0  0  0
  191.9850  175.4780  136.0910 C   0  0  0  0  0  2  0  0  0  0  0  0
  192.6840  174.2100  136.5930 C   0  0  0  0  0  2  0  0  0  0  0  0
  193.5900  175.5660  138.4910 C   0  0  0  0  0  2  0  0  0  0  0  0
  191.6140  176.3820  137.1890 N   0  0  1  0  0  0  0  0  0  0  0  0
  195.0710  175.0700  136.5080 C   0  0  0  0  0  3  0  0  0  0  0  0
  195.1890  174.2780  135.3680 O   0  0  0  0  0  1  0  0  0  0  0  0
  196.2730  175.0340  137.2150 O   0  0  0  0  0  1  0  0  0  0  0  0
  180.9580  176.2260  135.5930 O   0  0  0  0  0  0  0  0  0  0  0  0
  180.4800  177.1870  136.4270 N   0  0  0  0  0  0  0  0  0  0  0  0
  179.0550  177.4580  134.5990 F   0  0  0  0  0  0  0  0  0  0  0  0
  179.7160  178.1270  135.6160 C   0  0  0  0  0  3  0  0  0  0  0  0
  180.5670  179.0640  135.0520 F   0  0  0  0  0  0  0  0  0  0  0  0
  179.5360  176.5380  137.3310 C   0  0  0  0  0  2  0  0  0  0  0  0
  179.2930  177.4120  138.5550 C   0  0  0  0  0  2  0  0  0  0  0  0
  180.3750  177.6990  140.8480 N   0  0  0  0  0  2  0  0  0  0  0  0
  179.9080  176.8400  139.8020 C   0  0  0  0  0  0  0  0  0  0  0  0
  179.9720  175.5900  139.9620 O   0  0  0  0  0  0  0  0  0  0  0  0
  180.1970  179.1430  140.8420 C   0  0  2  0  0  3  0  0  0  0  0  0
  181.4400  179.8050  140.2680 C   0  0  0  0  0  2  0  0  0  0  0  0
  181.0800  180.8210  139.1970 C   0  0  0  0  0  3  0  0  0  0  0  0
  181.5110  180.2910  137.8530 C   0  0  0  0  0  1  0  0  0  0  0  0
  179.5790  181.0570  139.1790 C   0  0  0  0  0  1  0  0  0  0  0  0
  179.8630  179.6690  142.2470 C   0  0  0  0  0  2  0  0  0  0  0  0
  180.4990  178.8650  143.3360 C   0  0  0  0  0  0  0  0  0  0  0  0
  181.7210  179.0300  143.6170 O   0  0  0  0  0  0  0  0  0  0  0  0
  179.7140  177.9400  144.0790 N   0  0  0  0  0  1  0  0  0  0  0  0
  2 18  1  0  0  0  0
  4  5  1  0  0  0  0
  5  9  1  0  0  0  0
  6 17  1  6  0  0  0
  6  7  1  0  0  0  0
  7  9  1  0  0  0  0
  8 23  1  0  0  0  0
  8 19  1  0  0  0  0
 11  4  1  6  0  0  0
 11  6  1  0  0  0  0
 12 14  2  0  0  0  0
 12 27  1  0  0  0  0
 13  1  1  6  0  0  0
 13 15  1  0  0  0  0
 14 22  1  0  0  0  0
 15 17  1  1  0  0  0
 16  2  1  0  0  0  0
 18 19  1  0  0  0  0
 19  3  1  6  0  0  0
 20 10  1  0  0  0  0
 21 37  1  1  0  0  0
 21 16  1  0  0  0  0
 22  1  1  0  0  0  0
 22 10  2  0  0  0  0
 23 24  1  6  0  0  0
 23 11  1  0  0  0  0
 24 13  1  0  0  0  0
 25 21  1  0  0  0  0
 26 25  1  0  0  0  0
 26 12  1  0  0  0  0
 27 20  2  0  0  0  0
 28 32  1  0  0  0  0
 29 34  1  6  0  0  0
 29 32  1  0  0  0  0
 30 31  1  0  0  0  0
 31 29  1  0  0  0  0
 33 30  1  6  0  0  0
 33 28  1  0  0  0  0
 33 15  1  0  0  0  0
 34 36  1  0  0  0  0
 35 34  1  0  0  0  0
 37 38  1  0  0  0  0
 38 42  1  0  0  0  0
 39 40  1  0  0  0  0
 40 38  1  0  0  0  0
 41 40  1  0  0  0  0
 42 43  1  0  0  0  0
 43 45  1  0  0  0  0
 45 46  2  0  0  0  0
 45 44  1  0  0  0  0
 47 48  1  1  0  0  0
 47 44  1  0  0  0  0
 47 52  1  0  0  0  0
 49 48  1  0  0  0  0
 50 49  1  0  0  0  0
 51 49  1  0  0  0  0
 52 53  1  0  0  0  0
 53 54  2  0  0  0  0
 53 55  1  0  0  0  0
M  END
>  <MODEL>
2

>  <REMARK>
 VINA RESULT:      -6.2      4.502      9.989
  Name = 
  13 active torsions:
  status: ('A' for Active; 'I' for Inactive)
    1  A    between atoms: C_1  and  C_53
    2  A    between atoms: N_3  and  C_38
    3  A    between atoms: C_6  and  C_12
    4  A    between atoms: C_6  and  C_46
    5  A    between atoms: O_8  and  N_22
    6  A    between atoms: O_8  and  C_43
    7  A    between atoms: C_10  and  C_32
    8  A    between atoms: C_11  and  C_29
    9  A    between atoms: C_20  and  N_22
   10  A    between atoms: N_22  and  C_46
   11  A    between atoms: C_29  and  C_38
   12  A    between atoms: C_33  and  N_52
   13  A    between atoms: C_38  and  C_53
                            x       y       z     vdW  Elec       q    Type
                         _______ _______ _______ _____ _____    ______ ____

>  <TORSDO>
F 13

$$$$
