=
 OpenBabel11052415443D

 34 37  0  0  1  0  0  0  0  0999 V2000
  187.2530  178.3640  140.3120 C   0  0  1  0  0  3  0  0  0  0  0  0
  183.5840  178.4260  140.7880 C   0  0  0  0  0  3  0  0  0  0  0  0
  184.8490  178.2170  138.8390 N   0  0  0  0  0  0  0  0  0  0  0  0
  188.6020  178.3700  137.8750 S   0  0  0  0  0  0  0  0  0  0  0  0
  187.4430  180.1100  136.2700 O   0  0  0  0  0  0  0  0  0  0  0  0
  187.4090  178.9650  136.6880 C   0  0  0  0  0  0  0  0  0  0  0  0
  185.9400  177.9180  138.2120 C   0  0  0  0  0  0  0  0  0  0  0  0
  187.2420  177.7360  138.9380 C   0  0  2  0  0  3  0  0  0  0  0  0
  185.9970  177.9260  136.4330 S   0  0  0  0  0  0  0  0  0  0  0  0
  183.1230  178.6010  142.1670 C   0  0  0  0  0  2  0  0  0  0  0  0
  183.8030  178.8830  143.2710 C   0  0  0  0  0  0  0  0  0  0  0  0
  185.2500  179.1120  143.3410 C   0  0  0  0  0  3  0  0  0  0  0  0
  184.8040  178.3980  140.2570 C   0  0  0  0  0  0  0  0  0  0  0  0
  186.1830  178.9790  142.4070 C   0  0  0  0  0  3  0  0  0  0  0  0
  186.0920  178.5690  140.9930 C   0  0  0  0  0  0  0  0  0  0  0  0
  183.0490  179.0020  144.4770 N   0  0  0  0  0  2  0  0  0  0  0  0
  183.6530  179.0700  145.6880 O   0  0  0  0  0  1  0  0  0  0  0  0
  188.5440  178.5330  140.9250 N   0  0  0  0  0  2  0  0  0  0  0  0
  189.5660  177.4950  141.0060 C   0  0  0  0  0  2  0  0  0  0  0  0
  189.9050  178.4780  144.5660 C   0  0  0  0  0  2  0  0  0  0  0  0
  188.3480  176.5580  143.9810 C   0  0  0  0  0  2  0  0  0  0  0  0
  188.7380  177.5970  145.0460 C   0  0  1  0  0  3  0  0  0  0  0  0
  191.6600  177.2230  142.3190 C   0  0  0  0  0  1  0  0  0  0  0  0
  189.5510  176.1670  143.1280 C   0  0  0  0  0  2  0  0  0  0  0  0
  190.1510  177.3940  142.4120 C   0  0  2  0  0  0  0  0  0  0  0  0
  189.8540  178.6560  143.1150 N   0  0  0  0  0  2  0  0  0  0  0  0
  189.0750  176.9350  146.3950 C   0  0  1  0  0  3  0  0  0  0  0  0
  190.4260  177.4260  146.9450 C   0  0  1  0  0  3  0  0  0  0  0  0
  190.3300  178.0080  148.3500 C   0  0  0  0  0  1  0  0  0  0  0  0
  191.4820  176.3690  146.8550 C   0  0  0  0  0  0  0  0  0  0  0  0
  191.9140  175.9380  145.6080 O   0  0  0  0  0  0  0  0  0  0  0  0
  191.9620  175.8470  147.8960 O   0  0  0  0  0  1  0  0  0  0  0  0
  186.8860  178.0410  146.8490 C   0  0  0  0  0  1  0  0  0  0  0  0
  187.9550  177.1300  147.4190 C   0  0  0  0  0  2  0  0  0  0  0  0
  1 18  1  1  0  0  0
  1 15  1  0  0  0  0
  2 10  1  0  0  0  0
  3 13  1  0  0  0  0
  5  6  2  0  0  0  0
  6  4  1  0  0  0  0
  7  3  2  0  0  0  0
  7  8  1  0  0  0  0
  8  4  1  6  0  0  0
  8  1  1  0  0  0  0
  9  6  1  0  0  0  0
  9  7  1  0  0  0  0
 10 11  1  0  0  0  0
 11 12  2  0  0  0  0
 11 16  1  0  0  0  0
 13  2  2  0  0  0  0
 13 15  1  0  0  0  0
 14 12  1  0  0  0  0
 15 14  2  0  0  0  0
 16 17  1  0  0  0  0
 18 19  1  0  0  0  0
 19 25  1  0  0  0  0
 20 22  1  0  0  0  0
 21 22  1  0  0  0  0
 22 27  1  1  0  0  0
 24 21  1  0  0  0  0
 25 23  1  6  0  0  0
 25 26  1  0  0  0  0
 25 24  1  0  0  0  0
 26 20  1  0  0  0  0
 27 28  1  0  0  0  0
 27 34  1  1  0  0  0
 28 29  1  1  0  0  0
 30 28  1  0  0  0  0
 30 32  1  0  0  0  0
 31 30  2  0  0  0  0
 33 34  1  0  0  0  0
M  END
>  <MODEL>
1

>  <REMARK>
 VINA RESULT:      -8.3      0.000      0.000
  Name = 
  8 active torsions:
  status: ('A' for Active; 'I' for Inactive)
    1  A    between atoms: C_1  and  N_9
    2  A    between atoms: N_3  and  C_25
    3  A    between atoms: C_7  and  C_11
    4  A    between atoms: C_7  and  C_14
    5  A    between atoms: C_8  and  N_9
    6  A    between atoms: C_8  and  C_30
    7  A    between atoms: C_14  and  C_16
    8  A    between atoms: C_14  and  C_29
                            x       y       z     vdW  Elec       q    Type
                         _______ _______ _______ _____ _____    ______ ____

>  <TORSDO>
F 8

$$$$
=
 OpenBabel11052415443D

 34 37  0  0  1  0  0  0  0  0999 V2000
  188.2440  177.7220  139.5010 C   0  0  1  0  0  3  0  0  0  0  0  0
  184.5650  178.0480  139.2810 C   0  0  0  0  0  3  0  0  0  0  0  0
  186.1220  177.4120  137.6640 N   0  0  0  0  0  0  0  0  0  0  0  0
  189.9840  177.1990  137.3890 S   0  0  0  0  0  0  0  0  0  0  0  0
  189.2590  178.6550  135.3140 O   0  0  0  0  0  0  0  0  0  0  0  0
  189.0630  177.6140  135.9170 C   0  0  0  0  0  0  0  0  0  0  0  0
  187.2760  176.9470  137.3110 C   0  0  0  0  0  0  0  0  0  0  0  0
  188.4170  176.8450  138.2820 C   0  0  2  0  0  3  0  0  0  0  0  0
  187.6350  176.6130  135.6000 S   0  0  0  0  0  0  0  0  0  0  0  0
  183.8920  178.5040  140.4990 C   0  0  0  0  0  2  0  0  0  0  0  0
  184.3940  178.9600  141.6390 C   0  0  0  0  0  0  0  0  0  0  0  0
  185.8220  179.1290  141.9300 C   0  0  0  0  0  3  0  0  0  0  0  0
  185.8510  177.8610  138.9940 C   0  0  0  0  0  0  0  0  0  0  0  0
  186.8860  178.7760  141.2200 C   0  0  0  0  0  3  0  0  0  0  0  0
  187.0050  178.1090  139.9100 C   0  0  0  0  0  0  0  0  0  0  0  0
  183.4580  179.3420  142.6460 N   0  0  0  0  0  2  0  0  0  0  0  0
  182.1840  178.8820  142.6410 O   0  0  0  0  0  1  0  0  0  0  0  0
  189.4210  177.9440  140.2980 N   0  0  0  0  0  2  0  0  0  0  0  0
  190.2280  176.8860  140.8980 C   0  0  0  0  0  2  0  0  0  0  0  0
  189.4780  178.4960  144.1540 C   0  0  0  0  0  2  0  0  0  0  0  0
  188.2520  176.3560  143.5490 C   0  0  0  0  0  2  0  0  0  0  0  0
  188.2680  177.5960  144.4580 C   0  0  1  0  0  3  0  0  0  0  0  0
  191.8650  177.0590  142.7600 C   0  0  0  0  0  1  0  0  0  0  0  0
  189.6680  175.9480  143.1500 C   0  0  0  0  0  2  0  0  0  0  0  0
  190.3880  177.0890  142.4020 C   0  0  2  0  0  0  0  0  0  0  0  0
  189.8390  178.4160  142.7380 N   0  0  0  0  0  2  0  0  0  0  0  0
  188.2340  177.2130  145.9490 C   0  0  1  0  0  3  0  0  0  0  0  0
  189.4480  177.7790  146.7060 C   0  0  1  0  0  3  0  0  0  0  0  0
  189.0880  178.3850  148.0570 C   0  0  0  0  0  1  0  0  0  0  0  0
  190.5490  176.7730  146.8270 C   0  0  0  0  0  0  0  0  0  0  0  0
  191.7840  177.0390  146.2530 O   0  0  0  0  0  0  0  0  0  0  0  0
  190.3580  175.6770  147.4180 O   0  0  0  0  0  1  0  0  0  0  0  0
  185.9150  178.0460  145.5570 C   0  0  0  0  0  1  0  0  0  0  0  0
  186.9210  177.6320  146.6130 C   0  0  0  0  0  2  0  0  0  0  0  0
  1 15  1  0  0  0  0
  1 18  1  1  0  0  0
  2 10  1  0  0  0  0
  3 13  1  0  0  0  0
  4  8  1  0  0  0  0
  5  6  2  0  0  0  0
  6  4  1  0  0  0  0
  7  3  2  0  0  0  0
  8  7  1  6  0  0  0
  8  1  1  0  0  0  0
  9  6  1  0  0  0  0
  9  7  1  0  0  0  0
 10 11  1  0  0  0  0
 11 12  2  0  0  0  0
 11 16  1  0  0  0  0
 13  2  2  0  0  0  0
 13 15  1  0  0  0  0
 14 12  1  0  0  0  0
 15 14  2  0  0  0  0
 17 16  1  0  0  0  0
 18 19  1  0  0  0  0
 19 25  1  0  0  0  0
 20 22  1  0  0  0  0
 21 22  1  0  0  0  0
 22 27  1  1  0  0  0
 24 21  1  0  0  0  0
 25 26  1  0  0  0  0
 25 23  1  1  0  0  0
 25 24  1  0  0  0  0
 26 20  1  0  0  0  0
 27 34  1  1  0  0  0
 27 28  1  0  0  0  0
 28 30  1  0  0  0  0
 28 29  1  1  0  0  0
 30 32  1  0  0  0  0
 31 30  2  0  0  0  0
 33 34  1  0  0  0  0
M  END
>  <MODEL>
2

>  <REMARK>
 VINA RESULT:      -7.6      1.401      1.576
  Name = 
  8 active torsions:
  status: ('A' for Active; 'I' for Inactive)
    1  A    between atoms: C_1  and  N_9
    2  A    between atoms: N_3  and  C_25
    3  A    between atoms: C_7  and  C_11
    4  A    between atoms: C_7  and  C_14
    5  A    between atoms: C_8  and  N_9
    6  A    between atoms: C_8  and  C_30
    7  A    between atoms: C_14  and  C_16
    8  A    between atoms: C_14  and  C_29
                            x       y       z     vdW  Elec       q    Type
                         _______ _______ _______ _____ _____    ______ ____

>  <TORSDO>
F 8

$$$$
=
 OpenBabel11052415443D

 34 37  0  0  1  0  0  0  0  0999 V2000
  187.2770  178.2290  140.2380 C   0  0  1  0  0  3  0  0  0  0  0  0
  183.6040  178.4210  140.6420 C   0  0  0  0  0  3  0  0  0  0  0  0
  184.8980  178.1610  138.7180 N   0  0  0  0  0  0  0  0  0  0  0  0
  188.6720  178.1790  137.8280 S   0  0  0  0  0  0  0  0  0  0  0  0
  187.6060  179.9530  136.1950 O   0  0  0  0  0  0  0  0  0  0  0  0
  187.5250  178.8110  136.6160 C   0  0  0  0  0  0  0  0  0  0  0  0
  185.9900  177.8210  138.1140 C   0  0  0  0  0  0  0  0  0  0  0  0
  187.2710  177.5970  138.8650 C   0  0  2  0  0  3  0  0  0  0  0  0
  186.0820  177.8210  136.3360 S   0  0  0  0  0  0  0  0  0  0  0  0
  183.1230  178.6160  142.0110 C   0  0  0  0  0  2  0  0  0  0  0  0
  183.7910  178.8790  143.1270 C   0  0  0  0  0  0  0  0  0  0  0  0
  185.2430  179.0580  143.2250 C   0  0  0  0  0  3  0  0  0  0  0  0
  184.8320  178.3480  140.1340 C   0  0  0  0  0  0  0  0  0  0  0  0
  186.1880  178.8890  142.3090 C   0  0  0  0  0  3  0  0  0  0  0  0
  186.1110  178.4770  140.8950 C   0  0  0  0  0  0  0  0  0  0  0  0
  183.0180  179.0290  144.3180 N   0  0  0  0  0  2  0  0  0  0  0  0
  183.6030  179.1270  145.5360 O   0  0  0  0  0  1  0  0  0  0  0  0
  188.5600  178.3550  140.8750 N   0  0  0  0  0  2  0  0  0  0  0  0
  189.4680  177.2440  141.1400 C   0  0  0  0  0  2  0  0  0  0  0  0
  190.0160  178.8160  144.4550 C   0  0  0  0  0  2  0  0  0  0  0  0
  188.4500  176.8220  144.3020 C   0  0  0  0  0  2  0  0  0  0  0  0
  188.8930  178.0270  145.1500 C   0  0  1  0  0  3  0  0  0  0  0  0
  191.6430  177.2010  142.3440 C   0  0  0  0  0  1  0  0  0  0  0  0
  189.6020  176.2940  143.4530 C   0  0  0  0  0  2  0  0  0  0  0  0
  190.1410  177.3840  142.5030 C   0  0  2  0  0  0  0  0  0  0  0  0
  189.8730  178.7460  143.0000 N   0  0  0  0  0  2  0  0  0  0  0  0
  189.3210  177.6030  146.5670 C   0  0  1  0  0  3  0  0  0  0  0  0
  188.1070  177.4210  147.4940 C   0  0  1  0  0  3  0  0  0  0  0  0
  188.3530  177.9150  148.9150 C   0  0  0  0  0  1  0  0  0  0  0  0
  186.8640  178.0160  146.9110 C   0  0  0  0  0  0  0  0  0  0  0  0
  186.0230  177.2240  146.1420 O   0  0  0  0  0  0  0  0  0  0  0  0
  186.5890  179.2340  147.0840 O   0  0  0  0  0  1  0  0  0  0  0  0
  191.4660  176.5890  147.3380 C   0  0  0  0  0  1  0  0  0  0  0  0
  190.1960  176.3480  146.5450 C   0  0  0  0  0  2  0  0  0  0  0  0
  1 18  1  1  0  0  0
  1 15  1  0  0  0  0
  2 10  1  0  0  0  0
  3 13  1  0  0  0  0
  5  6  2  0  0  0  0
  6  4  1  0  0  0  0
  7  3  2  0  0  0  0
  7  8  1  0  0  0  0
  8  4  1  6  0  0  0
  8  1  1  0  0  0  0
  9  6  1  0  0  0  0
  9  7  1  0  0  0  0
 10 11  1  0  0  0  0
 11 12  2  0  0  0  0
 11 16  1  0  0  0  0
 13  2  2  0  0  0  0
 13 15  1  0  0  0  0
 14 12  1  0  0  0  0
 15 14  2  0  0  0  0
 16 17  1  0  0  0  0
 18 19  1  0  0  0  0
 19 25  1  0  0  0  0
 20 22  1  0  0  0  0
 21 22  1  0  0  0  0
 22 27  1  1  0  0  0
 24 21  1  0  0  0  0
 25 23  1  6  0  0  0
 25 26  1  0  0  0  0
 25 24  1  0  0  0  0
 26 20  1  0  0  0  0
 27 34  1  6  0  0  0
 27 28  1  0  0  0  0
 28 29  1  1  0  0  0
 30 32  1  0  0  0  0
 30 28  1  0  0  0  0
 31 30  2  0  0  0  0
 34 33  1  0  0  0  0
M  END
>  <MODEL>
3

>  <REMARK>
 VINA RESULT:      -7.5      1.578      2.052
  Name = 
  8 active torsions:
  status: ('A' for Active; 'I' for Inactive)
    1  A    between atoms: C_1  and  N_9
    2  A    between atoms: N_3  and  C_25
    3  A    between atoms: C_7  and  C_11
    4  A    between atoms: C_7  and  C_14
    5  A    between atoms: C_8  and  N_9
    6  A    between atoms: C_8  and  C_30
    7  A    between atoms: C_14  and  C_16
    8  A    between atoms: C_14  and  C_29
                            x       y       z     vdW  Elec       q    Type
                         _______ _______ _______ _____ _____    ______ ____

>  <TORSDO>
F 8

$$$$
=
 OpenBabel11052415443D

 34 37  0  0  1  0  0  0  0  0999 V2000
  190.1340  177.3630  138.2100 C   0  0  1  0  0  3  0  0  0  0  0  0
  192.0930  175.8990  135.4330 C   0  0  0  0  0  3  0  0  0  0  0  0
  189.8720  176.6100  135.5010 N   0  0  0  0  0  0  0  0  0  0  0  0
  187.4040  177.9170  138.1910 S   0  0  0  0  0  0  0  0  0  0  0  0
  186.1370  175.8970  137.0670 O   0  0  0  0  0  0  0  0  0  0  0  0
  186.7420  176.9340  136.8560 C   0  0  0  0  0  0  0  0  0  0  0  0
  188.9130  177.3140  136.0090 C   0  0  0  0  0  0  0  0  0  0  0  0
  189.0410  177.9650  137.3560 C   0  0  2  0  0  3  0  0  0  0  0  0
  187.3120  177.3620  135.2340 S   0  0  0  0  0  0  0  0  0  0  0  0
  193.4760  175.5360  135.7500 C   0  0  0  0  0  3  0  0  0  0  0  0
  194.1120  175.5130  136.9150 C   0  0  0  0  0  0  0  0  0  0  0  0
  193.5200  175.8520  138.2130 C   0  0  0  0  0  3  0  0  0  0  0  0
  191.1120  176.4000  136.1810 C   0  0  1  0  0  3  0  0  0  0  0  0
  192.3240  176.3470  138.5030 C   0  0  0  0  0  3  0  0  0  0  0  0
  191.1880  176.7180  137.6380 C   0  0  0  0  0  0  0  0  0  0  0  0
  195.4760  175.0940  136.8920 N   0  0  0  0  0  2  0  0  0  0  0  0
  196.4270  175.8070  136.2430 O   0  0  0  0  0  1  0  0  0  0  0  0
  190.0990  177.6870  139.6110 N   0  0  0  0  0  2  0  0  0  0  0  0
  189.1920  177.0810  140.5800 C   0  0  0  0  0  2  0  0  0  0  0  0
  189.3560  178.4460  144.0250 C   0  0  0  0  0  2  0  0  0  0  0  0
  187.9770  176.3540  143.6140 C   0  0  0  0  0  2  0  0  0  0  0  0
  188.2530  177.5250  144.5730 C   0  0  1  0  0  3  0  0  0  0  0  0
  191.2660  177.1200  141.9510 C   0  0  0  0  0  1  0  0  0  0  0  0
  189.2300  175.9790  142.8280 C   0  0  0  0  0  2  0  0  0  0  0  0
  189.7470  177.1740  141.9990 C   0  0  2  0  0  0  0  0  0  0  0  0
  189.3300  178.4710  142.5620 N   0  0  0  0  0  2  0  0  0  0  0  0
  188.6070  177.0340  145.9890 C   0  0  1  0  0  3  0  0  0  0  0  0
  189.9350  177.6370  146.4810 C   0  0  1  0  0  3  0  0  0  0  0  0
  189.8310  178.2780  147.8600 C   0  0  0  0  0  1  0  0  0  0  0  0
  191.0560  176.6490  146.4130 C   0  0  0  0  0  0  0  0  0  0  0  0
  191.3570  175.8800  147.5280 O   0  0  0  0  0  1  0  0  0  0  0  0
  191.7480  176.5290  145.3670 O   0  0  0  0  0  0  0  0  0  0  0  0
  186.4040  178.1550  146.3300 C   0  0  0  0  0  1  0  0  0  0  0  0
  187.4740  177.3000  146.9820 C   0  0  0  0  0  2  0  0  0  0  0  0
  1 18  1  6  0  0  0
  2 10  2  0  0  0  0
  3  7  2  0  0  0  0
  3 13  1  0  0  0  0
  6  5  2  0  0  0  0
  6  4  1  0  0  0  0
  8  7  1  6  0  0  0
  8  4  1  0  0  0  0
  8  1  1  0  0  0  0
  9  7  1  0  0  0  0
  9  6  1  0  0  0  0
 10 11  1  0  0  0  0
 11 12  2  0  0  0  0
 12 14  1  0  0  0  0
 13  2  1  1  0  0  0
 13 15  1  0  0  0  0
 15  1  1  0  0  0  0
 15 14  2  0  0  0  0
 16 11  1  0  0  0  0
 17 16  1  0  0  0  0
 18 19  1  0  0  0  0
 19 25  1  0  0  0  0
 20 22  1  0  0  0  0
 21 22  1  0  0  0  0
 22 27  1  1  0  0  0
 24 21  1  0  0  0  0
 25 23  1  6  0  0  0
 25 26  1  0  0  0  0
 25 24  1  0  0  0  0
 26 20  1  0  0  0  0
 27 28  1  0  0  0  0
 27 34  1  1  0  0  0
 28 29  1  1  0  0  0
 30 28  1  0  0  0  0
 30 31  1  0  0  0  0
 32 30  2  0  0  0  0
 33 34  1  0  0  0  0
M  END
>  <MODEL>
4

>  <REMARK>
 VINA RESULT:      -7.3      3.675      6.194
  Name = 
  8 active torsions:
  status: ('A' for Active; 'I' for Inactive)
    1  A    between atoms: C_1  and  N_9
    2  A    between atoms: N_3  and  C_25
    3  A    between atoms: C_7  and  C_11
    4  A    between atoms: C_7  and  C_14
    5  A    between atoms: C_8  and  N_9
    6  A    between atoms: C_8  and  C_30
    7  A    between atoms: C_14  and  C_16
    8  A    between atoms: C_14  and  C_29
                            x       y       z     vdW  Elec       q    Type
                         _______ _______ _______ _____ _____    ______ ____

>  <TORSDO>
F 8

$$$$
=
 OpenBabel11052415443D

 34 37  0  0  1  0  0  0  0  0999 V2000
  190.3580  176.3610  138.9190 C   0  0  1  0  0  3  0  0  0  0  0  0
  187.9410  177.6010  136.4060 C   0  0  0  0  0  3  0  0  0  0  0  0
  190.0590  176.6600  136.1270 N   0  0  0  0  0  0  0  0  0  0  0  0
  192.9620  175.5040  138.4240 S   0  0  0  0  0  0  0  0  0  0  0  0
  194.0940  177.1750  136.7270 O   0  0  0  0  0  0  0  0  0  0  0  0
  193.3790  176.1920  136.8300 C   0  0  0  0  0  0  0  0  0  0  0  0
  191.0500  175.9370  136.5370 C   0  0  0  0  0  0  0  0  0  0  0  0
  191.1800  175.5160  137.9730 C   0  0  2  0  0  3  0  0  0  0  0  0
  192.4260  175.5910  135.4620 S   0  0  0  0  0  0  0  0  0  0  0  0
  186.6980  178.1610  136.9400 C   0  0  0  0  0  3  0  0  0  0  0  0
  186.3450  178.4320  138.1900 C   0  0  0  0  0  0  0  0  0  0  0  0
  187.1880  178.2290  139.3730 C   0  0  0  0  0  3  0  0  0  0  0  0
  189.0240  177.1110  137.0060 C   0  0  1  0  0  3  0  0  0  0  0  0
  188.3760  177.6510  139.4860 C   0  0  0  0  0  3  0  0  0  0  0  0
  189.2550  177.0270  138.4790 C   0  0  0  0  0  0  0  0  0  0  0  0
  185.0480  178.9960  138.3830 N   0  0  0  0  0  2  0  0  0  0  0  0
  184.7910  179.8530  139.4000 O   0  0  0  0  0  1  0  0  0  0  0  0
  190.6830  176.2510  140.3160 N   0  0  0  0  0  2  0  0  0  0  0  0
  191.1680  177.3500  141.1440 C   0  0  0  0  0  2  0  0  0  0  0  0
  189.8410  178.3760  144.4520 C   0  0  0  0  0  2  0  0  0  0  0  0
  188.3040  177.1240  142.8650 C   0  0  0  0  0  2  0  0  0  0  0  0
  188.3840  178.0160  144.1150 C   0  0  1  0  0  3  0  0  0  0  0  0
  191.9770  176.4200  143.3030 C   0  0  0  0  0  1  0  0  0  0  0  0
  189.5570  176.2640  142.7220 C   0  0  0  0  0  2  0  0  0  0  0  0
  190.8250  177.1360  142.6160 C   0  0  2  0  0  0  0  0  0  0  0  0
  190.6470  178.4630  143.2340 N   0  0  0  0  0  2  0  0  0  0  0  0
  187.6880  177.3680  145.3260 C   0  0  1  0  0  3  0  0  0  0  0  0
  187.9170  178.1830  146.6120 C   0  0  1  0  0  3  0  0  0  0  0  0
  186.6280  178.7260  147.2180 C   0  0  0  0  0  1  0  0  0  0  0  0
  188.7240  177.4240  147.6170 C   0  0  0  0  0  0  0  0  0  0  0  0
  189.5340  176.3790  147.1950 O   0  0  0  0  0  0  0  0  0  0  0  0
  188.6540  177.7030  148.8440 O   0  0  0  0  0  1  0  0  0  0  0  0
  185.6450  178.2540  144.2010 C   0  0  0  0  0  1  0  0  0  0  0  0
  186.1970  177.1410  145.0700 C   0  0  0  0  0  2  0  0  0  0  0  0
  1 18  1  1  0  0  0
  2 10  2  0  0  0  0
  3  7  2  0  0  0  0
  3 13  1  0  0  0  0
  5  6  2  0  0  0  0
  6  4  1  0  0  0  0
  8  7  1  6  0  0  0
  8  4  1  0  0  0  0
  8  1  1  0  0  0  0
  9  7  1  0  0  0  0
  9  6  1  0  0  0  0
 10 11  1  0  0  0  0
 11 16  1  0  0  0  0
 11 12  2  0  0  0  0
 12 14  1  0  0  0  0
 13  2  1  6  0  0  0
 13 15  1  0  0  0  0
 15  1  1  0  0  0  0
 15 14  2  0  0  0  0
 16 17  1  0  0  0  0
 18 19  1  0  0  0  0
 19 25  1  0  0  0  0
 21 22  1  0  0  0  0
 22 20  1  0  0  0  0
 22 27  1  1  0  0  0
 24 21  1  0  0  0  0
 25 24  1  0  0  0  0
 25 26  1  0  0  0  0
 25 23  1  1  0  0  0
 26 20  1  0  0  0  0
 27 34  1  6  0  0  0
 27 28  1  0  0  0  0
 28 29  1  1  0  0  0
 28 30  1  0  0  0  0
 30 32  1  0  0  0  0
 31 30  2  0  0  0  0
 33 34  1  0  0  0  0
M  END
>  <MODEL>
5

>  <REMARK>
 VINA RESULT:      -7.2      2.969      4.377
  Name = 
  8 active torsions:
  status: ('A' for Active; 'I' for Inactive)
    1  A    between atoms: C_1  and  N_9
    2  A    between atoms: N_3  and  C_25
    3  A    between atoms: C_7  and  C_11
    4  A    between atoms: C_7  and  C_14
    5  A    between atoms: C_8  and  N_9
    6  A    between atoms: C_8  and  C_30
    7  A    between atoms: C_14  and  C_16
    8  A    between atoms: C_14  and  C_29
                            x       y       z     vdW  Elec       q    Type
                         _______ _______ _______ _____ _____    ______ ____

>  <TORSDO>
F 8

$$$$
=
 OpenBabel11052415443D

 34 37  0  0  1  0  0  0  0  0999 V2000
  187.6940  177.4890  143.6350 C   0  0  1  0  0  3  0  0  0  0  0  0
  188.7250  177.3230  147.1850 C   0  0  0  0  0  3  0  0  0  0  0  0
  186.6800  177.9230  146.2340 N   0  0  0  0  0  0  0  0  0  0  0  0
  185.2800  178.4810  142.6610 S   0  0  0  0  0  0  0  0  0  0  0  0
  184.6990  180.7080  143.9480 O   0  0  0  0  0  0  0  0  0  0  0  0
  184.6290  179.4910  143.9820 C   0  0  0  0  0  0  0  0  0  0  0  0
  185.8240  177.9090  145.2650 C   0  0  0  0  0  0  0  0  0  0  0  0
  186.2030  177.4630  143.8820 C   0  0  2  0  0  3  0  0  0  0  0  0
  184.2080  178.6280  145.4710 S   0  0  0  0  0  0  0  0  0  0  0  0
  190.1140  176.9280  147.4270 C   0  0  0  0  0  2  0  0  0  0  0  0
  191.1180  176.7520  146.5770 C   0  0  0  0  0  0  0  0  0  0  0  0
  191.0450  176.9460  145.1250 C   0  0  0  0  0  3  0  0  0  0  0  0
  188.0420  177.5210  146.0590 C   0  0  0  0  0  0  0  0  0  0  0  0
  190.0010  177.2060  144.3490 C   0  0  0  0  0  3  0  0  0  0  0  0
  188.5730  177.3950  144.6700 C   0  0  0  0  0  0  0  0  0  0  0  0
  192.3740  176.3710  147.1380 N   0  0  0  0  0  2  0  0  0  0  0  0
  192.6550  176.5680  148.4480 O   0  0  0  0  0  1  0  0  0  0  0  0
  188.1130  177.4110  142.2610 N   0  0  0  0  0  2  0  0  0  0  0  0
  188.3140  178.5630  141.3880 C   0  0  0  0  0  2  0  0  0  0  0  0
  189.4370  178.6190  137.8530 C   0  0  0  0  0  2  0  0  0  0  0  0
  190.2720  176.7530  139.3610 C   0  0  0  0  0  2  0  0  0  0  0  0
  190.4940  177.5170  138.0450 C   0  0  1  0  0  3  0  0  0  0  0  0
  186.7960  178.1980  139.4520 C   0  0  0  0  0  1  0  0  0  0  0  0
  188.7950  176.7360  139.7450 C   0  0  0  0  0  2  0  0  0  0  0  0
  188.2450  178.1670  139.9150 C   0  0  2  0  0  0  0  0  0  0  0  0
  189.0160  179.1610  139.1460 N   0  0  0  0  0  2  0  0  0  0  0  0
  190.5190  176.5700  136.8310 C   0  0  1  0  0  3  0  0  0  0  0  0
  190.9610  175.1500  137.2300 C   0  0  1  0  0  3  0  0  0  0  0  0
  189.9920  174.0670  136.7730 C   0  0  0  0  0  1  0  0  0  0  0  0
  192.3620  174.8590  136.7940 C   0  0  0  0  0  0  0  0  0  0  0  0
  193.1810  174.0820  137.6010 O   0  0  0  0  0  1  0  0  0  0  0  0
  192.8150  175.3340  135.7180 O   0  0  0  0  0  0  0  0  0  0  0  0
  189.3670  176.9770  134.6570 C   0  0  0  0  0  1  0  0  0  0  0  0
  189.1760  176.5480  136.0990 C   0  0  0  0  0  2  0  0  0  0  0  0
  1 18  1  6  0  0  0
  1  8  1  0  0  0  0
  1 15  1  0  0  0  0
  2 10  1  0  0  0  0
  4  6  1  0  0  0  0
  5  6  2  0  0  0  0
  6  9  1  0  0  0  0
  7  9  1  0  0  0  0
  7  3  2  0  0  0  0
  8  4  1  6  0  0  0
  8  7  1  0  0  0  0
 11 16  1  0  0  0  0
 11 10  1  0  0  0  0
 12 11  2  0  0  0  0
 13  3  1  0  0  0  0
 13  2  2  0  0  0  0
 14 15  2  0  0  0  0
 14 12  1  0  0  0  0
 15 13  1  0  0  0  0
 16 17  1  0  0  0  0
 19 18  1  0  0  0  0
 20 22  1  0  0  0  0
 20 26  1  0  0  0  0
 21 24  1  0  0  0  0
 22 27  1  6  0  0  0
 22 21  1  0  0  0  0
 24 25  1  0  0  0  0
 25 23  1  6  0  0  0
 25 19  1  0  0  0  0
 26 25  1  0  0  0  0
 27 34  1  1  0  0  0
 27 28  1  0  0  0  0
 28 29  1  6  0  0  0
 30 28  1  0  0  0  0
 30 31  1  0  0  0  0
 32 30  2  0  0  0  0
 33 34  1  0  0  0  0
M  END
>  <MODEL>
6

>  <REMARK>
 VINA RESULT:      -7.2      3.652      7.835
  Name = 
  8 active torsions:
  status: ('A' for Active; 'I' for Inactive)
    1  A    between atoms: C_1  and  N_9
    2  A    between atoms: N_3  and  C_25
    3  A    between atoms: C_7  and  C_11
    4  A    between atoms: C_7  and  C_14
    5  A    between atoms: C_8  and  N_9
    6  A    between atoms: C_8  and  C_30
    7  A    between atoms: C_14  and  C_16
    8  A    between atoms: C_14  and  C_29
                            x       y       z     vdW  Elec       q    Type
                         _______ _______ _______ _____ _____    ______ ____

>  <TORSDO>
F 8

$$$$
=
 OpenBabel11052415443D

 34 37  0  0  1  0  0  0  0  0999 V2000
  188.4610  177.7320  142.7490 C   0  0  1  0  0  3  0  0  0  0  0  0
  186.8180  178.3150  146.0140 C   0  0  0  0  0  3  0  0  0  0  0  0
  189.0280  177.7570  145.5150 N   0  0  0  0  0  0  0  0  0  0  0  0
  191.0600  176.8140  142.3500 S   0  0  0  0  0  0  0  0  0  0  0  0
  191.5320  174.8470  144.0420 O   0  0  0  0  0  0  0  0  0  0  0  0
  191.5260  176.0580  143.8990 C   0  0  0  0  0  0  0  0  0  0  0  0
  190.0380  177.7030  144.7100 C   0  0  0  0  0  0  0  0  0  0  0  0
  189.8820  177.9150  143.2320 C   0  0  2  0  0  3  0  0  0  0  0  0
  191.6310  177.1560  145.2870 S   0  0  0  0  0  0  0  0  0  0  0  0
  185.3880  178.6260  145.9610 C   0  0  0  0  0  2  0  0  0  0  0  0
  184.5390  178.5970  144.9410 C   0  0  0  0  0  0  0  0  0  0  0  0
  184.8750  178.2050  143.5680 C   0  0  0  0  0  3  0  0  0  0  0  0
  187.6970  178.0170  145.0600 C   0  0  0  0  0  0  0  0  0  0  0  0
  186.0520  177.9240  143.0230 C   0  0  0  0  0  3  0  0  0  0  0  0
  187.4100  177.9000  143.5990 C   0  0  0  0  0  0  0  0  0  0  0  0
  183.1850  178.9480  145.2220 N   0  0  0  0  0  2  0  0  0  0  0  0
  182.1920  178.7150  144.3310 O   0  0  0  0  0  1  0  0  0  0  0  0
  188.2850  177.5800  141.3300 N   0  0  0  0  0  2  0  0  0  0  0  0
  188.3400  178.6740  140.3660 C   0  0  0  0  0  2  0  0  0  0  0  0
  189.2580  178.3240  136.7890 C   0  0  0  0  0  2  0  0  0  0  0  0
  189.9820  176.5080  138.4090 C   0  0  0  0  0  2  0  0  0  0  0  0
  190.2050  177.1350  137.0230 C   0  0  1  0  0  3  0  0  0  0  0  0
  186.6840  178.3200  138.5450 C   0  0  0  0  0  1  0  0  0  0  0  0
  188.5350  176.6800  138.8650 C   0  0  0  0  0  2  0  0  0  0  0  0
  188.1460  178.1710  138.9370 C   0  0  2  0  0  0  0  0  0  0  0  0
  188.9700  179.0110  138.0490 N   0  0  0  0  0  2  0  0  0  0  0  0
  190.0630  176.0960  135.8950 C   0  0  1  0  0  3  0  0  0  0  0  0
  191.3800  175.3360  135.6570 C   0  0  1  0  0  3  0  0  0  0  0  0
  192.6120  176.1040  136.1210 C   0  0  0  0  0  1  0  0  0  0  0  0
  191.3410  173.9560  136.2330 C   0  0  0  0  0  0  0  0  0  0  0  0
  191.6070  173.7700  137.5830 O   0  0  0  0  0  1  0  0  0  0  0  0
  191.0970  172.9580  135.5030 O   0  0  0  0  0  0  0  0  0  0  0  0
  187.7510  175.4460  135.2210 C   0  0  0  0  0  1  0  0  0  0  0  0
  188.9040  175.1310  136.1530 C   0  0  0  0  0  2  0  0  0  0  0  0
  1 18  1  6  0  0  0
  1  8  1  0  0  0  0
  1 15  1  0  0  0  0
  4  6  1  0  0  0  0
  6  5  2  0  0  0  0
  6  9  1  0  0  0  0
  7  9  1  0  0  0  0
  7  3  2  0  0  0  0
  8  4  1  6  0  0  0
  8  7  1  0  0  0  0
 10  2  1  0  0  0  0
 11 16  1  0  0  0  0
 11 10  1  0  0  0  0
 12 11  2  0  0  0  0
 13  3  1  0  0  0  0
 13  2  2  0  0  0  0
 14 12  1  0  0  0  0
 14 15  2  0  0  0  0
 15 13  1  0  0  0  0
 17 16  1  0  0  0  0
 19 18  1  0  0  0  0
 20 22  1  0  0  0  0
 20 26  1  0  0  0  0
 21 24  1  0  0  0  0
 22 27  1  6  0  0  0
 22 21  1  0  0  0  0
 24 25  1  0  0  0  0
 25 23  1  6  0  0  0
 25 19  1  0  0  0  0
 26 25  1  0  0  0  0
 27 34  1  1  0  0  0
 28 27  1  0  0  0  0
 28 29  1  1  0  0  0
 28 30  1  0  0  0  0
 30 31  1  0  0  0  0
 32 30  2  0  0  0  0
 33 34  1  0  0  0  0
M  END
>  <MODEL>
7

>  <REMARK>
 VINA RESULT:      -7.0      3.624      7.439
  Name = 
  8 active torsions:
  status: ('A' for Active; 'I' for Inactive)
    1  A    between atoms: C_1  and  N_9
    2  A    between atoms: N_3  and  C_25
    3  A    between atoms: C_7  and  C_11
    4  A    between atoms: C_7  and  C_14
    5  A    between atoms: C_8  and  N_9
    6  A    between atoms: C_8  and  C_30
    7  A    between atoms: C_14  and  C_16
    8  A    between atoms: C_14  and  C_29
                            x       y       z     vdW  Elec       q    Type
                         _______ _______ _______ _____ _____    ______ ____

>  <TORSDO>
F 8

$$$$
=
 OpenBabel11052415443D

 34 37  0  0  1  0  0  0  0  0999 V2000
  182.5700  178.7610  141.3780 C   0  0  1  0  0  3  0  0  0  0  0  0
  183.7790  177.9040  137.9870 C   0  0  0  0  0  3  0  0  0  0  0  0
  181.6450  177.7370  138.9140 N   0  0  0  0  0  0  0  0  0  0  0  0
  180.0310  178.2520  142.4030 S   0  0  0  0  0  0  0  0  0  0  0  0
  179.3060  175.8170  141.6990 O   0  0  0  0  0  0  0  0  0  0  0  0
  179.3520  176.9830  141.3470 C   0  0  0  0  0  0  0  0  0  0  0  0
  180.7480  178.0730  139.7840 C   0  0  0  0  0  0  0  0  0  0  0  0
  181.1020  178.8360  141.0280 C   0  0  2  0  0  3  0  0  0  0  0  0
  179.0850  177.4530  139.6590 S   0  0  0  0  0  0  0  0  0  0  0  0
  185.2090  178.1120  137.7490 C   0  0  0  0  0  3  0  0  0  0  0  0
  186.1840  178.4280  138.5920 C   0  0  0  0  0  0  0  0  0  0  0  0
  186.0240  178.6290  140.0360 C   0  0  0  0  0  3  0  0  0  0  0  0
  183.0280  178.0640  139.0740 C   0  0  1  0  0  3  0  0  0  0  0  0
  184.9250  178.6650  140.7780 C   0  0  0  0  0  3  0  0  0  0  0  0
  183.5030  178.5100  140.4180 C   0  0  0  0  0  0  0  0  0  0  0  0
  187.4950  178.5480  138.0420 N   0  0  0  0  0  2  0  0  0  0  0  0
  187.7100  179.1420  136.8440 O   0  0  0  0  0  1  0  0  0  0  0  0
  182.9290  179.1660  142.7100 N   0  0  0  0  0  2  0  0  0  0  0  0
  183.4750  178.2760  143.7300 C   0  0  0  0  0  2  0  0  0  0  0  0
  186.0120  178.6240  146.4130 C   0  0  0  0  0  2  0  0  0  0  0  0
  186.4990  177.0480  144.4820 C   0  0  0  0  0  2  0  0  0  0  0  0
  186.8730  177.4490  145.9190 C   0  0  1  0  0  3  0  0  0  0  0  0
  184.7500  180.3670  144.1600 C   0  0  0  0  0  1  0  0  0  0  0  0
  185.9780  178.2480  143.6950 C   0  0  0  0  0  2  0  0  0  0  0  0
  184.7330  178.8600  144.3680 C   0  0  2  0  0  0  0  0  0  0  0  0
  184.6770  178.5750  145.8130 N   0  0  0  0  0  2  0  0  0  0  0  0
  188.3710  177.7790  146.0500 C   0  0  1  0  0  3  0  0  0  0  0  0
  188.9900  177.1150  147.2920 C   0  0  1  0  0  3  0  0  0  0  0  0
  190.3670  176.5140  147.0320 C   0  0  0  0  0  1  0  0  0  0  0  0
  189.0040  178.0370  148.4700 C   0  0  0  0  0  0  0  0  0  0  0  0
  190.1940  178.6420  148.8510 O   0  0  0  0  0  0  0  0  0  0  0  0
  187.9560  178.2460  149.1380 O   0  0  0  0  0  1  0  0  0  0  0  0
  189.9020  178.6280  144.2720 C   0  0  0  0  0  1  0  0  0  0  0  0
  189.1460  177.4160  144.7810 C   0  0  0  0  0  2  0  0  0  0  0  0
  1 18  1  6  0  0  0
  3 13  1  0  0  0  0
  3  7  2  0  0  0  0
  6  5  2  0  0  0  0
  6  4  1  0  0  0  0
  8  7  1  6  0  0  0
  8  1  1  0  0  0  0
  8  4  1  0  0  0  0
  9  7  1  0  0  0  0
  9  6  1  0  0  0  0
 10  2  2  0  0  0  0
 10 11  1  0  0  0  0
 11 12  2  0  0  0  0
 12 14  1  0  0  0  0
 13  2  1  1  0  0  0
 13 15  1  0  0  0  0
 15 14  2  0  0  0  0
 15  1  1  0  0  0  0
 16 11  1  0  0  0  0
 17 16  1  0  0  0  0
 18 19  1  0  0  0  0
 19 25  1  0  0  0  0
 21 22  1  0  0  0  0
 22 27  1  6  0  0  0
 22 20  1  0  0  0  0
 24 25  1  0  0  0  0
 24 21  1  0  0  0  0
 25 23  1  6  0  0  0
 25 26  1  0  0  0  0
 26 20  1  0  0  0  0
 27 34  1  6  0  0  0
 27 28  1  0  0  0  0
 28 29  1  6  0  0  0
 28 30  1  0  0  0  0
 30 31  2  0  0  0  0
 30 32  1  0  0  0  0
 33 34  1  0  0  0  0
M  END
>  <MODEL>
8

>  <REMARK>
 VINA RESULT:      -6.9      3.091      5.557
  Name = 
  8 active torsions:
  status: ('A' for Active; 'I' for Inactive)
    1  A    between atoms: C_1  and  N_9
    2  A    between atoms: N_3  and  C_25
    3  A    between atoms: C_7  and  C_11
    4  A    between atoms: C_7  and  C_14
    5  A    between atoms: C_8  and  N_9
    6  A    between atoms: C_8  and  C_30
    7  A    between atoms: C_14  and  C_16
    8  A    between atoms: C_14  and  C_29
                            x       y       z     vdW  Elec       q    Type
                         _______ _______ _______ _____ _____    ______ ____

>  <TORSDO>
F 8

$$$$
=
 OpenBabel11052415443D

 34 37  0  0  1  0  0  0  0  0999 V2000
  187.3980  178.4270  140.6380 C   0  0  1  0  0  3  0  0  0  0  0  0
  188.6680  177.2130  143.8950 C   0  0  0  0  0  3  0  0  0  0  0  0
  189.6150  177.0910  141.7660 N   0  0  0  0  0  0  0  0  0  0  0  0
  188.5440  177.9640  138.1420 S   0  0  0  0  0  0  0  0  0  0  0  0
  189.2990  175.4410  138.0120 O   0  0  0  0  0  0  0  0  0  0  0  0
  189.6190  176.5580  138.3810 C   0  0  0  0  0  0  0  0  0  0  0  0
  189.7350  177.4990  140.5440 C   0  0  0  0  0  0  0  0  0  0  0  0
  188.7250  178.4150  139.9150 C   0  0  2  0  0  3  0  0  0  0  0  0
  190.9860  176.8170  139.4780 S   0  0  0  0  0  0  0  0  0  0  0  0
  187.7890  177.4360  145.0450 C   0  0  0  0  0  2  0  0  0  0  0  0
  186.5390  177.8800  145.0980 C   0  0  0  0  0  0  0  0  0  0  0  0
  185.7190  178.2460  143.9390 C   0  0  0  0  0  3  0  0  0  0  0  0
  188.5180  177.4770  142.5980 C   0  0  0  0  0  0  0  0  0  0  0  0
  186.0440  178.3350  142.6560 C   0  0  0  0  0  3  0  0  0  0  0  0
  187.3200  178.0940  141.9560 C   0  0  0  0  0  0  0  0  0  0  0  0
  185.9470  177.9740  146.3930 N   0  0  0  0  0  2  0  0  0  0  0  0
  184.7180  178.5150  146.5730 O   0  0  0  0  0  1  0  0  0  0  0  0
  186.2880  178.9990  139.9230 N   0  0  0  0  0  2  0  0  0  0  0  0
  185.4050  178.2550  139.0310 C   0  0  0  0  0  2  0  0  0  0  0  0
  181.7310  177.8160  138.7750 C   0  0  0  0  0  2  0  0  0  0  0  0
  182.8650  177.2780  140.9830 C   0  0  0  0  0  2  0  0  0  0  0  0
  181.6010  177.0920  140.1270 C   0  0  1  0  0  3  0  0  0  0  0  0
  183.8090  180.1360  138.7220 C   0  0  0  0  0  1  0  0  0  0  0  0
  183.5490  178.6070  140.6740 C   0  0  0  0  0  2  0  0  0  0  0  0
  183.9520  178.6950  139.1870 C   0  0  2  0  0  0  0  0  0  0  0  0
  183.1240  177.8290  138.3280 N   0  0  0  0  0  2  0  0  0  0  0  0
  180.3340  177.5510  140.8710 C   0  0  1  0  0  3  0  0  0  0  0  0
  180.1920  179.0830  140.8560 C   0  0  1  0  0  3  0  0  0  0  0  0
  178.9450  179.5670  140.1270 C   0  0  0  0  0  1  0  0  0  0  0  0
  180.2890  179.6660  142.2310 C   0  0  0  0  0  0  0  0  0  0  0  0
  179.6970  180.8920  142.4970 O   0  0  0  0  0  0  0  0  0  0  0  0
  180.9270  179.0700  143.1410 O   0  0  0  0  0  1  0  0  0  0  0  0
  179.3300  175.3890  140.1330 C   0  0  0  0  0  1  0  0  0  0  0  0
  179.0760  176.8720  140.3230 C   0  0  0  0  0  2  0  0  0  0  0  0
  1 18  1  1  0  0  0
  1 15  1  0  0  0  0
  2 10  1  0  0  0  0
  3 13  1  0  0  0  0
  4  6  1  0  0  0  0
  5  6  2  0  0  0  0
  6  9  1  0  0  0  0
  7  3  2  0  0  0  0
  8  4  1  6  0  0  0
  8  7  1  0  0  0  0
  8  1  1  0  0  0  0
  9  7  1  0  0  0  0
 10 11  1  0  0  0  0
 11 16  1  0  0  0  0
 12 11  2  0  0  0  0
 13  2  2  0  0  0  0
 14 12  1  0  0  0  0
 15 13  1  0  0  0  0
 15 14  2  0  0  0  0
 16 17  1  0  0  0  0
 19 25  1  0  0  0  0
 19 18  1  0  0  0  0
 20 22  1  0  0  0  0
 22 27  1  1  0  0  0
 22 21  1  0  0  0  0
 24 21  1  0  0  0  0
 25 23  1  6  0  0  0
 25 24  1  0  0  0  0
 26 20  1  0  0  0  0
 26 25  1  0  0  0  0
 27 34  1  6  0  0  0
 28 29  1  1  0  0  0
 28 27  1  0  0  0  0
 28 30  1  0  0  0  0
 30 31  2  0  0  0  0
 30 32  1  0  0  0  0
 33 34  1  0  0  0  0
M  END
>  <MODEL>
9

>  <REMARK>
 VINA RESULT:      -6.8      2.913      7.542
  Name = 
  8 active torsions:
  status: ('A' for Active; 'I' for Inactive)
    1  A    between atoms: C_1  and  N_9
    2  A    between atoms: N_3  and  C_25
    3  A    between atoms: C_7  and  C_11
    4  A    between atoms: C_7  and  C_14
    5  A    between atoms: C_8  and  N_9
    6  A    between atoms: C_8  and  C_30
    7  A    between atoms: C_14  and  C_16
    8  A    between atoms: C_14  and  C_29
                            x       y       z     vdW  Elec       q    Type
                         _______ _______ _______ _____ _____    ______ ____

>  <TORSDO>
F 8

$$$$
