=
 OpenBabel11052412223D

 30 30  0  0  1  0  0  0  0  0999 V2000
  189.4900  177.2710  142.5980 C   0  0  2  0  0  0  0  0  0  0  0  0
  187.8400  178.3560  140.3780 C   0  0  0  0  0  2  0  0  0  0  0  0
  187.9460  179.1330  141.6870 C   0  0  0  0  0  2  0  0  0  0  0  0
  191.0780  176.5730  140.8610 C   0  0  0  0  0  1  0  0  0  0  0  0
  188.9390  177.2980  140.2380 C   0  0  0  0  0  2  0  0  0  0  0  0
  188.2580  178.2020  142.8600 C   0  0  1  0  0  3  0  0  0  0  0  0
  190.0080  177.4990  141.2180 N   0  0  0  0  0  0  0  0  0  0  0  0
  189.0930  175.7950  142.8040 C   0  0  0  0  0  1  0  0  0  0  0  0
  190.5440  177.6680  143.6630 C   0  0  1  0  0  3  0  0  0  0  0  0
  190.6450  179.1620  143.9370 C   0  0  0  0  0  1  0  0  0  0  0  0
  190.3350  176.9540  144.9150 N   0  0  0  0  0  2  0  0  0  0  0  0
  191.5770  177.0520  145.6680 C   0  0  0  0  0  2  0  0  0  0  0  0
  191.3080  176.8630  147.1540 C   0  0  2  0  0  3  0  0  0  0  0  0
  192.1060  175.6860  147.6870 C   0  0  0  0  0  1  0  0  0  0  0  0
  189.8190  176.7130  147.4630 C   0  0  0  0  0  2  0  0  0  0  0  0
  189.2510  177.9210  148.1920 C   0  0  0  0  0  1  0  0  0  0  0  0
  187.0780  177.5140  143.2700 O   0  0  0  0  0  0  0  0  0  0  0  0
  186.3840  177.8420  144.4370 C   0  0  0  0  0  0  0  0  0  0  0  0
  186.6820  177.1940  145.5580 C   0  0  0  0  0  2  0  0  0  0  0  0
  185.2980  178.8870  144.4290 C   0  0  2  0  0  3  0  0  0  0  0  0
  184.8780  179.1460  145.7370 O   0  0  0  0  0  1  0  0  0  0  0  0
  184.1150  178.4720  143.5510 C   0  0  1  0  0  3  0  0  0  0  0  0
  182.8030  178.8150  144.2370 C   0  0  0  0  0  1  0  0  0  0  0  0
  184.1650  179.1980  142.2070 C   0  0  0  0  0  2  0  0  0  0  0  0
  183.7970  178.3030  141.0210 C   0  0  1  0  0  3  0  0  0  0  0  0
  181.1410  178.0430  140.8190 C   0  0  0  0  0  3  0  0  0  0  0  0
  182.3380  178.1600  140.9070 C   0  0  0  0  0  0  0  0  0  0  0  0
  184.4050  178.8160  139.7200 C   0  0  0  0  0  2  0  0  0  0  0  0
  185.3770  177.8050  137.6490 C   0  0  0  0  0  1  0  0  0  0  0  0
  184.1750  177.8440  138.5730 C   0  0  0  0  0  2  0  0  0  0  0  0
  1  8  1  1  0  0  0
  1  6  1  0  0  0  0
  1  9  1  0  0  0  0
  2  3  1  0  0  0  0
  3  6  1  0  0  0  0
  4  7  1  0  0  0  0
  5  2  1  0  0  0  0
  5  7  1  0  0  0  0
  6 17  1  6  0  0  0
  7  1  1  0  0  0  0
  9 10  1  1  0  0  0
  9 11  1  0  0  0  0
 11 12  1  0  0  0  0
 12 13  1  0  0  0  0
 13 15  1  0  0  0  0
 13 14  1  6  0  0  0
 15 16  1  0  0  0  0
 17 18  1  0  0  0  0
 18 19  2  0  0  0  0
 20 18  1  0  0  0  0
 20 21  1  1  0  0  0
 22 23  1  1  0  0  0
 22 20  1  0  0  0  0
 24 22  1  0  0  0  0
 25 28  1  6  0  0  0
 25 24  1  0  0  0  0
 26 27  3  0  0  0  0
 27 25  1  0  0  0  0
 29 30  1  0  0  0  0
 30 28  1  0  0  0  0
M  END
>  <MODEL>
1

>  <REMARK>
 VINA RESULT:      -6.6      0.000      0.000
  Name = 
  14 active torsions:
  status: ('A' for Active; 'I' for Inactive)
    1  A    between atoms: C_1  and  O_2
    2  A    between atoms: C_1  and  C_4
    3  A    between atoms: O_2  and  C_22
    4  A    between atoms: C_3  and  C_11
    5  A    between atoms: C_4  and  C_27
    6  A    between atoms: C_6  and  C_8
    7  A    between atoms: C_6  and  C_21
    8  A    between atoms: C_7  and  C_10
    9  A    between atoms: C_7  and  C_15
   10  A    between atoms: C_8  and  C_12
   11  A    between atoms: C_8  and  C_13
   12  A    between atoms: C_10  and  N_25
   13  A    between atoms: C_11  and  N_25
   14  A    between atoms: C_13  and  C_27
                            x       y       z     vdW  Elec       q    Type
                         _______ _______ _______ _____ _____    ______ ____

>  <TORSDO>
F 14

$$$$
=
 OpenBabel11052412223D

 30 30  0  0  1  0  0  0  0  0999 V2000
  188.5590  177.8460  137.4190 C   0  0  2  0  0  0  0  0  0  0  0  0
  190.8410  176.2510  138.4570 C   0  0  0  0  0  2  0  0  0  0  0  0
  189.4600  176.0900  139.0880 C   0  0  0  0  0  2  0  0  0  0  0  0
  189.5070  177.4470  135.1890 C   0  0  0  0  0  1  0  0  0  0  0  0
  190.7790  176.9330  137.0870 C   0  0  0  0  0  2  0  0  0  0  0  0
  188.6170  177.3530  138.9040 C   0  0  1  0  0  3  0  0  0  0  0  0
  189.4120  176.9700  136.5640 N   0  0  0  0  0  0  0  0  0  0  0  0
  189.0120  179.3170  137.3290 C   0  0  0  0  0  1  0  0  0  0  0  0
  187.0680  177.7470  137.0050 C   0  0  1  0  0  3  0  0  0  0  0  0
  186.5150  176.3300  136.9420 C   0  0  0  0  0  1  0  0  0  0  0  0
  186.2200  178.5650  137.8610 N   0  0  0  0  0  2  0  0  0  0  0  0
  184.9480  177.8690  137.9820 C   0  0  0  0  0  2  0  0  0  0  0  0
  184.2070  178.3380  139.2260 C   0  0  2  0  0  3  0  0  0  0  0  0
  183.0810  177.3750  139.5600 C   0  0  0  0  0  1  0  0  0  0  0  0
  183.6950  179.7710  139.0940 C   0  0  0  0  0  2  0  0  0  0  0  0
  182.1820  179.8390  138.9530 C   0  0  0  0  0  1  0  0  0  0  0  0
  189.0160  178.3530  139.8400 O   0  0  0  0  0  0  0  0  0  0  0  0
  188.4950  178.4210  141.1340 C   0  0  0  0  0  0  0  0  0  0  0  0
  187.1950  178.6440  141.2850 C   0  0  0  0  0  2  0  0  0  0  0  0
  189.3870  178.2750  142.3400 C   0  0  2  0  0  3  0  0  0  0  0  0
  190.6530  177.8330  141.9430 O   0  0  0  0  0  1  0  0  0  0  0  0
  188.7840  177.3310  143.3830 C   0  0  1  0  0  3  0  0  0  0  0  0
  189.3960  175.9450  143.2580 C   0  0  0  0  0  1  0  0  0  0  0  0
  189.0480  177.8540  144.7940 C   0  0  0  0  0  2  0  0  0  0  0  0
  188.1630  177.1980  145.8570 C   0  0  1  0  0  3  0  0  0  0  0  0
  188.6650  178.2230  148.2790 C   0  0  0  0  0  3  0  0  0  0  0  0
  188.4420  177.7590  147.1880 C   0  0  0  0  0  0  0  0  0  0  0  0
  186.6830  177.3170  145.5080 C   0  0  0  0  0  2  0  0  0  0  0  0
  185.0600  179.1920  145.1810 C   0  0  0  0  0  1  0  0  0  0  0  0
  186.0590  178.5570  146.1290 C   0  0  0  0  0  2  0  0  0  0  0  0
  1  8  1  6  0  0  0
  1  6  1  0  0  0  0
  2  3  1  0  0  0  0
  4  7  1  0  0  0  0
  5  2  1  0  0  0  0
  6  3  1  0  0  0  0
  6 17  1  1  0  0  0
  7  5  1  0  0  0  0
  7  1  1  0  0  0  0
  9 10  1  1  0  0  0
  9  1  1  0  0  0  0
  9 11  1  0  0  0  0
 11 12  1  0  0  0  0
 12 13  1  0  0  0  0
 13 14  1  6  0  0  0
 15 13  1  0  0  0  0
 16 15  1  0  0  0  0
 17 18  1  0  0  0  0
 18 19  2  0  0  0  0
 18 20  1  0  0  0  0
 20 21  1  6  0  0  0
 20 22  1  0  0  0  0
 22 23  1  1  0  0  0
 22 24  1  0  0  0  0
 25 24  1  6  0  0  0
 25 27  1  0  0  0  0
 27 26  3  0  0  0  0
 28 25  1  0  0  0  0
 28 30  1  0  0  0  0
 29 30  1  0  0  0  0
M  END
>  <MODEL>
2

>  <REMARK>
 VINA RESULT:      -6.3      2.889      7.402
  Name = 
  14 active torsions:
  status: ('A' for Active; 'I' for Inactive)
    1  A    between atoms: C_1  and  O_2
    2  A    between atoms: C_1  and  C_4
    3  A    between atoms: O_2  and  C_22
    4  A    between atoms: C_3  and  C_11
    5  A    between atoms: C_4  and  C_27
    6  A    between atoms: C_6  and  C_8
    7  A    between atoms: C_6  and  C_21
    8  A    between atoms: C_7  and  C_10
    9  A    between atoms: C_7  and  C_15
   10  A    between atoms: C_8  and  C_12
   11  A    between atoms: C_8  and  C_13
   12  A    between atoms: C_10  and  N_25
   13  A    between atoms: C_11  and  N_25
   14  A    between atoms: C_13  and  C_27
                            x       y       z     vdW  Elec       q    Type
                         _______ _______ _______ _____ _____    ______ ____

>  <TORSDO>
F 14

$$$$
=
 OpenBabel11052412223D

 30 30  0  0  1  0  0  0  0  0999 V2000
  182.1530  177.8680  139.7930 C   0  0  2  0  0  0  0  0  0  0  0  0
  180.2340  178.1870  142.0380 C   0  0  0  0  0  2  0  0  0  0  0  0
  181.2950  179.2570  141.7970 C   0  0  0  0  0  2  0  0  0  0  0  0
  180.2550  176.9840  138.5100 C   0  0  0  0  0  1  0  0  0  0  0  0
  180.0430  177.2710  140.8260 C   0  0  0  0  0  2  0  0  0  0  0  0
  182.5170  178.6730  141.0860 C   0  0  1  0  0  3  0  0  0  0  0  0
  180.6710  177.8280  139.6260 N   0  0  0  0  0  0  0  0  0  0  0  0
  182.7390  176.4440  139.8720 C   0  0  0  0  0  1  0  0  0  0  0  0
  182.8270  178.6310  138.6240 C   0  0  1  0  0  3  0  0  0  0  0  0
  183.3900  179.9960  138.9920 C   0  0  0  0  0  1  0  0  0  0  0  0
  183.8640  177.8300  137.9890 N   0  0  0  0  0  2  0  0  0  0  0  0
  185.1380  178.4400  138.3350 C   0  0  0  0  0  2  0  0  0  0  0  0
  186.2410  177.9050  137.4330 C   0  0  2  0  0  3  0  0  0  0  0  0
  185.9370  176.4740  137.0240 C   0  0  0  0  0  1  0  0  0  0  0  0
  187.6240  178.0200  138.0720 C   0  0  0  0  0  2  0  0  0  0  0  0
  188.6050  178.7920  137.2030 C   0  0  0  0  0  1  0  0  0  0  0  0
  183.3320  177.9590  142.0130 O   0  0  0  0  0  0  0  0  0  0  0  0
  184.2990  178.5870  142.8020 C   0  0  0  0  0  0  0  0  0  0  0  0
  185.2420  179.3040  142.2030 C   0  0  0  0  0  2  0  0  0  0  0  0
  184.2970  178.4350  144.3020 C   0  0  2  0  0  3  0  0  0  0  0  0
  183.4260  179.3690  144.8720 O   0  0  0  0  0  1  0  0  0  0  0  0
  185.7030  178.5750  144.8900 C   0  0  1  0  0  3  0  0  0  0  0  0
  185.6260  179.0000  146.3470 C   0  0  0  0  0  1  0  0  0  0  0  0
  186.4520  177.2450  144.8100 C   0  0  0  0  0  2  0  0  0  0  0  0
  187.8830  177.3870  144.2860 C   0  0  1  0  0  3  0  0  0  0  0  0
  189.6410  177.3090  146.3030 C   0  0  0  0  0  3  0  0  0  0  0  0
  188.8510  177.3460  145.3920 C   0  0  0  0  0  0  0  0  0  0  0  0
  188.2030  176.3300  143.2340 C   0  0  0  0  0  2  0  0  0  0  0  0
  188.7630  178.2080  141.6820 C   0  0  0  0  0  1  0  0  0  0  0  0
  189.1900  176.8490  142.2010 C   0  0  0  0  0  2  0  0  0  0  0  0
  1  8  1  1  0  0  0
  1  6  1  0  0  0  0
  3  2  1  0  0  0  0
  4  7  1  0  0  0  0
  5  2  1  0  0  0  0
  6  3  1  0  0  0  0
  6 17  1  1  0  0  0
  7  1  1  0  0  0  0
  7  5  1  0  0  0  0
  9 10  1  1  0  0  0
  9  1  1  0  0  0  0
 11 12  1  0  0  0  0
 11  9  1  0  0  0  0
 13 14  1  1  0  0  0
 13 15  1  0  0  0  0
 13 12  1  0  0  0  0
 16 15  1  0  0  0  0
 17 18  1  0  0  0  0
 18 20  1  0  0  0  0
 19 18  2  0  0  0  0
 20 21  1  1  0  0  0
 20 22  1  0  0  0  0
 22 23  1  1  0  0  0
 24 22  1  0  0  0  0
 25 28  1  6  0  0  0
 25 24  1  0  0  0  0
 25 27  1  0  0  0  0
 27 26  3  0  0  0  0
 29 30  1  0  0  0  0
 30 28  1  0  0  0  0
M  END
>  <MODEL>
3

>  <REMARK>
 VINA RESULT:      -6.2      2.739      7.657
  Name = 
  14 active torsions:
  status: ('A' for Active; 'I' for Inactive)
    1  A    between atoms: C_1  and  O_2
    2  A    between atoms: C_1  and  C_4
    3  A    between atoms: O_2  and  C_22
    4  A    between atoms: C_3  and  C_11
    5  A    between atoms: C_4  and  C_27
    6  A    between atoms: C_6  and  C_8
    7  A    between atoms: C_6  and  C_21
    8  A    between atoms: C_7  and  C_10
    9  A    between atoms: C_7  and  C_15
   10  A    between atoms: C_8  and  C_12
   11  A    between atoms: C_8  and  C_13
   12  A    between atoms: C_10  and  N_25
   13  A    between atoms: C_11  and  N_25
   14  A    between atoms: C_13  and  C_27
                            x       y       z     vdW  Elec       q    Type
                         _______ _______ _______ _____ _____    ______ ____

>  <TORSDO>
F 14

$$$$
=
 OpenBabel11052412223D

 30 30  0  0  1  0  0  0  0  0999 V2000
  188.4130  177.8130  137.4060 C   0  0  2  0  0  0  0  0  0  0  0  0
  190.8230  176.1760  137.9890 C   0  0  0  0  0  2  0  0  0  0  0  0
  189.5630  175.9860  138.8270 C   0  0  0  0  0  2  0  0  0  0  0  0
  188.9830  177.5150  135.0360 C   0  0  0  0  0  1  0  0  0  0  0  0
  190.5440  176.9170  136.6780 C   0  0  0  0  0  2  0  0  0  0  0  0
  188.7090  177.2540  138.8390 C   0  0  1  0  0  3  0  0  0  0  0  0
  189.1110  176.9760  136.3870 N   0  0  0  0  0  0  0  0  0  0  0  0
  188.8550  179.2860  137.3090 C   0  0  0  0  0  1  0  0  0  0  0  0
  186.8740  177.7310  137.2370 C   0  0  1  0  0  3  0  0  0  0  0  0
  186.3210  176.3200  137.0900 C   0  0  0  0  0  1  0  0  0  0  0  0
  186.1800  178.4180  138.3170 N   0  0  0  0  0  2  0  0  0  0  0  0
  184.7880  177.9970  138.2580 C   0  0  0  0  0  2  0  0  0  0  0  0
  183.9800  178.6950  139.3420 C   0  0  2  0  0  3  0  0  0  0  0  0
  183.4730  180.0350  138.8390 C   0  0  0  0  0  1  0  0  0  0  0  0
  184.7630  178.8480  140.6450 C   0  0  0  0  0  2  0  0  0  0  0  0
  184.0250  178.2680  141.8410 C   0  0  0  0  0  1  0  0  0  0  0  0
  189.2610  178.2120  139.7410 O   0  0  0  0  0  0  0  0  0  0  0  0
  188.9970  178.1920  141.1120 C   0  0  0  0  0  0  0  0  0  0  0  0
  187.7520  178.4050  141.5230 C   0  0  0  0  0  2  0  0  0  0  0  0
  190.1000  177.9640  142.1130 C   0  0  2  0  0  3  0  0  0  0  0  0
  191.2210  177.4300  141.4700 O   0  0  0  0  0  1  0  0  0  0  0  0
  189.6490  177.0560  143.2600 C   0  0  1  0  0  3  0  0  0  0  0  0
  190.1350  175.6340  143.0310 C   0  0  0  0  0  1  0  0  0  0  0  0
  190.2130  177.5550  144.5900 C   0  0  0  0  0  2  0  0  0  0  0  0
  189.1330  177.8220  145.6430 C   0  0  1  0  0  3  0  0  0  0  0  0
  186.7030  177.2650  144.6680 C   0  0  0  0  0  3  0  0  0  0  0  0
  187.7970  177.5180  145.1090 C   0  0  0  0  0  0  0  0  0  0  0  0
  189.4010  177.0500  146.9310 C   0  0  0  0  0  2  0  0  0  0  0  0
  188.0470  177.9240  148.8420 C   0  0  0  0  0  1  0  0  0  0  0  0
  189.3930  177.9650  148.1450 C   0  0  0  0  0  2  0  0  0  0  0  0
  1  8  1  6  0  0  0
  1  6  1  0  0  0  0
  2  3  1  0  0  0  0
  3  6  1  0  0  0  0
  4  7  1  0  0  0  0
  5  2  1  0  0  0  0
  6 17  1  1  0  0  0
  7  5  1  0  0  0  0
  7  1  1  0  0  0  0
  9 10  1  1  0  0  0
  9  1  1  0  0  0  0
  9 11  1  0  0  0  0
 12 11  1  0  0  0  0
 12 13  1  0  0  0  0
 13 14  1  6  0  0  0
 13 15  1  0  0  0  0
 15 16  1  0  0  0  0
 17 18  1  0  0  0  0
 18 19  2  0  0  0  0
 18 20  1  0  0  0  0
 20 21  1  6  0  0  0
 20 22  1  0  0  0  0
 22 23  1  6  0  0  0
 22 24  1  0  0  0  0
 25 24  1  6  0  0  0
 25 28  1  0  0  0  0
 26 27  3  0  0  0  0
 27 25  1  0  0  0  0
 28 30  1  0  0  0  0
 30 29  1  0  0  0  0
M  END
>  <MODEL>
4

>  <REMARK>
 VINA RESULT:      -6.1      2.749      7.525
  Name = 
  14 active torsions:
  status: ('A' for Active; 'I' for Inactive)
    1  A    between atoms: C_1  and  O_2
    2  A    between atoms: C_1  and  C_4
    3  A    between atoms: O_2  and  C_22
    4  A    between atoms: C_3  and  C_11
    5  A    between atoms: C_4  and  C_27
    6  A    between atoms: C_6  and  C_8
    7  A    between atoms: C_6  and  C_21
    8  A    between atoms: C_7  and  C_10
    9  A    between atoms: C_7  and  C_15
   10  A    between atoms: C_8  and  C_12
   11  A    between atoms: C_8  and  C_13
   12  A    between atoms: C_10  and  N_25
   13  A    between atoms: C_11  and  N_25
   14  A    between atoms: C_13  and  C_27
                            x       y       z     vdW  Elec       q    Type
                         _______ _______ _______ _____ _____    ______ ____

>  <TORSDO>
F 14

$$$$
=
 OpenBabel11052412223D

 30 30  0  0  1  0  0  0  0  0999 V2000
  182.2470  177.7860  139.6370 C   0  0  2  0  0  0  0  0  0  0  0  0
  180.2690  178.0320  141.8400 C   0  0  0  0  0  2  0  0  0  0  0  0
  181.3060  179.1320  141.6320 C   0  0  0  0  0  2  0  0  0  0  0  0
  180.4030  176.8640  138.3030 C   0  0  0  0  0  1  0  0  0  0  0  0
  180.1310  177.1230  140.6150 C   0  0  0  0  0  2  0  0  0  0  0  0
  182.5590  178.5880  140.9450 C   0  0  1  0  0  3  0  0  0  0  0  0
  180.7700  177.7070  139.4350 N   0  0  0  0  0  0  0  0  0  0  0  0
  182.8700  176.3770  139.7160 C   0  0  0  0  0  1  0  0  0  0  0  0
  182.9250  178.5780  138.4900 C   0  0  1  0  0  3  0  0  0  0  0  0
  183.3790  179.9820  138.8650 C   0  0  0  0  0  1  0  0  0  0  0  0
  184.0430  177.8400  137.9180 N   0  0  0  0  0  2  0  0  0  0  0  0
  185.2550  178.5460  138.3040 C   0  0  0  0  0  2  0  0  0  0  0  0
  186.4440  178.0240  137.5090 C   0  0  2  0  0  3  0  0  0  0  0  0
  186.0380  176.8080  136.6950 C   0  0  0  0  0  1  0  0  0  0  0  0
  187.6510  177.7240  138.3970 C   0  0  0  0  0  2  0  0  0  0  0  0
  188.8650  178.5640  138.0330 C   0  0  0  0  0  1  0  0  0  0  0  0
  183.3720  177.8880  141.8840 O   0  0  0  0  0  0  0  0  0  0  0  0
  184.3270  178.5280  142.6770 C   0  0  0  0  0  0  0  0  0  0  0  0
  185.2410  179.2880  142.0830 C   0  0  0  0  0  2  0  0  0  0  0  0
  184.3450  178.3460  144.1720 C   0  0  2  0  0  3  0  0  0  0  0  0
  183.4780  179.2640  144.7730 O   0  0  0  0  0  1  0  0  0  0  0  0
  185.7580  178.4790  144.7450 C   0  0  1  0  0  3  0  0  0  0  0  0
  185.7240  179.2270  146.0680 C   0  0  0  0  0  1  0  0  0  0  0  0
  186.3720  177.1000  144.9820 C   0  0  0  0  0  2  0  0  0  0  0  0
  187.8650  177.0360  144.6500 C   0  0  1  0  0  3  0  0  0  0  0  0
  188.2880  177.5890  142.0650 C   0  0  0  0  0  3  0  0  0  0  0  0
  188.0980  177.3440  143.2310 C   0  0  0  0  0  0  0  0  0  0  0  0
  188.6810  177.9540  145.5540 C   0  0  0  0  0  2  0  0  0  0  0  0
  188.5640  177.8820  148.0500 C   0  0  0  0  0  1  0  0  0  0  0  0
  189.1470  177.2350  146.8100 C   0  0  0  0  0  2  0  0  0  0  0  0
  1  8  1  1  0  0  0
  1  6  1  0  0  0  0
  3  2  1  0  0  0  0
  4  7  1  0  0  0  0
  5  2  1  0  0  0  0
  6  3  1  0  0  0  0
  6 17  1  1  0  0  0
  7  1  1  0  0  0  0
  7  5  1  0  0  0  0
  9 10  1  1  0  0  0
  9  1  1  0  0  0  0
 11 12  1  0  0  0  0
 11  9  1  0  0  0  0
 13 14  1  1  0  0  0
 13 12  1  0  0  0  0
 13 15  1  0  0  0  0
 16 15  1  0  0  0  0
 17 18  1  0  0  0  0
 18 20  1  0  0  0  0
 19 18  2  0  0  0  0
 20 22  1  0  0  0  0
 20 21  1  1  0  0  0
 22 24  1  0  0  0  0
 22 23  1  1  0  0  0
 25 27  1  6  0  0  0
 25 24  1  0  0  0  0
 25 28  1  0  0  0  0
 26 27  3  0  0  0  0
 28 30  1  0  0  0  0
 30 29  1  0  0  0  0
M  END
>  <MODEL>
5

>  <REMARK>
 VINA RESULT:      -6.0      2.805      7.796
  Name = 
  14 active torsions:
  status: ('A' for Active; 'I' for Inactive)
    1  A    between atoms: C_1  and  O_2
    2  A    between atoms: C_1  and  C_4
    3  A    between atoms: O_2  and  C_22
    4  A    between atoms: C_3  and  C_11
    5  A    between atoms: C_4  and  C_27
    6  A    between atoms: C_6  and  C_8
    7  A    between atoms: C_6  and  C_21
    8  A    between atoms: C_7  and  C_10
    9  A    between atoms: C_7  and  C_15
   10  A    between atoms: C_8  and  C_12
   11  A    between atoms: C_8  and  C_13
   12  A    between atoms: C_10  and  N_25
   13  A    between atoms: C_11  and  N_25
   14  A    between atoms: C_13  and  C_27
                            x       y       z     vdW  Elec       q    Type
                         _______ _______ _______ _____ _____    ______ ____

>  <TORSDO>
F 14

$$$$
=
 OpenBabel11052412223D

 30 30  0  0  1  0  0  0  0  0999 V2000
  182.2940  177.7860  139.6960 C   0  0  2  0  0  0  0  0  0  0  0  0
  180.2040  178.1160  141.7810 C   0  0  0  0  0  2  0  0  0  0  0  0
  181.2810  179.1850  141.6180 C   0  0  0  0  0  2  0  0  0  0  0  0
  180.5030  176.8930  138.2730 C   0  0  0  0  0  1  0  0  0  0  0  0
  180.1100  177.1930  140.5630 C   0  0  0  0  0  2  0  0  0  0  0  0
  182.5550  178.5990  141.0080 C   0  0  1  0  0  3  0  0  0  0  0  0
  180.8300  177.7430  139.4130 N   0  0  0  0  0  0  0  0  0  0  0  0
  182.8730  176.3630  139.8290 C   0  0  0  0  0  1  0  0  0  0  0  0
  183.0570  178.5430  138.5780 C   0  0  1  0  0  3  0  0  0  0  0  0
  183.5340  179.9370  138.9620 C   0  0  0  0  0  1  0  0  0  0  0  0
  184.1790  177.7640  138.0740 N   0  0  0  0  0  2  0  0  0  0  0  0
  185.3910  178.4680  138.4660 C   0  0  0  0  0  2  0  0  0  0  0  0
  186.5100  178.1820  137.4750 C   0  0  2  0  0  3  0  0  0  0  0  0
  185.9810  177.3730  136.3040 C   0  0  0  0  0  1  0  0  0  0  0  0
  187.7070  177.4960  138.1310 C   0  0  0  0  0  2  0  0  0  0  0  0
  188.8050  178.4780  138.5110 C   0  0  0  0  0  1  0  0  0  0  0  0
  183.2950  177.8910  142.0010 O   0  0  0  0  0  0  0  0  0  0  0  0
  183.9800  178.5390  143.0320 C   0  0  0  0  0  0  0  0  0  0  0  0
  183.3230  178.8310  144.1480 C   0  0  0  0  0  2  0  0  0  0  0  0
  185.4290  178.9270  142.8790 C   0  0  2  0  0  3  0  0  0  0  0  0
  185.5740  179.8040  141.7990 O   0  0  0  0  0  1  0  0  0  0  0  0
  186.3310  177.7030  142.7090 C   0  0  1  0  0  3  0  0  0  0  0  0
  187.6620  178.1080  142.0960 C   0  0  0  0  0  1  0  0  0  0  0  0
  186.6000  177.0440  144.0620 C   0  0  0  0  0  2  0  0  0  0  0  0
  187.3150  177.9670  145.0520 C   0  0  1  0  0  3  0  0  0  0  0  0
  185.6760  178.6730  147.0470 C   0  0  0  0  0  3  0  0  0  0  0  0
  186.4150  178.3580  146.1460 C   0  0  0  0  0  0  0  0  0  0  0  0
  188.5930  177.3310  145.5910 C   0  0  0  0  0  2  0  0  0  0  0  0
  191.0030  177.2040  144.9360 C   0  0  0  0  0  1  0  0  0  0  0  0
  189.8260  178.1250  145.1910 C   0  0  0  0  0  2  0  0  0  0  0  0
  1  8  1  1  0  0  0
  1  6  1  0  0  0  0
  3  2  1  0  0  0  0
  4  7  1  0  0  0  0
  5  2  1  0  0  0  0
  6  3  1  0  0  0  0
  6 17  1  1  0  0  0
  7  1  1  0  0  0  0
  7  5  1  0  0  0  0
  9 10  1  1  0  0  0
  9  1  1  0  0  0  0
 11 12  1  0  0  0  0
 11  9  1  0  0  0  0
 13 14  1  6  0  0  0
 13 15  1  0  0  0  0
 13 12  1  0  0  0  0
 15 16  1  0  0  0  0
 17 18  1  0  0  0  0
 18 19  2  0  0  0  0
 20 21  1  6  0  0  0
 20 18  1  0  0  0  0
 22 23  1  1  0  0  0
 22 20  1  0  0  0  0
 22 24  1  0  0  0  0
 25 24  1  6  0  0  0
 25 28  1  0  0  0  0
 25 27  1  0  0  0  0
 27 26  3  0  0  0  0
 29 30  1  0  0  0  0
 30 28  1  0  0  0  0
M  END
>  <MODEL>
6

>  <REMARK>
 VINA RESULT:      -5.9      2.842      7.746
  Name = 
  14 active torsions:
  status: ('A' for Active; 'I' for Inactive)
    1  A    between atoms: C_1  and  O_2
    2  A    between atoms: C_1  and  C_4
    3  A    between atoms: O_2  and  C_22
    4  A    between atoms: C_3  and  C_11
    5  A    between atoms: C_4  and  C_27
    6  A    between atoms: C_6  and  C_8
    7  A    between atoms: C_6  and  C_21
    8  A    between atoms: C_7  and  C_10
    9  A    between atoms: C_7  and  C_15
   10  A    between atoms: C_8  and  C_12
   11  A    between atoms: C_8  and  C_13
   12  A    between atoms: C_10  and  N_25
   13  A    between atoms: C_11  and  N_25
   14  A    between atoms: C_13  and  C_27
                            x       y       z     vdW  Elec       q    Type
                         _______ _______ _______ _____ _____    ______ ____

>  <TORSDO>
F 14

$$$$
=
 OpenBabel11052412223D

 30 30  0  0  1  0  0  0  0  0999 V2000
  189.3700  177.3950  142.9430 C   0  0  2  0  0  0  0  0  0  0  0  0
  188.3230  178.1780  140.2750 C   0  0  0  0  0  2  0  0  0  0  0  0
  188.1160  179.1070  141.4680 C   0  0  0  0  0  2  0  0  0  0  0  0
  191.3250  176.5240  141.7380 C   0  0  0  0  0  1  0  0  0  0  0  0
  189.4100  177.1320  140.5340 C   0  0  0  0  0  2  0  0  0  0  0  0
  188.1230  178.3270  142.7840 C   0  0  1  0  0  3  0  0  0  0  0  0
  190.2120  177.4660  141.7120 N   0  0  0  0  0  0  0  0  0  0  0  0
  188.9190  175.9470  143.2210 C   0  0  0  0  0  1  0  0  0  0  0  0
  190.1390  177.9340  144.1760 C   0  0  1  0  0  3  0  0  0  0  0  0
  190.8810  179.2430  143.9450 C   0  0  0  0  0  1  0  0  0  0  0  0
  189.2670  178.0640  145.3350 N   0  0  0  0  0  2  0  0  0  0  0  0
  189.3120  176.7930  146.0420 C   0  0  0  0  0  2  0  0  0  0  0  0
  189.7530  177.0060  147.4820 C   0  0  2  0  0  3  0  0  0  0  0  0
  189.1110  178.2610  148.0480 C   0  0  0  0  0  1  0  0  0  0  0  0
  191.2740  177.0450  147.6270 C   0  0  0  0  0  2  0  0  0  0  0  0
  191.9670  175.9830  146.7860 C   0  0  0  0  0  1  0  0  0  0  0  0
  186.8700  177.6720  142.9750 O   0  0  0  0  0  0  0  0  0  0  0  0
  185.8380  178.2290  143.7320 C   0  0  0  0  0  0  0  0  0  0  0  0
  185.7780  177.9500  145.0290 C   0  0  0  0  0  2  0  0  0  0  0  0
  184.7930  179.1080  143.0950 C   0  0  2  0  0  3  0  0  0  0  0  0
  184.0780  179.7900  144.0840 O   0  0  0  0  0  1  0  0  0  0  0  0
  183.8470  178.3070  142.1960 C   0  0  1  0  0  3  0  0  0  0  0  0
  182.4000  178.6270  142.5340 C   0  0  0  0  0  1  0  0  0  0  0  0
  184.0890  178.6470  140.7260 C   0  0  0  0  0  2  0  0  0  0  0  0
  182.8610  178.4180  139.8420 C   0  0  1  0  0  3  0  0  0  0  0  0
  182.2600  180.6220  138.4470 C   0  0  0  0  0  3  0  0  0  0  0  0
  182.5340  179.6310  139.0770 C   0  0  0  0  0  0  0  0  0  0  0  0
  183.0500  177.2190  138.9180 C   0  0  0  0  0  2  0  0  0  0  0  0
  180.8450  176.4090  139.7780 C   0  0  0  0  0  1  0  0  0  0  0  0
  181.7190  176.5800  138.5510 C   0  0  0  0  0  2  0  0  0  0  0  0
  1  8  1  1  0  0  0
  1  9  1  0  0  0  0
  2  5  1  0  0  0  0
  2  3  1  0  0  0  0
  3  6  1  0  0  0  0
  5  7  1  0  0  0  0
  6  1  1  0  0  0  0
  6 17  1  6  0  0  0
  7  4  1  0  0  0  0
  7  1  1  0  0  0  0
  9 10  1  6  0  0  0
  9 11  1  0  0  0  0
 11 12  1  0  0  0  0
 12 13  1  0  0  0  0
 13 15  1  0  0  0  0
 13 14  1  6  0  0  0
 16 15  1  0  0  0  0
 17 18  1  0  0  0  0
 18 19  2  0  0  0  0
 20 18  1  0  0  0  0
 20 21  1  1  0  0  0
 22 23  1  1  0  0  0
 22 20  1  0  0  0  0
 24 22  1  0  0  0  0
 25 28  1  6  0  0  0
 25 24  1  0  0  0  0
 26 27  3  0  0  0  0
 27 25  1  0  0  0  0
 30 28  1  0  0  0  0
 30 29  1  0  0  0  0
M  END
>  <MODEL>
7

>  <REMARK>
 VINA RESULT:      -5.7      1.272      2.013
  Name = 
  14 active torsions:
  status: ('A' for Active; 'I' for Inactive)
    1  A    between atoms: C_1  and  O_2
    2  A    between atoms: C_1  and  C_4
    3  A    between atoms: O_2  and  C_22
    4  A    between atoms: C_3  and  C_11
    5  A    between atoms: C_4  and  C_27
    6  A    between atoms: C_6  and  C_8
    7  A    between atoms: C_6  and  C_21
    8  A    between atoms: C_7  and  C_10
    9  A    between atoms: C_7  and  C_15
   10  A    between atoms: C_8  and  C_12
   11  A    between atoms: C_8  and  C_13
   12  A    between atoms: C_10  and  N_25
   13  A    between atoms: C_11  and  N_25
   14  A    between atoms: C_13  and  C_27
                            x       y       z     vdW  Elec       q    Type
                         _______ _______ _______ _____ _____    ______ ____

>  <TORSDO>
F 14

$$$$
=
 OpenBabel11052412223D

 30 30  0  0  1  0  0  0  0  0999 V2000
  190.4490  176.4850  137.3580 C   0  0  2  0  0  0  0  0  0  0  0  0
  188.2550  178.4400  136.9190 C   0  0  0  0  0  2  0  0  0  0  0  0
  189.3620  178.7610  137.9200 C   0  0  0  0  0  2  0  0  0  0  0  0
  190.3590  176.0870  134.9370 C   0  0  0  0  0  1  0  0  0  0  0  0
  188.6430  177.3060  135.9660 C   0  0  0  0  0  2  0  0  0  0  0  0
  189.9940  177.4840  138.4750 C   0  0  1  0  0  3  0  0  0  0  0  0
  190.0800  177.0260  136.0180 N   0  0  0  0  0  0  0  0  0  0  0  0
  189.8090  175.1010  137.5910 C   0  0  0  0  0  1  0  0  0  0  0  0
  191.9870  176.3660  137.5070 C   0  0  1  0  0  3  0  0  0  0  0  0
  192.5480  176.9210  138.8090 C   0  0  0  0  0  1  0  0  0  0  0  0
  192.4380  174.9930  137.3270 N   0  0  0  0  0  2  0  0  0  0  0  0
  193.4400  175.0130  136.2720 C   0  0  0  0  0  2  0  0  0  0  0  0
  194.7170  174.3360  136.7460 C   0  0  2  0  0  3  0  0  0  0  0  0
  195.1340  173.2540  135.7640 C   0  0  0  0  0  1  0  0  0  0  0  0
  194.5920  173.7830  138.1650 C   0  0  0  0  0  2  0  0  0  0  0  0
  195.7810  174.1480  139.0400 C   0  0  0  0  0  1  0  0  0  0  0  0
  189.1510  176.9090  139.4710 O   0  0  0  0  0  0  0  0  0  0  0  0
  188.9060  177.5300  140.6980 C   0  0  0  0  0  0  0  0  0  0  0  0
  187.8770  178.3650  140.7940 C   0  0  0  0  0  2  0  0  0  0  0  0
  189.8000  177.2850  141.8860 C   0  0  2  0  0  3  0  0  0  0  0  0
  190.4080  176.0310  141.7710 O   0  0  0  0  0  1  0  0  0  0  0  0
  189.0360  177.3990  143.2070 C   0  0  1  0  0  3  0  0  0  0  0  0
  188.3310  176.0900  143.5240 C   0  0  0  0  0  1  0  0  0  0  0  0
  189.9930  177.7260  144.3530 C   0  0  0  0  0  2  0  0  0  0  0  0
  189.5560  177.1330  145.6940 C   0  0  1  0  0  3  0  0  0  0  0  0
  191.6760  176.3800  147.1440 C   0  0  0  0  0  3  0  0  0  0  0  0
  190.7220  176.7180  146.4870 C   0  0  0  0  0  0  0  0  0  0  0  0
  188.6730  178.1010  146.4760 C   0  0  0  0  0  2  0  0  0  0  0  0
  186.2050  178.4270  146.2420 C   0  0  0  0  0  1  0  0  0  0  0  0
  187.3000  177.5100  146.7510 C   0  0  0  0  0  2  0  0  0  0  0  0
  1  9  1  0  0  0  0
  1  8  1  1  0  0  0
  1  6  1  0  0  0  0
  2  3  1  0  0  0  0
  3  6  1  0  0  0  0
  4  7  1  0  0  0  0
  5  7  1  0  0  0  0
  5  2  1  0  0  0  0
  6 17  1  1  0  0  0
  7  1  1  0  0  0  0
  9 10  1  1  0  0  0
 11  9  1  0  0  0  0
 12 13  1  0  0  0  0
 12 11  1  0  0  0  0
 13 14  1  6  0  0  0
 13 15  1  0  0  0  0
 15 16  1  0  0  0  0
 17 18  1  0  0  0  0
 18 19  2  0  0  0  0
 18 20  1  0  0  0  0
 20 21  1  6  0  0  0
 20 22  1  0  0  0  0
 22 23  1  1  0  0  0
 22 24  1  0  0  0  0
 25 24  1  6  0  0  0
 25 28  1  0  0  0  0
 25 27  1  0  0  0  0
 27 26  3  0  0  0  0
 28 30  1  0  0  0  0
 29 30  1  0  0  0  0
M  END
>  <MODEL>
8

>  <REMARK>
 VINA RESULT:      -5.6      3.606      7.648
  Name = 
  14 active torsions:
  status: ('A' for Active; 'I' for Inactive)
    1  A    between atoms: C_1  and  O_2
    2  A    between atoms: C_1  and  C_4
    3  A    between atoms: O_2  and  C_22
    4  A    between atoms: C_3  and  C_11
    5  A    between atoms: C_4  and  C_27
    6  A    between atoms: C_6  and  C_8
    7  A    between atoms: C_6  and  C_21
    8  A    between atoms: C_7  and  C_10
    9  A    between atoms: C_7  and  C_15
   10  A    between atoms: C_8  and  C_12
   11  A    between atoms: C_8  and  C_13
   12  A    between atoms: C_10  and  N_25
   13  A    between atoms: C_11  and  N_25
   14  A    between atoms: C_13  and  C_27
                            x       y       z     vdW  Elec       q    Type
                         _______ _______ _______ _____ _____    ______ ____

>  <TORSDO>
F 14

$$$$
=
 OpenBabel11052412223D

 30 30  0  0  1  0  0  0  0  0999 V2000
  190.8330  175.7350  137.0220 C   0  0  2  0  0  0  0  0  0  0  0  0
  188.3990  177.4000  137.3840 C   0  0  0  0  0  2  0  0  0  0  0  0
  189.7430  177.9070  137.9020 C   0  0  0  0  0  2  0  0  0  0  0  0
  189.9240  175.1760  134.8110 C   0  0  0  0  0  1  0  0  0  0  0  0
  188.5570  176.2590  136.3750 C   0  0  0  0  0  2  0  0  0  0  0  0
  190.6910  176.7470  138.2090 C   0  0  1  0  0  3  0  0  0  0  0  0
  189.9380  176.1450  135.9010 N   0  0  0  0  0  0  0  0  0  0  0  0
  190.5040  174.3070  137.4990 C   0  0  0  0  0  1  0  0  0  0  0  0
  192.3230  175.7990  136.5970 C   0  0  1  0  0  3  0  0  0  0  0  0
  193.2290  176.5600  137.5560 C   0  0  0  0  0  1  0  0  0  0  0  0
  192.8690  174.4700  136.3600 N   0  0  0  0  0  2  0  0  0  0  0  0
  194.3170  174.5870  136.4520 C   0  0  0  0  0  2  0  0  0  0  0  0
  194.9310  173.2470  136.8290 C   0  0  2  0  0  3  0  0  0  0  0  0
  194.1580  172.1130  136.1780 C   0  0  0  0  0  1  0  0  0  0  0  0
  195.0300  173.0570  138.3420 C   0  0  0  0  0  2  0  0  0  0  0  0
  195.8550  174.1440  139.0130 C   0  0  0  0  0  1  0  0  0  0  0  0
  190.3460  176.1460  139.4550 O   0  0  0  0  0  0  0  0  0  0  0  0
  190.4330  176.8300  140.6690 C   0  0  0  0  0  0  0  0  0  0  0  0
  191.6270  177.2310  141.0900 C   0  0  0  0  0  2  0  0  0  0  0  0
  189.2060  177.0890  141.5050 C   0  0  2  0  0  3  0  0  0  0  0  0
  188.6520  178.3280  141.1650 O   0  0  0  0  0  1  0  0  0  0  0  0
  189.5130  177.0250  143.0030 C   0  0  1  0  0  3  0  0  0  0  0  0
  189.8930  178.4020  143.5240 C   0  0  0  0  0  1  0  0  0  0  0  0
  188.2930  176.5310  143.7800 C   0  0  0  0  0  2  0  0  0  0  0  0
  187.6670  177.6070  144.6710 C   0  0  1  0  0  3  0  0  0  0  0  0
  185.2250  178.2640  143.7950 C   0  0  0  0  0  3  0  0  0  0  0  0
  186.3240  177.9660  144.1930 C   0  0  0  0  0  0  0  0  0  0  0  0
  187.6340  177.1750  146.1340 C   0  0  0  0  0  2  0  0  0  0  0  0
  189.0920  177.9530  148.0100 C   0  0  0  0  0  1  0  0  0  0  0  0
  189.0290  177.1320  146.7370 C   0  0  0  0  0  2  0  0  0  0  0  0
  1  8  1  1  0  0  0
  1  6  1  0  0  0  0
  2  3  1  0  0  0  0
  3  6  1  0  0  0  0
  4  7  1  0  0  0  0
  5  2  1  0  0  0  0
  6 17  1  1  0  0  0
  7  5  1  0  0  0  0
  7  1  1  0  0  0  0
  9  1  1  0  0  0  0
  9 10  1  1  0  0  0
 11 12  1  0  0  0  0
 11  9  1  0  0  0  0
 12 13  1  0  0  0  0
 13 14  1  1  0  0  0
 13 15  1  0  0  0  0
 15 16  1  0  0  0  0
 17 18  1  0  0  0  0
 18 19  2  0  0  0  0
 18 20  1  0  0  0  0
 20 21  1  6  0  0  0
 20 22  1  0  0  0  0
 22 23  1  1  0  0  0
 22 24  1  0  0  0  0
 25 24  1  6  0  0  0
 25 28  1  0  0  0  0
 26 27  3  0  0  0  0
 27 25  1  0  0  0  0
 28 30  1  0  0  0  0
 30 29  1  0  0  0  0
M  END
>  <MODEL>
9

>  <REMARK>
 VINA RESULT:      -5.6      3.873      7.479
  Name = 
  14 active torsions:
  status: ('A' for Active; 'I' for Inactive)
    1  A    between atoms: C_1  and  O_2
    2  A    between atoms: C_1  and  C_4
    3  A    between atoms: O_2  and  C_22
    4  A    between atoms: C_3  and  C_11
    5  A    between atoms: C_4  and  C_27
    6  A    between atoms: C_6  and  C_8
    7  A    between atoms: C_6  and  C_21
    8  A    between atoms: C_7  and  C_10
    9  A    between atoms: C_7  and  C_15
   10  A    between atoms: C_8  and  C_12
   11  A    between atoms: C_8  and  C_13
   12  A    between atoms: C_10  and  N_25
   13  A    between atoms: C_11  and  N_25
   14  A    between atoms: C_13  and  C_27
                            x       y       z     vdW  Elec       q    Type
                         _______ _______ _______ _____ _____    ______ ____

>  <TORSDO>
F 14

$$$$
