=
 OpenBabel11052412583D

 31 33  0  0  1  0  0  0  0  0999 V2000
  185.1670  178.4720  144.9410 C   0  0  0  0  0  0  0  0  0  0  0  0
  188.8990  177.7030  144.5560 C   0  0  2  0  0  3  0  0  0  0  0  0
  189.3130  177.2790  145.9460 C   0  0  0  0  0  0  0  0  0  0  0  0
  187.4180  177.8440  144.2770 C   0  0  0  0  0  0  0  0  0  0  0  0
  184.7370  178.3500  143.6170 C   0  0  0  0  0  3  0  0  0  0  0  0
  188.4960  176.9890  146.8100 O   0  0  0  0  0  0  0  0  0  0  0  0
  189.1310  177.0230  142.1350 C   0  0  0  0  0  0  0  0  0  0  0  0
  184.2450  178.8480  145.9570 N   0  0  0  0  0  1  0  0  0  0  0  0
  191.4750  176.3470  145.1290 C   0  0  0  0  0  2  0  0  0  0  0  0
  187.9180  177.4380  141.8960 N   0  0  0  0  0  0  0  0  0  0  0  0
  189.5730  176.7540  143.5520 C   0  0  1  0  0  3  0  0  0  0  0  0
  186.5050  178.2400  145.2660 C   0  0  0  0  0  3  0  0  0  0  0  0
  186.9840  177.7500  142.9390 C   0  0  0  0  0  0  0  0  0  0  0  0
  185.6470  177.9970  142.6160 C   0  0  0  0  0  3  0  0  0  0  0  0
  191.0920  176.8210  143.7230 C   0  0  0  0  0  2  0  0  0  0  0  0
  190.7940  177.1920  146.2130 C   0  0  2  0  0  3  0  0  0  0  0  0
  190.0030  176.7400  141.0800 O   0  0  0  0  0  0  0  0  0  0  0  0
  189.9910  177.4720  139.8620 C   0  0  0  0  0  2  0  0  0  0  0  0
  191.1310  177.0150  138.9670 C   0  0  0  0  0  2  0  0  0  0  0  0
  190.6600  176.8160  137.5310 C   0  0  0  0  0  2  0  0  0  0  0  0
  189.3680  176.0140  137.4700 C   0  0  0  0  0  2  0  0  0  0  0  0
  188.2020  175.9330  135.4580 C   0  0  0  0  0  1  0  0  0  0  0  0
  188.3780  176.7150  136.6680 N   0  0  0  0  0  0  0  0  0  0  0  0
  187.1170  176.6400  137.3930 C   0  0  0  0  0  2  0  0  0  0  0  0
  186.7910  177.9620  138.0820 C   0  0  2  0  0  3  0  0  0  0  0  0
  185.2920  178.1830  138.1570 C   0  0  0  0  0  1  0  0  0  0  0  0
  187.3950  179.0260  137.4130 O   0  0  0  0  0  1  0  0  0  0  0  0
  191.0620  176.6160  147.5230 N   0  0  0  0  0  2  0  0  0  0  0  0
  192.2070  175.7320  147.3740 C   0  0  0  0  0  2  0  0  0  0  0  0
  193.3310  176.8000  149.1490 O   0  0  0  0  0  0  0  0  0  0  0  0
  193.0200  175.7420  148.6250 C   0  0  0  0  0  3  0  0  0  0  0  0
  1 12  1  0  0  0  0
  1  8  1  0  0  0  0
  2  4  1  1  0  0  0
  2  3  1  0  0  0  0
  3 16  1  0  0  0  0
  3  6  2  0  0  0  0
  4 12  2  0  0  0  0
  5  1  2  0  0  0  0
  7 11  1  0  0  0  0
  9 16  1  0  0  0  0
 10  7  2  0  0  0  0
 10 13  1  0  0  0  0
 11 15  1  6  0  0  0
 11  2  1  0  0  0  0
 13  4  1  0  0  0  0
 14 13  2  0  0  0  0
 14  5  1  0  0  0  0
 15  9  1  0  0  0  0
 16 28  1  1  0  0  0
 17  7  1  0  0  0  0
 18 17  1  0  0  0  0
 19 18  1  0  0  0  0
 20 19  1  0  0  0  0
 21 20  1  0  0  0  0
 22 23  1  0  0  0  0
 23 24  1  0  0  0  0
 23 21  1  0  0  0  0
 24 25  1  0  0  0  0
 25 26  1  6  0  0  0
 27 25  1  0  0  0  0
 29 28  1  0  0  0  0
 29 31  1  0  0  0  0
 31 30  2  0  0  0  0
M  END
>  <MODEL>
1

>  <REMARK>
 VINA RESULT:      -7.9      0.000      0.000
  Name = 
  11 active torsions:
  status: ('A' for Active; 'I' for Inactive)
    1  A    between atoms: C_1  and  C_24
    2  A    between atoms: C_3  and  C_9
    3  A    between atoms: C_3  and  C_22
    4  A    between atoms: C_7  and  C_9
    5  A    between atoms: C_7  and  O_23
    6  A    between atoms: C_15  and  O_23
    7  A    between atoms: C_18  and  C_26
    8  A    between atoms: N_19  and  C_22
    9  A    between atoms: N_19  and  C_24
   10  A    between atoms: C_26  and  N_31
   11  A    between atoms: C_30  and  N_31
                            x       y       z     vdW  Elec       q    Type
                         _______ _______ _______ _____ _____    ______ ____

>  <TORSDO>
F 11

$$$$
=
 OpenBabel11052412583D

 31 33  0  0  1  0  0  0  0  0999 V2000
  190.8680  176.7480  146.8060 C   0  0  0  0  0  0  0  0  0  0  0  0
  189.0310  177.8140  143.6190 C   0  0  2  0  0  3  0  0  0  0  0  0
  189.8800  177.2270  142.5150 C   0  0  0  0  0  0  0  0  0  0  0  0
  189.3240  177.3770  145.0380 C   0  0  0  0  0  0  0  0  0  0  0  0
  189.8380  176.8440  147.7460 C   0  0  0  0  0  3  0  0  0  0  0  0
  190.7320  176.3760  142.7300 O   0  0  0  0  0  0  0  0  0  0  0  0
  186.6250  178.0370  144.3510 C   0  0  0  0  0  0  0  0  0  0  0  0
  192.1770  176.3760  147.2210 N   0  0  0  0  0  1  0  0  0  0  0  0
  188.1010  177.6020  140.8100 C   0  0  0  0  0  2  0  0  0  0  0  0
  186.9890  177.9370  145.6000 N   0  0  0  0  0  0  0  0  0  0  0  0
  187.5560  177.5870  143.2540 C   0  0  1  0  0  3  0  0  0  0  0  0
  190.6170  177.0340  145.4630 C   0  0  0  0  0  3  0  0  0  0  0  0
  188.2970  177.4980  145.9950 C   0  0  0  0  0  0  0  0  0  0  0  0
  188.5550  177.2260  147.3410 C   0  0  0  0  0  3  0  0  0  0  0  0
  187.2520  178.2500  141.9090 C   0  0  0  0  0  2  0  0  0  0  0  0
  189.6000  177.7150  141.1160 C   0  0  2  0  0  3  0  0  0  0  0  0
  185.3410  178.4780  144.0230 O   0  0  0  0  0  0  0  0  0  0  0  0
  184.3470  178.7390  145.0060 C   0  0  0  0  0  2  0  0  0  0  0  0
  182.9860  178.8850  144.3460 C   0  0  0  0  0  2  0  0  0  0  0  0
  183.1130  178.9520  142.8290 C   0  0  0  0  0  2  0  0  0  0  0  0
  181.7880  178.6550  142.1410 C   0  0  0  0  0  2  0  0  0  0  0  0
  181.2500  179.6090  140.0880 C   0  0  0  0  0  1  0  0  0  0  0  0
  181.9840  178.5210  140.7070 N   0  0  0  0  0  0  0  0  0  0  0  0
  183.3950  178.7780  140.4470 C   0  0  0  0  0  2  0  0  0  0  0  0
  183.6290  179.1790  138.9930 C   0  0  2  0  0  3  0  0  0  0  0  0
  184.4330  178.1230  138.2590 C   0  0  0  0  0  1  0  0  0  0  0  0
  184.2840  180.4090  138.9230 O   0  0  0  0  0  1  0  0  0  0  0  0
  190.3590  176.9580  140.1310 N   0  0  0  0  0  2  0  0  0  0  0  0
  189.6450  177.0630  138.8690 C   0  0  0  0  0  2  0  0  0  0  0  0
  190.8080  175.0760  138.3640 O   0  0  0  0  0  0  0  0  0  0  0  0
  189.9920  175.9050  137.9930 C   0  0  0  0  0  3  0  0  0  0  0  0
  1  8  1  0  0  0  0
  1  5  1  0  0  0  0
  2  3  1  6  0  0  0
  2  4  1  0  0  0  0
  3  6  2  0  0  0  0
  4 12  1  0  0  0  0
  4 13  2  0  0  0  0
  7 10  2  0  0  0  0
  9 16  1  0  0  0  0
  9 15  1  0  0  0  0
 10 13  1  0  0  0  0
 11 15  1  6  0  0  0
 11  2  1  0  0  0  0
 11  7  1  0  0  0  0
 12  1  2  0  0  0  0
 13 14  1  0  0  0  0
 14  5  2  0  0  0  0
 16 28  1  6  0  0  0
 16  3  1  0  0  0  0
 17  7  1  0  0  0  0
 17 18  1  0  0  0  0
 19 18  1  0  0  0  0
 20 19  1  0  0  0  0
 21 20  1  0  0  0  0
 22 23  1  0  0  0  0
 23 21  1  0  0  0  0
 24 23  1  0  0  0  0
 25 26  1  1  0  0  0
 25 24  1  0  0  0  0
 27 25  1  0  0  0  0
 29 28  1  0  0  0  0
 31 30  2  0  0  0  0
 31 29  1  0  0  0  0
M  END
>  <MODEL>
2

>  <REMARK>
 VINA RESULT:      -7.8      2.407      6.517
  Name = 
  11 active torsions:
  status: ('A' for Active; 'I' for Inactive)
    1  A    between atoms: C_1  and  C_24
    2  A    between atoms: C_3  and  C_9
    3  A    between atoms: C_3  and  C_22
    4  A    between atoms: C_7  and  C_9
    5  A    between atoms: C_7  and  O_23
    6  A    between atoms: C_15  and  O_23
    7  A    between atoms: C_18  and  C_26
    8  A    between atoms: N_19  and  C_22
    9  A    between atoms: N_19  and  C_24
   10  A    between atoms: C_26  and  N_31
   11  A    between atoms: C_30  and  N_31
                            x       y       z     vdW  Elec       q    Type
                         _______ _______ _______ _____ _____    ______ ____

>  <TORSDO>
F 11

$$$$
=
 OpenBabel11052412583D

 31 33  0  0  1  0  0  0  0  0999 V2000
  191.6190  176.4630  138.2050 C   0  0  0  0  0  0  0  0  0  0  0  0
  189.6740  176.9920  141.4610 C   0  0  2  0  0  3  0  0  0  0  0  0
  190.7320  176.8320  142.5290 C   0  0  0  0  0  0  0  0  0  0  0  0
  190.1370  177.0940  140.0240 C   0  0  0  0  0  0  0  0  0  0  0  0
  190.7780  177.1040  137.2910 C   0  0  0  0  0  3  0  0  0  0  0  0
  191.9280  176.8510  142.2700 O   0  0  0  0  0  0  0  0  0  0  0  0
  187.7620  178.4980  140.7880 C   0  0  0  0  0  0  0  0  0  0  0  0
  192.8040  175.8190  137.7510 N   0  0  0  0  0  1  0  0  0  0  0  0
  189.2540  177.8080  144.2820 C   0  0  0  0  0  2  0  0  0  0  0  0
  188.0480  178.3090  139.5300 N   0  0  0  0  0  0  0  0  0  0  0  0
  188.7840  178.1820  141.8520 C   0  0  1  0  0  3  0  0  0  0  0  0
  191.2900  176.4400  139.5620 C   0  0  0  0  0  3  0  0  0  0  0  0
  189.2790  177.7150  139.0940 C   0  0  0  0  0  0  0  0  0  0  0  0
  189.6060  177.7230  137.7350 C   0  0  0  0  0  3  0  0  0  0  0  0
  188.1540  177.9250  143.2220 C   0  0  0  0  0  2  0  0  0  0  0  0
  190.2420  176.6830  143.9470 C   0  0  2  0  0  3  0  0  0  0  0  0
  186.5440  179.0750  141.1570 O   0  0  0  0  0  0  0  0  0  0  0  0
  185.3160  178.7370  140.5260 C   0  0  0  0  0  2  0  0  0  0  0  0
  184.1580  178.9590  141.4850 C   0  0  0  0  0  2  0  0  0  0  0  0
  184.4890  178.4370  142.8780 C   0  0  0  0  0  2  0  0  0  0  0  0
  184.6380  179.5710  143.8820 C   0  0  0  0  0  2  0  0  0  0  0  0
  182.5260  178.7400  144.3960 C   0  0  0  0  0  1  0  0  0  0  0  0
  183.6780  179.4170  144.9630 N   0  0  0  0  0  0  0  0  0  0  0  0
  184.2670  178.4920  145.9220 C   0  0  0  0  0  2  0  0  0  0  0  0
  185.7100  178.8700  146.2460 C   0  0  2  0  0  3  0  0  0  0  0  0
  186.5470  177.6350  146.5240 C   0  0  0  0  0  1  0  0  0  0  0  0
  185.7570  179.7320  147.3410 O   0  0  0  0  0  1  0  0  0  0  0  0
  191.3490  176.7070  144.8930 N   0  0  0  0  0  2  0  0  0  0  0  0
  190.7870  177.0060  146.2000 C   0  0  0  0  0  2  0  0  0  0  0  0
  192.4370  175.5050  146.9630 O   0  0  0  0  0  0  0  0  0  0  0  0
  191.5920  176.3350  147.2630 C   0  0  0  0  0  3  0  0  0  0  0  0
  1 12  1  0  0  0  0
  2  4  1  6  0  0  0
  2 11  1  0  0  0  0
  2  3  1  0  0  0  0
  3 16  1  0  0  0  0
  5 14  1  0  0  0  0
  5  1  2  0  0  0  0
  6  3  2  0  0  0  0
  7 17  1  0  0  0  0
  7 11  1  0  0  0  0
  8  1  1  0  0  0  0
 10  7  2  0  0  0  0
 11 15  1  1  0  0  0
 12  4  2  0  0  0  0
 13 10  1  0  0  0  0
 13  4  1  0  0  0  0
 14 13  2  0  0  0  0
 15  9  1  0  0  0  0
 16  9  1  0  0  0  0
 16 28  1  1  0  0  0
 18 17  1  0  0  0  0
 18 19  1  0  0  0  0
 19 20  1  0  0  0  0
 20 21  1  0  0  0  0
 21 23  1  0  0  0  0
 22 23  1  0  0  0  0
 23 24  1  0  0  0  0
 24 25  1  0  0  0  0
 25 26  1  1  0  0  0
 25 27  1  0  0  0  0
 28 29  1  0  0  0  0
 29 31  1  0  0  0  0
 30 31  2  0  0  0  0
M  END
>  <MODEL>
3

>  <REMARK>
 VINA RESULT:      -7.7      2.002      6.661
  Name = 
  11 active torsions:
  status: ('A' for Active; 'I' for Inactive)
    1  A    between atoms: C_1  and  C_24
    2  A    between atoms: C_3  and  C_9
    3  A    between atoms: C_3  and  C_22
    4  A    between atoms: C_7  and  C_9
    5  A    between atoms: C_7  and  O_23
    6  A    between atoms: C_15  and  O_23
    7  A    between atoms: C_18  and  C_26
    8  A    between atoms: N_19  and  C_22
    9  A    between atoms: N_19  and  C_24
   10  A    between atoms: C_26  and  N_31
   11  A    between atoms: C_30  and  N_31
                            x       y       z     vdW  Elec       q    Type
                         _______ _______ _______ _____ _____    ______ ____

>  <TORSDO>
F 11

$$$$
=
 OpenBabel11052412583D

 31 33  0  0  1  0  0  0  0  0999 V2000
  188.2350  177.6940  147.8220 C   0  0  0  0  0  0  0  0  0  0  0  0
  186.4220  177.7640  144.4490 C   0  0  2  0  0  3  0  0  0  0  0  0
  185.1870  178.5880  144.7350 C   0  0  0  0  0  0  0  0  0  0  0  0
  187.5070  177.7370  145.5040 C   0  0  0  0  0  0  0  0  0  0  0  0
  189.5390  177.4010  147.4110 C   0  0  0  0  0  3  0  0  0  0  0  0
  185.0770  179.2700  145.7450 O   0  0  0  0  0  0  0  0  0  0  0  0
  188.2790  177.5160  142.7570 C   0  0  0  0  0  0  0  0  0  0  0  0
  187.9390  177.8260  149.2070 N   0  0  0  0  0  1  0  0  0  0  0  0
  184.6910  178.8710  142.3090 C   0  0  0  0  0  2  0  0  0  0  0  0
  189.1160  177.2120  143.7090 N   0  0  0  0  0  0  0  0  0  0  0  0
  186.9750  178.2000  143.0840 C   0  0  1  0  0  3  0  0  0  0  0  0
  187.2210  177.8400  146.8740 C   0  0  0  0  0  3  0  0  0  0  0  0
  188.8180  177.4150  145.0980 C   0  0  0  0  0  0  0  0  0  0  0  0
  189.8270  177.2550  146.0510 C   0  0  0  0  0  3  0  0  0  0  0  0
  185.9090  177.9920  142.0070 C   0  0  0  0  0  2  0  0  0  0  0  0
  184.1000  178.5590  143.6900 C   0  0  2  0  0  3  0  0  0  0  0  0
  188.6180  177.2900  141.4200 O   0  0  0  0  0  0  0  0  0  0  0  0
  189.9490  177.0130  141.0060 C   0  0  0  0  0  2  0  0  0  0  0  0
  190.1470  177.4450  139.5620 C   0  0  0  0  0  2  0  0  0  0  0  0
  189.0310  178.3790  139.1080 C   0  0  0  0  0  2  0  0  0  0  0  0
  188.6710  178.1540  137.6470 C   0  0  0  0  0  2  0  0  0  0  0  0
  187.1540  178.6460  135.9520 C   0  0  0  0  0  1  0  0  0  0  0  0
  187.3030  178.5770  137.3940 N   0  0  0  0  0  0  0  0  0  0  0  0
  186.4360  177.4960  137.8450 C   0  0  0  0  0  2  0  0  0  0  0  0
  185.1500  178.0360  138.4640 C   0  0  2  0  0  3  0  0  0  0  0  0
  183.9590  177.7730  137.5620 C   0  0  0  0  0  1  0  0  0  0  0  0
  185.2630  179.4030  138.7160 O   0  0  0  0  0  1  0  0  0  0  0  0
  183.0470  179.5160  143.9990 N   0  0  0  0  0  2  0  0  0  0  0  0
  181.7890  178.7870  143.9750 C   0  0  0  0  0  2  0  0  0  0  0  0
  179.9450  178.6620  142.5120 O   0  0  0  0  0  0  0  0  0  0  0  0
  180.9330  179.2900  142.8610 C   0  0  0  0  0  3  0  0  0  0  0  0
  1  8  1  0  0  0  0
  2  3  1  1  0  0  0
  2  4  1  0  0  0  0
  3  6  2  0  0  0  0
  4 12  1  0  0  0  0
  5  1  1  0  0  0  0
  7 11  1  0  0  0  0
  7 10  2  0  0  0  0
  9 16  1  0  0  0  0
 10 13  1  0  0  0  0
 11 15  1  6  0  0  0
 11  2  1  0  0  0  0
 12  1  2  0  0  0  0
 13  4  2  0  0  0  0
 13 14  1  0  0  0  0
 14  5  2  0  0  0  0
 15  9  1  0  0  0  0
 16 28  1  1  0  0  0
 16  3  1  0  0  0  0
 17  7  1  0  0  0  0
 18 17  1  0  0  0  0
 19 18  1  0  0  0  0
 20 19  1  0  0  0  0
 21 20  1  0  0  0  0
 22 23  1  0  0  0  0
 23 21  1  0  0  0  0
 23 24  1  0  0  0  0
 24 25  1  0  0  0  0
 25 26  1  6  0  0  0
 25 27  1  0  0  0  0
 29 28  1  0  0  0  0
 30 31  2  0  0  0  0
 31 29  1  0  0  0  0
M  END
>  <MODEL>
4

>  <REMARK>
 VINA RESULT:      -7.6      2.587      5.699
  Name = 
  11 active torsions:
  status: ('A' for Active; 'I' for Inactive)
    1  A    between atoms: C_1  and  C_24
    2  A    between atoms: C_3  and  C_9
    3  A    between atoms: C_3  and  C_22
    4  A    between atoms: C_7  and  C_9
    5  A    between atoms: C_7  and  O_23
    6  A    between atoms: C_15  and  O_23
    7  A    between atoms: C_18  and  C_26
    8  A    between atoms: N_19  and  C_22
    9  A    between atoms: N_19  and  C_24
   10  A    between atoms: C_26  and  N_31
   11  A    between atoms: C_30  and  N_31
                            x       y       z     vdW  Elec       q    Type
                         _______ _______ _______ _____ _____    ______ ____

>  <TORSDO>
F 11

$$$$
=
 OpenBabel11052412583D

 31 33  0  0  1  0  0  0  0  0999 V2000
  181.5360  179.0820  141.6510 C   0  0  0  0  0  0  0  0  0  0  0  0
  185.2490  178.1520  141.7660 C   0  0  2  0  0  3  0  0  0  0  0  0
  185.7610  178.5910  140.4130 C   0  0  0  0  0  0  0  0  0  0  0  0
  183.8600  178.5950  142.1690 C   0  0  0  0  0  0  0  0  0  0  0  0
  181.2410  179.1480  143.0150 C   0  0  0  0  0  3  0  0  0  0  0  0
  185.1190  179.3350  139.6830 O   0  0  0  0  0  0  0  0  0  0  0  0
  185.8250  178.2580  144.2220 C   0  0  0  0  0  0  0  0  0  0  0  0
  180.5100  179.3000  140.6900 N   0  0  0  0  0  1  0  0  0  0  0  0
  188.1380  178.3880  141.1320 C   0  0  0  0  0  2  0  0  0  0  0  0
  184.5600  178.3520  144.5210 N   0  0  0  0  0  0  0  0  0  0  0  0
  186.2950  178.5520  142.8190 C   0  0  1  0  0  3  0  0  0  0  0  0
  182.8340  178.7870  141.2300 C   0  0  0  0  0  3  0  0  0  0  0  0
  183.5490  178.6360  143.5430 C   0  0  0  0  0  0  0  0  0  0  0  0
  182.2450  178.9180  143.9600 C   0  0  0  0  0  3  0  0  0  0  0  0
  187.6340  177.8890  142.4910 C   0  0  0  0  0  2  0  0  0  0  0  0
  187.1280  178.0970  140.0150 C   0  0  2  0  0  3  0  0  0  0  0  0
  186.7670  177.9720  145.2140 O   0  0  0  0  0  0  0  0  0  0  0  0
  186.4240  177.8840  146.5910 C   0  0  0  0  0  2  0  0  0  0  0  0
  187.6830  177.8610  147.4410 C   0  0  0  0  0  2  0  0  0  0  0  0
  188.9350  177.9290  146.5750 C   0  0  0  0  0  2  0  0  0  0  0  0
  189.9360  176.8450  146.9490 C   0  0  0  0  0  2  0  0  0  0  0  0
  192.0970  176.0220  146.6930 C   0  0  0  0  0  1  0  0  0  0  0  0
  191.1560  176.9960  146.1730 N   0  0  0  0  0  0  0  0  0  0  0  0
  190.8450  176.5810  144.8110 C   0  0  0  0  0  2  0  0  0  0  0  0
  191.6020  177.4210  143.7870 C   0  0  2  0  0  3  0  0  0  0  0  0
  191.4590  178.9020  144.0840 C   0  0  0  0  0  1  0  0  0  0  0  0
  191.1480  177.1490  142.4970 O   0  0  0  0  0  1  0  0  0  0  0  0
  187.5750  178.7190  138.7770 N   0  0  0  0  0  2  0  0  0  0  0  0
  188.9460  178.2890  138.5530 C   0  0  0  0  0  2  0  0  0  0  0  0
  188.4560  176.9870  136.6500 O   0  0  0  0  0  0  0  0  0  0  0  0
  188.9560  177.0220  137.7640 C   0  0  0  0  0  3  0  0  0  0  0  0
  1  5  1  0  0  0  0
  2  3  1  6  0  0  0
  2  4  1  0  0  0  0
  2 11  1  0  0  0  0
  4 13  2  0  0  0  0
  5 14  2  0  0  0  0
  6  3  2  0  0  0  0
  7 10  2  0  0  0  0
  7 17  1  0  0  0  0
  8  1  1  0  0  0  0
  9 15  1  0  0  0  0
 11 15  1  6  0  0  0
 11  7  1  0  0  0  0
 12  1  2  0  0  0  0
 12  4  1  0  0  0  0
 13 14  1  0  0  0  0
 13 10  1  0  0  0  0
 16 28  1  6  0  0  0
 16  3  1  0  0  0  0
 16  9  1  0  0  0  0
 17 18  1  0  0  0  0
 18 19  1  0  0  0  0
 20 21  1  0  0  0  0
 20 19  1  0  0  0  0
 23 22  1  0  0  0  0
 23 21  1  0  0  0  0
 24 23  1  0  0  0  0
 25 26  1  1  0  0  0
 25 24  1  0  0  0  0
 27 25  1  0  0  0  0
 29 28  1  0  0  0  0
 30 31  2  0  0  0  0
 31 29  1  0  0  0  0
M  END
>  <MODEL>
5

>  <REMARK>
 VINA RESULT:      -7.5      2.321      7.560
  Name = 
  11 active torsions:
  status: ('A' for Active; 'I' for Inactive)
    1  A    between atoms: C_1  and  C_24
    2  A    between atoms: C_3  and  C_9
    3  A    between atoms: C_3  and  C_22
    4  A    between atoms: C_7  and  C_9
    5  A    between atoms: C_7  and  O_23
    6  A    between atoms: C_15  and  O_23
    7  A    between atoms: C_18  and  C_26
    8  A    between atoms: N_19  and  C_22
    9  A    between atoms: N_19  and  C_24
   10  A    between atoms: C_26  and  N_31
   11  A    between atoms: C_30  and  N_31
                            x       y       z     vdW  Elec       q    Type
                         _______ _______ _______ _____ _____    ______ ____

>  <TORSDO>
F 11

$$$$
=
 OpenBabel11052412583D

 31 33  0  0  1  0  0  0  0  0999 V2000
  190.6210  177.3780  140.4380 C   0  0  0  0  0  0  0  0  0  0  0  0
  189.1730  176.9570  143.9580 C   0  0  2  0  0  3  0  0  0  0  0  0
  190.3930  177.0260  144.8470 C   0  0  0  0  0  0  0  0  0  0  0  0
  189.3420  177.3380  142.5030 C   0  0  0  0  0  0  0  0  0  0  0  0
  189.4910  177.8150  139.7410 C   0  0  0  0  0  3  0  0  0  0  0  0
  191.4720  177.4390  144.4430 O   0  0  0  0  0  0  0  0  0  0  0  0
  186.8230  177.8580  143.7590 C   0  0  0  0  0  0  0  0  0  0  0  0
  191.8490  177.1790  139.7480 N   0  0  0  0  0  1  0  0  0  0  0  0
  189.0070  177.3210  146.8980 C   0  0  0  0  0  2  0  0  0  0  0  0
  186.9390  177.8920  142.4610 N   0  0  0  0  0  0  0  0  0  0  0  0
  188.0540  177.7700  144.6260 C   0  0  1  0  0  3  0  0  0  0  0  0
  190.5420  177.1210  141.8080 C   0  0  0  0  0  3  0  0  0  0  0  0
  188.1990  177.7520  141.7890 C   0  0  0  0  0  0  0  0  0  0  0  0
  188.2800  177.9950  140.4160 C   0  0  0  0  0  3  0  0  0  0  0  0
  187.7610  177.1970  146.0150 C   0  0  0  0  0  2  0  0  0  0  0  0
  190.2100  176.5950  146.2800 C   0  0  2  0  0  3  0  0  0  0  0  0
  185.5690  177.9920  144.3610 O   0  0  0  0  0  0  0  0  0  0  0  0
  184.8020  179.1860  144.2710 C   0  0  0  0  0  2  0  0  0  0  0  0
  183.5390  179.0570  145.1070 C   0  0  0  0  0  2  0  0  0  0  0  0
  182.3470  178.6540  144.2460 C   0  0  0  0  0  2  0  0  0  0  0  0
  182.5550  179.0300  142.7860 C   0  0  0  0  0  2  0  0  0  0  0  0
  180.3930  179.7670  142.3420 C   0  0  0  0  0  1  0  0  0  0  0  0
  181.3590  178.7340  142.0150 N   0  0  0  0  0  0  0  0  0  0  0  0
  181.7040  178.9240  140.6120 C   0  0  0  0  0  2  0  0  0  0  0  0
  183.1900  178.6790  140.3660 C   0  0  2  0  0  3  0  0  0  0  0  0
  183.7110  179.5650  139.2490 C   0  0  0  0  0  1  0  0  0  0  0  0
  183.4220  177.3390  140.0560 O   0  0  0  0  0  1  0  0  0  0  0  0
  191.4030  176.8660  147.0700 N   0  0  0  0  0  2  0  0  0  0  0  0
  192.1110  175.6050  147.2190 C   0  0  0  0  0  2  0  0  0  0  0  0
  193.1260  176.7090  149.0380 O   0  0  0  0  0  0  0  0  0  0  0  0
  193.0510  175.6860  148.3760 C   0  0  0  0  0  3  0  0  0  0  0  0
  1 12  1  0  0  0  0
  2  4  1  6  0  0  0
  2 11  1  0  0  0  0
  2  3  1  0  0  0  0
  3 16  1  0  0  0  0
  5 14  1  0  0  0  0
  5  1  2  0  0  0  0
  6  3  2  0  0  0  0
  7 17  1  0  0  0  0
  7 11  1  0  0  0  0
  8  1  1  0  0  0  0
 10  7  2  0  0  0  0
 11 15  1  1  0  0  0
 12  4  2  0  0  0  0
 13 10  1  0  0  0  0
 13  4  1  0  0  0  0
 14 13  2  0  0  0  0
 15  9  1  0  0  0  0
 16  9  1  0  0  0  0
 16 28  1  1  0  0  0
 18 17  1  0  0  0  0
 18 19  1  0  0  0  0
 20 19  1  0  0  0  0
 21 20  1  0  0  0  0
 23 22  1  0  0  0  0
 23 21  1  0  0  0  0
 24 23  1  0  0  0  0
 25 26  1  6  0  0  0
 25 24  1  0  0  0  0
 27 25  1  0  0  0  0
 28 29  1  0  0  0  0
 29 31  1  0  0  0  0
 31 30  2  0  0  0  0
M  END
>  <MODEL>
6

>  <REMARK>
 VINA RESULT:      -7.4      2.473      5.628
  Name = 
  11 active torsions:
  status: ('A' for Active; 'I' for Inactive)
    1  A    between atoms: C_1  and  C_24
    2  A    between atoms: C_3  and  C_9
    3  A    between atoms: C_3  and  C_22
    4  A    between atoms: C_7  and  C_9
    5  A    between atoms: C_7  and  O_23
    6  A    between atoms: C_15  and  O_23
    7  A    between atoms: C_18  and  C_26
    8  A    between atoms: N_19  and  C_22
    9  A    between atoms: N_19  and  C_24
   10  A    between atoms: C_26  and  N_31
   11  A    between atoms: C_30  and  N_31
                            x       y       z     vdW  Elec       q    Type
                         _______ _______ _______ _____ _____    ______ ____

>  <TORSDO>
F 11

$$$$
=
 OpenBabel11052412583D

 31 33  0  0  1  0  0  0  0  0999 V2000
  190.5130  176.9870  146.9930 C   0  0  0  0  0  0  0  0  0  0  0  0
  189.1360  177.8670  143.5300 C   0  0  2  0  0  3  0  0  0  0  0  0
  190.1930  177.3370  142.5890 C   0  0  0  0  0  0  0  0  0  0  0  0
  189.2300  177.4710  144.9870 C   0  0  0  0  0  0  0  0  0  0  0  0
  189.3410  177.0110  147.7540 C   0  0  0  0  0  3  0  0  0  0  0  0
  191.0620  176.5580  142.9580 O   0  0  0  0  0  0  0  0  0  0  0  0
  186.6330  177.9070  143.8640 C   0  0  0  0  0  0  0  0  0  0  0  0
  191.7630  176.7250  147.6200 N   0  0  0  0  0  1  0  0  0  0  0  0
  188.6880  177.5500  140.6140 C   0  0  0  0  0  2  0  0  0  0  0  0
  186.7990  177.8510  145.1570 N   0  0  0  0  0  0  0  0  0  0  0  0
  187.7600  177.5190  142.9400 C   0  0  1  0  0  3  0  0  0  0  0  0
  190.4600  177.2360  145.6200 C   0  0  0  0  0  3  0  0  0  0  0  0
  188.0560  177.5210  145.7650 C   0  0  0  0  0  0  0  0  0  0  0  0
  188.1150  177.2860  147.1410 C   0  0  0  0  0  3  0  0  0  0  0  0
  187.6260  178.1410  141.5480 C   0  0  0  0  0  2  0  0  0  0  0  0
  190.1050  177.7850  141.1520 C   0  0  2  0  0  3  0  0  0  0  0  0
  185.3880  178.2410  143.3250 O   0  0  0  0  0  0  0  0  0  0  0  0
  184.7500  179.4840  143.5880 C   0  0  0  0  0  2  0  0  0  0  0  0
  183.7710  179.3330  144.7420 C   0  0  0  0  0  2  0  0  0  0  0  0
  182.4990  178.6210  144.2960 C   0  0  0  0  0  2  0  0  0  0  0  0
  181.8360  179.3360  143.1270 C   0  0  0  0  0  2  0  0  0  0  0  0
  179.5800  179.1540  143.6690 C   0  0  0  0  0  1  0  0  0  0  0  0
  180.6000  178.6630  142.7610 N   0  0  0  0  0  0  0  0  0  0  0  0
  180.2350  179.1420  141.4350 C   0  0  0  0  0  2  0  0  0  0  0  0
  180.3250  178.0270  140.3960 C   0  0  2  0  0  3  0  0  0  0  0  0
  179.6540  176.7610  140.8960 C   0  0  0  0  0  1  0  0  0  0  0  0
  181.6560  177.7640  140.0720 O   0  0  0  0  0  1  0  0  0  0  0  0
  191.0680  177.0800  140.3190 N   0  0  0  0  0  2  0  0  0  0  0  0
  190.3130  176.3780  139.2940 C   0  0  0  0  0  2  0  0  0  0  0  0
  190.9870  174.6090  137.8890 O   0  0  0  0  0  0  0  0  0  0  0  0
  191.2490  175.7130  138.3400 C   0  0  0  0  0  3  0  0  0  0  0  0
  1  8  1  0  0  0  0
  1  5  1  0  0  0  0
  2  3  1  6  0  0  0
  2  4  1  0  0  0  0
  3  6  2  0  0  0  0
  4 12  1  0  0  0  0
  4 13  2  0  0  0  0
  7 10  2  0  0  0  0
  9 16  1  0  0  0  0
  9 15  1  0  0  0  0
 10 13  1  0  0  0  0
 11 15  1  6  0  0  0
 11  2  1  0  0  0  0
 11  7  1  0  0  0  0
 12  1  2  0  0  0  0
 13 14  1  0  0  0  0
 14  5  2  0  0  0  0
 16 28  1  6  0  0  0
 16  3  1  0  0  0  0
 17 18  1  0  0  0  0
 17  7  1  0  0  0  0
 18 19  1  0  0  0  0
 20 19  1  0  0  0  0
 21 20  1  0  0  0  0
 23 21  1  0  0  0  0
 23 22  1  0  0  0  0
 24 23  1  0  0  0  0
 25 26  1  1  0  0  0
 25 24  1  0  0  0  0
 27 25  1  0  0  0  0
 29 28  1  0  0  0  0
 30 31  2  0  0  0  0
 31 29  1  0  0  0  0
M  END
>  <MODEL>
7

>  <REMARK>
 VINA RESULT:      -7.3      3.063      7.036
  Name = 
  11 active torsions:
  status: ('A' for Active; 'I' for Inactive)
    1  A    between atoms: C_1  and  C_24
    2  A    between atoms: C_3  and  C_9
    3  A    between atoms: C_3  and  C_22
    4  A    between atoms: C_7  and  C_9
    5  A    between atoms: C_7  and  O_23
    6  A    between atoms: C_15  and  O_23
    7  A    between atoms: C_18  and  C_26
    8  A    between atoms: N_19  and  C_22
    9  A    between atoms: N_19  and  C_24
   10  A    between atoms: C_26  and  N_31
   11  A    between atoms: C_30  and  N_31
                            x       y       z     vdW  Elec       q    Type
                         _______ _______ _______ _____ _____    ______ ____

>  <TORSDO>
F 11

$$$$
=
 OpenBabel11052412583D

 31 33  0  0  1  0  0  0  0  0999 V2000
  188.1400  177.7100  147.4390 C   0  0  0  0  0  0  0  0  0  0  0  0
  186.0650  177.8780  144.2240 C   0  0  2  0  0  3  0  0  0  0  0  0
  184.8110  178.6040  144.6560 C   0  0  0  0  0  0  0  0  0  0  0  0
  187.2290  177.8520  145.1900 C   0  0  0  0  0  0  0  0  0  0  0  0
  189.4210  177.5240  146.9130 C   0  0  0  0  0  3  0  0  0  0  0  0
  184.7440  179.2150  145.7150 O   0  0  0  0  0  0  0  0  0  0  0  0
  187.7930  177.8490  142.3840 C   0  0  0  0  0  0  0  0  0  0  0  0
  187.9460  177.7370  148.8480 N   0  0  0  0  0  1  0  0  0  0  0  0
  184.1100  179.0070  142.2980 C   0  0  0  0  0  2  0  0  0  0  0  0
  188.7190  177.5390  143.2490 N   0  0  0  0  0  0  0  0  0  0  0  0
  186.4830  178.4310  142.8530 C   0  0  1  0  0  3  0  0  0  0  0  0
  187.0460  177.8520  146.5820 C   0  0  0  0  0  3  0  0  0  0  0  0
  188.5200  177.6360  144.6670 C   0  0  0  0  0  0  0  0  0  0  0  0
  189.6090  177.4790  145.5280 C   0  0  0  0  0  3  0  0  0  0  0  0
  185.3490  178.2240  141.8480 C   0  0  0  0  0  2  0  0  0  0  0  0
  183.6490  178.5740  143.6960 C   0  0  2  0  0  3  0  0  0  0  0  0
  188.0380  177.7280  141.0140 O   0  0  0  0  0  0  0  0  0  0  0  0
  189.3470  177.7990  140.4620 C   0  0  0  0  0  2  0  0  0  0  0  0
  189.2930  177.5670  138.9610 C   0  0  0  0  0  2  0  0  0  0  0  0
  189.0540  178.8720  138.2090 C   0  0  0  0  0  2  0  0  0  0  0  0
  188.0990  178.6800  137.0410 C   0  0  0  0  0  2  0  0  0  0  0  0
  186.0090  178.0380  137.8370 C   0  0  0  0  0  1  0  0  0  0  0  0
  187.2440  177.5270  137.2730 N   0  0  0  0  0  0  0  0  0  0  0  0
  186.9040  176.9820  135.9650 C   0  0  0  0  0  2  0  0  0  0  0  0
  187.7050  175.7190  135.6630 C   0  0  2  0  0  3  0  0  0  0  0  0
  187.7500  174.8000  136.8700 C   0  0  0  0  0  1  0  0  0  0  0  0
  189.0010  176.0430  135.2640 O   0  0  0  0  0  1  0  0  0  0  0  0
  182.5710  179.4430  144.1460 N   0  0  0  0  0  2  0  0  0  0  0  0
  181.4480  179.2300  143.2480 C   0  0  0  0  0  2  0  0  0  0  0  0
  179.2860  178.3040  143.4100 O   0  0  0  0  0  0  0  0  0  0  0  0
  180.3480  178.5260  143.9700 C   0  0  0  0  0  3  0  0  0  0  0  0
  1  8  1  0  0  0  0
  2  3  1  1  0  0  0
  2  4  1  0  0  0  0
  3  6  2  0  0  0  0
  4 12  1  0  0  0  0
  5  1  1  0  0  0  0
  7 11  1  0  0  0  0
  7 10  2  0  0  0  0
  9 16  1  0  0  0  0
 10 13  1  0  0  0  0
 11 15  1  6  0  0  0
 11  2  1  0  0  0  0
 12  1  2  0  0  0  0
 13  4  2  0  0  0  0
 13 14  1  0  0  0  0
 14  5  2  0  0  0  0
 15  9  1  0  0  0  0
 16 28  1  1  0  0  0
 16  3  1  0  0  0  0
 17  7  1  0  0  0  0
 18 17  1  0  0  0  0
 19 18  1  0  0  0  0
 20 19  1  0  0  0  0
 21 23  1  0  0  0  0
 21 20  1  0  0  0  0
 23 22  1  0  0  0  0
 24 23  1  0  0  0  0
 25 24  1  0  0  0  0
 25 26  1  1  0  0  0
 27 25  1  0  0  0  0
 29 31  1  0  0  0  0
 29 28  1  0  0  0  0
 30 31  2  0  0  0  0
M  END
>  <MODEL>
8

>  <REMARK>
 VINA RESULT:      -7.3      2.712      5.939
  Name = 
  11 active torsions:
  status: ('A' for Active; 'I' for Inactive)
    1  A    between atoms: C_1  and  C_24
    2  A    between atoms: C_3  and  C_9
    3  A    between atoms: C_3  and  C_22
    4  A    between atoms: C_7  and  C_9
    5  A    between atoms: C_7  and  O_23
    6  A    between atoms: C_15  and  O_23
    7  A    between atoms: C_18  and  C_26
    8  A    between atoms: N_19  and  C_22
    9  A    between atoms: N_19  and  C_24
   10  A    between atoms: C_26  and  N_31
   11  A    between atoms: C_30  and  N_31
                            x       y       z     vdW  Elec       q    Type
                         _______ _______ _______ _____ _____    ______ ____

>  <TORSDO>
F 11

$$$$
=
 OpenBabel11052412583D

 31 33  0  0  1  0  0  0  0  0999 V2000
  188.2830  177.6910  147.8530 C   0  0  0  0  0  0  0  0  0  0  0  0
  186.4860  177.7270  144.4720 C   0  0  2  0  0  3  0  0  0  0  0  0
  185.2840  178.6070  144.7250 C   0  0  0  0  0  0  0  0  0  0  0  0
  187.5650  177.6900  145.5320 C   0  0  0  0  0  0  0  0  0  0  0  0
  189.5760  177.3340  147.4580 C   0  0  0  0  0  3  0  0  0  0  0  0
  185.1990  179.3260  145.7120 O   0  0  0  0  0  0  0  0  0  0  0  0
  188.3380  177.3500  142.7970 C   0  0  0  0  0  0  0  0  0  0  0  0
  187.9880  177.8790  149.2320 N   0  0  0  0  0  1  0  0  0  0  0  0
  184.8090  178.8330  142.2890 C   0  0  0  0  0  2  0  0  0  0  0  0
  189.1580  177.0440  143.7630 N   0  0  0  0  0  0  0  0  0  0  0  0
  187.0620  178.0970  143.0960 C   0  0  1  0  0  3  0  0  0  0  0  0
  187.2790  177.8480  146.8960 C   0  0  0  0  0  3  0  0  0  0  0  0
  188.8640  177.3030  145.1430 C   0  0  0  0  0  0  0  0  0  0  0  0
  189.8630  177.1320  146.1050 C   0  0  0  0  0  3  0  0  0  0  0  0
  185.9920  177.8970  142.0200 C   0  0  0  0  0  2  0  0  0  0  0  0
  184.2010  178.5900  143.6760 C   0  0  2  0  0  3  0  0  0  0  0  0
  188.6720  177.0690  141.4690 O   0  0  0  0  0  0  0  0  0  0  0  0
  189.6160  177.8430  140.7390 C   0  0  0  0  0  2  0  0  0  0  0  0
  189.0210  178.2670  139.4060 C   0  0  0  0  0  2  0  0  0  0  0  0
  189.3040  177.2350  138.3210 C   0  0  0  0  0  2  0  0  0  0  0  0
  190.3150  176.1960  138.7850 C   0  0  0  0  0  2  0  0  0  0  0  0
  190.5920  176.3860  136.4830 C   0  0  0  0  0  1  0  0  0  0  0  0
  191.1590  175.7840  137.6750 N   0  0  0  0  0  0  0  0  0  0  0  0
  192.4580  176.4130  137.8750 C   0  0  0  0  0  2  0  0  0  0  0  0
  193.5440  175.7180  137.0590 C   0  0  2  0  0  3  0  0  0  0  0  0
  194.3560  174.7730  137.9240 C   0  0  0  0  0  1  0  0  0  0  0  0
  194.3850  176.6570  136.4620 O   0  0  0  0  0  1  0  0  0  0  0  0
  183.1860  179.5970  143.9490 N   0  0  0  0  0  2  0  0  0  0  0  0
  181.9000  178.9180  143.9490 C   0  0  0  0  0  2  0  0  0  0  0  0
  181.2450  178.9230  141.6850 O   0  0  0  0  0  0  0  0  0  0  0  0
  181.0760  179.3930  142.7990 C   0  0  0  0  0  3  0  0  0  0  0  0
  1  8  1  0  0  0  0
  2  3  1  1  0  0  0
  2  4  1  0  0  0  0
  3  6  2  0  0  0  0
  4 12  1  0  0  0  0
  5  1  1  0  0  0  0
  7 11  1  0  0  0  0
  7 10  2  0  0  0  0
  9 16  1  0  0  0  0
 10 13  1  0  0  0  0
 11 15  1  6  0  0  0
 11  2  1  0  0  0  0
 12  1  2  0  0  0  0
 13  4  2  0  0  0  0
 13 14  1  0  0  0  0
 14  5  2  0  0  0  0
 15  9  1  0  0  0  0
 16 28  1  1  0  0  0
 16  3  1  0  0  0  0
 17  7  1  0  0  0  0
 18 17  1  0  0  0  0
 19 18  1  0  0  0  0
 20 21  1  0  0  0  0
 20 19  1  0  0  0  0
 22 23  1  0  0  0  0
 23 24  1  0  0  0  0
 23 21  1  0  0  0  0
 25 24  1  0  0  0  0
 25 26  1  1  0  0  0
 27 25  1  0  0  0  0
 28 29  1  0  0  0  0
 30 31  2  0  0  0  0
 31 29  1  0  0  0  0
M  END
>  <MODEL>
9

>  <REMARK>
 VINA RESULT:      -7.2      2.796      6.209
  Name = 
  11 active torsions:
  status: ('A' for Active; 'I' for Inactive)
    1  A    between atoms: C_1  and  C_24
    2  A    between atoms: C_3  and  C_9
    3  A    between atoms: C_3  and  C_22
    4  A    between atoms: C_7  and  C_9
    5  A    between atoms: C_7  and  O_23
    6  A    between atoms: C_15  and  O_23
    7  A    between atoms: C_18  and  C_26
    8  A    between atoms: N_19  and  C_22
    9  A    between atoms: N_19  and  C_24
   10  A    between atoms: C_26  and  N_31
   11  A    between atoms: C_30  and  N_31
                            x       y       z     vdW  Elec       q    Type
                         _______ _______ _______ _____ _____    ______ ____

>  <TORSDO>
F 11

$$$$
