=
 OpenBabel11052413543D

 27 31  0  0  1  0  0  0  0  0999 V2000
  190.8500  176.9430  142.7330 C   0  0  0  0  0  3  0  0  0  0  0  0
  188.6770  177.3320  141.6620 N   0  0  0  0  0  0  0  0  0  0  0  0
  188.0020  176.3980  143.8640 C   0  0  0  0  0  2  0  0  0  0  0  0
  188.2710  178.2250  140.7730 N   0  0  0  0  0  0  0  0  0  0  0  0
  190.6630  177.4230  146.3560 C   0  0  2  0  0  3  0  0  0  0  0  0
  189.9240  176.5660  141.6100 C   0  0  1  0  0  3  0  0  0  0  0  0
  186.7590  178.1400  142.4040 C   0  0  0  0  0  0  0  0  0  0  0  0
  190.5100  177.0210  144.0250 C   0  0  0  0  0  0  0  0  0  0  0  0
  187.7870  177.2510  142.6590 C   0  0  0  0  0  0  0  0  0  0  0  0
  189.2360  176.9810  146.0060 C   0  0  0  0  0  2  0  0  0  0  0  0
  187.0960  178.7400  141.1960 C   0  0  0  0  0  3  0  0  0  0  0  0
  191.4910  177.3790  145.0690 C   0  0  0  0  0  2  0  0  0  0  0  0
  189.2060  176.8250  144.5670 N   0  0  0  0  0  0  0  0  0  0  0  0
  185.6860  178.5700  144.6140 C   0  0  0  0  0  3  0  0  0  0  0  0
  183.3110  179.0010  144.8000 C   0  0  0  0  0  3  0  0  0  0  0  0
  183.1810  178.8710  143.4160 C   0  0  0  0  0  3  0  0  0  0  0  0
  184.3020  178.5910  142.6310 C   0  0  0  0  0  3  0  0  0  0  0  0
  185.5650  178.4370  143.2220 C   0  0  0  0  0  0  0  0  0  0  0  0
  184.5640  178.8500  145.4000 C   0  0  0  0  0  3  0  0  0  0  0  0
  191.9240  176.8120  137.8090 C   0  0  0  0  0  3  0  0  0  0  0  0
  190.6020  176.6580  140.2750 C   0  0  0  0  0  0  0  0  0  0  0  0
  191.9320  177.0890  140.2150 C   0  0  0  0  0  3  0  0  0  0  0  0
  192.5910  177.1690  138.9860 C   0  0  0  0  0  3  0  0  0  0  0  0
  190.5980  176.3750  137.8630 C   0  0  0  0  0  3  0  0  0  0  0  0
  189.9370  176.2950  139.0920 C   0  0  0  0  0  3  0  0  0  0  0  0
  192.2780  175.7210  146.7940 O   0  0  0  0  0  1  0  0  0  0  0  0
  191.2700  176.4850  147.3830 C   0  0  0  0  0  2  0  0  0  0  0  0
  1  8  2  0  0  0  0
  2  9  1  0  0  0  0
  3 13  1  0  0  0  0
  4 11  2  0  0  0  0
  4  2  1  0  0  0  0
  5 27  1  1  0  0  0
  6 21  1  6  0  0  0
  6  2  1  0  0  0  0
  6  1  1  0  0  0  0
  7  9  2  0  0  0  0
  7 18  1  0  0  0  0
  8 13  1  0  0  0  0
  8 12  1  0  0  0  0
  9  3  1  0  0  0  0
 10  5  1  0  0  0  0
 11  7  1  0  0  0  0
 12  5  1  0  0  0  0
 13 10  1  0  0  0  0
 14 19  1  0  0  0  0
 15 19  2  0  0  0  0
 16 15  1  0  0  0  0
 17 18  1  0  0  0  0
 17 16  2  0  0  0  0
 18 14  2  0  0  0  0
 20 24  2  0  0  0  0
 20 23  1  0  0  0  0
 22 21  1  0  0  0  0
 23 22  2  0  0  0  0
 24 25  1  0  0  0  0
 25 21  2  0  0  0  0
 26 27  1  0  0  0  0
M  END
>  <MODEL>
1

>  <REMARK>
 VINA RESULT:      -9.6      0.000      0.000
  Name = 
  3 active torsions:
  status: ('A' for Active; 'I' for Inactive)
    1  A    between atoms: C_9  and  C_15
    2  A    between atoms: C_13  and  C_22
    3  A    between atoms: C_14  and  C_17
                            x       y       z     vdW  Elec       q    Type
                         _______ _______ _______ _____ _____    ______ ____

>  <TORSDO>
F 3

$$$$
=
 OpenBabel11052413543D

 27 31  0  0  1  0  0  0  0  0999 V2000
  188.5540  177.3180  138.8120 C   0  0  0  0  0  3  0  0  0  0  0  0
  189.6490  177.0800  140.9950 N   0  0  0  0  0  0  0  0  0  0  0  0
  187.9850  178.8710  141.4490 C   0  0  0  0  0  2  0  0  0  0  0  0
  190.2150  176.0460  141.5970 N   0  0  0  0  0  0  0  0  0  0  0  0
  185.0270  178.2260  139.1740 C   0  0  2  0  0  3  0  0  0  0  0  0
  189.8290  177.4690  139.5940 C   0  0  1  0  0  3  0  0  0  0  0  0
  188.8820  177.0550  143.0660 C   0  0  0  0  0  0  0  0  0  0  0  0
  187.3570  177.7890  139.1820 C   0  0  0  0  0  0  0  0  0  0  0  0
  188.8400  177.7160  141.8520 C   0  0  0  0  0  0  0  0  0  0  0  0
  185.6560  178.8270  140.4370 C   0  0  0  0  0  2  0  0  0  0  0  0
  189.7680  176.0020  142.8710 C   0  0  0  0  0  3  0  0  0  0  0  0
  186.1560  177.6140  138.3410 C   0  0  0  0  0  2  0  0  0  0  0  0
  187.0560  178.4600  140.4040 N   0  0  0  0  0  0  0  0  0  0  0  0
  188.8320  177.4620  145.5270 C   0  0  0  0  0  3  0  0  0  0  0  0
  186.7580  177.9220  146.6880 C   0  0  0  0  0  3  0  0  0  0  0  0
  186.0620  177.8180  145.4820 C   0  0  0  0  0  3  0  0  0  0  0  0
  186.7500  177.5360  144.2990 C   0  0  0  0  0  3  0  0  0  0  0  0
  188.1420  177.3540  144.3100 C   0  0  0  0  0  0  0  0  0  0  0  0
  188.1440  177.7440  146.7110 C   0  0  0  0  0  3  0  0  0  0  0  0
  193.0700  175.4010  137.6630 C   0  0  0  0  0  3  0  0  0  0  0  0
  190.9720  176.7510  138.9390 C   0  0  0  0  0  0  0  0  0  0  0  0
  190.7000  175.6800  138.0800 C   0  0  0  0  0  3  0  0  0  0  0  0
  191.7460  175.0050  137.4440 C   0  0  0  0  0  3  0  0  0  0  0  0
  193.3470  176.4730  138.5150 C   0  0  0  0  0  3  0  0  0  0  0  0
  192.3020  177.1490  139.1510 C   0  0  0  0  0  3  0  0  0  0  0  0
  184.2570  180.4840  139.1110 O   0  0  0  0  0  1  0  0  0  0  0  0
  184.3260  179.3050  138.3680 C   0  0  0  0  0  2  0  0  0  0  0  0
  1  8  2  0  0  0  0
  1  6  1  0  0  0  0
  2  4  1  0  0  0  0
  2  9  1  0  0  0  0
  3  9  1  0  0  0  0
  4 11  2  0  0  0  0
  5 27  1  6  0  0  0
  5 10  1  0  0  0  0
  6 21  1  6  0  0  0
  6  2  1  0  0  0  0
  7 18  1  0  0  0  0
  8 13  1  0  0  0  0
  9  7  2  0  0  0  0
 11  7  1  0  0  0  0
 12  5  1  0  0  0  0
 12  8  1  0  0  0  0
 13 10  1  0  0  0  0
 13  3  1  0  0  0  0
 14 19  1  0  0  0  0
 15 19  2  0  0  0  0
 16 15  1  0  0  0  0
 17 18  1  0  0  0  0
 17 16  2  0  0  0  0
 18 14  2  0  0  0  0
 20 24  1  0  0  0  0
 21 25  1  0  0  0  0
 22 21  2  0  0  0  0
 23 20  2  0  0  0  0
 23 22  1  0  0  0  0
 24 25  2  0  0  0  0
 27 26  1  0  0  0  0
M  END
>  <MODEL>
2

>  <REMARK>
 VINA RESULT:      -8.8      2.983      5.211
  Name = 
  3 active torsions:
  status: ('A' for Active; 'I' for Inactive)
    1  A    between atoms: C_9  and  C_15
    2  A    between atoms: C_13  and  C_22
    3  A    between atoms: C_14  and  C_17
                            x       y       z     vdW  Elec       q    Type
                         _______ _______ _______ _____ _____    ______ ____

>  <TORSDO>
F 3

$$$$
=
 OpenBabel11052413543D

 27 31  0  0  1  0  0  0  0  0999 V2000
  189.8010  177.2130  142.4950 C   0  0  0  0  0  3  0  0  0  0  0  0
  187.9240  177.7280  143.9890 N   0  0  0  0  0  0  0  0  0  0  0  0
  187.3640  179.0790  141.9800 C   0  0  0  0  0  2  0  0  0  0  0  0
  187.3240  177.0250  144.9370 N   0  0  0  0  0  0  0  0  0  0  0  0
  188.7640  177.2310  138.9860 C   0  0  2  0  0  3  0  0  0  0  0  0
  189.3690  177.8490  143.7870 C   0  0  1  0  0  3  0  0  0  0  0  0
  185.7500  177.9370  143.6540 C   0  0  0  0  0  0  0  0  0  0  0  0
  189.2360  177.4240  141.3000 C   0  0  0  0  0  0  0  0  0  0  0  0
  187.0050  178.2960  143.1980 C   0  0  0  0  0  0  0  0  0  0  0  0
  187.7860  178.2240  139.6260 C   0  0  0  0  0  2  0  0  0  0  0  0
  185.9890  177.1320  144.7630 C   0  0  0  0  0  3  0  0  0  0  0  0
  189.7380  176.7730  140.0740 C   0  0  0  0  0  2  0  0  0  0  0  0
  188.0910  178.2340  141.0410 N   0  0  0  0  0  0  0  0  0  0  0  0
  183.4160  178.7680  143.9440 C   0  0  0  0  0  3  0  0  0  0  0  0
  181.9020  178.9560  142.0640 C   0  0  0  0  0  3  0  0  0  0  0  0
  182.9010  178.4770  141.2140 C   0  0  0  0  0  3  0  0  0  0  0  0
  184.1570  178.1440  141.7280 C   0  0  0  0  0  3  0  0  0  0  0  0
  184.4270  178.2860  143.0980 C   0  0  0  0  0  0  0  0  0  0  0  0
  182.1590  179.1010  143.4300 C   0  0  0  0  0  3  0  0  0  0  0  0
  191.5810  176.3630  147.1650 C   0  0  0  0  0  3  0  0  0  0  0  0
  190.1600  177.3330  144.9540 C   0  0  0  0  0  0  0  0  0  0  0  0
  189.7480  177.6560  146.2510 C   0  0  0  0  0  3  0  0  0  0  0  0
  190.4570  177.1740  147.3550 C   0  0  0  0  0  3  0  0  0  0  0  0
  191.9940  176.0330  145.8720 C   0  0  0  0  0  3  0  0  0  0  0  0
  191.2850  176.5140  144.7680 C   0  0  0  0  0  3  0  0  0  0  0  0
  189.1100  179.2190  137.7120 O   0  0  0  0  0  1  0  0  0  0  0  0
  189.5350  177.8980  137.8610 C   0  0  0  0  0  2  0  0  0  0  0  0
  1  6  1  0  0  0  0
  2  4  1  0  0  0  0
  3  9  1  0  0  0  0
  5 27  1  6  0  0  0
  5 10  1  0  0  0  0
  5 12  1  0  0  0  0
  6  2  1  0  0  0  0
  6 21  1  1  0  0  0
  7 11  1  0  0  0  0
  8  1  2  0  0  0  0
  9  7  2  0  0  0  0
  9  2  1  0  0  0  0
 10 13  1  0  0  0  0
 11  4  2  0  0  0  0
 12  8  1  0  0  0  0
 13  8  1  0  0  0  0
 13  3  1  0  0  0  0
 15 19  2  0  0  0  0
 16 17  2  0  0  0  0
 16 15  1  0  0  0  0
 17 18  1  0  0  0  0
 18  7  1  0  0  0  0
 18 14  2  0  0  0  0
 19 14  1  0  0  0  0
 20 23  1  0  0  0  0
 21 22  1  0  0  0  0
 22 23  2  0  0  0  0
 24 20  2  0  0  0  0
 25 21  2  0  0  0  0
 25 24  1  0  0  0  0
 26 27  1  0  0  0  0
M  END
>  <MODEL>
3

>  <REMARK>
 VINA RESULT:      -8.8      2.407      5.379
  Name = 
  3 active torsions:
  status: ('A' for Active; 'I' for Inactive)
    1  A    between atoms: C_9  and  C_15
    2  A    between atoms: C_13  and  C_22
    3  A    between atoms: C_14  and  C_17
                            x       y       z     vdW  Elec       q    Type
                         _______ _______ _______ _____ _____    ______ ____

>  <TORSDO>
F 3

$$$$
=
 OpenBabel11052413543D

 27 31  0  0  1  0  0  0  0  0999 V2000
  185.6480  178.4230  141.4780 C   0  0  0  0  0  3  0  0  0  0  0  0
  185.2430  178.2530  143.8920 N   0  0  0  0  0  0  0  0  0  0  0  0
  187.2280  176.7860  143.6020 C   0  0  0  0  0  2  0  0  0  0  0  0
  184.7300  179.1020  144.7690 N   0  0  0  0  0  0  0  0  0  0  0  0
  189.2170  178.1860  140.6990 C   0  0  2  0  0  3  0  0  0  0  0  0
  184.7120  177.9610  142.5590 C   0  0  1  0  0  3  0  0  0  0  0  0
  186.5870  178.2460  145.6450 C   0  0  0  0  0  0  0  0  0  0  0  0
  186.9610  178.1620  141.4250 C   0  0  0  0  0  0  0  0  0  0  0  0
  186.3640  177.7140  144.3880 C   0  0  0  0  0  0  0  0  0  0  0  0
  189.1040  177.3670  141.9910 C   0  0  0  0  0  2  0  0  0  0  0  0
  185.5290  179.1210  145.8580 C   0  0  0  0  0  3  0  0  0  0  0  0
  187.8060  178.6380  140.3120 C   0  0  0  0  0  2  0  0  0  0  0  0
  187.7200  177.4580  142.4060 N   0  0  0  0  0  0  0  0  0  0  0  0
  187.5550  178.2530  147.9440 C   0  0  0  0  0  3  0  0  0  0  0  0
  189.8200  177.5080  148.3620 C   0  0  0  0  0  3  0  0  0  0  0  0
  189.9810  177.2410  147.0000 C   0  0  0  0  0  3  0  0  0  0  0  0
  188.9300  177.4790  146.1110 C   0  0  0  0  0  3  0  0  0  0  0  0
  187.7070  177.9880  146.5740 C   0  0  0  0  0  0  0  0  0  0  0  0
  188.6070  178.0140  148.8340 C   0  0  0  0  0  3  0  0  0  0  0  0
  180.7270  179.4600  141.9400 C   0  0  0  0  0  3  0  0  0  0  0  0
  183.3250  178.4980  142.3600 C   0  0  0  0  0  0  0  0  0  0  0  0
  182.8050  178.5780  141.0630 C   0  0  0  0  0  3  0  0  0  0  0  0
  181.5100  179.0600  140.8520 C   0  0  0  0  0  3  0  0  0  0  0  0
  181.2380  179.3780  143.2380 C   0  0  0  0  0  3  0  0  0  0  0  0
  182.5330  178.8960  143.4500 C   0  0  0  0  0  3  0  0  0  0  0  0
  190.5560  176.2950  140.1260 O   0  0  0  0  0  1  0  0  0  0  0  0
  189.8020  177.3380  139.5850 C   0  0  0  0  0  2  0  0  0  0  0  0
  1  6  1  0  0  0  0
  2  9  1  0  0  0  0
  2  4  1  0  0  0  0
  3  9  1  0  0  0  0
  4 11  2  0  0  0  0
  5 27  1  6  0  0  0
  5 10  1  0  0  0  0
  6 21  1  6  0  0  0
  6  2  1  0  0  0  0
  7 11  1  0  0  0  0
  7 18  1  0  0  0  0
  8  1  2  0  0  0  0
  8 13  1  0  0  0  0
  9  7  2  0  0  0  0
 10 13  1  0  0  0  0
 12  5  1  0  0  0  0
 12  8  1  0  0  0  0
 13  3  1  0  0  0  0
 14 19  1  0  0  0  0
 15 19  2  0  0  0  0
 16 15  1  0  0  0  0
 17 18  1  0  0  0  0
 17 16  2  0  0  0  0
 18 14  2  0  0  0  0
 20 24  1  0  0  0  0
 21 25  1  0  0  0  0
 22 21  2  0  0  0  0
 23 22  1  0  0  0  0
 23 20  2  0  0  0  0
 24 25  2  0  0  0  0
 27 26  1  0  0  0  0
M  END
>  <MODEL>
4

>  <REMARK>
 VINA RESULT:      -8.6      2.460      6.729
  Name = 
  3 active torsions:
  status: ('A' for Active; 'I' for Inactive)
    1  A    between atoms: C_9  and  C_15
    2  A    between atoms: C_13  and  C_22
    3  A    between atoms: C_14  and  C_17
                            x       y       z     vdW  Elec       q    Type
                         _______ _______ _______ _____ _____    ______ ____

>  <TORSDO>
F 3

$$$$
=
 OpenBabel11052413543D

 27 31  0  0  1  0  0  0  0  0999 V2000
  189.7590  177.5190  143.7070 C   0  0  0  0  0  3  0  0  0  0  0  0
  187.9420  177.6250  142.0610 N   0  0  0  0  0  0  0  0  0  0  0  0
  186.7500  176.8180  144.0870 C   0  0  0  0  0  2  0  0  0  0  0  0
  187.7410  178.4040  141.0090 N   0  0  0  0  0  0  0  0  0  0  0  0
  188.5560  178.2750  147.0800 C   0  0  2  0  0  3  0  0  0  0  0  0
  189.2010  176.9710  142.4230 C   0  0  1  0  0  3  0  0  0  0  0  0
  185.8480  178.3190  142.1760 C   0  0  0  0  0  0  0  0  0  0  0  0
  189.0730  177.6710  144.8470 C   0  0  0  0  0  0  0  0  0  0  0  0
  186.8200  177.5480  142.7870 C   0  0  0  0  0  0  0  0  0  0  0  0
  187.3100  177.6820  146.4080 C   0  0  0  0  0  2  0  0  0  0  0  0
  186.4650  178.8450  141.0470 C   0  0  0  0  0  3  0  0  0  0  0  0
  189.7060  178.1990  146.0720 C   0  0  0  0  0  2  0  0  0  0  0  0
  187.6850  177.4060  145.0380 N   0  0  0  0  0  0  0  0  0  0  0  0
  183.4140  178.5400  141.6760 C   0  0  0  0  0  3  0  0  0  0  0  0
  181.8110  179.0590  143.4130 C   0  0  0  0  0  3  0  0  0  0  0  0
  182.8430  179.0950  144.3530 C   0  0  0  0  0  3  0  0  0  0  0  0
  184.1610  178.8540  143.9540 C   0  0  0  0  0  3  0  0  0  0  0  0
  184.4590  178.5750  142.6120 C   0  0  0  0  0  0  0  0  0  0  0  0
  182.0960  178.7810  142.0740 C   0  0  0  0  0  3  0  0  0  0  0  0
  192.1470  177.0770  139.2890 C   0  0  0  0  0  3  0  0  0  0  0  0
  190.2120  177.0130  141.3150 C   0  0  0  0  0  0  0  0  0  0  0  0
  191.5040  177.4770  141.5900 C   0  0  0  0  0  3  0  0  0  0  0  0
  192.4690  177.5110  140.5790 C   0  0  0  0  0  3  0  0  0  0  0  0
  190.8610  176.6070  139.0100 C   0  0  0  0  0  3  0  0  0  0  0  0
  189.8950  176.5720  140.0200 C   0  0  0  0  0  3  0  0  0  0  0  0
  188.3610  176.2020  148.2470 O   0  0  0  0  0  1  0  0  0  0  0  0
  188.9150  177.4810  148.3230 C   0  0  0  0  0  2  0  0  0  0  0  0
  1  8  2  0  0  0  0
  2  6  1  0  0  0  0
  2  9  1  0  0  0  0
  3 13  1  0  0  0  0
  4 11  2  0  0  0  0
  4  2  1  0  0  0  0
  5 27  1  1  0  0  0
  6 21  1  6  0  0  0
  6  1  1  0  0  0  0
  7 18  1  0  0  0  0
  7  9  2  0  0  0  0
  8 13  1  0  0  0  0
  8 12  1  0  0  0  0
  9  3  1  0  0  0  0
 10  5  1  0  0  0  0
 11  7  1  0  0  0  0
 12  5  1  0  0  0  0
 13 10  1  0  0  0  0
 14 19  2  0  0  0  0
 14 18  1  0  0  0  0
 15 16  2  0  0  0  0
 17 16  1  0  0  0  0
 18 17  2  0  0  0  0
 19 15  1  0  0  0  0
 20 23  1  0  0  0  0
 21 22  1  0  0  0  0
 23 22  2  0  0  0  0
 24 20  2  0  0  0  0
 24 25  1  0  0  0  0
 25 21  2  0  0  0  0
 26 27  1  0  0  0  0
M  END
>  <MODEL>
5

>  <REMARK>
 VINA RESULT:      -8.6      1.465      1.979
  Name = 
  3 active torsions:
  status: ('A' for Active; 'I' for Inactive)
    1  A    between atoms: C_9  and  C_15
    2  A    between atoms: C_13  and  C_22
    3  A    between atoms: C_14  and  C_17
                            x       y       z     vdW  Elec       q    Type
                         _______ _______ _______ _____ _____    ______ ____

>  <TORSDO>
F 3

$$$$
=
 OpenBabel11052413543D

 27 31  0  0  1  0  0  0  0  0999 V2000
  188.5870  177.5920  146.4560 C   0  0  0  0  0  3  0  0  0  0  0  0
  190.1820  177.0020  144.6860 N   0  0  0  0  0  0  0  0  0  0  0  0
  188.0040  176.4770  143.6090 C   0  0  0  0  0  2  0  0  0  0  0  0
  191.3780  177.4740  144.3750 N   0  0  0  0  0  0  0  0  0  0  0  0
  185.4530  178.8680  145.0640 C   0  0  2  0  0  3  0  0  0  0  0  0
  189.7040  176.6780  146.0320 C   0  0  1  0  0  3  0  0  0  0  0  0
  190.1880  177.3230  142.5010 C   0  0  0  0  0  0  0  0  0  0  0  0
  187.5000  177.8750  145.7290 C   0  0  0  0  0  0  0  0  0  0  0  0
  189.4360  176.8940  143.5790 C   0  0  0  0  0  0  0  0  0  0  0  0
  185.9490  177.9290  143.9570 C   0  0  0  0  0  2  0  0  0  0  0  0
  191.4180  177.6810  143.0400 C   0  0  0  0  0  3  0  0  0  0  0  0
  186.4380  178.7700  146.2310 C   0  0  0  0  0  2  0  0  0  0  0  0
  187.2280  177.4200  144.4050 N   0  0  0  0  0  0  0  0  0  0  0  0
  188.6550  178.1530  140.7170 C   0  0  0  0  0  3  0  0  0  0  0  0
  189.0320  177.6270  138.3840 C   0  0  0  0  0  3  0  0  0  0  0  0
  190.1710  176.8990  138.7340 C   0  0  0  0  0  3  0  0  0  0  0  0
  190.5520  176.7970  140.0750 C   0  0  0  0  0  3  0  0  0  0  0  0
  189.7970  177.4230  141.0790 C   0  0  0  0  0  0  0  0  0  0  0  0
  188.2730  178.2550  139.3750 C   0  0  0  0  0  3  0  0  0  0  0  0
  192.8360  176.6060  148.9800 C   0  0  0  0  0  3  0  0  0  0  0  0
  190.8110  176.6450  147.0450 C   0  0  0  0  0  0  0  0  0  0  0  0
  190.8440  177.6200  148.0480 C   0  0  0  0  0  3  0  0  0  0  0  0
  191.8550  177.6020  149.0130 C   0  0  0  0  0  3  0  0  0  0  0  0
  192.8050  175.6270  147.9830 C   0  0  0  0  0  3  0  0  0  0  0  0
  191.7950  175.6440  147.0190 C   0  0  0  0  0  3  0  0  0  0  0  0
  183.0990  179.0040  144.6910 O   0  0  0  0  0  1  0  0  0  0  0  0
  184.0690  178.4520  145.5290 C   0  0  0  0  0  2  0  0  0  0  0  0
  2  6  1  0  0  0  0
  3 13  1  0  0  0  0
  4  2  1  0  0  0  0
  5 27  1  1  0  0  0
  5 12  1  0  0  0  0
  6  1  1  0  0  0  0
  6 21  1  1  0  0  0
  7 11  1  0  0  0  0
  7  9  2  0  0  0  0
  8 12  1  0  0  0  0
  8  1  2  0  0  0  0
  9  3  1  0  0  0  0
  9  2  1  0  0  0  0
 10 13  1  0  0  0  0
 10  5  1  0  0  0  0
 11  4  2  0  0  0  0
 13  8  1  0  0  0  0
 14 18  1  0  0  0  0
 15 16  2  0  0  0  0
 15 19  1  0  0  0  0
 16 17  1  0  0  0  0
 17 18  2  0  0  0  0
 18  7  1  0  0  0  0
 19 14  2  0  0  0  0
 20 23  1  0  0  0  0
 21 22  1  0  0  0  0
 22 23  2  0  0  0  0
 24 20  2  0  0  0  0
 25 21  2  0  0  0  0
 25 24  1  0  0  0  0
 26 27  1  0  0  0  0
M  END
>  <MODEL>
6

>  <REMARK>
 VINA RESULT:      -8.4      2.498      6.588
  Name = 
  3 active torsions:
  status: ('A' for Active; 'I' for Inactive)
    1  A    between atoms: C_9  and  C_15
    2  A    between atoms: C_13  and  C_22
    3  A    between atoms: C_14  and  C_17
                            x       y       z     vdW  Elec       q    Type
                         _______ _______ _______ _____ _____    ______ ____

>  <TORSDO>
F 3

$$$$
=
 OpenBabel11052413543D

 27 31  0  0  1  0  0  0  0  0999 V2000
  188.6170  177.5350  146.1090 C   0  0  0  0  0  3  0  0  0  0  0  0
  190.2910  176.9630  144.4080 N   0  0  0  0  0  0  0  0  0  0  0  0
  188.1660  176.4370  143.2310 C   0  0  0  0  0  2  0  0  0  0  0  0
  191.4980  177.4430  144.1530 N   0  0  0  0  0  0  0  0  0  0  0  0
  185.5410  178.8070  144.5870 C   0  0  2  0  0  3  0  0  0  0  0  0
  189.7550  176.6290  145.7290 C   0  0  1  0  0  3  0  0  0  0  0  0
  190.3930  177.3000  142.2270 C   0  0  0  0  0  0  0  0  0  0  0  0
  187.5610  177.8190  145.3360 C   0  0  0  0  0  0  0  0  0  0  0  0
  189.5960  176.8600  143.2680 C   0  0  0  0  0  0  0  0  0  0  0  0
  186.0910  177.8770  143.4970 C   0  0  0  0  0  2  0  0  0  0  0  0
  191.5960  177.6590  142.8230 C   0  0  0  0  0  3  0  0  0  0  0  0
  186.4740  178.7050  145.7960 C   0  0  0  0  0  2  0  0  0  0  0  0
  187.3510  177.3710  143.9980 N   0  0  0  0  0  0  0  0  0  0  0  0
  190.8630  176.7530  139.8390 C   0  0  0  0  0  3  0  0  0  0  0  0
  189.4630  177.5970  138.0530 C   0  0  0  0  0  3  0  0  0  0  0  0
  188.6630  178.2510  138.9920 C   0  0  0  0  0  3  0  0  0  0  0  0
  188.9620  178.1570  140.3530 C   0  0  0  0  0  3  0  0  0  0  0  0
  190.0650  177.4080  140.7900 C   0  0  0  0  0  0  0  0  0  0  0  0
  190.5640  176.8470  138.4760 C   0  0  0  0  0  3  0  0  0  0  0  0
  192.7530  176.5470  148.8140 C   0  0  0  0  0  3  0  0  0  0  0  0
  190.8160  176.5930  146.7900 C   0  0  0  0  0  0  0  0  0  0  0  0
  190.7650  177.5240  147.8340 C   0  0  0  0  0  3  0  0  0  0  0  0
  191.7320  177.5030  148.8430 C   0  0  0  0  0  3  0  0  0  0  0  0
  192.8060  175.6120  147.7770 C   0  0  0  0  0  3  0  0  0  0  0  0
  191.8400  175.6320  146.7670 C   0  0  0  0  0  3  0  0  0  0  0  0
  183.8030  178.9500  146.2160 O   0  0  0  0  0  1  0  0  0  0  0  0
  184.1410  178.3820  144.9870 C   0  0  0  0  0  2  0  0  0  0  0  0
  2  6  1  0  0  0  0
  3  9  1  0  0  0  0
  3 13  1  0  0  0  0
  4  2  1  0  0  0  0
  5 27  1  1  0  0  0
  5 12  1  0  0  0  0
  6  1  1  0  0  0  0
  6 21  1  1  0  0  0
  7 11  1  0  0  0  0
  7  9  2  0  0  0  0
  8 12  1  0  0  0  0
  8  1  2  0  0  0  0
  9  2  1  0  0  0  0
 10 13  1  0  0  0  0
 10  5  1  0  0  0  0
 11  4  2  0  0  0  0
 13  8  1  0  0  0  0
 14 18  1  0  0  0  0
 15 19  1  0  0  0  0
 15 16  2  0  0  0  0
 16 17  1  0  0  0  0
 17 18  2  0  0  0  0
 18  7  1  0  0  0  0
 19 14  2  0  0  0  0
 20 23  1  0  0  0  0
 21 22  1  0  0  0  0
 22 23  2  0  0  0  0
 24 20  2  0  0  0  0
 25 21  2  0  0  0  0
 25 24  1  0  0  0  0
 27 26  1  0  0  0  0
M  END
>  <MODEL>
7

>  <REMARK>
 VINA RESULT:      -8.3      2.277      6.559
  Name = 
  3 active torsions:
  status: ('A' for Active; 'I' for Inactive)
    1  A    between atoms: C_9  and  C_15
    2  A    between atoms: C_13  and  C_22
    3  A    between atoms: C_14  and  C_17
                            x       y       z     vdW  Elec       q    Type
                         _______ _______ _______ _____ _____    ______ ____

>  <TORSDO>
F 3

$$$$
=
 OpenBabel11052413543D

 27 31  0  0  1  0  0  0  0  0999 V2000
  186.3800  178.3000  141.6370 C   0  0  0  0  0  3  0  0  0  0  0  0
  186.4650  177.8390  144.0460 N   0  0  0  0  0  0  0  0  0  0  0  0
  188.2930  176.3920  143.1830 C   0  0  0  0  0  2  0  0  0  0  0  0
  186.1730  178.5800  145.1030 N   0  0  0  0  0  0  0  0  0  0  0  0
  189.7040  178.1120  140.1190 C   0  0  2  0  0  3  0  0  0  0  0  0
  185.6640  177.7210  142.8260 C   0  0  1  0  0  3  0  0  0  0  0  0
  188.1350  177.5970  145.4710 C   0  0  0  0  0  0  0  0  0  0  0  0
  187.6430  178.0290  141.2860 C   0  0  0  0  0  0  0  0  0  0  0  0
  187.6410  177.2280  144.2340 C   0  0  0  0  0  0  0  0  0  0  0  0
  189.8240  177.1420  141.3010 C   0  0  0  0  0  2  0  0  0  0  0  0
  187.1760  178.4540  145.9990 C   0  0  0  0  0  3  0  0  0  0  0  0
  188.2630  178.6280  140.0870 C   0  0  0  0  0  2  0  0  0  0  0  0
  188.5570  177.1990  141.9990 N   0  0  0  0  0  0  0  0  0  0  0  0
  190.4760  176.7460  145.3300 C   0  0  0  0  0  3  0  0  0  0  0  0
  191.8410  176.4740  147.3110 C   0  0  0  0  0  3  0  0  0  0  0  0
  190.7860  176.9380  148.0990 C   0  0  0  0  0  3  0  0  0  0  0  0
  189.5760  177.3060  147.5040 C   0  0  0  0  0  3  0  0  0  0  0  0
  189.4090  177.2120  146.1140 C   0  0  0  0  0  0  0  0  0  0  0  0
  191.6860  176.3780  145.9250 C   0  0  0  0  0  3  0  0  0  0  0  0
  181.6970  179.3360  143.2230 C   0  0  0  0  0  3  0  0  0  0  0  0
  184.2870  178.2970  142.9820 C   0  0  0  0  0  0  0  0  0  0  0  0
  183.4970  178.4870  141.8430 C   0  0  0  0  0  3  0  0  0  0  0  0
  182.2050  179.0080  141.9620 C   0  0  0  0  0  3  0  0  0  0  0  0
  182.4790  179.1430  144.3640 C   0  0  0  0  0  3  0  0  0  0  0  0
  183.7710  178.6230  144.2460 C   0  0  0  0  0  3  0  0  0  0  0  0
  191.2900  176.8260  138.8820 O   0  0  0  0  0  1  0  0  0  0  0  0
  190.0190  177.4000  138.8160 C   0  0  0  0  0  2  0  0  0  0  0  0
  1  6  1  0  0  0  0
  2  9  1  0  0  0  0
  2  4  1  0  0  0  0
  3  9  1  0  0  0  0
  4 11  2  0  0  0  0
  5 27  1  6  0  0  0
  5 10  1  0  0  0  0
  6 21  1  1  0  0  0
  6  2  1  0  0  0  0
  7 11  1  0  0  0  0
  7 18  1  0  0  0  0
  8  1  2  0  0  0  0
  8 13  1  0  0  0  0
  9  7  2  0  0  0  0
 10 13  1  0  0  0  0
 12  5  1  0  0  0  0
 12  8  1  0  0  0  0
 13  3  1  0  0  0  0
 14 19  2  0  0  0  0
 14 18  1  0  0  0  0
 15 16  2  0  0  0  0
 17 16  1  0  0  0  0
 18 17  2  0  0  0  0
 19 15  1  0  0  0  0
 20 24  1  0  0  0  0
 21 25  1  0  0  0  0
 22 23  1  0  0  0  0
 22 21  2  0  0  0  0
 23 20  2  0  0  0  0
 25 24  2  0  0  0  0
 27 26  1  0  0  0  0
M  END
>  <MODEL>
8

>  <REMARK>
 VINA RESULT:      -8.3      2.100      6.892
  Name = 
  3 active torsions:
  status: ('A' for Active; 'I' for Inactive)
    1  A    between atoms: C_9  and  C_15
    2  A    between atoms: C_13  and  C_22
    3  A    between atoms: C_14  and  C_17
                            x       y       z     vdW  Elec       q    Type
                         _______ _______ _______ _____ _____    ______ ____

>  <TORSDO>
F 3

$$$$
=
 OpenBabel11052413543D

 27 31  0  0  1  0  0  0  0  0999 V2000
  188.0350  177.5990  145.6520 C   0  0  0  0  0  3  0  0  0  0  0  0
  188.0190  178.0330  143.2370 N   0  0  0  0  0  0  0  0  0  0  0  0
  190.3950  178.4740  143.8200 C   0  0  0  0  0  2  0  0  0  0  0  0
  187.2950  177.5310  142.2490 N   0  0  0  0  0  0  0  0  0  0  0  0
  191.2460  176.2230  146.7450 C   0  0  2  0  0  3  0  0  0  0  0  0
  187.5170  178.4690  144.5410 C   0  0  1  0  0  3  0  0  0  0  0  0
  189.4260  177.5290  141.6100 C   0  0  0  0  0  0  0  0  0  0  0  0
  189.3170  177.2600  145.8370 C   0  0  0  0  0  0  0  0  0  0  0  0
  189.3110  178.0500  142.8860 C   0  0  0  0  0  0  0  0  0  0  0  0
  191.6430  177.0640  145.5250 C   0  0  0  0  0  2  0  0  0  0  0  0
  188.1260  177.2130  141.2330 C   0  0  0  0  0  3  0  0  0  0  0  0
  189.7440  176.4150  146.9700 C   0  0  0  0  0  2  0  0  0  0  0  0
  190.4110  177.6040  144.9890 N   0  0  0  0  0  0  0  0  0  0  0  0
  190.5420  176.8140  139.4970 C   0  0  0  0  0  3  0  0  0  0  0  0
  192.9490  176.8920  139.2510 C   0  0  0  0  0  3  0  0  0  0  0  0
  193.0630  177.3900  140.5510 C   0  0  0  0  0  3  0  0  0  0  0  0
  191.9180  177.5990  141.3230 C   0  0  0  0  0  3  0  0  0  0  0  0
  190.6460  177.3130  140.8040 C   0  0  0  0  0  0  0  0  0  0  0  0
  191.6870  176.6040  138.7230 C   0  0  0  0  0  3  0  0  0  0  0  0
  183.2320  178.8260  144.6940 C   0  0  0  0  0  3  0  0  0  0  0  0
  186.0210  178.5830  144.5750 C   0  0  0  0  0  0  0  0  0  0  0  0
  185.3650  178.5560  145.8100 C   0  0  0  0  0  3  0  0  0  0  0  0
  183.9730  178.6760  145.8710 C   0  0  0  0  0  3  0  0  0  0  0  0
  183.8830  178.8580  143.4570 C   0  0  0  0  0  3  0  0  0  0  0  0
  185.2740  178.7390  143.3960 C   0  0  0  0  0  3  0  0  0  0  0  0
  193.1210  175.8640  148.1770 O   0  0  0  0  0  1  0  0  0  0  0  0
  192.0080  176.6820  147.9740 C   0  0  0  0  0  2  0  0  0  0  0  0
  1  8  2  0  0  0  0
  2  6  1  0  0  0  0
  3 13  1  0  0  0  0
  4  2  1  0  0  0  0
  5 12  1  0  0  0  0
  5 27  1  1  0  0  0
  6 21  1  6  0  0  0
  6  1  1  0  0  0  0
  7  9  2  0  0  0  0
  8 12  1  0  0  0  0
  9  2  1  0  0  0  0
  9  3  1  0  0  0  0
 10  5  1  0  0  0  0
 11  7  1  0  0  0  0
 11  4  2  0  0  0  0
 13 10  1  0  0  0  0
 13  8  1  0  0  0  0
 14 18  1  0  0  0  0
 15 16  2  0  0  0  0
 16 17  1  0  0  0  0
 18 17  2  0  0  0  0
 18  7  1  0  0  0  0
 19 15  1  0  0  0  0
 19 14  2  0  0  0  0
 20 23  1  0  0  0  0
 21 22  1  0  0  0  0
 22 23  2  0  0  0  0
 24 20  2  0  0  0  0
 25 24  1  0  0  0  0
 25 21  2  0  0  0  0
 27 26  1  0  0  0  0
M  END
>  <MODEL>
9

>  <REMARK>
 VINA RESULT:      -8.0      1.256      6.310
  Name = 
  3 active torsions:
  status: ('A' for Active; 'I' for Inactive)
    1  A    between atoms: C_9  and  C_15
    2  A    between atoms: C_13  and  C_22
    3  A    between atoms: C_14  and  C_17
                            x       y       z     vdW  Elec       q    Type
                         _______ _______ _______ _____ _____    ______ ____

>  <TORSDO>
F 3

$$$$
