=
 OpenBabel11052412593D

 31 36  0  0  1  0  0  0  0  0999 V2000
  179.4120  182.4170  138.5670 S   0  0  0  0  0  0  0  0  0  0  0  0
  182.3400  179.4160  140.7210 C   0  0  2  0  0  3  0  0  0  0  0  0
  183.2140  178.5350  141.6010 C   0  0  2  0  0  3  0  0  0  0  0  0
  183.9920  178.2010  144.0240 C   0  0  0  0  0  2  0  0  0  0  0  0
  180.8380  179.2960  140.8990 C   0  0  0  0  0  2  0  0  0  0  0  0
  179.9650  180.7330  138.9620 C   0  0  1  0  0  0  0  0  0  0  0  0
  183.1890  179.0580  143.0420 C   0  0  0  0  0  2  0  0  0  0  0  0
  180.9140  182.1890  137.5620 C   0  0  0  0  0  2  0  0  0  0  0  0
  185.1720  179.2390  138.6960 O   0  0  0  0  0  0  0  0  0  0  0  0
  185.3800  177.7910  143.5230 C   0  0  0  0  0  2  0  0  0  0  0  0
  182.5800  180.6480  138.6100 C   0  0  0  0  0  2  0  0  0  0  0  0
  182.8450  179.2990  139.2910 C   0  0  1  0  0  0  0  0  0  0  0  0
  181.1700  180.7680  138.0080 C   0  0  1  0  0  3  0  0  0  0  0  0
  186.1880  178.9450  142.9150 C   0  0  0  0  0  2  0  0  0  0  0  0
  180.2140  180.6200  140.4730 C   0  0  0  0  0  2  0  0  0  0  0  0
  178.9310  179.7250  138.4900 C   0  0  0  0  0  1  0  0  0  0  0  0
  184.3080  179.0850  139.5470 C   0  0  0  0  0  0  0  0  0  0  0  0
  184.6070  178.5950  140.9270 C   0  0  1  0  0  3  0  0  0  0  0  0
  185.5820  179.5440  141.6360 C   0  0  0  0  0  2  0  0  0  0  0  0
  183.0030  176.8590  138.4080 C   0  0  2  0  0  3  0  0  0  0  0  0
  182.1520  178.1180  138.5340 C   0  0  2  0  0  3  0  0  0  0  0  0
  182.8080  177.7790  137.2100 C   0  0  0  0  0  2  0  0  0  0  0  0
  182.1300  175.6930  138.2940 N   0  0  0  0  0  0  0  0  0  0  0  0
  182.0100  173.4460  137.1350 C   0  0  1  0  0  3  0  0  0  0  0  0
  182.4900  174.4860  136.1220 C   0  0  0  0  0  2  0  0  0  0  0  0
  182.9990  171.9290  136.9540 S   0  0  0  0  0  1  0  0  0  0  0  0
  182.8480  174.6340  137.5800 C   0  0  1  0  0  0  0  0  0  0  0  0
  184.1980  174.4220  137.8920 O   0  0  0  0  0  1  0  0  0  0  0  0
  181.8670  175.2100  139.6470 C   0  0  0  0  0  2  0  0  0  0  0  0
  179.6730  176.1040  139.3610 O   0  0  0  0  0  1  0  0  0  0  0  0
  180.3760  175.0030  139.8480 C   0  0  0  0  0  2  0  0  0  0  0  0
  1  6  1  0  0  0  0
  2  5  1  6  0  0  0
  2  3  1  0  0  0  0
  3  7  1  1  0  0  0
  6 16  1  6  0  0  0
  6 15  1  0  0  0  0
  7  4  1  0  0  0  0
  8  1  1  0  0  0  0
  9 17  2  0  0  0  0
 10  4  1  0  0  0  0
 12 11  1  6  0  0  0
 12 17  1  0  0  0  0
 12  2  1  0  0  0  0
 13  8  1  1  0  0  0
 13 11  1  0  0  0  0
 13  6  1  0  0  0  0
 14 10  1  0  0  0  0
 15  5  1  0  0  0  0
 17 18  1  0  0  0  0
 18  3  1  0  0  0  0
 18 19  1  1  0  0  0
 19 14  1  0  0  0  0
 20 23  1  6  0  0  0
 20 21  1  0  0  0  0
 21 22  1  6  0  0  0
 21 12  1  0  0  0  0
 22 20  1  0  0  0  0
 23 29  1  0  0  0  0
 24 26  1  6  0  0  0
 24 27  1  0  0  0  0
 25 24  1  0  0  0  0
 25 27  1  0  0  0  0
 27 28  1  1  0  0  0
 27 23  1  0  0  0  0
 29 31  1  0  0  0  0
 30 31  1  0  0  0  0
M  END
>  <MODEL>
1

>  <REMARK>
 VINA RESULT:      -5.1      0.000      0.000
  Name = 
  5 active torsions:
  status: ('A' for Active; 'I' for Inactive)
    1  A    between atoms: C_3  and  C_7
    2  A    between atoms: C_3  and  N_22
    3  A    between atoms: C_9  and  N_22
    4  A    between atoms: C_15  and  C_21
    5  A    between atoms: C_19  and  N_22
                            x       y       z     vdW  Elec       q    Type
                         _______ _______ _______ _____ _____    ______ ____

>  <TORSDO>
F 5

$$$$
=
 OpenBabel11052412593D

 31 36  0  0  1  0  0  0  0  0999 V2000
  193.1820  174.2940  134.8260 S   0  0  0  0  0  0  0  0  0  0  0  0
  189.0000  175.2650  136.7710 C   0  0  2  0  0  3  0  0  0  0  0  0
  187.5680  175.4360  137.2570 C   0  0  2  0  0  3  0  0  0  0  0  0
  185.1380  174.8200  136.7070 C   0  0  0  0  0  2  0  0  0  0  0  0
  189.6100  173.8810  136.8940 C   0  0  0  0  0  2  0  0  0  0  0  0
  192.0510  174.3250  136.2460 C   0  0  1  0  0  0  0  0  0  0  0  0
  186.6050  174.7570  136.2750 C   0  0  0  0  0  2  0  0  0  0  0  0
  193.1180  176.0480  135.3110 C   0  0  0  0  0  2  0  0  0  0  0  0
  189.0610  178.6740  137.4930 O   0  0  0  0  0  0  0  0  0  0  0  0
  184.6770  176.1960  137.1970 C   0  0  0  0  0  2  0  0  0  0  0  0
  190.9310  176.7140  136.3220 C   0  0  0  0  0  2  0  0  0  0  0  0
  189.8300  176.4030  137.3440 C   0  0  1  0  0  0  0  0  0  0  0  0
  192.1850  175.8380  136.4810 C   0  0  1  0  0  3  0  0  0  0  0  0
  185.0960  177.3550  136.2830 C   0  0  0  0  0  2  0  0  0  0  0  0
  190.6890  173.7540  135.8250 C   0  0  0  0  0  2  0  0  0  0  0  0
  192.6520  173.5440  137.4020 C   0  0  0  0  0  1  0  0  0  0  0  0
  188.7920  177.4860  137.3890 C   0  0  0  0  0  0  0  0  0  0  0  0
  187.3900  176.9700  137.3640 C   0  0  1  0  0  3  0  0  0  0  0  0
  186.6150  177.5740  136.1850 C   0  0  0  0  0  2  0  0  0  0  0  0
  190.2680  177.1140  139.8060 C   0  0  2  0  0  3  0  0  0  0  0  0
  190.4220  176.0320  138.7440 C   0  0  2  0  0  3  0  0  0  0  0  0
  191.6160  176.8760  139.1400 C   0  0  0  0  0  2  0  0  0  0  0  0
  190.2430  176.4960  141.1290 N   0  0  0  0  0  0  0  0  0  0  0  0
  190.6720  177.6020  143.3650 C   0  0  1  0  0  3  0  0  0  0  0  0
  191.6410  176.4280  143.2150 C   0  0  0  0  0  2  0  0  0  0  0  0
  191.5640  179.0320  144.0520 S   0  0  0  0  0  1  0  0  0  0  0  0
  191.1940  177.1970  141.9960 C   0  0  1  0  0  0  0  0  0  0  0  0
  192.1790  177.9910  141.3940 O   0  0  0  0  0  1  0  0  0  0  0  0
  188.9090  176.7020  141.6850 C   0  0  0  0  0  2  0  0  0  0  0  0
  187.3030  178.4580  141.8640 O   0  0  0  0  0  1  0  0  0  0  0  0
  188.2340  177.8790  141.0020 C   0  0  0  0  0  2  0  0  0  0  0  0
  1  8  1  0  0  0  0
  1  6  1  0  0  0  0
  2  5  1  1  0  0  0
  2  3  1  0  0  0  0
  2 12  1  0  0  0  0
  3  7  1  6  0  0  0
  3 18  1  0  0  0  0
  4 10  1  0  0  0  0
  6 13  1  0  0  0  0
  6 16  1  1  0  0  0
  7  4  1  0  0  0  0
 11 13  1  0  0  0  0
 12 11  1  6  0  0  0
 12 17  1  0  0  0  0
 12 21  1  0  0  0  0
 13  8  1  6  0  0  0
 14 10  1  0  0  0  0
 15  6  1  0  0  0  0
 15  5  1  0  0  0  0
 17  9  2  0  0  0  0
 18 19  1  6  0  0  0
 18 17  1  0  0  0  0
 19 14  1  0  0  0  0
 20 23  1  1  0  0  0
 21 22  1  6  0  0  0
 21 20  1  0  0  0  0
 22 20  1  0  0  0  0
 23 29  1  0  0  0  0
 23 27  1  0  0  0  0
 24 26  1  1  0  0  0
 25 24  1  0  0  0  0
 27 28  1  6  0  0  0
 27 25  1  0  0  0  0
 27 24  1  0  0  0  0
 31 29  1  0  0  0  0
 31 30  1  0  0  0  0
M  END
>  <MODEL>
2

>  <REMARK>
 VINA RESULT:      -5.0      6.782      9.923
  Name = 
  5 active torsions:
  status: ('A' for Active; 'I' for Inactive)
    1  A    between atoms: C_3  and  C_7
    2  A    between atoms: C_3  and  N_22
    3  A    between atoms: C_9  and  N_22
    4  A    between atoms: C_15  and  C_21
    5  A    between atoms: C_19  and  N_22
                            x       y       z     vdW  Elec       q    Type
                         _______ _______ _______ _____ _____    ______ ____

>  <TORSDO>
F 5

$$$$
=
 OpenBabel11052412593D

 31 36  0  0  1  0  0  0  0  0999 V2000
  179.9890  174.3110  135.9610 S   0  0  0  0  0  0  0  0  0  0  0  0
  180.7940  177.2120  139.5880 C   0  0  2  0  0  3  0  0  0  0  0  0
  180.8880  178.0490  140.8550 C   0  0  2  0  0  3  0  0  0  0  0  0
  179.6680  178.5690  143.0530 C   0  0  0  0  0  2  0  0  0  0  0  0
  180.9920  175.7140  139.7340 C   0  0  0  0  0  2  0  0  0  0  0  0
  181.0520  174.9530  137.2860 C   0  0  1  0  0  0  0  0  0  0  0  0
  179.6430  177.8150  141.7210 C   0  0  0  0  0  2  0  0  0  0  0  0
  180.5460  175.9320  135.3450 C   0  0  0  0  0  2  0  0  0  0  0  0
  181.7140  180.2620  138.1750 O   0  0  0  0  0  0  0  0  0  0  0  0
  180.1000  180.0340  142.9470 C   0  0  0  0  0  2  0  0  0  0  0  0
  180.9710  177.5890  137.1680 C   0  0  0  0  0  2  0  0  0  0  0  0
  181.6390  177.8850  138.5170 C   0  0  1  0  0  0  0  0  0  0  0  0
  181.4070  176.2520  136.5450 C   0  0  1  0  0  3  0  0  0  0  0  0
  179.4050  180.8080  141.8200 C   0  0  0  0  0  2  0  0  0  0  0  0
  180.2470  175.0350  138.5910 C   0  0  0  0  0  2  0  0  0  0  0  0
  182.2770  174.0680  137.4410 C   0  0  0  0  0  1  0  0  0  0  0  0
  181.4690  179.3220  138.9160 C   0  0  0  0  0  0  0  0  0  0  0  0
  181.0370  179.5000  140.3350 C   0  0  1  0  0  3  0  0  0  0  0  0
  179.7320  180.3060  140.4040 C   0  0  0  0  0  2  0  0  0  0  0  0
  184.1660  178.4940  138.5340 C   0  0  2  0  0  3  0  0  0  0  0  0
  183.1200  177.3850  138.5570 C   0  0  2  0  0  3  0  0  0  0  0  0
  183.8910  177.6700  137.2830 C   0  0  0  0  0  2  0  0  0  0  0  0
  185.3850  178.0250  139.1880 N   0  0  0  0  0  0  0  0  0  0  0  0
  187.8610  177.7050  138.7670 C   0  0  1  0  0  3  0  0  0  0  0  0
  187.0870  176.8590  137.7560 C   0  0  0  0  0  2  0  0  0  0  0  0
  189.2390  178.5410  137.9210 S   0  0  0  0  0  1  0  0  0  0  0  0
  186.5040  178.1590  138.2520 C   0  0  1  0  0  0  0  0  0  0  0  0
  186.4590  179.1940  137.3080 O   0  0  0  0  0  1  0  0  0  0  0  0
  185.6480  178.9150  140.3150 C   0  0  0  0  0  2  0  0  0  0  0  0
  184.5970  177.7840  142.1350 O   0  0  0  0  0  1  0  0  0  0  0  0
  184.4820  178.8850  141.2880 C   0  0  0  0  0  2  0  0  0  0  0  0
  1  6  1  0  0  0  0
  2  5  1  1  0  0  0
  2  3  1  0  0  0  0
  3  7  1  1  0  0  0
  6 16  1  1  0  0  0
  6 15  1  0  0  0  0
  7  4  1  0  0  0  0
  8  1  1  0  0  0  0
  9 17  2  0  0  0  0
 10  4  1  0  0  0  0
 12 11  1  6  0  0  0
 12 21  1  0  0  0  0
 12 17  1  0  0  0  0
 12  2  1  0  0  0  0
 13  8  1  6  0  0  0
 13 11  1  0  0  0  0
 13  6  1  0  0  0  0
 14 10  1  0  0  0  0
 15  5  1  0  0  0  0
 17 18  1  0  0  0  0
 18 19  1  6  0  0  0
 18  3  1  0  0  0  0
 19 14  1  0  0  0  0
 20 21  1  0  0  0  0
 20 23  1  1  0  0  0
 21 22  1  6  0  0  0
 22 20  1  0  0  0  0
 23 29  1  0  0  0  0
 24 26  1  6  0  0  0
 25 27  1  0  0  0  0
 25 24  1  0  0  0  0
 27 28  1  6  0  0  0
 27 24  1  0  0  0  0
 27 23  1  0  0  0  0
 29 31  1  0  0  0  0
 31 30  1  0  0  0  0
M  END
>  <MODEL>
3

>  <REMARK>
 VINA RESULT:      -4.6      2.771      5.199
  Name = 
  5 active torsions:
  status: ('A' for Active; 'I' for Inactive)
    1  A    between atoms: C_3  and  C_7
    2  A    between atoms: C_3  and  N_22
    3  A    between atoms: C_9  and  N_22
    4  A    between atoms: C_15  and  C_21
    5  A    between atoms: C_19  and  N_22
                            x       y       z     vdW  Elec       q    Type
                         _______ _______ _______ _____ _____    ______ ____

>  <TORSDO>
F 5

$$$$
=
 OpenBabel11052412593D

 31 36  0  0  1  0  0  0  0  0999 V2000
  180.6380  179.8540  138.9360 S   0  0  0  0  0  0  0  0  0  0  0  0
  184.7790  177.7960  138.0230 C   0  0  2  0  0  3  0  0  0  0  0  0
  186.2000  177.2750  137.8680 C   0  0  2  0  0  3  0  0  0  0  0  0
  188.6410  177.7870  138.4770 C   0  0  0  0  0  2  0  0  0  0  0  0
  184.1640  177.7200  139.4090 C   0  0  0  0  0  2  0  0  0  0  0  0
  181.7380  178.4090  138.9420 C   0  0  1  0  0  0  0  0  0  0  0  0
  187.1830  178.2520  138.5260 C   0  0  0  0  0  2  0  0  0  0  0  0
  180.6950  179.3250  137.1940 C   0  0  0  0  0  2  0  0  0  0  0  0
  184.7110  176.9930  134.6330 O   0  0  0  0  0  0  0  0  0  0  0  0
  189.0940  177.2540  137.1140 C   0  0  0  0  0  2  0  0  0  0  0  0
  182.8620  178.2510  136.5590 C   0  0  0  0  0  2  0  0  0  0  0  0
  183.9400  177.2130  136.8970 C   0  0  1  0  0  0  0  0  0  0  0  0
  181.6030  178.1400  137.4350 C   0  0  1  0  0  3  0  0  0  0  0  0
  188.6970  178.1490  135.9330 C   0  0  0  0  0  2  0  0  0  0  0  0
  183.1080  178.8140  139.5070 C   0  0  0  0  0  2  0  0  0  0  0  0
  181.1110  177.2850  139.7500 C   0  0  0  0  0  1  0  0  0  0  0  0
  184.9790  177.1200  135.8180 C   0  0  0  0  0  0  0  0  0  0  0  0
  186.3800  177.1270  136.3370 C   0  0  1  0  0  3  0  0  0  0  0  0
  187.1820  178.2740  135.7070 C   0  0  0  0  0  2  0  0  0  0  0  0
  183.7470  174.6640  136.4260 C   0  0  2  0  0  3  0  0  0  0  0  0
  183.3170  175.8360  137.3010 C   0  0  2  0  0  3  0  0  0  0  0  0
  182.3620  175.2760  136.2660 C   0  0  0  0  0  2  0  0  0  0  0  0
  183.6640  173.4270  137.1980 N   0  0  0  0  0  0  0  0  0  0  0  0
  183.3520  170.9390  136.8450 C   0  0  1  0  0  3  0  0  0  0  0  0
  181.9740  171.6040  136.8420 C   0  0  0  0  0  2  0  0  0  0  0  0
  183.4310  169.7130  135.5030 S   0  0  0  0  0  1  0  0  0  0  0  0
  183.1750  172.3570  136.3240 C   0  0  1  0  0  0  0  0  0  0  0  0
  183.1990  172.5690  134.9390 O   0  0  0  0  0  1  0  0  0  0  0  0
  185.0210  173.0730  137.6060 C   0  0  0  0  0  2  0  0  0  0  0  0
  187.2310  173.8480  137.1440 O   0  0  0  0  0  1  0  0  0  0  0  0
  186.0170  173.5110  136.5460 C   0  0  0  0  0  2  0  0  0  0  0  0
  1  6  1  0  0  0  0
  2  5  1  1  0  0  0
  3  2  1  0  0  0  0
  3  7  1  6  0  0  0
  4  7  1  0  0  0  0
  5 15  1  0  0  0  0
  6 15  1  0  0  0  0
  6 16  1  1  0  0  0
  8 13  1  0  0  0  0
  8  1  1  0  0  0  0
  9 17  2  0  0  0  0
 10  4  1  0  0  0  0
 12 11  1  6  0  0  0
 12 21  1  0  0  0  0
 12  2  1  0  0  0  0
 13 11  1  6  0  0  0
 13  6  1  0  0  0  0
 14 10  1  0  0  0  0
 17 18  1  0  0  0  0
 17 12  1  0  0  0  0
 18 19  1  6  0  0  0
 18  3  1  0  0  0  0
 19 14  1  0  0  0  0
 20 23  1  1  0  0  0
 20 21  1  0  0  0  0
 21 22  1  6  0  0  0
 22 20  1  0  0  0  0
 23 29  1  0  0  0  0
 24 26  1  6  0  0  0
 25 24  1  0  0  0  0
 27 28  1  6  0  0  0
 27 25  1  0  0  0  0
 27 24  1  0  0  0  0
 27 23  1  0  0  0  0
 31 30  1  0  0  0  0
 31 29  1  0  0  0  0
M  END
>  <MODEL>
4

>  <REMARK>
 VINA RESULT:      -4.3      2.949      4.577
  Name = 
  5 active torsions:
  status: ('A' for Active; 'I' for Inactive)
    1  A    between atoms: C_3  and  C_7
    2  A    between atoms: C_3  and  N_22
    3  A    between atoms: C_9  and  N_22
    4  A    between atoms: C_15  and  C_21
    5  A    between atoms: C_19  and  N_22
                            x       y       z     vdW  Elec       q    Type
                         _______ _______ _______ _____ _____    ______ ____

>  <TORSDO>
F 5

$$$$
=
 OpenBabel11052412593D

 31 36  0  0  1  0  0  0  0  0999 V2000
  179.1260  182.3290  136.7210 S   0  0  0  0  0  0  0  0  0  0  0  0
  180.1420  177.9440  138.1210 C   0  0  2  0  0  3  0  0  0  0  0  0
  180.2780  176.4740  138.4890 C   0  0  2  0  0  3  0  0  0  0  0  0
  178.9780  174.2620  138.5730 C   0  0  0  0  0  2  0  0  0  0  0  0
  180.0150  178.2770  136.6460 C   0  0  0  0  0  2  0  0  0  0  0  0
  180.1620  180.8380  136.6740 C   0  0  1  0  0  0  0  0  0  0  0  0
  178.9320  175.7650  138.2870 C   0  0  0  0  0  2  0  0  0  0  0  0
  180.0590  182.3800  138.2850 C   0  0  0  0  0  2  0  0  0  0  0  0
  181.7970  178.2830  141.1690 O   0  0  0  0  0  0  0  0  0  0  0  0
  179.7070  173.8820  139.8660 C   0  0  0  0  0  2  0  0  0  0  0  0
  180.6300  180.1110  139.1680 C   0  0  0  0  0  2  0  0  0  0  0  0
  181.2070  178.7190  138.8820 C   0  0  1  0  0  0  0  0  0  0  0  0
  180.8440  181.1150  138.0230 C   0  0  1  0  0  3  0  0  0  0  0  0
  179.2980  174.7240  141.0810 C   0  0  0  0  0  2  0  0  0  0  0  0
  179.2650  179.5990  136.5330 C   0  0  0  0  0  2  0  0  0  0  0  0
  181.1600  180.9380  135.5330 C   0  0  0  0  0  1  0  0  0  0  0  0
  181.2940  177.8870  140.1280 C   0  0  0  0  0  0  0  0  0  0  0  0
  180.7690  176.4990  139.9570 C   0  0  1  0  0  3  0  0  0  0  0  0
  179.6550  176.2160  140.9740 C   0  0  0  0  0  2  0  0  0  0  0  0
  183.7060  178.0280  138.6940 C   0  0  2  0  0  3  0  0  0  0  0  0
  182.5450  178.7970  138.0750 C   0  0  2  0  0  3  0  0  0  0  0  0
  183.6460  179.5470  138.7980 C   0  0  0  0  0  2  0  0  0  0  0  0
  184.6410  177.6320  137.6440 N   0  0  0  0  0  0  0  0  0  0  0  0
  187.1230  177.1650  137.4690 C   0  0  1  0  0  3  0  0  0  0  0  0
  186.8620  178.5860  136.9650 C   0  0  0  0  0  2  0  0  0  0  0  0
  188.6070  177.1640  138.5220 S   0  0  0  0  0  1  0  0  0  0  0  0
  185.9970  178.0030  138.0560 C   0  0  1  0  0  0  0  0  0  0  0  0
  186.1740  178.5660  139.3270 O   0  0  0  0  0  1  0  0  0  0  0  0
  184.5960  176.1760  137.5450 C   0  0  0  0  0  2  0  0  0  0  0  0
  183.7820  175.0820  135.5860 O   0  0  0  0  0  1  0  0  0  0  0  0
  183.3790  175.7430  136.7460 C   0  0  0  0  0  2  0  0  0  0  0  0
  1  8  1  0  0  0  0
  2  5  1  6  0  0  0
  2  3  1  0  0  0  0
  2 12  1  0  0  0  0
  3  7  1  1  0  0  0
  3 18  1  0  0  0  0
  4 10  1  0  0  0  0
  6 16  1  6  0  0  0
  6  1  1  0  0  0  0
  6 13  1  0  0  0  0
  7  4  1  0  0  0  0
 10 14  1  0  0  0  0
 12 11  1  1  0  0  0
 12 17  1  0  0  0  0
 13  8  1  1  0  0  0
 13 11  1  0  0  0  0
 15  5  1  0  0  0  0
 15  6  1  0  0  0  0
 17  9  2  0  0  0  0
 18 17  1  0  0  0  0
 18 19  1  1  0  0  0
 19 14  1  0  0  0  0
 20 23  1  6  0  0  0
 20 22  1  0  0  0  0
 21 20  1  0  0  0  0
 21 22  1  1  0  0  0
 21 12  1  0  0  0  0
 23 27  1  0  0  0  0
 24 27  1  0  0  0  0
 24 26  1  1  0  0  0
 25 24  1  0  0  0  0
 25 27  1  0  0  0  0
 27 28  1  1  0  0  0
 29 23  1  0  0  0  0
 30 31  1  0  0  0  0
 31 29  1  0  0  0  0
M  END
>  <MODEL>
5

>  <REMARK>
 VINA RESULT:      -4.2      2.820      4.821
  Name = 
  5 active torsions:
  status: ('A' for Active; 'I' for Inactive)
    1  A    between atoms: C_3  and  C_7
    2  A    between atoms: C_3  and  N_22
    3  A    between atoms: C_9  and  N_22
    4  A    between atoms: C_15  and  C_21
    5  A    between atoms: C_19  and  N_22
                            x       y       z     vdW  Elec       q    Type
                         _______ _______ _______ _____ _____    ______ ____

>  <TORSDO>
F 5

$$$$
=
 OpenBabel11052412593D

 31 36  0  0  1  0  0  0  0  0999 V2000
  188.5250  177.1600  135.3110 S   0  0  0  0  0  0  0  0  0  0  0  0
  184.8940  174.3520  136.3840 C   0  0  2  0  0  3  0  0  0  0  0  0
  183.8570  173.2820  136.6900 C   0  0  2  0  0  3  0  0  0  0  0  0
  183.4340  170.7530  136.5650 C   0  0  0  0  0  2  0  0  0  0  0  0
  186.1380  174.3770  137.2530 C   0  0  0  0  0  2  0  0  0  0  0  0
  187.2760  176.5390  136.4750 C   0  0  1  0  0  0  0  0  0  0  0  0
  184.3830  171.9110  136.2440 C   0  0  0  0  0  2  0  0  0  0  0  0
  186.9680  177.9190  134.7460 C   0  0  0  0  0  2  0  0  0  0  0  0
  182.0640  175.9340  135.1040 O   0  0  0  0  0  0  0  0  0  0  0  0
  181.9670  171.0140  136.2120 C   0  0  0  0  0  2  0  0  0  0  0  0
  184.9560  176.5110  135.2160 C   0  0  0  0  0  2  0  0  0  0  0  0
  184.1680  175.6800  136.2360 C   0  0  1  0  0  0  0  0  0  0  0  0
  186.1120  177.3130  135.8360 C   0  0  1  0  0  3  0  0  0  0  0  0
  181.7600  171.6050  134.8110 C   0  0  0  0  0  2  0  0  0  0  0  0
  187.2610  175.0040  136.4350 C   0  0  0  0  0  2  0  0  0  0  0  0
  187.5680  177.0590  137.8720 C   0  0  0  0  0  1  0  0  0  0  0  0
  182.8620  175.2020  135.6720 C   0  0  0  0  0  0  0  0  0  0  0  0
  182.5930  173.7560  135.9320 C   0  0  1  0  0  3  0  0  0  0  0  0
  182.3610  173.0060  134.6130 C   0  0  0  0  0  2  0  0  0  0  0  0
  182.6170  176.8490  137.9650 C   0  0  2  0  0  3  0  0  0  0  0  0
  184.0350  176.4170  137.6100 C   0  0  2  0  0  3  0  0  0  0  0  0
  183.6350  177.8730  137.4810 C   0  0  0  0  0  2  0  0  0  0  0  0
  182.4820  176.9220  139.4170 N   0  0  0  0  0  0  0  0  0  0  0  0
  181.0340  178.0470  141.1620 C   0  0  1  0  0  3  0  0  0  0  0  0
  182.1600  179.0080  140.7770 C   0  0  0  0  0  2  0  0  0  0  0  0
  179.4690  178.9700  141.2740 S   0  0  0  0  0  1  0  0  0  0  0  0
  181.6060  178.0470  139.7540 C   0  0  1  0  0  0  0  0  0  0  0  0
  180.8550  178.6340  138.7260 O   0  0  0  0  0  1  0  0  0  0  0  0
  181.8130  175.7000  139.8560 C   0  0  0  0  0  2  0  0  0  0  0  0
  179.5340  175.2100  139.3460 O   0  0  0  0  0  1  0  0  0  0  0  0
  180.8180  175.2410  138.8050 C   0  0  0  0  0  2  0  0  0  0  0  0
  1  6  1  0  0  0  0
  2  3  1  0  0  0  0
  2  5  1  1  0  0  0
  3  7  1  6  0  0  0
  6 16  1  1  0  0  0
  7  4  1  0  0  0  0
  8  1  1  0  0  0  0
  9 17  2  0  0  0  0
 10  4  1  0  0  0  0
 11 13  1  0  0  0  0
 12 11  1  6  0  0  0
 12  2  1  0  0  0  0
 12 21  1  0  0  0  0
 13  8  1  6  0  0  0
 13  6  1  0  0  0  0
 14 10  1  0  0  0  0
 15  6  1  0  0  0  0
 15  5  1  0  0  0  0
 17 18  1  0  0  0  0
 17 12  1  0  0  0  0
 18 19  1  6  0  0  0
 18  3  1  0  0  0  0
 19 14  1  0  0  0  0
 20 23  1  1  0  0  0
 21 22  1  6  0  0  0
 21 20  1  0  0  0  0
 22 20  1  0  0  0  0
 23 27  1  0  0  0  0
 23 29  1  0  0  0  0
 24 26  1  6  0  0  0
 25 24  1  0  0  0  0
 27 28  1  6  0  0  0
 27 25  1  0  0  0  0
 27 24  1  0  0  0  0
 31 30  1  0  0  0  0
 31 29  1  0  0  0  0
M  END
>  <MODEL>
6

>  <REMARK>
 VINA RESULT:      -4.1      3.054      7.212
  Name = 
  5 active torsions:
  status: ('A' for Active; 'I' for Inactive)
    1  A    between atoms: C_3  and  C_7
    2  A    between atoms: C_3  and  N_22
    3  A    between atoms: C_9  and  N_22
    4  A    between atoms: C_15  and  C_21
    5  A    between atoms: C_19  and  N_22
                            x       y       z     vdW  Elec       q    Type
                         _______ _______ _______ _____ _____    ______ ____

>  <TORSDO>
F 5

$$$$
=
 OpenBabel11052412593D

 31 36  0  0  1  0  0  0  0  0999 V2000
  186.0400  177.5830  134.5990 S   0  0  0  0  0  0  0  0  0  0  0  0
  190.4710  176.4960  135.7840 C   0  0  2  0  0  3  0  0  0  0  0  0
  191.9520  176.1990  135.9630 C   0  0  2  0  0  3  0  0  0  0  0  0
  194.1590  175.9670  134.6720 C   0  0  0  0  0  2  0  0  0  0  0  0
  190.0920  177.9210  135.4220 C   0  0  0  0  0  2  0  0  0  0  0  0
  187.5350  177.8430  135.5980 C   0  0  1  0  0  0  0  0  0  0  0  0
  192.6470  176.1990  134.5950 C   0  0  0  0  0  2  0  0  0  0  0  0
  186.0420  176.1930  135.7760 C   0  0  0  0  0  2  0  0  0  0  0  0
  190.2340  173.7520  137.9190 O   0  0  0  0  0  0  0  0  0  0  0  0
  194.5820  174.8230  135.5980 C   0  0  0  0  0  2  0  0  0  0  0  0
  188.3400  175.4810  136.4590 C   0  0  0  0  0  2  0  0  0  0  0  0
  189.7260  175.8980  136.9670 C   0  0  1  0  0  0  0  0  0  0  0  0
  187.3030  176.6170  136.4940 C   0  0  1  0  0  3  0  0  0  0  0  0
  193.7740  173.5330  135.4020 C   0  0  0  0  0  2  0  0  0  0  0  0
  188.7630  177.8710  134.6770 C   0  0  0  0  0  2  0  0  0  0  0  0
  187.4060  179.1290  136.3970 C   0  0  0  0  0  1  0  0  0  0  0  0
  190.5950  174.7070  137.2480 C   0  0  0  0  0  0  0  0  0  0  0  0
  191.9740  174.8310  136.6880 C   0  0  1  0  0  3  0  0  0  0  0  0
  192.2830  173.6540  135.7520 C   0  0  0  0  0  2  0  0  0  0  0  0
  190.3290  176.4580  139.4330 C   0  0  2  0  0  3  0  0  0  0  0  0
  189.6300  176.9110  138.1560 C   0  0  2  0  0  3  0  0  0  0  0  0
  188.8110  176.3990  139.3240 C   0  0  0  0  0  2  0  0  0  0  0  0
  190.7320  177.6290  140.2070 N   0  0  0  0  0  0  0  0  0  0  0  0
  190.0160  176.5630  142.3870 C   0  0  1  0  0  3  0  0  0  0  0  0
  190.6410  177.9230  142.6990 C   0  0  0  0  0  2  0  0  0  0  0  0
  188.5140  176.3470  143.3940 S   0  0  0  0  0  1  0  0  0  0  0  0
  189.8930  177.7160  141.4050 C   0  0  1  0  0  0  0  0  0  0  0  0
  188.6660  178.3860  141.3080 O   0  0  0  0  0  1  0  0  0  0  0  0
  192.1060  177.4100  140.6490 C   0  0  0  0  0  2  0  0  0  0  0  0
  194.2720  176.7520  139.8930 O   0  0  0  0  0  1  0  0  0  0  0  0
  193.0010  177.1230  139.4560 C   0  0  0  0  0  2  0  0  0  0  0  0
  1  6  1  0  0  0  0
  1  8  1  0  0  0  0
  2  5  1  1  0  0  0
  2  3  1  0  0  0  0
  2 12  1  0  0  0  0
  3  7  1  6  0  0  0
  3 18  1  0  0  0  0
  4 10  1  0  0  0  0
  6 16  1  1  0  0  0
  6 13  1  0  0  0  0
  7  4  1  0  0  0  0
 11 13  1  0  0  0  0
 12 11  1  6  0  0  0
 12 17  1  0  0  0  0
 12 21  1  0  0  0  0
 13  8  1  6  0  0  0
 14 10  1  0  0  0  0
 14 19  1  0  0  0  0
 15  5  1  0  0  0  0
 15  6  1  0  0  0  0
 17  9  2  0  0  0  0
 18 19  1  6  0  0  0
 18 17  1  0  0  0  0
 20 23  1  1  0  0  0
 21 22  1  1  0  0  0
 21 20  1  0  0  0  0
 22 20  1  0  0  0  0
 23 29  1  0  0  0  0
 23 27  1  0  0  0  0
 24 25  1  0  0  0  0
 24 26  1  1  0  0  0
 27 28  1  6  0  0  0
 27 24  1  0  0  0  0
 27 25  1  0  0  0  0
 31 30  1  0  0  0  0
 31 29  1  0  0  0  0
M  END
>  <MODEL>
7

>  <REMARK>
 VINA RESULT:      -4.0      7.519      9.964
  Name = 
  5 active torsions:
  status: ('A' for Active; 'I' for Inactive)
    1  A    between atoms: C_3  and  C_7
    2  A    between atoms: C_3  and  N_22
    3  A    between atoms: C_9  and  N_22
    4  A    between atoms: C_15  and  C_21
    5  A    between atoms: C_19  and  N_22
                            x       y       z     vdW  Elec       q    Type
                         _______ _______ _______ _____ _____    ______ ____

>  <TORSDO>
F 5

$$$$
=
 OpenBabel11052412593D

 31 36  0  0  1  0  0  0  0  0999 V2000
  186.9540  176.7370  135.1120 S   0  0  0  0  0  0  0  0  0  0  0  0
  182.6260  178.1380  136.3450 C   0  0  2  0  0  3  0  0  0  0  0  0
  181.2210  178.6850  136.5480 C   0  0  2  0  0  3  0  0  0  0  0  0
  179.4720  180.2570  135.5160 C   0  0  0  0  0  2  0  0  0  0  0  0
  182.8280  177.1660  135.1960 C   0  0  0  0  0  2  0  0  0  0  0  0
  185.2380  176.3840  135.5930 C   0  0  1  0  0  0  0  0  0  0  0  0
  180.8930  179.6910  135.4370 C   0  0  0  0  0  2  0  0  0  0  0  0
  186.9050  177.0950  136.8970 C   0  0  0  0  0  2  0  0  0  0  0  0
  182.8050  178.8860  139.7430 O   0  0  0  0  0  0  0  0  0  0  0  0
  179.0400  180.6980  136.9180 C   0  0  0  0  0  2  0  0  0  0  0  0
  184.6690  177.8930  137.6830 C   0  0  0  0  0  2  0  0  0  0  0  0
  183.1510  177.6790  137.6960 C   0  0  1  0  0  0  0  0  0  0  0  0
  185.4530  176.7160  137.0780 C   0  0  1  0  0  3  0  0  0  0  0  0
  180.0820  181.5540  137.6490 C   0  0  0  0  0  2  0  0  0  0  0  0
  184.2870  177.2590  134.7630 C   0  0  0  0  0  2  0  0  0  0  0  0
  184.9420  174.9060  135.4060 C   0  0  0  0  0  1  0  0  0  0  0  0
  182.4590  178.6640  138.5930 C   0  0  0  0  0  0  0  0  0  0  0  0
  181.2590  179.2980  137.9690 C   0  0  1  0  0  3  0  0  0  0  0  0
  181.3990  180.8270  137.9660 C   0  0  0  0  0  2  0  0  0  0  0  0
  181.3870  175.9840  138.5770 C   0  0  2  0  0  3  0  0  0  0  0  0
  182.7750  176.1870  137.9790 C   0  0  2  0  0  3  0  0  0  0  0  0
  182.6270  175.8690  139.4540 C   0  0  0  0  0  2  0  0  0  0  0  0
  180.8950  174.6550  138.2230 N   0  0  0  0  0  0  0  0  0  0  0  0
  179.9200  174.7330  140.5580 C   0  0  1  0  0  3  0  0  0  0  0  0
  178.9840  175.4950  139.6190 C   0  0  0  0  0  2  0  0  0  0  0  0
  178.9310  173.6940  141.6780 S   0  0  0  0  0  1  0  0  0  0  0  0
  179.7730  174.3170  139.1030 C   0  0  1  0  0  0  0  0  0  0  0  0
  179.0190  173.1740  138.8050 O   0  0  0  0  0  1  0  0  0  0  0  0
  180.3770  174.7290  136.8600 C   0  0  0  0  0  2  0  0  0  0  0  0
  181.2020  172.5480  136.3560 O   0  0  0  0  0  1  0  0  0  0  0  0
  181.2220  173.8760  135.9310 C   0  0  0  0  0  2  0  0  0  0  0  0
  1  6  1  0  0  0  0
  1  8  1  0  0  0  0
  2  5  1  6  0  0  0
  2  3  1  0  0  0  0
  2 12  1  0  0  0  0
  3  7  1  6  0  0  0
  3 18  1  0  0  0  0
  4 10  1  0  0  0  0
  6 16  1  6  0  0  0
  6 13  1  0  0  0  0
  7  4  1  0  0  0  0
 10 14  1  0  0  0  0
 12 11  1  1  0  0  0
 12 21  1  0  0  0  0
 12 17  1  0  0  0  0
 13  8  1  6  0  0  0
 13 11  1  0  0  0  0
 14 19  1  0  0  0  0
 15  5  1  0  0  0  0
 15  6  1  0  0  0  0
 17  9  2  0  0  0  0
 18 19  1  6  0  0  0
 18 17  1  0  0  0  0
 20 23  1  6  0  0  0
 20 22  1  0  0  0  0
 21 20  1  0  0  0  0
 21 22  1  1  0  0  0
 23 27  1  0  0  0  0
 24 26  1  1  0  0  0
 25 24  1  0  0  0  0
 27 28  1  6  0  0  0
 27 25  1  0  0  0  0
 27 24  1  0  0  0  0
 29 23  1  0  0  0  0
 31 30  1  0  0  0  0
 31 29  1  0  0  0  0
M  END
>  <MODEL>
8

>  <REMARK>
 VINA RESULT:      -3.8      3.377      5.908
  Name = 
  5 active torsions:
  status: ('A' for Active; 'I' for Inactive)
    1  A    between atoms: C_3  and  C_7
    2  A    between atoms: C_3  and  N_22
    3  A    between atoms: C_9  and  N_22
    4  A    between atoms: C_15  and  C_21
    5  A    between atoms: C_19  and  N_22
                            x       y       z     vdW  Elec       q    Type
                         _______ _______ _______ _____ _____    ______ ____

>  <TORSDO>
F 5

$$$$
=
 OpenBabel11052412593D

 31 36  0  0  1  0  0  0  0  0999 V2000
  187.5570  176.4060  134.9110 S   0  0  0  0  0  0  0  0  0  0  0  0
  184.0560  177.2470  137.9520 C   0  0  2  0  0  3  0  0  0  0  0  0
  182.8020  177.4020  138.7990 C   0  0  2  0  0  3  0  0  0  0  0  0
  180.2700  176.9790  138.7960 C   0  0  0  0  0  2  0  0  0  0  0  0
  184.5670  175.8350  137.7300 C   0  0  0  0  0  2  0  0  0  0  0  0
  186.8080  176.2690  136.5590 C   0  0  1  0  0  0  0  0  0  0  0  0
  181.5800  176.9200  138.0060 C   0  0  0  0  0  2  0  0  0  0  0  0
  187.7490  178.0680  135.6300 C   0  0  0  0  0  2  0  0  0  0  0  0
  184.5550  180.5010  139.0930 O   0  0  0  0  0  0  0  0  0  0  0  0
  180.0500  178.2840  139.5680 C   0  0  0  0  0  2  0  0  0  0  0  0
  185.9290  178.6640  137.2370 C   0  0  0  0  0  2  0  0  0  0  0  0
  185.0860  178.2490  138.4490 C   0  0  1  0  0  0  0  0  0  0  0  0
  187.1120  177.7220  136.9570 C   0  0  1  0  0  3  0  0  0  0  0  0
  180.3250  179.5480  138.7440 C   0  0  0  0  0  2  0  0  0  0  0  0
  185.3440  175.8260  136.4180 C   0  0  0  0  0  2  0  0  0  0  0  0
  187.6060  175.2970  137.4110 C   0  0  0  0  0  1  0  0  0  0  0  0
  184.1770  179.3560  138.8990 C   0  0  0  0  0  0  0  0  0  0  0  0
  182.7750  178.9090  139.1550 C   0  0  1  0  0  3  0  0  0  0  0  0
  181.7880  179.7160  138.3010 C   0  0  0  0  0  2  0  0  0  0  0  0
  186.3160  178.6240  140.7090 C   0  0  2  0  0  3  0  0  0  0  0  0
  185.9670  177.6460  139.5930 C   0  0  2  0  0  3  0  0  0  0  0  0
  187.3580  178.2430  139.6650 C   0  0  0  0  0  2  0  0  0  0  0  0
  186.5500  177.8850  141.9470 N   0  0  0  0  0  0  0  0  0  0  0  0
  188.3570  177.4700  143.6700 C   0  0  1  0  0  3  0  0  0  0  0  0
  188.6830  176.6490  142.4220 C   0  0  0  0  0  2  0  0  0  0  0  0
  189.8800  178.2500  144.2920 S   0  0  0  0  0  1  0  0  0  0  0  0
  187.9720  177.9730  142.2880 C   0  0  1  0  0  0  0  0  0  0  0  0
  188.7280  179.0040  141.7160 O   0  0  0  0  0  1  0  0  0  0  0  0
  185.8020  178.5570  143.0060 C   0  0  0  0  0  2  0  0  0  0  0  0
  183.6410  178.6360  144.0140 O   0  0  0  0  0  1  0  0  0  0  0  0
  184.3150  178.3040  142.8390 C   0  0  0  0  0  2  0  0  0  0  0  0
  1  8  1  0  0  0  0
  1  6  1  0  0  0  0
  2  5  1  1  0  0  0
  2 12  1  0  0  0  0
  2  3  1  0  0  0  0
  3  7  1  6  0  0  0
  3 18  1  0  0  0  0
  4 10  1  0  0  0  0
  6 13  1  0  0  0  0
  6 16  1  1  0  0  0
  7  4  1  0  0  0  0
 12 11  1  6  0  0  0
 12 17  1  0  0  0  0
 12 21  1  0  0  0  0
 13  8  1  6  0  0  0
 13 11  1  0  0  0  0
 14 10  1  0  0  0  0
 15  6  1  0  0  0  0
 15  5  1  0  0  0  0
 17  9  2  0  0  0  0
 17 18  1  0  0  0  0
 18 19  1  6  0  0  0
 19 14  1  0  0  0  0
 20 23  1  1  0  0  0
 21 22  1  6  0  0  0
 21 20  1  0  0  0  0
 22 20  1  0  0  0  0
 23 27  1  0  0  0  0
 23 29  1  0  0  0  0
 24 26  1  6  0  0  0
 25 24  1  0  0  0  0
 27 28  1  6  0  0  0
 27 25  1  0  0  0  0
 27 24  1  0  0  0  0
 31 29  1  0  0  0  0
 31 30  1  0  0  0  0
M  END
>  <MODEL>
9

>  <REMARK>
 VINA RESULT:      -3.6      3.786      6.744
  Name = 
  5 active torsions:
  status: ('A' for Active; 'I' for Inactive)
    1  A    between atoms: C_3  and  C_7
    2  A    between atoms: C_3  and  N_22
    3  A    between atoms: C_9  and  N_22
    4  A    between atoms: C_15  and  C_21
    5  A    between atoms: C_19  and  N_22
                            x       y       z     vdW  Elec       q    Type
                         _______ _______ _______ _____ _____    ______ ____

>  <TORSDO>
F 5

$$$$
