=
 OpenBabel11052412263D

 30 34  0  0  1  0  0  0  0  0999 V2000
  188.9160  177.4470  143.6180 C   0  0  0  0  0  3  0  0  0  0  0  0
  191.0410  176.8000  144.8120 C   0  0  2  0  0  3  0  0  0  0  0  0
  186.6930  177.9400  147.0300 N   0  0  0  0  0  2  0  0  0  0  0  0
  187.5550  177.7990  143.5890 C   0  0  0  0  0  0  0  0  0  0  0  0
  185.5420  178.2350  146.3740 C   0  0  0  0  0  0  0  0  0  0  0  0
  191.7050  176.7650  146.1920 C   0  0  0  0  0  2  0  0  0  0  0  0
  191.8310  177.6490  143.9350 N   0  0  0  0  0  1  0  0  0  0  0  0
  187.5480  177.7550  146.0070 C   0  0  0  0  0  0  0  0  0  0  0  0
  190.7490  176.2340  147.2510 C   0  0  0  0  0  2  0  0  0  0  0  0
  189.6020  177.2660  144.8420 C   0  0  0  0  0  0  0  0  0  0  0  0
  186.9040  177.9380  144.8180 C   0  0  0  0  0  0  0  0  0  0  0  0
  184.4610  178.4830  146.9680 O   0  0  0  0  0  0  0  0  0  0  0  0
  185.6520  178.2350  145.0580 O   0  0  0  0  0  0  0  0  0  0  0  0
  189.5750  177.1930  147.3880 C   0  0  0  0  0  2  0  0  0  0  0  0
  188.8960  177.3970  146.0670 C   0  0  0  0  0  0  0  0  0  0  0  0
  186.8490  177.9240  142.2690 C   0  0  1  0  0  3  0  0  0  0  0  0
  185.7830  180.0720  142.1170 O   0  0  0  0  0  1  0  0  0  0  0  0
  185.5250  178.7190  142.3670 C   0  0  1  0  0  3  0  0  0  0  0  0
  183.0720  178.4340  141.9260 C   0  0  0  0  0  2  0  0  0  0  0  0
  184.4780  178.9030  140.0420 C   0  0  0  0  0  2  0  0  0  0  0  0
  184.4650  178.1920  141.3840 C   0  0  0  0  0  3  0  0  0  0  0  0
  182.1710  178.4780  140.7110 C   0  0  0  0  0  2  0  0  0  0  0  0
  183.0420  178.9160  139.5470 C   0  0  0  0  0  2  0  0  0  0  0  0
  187.8020  178.4890  141.2160 C   0  0  0  0  0  2  0  0  0  0  0  0
  189.3230  177.8070  139.3860 C   0  0  1  0  0  3  0  0  0  0  0  0
  188.0300  178.3040  138.7710 C   0  0  0  0  0  2  0  0  0  0  0  0
  187.9970  177.5220  140.0660 C   0  0  2  0  0  3  0  0  0  0  0  0
  190.8210  175.9560  139.3550 O   0  0  0  0  0  1  0  0  0  0  0  0
  189.7850  176.5650  138.6480 C   0  0  2  0  0  3  0  0  0  0  0  0
  190.2790  176.9430  137.2700 C   0  0  0  0  0  1  0  0  0  0  0  0
  1 10  1  0  0  0  0
  2  7  1  6  0  0  0
  2 10  1  0  0  0  0
  2  6  1  0  0  0  0
  4  1  2  0  0  0  0
  4 11  1  0  0  0  0
  5 12  2  0  0  0  0
  5  3  1  0  0  0  0
  6  9  1  0  0  0  0
  8 15  1  0  0  0  0
  8  3  1  0  0  0  0
  9 14  1  0  0  0  0
 10 15  2  0  0  0  0
 11 13  1  0  0  0  0
 11  8  2  0  0  0  0
 13  5  1  0  0  0  0
 15 14  1  0  0  0  0
 16 24  1  6  0  0  0
 16 18  1  0  0  0  0
 16  4  1  0  0  0  0
 18 17  1  6  0  0  0
 20 21  1  0  0  0  0
 21 19  1  0  0  0  0
 21 18  1  0  0  0  0
 22 19  1  0  0  0  0
 23 20  1  0  0  0  0
 23 22  1  0  0  0  0
 25 29  1  6  0  0  0
 25 27  1  0  0  0  0
 26 25  1  0  0  0  0
 26 27  1  0  0  0  0
 27 24  1  1  0  0  0
 29 30  1  6  0  0  0
 29 28  1  0  0  0  0
M  END
>  <MODEL>
1

>  <REMARK>
 VINA RESULT:      -9.2      0.000      0.000
  Name = 
  6 active torsions:
  status: ('A' for Active; 'I' for Inactive)
    1  A    between atoms: C_4  and  C_13
    2  A    between atoms: C_7  and  C_15
    3  A    between atoms: C_8  and  C_12
    4  A    between atoms: C_8  and  C_13
    5  A    between atoms: C_13  and  C_27
    6  A    between atoms: C_27  and  C_30
                            x       y       z     vdW  Elec       q    Type
                         _______ _______ _______ _____ _____    ______ ____

>  <TORSDO>
F 6

$$$$
=
 OpenBabel11052412263D

 30 34  0  0  1  0  0  0  0  0999 V2000
  185.1090  178.0850  141.9350 C   0  0  0  0  0  3  0  0  0  0  0  0
  182.7980  178.3600  140.9630 C   0  0  2  0  0  3  0  0  0  0  0  0
  184.0280  179.0410  145.7740 N   0  0  0  0  0  2  0  0  0  0  0  0
  186.0360  178.1370  142.9900 C   0  0  0  0  0  0  0  0  0  0  0  0
  185.2850  178.9420  146.2740 C   0  0  0  0  0  0  0  0  0  0  0  0
  181.3230  178.5200  141.3450 C   0  0  0  0  0  2  0  0  0  0  0  0
  182.9480  177.1430  140.1790 N   0  0  0  0  0  1  0  0  0  0  0  0
  184.2260  178.7350  144.4790 C   0  0  0  0  0  0  0  0  0  0  0  0
  181.1530  179.5290  142.4720 C   0  0  0  0  0  2  0  0  0  0  0  0
  183.7350  178.3410  142.1510 C   0  0  0  0  0  0  0  0  0  0  0  0
  185.5470  178.4750  144.2550 C   0  0  0  0  0  0  0  0  0  0  0  0
  185.5590  179.1540  147.4850 O   0  0  0  0  0  0  0  0  0  0  0  0
  186.1990  178.6080  145.3820 O   0  0  0  0  0  0  0  0  0  0  0  0
  181.8420  179.0010  143.7220 C   0  0  0  0  0  2  0  0  0  0  0  0
  183.2850  178.7000  143.4490 C   0  0  0  0  0  0  0  0  0  0  0  0
  187.4950  177.9180  142.7080 C   0  0  1  0  0  3  0  0  0  0  0  0
  188.6860  175.9010  143.2430 O   0  0  0  0  0  1  0  0  0  0  0  0
  188.2040  177.0880  143.8060 C   0  0  1  0  0  3  0  0  0  0  0  0
  190.2950  176.9240  145.1800 C   0  0  0  0  0  2  0  0  0  0  0  0
  190.2390  178.5960  143.4630 C   0  0  0  0  0  2  0  0  0  0  0  0
  189.3550  177.8690  144.4620 C   0  0  0  0  0  3  0  0  0  0  0  0
  191.6260  177.6430  145.2290 C   0  0  0  0  0  2  0  0  0  0  0  0
  191.6400  178.6000  144.0500 C   0  0  0  0  0  2  0  0  0  0  0  0
  187.6760  177.3260  141.3100 C   0  0  0  0  0  2  0  0  0  0  0  0
  188.4320  177.7040  138.9830 C   0  0  1  0  0  3  0  0  0  0  0  0
  189.6480  177.7190  139.8890 C   0  0  0  0  0  2  0  0  0  0  0  0
  188.3420  178.3120  140.3710 C   0  0  2  0  0  3  0  0  0  0  0  0
  187.2990  179.1220  137.4420 O   0  0  0  0  0  1  0  0  0  0  0  0
  188.5570  178.8150  137.9580 C   0  0  2  0  0  3  0  0  0  0  0  0
  189.4600  178.3700  136.8300 C   0  0  0  0  0  1  0  0  0  0  0  0
  1 10  2  0  0  0  0
  1  4  1  0  0  0  0
  2  7  1  1  0  0  0
  2  6  1  0  0  0  0
  2 10  1  0  0  0  0
  3  5  1  0  0  0  0
  4 11  2  0  0  0  0
  5 12  2  0  0  0  0
  6  9  1  0  0  0  0
  8  3  1  0  0  0  0
  9 14  1  0  0  0  0
 10 15  1  0  0  0  0
 11  8  1  0  0  0  0
 11 13  1  0  0  0  0
 13  5  1  0  0  0  0
 15 14  1  0  0  0  0
 15  8  2  0  0  0  0
 16 24  1  6  0  0  0
 16  4  1  0  0  0  0
 16 18  1  0  0  0  0
 18 17  1  6  0  0  0
 18 21  1  0  0  0  0
 19 22  1  0  0  0  0
 20 23  1  0  0  0  0
 20 21  1  0  0  0  0
 21 19  1  0  0  0  0
 23 22  1  0  0  0  0
 25 29  1  6  0  0  0
 25 26  1  0  0  0  0
 25 27  1  0  0  0  0
 26 27  1  0  0  0  0
 27 24  1  1  0  0  0
 28 29  1  0  0  0  0
 29 30  1  6  0  0  0
M  END
>  <MODEL>
2

>  <REMARK>
 VINA RESULT:      -9.1      2.312      5.999
  Name = 
  6 active torsions:
  status: ('A' for Active; 'I' for Inactive)
    1  A    between atoms: C_4  and  C_13
    2  A    between atoms: C_7  and  C_15
    3  A    between atoms: C_8  and  C_12
    4  A    between atoms: C_8  and  C_13
    5  A    between atoms: C_13  and  C_27
    6  A    between atoms: C_27  and  C_30
                            x       y       z     vdW  Elec       q    Type
                         _______ _______ _______ _____ _____    ______ ____

>  <TORSDO>
F 6

$$$$
=
 OpenBabel11052412263D

 30 34  0  0  1  0  0  0  0  0999 V2000
  186.7400  178.2780  144.5620 C   0  0  0  0  0  3  0  0  0  0  0  0
  186.3700  178.6720  147.0250 C   0  0  2  0  0  3  0  0  0  0  0  0
  190.3990  176.4790  145.0050 N   0  0  0  0  0  2  0  0  0  0  0  0
  187.5040  177.8390  143.4660 C   0  0  0  0  0  0  0  0  0  0  0  0
  190.6110  176.3220  143.6740 C   0  0  0  0  0  0  0  0  0  0  0  0
  186.8970  178.3000  148.4150 C   0  0  0  0  0  2  0  0  0  0  0  0
  184.9850  178.2380  146.9200 N   0  0  0  0  0  1  0  0  0  0  0  0
  189.1900  177.0700  145.0200 C   0  0  0  0  0  0  0  0  0  0  0  0
  188.4170  178.3590  148.4610 C   0  0  0  0  0  2  0  0  0  0  0  0
  187.1910  178.0980  145.8910 C   0  0  0  0  0  0  0  0  0  0  0  0
  188.7360  177.2410  143.7450 C   0  0  0  0  0  0  0  0  0  0  0  0
  191.6530  175.7950  143.2050 O   0  0  0  0  0  0  0  0  0  0  0  0
  189.6310  176.7720  142.9120 O   0  0  0  0  0  0  0  0  0  0  0  0
  188.9870  177.3120  147.5160 C   0  0  0  0  0  2  0  0  0  0  0  0
  188.4580  177.5030  146.1260 C   0  0  0  0  0  0  0  0  0  0  0  0
  187.0180  178.1020  142.0700 C   0  0  1  0  0  3  0  0  0  0  0  0
  185.7740  179.7110  140.7900 O   0  0  0  0  0  1  0  0  0  0  0  0
  185.7980  179.0540  142.0260 C   0  0  1  0  0  3  0  0  0  0  0  0
  183.6210  179.0280  143.2710 C   0  0  0  0  0  2  0  0  0  0  0  0
  183.6020  178.2270  141.0110 C   0  0  0  0  0  2  0  0  0  0  0  0
  184.4750  178.3020  142.2520 C   0  0  0  0  0  3  0  0  0  0  0  0
  182.1970  178.6140  142.9680 C   0  0  0  0  0  2  0  0  0  0  0  0
  182.1630  178.2440  141.4950 C   0  0  0  0  0  2  0  0  0  0  0  0
  188.1740  178.5820  141.1930 C   0  0  0  0  0  2  0  0  0  0  0  0
  189.6920  177.6550  139.4710 C   0  0  1  0  0  3  0  0  0  0  0  0
  188.8190  178.7100  138.8200 C   0  0  0  0  0  2  0  0  0  0  0  0
  188.2420  177.8100  139.8910 C   0  0  2  0  0  3  0  0  0  0  0  0
  190.8160  175.6080  139.0040 O   0  0  0  0  0  1  0  0  0  0  0  0
  189.8190  176.4650  138.5390 C   0  0  2  0  0  3  0  0  0  0  0  0
  190.1820  176.9400  137.1490 C   0  0  0  0  0  1  0  0  0  0  0  0
  1 10  1  0  0  0  0
  2  7  1  6  0  0  0
  2  6  1  0  0  0  0
  3  8  1  0  0  0  0
  4 11  1  0  0  0  0
  4  1  2  0  0  0  0
  5  3  1  0  0  0  0
  6  9  1  0  0  0  0
  8 15  1  0  0  0  0
 10 15  2  0  0  0  0
 10  2  1  0  0  0  0
 11  8  2  0  0  0  0
 12  5  2  0  0  0  0
 13  5  1  0  0  0  0
 13 11  1  0  0  0  0
 14  9  1  0  0  0  0
 15 14  1  0  0  0  0
 16 24  1  6  0  0  0
 16  4  1  0  0  0  0
 18 17  1  6  0  0  0
 18 16  1  0  0  0  0
 18 21  1  0  0  0  0
 20 23  1  0  0  0  0
 20 21  1  0  0  0  0
 21 19  1  0  0  0  0
 22 19  1  0  0  0  0
 23 22  1  0  0  0  0
 25 29  1  6  0  0  0
 25 27  1  0  0  0  0
 26 25  1  0  0  0  0
 26 27  1  0  0  0  0
 27 24  1  1  0  0  0
 29 30  1  6  0  0  0
 29 28  1  0  0  0  0
M  END
>  <MODEL>
3

>  <REMARK>
 VINA RESULT:      -8.9      1.801      3.284
  Name = 
  6 active torsions:
  status: ('A' for Active; 'I' for Inactive)
    1  A    between atoms: C_4  and  C_13
    2  A    between atoms: C_7  and  C_15
    3  A    between atoms: C_8  and  C_12
    4  A    between atoms: C_8  and  C_13
    5  A    between atoms: C_13  and  C_27
    6  A    between atoms: C_27  and  C_30
                            x       y       z     vdW  Elec       q    Type
                         _______ _______ _______ _____ _____    ______ ____

>  <TORSDO>
F 6

$$$$
=
 OpenBabel11052412263D

 30 34  0  0  1  0  0  0  0  0999 V2000
  185.1240  177.9210  141.9310 C   0  0  0  0  0  3  0  0  0  0  0  0
  182.8430  178.2990  140.9230 C   0  0  2  0  0  3  0  0  0  0  0  0
  184.0320  178.9500  145.7480 N   0  0  0  0  0  2  0  0  0  0  0  0
  186.0370  177.9350  143.0000 C   0  0  0  0  0  0  0  0  0  0  0  0
  185.2760  178.7950  146.2680 C   0  0  0  0  0  0  0  0  0  0  0  0
  181.3720  178.5310  141.2810 C   0  0  0  0  0  2  0  0  0  0  0  0
  182.9470  177.0720  140.1480 N   0  0  0  0  0  1  0  0  0  0  0  0
  184.2350  178.6280  144.4570 C   0  0  0  0  0  0  0  0  0  0  0  0
  181.2330  179.5530  142.4000 C   0  0  0  0  0  2  0  0  0  0  0  0
  183.7600  178.2420  142.1250 C   0  0  0  0  0  0  0  0  0  0  0  0
  185.5460  178.3040  144.2550 C   0  0  0  0  0  0  0  0  0  0  0  0
  185.5410  179.0020  147.4810 O   0  0  0  0  0  0  0  0  0  0  0  0
  186.1870  178.4130  145.3910 O   0  0  0  0  0  0  0  0  0  0  0  0
  181.8780  179.0020  143.6630 C   0  0  0  0  0  2  0  0  0  0  0  0
  183.3090  178.6310  143.4140 C   0  0  0  0  0  0  0  0  0  0  0  0
  187.4870  177.6450  142.7410 C   0  0  1  0  0  3  0  0  0  0  0  0
  188.4480  179.3700  141.3720 O   0  0  0  0  0  1  0  0  0  0  0  0
  187.9420  178.0670  141.3230 C   0  0  1  0  0  3  0  0  0  0  0  0
  188.9590  177.1130  139.2380 C   0  0  0  0  0  2  0  0  0  0  0  0
  190.4270  177.5100  141.0910 C   0  0  0  0  0  2  0  0  0  0  0  0
  189.0020  177.1080  140.7510 C   0  0  0  0  0  3  0  0  0  0  0  0
  190.3420  176.6870  138.7960 C   0  0  0  0  0  2  0  0  0  0  0  0
  191.2880  177.0730  139.9190 C   0  0  0  0  0  2  0  0  0  0  0  0
  188.3500  178.2560  143.8450 C   0  0  0  0  0  2  0  0  0  0  0  0
  189.6370  177.8440  145.9190 C   0  0  1  0  0  3  0  0  0  0  0  0
  190.4620  177.3620  144.7420 C   0  0  0  0  0  2  0  0  0  0  0  0
  188.9580  177.1880  144.7310 C   0  0  2  0  0  3  0  0  0  0  0  0
  189.0400  177.3080  148.1610 O   0  0  0  0  0  1  0  0  0  0  0  0
  189.7440  176.8410  147.0520 C   0  0  2  0  0  3  0  0  0  0  0  0
  191.1960  176.6490  147.4300 C   0  0  0  0  0  1  0  0  0  0  0  0
  1 10  2  0  0  0  0
  1  4  1  0  0  0  0
  2  7  1  1  0  0  0
  2  6  1  0  0  0  0
  2 10  1  0  0  0  0
  3  5  1  0  0  0  0
  4 11  2  0  0  0  0
  5 12  2  0  0  0  0
  6  9  1  0  0  0  0
  8  3  1  0  0  0  0
  9 14  1  0  0  0  0
 10 15  1  0  0  0  0
 11  8  1  0  0  0  0
 11 13  1  0  0  0  0
 13  5  1  0  0  0  0
 15 14  1  0  0  0  0
 15  8  2  0  0  0  0
 16  4  1  0  0  0  0
 16 24  1  1  0  0  0
 18 17  1  1  0  0  0
 18 16  1  0  0  0  0
 19 21  1  0  0  0  0
 21 20  1  0  0  0  0
 21 18  1  0  0  0  0
 22 19  1  0  0  0  0
 22 23  1  0  0  0  0
 23 20  1  0  0  0  0
 25 29  1  1  0  0  0
 26 25  1  0  0  0  0
 27 24  1  6  0  0  0
 27 26  1  0  0  0  0
 27 25  1  0  0  0  0
 29 30  1  1  0  0  0
 29 28  1  0  0  0  0
M  END
>  <MODEL>
4

>  <REMARK>
 VINA RESULT:      -8.6      2.188      6.540
  Name = 
  6 active torsions:
  status: ('A' for Active; 'I' for Inactive)
    1  A    between atoms: C_4  and  C_13
    2  A    between atoms: C_7  and  C_15
    3  A    between atoms: C_8  and  C_12
    4  A    between atoms: C_8  and  C_13
    5  A    between atoms: C_13  and  C_27
    6  A    between atoms: C_27  and  C_30
                            x       y       z     vdW  Elec       q    Type
                         _______ _______ _______ _____ _____    ______ ____

>  <TORSDO>
F 6

$$$$
=
 OpenBabel11052412263D

 30 34  0  0  1  0  0  0  0  0999 V2000
  186.8250  177.9760  143.7820 C   0  0  0  0  0  3  0  0  0  0  0  0
  184.9260  178.3460  145.3980 C   0  0  2  0  0  3  0  0  0  0  0  0
  184.7440  179.1880  140.4610 N   0  0  0  0  0  2  0  0  0  0  0  0
  187.3850  177.9620  142.4920 C   0  0  0  0  0  0  0  0  0  0  0  0
  185.7570  178.9340  139.5940 C   0  0  0  0  0  0  0  0  0  0  0  0
  183.5440  178.9940  145.5330 C   0  0  0  0  0  2  0  0  0  0  0  0
  185.8240  178.9600  146.3640 N   0  0  0  0  0  1  0  0  0  0  0  0
  185.2990  178.8360  141.6360 C   0  0  0  0  0  0  0  0  0  0  0  0
  182.6750  178.6950  144.3190 C   0  0  0  0  0  2  0  0  0  0  0  0
  185.5070  178.4380  144.0050 C   0  0  0  0  0  0  0  0  0  0  0  0
  186.5760  178.3980  141.4390 C   0  0  0  0  0  0  0  0  0  0  0  0
  185.6590  179.1280  138.3540 O   0  0  0  0  0  0  0  0  0  0  0  0
  186.8510  178.4620  140.1610 O   0  0  0  0  0  0  0  0  0  0  0  0
  183.3040  179.3300  143.0870 C   0  0  0  0  0  2  0  0  0  0  0  0
  184.7140  178.8540  142.9020 C   0  0  0  0  0  0  0  0  0  0  0  0
  188.7660  177.4080  142.2890 C   0  0  1  0  0  3  0  0  0  0  0  0
  189.8370  175.3240  142.8200 O   0  0  0  0  0  1  0  0  0  0  0  0
  189.1890  176.4200  143.4020 C   0  0  1  0  0  3  0  0  0  0  0  0
  189.4660  177.0420  145.8160 C   0  0  0  0  0  2  0  0  0  0  0  0
  191.4350  176.3730  144.6230 C   0  0  0  0  0  2  0  0  0  0  0  0
  190.1050  177.0850  144.4440 C   0  0  0  0  0  3  0  0  0  0  0  0
  190.6170  177.1190  146.7960 C   0  0  0  0  0  2  0  0  0  0  0  0
  191.8310  176.5580  146.0770 C   0  0  0  0  0  2  0  0  0  0  0  0
  188.8920  176.8110  140.8880 C   0  0  0  0  0  2  0  0  0  0  0  0
  190.8900  176.4750  139.4660 C   0  0  1  0  0  3  0  0  0  0  0  0
  191.3130  177.2290  140.7110 C   0  0  0  0  0  2  0  0  0  0  0  0
  189.9660  177.5100  140.0800 C   0  0  2  0  0  3  0  0  0  0  0  0
  190.9000  176.7130  137.0960 O   0  0  0  0  0  1  0  0  0  0  0  0
  191.5830  177.0760  138.2570 C   0  0  2  0  0  3  0  0  0  0  0  0
  193.0040  176.5660  138.1770 C   0  0  0  0  0  1  0  0  0  0  0  0
  1 10  1  0  0  0  0
  2  6  1  0  0  0  0
  2  7  1  1  0  0  0
  3  8  1  0  0  0  0
  4  1  2  0  0  0  0
  5 13  1  0  0  0  0
  5  3  1  0  0  0  0
  8 15  1  0  0  0  0
  9  6  1  0  0  0  0
 10  2  1  0  0  0  0
 11  8  2  0  0  0  0
 11  4  1  0  0  0  0
 12  5  2  0  0  0  0
 13 11  1  0  0  0  0
 14  9  1  0  0  0  0
 15 14  1  0  0  0  0
 15 10  2  0  0  0  0
 16 24  1  6  0  0  0
 16  4  1  0  0  0  0
 16 18  1  0  0  0  0
 18 17  1  6  0  0  0
 18 21  1  0  0  0  0
 19 22  1  0  0  0  0
 20 23  1  0  0  0  0
 21 20  1  0  0  0  0
 21 19  1  0  0  0  0
 23 22  1  0  0  0  0
 25 29  1  6  0  0  0
 25 27  1  0  0  0  0
 25 26  1  0  0  0  0
 27 26  1  0  0  0  0
 27 24  1  1  0  0  0
 28 29  1  0  0  0  0
 29 30  1  6  0  0  0
M  END
>  <MODEL>
5

>  <REMARK>
 VINA RESULT:      -8.5      2.486      6.074
  Name = 
  6 active torsions:
  status: ('A' for Active; 'I' for Inactive)
    1  A    between atoms: C_4  and  C_13
    2  A    between atoms: C_7  and  C_15
    3  A    between atoms: C_8  and  C_12
    4  A    between atoms: C_8  and  C_13
    5  A    between atoms: C_13  and  C_27
    6  A    between atoms: C_27  and  C_30
                            x       y       z     vdW  Elec       q    Type
                         _______ _______ _______ _____ _____    ______ ____

>  <TORSDO>
F 6

$$$$
=
 OpenBabel11052412263D

 30 34  0  0  1  0  0  0  0  0999 V2000
  187.1920  177.9000  141.5300 C   0  0  0  0  0  3  0  0  0  0  0  0
  185.4450  178.6360  143.1930 C   0  0  2  0  0  3  0  0  0  0  0  0
  189.7950  176.4260  144.3370 N   0  0  0  0  0  2  0  0  0  0  0  0
  188.4400  177.3490  141.1880 C   0  0  0  0  0  0  0  0  0  0  0  0
  190.7510  176.0830  143.4360 C   0  0  0  0  0  0  0  0  0  0  0  0
  185.0260  178.5130  144.6610 C   0  0  0  0  0  2  0  0  0  0  0  0
  184.3790  178.1040  142.3580 N   0  0  0  0  0  1  0  0  0  0  0  0
  188.8390  176.9340  143.5370 C   0  0  0  0  0  0  0  0  0  0  0  0
  186.2210  178.6760  145.5900 C   0  0  0  0  0  2  0  0  0  0  0  0
  186.7560  177.9520  142.8750 C   0  0  0  0  0  0  0  0  0  0  0  0
  189.2400  176.8800  142.2340 C   0  0  0  0  0  0  0  0  0  0  0  0
  191.8470  175.5600  143.7670 O   0  0  0  0  0  0  0  0  0  0  0  0
  190.4350  176.3490  142.1820 O   0  0  0  0  0  0  0  0  0  0  0  0
  187.2000  177.5370  145.3480 C   0  0  0  0  0  2  0  0  0  0  0  0
  187.6100  177.4810  143.9070 C   0  0  0  0  0  0  0  0  0  0  0  0
  188.8910  177.3670  139.7560 C   0  0  1  0  0  3  0  0  0  0  0  0
  189.1340  179.3380  138.4040 O   0  0  0  0  0  1  0  0  0  0  0  0
  188.1780  178.4520  138.9130 C   0  0  1  0  0  3  0  0  0  0  0  0
  187.8520  178.3550  136.4280 C   0  0  0  0  0  2  0  0  0  0  0  0
  187.4960  176.3300  137.6600 C   0  0  0  0  0  2  0  0  0  0  0  0
  187.3590  177.8390  137.7630 C   0  0  0  0  0  3  0  0  0  0  0  0
  187.4630  177.2950  135.4200 C   0  0  0  0  0  2  0  0  0  0  0  0
  187.3790  175.9860  136.1860 C   0  0  0  0  0  2  0  0  0  0  0  0
  190.4140  177.4700  139.6860 C   0  0  0  0  0  2  0  0  0  0  0  0
  192.3190  176.7670  138.2710 C   0  0  1  0  0  3  0  0  0  0  0  0
  191.0550  176.7000  137.4370 C   0  0  0  0  0  2  0  0  0  0  0  0
  191.0140  176.3210  138.9010 C   0  0  2  0  0  3  0  0  0  0  0  0
  194.4240  175.7000  138.5870 O   0  0  0  0  0  1  0  0  0  0  0  0
  193.1780  175.5510  137.9800 C   0  0  2  0  0  3  0  0  0  0  0  0
  193.3670  175.4030  136.4870 C   0  0  0  0  0  1  0  0  0  0  0  0
  1 10  1  0  0  0  0
  2  7  1  6  0  0  0
  2  6  1  0  0  0  0
  4  1  2  0  0  0  0
  4 11  1  0  0  0  0
  5 12  2  0  0  0  0
  5  3  1  0  0  0  0
  6  9  1  0  0  0  0
  8 15  1  0  0  0  0
  8  3  1  0  0  0  0
 10  2  1  0  0  0  0
 10 15  2  0  0  0  0
 11  8  2  0  0  0  0
 13 11  1  0  0  0  0
 13  5  1  0  0  0  0
 14  9  1  0  0  0  0
 15 14  1  0  0  0  0
 16 24  1  1  0  0  0
 16  4  1  0  0  0  0
 18 17  1  6  0  0  0
 18 16  1  0  0  0  0
 19 21  1  0  0  0  0
 20 21  1  0  0  0  0
 21 18  1  0  0  0  0
 22 23  1  0  0  0  0
 22 19  1  0  0  0  0
 23 20  1  0  0  0  0
 25 29  1  6  0  0  0
 25 27  1  0  0  0  0
 26 25  1  0  0  0  0
 26 27  1  0  0  0  0
 27 24  1  1  0  0  0
 29 30  1  6  0  0  0
 29 28  1  0  0  0  0
M  END
>  <MODEL>
6

>  <REMARK>
 VINA RESULT:      -8.4      2.974      4.969
  Name = 
  6 active torsions:
  status: ('A' for Active; 'I' for Inactive)
    1  A    between atoms: C_4  and  C_13
    2  A    between atoms: C_7  and  C_15
    3  A    between atoms: C_8  and  C_12
    4  A    between atoms: C_8  and  C_13
    5  A    between atoms: C_13  and  C_27
    6  A    between atoms: C_27  and  C_30
                            x       y       z     vdW  Elec       q    Type
                         _______ _______ _______ _____ _____    ______ ____

>  <TORSDO>
F 6

$$$$
=
 OpenBabel11052412263D

 30 34  0  0  1  0  0  0  0  0999 V2000
  187.1250  177.8420  143.6260 C   0  0  0  0  0  3  0  0  0  0  0  0
  185.6290  178.1190  145.6370 C   0  0  2  0  0  3  0  0  0  0  0  0
  184.4370  179.3760  140.9340 N   0  0  0  0  0  2  0  0  0  0  0  0
  187.3970  177.9230  142.2490 C   0  0  0  0  0  0  0  0  0  0  0  0
  185.2310  179.1730  139.8520 C   0  0  0  0  0  0  0  0  0  0  0  0
  184.3350  178.7850  146.1150 C   0  0  0  0  0  2  0  0  0  0  0  0
  186.7370  178.6280  146.4320 N   0  0  0  0  0  1  0  0  0  0  0  0
  185.2140  178.9140  141.9310 C   0  0  0  0  0  0  0  0  0  0  0  0
  183.2170  178.6100  145.0970 C   0  0  0  0  0  2  0  0  0  0  0  0
  185.9040  178.3140  144.1620 C   0  0  0  0  0  0  0  0  0  0  0  0
  186.4020  178.4650  141.4310 C   0  0  0  0  0  0  0  0  0  0  0  0
  184.8810  179.4720  138.6810 O   0  0  0  0  0  0  0  0  0  0  0  0
  186.4010  178.6300  140.1330 O   0  0  0  0  0  0  0  0  0  0  0  0
  183.5960  179.3310  143.8120 C   0  0  0  0  0  2  0  0  0  0  0  0
  184.9130  178.8390  143.2920 C   0  0  0  0  0  0  0  0  0  0  0  0
  188.6800  177.3570  141.7120 C   0  0  1  0  0  3  0  0  0  0  0  0
  189.4270  178.8920  140.0210 O   0  0  0  0  0  1  0  0  0  0  0  0
  188.8690  177.6200  140.1980 C   0  0  1  0  0  3  0  0  0  0  0  0
  189.3750  176.3730  138.0820 C   0  0  0  0  0  2  0  0  0  0  0  0
  191.2290  176.9320  139.4960 C   0  0  0  0  0  2  0  0  0  0  0  0
  189.7580  176.5540  139.5360 C   0  0  0  0  0  3  0  0  0  0  0  0
  190.6170  175.8360  137.4050 C   0  0  0  0  0  2  0  0  0  0  0  0
  191.7970  176.3170  138.2290 C   0  0  0  0  0  2  0  0  0  0  0  0
  189.8610  177.8460  142.5490 C   0  0  0  0  0  2  0  0  0  0  0  0
  190.6490  177.6260  144.8850 C   0  0  1  0  0  3  0  0  0  0  0  0
  191.6810  176.9930  143.9720 C   0  0  0  0  0  2  0  0  0  0  0  0
  190.2080  176.8640  143.6500 C   0  0  2  0  0  3  0  0  0  0  0  0
  189.8060  177.4730  147.1070 O   0  0  0  0  0  1  0  0  0  0  0  0
  190.4580  176.7500  146.1090 C   0  0  2  0  0  3  0  0  0  0  0  0
  191.8040  176.2930  146.6260 C   0  0  0  0  0  1  0  0  0  0  0  0
  1 10  1  0  0  0  0
  2  6  1  0  0  0  0
  2  7  1  1  0  0  0
  3  8  1  0  0  0  0
  4  1  2  0  0  0  0
  5 13  1  0  0  0  0
  5  3  1  0  0  0  0
  8 15  1  0  0  0  0
  9  6  1  0  0  0  0
 10  2  1  0  0  0  0
 11  8  2  0  0  0  0
 11  4  1  0  0  0  0
 12  5  2  0  0  0  0
 13 11  1  0  0  0  0
 14  9  1  0  0  0  0
 15 14  1  0  0  0  0
 15 10  2  0  0  0  0
 16  4  1  0  0  0  0
 16 24  1  1  0  0  0
 18 17  1  1  0  0  0
 18 16  1  0  0  0  0
 19 21  1  0  0  0  0
 20 21  1  0  0  0  0
 21 18  1  0  0  0  0
 22 19  1  0  0  0  0
 22 23  1  0  0  0  0
 23 20  1  0  0  0  0
 25 29  1  1  0  0  0
 26 25  1  0  0  0  0
 27 24  1  6  0  0  0
 27 26  1  0  0  0  0
 27 25  1  0  0  0  0
 29 30  1  1  0  0  0
 29 28  1  0  0  0  0
M  END
>  <MODEL>
7

>  <REMARK>
 VINA RESULT:      -8.2      2.250      6.254
  Name = 
  6 active torsions:
  status: ('A' for Active; 'I' for Inactive)
    1  A    between atoms: C_4  and  C_13
    2  A    between atoms: C_7  and  C_15
    3  A    between atoms: C_8  and  C_12
    4  A    between atoms: C_8  and  C_13
    5  A    between atoms: C_13  and  C_27
    6  A    between atoms: C_27  and  C_30
                            x       y       z     vdW  Elec       q    Type
                         _______ _______ _______ _____ _____    ______ ____

>  <TORSDO>
F 6

$$$$
=
 OpenBabel11052412263D

 30 34  0  0  1  0  0  0  0  0999 V2000
  189.2140  177.4990  140.2150 C   0  0  0  0  0  3  0  0  0  0  0  0
  190.4040  176.8370  138.0930 C   0  0  2  0  0  3  0  0  0  0  0  0
  185.7410  178.6540  138.3630 N   0  0  0  0  0  2  0  0  0  0  0  0
  188.1180  178.0230  140.9230 C   0  0  0  0  0  0  0  0  0  0  0  0
  185.1310  179.0570  139.5070 C   0  0  0  0  0  0  0  0  0  0  0  0
  190.1830  176.5630  136.6020 C   0  0  0  0  0  2  0  0  0  0  0  0
  190.9160  175.6280  138.7190 N   0  0  0  0  0  1  0  0  0  0  0  0
  186.9290  178.2250  138.8260 C   0  0  0  0  0  0  0  0  0  0  0  0
  189.2950  177.6270  135.9720 C   0  0  0  0  0  2  0  0  0  0  0  0
  189.1640  177.3200  138.8130 C   0  0  0  0  0  0  0  0  0  0  0  0
  186.9890  178.3820  140.1810 C   0  0  0  0  0  0  0  0  0  0  0  0
  183.9690  179.5400  139.5280 O   0  0  0  0  0  0  0  0  0  0  0  0
  185.8620  178.9030  140.5950 O   0  0  0  0  0  0  0  0  0  0  0  0
  187.9140  177.5650  136.6080 C   0  0  0  0  0  2  0  0  0  0  0  0
  188.0040  177.7160  138.0960 C   0  0  0  0  0  0  0  0  0  0  0  0
  188.2320  178.2540  142.4030 C   0  0  1  0  0  3  0  0  0  0  0  0
  187.7540  176.2840  143.6930 O   0  0  0  0  0  1  0  0  0  0  0  0
  187.1770  177.4680  143.2180 C   0  0  1  0  0  3  0  0  0  0  0  0
  185.2230  178.7780  144.0860 C   0  0  0  0  0  2  0  0  0  0  0  0
  186.4800  177.5010  145.6780 C   0  0  0  0  0  2  0  0  0  0  0  0
  186.6250  178.2960  144.3920 C   0  0  0  0  0  3  0  0  0  0  0  0
  184.5730  179.0030  145.4350 C   0  0  0  0  0  2  0  0  0  0  0  0
  185.2830  178.0820  146.4110 C   0  0  0  0  0  2  0  0  0  0  0  0
  189.6630  177.9810  142.8670 C   0  0  0  0  0  2  0  0  0  0  0  0
  190.5020  177.6040  145.1650 C   0  0  1  0  0  3  0  0  0  0  0  0
  191.1240  176.5650  144.2540 C   0  0  0  0  0  2  0  0  0  0  0  0
  189.6940  177.0070  144.0280 C   0  0  2  0  0  3  0  0  0  0  0  0
  189.4440  177.8780  147.2810 O   0  0  0  0  0  1  0  0  0  0  0  0
  190.0920  176.9470  146.4700 C   0  0  2  0  0  3  0  0  0  0  0  0
  191.3180  176.4300  147.1890 C   0  0  0  0  0  1  0  0  0  0  0  0
  1  4  1  0  0  0  0
  2  7  1  1  0  0  0
  2 10  1  0  0  0  0
  3  8  1  0  0  0  0
  3  5  1  0  0  0  0
  4 16  1  0  0  0  0
  5 12  2  0  0  0  0
  5 13  1  0  0  0  0
  6  2  1  0  0  0  0
  8 11  1  0  0  0  0
  9  6  1  0  0  0  0
  9 14  1  0  0  0  0
 10  1  2  0  0  0  0
 11 13  1  0  0  0  0
 11  4  2  0  0  0  0
 14 15  1  0  0  0  0
 15 10  1  0  0  0  0
 15  8  2  0  0  0  0
 16 24  1  1  0  0  0
 16 18  1  0  0  0  0
 18 17  1  1  0  0  0
 18 21  1  0  0  0  0
 19 21  1  0  0  0  0
 19 22  1  0  0  0  0
 20 23  1  0  0  0  0
 21 20  1  0  0  0  0
 22 23  1  0  0  0  0
 25 29  1  1  0  0  0
 26 25  1  0  0  0  0
 27 24  1  6  0  0  0
 27 26  1  0  0  0  0
 27 25  1  0  0  0  0
 29 30  1  1  0  0  0
 29 28  1  0  0  0  0
M  END
>  <MODEL>
8

>  <REMARK>
 VINA RESULT:      -8.1      2.727      6.634
  Name = 
  6 active torsions:
  status: ('A' for Active; 'I' for Inactive)
    1  A    between atoms: C_4  and  C_13
    2  A    between atoms: C_7  and  C_15
    3  A    between atoms: C_8  and  C_12
    4  A    between atoms: C_8  and  C_13
    5  A    between atoms: C_13  and  C_27
    6  A    between atoms: C_27  and  C_30
                            x       y       z     vdW  Elec       q    Type
                         _______ _______ _______ _____ _____    ______ ____

>  <TORSDO>
F 6

$$$$
=
 OpenBabel11052412263D

 30 34  0  0  1  0  0  0  0  0999 V2000
  189.6700  177.1910  141.4560 C   0  0  0  0  0  3  0  0  0  0  0  0
  190.3350  176.7900  143.8560 C   0  0  2  0  0  3  0  0  0  0  0  0
  186.0210  178.8410  142.3390 N   0  0  0  0  0  2  0  0  0  0  0  0
  188.7700  177.6100  140.4610 C   0  0  0  0  0  0  0  0  0  0  0  0
  185.6530  179.0030  141.0430 C   0  0  0  0  0  0  0  0  0  0  0  0
  189.9570  177.1280  145.3010 C   0  0  0  0  0  2  0  0  0  0  0  0
  191.6810  177.2780  143.5990 N   0  0  0  0  0  1  0  0  0  0  0  0
  187.2450  178.2980  142.2080 C   0  0  0  0  0  0  0  0  0  0  0  0
  188.4550  177.0090  145.5200 C   0  0  0  0  0  2  0  0  0  0  0  0
  189.3690  177.3410  142.8300 C   0  0  0  0  0  0  0  0  0  0  0  0
  187.5560  178.1570  140.8860 C   0  0  0  0  0  0  0  0  0  0  0  0
  184.5440  179.4920  140.7030 O   0  0  0  0  0  0  0  0  0  0  0  0
  186.5550  178.5990  140.1680 O   0  0  0  0  0  0  0  0  0  0  0  0
  187.7420  178.0420  144.6600 C   0  0  0  0  0  2  0  0  0  0  0  0
  188.1150  177.8840  143.2170 C   0  0  0  0  0  0  0  0  0  0  0  0
  189.1020  177.3790  139.0150 C   0  0  1  0  0  3  0  0  0  0  0  0
  189.0550  179.2990  137.5720 O   0  0  0  0  0  1  0  0  0  0  0  0
  188.2600  178.2540  138.0550 C   0  0  1  0  0  3  0  0  0  0  0  0
  188.5330  177.6330  135.6410 C   0  0  0  0  0  2  0  0  0  0  0  0
  187.7160  175.9360  137.1240 C   0  0  0  0  0  2  0  0  0  0  0  0
  187.6910  177.4360  136.8840 C   0  0  0  0  0  3  0  0  0  0  0  0
  188.3050  176.3940  134.8010 C   0  0  0  0  0  2  0  0  0  0  0  0
  187.9270  175.2860  135.7680 C   0  0  0  0  0  2  0  0  0  0  0  0
  190.6060  177.5340  138.7910 C   0  0  0  0  0  2  0  0  0  0  0  0
  192.6320  176.4810  137.8350 C   0  0  1  0  0  3  0  0  0  0  0  0
  191.4670  176.2050  136.9050 C   0  0  0  0  0  2  0  0  0  0  0  0
  191.2500  176.2180  138.4030 C   0  0  2  0  0  3  0  0  0  0  0  0
  194.6730  175.5310  138.6140 O   0  0  0  0  0  1  0  0  0  0  0  0
  193.4750  175.2260  137.9690 C   0  0  2  0  0  3  0  0  0  0  0  0
  193.7790  174.6660  136.5970 C   0  0  0  0  0  1  0  0  0  0  0  0
  1 10  1  0  0  0  0
  2  7  1  6  0  0  0
  2  6  1  0  0  0  0
  4 11  1  0  0  0  0
  4  1  2  0  0  0  0
  5  3  1  0  0  0  0
  6  9  1  0  0  0  0
  8  3  1  0  0  0  0
  8 15  1  0  0  0  0
 10 15  2  0  0  0  0
 10  2  1  0  0  0  0
 11  8  2  0  0  0  0
 12  5  2  0  0  0  0
 13 11  1  0  0  0  0
 13  5  1  0  0  0  0
 14  9  1  0  0  0  0
 15 14  1  0  0  0  0
 16 24  1  1  0  0  0
 16  4  1  0  0  0  0
 18 17  1  6  0  0  0
 18 16  1  0  0  0  0
 19 21  1  0  0  0  0
 21 20  1  0  0  0  0
 21 18  1  0  0  0  0
 22 19  1  0  0  0  0
 22 23  1  0  0  0  0
 23 20  1  0  0  0  0
 25 29  1  1  0  0  0
 25 27  1  0  0  0  0
 26 25  1  0  0  0  0
 26 27  1  0  0  0  0
 27 24  1  6  0  0  0
 29 30  1  6  0  0  0
 29 28  1  0  0  0  0
M  END
>  <MODEL>
9

>  <REMARK>
 VINA RESULT:      -8.1      2.408      4.652
  Name = 
  6 active torsions:
  status: ('A' for Active; 'I' for Inactive)
    1  A    between atoms: C_4  and  C_13
    2  A    between atoms: C_7  and  C_15
    3  A    between atoms: C_8  and  C_12
    4  A    between atoms: C_8  and  C_13
    5  A    between atoms: C_13  and  C_27
    6  A    between atoms: C_27  and  C_30
                            x       y       z     vdW  Elec       q    Type
                         _______ _______ _______ _____ _____    ______ ____

>  <TORSDO>
F 6

$$$$
