=
 OpenBabel11052416463D

 32 37  0  0  0  0  0  0  0  0999 V2000
  183.2120  178.9220  145.1070 C   0  0  0  0  0  3  0  0  0  0  0  0
  187.5740  177.8640  142.7620 C   0  0  0  0  0  0  0  0  0  0  0  0
  190.6230  176.8620  146.4540 C   0  0  0  0  0  3  0  0  0  0  0  0
  191.6540  176.6290  145.5460 C   0  0  0  0  0  3  0  0  0  0  0  0
  188.4120  177.7540  140.4140 C   0  0  0  0  0  0  0  0  0  0  0  0
  189.4880  177.5060  139.5690 C   0  0  0  0  0  0  0  0  0  0  0  0
  185.2570  178.4620  143.2560 C   0  0  0  0  0  0  0  0  0  0  0  0
  186.7800  177.9630  145.0720 C   0  0  0  0  0  3  0  0  0  0  0  0
  191.5420  176.9820  139.0030 N   0  0  0  0  0  0  0  0  0  0  0  0
  184.4850  178.5570  145.5560 C   0  0  0  0  0  3  0  0  0  0  0  0
  189.3580  177.2250  145.9930 C   0  0  0  0  0  3  0  0  0  0  0  0
  187.8220  177.7280  144.1540 C   0  0  0  0  0  0  0  0  0  0  0  0
  189.1010  177.3620  144.6150 C   0  0  0  0  0  0  0  0  0  0  0  0
  189.9160  177.2550  142.3080 C   0  0  0  0  0  0  0  0  0  0  0  0
  190.8760  177.2160  137.8790 N   0  0  0  0  0  0  0  0  0  0  0  0
  182.9560  179.0580  143.7330 C   0  0  0  0  0  0  0  0  0  0  0  0
  185.5090  178.3260  144.6350 C   0  0  0  0  0  0  0  0  0  0  0  0
  189.5950  177.5450  138.1900 C   0  0  0  0  0  3  0  0  0  0  0  0
  183.9840  178.8270  142.8120 C   0  0  0  0  0  3  0  0  0  0  0  0
  191.4190  176.7590  144.1770 C   0  0  0  0  0  3  0  0  0  0  0  0
  190.1480  177.1250  143.6920 C   0  0  0  0  0  0  0  0  0  0  0  0
  190.9700  177.0170  141.3950 C   0  0  0  0  0  3  0  0  0  0  0  0
  186.2820  178.2320  142.3400 C   0  0  0  0  0  3  0  0  0  0  0  0
  187.2190  178.1010  139.8670 F   0  0  0  0  0  0  0  0  0  0  0  0
  192.9430  176.6010  139.0570 C   0  0  0  0  0  1  0  0  0  0  0  0
  188.6150  177.6300  141.8240 C   0  0  0  0  0  0  0  0  0  0  0  0
  190.7110  177.1540  140.0400 C   0  0  0  0  0  0  0  0  0  0  0  0
  181.6620  179.4300  143.2550 N   0  0  0  0  0  2  0  0  0  0  0  0
  181.0240  178.7840  142.1180 C   0  0  0  0  0  2  0  0  0  0  0  0
  179.8870  177.9510  142.5900 C   0  0  0  0  0  0  0  0  0  0  0  0
  179.5520  177.9350  143.9380 O   0  0  0  0  0  1  0  0  0  0  0  0
  179.2050  177.2900  141.7660 O   0  0  0  0  0  0  0  0  0  0  0  0
  1 10  1  0  0  0  0
  2 12  1  0  0  0  0
  4  3  2  0  0  0  0
  5 26  1  0  0  0  0
  6 27  1  0  0  0  0
  6  5  2  0  0  0  0
  7 17  1  0  0  0  0
  9 25  1  0  0  0  0
  9 27  1  0  0  0  0
 11  3  1  0  0  0  0
 12 13  1  0  0  0  0
 12  8  2  0  0  0  0
 13 11  2  0  0  0  0
 14 21  1  0  0  0  0
 15 18  2  0  0  0  0
 15  9  1  0  0  0  0
 16  1  2  0  0  0  0
 17  8  1  0  0  0  0
 17 10  2  0  0  0  0
 18  6  1  0  0  0  0
 19  7  2  0  0  0  0
 19 16  1  0  0  0  0
 20  4  1  0  0  0  0
 21 20  2  0  0  0  0
 21 13  1  0  0  0  0
 22 14  1  0  0  0  0
 23  2  2  0  0  0  0
 23  7  1  0  0  0  0
 24  5  1  0  0  0  0
 26 14  2  0  0  0  0
 26  2  1  0  0  0  0
 27 22  2  0  0  0  0
 28 16  1  0  0  0  0
 29 30  1  0  0  0  0
 29 28  1  0  0  0  0
 30 31  1  0  0  0  0
 32 30  2  0  0  0  0
M  END
>  <MODEL>
1

>  <REMARK>
 VINA RESULT:     -12.0      0.000      0.000
  Name = 
  3 active torsions:
  status: ('A' for Active; 'I' for Inactive)
    1  A    between atoms: C_1  and  C_10
    2  A    between atoms: C_10  and  N_24
    3  A    between atoms: C_19  and  N_24
                            x       y       z     vdW  Elec       q    Type
                         _______ _______ _______ _____ _____    ______ ____

>  <TORSDO>
F 3

$$$$
=
 OpenBabel11052416463D

 32 37  0  0  0  0  0  0  0  0999 V2000
  181.5660  178.9560  143.9030 C   0  0  0  0  0  3  0  0  0  0  0  0
  186.4530  178.1300  142.8670 C   0  0  0  0  0  0  0  0  0  0  0  0
  188.4460  177.4770  147.2870 C   0  0  0  0  0  3  0  0  0  0  0  0
  189.6960  177.2860  146.7010 C   0  0  0  0  0  3  0  0  0  0  0  0
  187.8990  177.9980  140.8370 C   0  0  0  0  0  0  0  0  0  0  0  0
  189.1760  177.7980  140.3250 C   0  0  0  0  0  0  0  0  0  0  0  0
  184.0580  178.5790  142.6930 C   0  0  0  0  0  0  0  0  0  0  0  0
  185.0610  178.2530  144.8720 C   0  0  0  0  0  3  0  0  0  0  0  0
  191.3340  177.4020  140.3560 N   0  0  0  0  0  0  0  0  0  0  0  0
  182.6900  178.6980  144.6950 C   0  0  0  0  0  3  0  0  0  0  0  0
  187.3340  177.7320  146.4860 C   0  0  0  0  0  3  0  0  0  0  0  0
  186.3240  178.0600  144.2800 C   0  0  0  0  0  0  0  0  0  0  0  0
  187.4510  177.8030  145.0850 C   0  0  0  0  0  0  0  0  0  0  0  0
  188.8630  177.6740  143.0880 C   0  0  0  0  0  0  0  0  0  0  0  0
  190.9830  177.5490  139.0850 N   0  0  0  0  0  0  0  0  0  0  0  0
  181.6830  179.0250  142.5060 C   0  0  0  0  0  0  0  0  0  0  0  0
  183.9360  178.5090  144.0930 C   0  0  0  0  0  0  0  0  0  0  0  0
  189.6490  177.7970  139.0240 C   0  0  0  0  0  3  0  0  0  0  0  0
  182.9330  178.8360  141.9060 C   0  0  0  0  0  3  0  0  0  0  0  0
  189.8320  177.3520  145.3140 C   0  0  0  0  0  3  0  0  0  0  0  0
  188.7200  177.6090  144.4890 C   0  0  0  0  0  0  0  0  0  0  0  0
  190.1370  177.4800  142.5040 C   0  0  0  0  0  3  0  0  0  0  0  0
  185.3040  178.3910  142.0970 C   0  0  0  0  0  3  0  0  0  0  0  0
  186.8800  178.2400  139.9740 F   0  0  0  0  0  0  0  0  0  0  0  0
  192.6880  177.1240  140.8030 C   0  0  0  0  0  1  0  0  0  0  0  0
  187.7210  177.9380  142.2550 C   0  0  0  0  0  0  0  0  0  0  0  0
  190.2450  177.5500  141.1230 C   0  0  0  0  0  0  0  0  0  0  0  0
  180.5460  179.2870  141.6800 N   0  0  0  0  0  2  0  0  0  0  0  0
  179.5020  178.3040  141.4380 C   0  0  0  0  0  2  0  0  0  0  0  0
  179.7950  177.5630  140.1820 C   0  0  0  0  0  0  0  0  0  0  0  0
  180.5770  176.4160  140.2190 O   0  0  0  0  0  1  0  0  0  0  0  0
  179.3060  177.9550  139.0910 O   0  0  0  0  0  0  0  0  0  0  0  0
  1 10  1  0  0  0  0
  2 12  1  0  0  0  0
  4  3  1  0  0  0  0
  5 26  1  0  0  0  0
  6  5  2  0  0  0  0
  6 27  1  0  0  0  0
  7 17  1  0  0  0  0
  9 25  1  0  0  0  0
  9 27  1  0  0  0  0
 11  3  2  0  0  0  0
 12  8  2  0  0  0  0
 12 13  1  0  0  0  0
 13 11  1  0  0  0  0
 14 21  1  0  0  0  0
 15  9  1  0  0  0  0
 16  1  2  0  0  0  0
 17 10  2  0  0  0  0
 17  8  1  0  0  0  0
 18 15  2  0  0  0  0
 18  6  1  0  0  0  0
 19 16  1  0  0  0  0
 19  7  2  0  0  0  0
 20  4  2  0  0  0  0
 21 13  2  0  0  0  0
 21 20  1  0  0  0  0
 22 14  1  0  0  0  0
 23  7  1  0  0  0  0
 23  2  2  0  0  0  0
 24  5  1  0  0  0  0
 26  2  1  0  0  0  0
 26 14  2  0  0  0  0
 27 22  2  0  0  0  0
 28 16  1  0  0  0  0
 29 28  1  0  0  0  0
 30 31  1  0  0  0  0
 30 29  1  0  0  0  0
 32 30  2  0  0  0  0
M  END
>  <MODEL>
2

>  <REMARK>
 VINA RESULT:     -11.0      1.335      1.813
  Name = 
  3 active torsions:
  status: ('A' for Active; 'I' for Inactive)
    1  A    between atoms: C_1  and  C_10
    2  A    between atoms: C_10  and  N_24
    3  A    between atoms: C_19  and  N_24
                            x       y       z     vdW  Elec       q    Type
                         _______ _______ _______ _____ _____    ______ ____

>  <TORSDO>
F 3

$$$$
=
 OpenBabel11052416463D

 32 37  0  0  0  0  0  0  0  0999 V2000
  188.4860  177.7390  137.3440 C   0  0  0  0  0  3  0  0  0  0  0  0
  187.9590  177.7910  142.3800 C   0  0  0  0  0  0  0  0  0  0  0  0
  183.2800  179.0760  143.0080 C   0  0  0  0  0  3  0  0  0  0  0  0
  183.4410  179.0050  144.3900 C   0  0  0  0  0  3  0  0  0  0  0  0
  189.3900  177.3560  144.3770 C   0  0  0  0  0  0  0  0  0  0  0  0
  189.4750  177.3070  145.7640 C   0  0  0  0  0  0  0  0  0  0  0  0
  188.8450  177.5870  140.1130 C   0  0  0  0  0  0  0  0  0  0  0  0
  186.5320  178.2210  140.4420 C   0  0  0  0  0  3  0  0  0  0  0  0
  188.7920  177.4580  147.8430 N   0  0  0  0  0  0  0  0  0  0  0  0
  187.4160  178.0190  138.1980 C   0  0  0  0  0  3  0  0  0  0  0  0
  184.3550  178.7930  142.1660 C   0  0  0  0  0  3  0  0  0  0  0  0
  186.6950  178.1500  141.8390 C   0  0  0  0  0  0  0  0  0  0  0  0
  185.6120  178.4350  142.6930 C   0  0  0  0  0  0  0  0  0  0  0  0
  187.0230  178.0070  144.6470 C   0  0  0  0  0  0  0  0  0  0  0  0
  190.0700  177.1020  147.8780 N   0  0  0  0  0  0  0  0  0  0  0  0
  189.7390  177.3810  137.8680 C   0  0  0  0  0  0  0  0  0  0  0  0
  187.5910  177.9440  139.5820 C   0  0  0  0  0  0  0  0  0  0  0  0
  190.5310  176.9980  146.6040 C   0  0  0  0  0  3  0  0  0  0  0  0
  189.9120  177.3080  139.2550 C   0  0  0  0  0  3  0  0  0  0  0  0
  184.6780  178.6520  144.9300 C   0  0  0  0  0  3  0  0  0  0  0  0
  185.7750  178.3640  144.0970 C   0  0  0  0  0  0  0  0  0  0  0  0
  187.1760  177.9390  146.0520 C   0  0  0  0  0  3  0  0  0  0  0  0
  189.0170  177.5140  141.4940 C   0  0  0  0  0  3  0  0  0  0  0  0
  190.4950  177.0630  143.6450 F   0  0  0  0  0  0  0  0  0  0  0  0
  187.9690  177.6630  149.0230 C   0  0  0  0  0  1  0  0  0  0  0  0
  188.1380  177.7140  143.7870 C   0  0  0  0  0  0  0  0  0  0  0  0
  188.4150  177.5850  146.5640 C   0  0  0  0  0  0  0  0  0  0  0  0
  190.8450  177.0910  137.0120 N   0  0  0  0  0  2  0  0  0  0  0  0
  191.7670  175.9920  137.2550 C   0  0  0  0  0  2  0  0  0  0  0  0
  193.1240  176.5310  137.5320 C   0  0  0  0  0  0  0  0  0  0  0  0
  193.4810  176.8820  138.8270 O   0  0  0  0  0  1  0  0  0  0  0  0
  193.9610  176.6380  136.5990 O   0  0  0  0  0  0  0  0  0  0  0  0
  1 16  2  0  0  0  0
  1 10  1  0  0  0  0
  2 26  1  0  0  0  0
  3  4  1  0  0  0  0
  4 20  2  0  0  0  0
  5  6  1  0  0  0  0
  6 27  2  0  0  0  0
  6 18  1  0  0  0  0
  7 23  1  0  0  0  0
  8 12  2  0  0  0  0
  9 15  1  0  0  0  0
  9 25  1  0  0  0  0
 10 17  2  0  0  0  0
 11 13  1  0  0  0  0
 11  3  2  0  0  0  0
 12  2  1  0  0  0  0
 12 13  1  0  0  0  0
 13 21  2  0  0  0  0
 14 22  2  0  0  0  0
 16 19  1  0  0  0  0
 17  7  1  0  0  0  0
 17  8  1  0  0  0  0
 18 15  2  0  0  0  0
 19  7  2  0  0  0  0
 21 14  1  0  0  0  0
 21 20  1  0  0  0  0
 22 27  1  0  0  0  0
 23  2  2  0  0  0  0
 24  5  1  0  0  0  0
 26  5  2  0  0  0  0
 26 14  1  0  0  0  0
 27  9  1  0  0  0  0
 28 29  1  0  0  0  0
 28 16  1  0  0  0  0
 29 30  1  0  0  0  0
 30 31  1  0  0  0  0
 32 30  2  0  0  0  0
M  END
>  <MODEL>
3

>  <REMARK>
 VINA RESULT:     -10.9      4.609      8.224
  Name = 
  3 active torsions:
  status: ('A' for Active; 'I' for Inactive)
    1  A    between atoms: C_1  and  C_10
    2  A    between atoms: C_10  and  N_24
    3  A    between atoms: C_19  and  N_24
                            x       y       z     vdW  Elec       q    Type
                         _______ _______ _______ _____ _____    ______ ____

>  <TORSDO>
F 3

$$$$
=
 OpenBabel11052416463D

 32 37  0  0  0  0  0  0  0  0999 V2000
  187.4460  178.2000  137.3320 C   0  0  0  0  0  3  0  0  0  0  0  0
  187.4020  178.0070  142.3920 C   0  0  0  0  0  0  0  0  0  0  0  0
  182.7630  179.0810  143.5180 C   0  0  0  0  0  3  0  0  0  0  0  0
  183.0580  178.9550  144.8740 C   0  0  0  0  0  3  0  0  0  0  0  0
  189.0320  177.5400  144.2220 C   0  0  0  0  0  0  0  0  0  0  0  0
  189.2510  177.4320  145.5910 C   0  0  0  0  0  0  0  0  0  0  0  0
  188.0740  177.9390  140.0440 C   0  0  0  0  0  0  0  0  0  0  0  0
  185.7820  178.4680  140.6200 C   0  0  0  0  0  3  0  0  0  0  0  0
  188.7650  177.4630  147.7300 N   0  0  0  0  0  0  0  0  0  0  0  0
  186.4540  178.4000  138.2960 C   0  0  0  0  0  3  0  0  0  0  0  0
  183.7620  178.8770  142.5660 C   0  0  0  0  0  3  0  0  0  0  0  0
  186.0800  178.3410  141.9900 C   0  0  0  0  0  0  0  0  0  0  0  0
  185.0750  178.5450  142.9540 C   0  0  0  0  0  0  0  0  0  0  0  0
  186.6810  178.0850  144.7450 C   0  0  0  0  0  0  0  0  0  0  0  0
  190.0520  177.1570  147.6280 N   0  0  0  0  0  0  0  0  0  0  0  0
  188.7550  177.8680  137.7190 C   0  0  0  0  0  0  0  0  0  0  0  0
  186.7630  178.2710  139.6520 C   0  0  0  0  0  0  0  0  0  0  0  0
  190.3920  177.1270  146.3130 C   0  0  0  0  0  3  0  0  0  0  0  0
  189.0630  177.7400  139.0770 C   0  0  0  0  0  3  0  0  0  0  0  0
  184.3520  178.6260  145.2770 C   0  0  0  0  0  3  0  0  0  0  0  0
  185.3750  178.4180  144.3320 C   0  0  0  0  0  0  0  0  0  0  0  0
  186.9690  177.9610  146.1240 C   0  0  0  0  0  3  0  0  0  0  0  0
  188.3790  177.8110  141.3980 C   0  0  0  0  0  3  0  0  0  0  0  0
  190.0710  177.3230  143.3760 F   0  0  0  0  0  0  0  0  0  0  0  0
  188.0520  177.5840  148.9900 C   0  0  0  0  0  1  0  0  0  0  0  0
  187.7170  177.8750  143.7710 C   0  0  0  0  0  0  0  0  0  0  0  0
  188.2630  177.6330  146.4990 C   0  0  0  0  0  0  0  0  0  0  0  0
  189.7830  177.6590  136.7490 N   0  0  0  0  0  2  0  0  0  0  0  0
  190.0860  176.3520  136.1860 C   0  0  0  0  0  2  0  0  0  0  0  0
  191.0730  175.6530  137.0510 C   0  0  0  0  0  0  0  0  0  0  0  0
  190.6420  174.7100  137.9750 O   0  0  0  0  0  1  0  0  0  0  0  0
  192.3020  175.8900  136.9210 O   0  0  0  0  0  0  0  0  0  0  0  0
  1 16  2  0  0  0  0
  1 10  1  0  0  0  0
  2 26  1  0  0  0  0
  3  4  1  0  0  0  0
  4 20  2  0  0  0  0
  5  6  1  0  0  0  0
  6 18  1  0  0  0  0
  6 27  2  0  0  0  0
  7 23  1  0  0  0  0
  8 12  2  0  0  0  0
  9 25  1  0  0  0  0
 10 17  2  0  0  0  0
 11 13  1  0  0  0  0
 11  3  2  0  0  0  0
 12  2  1  0  0  0  0
 12 13  1  0  0  0  0
 13 21  2  0  0  0  0
 14 22  2  0  0  0  0
 15  9  1  0  0  0  0
 16 19  1  0  0  0  0
 17  7  1  0  0  0  0
 17  8  1  0  0  0  0
 18 15  2  0  0  0  0
 19  7  2  0  0  0  0
 21 14  1  0  0  0  0
 21 20  1  0  0  0  0
 22 27  1  0  0  0  0
 23  2  2  0  0  0  0
 24  5  1  0  0  0  0
 26  5  2  0  0  0  0
 26 14  1  0  0  0  0
 27  9  1  0  0  0  0
 28 16  1  0  0  0  0
 29 28  1  0  0  0  0
 29 30  1  0  0  0  0
 30 31  1  0  0  0  0
 32 30  2  0  0  0  0
M  END
>  <MODEL>
4

>  <REMARK>
 VINA RESULT:     -10.8      4.239      7.789
  Name = 
  3 active torsions:
  status: ('A' for Active; 'I' for Inactive)
    1  A    between atoms: C_1  and  C_10
    2  A    between atoms: C_10  and  N_24
    3  A    between atoms: C_19  and  N_24
                            x       y       z     vdW  Elec       q    Type
                         _______ _______ _______ _____ _____    ______ ____

>  <TORSDO>
F 3

$$$$
=
 OpenBabel11052416463D

 32 37  0  0  0  0  0  0  0  0999 V2000
  192.0270  177.1270  141.2340 C   0  0  0  0  0  3  0  0  0  0  0  0
  187.2190  178.0000  142.5630 C   0  0  0  0  0  0  0  0  0  0  0  0
  187.3870  178.0060  147.4530 C   0  0  0  0  0  3  0  0  0  0  0  0
  186.0160  178.2530  147.5050 C   0  0  0  0  0  3  0  0  0  0  0  0
  185.0400  178.3830  141.4100 C   0  0  0  0  0  0  0  0  0  0  0  0
  183.6780  178.6280  141.5410 C   0  0  0  0  0  0  0  0  0  0  0  0
  189.2750  177.6220  141.3000 C   0  0  0  0  0  0  0  0  0  0  0  0
  189.3400  177.6290  143.7200 C   0  0  0  0  0  3  0  0  0  0  0  0
  181.7700  178.9780  142.5660 N   0  0  0  0  0  0  0  0  0  0  0  0
  191.3740  177.2540  142.4640 C   0  0  0  0  0  3  0  0  0  0  0  0
  188.0260  177.8830  146.2200 C   0  0  0  0  0  3  0  0  0  0  0  0
  187.9550  177.8780  143.7730 C   0  0  0  0  0  0  0  0  0  0  0  0
  187.3060  178.0030  145.0160 C   0  0  0  0  0  0  0  0  0  0  0  0
  185.1710  178.3780  143.8760 C   0  0  0  0  0  0  0  0  0  0  0  0
  181.5230  179.0130  141.2630 N   0  0  0  0  0  0  0  0  0  0  0  0
  191.3090  177.2480  140.0340 C   0  0  0  0  0  0  0  0  0  0  0  0
  190.0000  177.5010  142.5010 C   0  0  0  0  0  0  0  0  0  0  0  0
  182.6850  178.7990  140.5910 C   0  0  0  0  0  3  0  0  0  0  0  0
  189.9320  177.4950  140.0730 C   0  0  0  0  0  3  0  0  0  0  0  0
  185.2860  178.3750  146.3230 C   0  0  0  0  0  3  0  0  0  0  0  0
  185.9130  178.2530  145.0680 C   0  0  0  0  0  0  0  0  0  0  0  0
  183.7800  178.6280  143.9410 C   0  0  0  0  0  3  0  0  0  0  0  0
  187.9050  177.8680  141.3410 C   0  0  0  0  0  3  0  0  0  0  0  0
  185.5680  178.2790  140.1640 F   0  0  0  0  0  0  0  0  0  0  0  0
  180.7600  179.1670  143.5940 C   0  0  0  0  0  1  0  0  0  0  0  0
  185.8220  178.2510  142.6000 C   0  0  0  0  0  0  0  0  0  0  0  0
  183.0760  178.7450  142.7510 C   0  0  0  0  0  0  0  0  0  0  0  0
  191.9580  177.1220  138.7670 N   0  0  0  0  0  2  0  0  0  0  0  0
  191.3290  176.4930  137.6150 C   0  0  0  0  0  2  0  0  0  0  0  0
  191.6250  175.0360  137.6190 C   0  0  0  0  0  0  0  0  0  0  0  0
  190.5850  174.1160  137.5940 O   0  0  0  0  0  0  0  0  0  0  0  0
  192.8180  174.6360  137.6090 O   0  0  0  0  0  1  0  0  0  0  0  0
  1 10  1  0  0  0  0
  2 26  1  0  0  0  0
  2 12  1  0  0  0  0
  3  4  1  0  0  0  0
  5  6  2  0  0  0  0
  5 26  1  0  0  0  0
  6 27  1  0  0  0  0
  7 23  1  0  0  0  0
  7 17  1  0  0  0  0
  8 12  2  0  0  0  0
  9 27  1  0  0  0  0
  9 25  1  0  0  0  0
 10 17  2  0  0  0  0
 11  3  2  0  0  0  0
 12 13  1  0  0  0  0
 13 21  2  0  0  0  0
 13 11  1  0  0  0  0
 14 22  1  0  0  0  0
 14 21  1  0  0  0  0
 15  9  1  0  0  0  0
 16 19  1  0  0  0  0
 16  1  2  0  0  0  0
 17  8  1  0  0  0  0
 18 15  2  0  0  0  0
 18  6  1  0  0  0  0
 19  7  2  0  0  0  0
 20  4  2  0  0  0  0
 21 20  1  0  0  0  0
 23  2  2  0  0  0  0
 24  5  1  0  0  0  0
 26 14  2  0  0  0  0
 27 22  2  0  0  0  0
 28 16  1  0  0  0  0
 29 30  1  0  0  0  0
 29 28  1  0  0  0  0
 31 30  2  0  0  0  0
 32 30  1  0  0  0  0
M  END
>  <MODEL>
5

>  <REMARK>
 VINA RESULT:     -10.7      3.631      7.809
  Name = 
  3 active torsions:
  status: ('A' for Active; 'I' for Inactive)
    1  A    between atoms: C_1  and  C_10
    2  A    between atoms: C_10  and  N_24
    3  A    between atoms: C_19  and  N_24
                            x       y       z     vdW  Elec       q    Type
                         _______ _______ _______ _____ _____    ______ ____

>  <TORSDO>
F 3

$$$$
=
 OpenBabel11052416463D

 32 37  0  0  0  0  0  0  0  0999 V2000
  190.1660  176.7920  147.7570 C   0  0  0  0  0  3  0  0  0  0  0  0
  188.5190  177.6360  143.0440 C   0  0  0  0  0  0  0  0  0  0  0  0
  183.7790  178.6680  143.6760 C   0  0  0  0  0  3  0  0  0  0  0  0
  183.6270  178.8390  142.3020 C   0  0  0  0  0  3  0  0  0  0  0  0
  189.4790  177.6420  140.7400 C   0  0  0  0  0  0  0  0  0  0  0  0
  189.2520  177.8290  139.3820 C   0  0  0  0  0  0  0  0  0  0  0  0
  189.8990  177.1260  144.9940 C   0  0  0  0  0  0  0  0  0  0  0  0
  187.5510  177.6390  145.2880 C   0  0  0  0  0  3  0  0  0  0  0  0
  188.1140  178.2700  137.5590 N   0  0  0  0  0  0  0  0  0  0  0  0
  188.9230  177.1320  147.2170 C   0  0  0  0  0  3  0  0  0  0  0  0
  185.0250  178.3290  144.2030 C   0  0  0  0  0  3  0  0  0  0  0  0
  187.3980  177.8120  143.8990 C   0  0  0  0  0  0  0  0  0  0  0  0
  186.1420  178.1540  143.3630 C   0  0  0  0  0  0  0  0  0  0  0  0
  187.0920  178.1580  141.1060 C   0  0  0  0  0  0  0  0  0  0  0  0
  189.3620  178.0190  137.1870 N   0  0  0  0  0  0  0  0  0  0  0  0
  191.2800  176.6170  146.9200 C   0  0  0  0  0  0  0  0  0  0  0  0
  188.7850  177.3000  145.8370 C   0  0  0  0  0  0  0  0  0  0  0  0
  190.1010  177.7400  138.2920 C   0  0  0  0  0  3  0  0  0  0  0  0
  191.1400  176.7860  145.5380 C   0  0  0  0  0  3  0  0  0  0  0  0
  184.7220  178.6700  141.4550 C   0  0  0  0  0  3  0  0  0  0  0  0
  185.9880  178.3270  141.9670 C   0  0  0  0  0  0  0  0  0  0  0  0
  186.9260  178.3320  139.7120 C   0  0  0  0  0  3  0  0  0  0  0  0
  189.7580  177.2940  143.6180 C   0  0  0  0  0  3  0  0  0  0  0  0
  190.7290  177.3130  141.1540 F   0  0  0  0  0  0  0  0  0  0  0  0
  187.0410  178.6090  136.6400 C   0  0  0  0  0  1  0  0  0  0  0  0
  188.3800  177.8070  141.6400 C   0  0  0  0  0  0  0  0  0  0  0  0
  188.0310  178.1590  138.8910 C   0  0  0  0  0  0  0  0  0  0  0  0
  192.5600  176.2700  147.4530 N   0  0  0  0  0  2  0  0  0  0  0  0
  192.7630  175.9060  148.8470 C   0  0  0  0  0  2  0  0  0  0  0  0
  193.4240  177.0280  149.5640 C   0  0  0  0  0  0  0  0  0  0  0  0
  192.7730  178.2480  149.6950 O   0  0  0  0  0  0  0  0  0  0  0  0
  194.5580  176.8630  150.0840 O   0  0  0  0  0  1  0  0  0  0  0  0
  2 23  2  0  0  0  0
  2 12  1  0  0  0  0
  3 11  1  0  0  0  0
  4  3  2  0  0  0  0
  5 24  1  0  0  0  0
  5 26  1  0  0  0  0
  6  5  2  0  0  0  0
  7 19  2  0  0  0  0
  7 17  1  0  0  0  0
  8 17  1  0  0  0  0
  9 27  1  0  0  0  0
 10  1  1  0  0  0  0
 12  8  2  0  0  0  0
 13 12  1  0  0  0  0
 13 11  2  0  0  0  0
 14 26  2  0  0  0  0
 14 21  1  0  0  0  0
 15  9  1  0  0  0  0
 15 18  2  0  0  0  0
 16 28  1  0  0  0  0
 16  1  2  0  0  0  0
 17 10  2  0  0  0  0
 18  6  1  0  0  0  0
 19 16  1  0  0  0  0
 20 21  2  0  0  0  0
 20  4  1  0  0  0  0
 21 13  1  0  0  0  0
 22 14  1  0  0  0  0
 23  7  1  0  0  0  0
 25  9  1  0  0  0  0
 26  2  1  0  0  0  0
 27  6  1  0  0  0  0
 27 22  2  0  0  0  0
 28 29  1  0  0  0  0
 29 30  1  0  0  0  0
 30 31  2  0  0  0  0
 30 32  1  0  0  0  0
M  END
>  <MODEL>
6

>  <REMARK>
 VINA RESULT:     -10.7      4.450      7.379
  Name = 
  3 active torsions:
  status: ('A' for Active; 'I' for Inactive)
    1  A    between atoms: C_1  and  C_10
    2  A    between atoms: C_10  and  N_24
    3  A    between atoms: C_19  and  N_24
                            x       y       z     vdW  Elec       q    Type
                         _______ _______ _______ _____ _____    ______ ____

>  <TORSDO>
F 3

$$$$
=
 OpenBabel11052416463D

 32 37  0  0  0  0  0  0  0  0999 V2000
  182.9000  179.0320  139.6080 C   0  0  0  0  0  3  0  0  0  0  0  0
  186.7700  178.0300  142.7160 C   0  0  0  0  0  0  0  0  0  0  0  0
  190.5770  177.6060  139.6730 C   0  0  0  0  0  3  0  0  0  0  0  0
  191.4190  177.3510  140.7540 C   0  0  0  0  0  3  0  0  0  0  0  0
  187.1220  177.7390  145.1690 C   0  0  0  0  0  0  0  0  0  0  0  0
  188.0220  177.4780  146.1960 C   0  0  0  0  0  0  0  0  0  0  0  0
  184.5600  178.5240  141.8000 C   0  0  0  0  0  0  0  0  0  0  0  0
  186.4550  178.3110  140.3080 C   0  0  0  0  0  3  0  0  0  0  0  0
  189.9550  177.0340  147.1330 N   0  0  0  0  0  0  0  0  0  0  0  0
  184.2640  178.7990  139.4060 C   0  0  0  0  0  3  0  0  0  0  0  0
  189.2190  177.8380  139.8880 C   0  0  0  0  0  3  0  0  0  0  0  0
  187.3060  178.0530  141.4000 C   0  0  0  0  0  0  0  0  0  0  0  0
  188.6780  177.8180  141.1880 C   0  0  0  0  0  0  0  0  0  0  0  0
  189.0150  177.5340  143.5970 C   0  0  0  0  0  0  0  0  0  0  0  0
  189.0580  177.1100  148.1090 N   0  0  0  0  0  0  0  0  0  0  0  0
  182.3610  179.0130  140.9040 C   0  0  0  0  0  0  0  0  0  0  0  0
  185.0960  178.5450  140.4980 C   0  0  0  0  0  0  0  0  0  0  0  0
  187.8430  177.3850  147.5660 C   0  0  0  0  0  3  0  0  0  0  0  0
  183.1960  178.7580  141.9970 C   0  0  0  0  0  3  0  0  0  0  0  0
  190.9010  177.3270  142.0490 C   0  0  0  0  0  3  0  0  0  0  0  0
  189.5330  177.5580  142.2860 C   0  0  0  0  0  0  0  0  0  0  0  0
  189.8790  177.2730  144.6870 C   0  0  0  0  0  3  0  0  0  0  0  0
  185.3930  178.2690  142.8870 C   0  0  0  0  0  3  0  0  0  0  0  0
  185.8180  177.9520  145.4820 F   0  0  0  0  0  0  0  0  0  0  0  0
  191.3650  176.7540  147.3420 C   0  0  0  0  0  1  0  0  0  0  0  0
  187.6160  177.7710  143.8280 C   0  0  0  0  0  0  0  0  0  0  0  0
  189.3400  177.2560  145.9640 C   0  0  0  0  0  0  0  0  0  0  0  0
  180.9700  179.2500  141.1310 N   0  0  0  0  0  2  0  0  0  0  0  0
  180.4230  179.5490  142.4460 C   0  0  0  0  0  2  0  0  0  0  0  0
  179.6620  178.3750  142.9480 C   0  0  0  0  0  0  0  0  0  0  0  0
  179.3620  177.3240  142.0910 O   0  0  0  0  0  0  0  0  0  0  0  0
  179.3210  178.3160  144.1580 O   0  0  0  0  0  1  0  0  0  0  0  0
  1 16  1  0  0  0  0
  2 23  1  0  0  0  0
  2 26  1  0  0  0  0
  3 11  2  0  0  0  0
  3  4  1  0  0  0  0
  4 20  2  0  0  0  0
  5 24  1  0  0  0  0
  5  6  1  0  0  0  0
  6 18  1  0  0  0  0
  7 19  1  0  0  0  0
  7 23  2  0  0  0  0
  8 17  2  0  0  0  0
  8 12  1  0  0  0  0
  9 25  1  0  0  0  0
  9 15  1  0  0  0  0
 10  1  2  0  0  0  0
 10 17  1  0  0  0  0
 11 13  1  0  0  0  0
 12  2  2  0  0  0  0
 13 12  1  0  0  0  0
 13 21  2  0  0  0  0
 14 26  1  0  0  0  0
 14 22  2  0  0  0  0
 16 28  1  0  0  0  0
 16 19  2  0  0  0  0
 17  7  1  0  0  0  0
 18 15  2  0  0  0  0
 20 21  1  0  0  0  0
 21 14  1  0  0  0  0
 22 27  1  0  0  0  0
 26  5  2  0  0  0  0
 27  6  2  0  0  0  0
 27  9  1  0  0  0  0
 28 29  1  0  0  0  0
 29 30  1  0  0  0  0
 30 32  1  0  0  0  0
 31 30  2  0  0  0  0
M  END
>  <MODEL>
7

>  <REMARK>
 VINA RESULT:     -10.6      2.764      4.919
  Name = 
  3 active torsions:
  status: ('A' for Active; 'I' for Inactive)
    1  A    between atoms: C_1  and  C_10
    2  A    between atoms: C_10  and  N_24
    3  A    between atoms: C_19  and  N_24
                            x       y       z     vdW  Elec       q    Type
                         _______ _______ _______ _____ _____    ______ ____

>  <TORSDO>
F 3

$$$$
=
 OpenBabel11052416463D

 32 37  0  0  0  0  0  0  0  0999 V2000
  187.8570  177.5290  147.4150 C   0  0  0  0  0  3  0  0  0  0  0  0
  187.2690  177.9340  142.4020 C   0  0  0  0  0  0  0  0  0  0  0  0
  182.5020  178.9130  141.9030 C   0  0  0  0  0  3  0  0  0  0  0  0
  182.6520  178.9630  140.5180 C   0  0  0  0  0  3  0  0  0  0  0  0
  188.7060  177.7640  140.3690 C   0  0  0  0  0  0  0  0  0  0  0  0
  188.7790  177.8290  138.9820 C   0  0  0  0  0  0  0  0  0  0  0  0
  188.1950  177.6210  144.6410 C   0  0  0  0  0  0  0  0  0  0  0  0
  185.8380  178.1070  144.3750 C   0  0  0  0  0  3  0  0  0  0  0  0
  188.0620  178.0900  136.9250 N   0  0  0  0  0  0  0  0  0  0  0  0
  186.7590  177.7950  146.5910 C   0  0  0  0  0  3  0  0  0  0  0  0
  183.6050  178.6470  142.7130 C   0  0  0  0  0  3  0  0  0  0  0  0
  185.9890  178.1570  142.9760 C   0  0  0  0  0  0  0  0  0  0  0  0
  184.8780  178.4250  142.1540 C   0  0  0  0  0  0  0  0  0  0  0  0
  186.2950  178.2570  140.1630 C   0  0  0  0  0  0  0  0  0  0  0  0
  189.3630  177.8350  136.8550 N   0  0  0  0  0  0  0  0  0  0  0  0
  189.1260  177.3080  146.8570 C   0  0  0  0  0  0  0  0  0  0  0  0
  186.9240  177.8420  145.2050 C   0  0  0  0  0  0  0  0  0  0  0  0
  189.8450  177.6670  138.1140 C   0  0  0  0  0  3  0  0  0  0  0  0
  189.2890  177.3550  145.4680 C   0  0  0  0  0  3  0  0  0  0  0  0
  183.9060  178.7460  139.9460 C   0  0  0  0  0  3  0  0  0  0  0  0
  185.0310  178.4750  140.7470 C   0  0  0  0  0  0  0  0  0  0  0  0
  186.4360  178.3090  138.7570 C   0  0  0  0  0  3  0  0  0  0  0  0
  188.3550  177.6680  143.2570 C   0  0  0  0  0  3  0  0  0  0  0  0
  189.8380  177.4990  141.0690 F   0  0  0  0  0  0  0  0  0  0  0  0
  187.2140  178.3260  135.7690 C   0  0  0  0  0  1  0  0  0  0  0  0
  187.4380  177.9810  140.9920 C   0  0  0  0  0  0  0  0  0  0  0  0
  187.6920  178.0900  138.2120 C   0  0  0  0  0  0  0  0  0  0  0  0
  190.2610  177.0340  147.6820 N   0  0  0  0  0  2  0  0  0  0  0  0
  191.6300  177.1260  147.2000 C   0  0  0  0  0  2  0  0  0  0  0  0
  192.3140  175.8200  147.3900 C   0  0  0  0  0  0  0  0  0  0  0  0
  192.4300  174.9350  146.3260 O   0  0  0  0  0  0  0  0  0  0  0  0
  192.8190  175.5300  148.5050 O   0  0  0  0  0  1  0  0  0  0  0  0
  2 12  2  0  0  0  0
  2 23  1  0  0  0  0
  3 11  1  0  0  0  0
  4  3  2  0  0  0  0
  5 26  1  0  0  0  0
  5 24  1  0  0  0  0
  6  5  2  0  0  0  0
  7 17  1  0  0  0  0
  7 19  1  0  0  0  0
  8 17  2  0  0  0  0
  9 27  1  0  0  0  0
 10  1  2  0  0  0  0
 12  8  1  0  0  0  0
 13 11  2  0  0  0  0
 13 12  1  0  0  0  0
 14 21  1  0  0  0  0
 14 26  2  0  0  0  0
 15  9  1  0  0  0  0
 15 18  2  0  0  0  0
 16  1  1  0  0  0  0
 16 28  1  0  0  0  0
 17 10  1  0  0  0  0
 18  6  1  0  0  0  0
 19 16  2  0  0  0  0
 20  4  1  0  0  0  0
 20 21  2  0  0  0  0
 21 13  1  0  0  0  0
 22 14  1  0  0  0  0
 23  7  2  0  0  0  0
 25  9  1  0  0  0  0
 26  2  1  0  0  0  0
 27 22  2  0  0  0  0
 27  6  1  0  0  0  0
 29 30  1  0  0  0  0
 29 28  1  0  0  0  0
 30 32  1  0  0  0  0
 31 30  2  0  0  0  0
M  END
>  <MODEL>
8

>  <REMARK>
 VINA RESULT:     -10.4      4.170      6.883
  Name = 
  3 active torsions:
  status: ('A' for Active; 'I' for Inactive)
    1  A    between atoms: C_1  and  C_10
    2  A    between atoms: C_10  and  N_24
    3  A    between atoms: C_19  and  N_24
                            x       y       z     vdW  Elec       q    Type
                         _______ _______ _______ _____ _____    ______ ____

>  <TORSDO>
F 3

$$$$
=
 OpenBabel11052416463D

 32 37  0  0  0  0  0  0  0  0999 V2000
  191.1780  176.7900  137.5710 C   0  0  0  0  0  3  0  0  0  0  0  0
  188.5820  177.4760  141.8650 C   0  0  0  0  0  0  0  0  0  0  0  0
  191.8390  176.3560  145.3400 C   0  0  0  0  0  3  0  0  0  0  0  0
  190.8890  176.6250  146.3240 C   0  0  0  0  0  3  0  0  0  0  0  0
  186.2790  178.1780  142.5220 C   0  0  0  0  0  0  0  0  0  0  0  0
  185.3860  178.4270  143.5570 C   0  0  0  0  0  0  0  0  0  0  0  0
  189.2460  177.3380  139.5180 C   0  0  0  0  0  0  0  0  0  0  0  0
  190.8460  176.7870  141.2510 C   0  0  0  0  0  3  0  0  0  0  0  0
  184.6750  178.5890  145.6270 N   0  0  0  0  0  0  0  0  0  0  0  0
  191.4980  176.6500  138.9250 C   0  0  0  0  0  3  0  0  0  0  0  0
  191.5060  176.5000  143.9930 C   0  0  0  0  0  3  0  0  0  0  0  0
  189.8860  177.0590  142.2450 C   0  0  0  0  0  0  0  0  0  0  0  0
  190.2170  176.9140  143.6060 C   0  0  0  0  0  0  0  0  0  0  0  0
  187.9550  177.6040  144.2430 C   0  0  0  0  0  0  0  0  0  0  0  0
  183.6630  178.9290  144.8400 N   0  0  0  0  0  0  0  0  0  0  0  0
  189.8920  177.2030  137.1850 C   0  0  0  0  0  0  0  0  0  0  0  0
  190.5360  176.9230  139.9000 C   0  0  0  0  0  0  0  0  0  0  0  0
  184.0650  178.8410  143.5450 C   0  0  0  0  0  3  0  0  0  0  0  0
  188.9310  177.4760  138.1640 C   0  0  0  0  0  3  0  0  0  0  0  0
  189.6070  177.0370  145.9590 C   0  0  0  0  0  3  0  0  0  0  0  0
  189.2520  177.1870  144.6050 C   0  0  0  0  0  0  0  0  0  0  0  0
  186.9980  177.8730  145.2490 C   0  0  0  0  0  3  0  0  0  0  0  0
  188.2890  177.6080  140.4940 C   0  0  0  0  0  3  0  0  0  0  0  0
  185.8590  178.3470  141.2420 F   0  0  0  0  0  0  0  0  0  0  0  0
  184.6100  178.5680  147.0780 C   0  0  0  0  0  1  0  0  0  0  0  0
  187.6030  177.7540  142.8560 C   0  0  0  0  0  0  0  0  0  0  0  0
  185.7310  178.2810  144.8610 C   0  0  0  0  0  0  0  0  0  0  0  0
  189.5450  177.3520  135.8070 N   0  0  0  0  0  2  0  0  0  0  0  0
  188.4070  176.6780  135.2010 C   0  0  0  0  0  2  0  0  0  0  0  0
  188.5790  175.2060  135.3190 C   0  0  0  0  0  0  0  0  0  0  0  0
  189.6040  174.5690  134.6310 O   0  0  0  0  0  0  0  0  0  0  0  0
  187.8200  174.5410  136.0710 O   0  0  0  0  0  1  0  0  0  0  0  0
  1 10  1  0  0  0  0
  2 12  1  0  0  0  0
  2 26  1  0  0  0  0
  3  4  1  0  0  0  0
  5 26  2  0  0  0  0
  5  6  1  0  0  0  0
  6 27  2  0  0  0  0
  7 17  1  0  0  0  0
  7 23  1  0  0  0  0
  8 12  2  0  0  0  0
  9 25  1  0  0  0  0
 10 17  2  0  0  0  0
 11  3  2  0  0  0  0
 12 13  1  0  0  0  0
 13 11  1  0  0  0  0
 13 21  2  0  0  0  0
 14 21  1  0  0  0  0
 14 22  2  0  0  0  0
 15  9  1  0  0  0  0
 16  1  2  0  0  0  0
 16 19  1  0  0  0  0
 17  8  1  0  0  0  0
 18  6  1  0  0  0  0
 18 15  2  0  0  0  0
 19  7  2  0  0  0  0
 20  4  2  0  0  0  0
 21 20  1  0  0  0  0
 23  2  2  0  0  0  0
 24  5  1  0  0  0  0
 26 14  1  0  0  0  0
 27 22  1  0  0  0  0
 27  9  1  0  0  0  0
 28 16  1  0  0  0  0
 29 30  1  0  0  0  0
 29 28  1  0  0  0  0
 30 32  1  0  0  0  0
 31 30  2  0  0  0  0
M  END
>  <MODEL>
9

>  <REMARK>
 VINA RESULT:     -10.1      3.307      7.352
  Name = 
  3 active torsions:
  status: ('A' for Active; 'I' for Inactive)
    1  A    between atoms: C_1  and  C_10
    2  A    between atoms: C_10  and  N_24
    3  A    between atoms: C_19  and  N_24
                            x       y       z     vdW  Elec       q    Type
                         _______ _______ _______ _____ _____    ______ ____

>  <TORSDO>
F 3

$$$$
