=
 OpenBabel11052414153D

 34 37  0  0  1  0  0  0  0  0999 V2000
  189.7390  177.7560  141.1900 C   0  0  2  0  0  3  0  0  0  0  0  0
  187.5370  178.6980  141.7320 N   0  0  0  0  0  0  0  0  0  0  0  0
  188.2950  178.6450  139.5050 O   0  0  0  0  0  1  0  0  0  0  0  0
  189.8150  177.2850  142.6500 C   0  0  1  0  0  3  0  0  0  0  0  0
  187.5280  177.9740  142.8890 O   0  0  0  0  0  0  0  0  0  0  0  0
  188.8090  178.1200  143.4520 C   0  0  1  0  0  3  0  0  0  0  0  0
  188.2880  177.9430  140.7150 C   0  0  1  0  0  3  0  0  0  0  0  0
  190.0340  177.1400  146.9000 C   0  0  0  0  0  0  0  0  0  0  0  0
  188.8410  177.0950  147.6260 C   0  0  0  0  0  3  0  0  0  0  0  0
  188.8050  177.7730  144.9090 C   0  0  0  0  0  0  0  0  0  0  0  0
  187.6270  177.3830  146.9960 C   0  0  0  0  0  3  0  0  0  0  0  0
  190.0150  177.4740  145.5420 C   0  0  0  0  0  3  0  0  0  0  0  0
  187.6080  177.7200  145.6390 C   0  0  0  0  0  3  0  0  0  0  0  0
  191.5530  176.7780  147.6900 Cl  0  0  0  0  0  0  0  0  0  0  0  0
  190.6920  175.3070  143.1440 C   0  0  0  0  0  1  0  0  0  0  0  0
  189.5020  175.9220  142.7500 O   0  0  0  0  0  0  0  0  0  0  0  0
  190.6100  176.9420  140.2290 C   0  0  0  0  0  2  0  0  0  0  0  0
  192.0650  177.3950  140.2270 C   0  0  0  0  0  2  0  0  0  0  0  0
  192.8030  176.7970  139.0430 C   0  0  0  0  0  2  0  0  0  0  0  0
  191.8140  176.3210  137.9940 C   0  0  0  0  0  2  0  0  0  0  0  0
  190.8330  174.2180  137.1610 C   0  0  0  0  0  2  0  0  0  0  0  0
  192.1090  174.8800  137.6340 C   0  0  0  0  0  3  0  0  0  0  0  0
  191.8650  174.6790  136.1530 C   0  0  0  0  0  2  0  0  0  0  0  0
  186.1460  178.7760  141.3050 C   0  0  0  0  0  2  0  0  0  0  0  0
  185.2350  179.0230  142.5000 C   0  0  0  0  0  2  0  0  0  0  0  0
  183.7980  178.6060  142.2160 C   0  0  0  0  0  2  0  0  0  0  0  0
  183.6250  178.1880  140.7630 C   0  0  0  0  0  2  0  0  0  0  0  0
  184.2240  180.2810  138.9780 O   0  0  0  0  0  0  0  0  0  0  0  0
  182.6130  179.0120  140.1150 N   0  0  0  0  0  0  0  0  0  0  0  0
  183.0040  180.0410  139.1880 C   0  0  0  0  0  0  0  0  0  0  0  0
  180.6480  180.8530  139.1520 C   0  0  0  0  0  2  0  0  0  0  0  0
  180.2360  179.4620  139.6090 C   0  0  0  0  0  2  0  0  0  0  0  0
  181.2440  178.9430  140.6290 C   0  0  0  0  0  2  0  0  0  0  0  0
  181.9700  180.7830  138.3980 C   0  0  0  0  0  2  0  0  0  0  0  0
  1 17  1  6  0  0  0
  1  4  1  0  0  0  0
  2  5  1  0  0  0  0
  4 16  1  6  0  0  0
  4  6  1  0  0  0  0
  5  6  1  0  0  0  0
  6 10  1  1  0  0  0
  7  3  1  6  0  0  0
  7  1  1  0  0  0  0
  7  2  1  0  0  0  0
  8  9  1  0  0  0  0
  8 14  1  0  0  0  0
 10 12  1  0  0  0  0
 10 13  2  0  0  0  0
 11  9  2  0  0  0  0
 12  8  2  0  0  0  0
 13 11  1  0  0  0  0
 16 15  1  0  0  0  0
 18 17  1  0  0  0  0
 19 18  1  0  0  0  0
 20 19  1  0  0  0  0
 21 22  1  0  0  0  0
 22 20  1  0  0  0  0
 23 21  1  0  0  0  0
 23 22  1  0  0  0  0
 24  2  1  0  0  0  0
 24 25  1  0  0  0  0
 26 25  1  0  0  0  0
 27 26  1  0  0  0  0
 28 30  2  0  0  0  0
 29 33  1  0  0  0  0
 29 27  1  0  0  0  0
 30 29  1  0  0  0  0
 31 32  1  0  0  0  0
 32 33  1  0  0  0  0
 34 31  1  0  0  0  0
 34 30  1  0  0  0  0
M  END
>  <MODEL>
1

>  <REMARK>
 VINA RESULT:      -7.8      0.000      0.000
  Name = 
  12 active torsions:
  status: ('A' for Active; 'I' for Inactive)
    1  A    between atoms: C_2  and  C_15
    2  A    between atoms: C_2  and  C_25
    3  A    between atoms: C_3  and  N_13
    4  A    between atoms: C_3  and  C_17
    5  A    between atoms: C_4  and  C_15
    6  A    between atoms: N_5  and  C_18
    7  A    between atoms: C_6  and  C_9
    8  A    between atoms: C_9  and  C_25
    9  A    between atoms: C_12  and  C_28
   10  A    between atoms: C_17  and  C_29
   11  A    between atoms: C_18  and  C_29
   12  A    between atoms: C_21  and  O_32
                            x       y       z     vdW  Elec       q    Type
                         _______ _______ _______ _____ _____    ______ ____

>  <TORSDO>
F 12

$$$$
=
 OpenBabel11052414153D

 34 37  0  0  1  0  0  0  0  0999 V2000
  189.9480  177.8230  142.4220 C   0  0  2  0  0  3  0  0  0  0  0  0
  189.4320  178.2240  140.0550 N   0  0  0  0  0  0  0  0  0  0  0  0
  191.6330  177.7320  140.7290 O   0  0  0  0  0  1  0  0  0  0  0  0
  188.4340  177.8450  142.6800 C   0  0  1  0  0  3  0  0  0  0  0  0
  188.1290  177.9010  140.2990 O   0  0  0  0  0  0  0  0  0  0  0  0
  187.7790  178.5610  141.4920 C   0  0  1  0  0  3  0  0  0  0  0  0
  190.2850  177.4460  140.9700 C   0  0  1  0  0  3  0  0  0  0  0  0
  184.3500  178.8670  143.0730 C   0  0  0  0  0  0  0  0  0  0  0  0
  183.5160  178.8570  141.9510 C   0  0  0  0  0  3  0  0  0  0  0  0
  186.2930  178.6710  141.6350 C   0  0  0  0  0  0  0  0  0  0  0  0
  184.0660  178.7490  140.6710 C   0  0  0  0  0  3  0  0  0  0  0  0
  185.7360  178.7700  142.9140 C   0  0  0  0  0  3  0  0  0  0  0  0
  185.4520  178.6540  140.5120 C   0  0  0  0  0  3  0  0  0  0  0  0
  183.6600  179.0010  144.6750 Cl  0  0  0  0  0  0  0  0  0  0  0  0
  187.4760  176.4490  144.1140 C   0  0  0  0  0  1  0  0  0  0  0  0
  187.9310  176.5420  142.7970 O   0  0  0  0  0  0  0  0  0  0  0  0
  190.7460  177.0420  143.4700 C   0  0  0  0  0  2  0  0  0  0  0  0
  190.7610  177.7290  144.8310 C   0  0  0  0  0  2  0  0  0  0  0  0
  191.4530  176.8530  145.8580 C   0  0  0  0  0  2  0  0  0  0  0  0
  190.6730  176.8530  147.1600 C   0  0  0  0  0  2  0  0  0  0  0  0
  188.2900  177.0280  147.7690 C   0  0  0  0  0  2  0  0  0  0  0  0
  189.4180  177.6840  147.0000 C   0  0  0  0  0  3  0  0  0  0  0  0
  189.0060  178.2270  148.3530 C   0  0  0  0  0  2  0  0  0  0  0  0
  189.7010  177.7780  138.6940 C   0  0  0  0  0  2  0  0  0  0  0  0
  189.0760  178.7340  137.6870 C   0  0  0  0  0  2  0  0  0  0  0  0
  188.3870  177.9930  136.5490 C   0  0  0  0  0  2  0  0  0  0  0  0
  186.8810  177.9360  136.7630 C   0  0  0  0  0  2  0  0  0  0  0  0
  184.2590  177.1840  137.4570 O   0  0  0  0  0  0  0  0  0  0  0  0
  186.4330  176.5520  136.8480 N   0  0  0  0  0  0  0  0  0  0  0  0
  185.0630  176.2550  137.1760 C   0  0  0  0  0  0  0  0  0  0  0  0
  185.6720  173.8470  137.3760 C   0  0  0  0  0  2  0  0  0  0  0  0
  186.8640  174.1470  136.4800 C   0  0  0  0  0  2  0  0  0  0  0  0
  187.4520  175.5020  136.8550 C   0  0  0  0  0  2  0  0  0  0  0  0
  184.5550  174.8480  137.1090 C   0  0  0  0  0  2  0  0  0  0  0  0
  1  4  1  0  0  0  0
  1 17  1  1  0  0  0
  2  5  1  0  0  0  0
  2  7  1  0  0  0  0
  4 16  1  6  0  0  0
  5  6  1  0  0  0  0
  6 10  1  1  0  0  0
  6  4  1  0  0  0  0
  7  3  1  6  0  0  0
  7  1  1  0  0  0  0
  8 14  1  0  0  0  0
  9  8  2  0  0  0  0
 10 12  2  0  0  0  0
 11  9  1  0  0  0  0
 12  8  1  0  0  0  0
 13 11  2  0  0  0  0
 13 10  1  0  0  0  0
 16 15  1  0  0  0  0
 17 18  1  0  0  0  0
 18 19  1  0  0  0  0
 19 20  1  0  0  0  0
 21 23  1  0  0  0  0
 22 20  1  0  0  0  0
 22 21  1  0  0  0  0
 22 23  1  0  0  0  0
 24  2  1  0  0  0  0
 25 24  1  0  0  0  0
 26 27  1  0  0  0  0
 26 25  1  0  0  0  0
 27 29  1  0  0  0  0
 29 33  1  0  0  0  0
 29 30  1  0  0  0  0
 30 28  2  0  0  0  0
 32 33  1  0  0  0  0
 32 31  1  0  0  0  0
 34 30  1  0  0  0  0
 34 31  1  0  0  0  0
M  END
>  <MODEL>
2

>  <REMARK>
 VINA RESULT:      -7.7      3.009      6.453
  Name = 
  12 active torsions:
  status: ('A' for Active; 'I' for Inactive)
    1  A    between atoms: C_2  and  C_15
    2  A    between atoms: C_2  and  C_25
    3  A    between atoms: C_3  and  N_13
    4  A    between atoms: C_3  and  C_17
    5  A    between atoms: C_4  and  C_15
    6  A    between atoms: N_5  and  C_18
    7  A    between atoms: C_6  and  C_9
    8  A    between atoms: C_9  and  C_25
    9  A    between atoms: C_12  and  C_28
   10  A    between atoms: C_17  and  C_29
   11  A    between atoms: C_18  and  C_29
   12  A    between atoms: C_21  and  O_32
                            x       y       z     vdW  Elec       q    Type
                         _______ _______ _______ _____ _____    ______ ____

>  <TORSDO>
F 12

$$$$
=
 OpenBabel11052414153D

 34 37  0  0  1  0  0  0  0  0999 V2000
  189.7880  176.2800  142.7940 C   0  0  2  0  0  3  0  0  0  0  0  0
  187.5940  177.3030  142.3810 N   0  0  0  0  0  0  0  0  0  0  0  0
  188.1700  176.5450  144.5340 O   0  0  0  0  0  1  0  0  0  0  0  0
  190.1710  176.7030  141.3670 C   0  0  1  0  0  3  0  0  0  0  0  0
  188.1070  177.9260  141.2820 O   0  0  0  0  0  0  0  0  0  0  0  0
  188.8670  176.9560  140.6010 C   0  0  1  0  0  3  0  0  0  0  0  0
  188.6680  177.1570  143.3790 C   0  0  1  0  0  3  0  0  0  0  0  0
  189.8450  176.7570  136.9470 C   0  0  0  0  0  0  0  0  0  0  0  0
  189.5860  178.0600  136.5090 C   0  0  0  0  0  3  0  0  0  0  0  0
  189.1050  177.3540  139.1770 C   0  0  0  0  0  0  0  0  0  0  0  0
  189.0920  179.0130  137.4040 C   0  0  0  0  0  3  0  0  0  0  0  0
  189.6080  176.4070  138.2800 C   0  0  0  0  0  3  0  0  0  0  0  0
  188.8530  178.6620  138.7360 C   0  0  0  0  0  3  0  0  0  0  0  0
  190.4640  175.5650  135.8260 Cl  0  0  0  0  0  0  0  0  0  0  0  0
  192.1350  177.5130  140.7290 C   0  0  0  0  0  1  0  0  0  0  0  0
  190.9550  177.8650  141.3870 O   0  0  0  0  0  0  0  0  0  0  0  0
  190.9860  176.0920  143.7290 C   0  0  0  0  0  2  0  0  0  0  0  0
  190.9860  177.0800  144.8910 C   0  0  0  0  0  2  0  0  0  0  0  0
  191.7270  176.4970  146.0800 C   0  0  0  0  0  2  0  0  0  0  0  0
  190.9250  176.7030  147.3520 C   0  0  0  0  0  2  0  0  0  0  0  0
  188.5200  176.9830  147.8170 C   0  0  0  0  0  2  0  0  0  0  0  0
  189.7010  177.5410  147.0500 C   0  0  0  0  0  3  0  0  0  0  0  0
  189.2360  178.2180  148.3230 C   0  0  0  0  0  2  0  0  0  0  0  0
  186.5940  178.2150  142.9210 C   0  0  0  0  0  2  0  0  0  0  0  0
  185.7920  178.8530  141.7940 C   0  0  0  0  0  2  0  0  0  0  0  0
  184.3690  178.3150  141.7330 C   0  0  0  0  0  2  0  0  0  0  0  0
  183.6500  178.8060  140.4840 C   0  0  0  0  0  2  0  0  0  0  0  0
  185.4830  179.1110  138.3690 O   0  0  0  0  0  0  0  0  0  0  0  0
  183.8020  177.8430  139.4010 N   0  0  0  0  0  0  0  0  0  0  0  0
  184.7880  178.0590  138.3760 C   0  0  0  0  0  0  0  0  0  0  0  0
  183.8240  176.1490  137.0970 C   0  0  0  0  0  2  0  0  0  0  0  0
  183.2640  175.6410  138.4160 C   0  0  0  0  0  2  0  0  0  0  0  0
  182.7660  176.8210  139.2440 C   0  0  0  0  0  2  0  0  0  0  0  0
  185.0620  177.0010  137.3510 C   0  0  0  0  0  2  0  0  0  0  0  0
  1  7  1  0  0  0  0
  1 17  1  1  0  0  0
  2 24  1  0  0  0  0
  2  7  1  0  0  0  0
  4 16  1  1  0  0  0
  4  1  1  0  0  0  0
  5  2  1  0  0  0  0
  6 10  1  6  0  0  0
  6  5  1  0  0  0  0
  6  4  1  0  0  0  0
  7  3  1  1  0  0  0
  8 12  1  0  0  0  0
  9  8  2  0  0  0  0
  9 11  1  0  0  0  0
 11 13  2  0  0  0  0
 12 10  2  0  0  0  0
 13 10  1  0  0  0  0
 14  8  1  0  0  0  0
 15 16  1  0  0  0  0
 17 18  1  0  0  0  0
 18 19  1  0  0  0  0
 19 20  1  0  0  0  0
 21 23  1  0  0  0  0
 22 20  1  0  0  0  0
 22 21  1  0  0  0  0
 22 23  1  0  0  0  0
 25 24  1  0  0  0  0
 26 25  1  0  0  0  0
 27 26  1  0  0  0  0
 28 30  2  0  0  0  0
 29 27  1  0  0  0  0
 30 29  1  0  0  0  0
 31 34  1  0  0  0  0
 31 32  1  0  0  0  0
 32 33  1  0  0  0  0
 33 29  1  0  0  0  0
 34 30  1  0  0  0  0
M  END
>  <MODEL>
3

>  <REMARK>
 VINA RESULT:      -7.6      2.897      6.342
  Name = 
  12 active torsions:
  status: ('A' for Active; 'I' for Inactive)
    1  A    between atoms: C_2  and  C_15
    2  A    between atoms: C_2  and  C_25
    3  A    between atoms: C_3  and  N_13
    4  A    between atoms: C_3  and  C_17
    5  A    between atoms: C_4  and  C_15
    6  A    between atoms: N_5  and  C_18
    7  A    between atoms: C_6  and  C_9
    8  A    between atoms: C_9  and  C_25
    9  A    between atoms: C_12  and  C_28
   10  A    between atoms: C_17  and  C_29
   11  A    between atoms: C_18  and  C_29
   12  A    between atoms: C_21  and  O_32
                            x       y       z     vdW  Elec       q    Type
                         _______ _______ _______ _____ _____    ______ ____

>  <TORSDO>
F 12

$$$$
=
 OpenBabel11052414153D

 34 37  0  0  1  0  0  0  0  0999 V2000
  189.9320  177.8150  142.4660 C   0  0  2  0  0  3  0  0  0  0  0  0
  189.4930  178.2080  140.0820 N   0  0  0  0  0  0  0  0  0  0  0  0
  191.6710  177.7180  140.8280 O   0  0  0  0  0  1  0  0  0  0  0  0
  188.4100  177.8380  142.6740 C   0  0  1  0  0  3  0  0  0  0  0  0
  188.1830  177.8870  140.2850 O   0  0  0  0  0  0  0  0  0  0  0  0
  187.7940  178.5510  141.4630 C   0  0  1  0  0  3  0  0  0  0  0  0
  190.3160  177.4330  141.0270 C   0  0  1  0  0  3  0  0  0  0  0  0
  184.3170  178.8740  142.9300 C   0  0  0  0  0  0  0  0  0  0  0  0
  183.5190  178.8510  141.7830 C   0  0  0  0  0  3  0  0  0  0  0  0
  186.3040  178.6620  141.5580 C   0  0  0  0  0  0  0  0  0  0  0  0
  184.1090  178.7280  140.5220 C   0  0  0  0  0  3  0  0  0  0  0  0
  185.7080  178.7760  142.8170 C   0  0  0  0  0  3  0  0  0  0  0  0
  185.4990  178.6310  140.4090 C   0  0  0  0  0  3  0  0  0  0  0  0
  183.5770  179.0280  144.5080 Cl  0  0  0  0  0  0  0  0  0  0  0  0
  187.4610  176.4270  144.0990 C   0  0  0  0  0  1  0  0  0  0  0  0
  187.9030  176.5360  142.7790 O   0  0  0  0  0  0  0  0  0  0  0  0
  190.6940  177.0370  143.5420 C   0  0  0  0  0  2  0  0  0  0  0  0
  190.8520  177.8250  144.8380 C   0  0  0  0  0  2  0  0  0  0  0  0
  191.3740  176.9250  145.9430 C   0  0  0  0  0  2  0  0  0  0  0  0
  190.2870  176.6730  146.9720 C   0  0  0  0  0  2  0  0  0  0  0  0
  188.0150  177.3810  147.6150 C   0  0  0  0  0  2  0  0  0  0  0  0
  189.3100  177.8300  146.9730 C   0  0  0  0  0  3  0  0  0  0  0  0
  189.0000  178.2170  148.4050 C   0  0  0  0  0  2  0  0  0  0  0  0
  189.8060  177.7580  138.7310 C   0  0  0  0  0  2  0  0  0  0  0  0
  189.0300  176.4900  138.4000 C   0  0  0  0  0  2  0  0  0  0  0  0
  189.8670  175.5060  137.5930 C   0  0  0  0  0  2  0  0  0  0  0  0
  191.1130  176.1770  137.0320 C   0  0  0  0  0  2  0  0  0  0  0  0
  193.5780  176.6390  138.3100 O   0  0  0  0  0  0  0  0  0  0  0  0
  192.2260  175.2370  137.0050 N   0  0  0  0  0  0  0  0  0  0  0  0
  193.4420  175.5360  137.7150 C   0  0  0  0  0  0  0  0  0  0  0  0
  194.5170  173.5660  136.6310 C   0  0  0  0  0  2  0  0  0  0  0  0
  193.1180  173.0070  136.4230 C   0  0  0  0  0  2  0  0  0  0  0  0
  192.1700  174.1380  136.0400 C   0  0  0  0  0  2  0  0  0  0  0  0
  194.5270  174.5100  137.8270 C   0  0  0  0  0  2  0  0  0  0  0  0
  1  4  1  0  0  0  0
  1 17  1  1  0  0  0
  2  5  1  0  0  0  0
  2  7  1  0  0  0  0
  4 16  1  6  0  0  0
  5  6  1  0  0  0  0
  6 10  1  1  0  0  0
  6  4  1  0  0  0  0
  7  3  1  6  0  0  0
  7  1  1  0  0  0  0
  8 14  1  0  0  0  0
  9  8  2  0  0  0  0
 10 12  2  0  0  0  0
 11  9  1  0  0  0  0
 12  8  1  0  0  0  0
 13 11  2  0  0  0  0
 13 10  1  0  0  0  0
 16 15  1  0  0  0  0
 17 18  1  0  0  0  0
 18 19  1  0  0  0  0
 19 20  1  0  0  0  0
 20 22  1  0  0  0  0
 21 23  1  0  0  0  0
 22 21  1  0  0  0  0
 22 23  1  0  0  0  0
 24  2  1  0  0  0  0
 25 24  1  0  0  0  0
 26 25  1  0  0  0  0
 27 26  1  0  0  0  0
 29 27  1  0  0  0  0
 29 30  1  0  0  0  0
 30 34  1  0  0  0  0
 30 28  2  0  0  0  0
 31 34  1  0  0  0  0
 32 31  1  0  0  0  0
 33 32  1  0  0  0  0
 33 29  1  0  0  0  0
M  END
>  <MODEL>
4

>  <REMARK>
 VINA RESULT:      -7.5      2.742      8.289
  Name = 
  12 active torsions:
  status: ('A' for Active; 'I' for Inactive)
    1  A    between atoms: C_2  and  C_15
    2  A    between atoms: C_2  and  C_25
    3  A    between atoms: C_3  and  N_13
    4  A    between atoms: C_3  and  C_17
    5  A    between atoms: C_4  and  C_15
    6  A    between atoms: N_5  and  C_18
    7  A    between atoms: C_6  and  C_9
    8  A    between atoms: C_9  and  C_25
    9  A    between atoms: C_12  and  C_28
   10  A    between atoms: C_17  and  C_29
   11  A    between atoms: C_18  and  C_29
   12  A    between atoms: C_21  and  O_32
                            x       y       z     vdW  Elec       q    Type
                         _______ _______ _______ _____ _____    ______ ____

>  <TORSDO>
F 12

$$$$
=
 OpenBabel11052414153D

 34 37  0  0  1  0  0  0  0  0999 V2000
  184.4870  178.5230  143.9560 C   0  0  2  0  0  3  0  0  0  0  0  0
  186.3200  178.1230  142.3720 N   0  0  0  0  0  0  0  0  0  0  0  0
  184.2140  178.8390  141.6020 O   0  0  0  0  0  1  0  0  0  0  0  0
  185.5150  178.3280  145.0810 C   0  0  1  0  0  3  0  0  0  0  0  0
  187.2150  178.2940  143.3860 O   0  0  0  0  0  0  0  0  0  0  0  0
  186.7080  177.5720  144.4830 C   0  0  1  0  0  3  0  0  0  0  0  0
  185.1440  178.9690  142.6390 C   0  0  1  0  0  3  0  0  0  0  0  0
  190.1200  176.9100  145.9890 C   0  0  0  0  0  0  0  0  0  0  0  0
  189.8090  176.7530  147.3430 C   0  0  0  0  0  3  0  0  0  0  0  0
  187.7780  177.2940  145.4920 C   0  0  0  0  0  0  0  0  0  0  0  0
  188.4840  176.8600  147.7750 C   0  0  0  0  0  3  0  0  0  0  0  0
  189.1040  177.1760  145.0650 C   0  0  0  0  0  3  0  0  0  0  0  0
  187.4690  177.1280  146.8510 C   0  0  0  0  0  3  0  0  0  0  0  0
  191.7790  176.7750  145.4510 Cl  0  0  0  0  0  0  0  0  0  0  0  0
  185.6810  179.4890  146.9640 C   0  0  0  0  0  1  0  0  0  0  0  0
  185.9320  179.5640  145.5930 O   0  0  0  0  0  0  0  0  0  0  0  0
  183.2730  179.3620  144.3630 C   0  0  0  0  0  2  0  0  0  0  0  0
  181.9540  178.6220  144.1700 C   0  0  0  0  0  2  0  0  0  0  0  0
  181.0600  179.3780  143.2050 C   0  0  0  0  0  2  0  0  0  0  0  0
  179.9370  178.4800  142.7180 C   0  0  0  0  0  2  0  0  0  0  0  0
  180.9900  177.7100  140.6260 C   0  0  0  0  0  2  0  0  0  0  0  0
  179.8610  178.5360  141.2070 C   0  0  0  0  0  3  0  0  0  0  0  0
  179.5850  177.1450  140.6720 C   0  0  0  0  0  2  0  0  0  0  0  0
  186.9800  178.6270  141.1740 C   0  0  0  0  0  2  0  0  0  0  0  0
  188.4920  178.6020  141.3490 C   0  0  0  0  0  2  0  0  0  0  0  0
  189.0990  177.2890  140.8710 C   0  0  0  0  0  2  0  0  0  0  0  0
  190.2220  177.5350  139.8740 C   0  0  0  0  0  2  0  0  0  0  0  0
  190.6450  175.2100  138.3430 O   0  0  0  0  0  0  0  0  0  0  0  0
  189.7360  177.3660  138.5110 N   0  0  0  0  0  0  0  0  0  0  0  0
  189.9660  176.1290  137.8100 C   0  0  0  0  0  0  0  0  0  0  0  0
  189.1090  177.1940  135.7260 C   0  0  0  0  0  2  0  0  0  0  0  0
  188.3730  178.1820  136.6170 C   0  0  0  0  0  2  0  0  0  0  0  0
  189.2590  178.5540  137.8020 C   0  0  0  0  0  2  0  0  0  0  0  0
  189.3340  175.8850  136.4740 C   0  0  0  0  0  2  0  0  0  0  0  0
  1 17  1  1  0  0  0
  1  4  1  0  0  0  0
  2  7  1  0  0  0  0
  2  5  1  0  0  0  0
  4 16  1  6  0  0  0
  5  6  1  0  0  0  0
  6  4  1  0  0  0  0
  6 10  1  1  0  0  0
  7  3  1  6  0  0  0
  7  1  1  0  0  0  0
  8  9  1  0  0  0  0
  9 11  2  0  0  0  0
 10 13  2  0  0  0  0
 12 10  1  0  0  0  0
 12  8  2  0  0  0  0
 13 11  1  0  0  0  0
 14  8  1  0  0  0  0
 16 15  1  0  0  0  0
 18 17  1  0  0  0  0
 19 18  1  0  0  0  0
 20 19  1  0  0  0  0
 21 23  1  0  0  0  0
 21 22  1  0  0  0  0
 22 20  1  0  0  0  0
 23 22  1  0  0  0  0
 24 25  1  0  0  0  0
 24  2  1  0  0  0  0
 26 25  1  0  0  0  0
 27 26  1  0  0  0  0
 29 27  1  0  0  0  0
 30 28  2  0  0  0  0
 30 29  1  0  0  0  0
 31 34  1  0  0  0  0
 31 32  1  0  0  0  0
 32 33  1  0  0  0  0
 33 29  1  0  0  0  0
 34 30  1  0  0  0  0
M  END
>  <MODEL>
5

>  <REMARK>
 VINA RESULT:      -7.3      2.254      7.310
  Name = 
  12 active torsions:
  status: ('A' for Active; 'I' for Inactive)
    1  A    between atoms: C_2  and  C_15
    2  A    between atoms: C_2  and  C_25
    3  A    between atoms: C_3  and  N_13
    4  A    between atoms: C_3  and  C_17
    5  A    between atoms: C_4  and  C_15
    6  A    between atoms: N_5  and  C_18
    7  A    between atoms: C_6  and  C_9
    8  A    between atoms: C_9  and  C_25
    9  A    between atoms: C_12  and  C_28
   10  A    between atoms: C_17  and  C_29
   11  A    between atoms: C_18  and  C_29
   12  A    between atoms: C_21  and  O_32
                            x       y       z     vdW  Elec       q    Type
                         _______ _______ _______ _____ _____    ______ ____

>  <TORSDO>
F 12

$$$$
=
 OpenBabel11052414153D

 34 37  0  0  1  0  0  0  0  0999 V2000
  187.7340  177.7220  144.7190 C   0  0  2  0  0  3  0  0  0  0  0  0
  186.0090  177.9100  142.9820 N   0  0  0  0  0  0  0  0  0  0  0  0
  185.4300  178.0630  145.2580 O   0  0  0  0  0  1  0  0  0  0  0  0
  188.7730  177.7610  143.5880 C   0  0  1  0  0  3  0  0  0  0  0  0
  186.9720  178.2700  142.0850 O   0  0  0  0  0  0  0  0  0  0  0  0
  188.0480  177.3860  142.2890 C   0  0  1  0  0  3  0  0  0  0  0  0
  186.4100  178.3910  144.3150 C   0  0  1  0  0  3  0  0  0  0  0  0
  189.4630  178.0900  138.8470 C   0  0  0  0  0  0  0  0  0  0  0  0
  190.6360  177.3300  138.8580 C   0  0  0  0  0  3  0  0  0  0  0  0
  188.9640  177.3620  141.1050 C   0  0  0  0  0  0  0  0  0  0  0  0
  190.9730  176.5800  139.9890 C   0  0  0  0  0  3  0  0  0  0  0  0
  188.6260  178.1030  139.9680 C   0  0  0  0  0  3  0  0  0  0  0  0
  190.1380  176.5940  141.1100 C   0  0  0  0  0  3  0  0  0  0  0  0
  189.0420  179.0270  137.4310 Cl  0  0  0  0  0  0  0  0  0  0  0  0
  190.6780  178.8720  143.8320 C   0  0  0  0  0  1  0  0  0  0  0  0
  189.3380  179.0380  143.4750 O   0  0  0  0  0  0  0  0  0  0  0  0
  188.2760  178.1800  146.0760 C   0  0  0  0  0  2  0  0  0  0  0  0
  188.2690  177.0680  147.1190 C   0  0  0  0  0  2  0  0  0  0  0  0
  189.2190  177.4020  148.2540 C   0  0  0  0  0  2  0  0  0  0  0  0
  190.6560  177.3440  147.7700 C   0  0  0  0  0  2  0  0  0  0  0  0
  192.0550  175.9850  146.2610 C   0  0  0  0  0  2  0  0  0  0  0  0
  190.9880  175.9320  147.3340 C   0  0  0  0  0  3  0  0  0  0  0  0
  192.4310  175.6310  147.6840 C   0  0  0  0  0  2  0  0  0  0  0  0
  184.8070  178.6300  142.5810 C   0  0  0  0  0  2  0  0  0  0  0  0
  184.2150  178.0170  141.3200 C   0  0  0  0  0  2  0  0  0  0  0  0
  184.1970  179.0050  140.1610 C   0  0  0  0  0  2  0  0  0  0  0  0
  183.3830  178.4650  138.9930 C   0  0  0  0  0  2  0  0  0  0  0  0
  182.7810  175.7510  138.5500 O   0  0  0  0  0  0  0  0  0  0  0  0
  184.1990  177.5800  138.1720 N   0  0  0  0  0  0  0  0  0  0  0  0
  183.8000  176.2120  137.9690 C   0  0  0  0  0  0  0  0  0  0  0  0
  185.9990  175.7720  136.8800 C   0  0  0  0  0  2  0  0  0  0  0  0
  186.0770  177.2640  136.5970 C   0  0  0  0  0  2  0  0  0  0  0  0
  185.5370  178.0370  137.7960 C   0  0  0  0  0  2  0  0  0  0  0  0
  184.5420  175.3420  137.0010 C   0  0  0  0  0  2  0  0  0  0  0  0
  1 17  1  1  0  0  0
  2  7  1  0  0  0  0
  4 16  1  6  0  0  0
  4  1  1  0  0  0  0
  5  6  1  0  0  0  0
  5  2  1  0  0  0  0
  6 10  1  6  0  0  0
  6  4  1  0  0  0  0
  7  1  1  0  0  0  0
  7  3  1  1  0  0  0
  8  9  2  0  0  0  0
  8 12  1  0  0  0  0
  9 11  1  0  0  0  0
 10 13  1  0  0  0  0
 11 13  2  0  0  0  0
 12 10  2  0  0  0  0
 14  8  1  0  0  0  0
 16 15  1  0  0  0  0
 17 18  1  0  0  0  0
 18 19  1  0  0  0  0
 20 19  1  0  0  0  0
 21 22  1  0  0  0  0
 21 23  1  0  0  0  0
 22 23  1  0  0  0  0
 22 20  1  0  0  0  0
 24  2  1  0  0  0  0
 25 24  1  0  0  0  0
 26 25  1  0  0  0  0
 27 26  1  0  0  0  0
 29 27  1  0  0  0  0
 30 29  1  0  0  0  0
 30 28  2  0  0  0  0
 31 34  1  0  0  0  0
 32 31  1  0  0  0  0
 32 33  1  0  0  0  0
 33 29  1  0  0  0  0
 34 30  1  0  0  0  0
M  END
>  <MODEL>
6

>  <REMARK>
 VINA RESULT:      -7.3      3.011      6.328
  Name = 
  12 active torsions:
  status: ('A' for Active; 'I' for Inactive)
    1  A    between atoms: C_2  and  C_15
    2  A    between atoms: C_2  and  C_25
    3  A    between atoms: C_3  and  N_13
    4  A    between atoms: C_3  and  C_17
    5  A    between atoms: C_4  and  C_15
    6  A    between atoms: N_5  and  C_18
    7  A    between atoms: C_6  and  C_9
    8  A    between atoms: C_9  and  C_25
    9  A    between atoms: C_12  and  C_28
   10  A    between atoms: C_17  and  C_29
   11  A    between atoms: C_18  and  C_29
   12  A    between atoms: C_21  and  O_32
                            x       y       z     vdW  Elec       q    Type
                         _______ _______ _______ _____ _____    ______ ____

>  <TORSDO>
F 12

$$$$
=
 OpenBabel11052414153D

 34 37  0  0  1  0  0  0  0  0999 V2000
  190.0280  177.7220  142.1080 C   0  0  2  0  0  3  0  0  0  0  0  0
  189.4200  178.0960  139.7590 N   0  0  0  0  0  0  0  0  0  0  0  0
  191.6350  177.5590  140.3450 O   0  0  0  0  0  1  0  0  0  0  0  0
  188.5270  177.7870  142.4300 C   0  0  1  0  0  3  0  0  0  0  0  0
  188.1210  177.8110  140.0640 O   0  0  0  0  0  0  0  0  0  0  0  0
  187.8400  178.4990  141.2590 C   0  0  1  0  0  3  0  0  0  0  0  0
  190.2920  177.3110  140.6500 C   0  0  1  0  0  3  0  0  0  0  0  0
  184.1380  178.8080  140.5160 C   0  0  0  0  0  0  0  0  0  0  0  0
  183.6000  178.9540  141.7980 C   0  0  0  0  0  3  0  0  0  0  0  0
  186.3640  178.6500  141.4640 C   0  0  0  0  0  0  0  0  0  0  0  0
  184.4410  178.9540  142.9150 C   0  0  0  0  0  3  0  0  0  0  0  0
  185.5190  178.6610  140.3500 C   0  0  0  0  0  3  0  0  0  0  0  0
  185.8210  178.8040  142.7480 C   0  0  0  0  0  3  0  0  0  0  0  0
  183.0840  178.8100  139.1200 Cl  0  0  0  0  0  0  0  0  0  0  0  0
  187.6430  176.4230  143.9410 C   0  0  0  0  0  1  0  0  0  0  0  0
  187.9970  176.4990  142.5920 O   0  0  0  0  0  0  0  0  0  0  0  0
  190.8500  176.9380  143.1350 C   0  0  0  0  0  2  0  0  0  0  0  0
  191.4920  177.8370  144.1850 C   0  0  0  0  0  2  0  0  0  0  0  0
  191.2560  177.2770  145.5760 C   0  0  0  0  0  2  0  0  0  0  0  0
  189.9080  177.7320  146.1040 C   0  0  0  0  0  2  0  0  0  0  0  0
  189.0520  178.1740  148.3730 C   0  0  0  0  0  2  0  0  0  0  0  0
  189.6660  177.1260  147.4690 C   0  0  0  0  0  3  0  0  0  0  0  0
  188.1770  177.1080  147.7480 C   0  0  0  0  0  2  0  0  0  0  0  0
  189.6180  177.6200  138.3950 C   0  0  0  0  0  2  0  0  0  0  0  0
  188.3080  177.1030  137.8160 C   0  0  0  0  0  2  0  0  0  0  0  0
  188.5210  176.3480  136.5110 C   0  0  0  0  0  2  0  0  0  0  0  0
  187.2050  176.1420  135.7750 C   0  0  0  0  0  2  0  0  0  0  0  0
  184.7420  176.4710  137.0980 O   0  0  0  0  0  0  0  0  0  0  0  0
  186.4560  175.0440  136.3750 N   0  0  0  0  0  0  0  0  0  0  0  0
  185.1860  175.2950  137.0030 C   0  0  0  0  0  0  0  0  0  0  0  0
  185.1920  172.9570  137.8650 C   0  0  0  0  0  2  0  0  0  0  0  0
  186.1540  172.6180  136.7370 C   0  0  0  0  0  2  0  0  0  0  0  0
  187.1430  173.7640  136.5520 C   0  0  0  0  0  2  0  0  0  0  0  0
  184.3360  174.1570  137.4780 C   0  0  0  0  0  2  0  0  0  0  0  0
  1  4  1  0  0  0  0
  1 17  1  1  0  0  0
  2  5  1  0  0  0  0
  2  7  1  0  0  0  0
  4 16  1  6  0  0  0
  5  6  1  0  0  0  0
  6 10  1  1  0  0  0
  6  4  1  0  0  0  0
  7  3  1  6  0  0  0
  7  1  1  0  0  0  0
  8  9  1  0  0  0  0
  9 11  2  0  0  0  0
 10 13  2  0  0  0  0
 12  8  2  0  0  0  0
 12 10  1  0  0  0  0
 13 11  1  0  0  0  0
 14  8  1  0  0  0  0
 16 15  1  0  0  0  0
 17 18  1  0  0  0  0
 18 19  1  0  0  0  0
 19 20  1  0  0  0  0
 20 22  1  0  0  0  0
 22 23  1  0  0  0  0
 22 21  1  0  0  0  0
 23 21  1  0  0  0  0
 24  2  1  0  0  0  0
 25 24  1  0  0  0  0
 26 25  1  0  0  0  0
 27 29  1  0  0  0  0
 27 26  1  0  0  0  0
 29 33  1  0  0  0  0
 29 30  1  0  0  0  0
 30 28  2  0  0  0  0
 30 34  1  0  0  0  0
 32 31  1  0  0  0  0
 33 32  1  0  0  0  0
 34 31  1  0  0  0  0
M  END
>  <MODEL>
7

>  <REMARK>
 VINA RESULT:      -7.3      3.533      6.779
  Name = 
  12 active torsions:
  status: ('A' for Active; 'I' for Inactive)
    1  A    between atoms: C_2  and  C_15
    2  A    between atoms: C_2  and  C_25
    3  A    between atoms: C_3  and  N_13
    4  A    between atoms: C_3  and  C_17
    5  A    between atoms: C_4  and  C_15
    6  A    between atoms: N_5  and  C_18
    7  A    between atoms: C_6  and  C_9
    8  A    between atoms: C_9  and  C_25
    9  A    between atoms: C_12  and  C_28
   10  A    between atoms: C_17  and  C_29
   11  A    between atoms: C_18  and  C_29
   12  A    between atoms: C_21  and  O_32
                            x       y       z     vdW  Elec       q    Type
                         _______ _______ _______ _____ _____    ______ ____

>  <TORSDO>
F 12

$$$$
=
 OpenBabel11052414153D

 34 37  0  0  1  0  0  0  0  0999 V2000
  184.6080  178.9660  142.2800 C   0  0  2  0  0  3  0  0  0  0  0  0
  186.1420  178.6460  140.3900 N   0  0  0  0  0  0  0  0  0  0  0  0
  186.9070  178.3930  142.6020 O   0  0  0  0  0  1  0  0  0  0  0  0
  183.4720  179.0490  141.2490 C   0  0  1  0  0  3  0  0  0  0  0  0
  185.0720  178.3990  139.5810 O   0  0  0  0  0  0  0  0  0  0  0  0
  184.1100  179.3780  139.8940 C   0  0  1  0  0  3  0  0  0  0  0  0
  185.8180  178.1800  141.7500 C   0  0  1  0  0  3  0  0  0  0  0  0
  181.3760  180.8260  137.7090 C   0  0  0  0  0  0  0  0  0  0  0  0
  181.1770  179.8000  136.7810 C   0  0  0  0  0  3  0  0  0  0  0  0
  183.0980  179.5130  138.7990 C   0  0  0  0  0  0  0  0  0  0  0  0
  181.9320  178.6260  136.8620 C   0  0  0  0  0  3  0  0  0  0  0  0
  182.3330  180.6800  138.7190 C   0  0  0  0  0  3  0  0  0  0  0  0
  182.8900  178.4820  137.8700 C   0  0  0  0  0  3  0  0  0  0  0  0
  180.4290  182.2930  137.6060 Cl  0  0  0  0  0  0  0  0  0  0  0  0
  181.4360  178.1760  141.3640 C   0  0  0  0  0  1  0  0  0  0  0  0
  182.7770  177.8350  141.1750 O   0  0  0  0  0  0  0  0  0  0  0  0
  184.1490  178.5350  143.6760 C   0  0  0  0  0  2  0  0  0  0  0  0
  184.7350  179.4040  144.7830 C   0  0  0  0  0  2  0  0  0  0  0  0
  184.6980  178.6680  146.1090 C   0  0  0  0  0  2  0  0  0  0  0  0
  186.0550  178.7390  146.7870 C   0  0  0  0  0  2  0  0  0  0  0  0
  188.1570  177.8770  145.8300 C   0  0  0  0  0  2  0  0  0  0  0  0
  186.8450  177.4860  146.4760 C   0  0  0  0  0  3  0  0  0  0  0  0
  188.1210  177.4880  147.2920 C   0  0  0  0  0  2  0  0  0  0  0  0
  187.2270  177.8210  139.8730 C   0  0  0  0  0  2  0  0  0  0  0  0
  188.4470  178.6780  139.5650 C   0  0  0  0  0  2  0  0  0  0  0  0
  189.7200  178.0910  140.1610 C   0  0  0  0  0  2  0  0  0  0  0  0
  189.3990  177.0050  141.1780 C   0  0  0  0  0  2  0  0  0  0  0  0
  190.1830  174.8750  142.8440 O   0  0  0  0  0  0  0  0  0  0  0  0
  190.2160  177.1720  142.3730 N   0  0  0  0  0  0  0  0  0  0  0  0
  190.6020  176.0240  143.1510 C   0  0  0  0  0  0  0  0  0  0  0  0
  191.4930  177.5560  144.9030 C   0  0  0  0  0  2  0  0  0  0  0  0
  191.6090  178.6150  143.8170 C   0  0  0  0  0  2  0  0  0  0  0  0
  190.4000  178.5280  142.8920 C   0  0  0  0  0  2  0  0  0  0  0  0
  191.5710  176.1660  144.2840 C   0  0  0  0  0  2  0  0  0  0  0  0
  1 17  1  1  0  0  0
  2  7  1  0  0  0  0
  4 16  1  6  0  0  0
  4  1  1  0  0  0  0
  5  6  1  0  0  0  0
  5  2  1  0  0  0  0
  6 10  1  6  0  0  0
  6  4  1  0  0  0  0
  7  1  1  0  0  0  0
  7  3  1  1  0  0  0
  8 12  1  0  0  0  0
  9 11  1  0  0  0  0
  9  8  2  0  0  0  0
 11 13  2  0  0  0  0
 12 10  2  0  0  0  0
 13 10  1  0  0  0  0
 14  8  1  0  0  0  0
 16 15  1  0  0  0  0
 17 18  1  0  0  0  0
 18 19  1  0  0  0  0
 19 20  1  0  0  0  0
 21 22  1  0  0  0  0
 21 23  1  0  0  0  0
 22 20  1  0  0  0  0
 22 23  1  0  0  0  0
 24  2  1  0  0  0  0
 25 24  1  0  0  0  0
 25 26  1  0  0  0  0
 26 27  1  0  0  0  0
 27 29  1  0  0  0  0
 28 30  2  0  0  0  0
 29 33  1  0  0  0  0
 29 30  1  0  0  0  0
 30 34  1  0  0  0  0
 32 31  1  0  0  0  0
 33 32  1  0  0  0  0
 34 31  1  0  0  0  0
M  END
>  <MODEL>
8

>  <REMARK>
 VINA RESULT:      -7.3      3.569      9.274
  Name = 
  12 active torsions:
  status: ('A' for Active; 'I' for Inactive)
    1  A    between atoms: C_2  and  C_15
    2  A    between atoms: C_2  and  C_25
    3  A    between atoms: C_3  and  N_13
    4  A    between atoms: C_3  and  C_17
    5  A    between atoms: C_4  and  C_15
    6  A    between atoms: N_5  and  C_18
    7  A    between atoms: C_6  and  C_9
    8  A    between atoms: C_9  and  C_25
    9  A    between atoms: C_12  and  C_28
   10  A    between atoms: C_17  and  C_29
   11  A    between atoms: C_18  and  C_29
   12  A    between atoms: C_21  and  O_32
                            x       y       z     vdW  Elec       q    Type
                         _______ _______ _______ _____ _____    ______ ____

>  <TORSDO>
F 12

$$$$
=
 OpenBabel11052414153D

 34 37  0  0  1  0  0  0  0  0999 V2000
  189.5980  177.7950  141.5760 C   0  0  2  0  0  3  0  0  0  0  0  0
  188.0880  178.5610  139.7990 N   0  0  0  0  0  0  0  0  0  0  0  0
  190.3350  178.0540  139.3170 O   0  0  0  0  0  1  0  0  0  0  0  0
  188.3640  177.7120  142.4880 C   0  0  1  0  0  3  0  0  0  0  0  0
  187.0230  178.1500  140.5450 O   0  0  0  0  0  0  0  0  0  0  0  0
  187.2730  178.5880  141.8590 C   0  0  1  0  0  3  0  0  0  0  0  0
  189.2300  177.6780  140.0880 C   0  0  1  0  0  3  0  0  0  0  0  0
  184.9450  178.6260  144.8470 C   0  0  0  0  0  0  0  0  0  0  0  0
  183.6900  178.6360  144.2320 C   0  0  0  0  0  3  0  0  0  0  0  0
  186.0160  178.6130  142.6720 C   0  0  0  0  0  0  0  0  0  0  0  0
  183.5930  178.6290  142.8380 C   0  0  0  0  0  3  0  0  0  0  0  0
  186.1060  178.6100  144.0680 C   0  0  0  0  0  3  0  0  0  0  0  0
  184.7540  178.6160  142.0590 C   0  0  0  0  0  3  0  0  0  0  0  0
  185.0640  178.6330  146.5930 Cl  0  0  0  0  0  0  0  0  0  0  0  0
  188.1460  176.0430  143.9340 C   0  0  0  0  0  1  0  0  0  0  0  0
  187.9170  176.3880  142.6000 O   0  0  0  0  0  0  0  0  0  0  0  0
  190.7510  176.8840  142.0070 C   0  0  0  0  0  2  0  0  0  0  0  0
  191.8250  177.6260  142.7940 C   0  0  0  0  0  2  0  0  0  0  0  0
  191.3780  177.8380  144.2290 C   0  0  0  0  0  2  0  0  0  0  0  0
  191.6390  176.5890  145.0500 C   0  0  0  0  0  2  0  0  0  0  0  0
  190.3360  176.6330  147.1430 C   0  0  0  0  0  2  0  0  0  0  0  0
  191.6800  176.9470  146.5210 C   0  0  0  0  0  3  0  0  0  0  0  0
  191.5010  175.6880  147.3440 C   0  0  0  0  0  2  0  0  0  0  0  0
  187.6970  178.3590  138.4090 C   0  0  0  0  0  2  0  0  0  0  0  0
  187.5040  176.8760  138.1210 C   0  0  0  0  0  2  0  0  0  0  0  0
  186.2720  176.6190  137.2630 C   0  0  0  0  0  2  0  0  0  0  0  0
  185.4500  177.8890  137.0880 C   0  0  0  0  0  2  0  0  0  0  0  0
  184.5500  179.9190  138.8190 O   0  0  0  0  0  0  0  0  0  0  0  0
  184.2170  177.8050  137.8600 N   0  0  0  0  0  0  0  0  0  0  0  0
  183.8120  178.9040  138.6960 C   0  0  0  0  0  0  0  0  0  0  0  0
  182.0070  177.4700  139.6440 C   0  0  0  0  0  2  0  0  0  0  0  0
  182.1020  176.6360  138.3760 C   0  0  0  0  0  2  0  0  0  0  0  0
  183.5640  176.4990  137.9660 C   0  0  0  0  0  2  0  0  0  0  0  0
  182.4720  178.8940  139.3660 C   0  0  0  0  0  2  0  0  0  0  0  0
  1 17  1  1  0  0  0
  1  4  1  0  0  0  0
  2  7  1  0  0  0  0
  2  5  1  0  0  0  0
  4 16  1  6  0  0  0
  5  6  1  0  0  0  0
  6  4  1  0  0  0  0
  6 10  1  1  0  0  0
  7  3  1  6  0  0  0
  7  1  1  0  0  0  0
  8 14  1  0  0  0  0
  9  8  1  0  0  0  0
 10 12  1  0  0  0  0
 11  9  2  0  0  0  0
 12  8  2  0  0  0  0
 13 10  2  0  0  0  0
 13 11  1  0  0  0  0
 16 15  1  0  0  0  0
 17 18  1  0  0  0  0
 18 19  1  0  0  0  0
 19 20  1  0  0  0  0
 20 22  1  0  0  0  0
 21 23  1  0  0  0  0
 22 21  1  0  0  0  0
 22 23  1  0  0  0  0
 24  2  1  0  0  0  0
 25 24  1  0  0  0  0
 26 25  1  0  0  0  0
 27 26  1  0  0  0  0
 27 29  1  0  0  0  0
 29 33  1  0  0  0  0
 29 30  1  0  0  0  0
 30 28  2  0  0  0  0
 30 34  1  0  0  0  0
 32 31  1  0  0  0  0
 33 32  1  0  0  0  0
 34 31  1  0  0  0  0
M  END
>  <MODEL>
9

>  <REMARK>
 VINA RESULT:      -7.3      2.608      4.852
  Name = 
  12 active torsions:
  status: ('A' for Active; 'I' for Inactive)
    1  A    between atoms: C_2  and  C_15
    2  A    between atoms: C_2  and  C_25
    3  A    between atoms: C_3  and  N_13
    4  A    between atoms: C_3  and  C_17
    5  A    between atoms: C_4  and  C_15
    6  A    between atoms: N_5  and  C_18
    7  A    between atoms: C_6  and  C_9
    8  A    between atoms: C_9  and  C_25
    9  A    between atoms: C_12  and  C_28
   10  A    between atoms: C_17  and  C_29
   11  A    between atoms: C_18  and  C_29
   12  A    between atoms: C_21  and  O_32
                            x       y       z     vdW  Elec       q    Type
                         _______ _______ _______ _____ _____    ______ ____

>  <TORSDO>
F 12

$$$$
