=
 OpenBabel11052415313D

 37 42  0  0  1  0  0  0  0  0999 V2000
  180.5300  178.7650  137.9520 C   0  0  0  0  0  2  0  0  0  0  0  0
  182.4830  179.5880  139.2440 C   0  0  0  0  0  2  0  0  0  0  0  0
  182.4560  178.4320  140.2320 C   0  0  2  0  0  3  0  0  0  0  0  0
  181.5230  177.6630  138.2380 C   0  0  2  0  0  0  0  0  0  0  0  0
  182.4250  176.1300  139.8650 C   0  0  0  0  0  1  0  0  0  0  0  0
  181.6550  177.3510  139.6670 N   0  0  0  0  0  0  0  0  0  0  0  0
  182.0310  179.0400  137.9100 C   0  0  1  0  0  3  0  0  0  0  0  0
  181.7260  178.9790  141.8050 S   0  0  0  0  0  0  0  0  0  0  0  0
  184.3820  178.2510  142.0550 C   0  0  0  0  0  3  0  0  0  0  0  0
  185.5560  178.0060  142.7710 C   0  0  0  0  0  3  0  0  0  0  0  0
  183.2520  178.8460  144.1090 C   0  0  0  0  0  3  0  0  0  0  0  0
  183.2310  178.6750  142.7220 C   0  0  0  0  0  0  0  0  0  0  0  0
  185.5930  178.1780  144.1660 C   0  0  0  0  0  0  0  0  0  0  0  0
  184.4270  178.6000  144.8260 C   0  0  0  0  0  3  0  0  0  0  0  0
  188.0180  177.5440  144.2630 C   0  0  0  0  0  3  0  0  0  0  0  0
  186.8350  177.9100  144.9280 C   0  0  0  0  0  0  0  0  0  0  0  0
  186.8520  178.0160  146.3290 C   0  0  0  0  0  3  0  0  0  0  0  0
  188.0260  177.9000  148.7920 Cl  0  0  0  0  0  0  0  0  0  0  0  0
  189.1910  177.3950  146.3740 C   0  0  0  0  0  3  0  0  0  0  0  0
  188.0230  177.7600  147.0480 C   0  0  0  0  0  0  0  0  0  0  0  0
  189.1890  177.2870  144.9820 C   0  0  0  0  0  3  0  0  0  0  0  0
  181.5510  176.5760  137.1610 C   0  0  0  0  0  2  0  0  0  0  0  0
  183.9310  176.6290  136.4800 C   0  0  0  0  0  2  0  0  0  0  0  0
  182.5150  176.9440  136.0390 C   0  0  1  0  0  3  0  0  0  0  0  0
  183.2820  175.7710  135.4090 C   0  0  2  0  0  3  0  0  0  0  0  0
  181.8450  173.6000  135.0420 C   0  0  0  0  0  2  0  0  0  0  0  0
  180.9170  172.7530  135.9210 C   0  0  1  0  0  3  0  0  0  0  0  0
  184.0120  171.9940  136.1080 C   0  0  0  0  0  0  0  0  0  0  0  0
  181.6500  172.0500  137.0630 C   0  0  0  0  0  2  0  0  0  0  0  0
  182.8110  171.2000  136.5640 C   0  0  0  0  0  2  0  0  0  0  0  0
  184.1460  173.5010  136.2260 C   0  0  1  0  0  3  0  0  0  0  0  0
  185.0570  171.3120  135.6480 C   0  0  0  0  0  2  0  0  0  0  0  0
  182.9040  174.3420  135.8720 C   0  0  1  0  0  3  0  0  0  0  0  0
  186.1410  174.0180  137.4680 O   0  0  0  0  0  1  0  0  0  0  0  0
  184.7510  173.9140  137.5650 C   0  0  0  0  0  2  0  0  0  0  0  0
  179.7970  173.5180  138.0150 C   0  0  0  0  0  1  0  0  0  0  0  0
  179.8040  173.6120  136.5010 C   0  0  0  0  0  2  0  0  0  0  0  0
  1  4  1  0  0  0  0
  2  3  1  0  0  0  0
  3  8  1  1  0  0  0
  4 22  1  6  0  0  0
  4  6  1  0  0  0  0
  6  5  1  0  0  0  0
  6  3  1  0  0  0  0
  7  1  1  1  0  0  0
  7  4  1  0  0  0  0
  7  2  1  0  0  0  0
  8 12  1  0  0  0  0
  9 12  2  0  0  0  0
  9 10  1  0  0  0  0
 10 13  2  0  0  0  0
 11 14  2  0  0  0  0
 12 11  1  0  0  0  0
 13 14  1  0  0  0  0
 13 16  1  0  0  0  0
 15 16  2  0  0  0  0
 15 21  1  0  0  0  0
 16 17  1  0  0  0  0
 17 20  2  0  0  0  0
 19 20  1  0  0  0  0
 20 18  1  0  0  0  0
 21 19  2  0  0  0  0
 24 23  1  0  0  0  0
 24 22  1  1  0  0  0
 25 33  1  0  0  0  0
 25 24  1  0  0  0  0
 25 23  1  1  0  0  0
 26 27  1  0  0  0  0
 27 37  1  1  0  0  0
 27 29  1  0  0  0  0
 28 31  1  0  0  0  0
 28 30  1  0  0  0  0
 30 29  1  0  0  0  0
 31 35  1  1  0  0  0
 32 28  2  0  0  0  0
 33 26  1  6  0  0  0
 33 31  1  0  0  0  0
 34 35  1  0  0  0  0
 37 36  1  0  0  0  0
M  END
>  <MODEL>
1

>  <REMARK>
 VINA RESULT:      -8.2      0.000      0.000
  Name = 
  8 active torsions:
  status: ('A' for Active; 'I' for Inactive)
    1  A    between atoms: S_4  and  C_16
    2  A    between atoms: S_4  and  C_28
    3  A    between atoms: C_5  and  C_23
    4  A    between atoms: C_6  and  C_31
    5  A    between atoms: C_20  and  C_32
    6  A    between atoms: C_21  and  C_32
    7  A    between atoms: C_27  and  C_33
    8  A    between atoms: C_29  and  C_36
                            x       y       z     vdW  Elec       q    Type
                         _______ _______ _______ _____ _____    ______ ____

>  <TORSDO>
F 8

$$$$
=
 OpenBabel11052415313D

 37 42  0  0  1  0  0  0  0  0999 V2000
  185.5960  177.3680  135.8310 C   0  0  0  0  0  2  0  0  0  0  0  0
  186.9860  176.2100  137.5300 C   0  0  0  0  0  2  0  0  0  0  0  0
  187.0410  177.4100  138.4640 C   0  0  2  0  0  3  0  0  0  0  0  0
  185.0680  177.5790  137.2310 C   0  0  2  0  0  0  0  0  0  0  0  0
  185.3260  178.7260  139.3350 C   0  0  0  0  0  1  0  0  0  0  0  0
  185.9810  178.3410  138.0920 N   0  0  0  0  0  0  0  0  0  0  0  0
  185.6340  176.2370  136.8550 C   0  0  1  0  0  3  0  0  0  0  0  0
  188.6570  178.2300  138.3240 S   0  0  0  0  0  0  0  0  0  0  0  0
  188.3060  178.4980  141.0530 C   0  0  0  0  0  3  0  0  0  0  0  0
  188.6340  178.2650  142.3910 C   0  0  0  0  0  3  0  0  0  0  0  0
  190.1710  177.1230  140.3570 C   0  0  0  0  0  3  0  0  0  0  0  0
  189.0720  177.9240  140.0360 C   0  0  0  0  0  0  0  0  0  0  0  0
  189.7340  177.4580  142.7290 C   0  0  0  0  0  0  0  0  0  0  0  0
  190.4990  176.8900  141.6960 C   0  0  0  0  0  3  0  0  0  0  0  0
  191.3420  176.6880  144.4940 C   0  0  0  0  0  3  0  0  0  0  0  0
  190.0870  177.2180  144.1480 C   0  0  0  0  0  0  0  0  0  0  0  0
  189.1730  177.5170  145.1730 C   0  0  0  0  0  3  0  0  0  0  0  0
  188.3570  177.6690  147.7740 Cl  0  0  0  0  0  0  0  0  0  0  0  0
  190.7560  176.7590  146.8400 C   0  0  0  0  0  3  0  0  0  0  0  0
  189.5060  177.2880  146.5110 C   0  0  0  0  0  0  0  0  0  0  0  0
  191.6740  176.4590  145.8320 C   0  0  0  0  0  3  0  0  0  0  0  0
  183.5510  177.7640  137.2870 C   0  0  0  0  0  2  0  0  0  0  0  0
  183.0000  176.1000  139.0350 C   0  0  0  0  0  2  0  0  0  0  0  0
  182.8490  176.4400  137.5660 C   0  0  1  0  0  3  0  0  0  0  0  0
  181.6380  176.5150  138.5090 C   0  0  2  0  0  3  0  0  0  0  0  0
  179.9960  178.5450  138.1990 C   0  0  0  0  0  2  0  0  0  0  0  0
  180.1660  180.0590  138.0190 C   0  0  1  0  0  3  0  0  0  0  0  0
  180.1080  179.0610  141.0510 C   0  0  0  0  0  0  0  0  0  0  0  0
  180.7520  180.7470  139.2520 C   0  0  0  0  0  2  0  0  0  0  0  0
  179.9410  180.4610  140.5100 C   0  0  0  0  0  2  0  0  0  0  0  0
  181.0730  178.0300  140.4970 C   0  0  1  0  0  3  0  0  0  0  0  0
  179.4170  178.7420  142.1420 C   0  0  0  0  0  2  0  0  0  0  0  0
  181.1750  177.9220  138.9630 C   0  0  1  0  0  3  0  0  0  0  0  0
  182.3770  178.8610  142.3410 O   0  0  0  0  0  1  0  0  0  0  0  0
  182.4470  178.1290  141.1530 C   0  0  0  0  0  2  0  0  0  0  0  0
  180.6470  179.4940  135.6370 C   0  0  0  0  0  1  0  0  0  0  0  0
  181.0510  180.3550  136.8190 C   0  0  0  0  0  2  0  0  0  0  0  0
  1  4  1  0  0  0  0
  2  3  1  0  0  0  0
  3  8  1  6  0  0  0
  4 22  1  1  0  0  0
  4  6  1  0  0  0  0
  6  3  1  0  0  0  0
  6  5  1  0  0  0  0
  7  1  1  6  0  0  0
  7  4  1  0  0  0  0
  7  2  1  0  0  0  0
  8 12  1  0  0  0  0
  9 10  1  0  0  0  0
 10 13  2  0  0  0  0
 11 14  2  0  0  0  0
 12 11  1  0  0  0  0
 12  9  2  0  0  0  0
 13 16  1  0  0  0  0
 14 13  1  0  0  0  0
 15 21  1  0  0  0  0
 16 15  2  0  0  0  0
 16 17  1  0  0  0  0
 17 20  2  0  0  0  0
 20 19  1  0  0  0  0
 20 18  1  0  0  0  0
 21 19  2  0  0  0  0
 24 22  1  1  0  0  0
 24 25  1  0  0  0  0
 24 23  1  0  0  0  0
 25 33  1  0  0  0  0
 25 23  1  1  0  0  0
 27 37  1  6  0  0  0
 27 26  1  0  0  0  0
 27 29  1  0  0  0  0
 28 32  2  0  0  0  0
 29 30  1  0  0  0  0
 30 28  1  0  0  0  0
 31 28  1  0  0  0  0
 31 35  1  1  0  0  0
 33 26  1  6  0  0  0
 33 31  1  0  0  0  0
 35 34  1  0  0  0  0
 36 37  1  0  0  0  0
M  END
>  <MODEL>
2

>  <REMARK>
 VINA RESULT:      -7.4      3.400      5.853
  Name = 
  8 active torsions:
  status: ('A' for Active; 'I' for Inactive)
    1  A    between atoms: S_4  and  C_16
    2  A    between atoms: S_4  and  C_28
    3  A    between atoms: C_5  and  C_23
    4  A    between atoms: C_6  and  C_31
    5  A    between atoms: C_20  and  C_32
    6  A    between atoms: C_21  and  C_32
    7  A    between atoms: C_27  and  C_33
    8  A    between atoms: C_29  and  C_36
                            x       y       z     vdW  Elec       q    Type
                         _______ _______ _______ _____ _____    ______ ____

>  <TORSDO>
F 8

$$$$
=
 OpenBabel11052415313D

 37 42  0  0  1  0  0  0  0  0999 V2000
  189.2890  176.6170  138.3370 C   0  0  0  0  0  2  0  0  0  0  0  0
  188.1560  178.4700  137.1350 C   0  0  0  0  0  2  0  0  0  0  0  0
  186.8800  178.3700  137.9570 C   0  0  2  0  0  3  0  0  0  0  0  0
  188.6260  177.5860  139.2890 C   0  0  2  0  0  0  0  0  0  0  0  0
  186.5660  178.3660  140.2660 C   0  0  0  0  0  1  0  0  0  0  0  0
  187.1630  177.6120  139.1710 N   0  0  0  0  0  0  0  0  0  0  0  0
  189.3030  178.1170  138.0550 C   0  0  1  0  0  3  0  0  0  0  0  0
  185.5880  177.5260  136.9940 S   0  0  0  0  0  0  0  0  0  0  0  0
  184.0800  179.4340  138.3100 C   0  0  0  0  0  3  0  0  0  0  0  0
  183.0640  179.8590  139.1690 C   0  0  0  0  0  3  0  0  0  0  0  0
  183.4700  177.1300  138.7290 C   0  0  0  0  0  3  0  0  0  0  0  0
  184.2810  178.0700  138.0860 C   0  0  0  0  0  0  0  0  0  0  0  0
  182.2380  178.9250  139.8190 C   0  0  0  0  0  0  0  0  0  0  0  0
  182.4540  177.5560  139.5890 C   0  0  0  0  0  3  0  0  0  0  0  0
  180.3140  180.4340  140.3800 C   0  0  0  0  0  3  0  0  0  0  0  0
  181.1660  179.3750  140.7370 C   0  0  0  0  0  0  0  0  0  0  0  0
  180.9830  178.7510  141.9830 C   0  0  0  0  0  3  0  0  0  0  0  0
  179.7590  178.3870  144.3970 Cl  0  0  0  0  0  0  0  0  0  0  0  0
  179.1350  180.2330  142.4830 C   0  0  0  0  0  3  0  0  0  0  0  0
  179.9730  179.1780  142.8510 C   0  0  0  0  0  0  0  0  0  0  0  0
  179.3050  180.8600  141.2480 C   0  0  0  0  0  3  0  0  0  0  0  0
  189.3370  177.6940  140.6390 C   0  0  0  0  0  2  0  0  0  0  0  0
  191.7370  177.7180  141.2500 C   0  0  0  0  0  2  0  0  0  0  0  0
  190.6270  176.8810  140.6430 C   0  0  1  0  0  3  0  0  0  0  0  0
  191.1910  176.5360  142.0310 C   0  0  2  0  0  3  0  0  0  0  0  0
  189.1520  176.0010  143.6010 C   0  0  0  0  0  2  0  0  0  0  0  0
  187.9390  176.7890  144.1100 C   0  0  1  0  0  3  0  0  0  0  0  0
  190.5950  177.1310  145.8490 C   0  0  0  0  0  0  0  0  0  0  0  0
  188.3210  177.9460  145.0350 C   0  0  0  0  0  2  0  0  0  0  0  0
  189.1720  177.4840  146.2110 C   0  0  0  0  0  2  0  0  0  0  0  0
  191.2060  177.3150  144.4730 C   0  0  1  0  0  3  0  0  0  0  0  0
  191.3880  176.7080  146.8290 C   0  0  0  0  0  2  0  0  0  0  0  0
  190.3350  176.9210  143.2630 C   0  0  1  0  0  3  0  0  0  0  0  0
  190.8480  179.6290  143.9180 O   0  0  0  0  0  1  0  0  0  0  0  0
  191.8190  178.7020  144.3040 C   0  0  0  0  0  2  0  0  0  0  0  0
  185.9100  178.0790  143.4460 C   0  0  0  0  0  1  0  0  0  0  0  0
  187.1320  177.3350  142.9430 C   0  0  0  0  0  2  0  0  0  0  0  0
  1  4  1  0  0  0  0
  2  3  1  0  0  0  0
  3  8  1  6  0  0  0
  3  6  1  0  0  0  0
  4 22  1  1  0  0  0
  6  4  1  0  0  0  0
  6  5  1  0  0  0  0
  7  2  1  6  0  0  0
  7  1  1  0  0  0  0
  7  4  1  0  0  0  0
  8 12  1  0  0  0  0
  9 10  1  0  0  0  0
 10 13  2  0  0  0  0
 11 14  2  0  0  0  0
 12  9  2  0  0  0  0
 12 11  1  0  0  0  0
 13 16  1  0  0  0  0
 14 13  1  0  0  0  0
 15 16  2  0  0  0  0
 15 21  1  0  0  0  0
 16 17  1  0  0  0  0
 17 20  2  0  0  0  0
 19 20  1  0  0  0  0
 20 18  1  0  0  0  0
 21 19  2  0  0  0  0
 24 22  1  1  0  0  0
 24 23  1  0  0  0  0
 24 25  1  0  0  0  0
 25 23  1  1  0  0  0
 25 33  1  0  0  0  0
 26 27  1  0  0  0  0
 27 37  1  6  0  0  0
 27 29  1  0  0  0  0
 28 30  1  0  0  0  0
 28 32  2  0  0  0  0
 29 30  1  0  0  0  0
 31 35  1  6  0  0  0
 31 28  1  0  0  0  0
 33 26  1  1  0  0  0
 33 31  1  0  0  0  0
 34 35  1  0  0  0  0
 37 36  1  0  0  0  0
M  END
>  <MODEL>
3

>  <REMARK>
 VINA RESULT:      -7.2      4.208      9.094
  Name = 
  8 active torsions:
  status: ('A' for Active; 'I' for Inactive)
    1  A    between atoms: S_4  and  C_16
    2  A    between atoms: S_4  and  C_28
    3  A    between atoms: C_5  and  C_23
    4  A    between atoms: C_6  and  C_31
    5  A    between atoms: C_20  and  C_32
    6  A    between atoms: C_21  and  C_32
    7  A    between atoms: C_27  and  C_33
    8  A    between atoms: C_29  and  C_36
                            x       y       z     vdW  Elec       q    Type
                         _______ _______ _______ _____ _____    ______ ____

>  <TORSDO>
F 8

$$$$
=
 OpenBabel11052415313D

 37 42  0  0  1  0  0  0  0  0999 V2000
  186.1930  177.4700  135.8920 C   0  0  0  0  0  2  0  0  0  0  0  0
  187.5350  176.2660  137.5990 C   0  0  0  0  0  2  0  0  0  0  0  0
  187.5180  177.4230  138.5880 C   0  0  2  0  0  3  0  0  0  0  0  0
  185.5980  177.6020  137.2750 C   0  0  2  0  0  0  0  0  0  0  0  0
  185.7330  178.6570  139.4380 C   0  0  0  0  0  1  0  0  0  0  0  0
  186.4530  178.3450  138.2100 N   0  0  0  0  0  0  0  0  0  0  0  0
  186.2140  176.2930  136.8650 C   0  0  1  0  0  3  0  0  0  0  0  0
  189.1180  178.2860  138.5590 S   0  0  0  0  0  0  0  0  0  0  0  0
  188.4920  178.2460  141.2520 C   0  0  0  0  0  3  0  0  0  0  0  0
  188.7530  177.9820  142.5980 C   0  0  0  0  0  3  0  0  0  0  0  0
  190.6690  177.3720  140.6590 C   0  0  0  0  0  3  0  0  0  0  0  0
  189.4480  177.9380  140.2810 C   0  0  0  0  0  0  0  0  0  0  0  0
  189.9750  177.4090  142.9920 C   0  0  0  0  0  0  0  0  0  0  0  0
  190.9300  177.1080  142.0070 C   0  0  0  0  0  3  0  0  0  0  0  0
  191.4970  176.6120  144.8200 C   0  0  0  0  0  3  0  0  0  0  0  0
  190.2550  177.1370  144.4210 C   0  0  0  0  0  0  0  0  0  0  0  0
  189.2840  177.3980  145.4030 C   0  0  0  0  0  3  0  0  0  0  0  0
  188.3280  177.4720  147.9600 Cl  0  0  0  0  0  0  0  0  0  0  0  0
  190.7860  176.6150  147.1330 C   0  0  0  0  0  3  0  0  0  0  0  0
  189.5490  177.1380  146.7510 C   0  0  0  0  0  0  0  0  0  0  0  0
  191.7600  176.3530  146.1680 C   0  0  0  0  0  3  0  0  0  0  0  0
  184.0760  177.7500  137.2700 C   0  0  0  0  0  2  0  0  0  0  0  0
  183.0510  176.2540  138.9570 C   0  0  0  0  0  2  0  0  0  0  0  0
  183.3960  176.4020  137.4880 C   0  0  1  0  0  3  0  0  0  0  0  0
  181.9320  176.4640  137.9520 C   0  0  2  0  0  3  0  0  0  0  0  0
  182.0280  178.9610  138.7650 C   0  0  0  0  0  2  0  0  0  0  0  0
  181.0840  179.8840  139.5480 C   0  0  1  0  0  3  0  0  0  0  0  0
  180.5630  179.7800  136.4000 C   0  0  0  0  0  0  0  0  0  0  0  0
  179.7930  180.2000  138.7930 C   0  0  0  0  0  2  0  0  0  0  0  0
  180.0630  180.7840  137.4120 C   0  0  0  0  0  2  0  0  0  0  0  0
  180.6900  178.2900  136.6520 C   0  0  1  0  0  3  0  0  0  0  0  0
  180.8310  180.2280  135.1760 C   0  0  0  0  0  2  0  0  0  0  0  0
  181.2630  177.8590  138.0170 C   0  0  1  0  0  3  0  0  0  0  0  0
  179.5220  176.8780  135.0930 O   0  0  0  0  0  1  0  0  0  0  0  0
  179.4020  177.5450  136.3150 C   0  0  0  0  0  2  0  0  0  0  0  0
  181.9720  178.6900  141.5510 C   0  0  0  0  0  1  0  0  0  0  0  0
  180.7330  179.2670  140.8920 C   0  0  0  0  0  2  0  0  0  0  0  0
  1  4  1  0  0  0  0
  2  3  1  0  0  0  0
  3  8  1  6  0  0  0
  4 22  1  1  0  0  0
  4  6  1  0  0  0  0
  6  3  1  0  0  0  0
  6  5  1  0  0  0  0
  7  1  1  6  0  0  0
  7  4  1  0  0  0  0
  7  2  1  0  0  0  0
  8 12  1  0  0  0  0
  9 10  1  0  0  0  0
 10 13  2  0  0  0  0
 11 14  2  0  0  0  0
 12 11  1  0  0  0  0
 12  9  2  0  0  0  0
 13 16  1  0  0  0  0
 14 13  1  0  0  0  0
 15 21  1  0  0  0  0
 16 15  2  0  0  0  0
 16 17  1  0  0  0  0
 17 20  2  0  0  0  0
 20 19  1  0  0  0  0
 20 18  1  0  0  0  0
 21 19  2  0  0  0  0
 24 22  1  1  0  0  0
 24 25  1  0  0  0  0
 24 23  1  0  0  0  0
 25 33  1  0  0  0  0
 25 23  1  1  0  0  0
 26 27  1  0  0  0  0
 27 37  1  1  0  0  0
 28 31  1  0  0  0  0
 28 30  1  0  0  0  0
 29 27  1  0  0  0  0
 30 29  1  0  0  0  0
 31 35  1  1  0  0  0
 31 33  1  0  0  0  0
 32 28  2  0  0  0  0
 33 26  1  6  0  0  0
 34 35  1  0  0  0  0
 37 36  1  0  0  0  0
M  END
>  <MODEL>
4

>  <REMARK>
 VINA RESULT:      -7.0      3.411      5.819
  Name = 
  8 active torsions:
  status: ('A' for Active; 'I' for Inactive)
    1  A    between atoms: S_4  and  C_16
    2  A    between atoms: S_4  and  C_28
    3  A    between atoms: C_5  and  C_23
    4  A    between atoms: C_6  and  C_31
    5  A    between atoms: C_20  and  C_32
    6  A    between atoms: C_21  and  C_32
    7  A    between atoms: C_27  and  C_33
    8  A    between atoms: C_29  and  C_36
                            x       y       z     vdW  Elec       q    Type
                         _______ _______ _______ _____ _____    ______ ____

>  <TORSDO>
F 8

$$$$
=
 OpenBabel11052415313D

 37 42  0  0  1  0  0  0  0  0999 V2000
  184.9230  179.7220  142.9910 C   0  0  0  0  0  2  0  0  0  0  0  0
  183.6470  178.2150  141.4870 C   0  0  0  0  0  2  0  0  0  0  0  0
  184.4450  178.5960  140.2480 C   0  0  2  0  0  3  0  0  0  0  0  0
  185.8340  178.9170  142.0940 C   0  0  2  0  0  0  0  0  0  0  0  0
  186.7470  178.6250  139.8830 C   0  0  0  0  0  1  0  0  0  0  0  0
  185.6850  179.2390  140.6690 N   0  0  0  0  0  0  0  0  0  0  0  0
  184.6000  178.2680  142.6590 C   0  0  1  0  0  3  0  0  0  0  0  0
  183.4790  179.7410  139.2170 S   0  0  0  0  0  0  0  0  0  0  0  0
  181.2080  178.4900  138.2550 C   0  0  0  0  0  3  0  0  0  0  0  0
  180.5160  177.4520  137.6260 C   0  0  0  0  0  3  0  0  0  0  0  0
  183.2890  177.3000  137.9280 C   0  0  0  0  0  3  0  0  0  0  0  0
  182.5950  178.4170  138.4030 C   0  0  0  0  0  0  0  0  0  0  0  0
  181.2020  176.3260  137.1390 C   0  0  0  0  0  0  0  0  0  0  0  0
  182.5970  176.2620  137.2980 C   0  0  0  0  0  3  0  0  0  0  0  0
  179.6260  175.4750  135.3830 C   0  0  0  0  0  3  0  0  0  0  0  0
  180.4680  175.2210  136.4800 C   0  0  0  0  0  0  0  0  0  0  0  0
  180.6000  173.8990  136.9390 C   0  0  0  0  0  3  0  0  0  0  0  0
  180.0850  171.2180  136.9040 Cl  0  0  0  0  0  0  0  0  0  0  0  0
  179.0700  173.1250  135.2320 C   0  0  0  0  0  3  0  0  0  0  0  0
  179.9050  172.8570  136.3190 C   0  0  0  0  0  0  0  0  0  0  0  0
  178.9310  174.4320  134.7640 C   0  0  0  0  0  3  0  0  0  0  0  0
  187.1950  178.6160  142.7240 C   0  0  0  0  0  2  0  0  0  0  0  0
  189.2150  177.2520  142.2860 C   0  0  0  0  0  2  0  0  0  0  0  0
  187.6990  177.2390  142.3040 C   0  0  1  0  0  3  0  0  0  0  0  0
  188.4940  176.4690  143.3690 C   0  0  2  0  0  3  0  0  0  0  0  0
  187.5270  176.6540  145.8070 C   0  0  0  0  0  2  0  0  0  0  0  0
  187.0900  177.8100  146.7150 C   0  0  1  0  0  3  0  0  0  0  0  0
  190.2040  177.1140  146.8260 C   0  0  0  0  0  0  0  0  0  0  0  0
  188.2480  178.7200  147.1270 C   0  0  0  0  0  2  0  0  0  0  0  0
  189.3820  177.9440  147.7840 C   0  0  0  0  0  2  0  0  0  0  0  0
  190.0290  177.1100  145.3190 C   0  0  1  0  0  3  0  0  0  0  0  0
  191.2030  176.4010  147.3380 C   0  0  0  0  0  2  0  0  0  0  0  0
  188.5840  177.0960  144.7830 C   0  0  1  0  0  3  0  0  0  0  0  0
  191.9770  177.6180  144.0010 O   0  0  0  0  0  1  0  0  0  0  0  0
  190.8760  178.1870  144.6470 C   0  0  0  0  0  2  0  0  0  0  0  0
  184.6420  178.2580  146.5270 C   0  0  0  0  0  1  0  0  0  0  0  0
  186.0220  178.6480  146.0310 C   0  0  0  0  0  2  0  0  0  0  0  0
  3  8  1  6  0  0  0
  3  6  1  0  0  0  0
  3  2  1  0  0  0  0
  4  7  1  0  0  0  0
  4 22  1  1  0  0  0
  4  1  1  0  0  0  0
  5  6  1  0  0  0  0
  6  4  1  0  0  0  0
  7  2  1  6  0  0  0
  7  1  1  0  0  0  0
  9 12  1  0  0  0  0
 10  9  2  0  0  0  0
 11 12  2  0  0  0  0
 12  8  1  0  0  0  0
 13 14  2  0  0  0  0
 13 10  1  0  0  0  0
 14 11  1  0  0  0  0
 15 16  1  0  0  0  0
 16 17  2  0  0  0  0
 16 13  1  0  0  0  0
 19 20  2  0  0  0  0
 20 18  1  0  0  0  0
 20 17  1  0  0  0  0
 21 19  1  0  0  0  0
 21 15  2  0  0  0  0
 23 24  1  0  0  0  0
 24 22  1  1  0  0  0
 24 25  1  0  0  0  0
 25 23  1  6  0  0  0
 25 33  1  0  0  0  0
 26 27  1  0  0  0  0
 27 37  1  6  0  0  0
 27 29  1  0  0  0  0
 28 32  2  0  0  0  0
 28 30  1  0  0  0  0
 29 30  1  0  0  0  0
 31 35  1  6  0  0  0
 31 28  1  0  0  0  0
 33 31  1  0  0  0  0
 33 26  1  1  0  0  0
 34 35  1  0  0  0  0
 37 36  1  0  0  0  0
M  END
>  <MODEL>
5

>  <REMARK>
 VINA RESULT:      -7.0      3.707     10.283
  Name = 
  8 active torsions:
  status: ('A' for Active; 'I' for Inactive)
    1  A    between atoms: S_4  and  C_16
    2  A    between atoms: S_4  and  C_28
    3  A    between atoms: C_5  and  C_23
    4  A    between atoms: C_6  and  C_31
    5  A    between atoms: C_20  and  C_32
    6  A    between atoms: C_21  and  C_32
    7  A    between atoms: C_27  and  C_33
    8  A    between atoms: C_29  and  C_36
                            x       y       z     vdW  Elec       q    Type
                         _______ _______ _______ _____ _____    ______ ____

>  <TORSDO>
F 8

$$$$
=
 OpenBabel11052415313D

 37 42  0  0  1  0  0  0  0  0999 V2000
  186.3450  177.4650  135.9160 C   0  0  0  0  0  2  0  0  0  0  0  0
  187.7020  176.3150  137.6470 C   0  0  0  0  0  2  0  0  0  0  0  0
  187.6020  177.4600  138.6440 C   0  0  2  0  0  3  0  0  0  0  0  0
  185.7090  177.5550  137.2840 C   0  0  2  0  0  0  0  0  0  0  0  0
  185.7360  178.5950  139.4580 C   0  0  0  0  0  1  0  0  0  0  0  0
  186.5010  178.3310  138.2460 N   0  0  0  0  0  0  0  0  0  0  0  0
  186.4010  176.2820  136.8800 C   0  0  1  0  0  3  0  0  0  0  0  0
  189.1560  178.4030  138.6630 S   0  0  0  0  0  0  0  0  0  0  0  0
  188.5510  178.3610  141.3600 C   0  0  0  0  0  3  0  0  0  0  0  0
  188.8090  178.0680  142.7020 C   0  0  0  0  0  3  0  0  0  0  0  0
  190.6790  177.3910  140.7390 C   0  0  0  0  0  3  0  0  0  0  0  0
  189.4830  178.0190  140.3780 C   0  0  0  0  0  0  0  0  0  0  0  0
  190.0050  177.4320  143.0780 C   0  0  0  0  0  0  0  0  0  0  0  0
  190.9370  177.0990  142.0810 C   0  0  0  0  0  3  0  0  0  0  0  0
  191.5460  176.6570  144.9000 C   0  0  0  0  0  3  0  0  0  0  0  0
  190.2840  177.1300  144.5020 C   0  0  0  0  0  0  0  0  0  0  0  0
  189.2900  177.3100  145.4790 C   0  0  0  0  0  3  0  0  0  0  0  0
  188.3040  177.2550  148.0250 Cl  0  0  0  0  0  0  0  0  0  0  0  0
  190.8110  176.5510  147.2020 C   0  0  0  0  0  3  0  0  0  0  0  0
  189.5520  177.0220  146.8220 C   0  0  0  0  0  0  0  0  0  0  0  0
  191.8070  176.3690  146.2420 C   0  0  0  0  0  3  0  0  0  0  0  0
  184.1820  177.6260  137.2410 C   0  0  0  0  0  2  0  0  0  0  0  0
  182.9500  175.6480  136.4020 C   0  0  0  0  0  2  0  0  0  0  0  0
  183.6380  176.9360  135.9940 C   0  0  1  0  0  3  0  0  0  0  0  0
  182.1080  176.8140  135.9160 C   0  0  2  0  0  3  0  0  0  0  0  0
  181.4720  177.0060  138.4590 C   0  0  0  0  0  2  0  0  0  0  0  0
  180.1580  177.0140  139.2510 C   0  0  1  0  0  3  0  0  0  0  0  0
  181.0780  179.8620  138.1380 C   0  0  0  0  0  0  0  0  0  0  0  0
  179.2920  178.2410  138.9620 C   0  0  0  0  0  2  0  0  0  0  0  0
  180.0460  179.5440  139.1940 C   0  0  0  0  0  2  0  0  0  0  0  0
  181.3000  179.0490  136.8770 C   0  0  1  0  0  3  0  0  0  0  0  0
  181.7810  180.9800  138.2880 C   0  0  0  0  0  2  0  0  0  0  0  0
  181.2800  177.5140  137.0220 C   0  0  1  0  0  3  0  0  0  0  0  0
  181.1870  179.9850  134.6630 O   0  0  0  0  0  1  0  0  0  0  0  0
  180.4120  179.5230  135.7300 C   0  0  0  0  0  2  0  0  0  0  0  0
  180.2710  174.5600  138.8140 C   0  0  0  0  0  1  0  0  0  0  0  0
  179.3520  175.7590  138.9550 C   0  0  0  0  0  2  0  0  0  0  0  0
  1  4  1  0  0  0  0
  2  3  1  0  0  0  0
  3  8  1  6  0  0  0
  4 22  1  1  0  0  0
  4  6  1  0  0  0  0
  6  3  1  0  0  0  0
  6  5  1  0  0  0  0
  7  1  1  6  0  0  0
  7  4  1  0  0  0  0
  7  2  1  0  0  0  0
  8 12  1  0  0  0  0
  9 10  1  0  0  0  0
 10 13  2  0  0  0  0
 11 14  2  0  0  0  0
 12 11  1  0  0  0  0
 12  9  2  0  0  0  0
 13 16  1  0  0  0  0
 14 13  1  0  0  0  0
 15 21  1  0  0  0  0
 16 15  2  0  0  0  0
 16 17  1  0  0  0  0
 17 20  2  0  0  0  0
 20 19  1  0  0  0  0
 20 18  1  0  0  0  0
 21 19  2  0  0  0  0
 24 23  1  0  0  0  0
 24 22  1  1  0  0  0
 25 24  1  0  0  0  0
 25 23  1  1  0  0  0
 25 33  1  0  0  0  0
 26 27  1  0  0  0  0
 27 37  1  6  0  0  0
 28 32  2  0  0  0  0
 28 30  1  0  0  0  0
 29 30  1  0  0  0  0
 29 27  1  0  0  0  0
 31 35  1  6  0  0  0
 31 33  1  0  0  0  0
 31 28  1  0  0  0  0
 33 26  1  1  0  0  0
 34 35  1  0  0  0  0
 36 37  1  0  0  0  0
M  END
>  <MODEL>
6

>  <REMARK>
 VINA RESULT:      -7.0      3.347      5.463
  Name = 
  8 active torsions:
  status: ('A' for Active; 'I' for Inactive)
    1  A    between atoms: S_4  and  C_16
    2  A    between atoms: S_4  and  C_28
    3  A    between atoms: C_5  and  C_23
    4  A    between atoms: C_6  and  C_31
    5  A    between atoms: C_20  and  C_32
    6  A    between atoms: C_21  and  C_32
    7  A    between atoms: C_27  and  C_33
    8  A    between atoms: C_29  and  C_36
                            x       y       z     vdW  Elec       q    Type
                         _______ _______ _______ _____ _____    ______ ____

>  <TORSDO>
F 8

$$$$
=
 OpenBabel11052415313D

 37 42  0  0  1  0  0  0  0  0999 V2000
  180.7550  178.4460  137.3290 C   0  0  0  0  0  2  0  0  0  0  0  0
  182.1770  179.8870  138.7650 C   0  0  0  0  0  2  0  0  0  0  0  0
  182.3240  178.8400  139.8600 C   0  0  2  0  0  3  0  0  0  0  0  0
  181.9600  177.7030  137.8560 C   0  0  2  0  0  0  0  0  0  0  0  0
  182.9950  176.6110  139.7400 C   0  0  0  0  0  1  0  0  0  0  0  0
  181.9540  177.5380  139.3150 N   0  0  0  0  0  0  0  0  0  0  0  0
  182.1070  179.1440  137.4510 C   0  0  1  0  0  3  0  0  0  0  0  0
  181.2380  179.2520  141.2590 S   0  0  0  0  0  0  0  0  0  0  0  0
  182.2110  178.8560  143.8170 C   0  0  0  0  0  3  0  0  0  0  0  0
  183.2220  178.6670  144.7610 C   0  0  0  0  0  3  0  0  0  0  0  0
  183.8700  178.9620  142.0590 C   0  0  0  0  0  3  0  0  0  0  0  0
  182.5330  179.0000  142.4660 C   0  0  0  0  0  0  0  0  0  0  0  0
  184.5710  178.6220  144.3660 C   0  0  0  0  0  0  0  0  0  0  0  0
  184.8820  178.7730  143.0040 C   0  0  0  0  0  3  0  0  0  0  0  0
  185.4200  178.7230  146.7250 C   0  0  0  0  0  3  0  0  0  0  0  0
  185.6450  178.4300  145.3680 C   0  0  0  0  0  0  0  0  0  0  0  0
  186.9090  177.9530  144.9800 C   0  0  0  0  0  3  0  0  0  0  0  0
  189.4890  177.1770  145.4230 Cl  0  0  0  0  0  0  0  0  0  0  0  0
  187.6860  178.0720  147.2690 C   0  0  0  0  0  3  0  0  0  0  0  0
  187.9230  177.7750  145.9250 C   0  0  0  0  0  0  0  0  0  0  0  0
  186.4350  178.5450  147.6690 C   0  0  0  0  0  3  0  0  0  0  0  0
  182.4570  176.6040  136.9150 C   0  0  0  0  0  2  0  0  0  0  0  0
  182.4770  175.7280  134.5990 C   0  0  0  0  0  2  0  0  0  0  0  0
  181.9420  176.8260  135.4970 C   0  0  1  0  0  3  0  0  0  0  0  0
  181.0010  175.7390  134.9540 C   0  0  2  0  0  3  0  0  0  0  0  0
  179.1060  174.6450  136.4110 C   0  0  0  0  0  2  0  0  0  0  0  0
  178.9770  174.2180  137.8790 C   0  0  1  0  0  3  0  0  0  0  0  0
  180.2710  172.0290  135.9480 C   0  0  0  0  0  0  0  0  0  0  0  0
  179.9040  173.0600  138.2500 C   0  0  0  0  0  2  0  0  0  0  0  0
  179.7100  171.8540  137.3390 C   0  0  0  0  0  2  0  0  0  0  0  0
  181.0700  173.2330  135.4850 C   0  0  1  0  0  3  0  0  0  0  0  0
  180.1240  171.0170  135.0980 C   0  0  0  0  0  2  0  0  0  0  0  0
  180.5660  174.6200  135.9320 C   0  0  1  0  0  3  0  0  0  0  0  0
  182.8450  173.1800  137.1090 O   0  0  0  0  0  1  0  0  0  0  0  0
  182.5630  173.0590  135.7460 C   0  0  0  0  0  2  0  0  0  0  0  0
  179.8680  174.9110  140.1040 C   0  0  0  0  0  1  0  0  0  0  0  0
  179.2600  175.3940  138.8000 C   0  0  0  0  0  2  0  0  0  0  0  0
  1  4  1  0  0  0  0
  2  3  1  0  0  0  0
  3  8  1  1  0  0  0
  4 22  1  6  0  0  0
  4  6  1  0  0  0  0
  6  5  1  0  0  0  0
  6  3  1  0  0  0  0
  7  1  1  6  0  0  0
  7  4  1  0  0  0  0
  7  2  1  0  0  0  0
  8 12  1  0  0  0  0
  9 10  1  0  0  0  0
 11 12  1  0  0  0  0
 11 14  2  0  0  0  0
 12  9  2  0  0  0  0
 13 10  2  0  0  0  0
 13 16  1  0  0  0  0
 14 13  1  0  0  0  0
 15 21  1  0  0  0  0
 16 15  2  0  0  0  0
 17 16  1  0  0  0  0
 17 20  2  0  0  0  0
 18 20  1  0  0  0  0
 19 21  2  0  0  0  0
 20 19  1  0  0  0  0
 23 24  1  0  0  0  0
 24 22  1  1  0  0  0
 25 23  1  6  0  0  0
 25 24  1  0  0  0  0
 25 33  1  0  0  0  0
 26 27  1  0  0  0  0
 27 29  1  0  0  0  0
 27 37  1  1  0  0  0
 28 30  1  0  0  0  0
 30 29  1  0  0  0  0
 31 35  1  1  0  0  0
 31 33  1  0  0  0  0
 31 28  1  0  0  0  0
 32 28  2  0  0  0  0
 33 26  1  6  0  0  0
 35 34  1  0  0  0  0
 37 36  1  0  0  0  0
M  END
>  <MODEL>
7

>  <REMARK>
 VINA RESULT:      -7.0      1.503      2.462
  Name = 
  8 active torsions:
  status: ('A' for Active; 'I' for Inactive)
    1  A    between atoms: S_4  and  C_16
    2  A    between atoms: S_4  and  C_28
    3  A    between atoms: C_5  and  C_23
    4  A    between atoms: C_6  and  C_31
    5  A    between atoms: C_20  and  C_32
    6  A    between atoms: C_21  and  C_32
    7  A    between atoms: C_27  and  C_33
    8  A    between atoms: C_29  and  C_36
                            x       y       z     vdW  Elec       q    Type
                         _______ _______ _______ _____ _____    ______ ____

>  <TORSDO>
F 8

$$$$
=
 OpenBabel11052415313D

 37 42  0  0  1  0  0  0  0  0999 V2000
  186.8370  177.0690  135.7510 C   0  0  0  0  0  2  0  0  0  0  0  0
  188.1600  176.0520  137.5880 C   0  0  0  0  0  2  0  0  0  0  0  0
  187.9420  177.2200  138.5390 C   0  0  2  0  0  3  0  0  0  0  0  0
  186.1240  177.1650  137.0800 C   0  0  2  0  0  0  0  0  0  0  0  0
  185.9750  178.2710  139.2160 C   0  0  0  0  0  1  0  0  0  0  0  0
  186.8180  178.0140  138.0560 N   0  0  0  0  0  0  0  0  0  0  0  0
  186.9060  175.9220  136.7550 C   0  0  1  0  0  3  0  0  0  0  0  0
  189.4390  178.2510  138.6080 S   0  0  0  0  0  0  0  0  0  0  0  0
  190.8700  177.3670  140.8020 C   0  0  0  0  0  3  0  0  0  0  0  0
  191.0590  177.1270  142.1650 C   0  0  0  0  0  3  0  0  0  0  0  0
  188.6820  178.2880  141.2680 C   0  0  0  0  0  3  0  0  0  0  0  0
  189.6840  177.9520  140.3530 C   0  0  0  0  0  0  0  0  0  0  0  0
  190.0620  177.4640  143.0970 C   0  0  0  0  0  0  0  0  0  0  0  0
  188.8710  178.0470  142.6320 C   0  0  0  0  0  3  0  0  0  0  0  0
  191.4860  176.7120  145.0210 C   0  0  0  0  0  3  0  0  0  0  0  0
  190.2580  177.2010  144.5420 C   0  0  0  0  0  0  0  0  0  0  0  0
  189.2190  177.4350  145.4590 C   0  0  0  0  0  3  0  0  0  0  0  0
  188.1000  177.4830  147.9490 Cl  0  0  0  0  0  0  0  0  0  0  0  0
  190.6280  176.6950  147.2830 C   0  0  0  0  0  3  0  0  0  0  0  0
  189.4040  177.1830  146.8220 C   0  0  0  0  0  0  0  0  0  0  0  0
  191.6690  176.4600  146.3830 C   0  0  0  0  0  3  0  0  0  0  0  0
  184.5990  177.1460  136.9540 C   0  0  0  0  0  2  0  0  0  0  0  0
  183.8110  175.5400  135.2430 C   0  0  0  0  0  2  0  0  0  0  0  0
  184.1730  176.9900  135.4990 C   0  0  1  0  0  3  0  0  0  0  0  0
  182.7080  176.5830  135.2760 C   0  0  2  0  0  3  0  0  0  0  0  0
  180.8190  177.6790  136.7390 C   0  0  0  0  0  2  0  0  0  0  0  0
  180.6630  178.0270  138.2250 C   0  0  1  0  0  3  0  0  0  0  0  0
  179.8460  175.0400  137.4470 C   0  0  0  0  0  0  0  0  0  0  0  0
  180.6180  176.7930  139.1280 C   0  0  0  0  0  2  0  0  0  0  0  0
  179.5320  175.8120  138.7070 C   0  0  0  0  0  2  0  0  0  0  0  0
  181.1620  175.1120  136.6960 C   0  0  1  0  0  3  0  0  0  0  0  0
  178.9320  174.1740  137.0180 C   0  0  0  0  0  2  0  0  0  0  0  0
  181.7910  176.5090  136.5220 C   0  0  1  0  0  3  0  0  0  0  0  0
  182.0120  172.8650  136.5740 O   0  0  0  0  0  1  0  0  0  0  0  0
  182.1710  174.0940  137.2180 C   0  0  0  0  0  2  0  0  0  0  0  0
  182.2770  178.5270  140.0600 C   0  0  0  0  0  1  0  0  0  0  0  0
  181.7950  178.9330  138.6800 C   0  0  0  0  0  2  0  0  0  0  0  0
  1  4  1  0  0  0  0
  2  3  1  0  0  0  0
  3  8  1  6  0  0  0
  4 22  1  1  0  0  0
  4  6  1  0  0  0  0
  6  3  1  0  0  0  0
  6  5  1  0  0  0  0
  7  1  1  6  0  0  0
  7  4  1  0  0  0  0
  7  2  1  0  0  0  0
  8 12  1  0  0  0  0
  9 10  1  0  0  0  0
 10 13  2  0  0  0  0
 11 14  2  0  0  0  0
 12  9  2  0  0  0  0
 12 11  1  0  0  0  0
 13 16  1  0  0  0  0
 14 13  1  0  0  0  0
 15 21  1  0  0  0  0
 16 15  2  0  0  0  0
 16 17  1  0  0  0  0
 17 20  2  0  0  0  0
 20 19  1  0  0  0  0
 20 18  1  0  0  0  0
 21 19  2  0  0  0  0
 23 24  1  0  0  0  0
 24 22  1  1  0  0  0
 25 23  1  1  0  0  0
 25 24  1  0  0  0  0
 25 33  1  0  0  0  0
 26 27  1  0  0  0  0
 27 37  1  1  0  0  0
 27 29  1  0  0  0  0
 28 30  1  0  0  0  0
 30 29  1  0  0  0  0
 31 35  1  1  0  0  0
 31 28  1  0  0  0  0
 32 28  2  0  0  0  0
 33 31  1  0  0  0  0
 33 26  1  6  0  0  0
 34 35  1  0  0  0  0
 37 36  1  0  0  0  0
M  END
>  <MODEL>
8

>  <REMARK>
 VINA RESULT:      -6.9      2.853      4.897
  Name = 
  8 active torsions:
  status: ('A' for Active; 'I' for Inactive)
    1  A    between atoms: S_4  and  C_16
    2  A    between atoms: S_4  and  C_28
    3  A    between atoms: C_5  and  C_23
    4  A    between atoms: C_6  and  C_31
    5  A    between atoms: C_20  and  C_32
    6  A    between atoms: C_21  and  C_32
    7  A    between atoms: C_27  and  C_33
    8  A    between atoms: C_29  and  C_36
                            x       y       z     vdW  Elec       q    Type
                         _______ _______ _______ _____ _____    ______ ____

>  <TORSDO>
F 8

$$$$
=
 OpenBabel11052415313D

 37 42  0  0  1  0  0  0  0  0999 V2000
  193.5160  176.6550  136.7150 C   0  0  0  0  0  2  0  0  0  0  0  0
  192.3840  176.7560  138.9220 C   0  0  0  0  0  2  0  0  0  0  0  0
  191.0930  176.1320  138.4120 C   0  0  2  0  0  3  0  0  0  0  0  0
  192.8230  175.3550  137.0540 C   0  0  2  0  0  0  0  0  0  0  0  0
  190.7340  174.1640  137.2170 C   0  0  0  0  0  1  0  0  0  0  0  0
  191.3620  175.4760  137.1370 N   0  0  0  0  0  0  0  0  0  0  0  0
  193.5160  176.1230  138.1460 C   0  0  1  0  0  3  0  0  0  0  0  0
  189.8310  177.4220  138.1840 S   0  0  0  0  0  0  0  0  0  0  0  0
  188.2660  178.1420  140.3480 C   0  0  0  0  0  3  0  0  0  0  0  0
  187.9270  178.1600  141.7030 C   0  0  0  0  0  3  0  0  0  0  0  0
  190.1820  176.7510  140.8450 C   0  0  0  0  0  3  0  0  0  0  0  0
  189.3910  177.4350  139.9180 C   0  0  0  0  0  0  0  0  0  0  0  0
  188.7110  177.4720  142.6460 C   0  0  0  0  0  0  0  0  0  0  0  0
  189.8430  176.7690  142.2010 C   0  0  0  0  0  3  0  0  0  0  0  0
  187.0260  177.6980  144.4910 C   0  0  0  0  0  3  0  0  0  0  0  0
  188.3570  177.4980  144.0840 C   0  0  0  0  0  0  0  0  0  0  0  0
  189.3450  177.3230  145.0680 C   0  0  0  0  0  3  0  0  0  0  0  0
  190.2550  177.1270  147.6350 Cl  0  0  0  0  0  0  0  0  0  0  0  0
  187.6850  177.5510  146.8140 C   0  0  0  0  0  3  0  0  0  0  0  0
  189.0110  177.3490  146.4250 C   0  0  0  0  0  0  0  0  0  0  0  0
  186.6930  177.7250  145.8480 C   0  0  0  0  0  3  0  0  0  0  0  0
  193.5060  174.1270  136.4510 C   0  0  0  0  0  2  0  0  0  0  0  0
  195.7740  174.8820  135.8050 C   0  0  0  0  0  2  0  0  0  0  0  0
  194.3990  174.5190  135.2790 C   0  0  1  0  0  3  0  0  0  0  0  0
  195.5990  173.5950  135.0190 C   0  0  2  0  0  3  0  0  0  0  0  0
  195.4200  170.9760  135.1520 C   0  0  0  0  0  2  0  0  0  0  0  0
  194.6730  169.9840  136.0530 C   0  0  1  0  0  3  0  0  0  0  0  0
  197.5090  170.9420  137.1640 C   0  0  0  0  0  0  0  0  0  0  0  0
  195.1630  170.0030  137.5010 C   0  0  0  0  0  2  0  0  0  0  0  0
  196.6650  169.7690  137.6030 C   0  0  0  0  0  2  0  0  0  0  0  0
  196.9590  172.2970  136.7620 C   0  0  1  0  0  3  0  0  0  0  0  0
  198.8300  170.7970  137.2170 C   0  0  0  0  0  2  0  0  0  0  0  0
  195.7020  172.3040  135.8700 C   0  0  1  0  0  3  0  0  0  0  0  0
  195.6920  172.8870  138.7190 O   0  0  0  0  0  1  0  0  0  0  0  0
  196.8130  173.2300  137.9600 C   0  0  0  0  0  2  0  0  0  0  0  0
  192.7200  170.5830  134.6200 C   0  0  0  0  0  1  0  0  0  0  0  0
  193.1800  170.2680  136.0310 C   0  0  0  0  0  2  0  0  0  0  0  0
  1  4  1  0  0  0  0
  3  8  1  6  0  0  0
  3  2  1  0  0  0  0
  4 22  1  6  0  0  0
  4  6  1  0  0  0  0
  4  7  1  0  0  0  0
  6  5  1  0  0  0  0
  6  3  1  0  0  0  0
  7  1  1  6  0  0  0
  7  2  1  0  0  0  0
  8 12  1  0  0  0  0
  9 10  1  0  0  0  0
 10 13  2  0  0  0  0
 11 14  2  0  0  0  0
 12  9  2  0  0  0  0
 12 11  1  0  0  0  0
 13 16  1  0  0  0  0
 14 13  1  0  0  0  0
 15 21  1  0  0  0  0
 16 15  2  0  0  0  0
 16 17  1  0  0  0  0
 17 20  2  0  0  0  0
 20 19  1  0  0  0  0
 20 18  1  0  0  0  0
 21 19  2  0  0  0  0
 24 23  1  0  0  0  0
 24 22  1  1  0  0  0
 25 24  1  0  0  0  0
 25 23  1  1  0  0  0
 25 33  1  0  0  0  0
 26 27  1  0  0  0  0
 27 37  1  1  0  0  0
 27 29  1  0  0  0  0
 28 32  2  0  0  0  0
 28 30  1  0  0  0  0
 29 30  1  0  0  0  0
 31 28  1  0  0  0  0
 31 35  1  1  0  0  0
 33 26  1  6  0  0  0
 33 31  1  0  0  0  0
 35 34  1  0  0  0  0
 36 37  1  0  0  0  0
M  END
>  <MODEL>
9

>  <REMARK>
 VINA RESULT:      -6.6      8.108     10.158
  Name = 
  8 active torsions:
  status: ('A' for Active; 'I' for Inactive)
    1  A    between atoms: S_4  and  C_16
    2  A    between atoms: S_4  and  C_28
    3  A    between atoms: C_5  and  C_23
    4  A    between atoms: C_6  and  C_31
    5  A    between atoms: C_20  and  C_32
    6  A    between atoms: C_21  and  C_32
    7  A    between atoms: C_27  and  C_33
    8  A    between atoms: C_29  and  C_36
                            x       y       z     vdW  Elec       q    Type
                         _______ _______ _______ _____ _____    ______ ____

>  <TORSDO>
F 8

$$$$
