=
 OpenBabel11052414023D

 34 38  0  0  1  0  0  0  0  0999 V2000
  190.3880  176.2130  137.5950 C   0  0  0  0  0  0  0  0  0  0  0  0
  192.7440  176.6070  138.4520 C   0  0  0  0  0  0  0  0  0  0  0  0
  190.7470  177.2770  139.7600 C   0  0  0  0  0  0  0  0  0  0  0  0
  191.9560  178.3640  143.2850 C   0  0  0  0  0  1  0  0  0  0  0  0
  193.2800  176.2060  137.3850 O   0  0  0  0  0  0  0  0  0  0  0  0
  193.1160  177.4640  140.6570 C   0  0  0  0  0  3  0  0  0  0  0  0
  191.2700  176.7070  138.5810 C   0  0  0  0  0  0  0  0  0  0  0  0
  191.0820  177.6810  142.2330 C   0  0  1  0  0  0  0  0  0  0  0  0
  189.3550  177.3760  139.9560 C   0  0  0  0  0  0  0  0  0  0  0  0
  189.0060  176.2950  137.8090 C   0  0  0  0  0  3  0  0  0  0  0  0
  193.5780  176.9340  139.5670 N   0  0  0  0  0  0  0  0  0  0  0  0
  189.7500  178.4280  142.2310 C   0  0  0  0  0  2  0  0  0  0  0  0
  188.8340  177.9360  141.1920 N   0  0  0  0  0  0  0  0  0  0  0  0
  191.6660  177.8540  140.8100 C   0  0  2  0  0  3  0  0  0  0  0  0
  188.4980  176.8610  138.9750 C   0  0  0  0  0  3  0  0  0  0  0  0
  185.2460  179.0720  140.7940 C   0  0  0  0  0  0  0  0  0  0  0  0
  184.5840  178.5360  142.0270 C   0  0  0  0  0  2  0  0  0  0  0  0
  187.4270  178.1420  141.4300 C   0  0  0  0  0  0  0  0  0  0  0  0
  185.6060  178.3940  143.1510 C   0  0  0  0  0  2  0  0  0  0  0  0
  186.6770  178.8300  140.5540 C   0  0  0  0  0  3  0  0  0  0  0  0
  186.8000  177.5640  142.6770 C   0  0  0  0  0  2  0  0  0  0  0  0
  184.5670  179.7010  139.9420 O   0  0  0  0  0  0  0  0  0  0  0  0
  190.3980  175.9620  135.1280 C   0  0  0  0  0  1  0  0  0  0  0  0
  190.8910  175.6370  136.4210 O   0  0  0  0  0  0  0  0  0  0  0  0
  190.8050  176.3280  142.5660 O   0  0  0  0  0  0  0  0  0  0  0  0
  189.9150  176.2560  143.6520 C   0  0  0  0  0  2  0  0  0  0  0  0
  190.6880  176.4160  144.9450 C   0  0  0  0  0  2  0  0  0  0  0  0
  191.5750  176.9990  147.6340 O   0  0  0  0  0  1  0  0  0  0  0  0
  189.9210  177.3080  145.9060 C   0  0  2  0  0  3  0  0  0  0  0  0
  190.2080  176.9300  147.3650 C   0  0  2  0  0  3  0  0  0  0  0  0
  188.0300  178.0850  147.9080 C   0  0  0  0  0  3  0  0  0  0  0  0
  187.5680  177.7910  146.6840 C   0  0  0  0  0  3  0  0  0  0  0  0
  188.4270  177.1390  145.6320 C   0  0  0  0  0  2  0  0  0  0  0  0
  189.4730  177.8910  148.2980 C   0  0  0  0  0  2  0  0  0  0  0  0
  1 10  2  0  0  0  0
  1  7  1  0  0  0  0
  2  7  1  0  0  0  0
  2 11  1  0  0  0  0
  3  9  1  0  0  0  0
  3 14  1  0  0  0  0
  5  2  2  0  0  0  0
  7  3  2  0  0  0  0
  8 25  1  0  0  0  0
  8  4  1  1  0  0  0
  9 13  1  0  0  0  0
 10 15  1  0  0  0  0
 11  6  2  0  0  0  0
 12  8  1  0  0  0  0
 13 18  1  0  0  0  0
 13 12  1  0  0  0  0
 14  6  1  1  0  0  0
 14  8  1  0  0  0  0
 15  9  2  0  0  0  0
 16 17  1  0  0  0  0
 17 19  1  0  0  0  0
 18 21  1  0  0  0  0
 20 16  1  0  0  0  0
 20 18  2  0  0  0  0
 21 19  1  0  0  0  0
 22 16  2  0  0  0  0
 23 24  1  0  0  0  0
 24  1  1  0  0  0  0
 25 26  1  0  0  0  0
 26 27  1  0  0  0  0
 29 27  1  6  0  0  0
 29 30  1  0  0  0  0
 30 28  1  1  0  0  0
 30 34  1  0  0  0  0
 31 34  1  0  0  0  0
 32 31  2  0  0  0  0
 33 29  1  0  0  0  0
 33 32  1  0  0  0  0
M  END
>  <MODEL>
1

>  <REMARK>
 VINA RESULT:      -9.1      0.000      0.000
  Name = 
  6 active torsions:
  status: ('A' for Active; 'I' for Inactive)
    1  A    between atoms: C_1  and  O_19
    2  A    between atoms: C_3  and  C_13
    3  A    between atoms: C_3  and  C_17
    4  A    between atoms: C_12  and  N_28
    5  A    between atoms: C_17  and  O_29
    6  A    between atoms: C_18  and  O_29
                            x       y       z     vdW  Elec       q    Type
                         _______ _______ _______ _____ _____    ______ ____

>  <TORSDO>
F 6

$$$$
=
 OpenBabel11052414023D

 34 38  0  0  1  0  0  0  0  0999 V2000
  189.6330  176.1920  137.0900 C   0  0  0  0  0  0  0  0  0  0  0  0
  191.7690  176.5040  138.4240 C   0  0  0  0  0  0  0  0  0  0  0  0
  189.5870  177.3630  139.2300 C   0  0  0  0  0  0  0  0  0  0  0  0
  190.0760  178.5890  142.8800 C   0  0  0  0  0  1  0  0  0  0  0  0
  192.4950  176.0110  137.5200 O   0  0  0  0  0  0  0  0  0  0  0  0
  191.7130  177.4700  140.6150 C   0  0  0  0  0  3  0  0  0  0  0  0
  190.3130  176.6940  138.2220 C   0  0  0  0  0  0  0  0  0  0  0  0
  189.4060  177.8940  141.6940 C   0  0  1  0  0  0  0  0  0  0  0  0
  188.1950  177.5510  139.1100 C   0  0  0  0  0  0  0  0  0  0  0  0
  188.2460  176.3640  136.9910 C   0  0  0  0  0  3  0  0  0  0  0  0
  192.3630  176.8500  139.6780 N   0  0  0  0  0  0  0  0  0  0  0  0
  188.1600  178.7130  141.3650 C   0  0  0  0  0  2  0  0  0  0  0  0
  187.4590  178.2130  140.1740 N   0  0  0  0  0  0  0  0  0  0  0  0
  190.2940  177.9490  140.4280 C   0  0  2  0  0  3  0  0  0  0  0  0
  187.5370  177.0270  137.9900 C   0  0  0  0  0  3  0  0  0  0  0  0
  183.8360  178.7800  141.1130 C   0  0  0  0  0  0  0  0  0  0  0  0
  183.1930  179.0940  139.7960 C   0  0  0  0  0  2  0  0  0  0  0  0
  186.0510  178.5110  140.0880 C   0  0  0  0  0  0  0  0  0  0  0  0
  183.9780  178.4450  138.6600 C   0  0  0  0  0  2  0  0  0  0  0  0
  185.2800  178.5050  141.1860 C   0  0  0  0  0  3  0  0  0  0  0  0
  185.4520  178.8440  138.7410 C   0  0  0  0  0  2  0  0  0  0  0  0
  183.1470  178.7890  142.1640 O   0  0  0  0  0  0  0  0  0  0  0  0
  190.4630  176.0220  134.7590 C   0  0  0  0  0  1  0  0  0  0  0  0
  190.3370  175.5200  136.0830 O   0  0  0  0  0  0  0  0  0  0  0  0
  188.9720  176.5820  142.0210 O   0  0  0  0  0  0  0  0  0  0  0  0
  188.7680  176.4550  143.4050 C   0  0  0  0  0  2  0  0  0  0  0  0
  187.3080  176.7070  143.7220 C   0  0  0  0  0  2  0  0  0  0  0  0
  185.1120  178.2500  144.7950 O   0  0  0  0  0  1  0  0  0  0  0  0
  187.1370  177.0060  145.2020 C   0  0  2  0  0  3  0  0  0  0  0  0
  186.3580  178.3100  145.4200 C   0  0  2  0  0  3  0  0  0  0  0  0
  187.4150  178.3530  147.7110 C   0  0  0  0  0  3  0  0  0  0  0  0
  188.4730  177.6780  147.2360 C   0  0  0  0  0  3  0  0  0  0  0  0
  188.5240  177.1440  145.8280 C   0  0  0  0  0  2  0  0  0  0  0  0
  186.1490  178.5380  146.9150 C   0  0  0  0  0  2  0  0  0  0  0  0
  1  7  1  0  0  0  0
  2 11  1  0  0  0  0
  3 14  1  0  0  0  0
  5  2  2  0  0  0  0
  7  2  1  0  0  0  0
  7  3  2  0  0  0  0
  8 25  1  0  0  0  0
  8  4  1  1  0  0  0
  9  3  1  0  0  0  0
  9 13  1  0  0  0  0
 10  1  2  0  0  0  0
 10 15  1  0  0  0  0
 11  6  2  0  0  0  0
 12  8  1  0  0  0  0
 13 12  1  0  0  0  0
 14  6  1  1  0  0  0
 14  8  1  0  0  0  0
 15  9  2  0  0  0  0
 16 20  1  0  0  0  0
 16 22  2  0  0  0  0
 17 16  1  0  0  0  0
 18 13  1  0  0  0  0
 18 20  2  0  0  0  0
 19 21  1  0  0  0  0
 19 17  1  0  0  0  0
 21 18  1  0  0  0  0
 23 24  1  0  0  0  0
 24  1  1  0  0  0  0
 25 26  1  0  0  0  0
 26 27  1  0  0  0  0
 29 27  1  6  0  0  0
 29 30  1  0  0  0  0
 29 33  1  0  0  0  0
 30 28  1  6  0  0  0
 30 34  1  0  0  0  0
 32 31  2  0  0  0  0
 33 32  1  0  0  0  0
 34 31  1  0  0  0  0
M  END
>  <MODEL>
2

>  <REMARK>
 VINA RESULT:      -8.5      1.677      2.476
  Name = 
  6 active torsions:
  status: ('A' for Active; 'I' for Inactive)
    1  A    between atoms: C_1  and  O_19
    2  A    between atoms: C_3  and  C_13
    3  A    between atoms: C_3  and  C_17
    4  A    between atoms: C_12  and  N_28
    5  A    between atoms: C_17  and  O_29
    6  A    between atoms: C_18  and  O_29
                            x       y       z     vdW  Elec       q    Type
                         _______ _______ _______ _____ _____    ______ ____

>  <TORSDO>
F 6

$$$$
=
 OpenBabel11052414023D

 34 38  0  0  1  0  0  0  0  0999 V2000
  186.5530  177.7260  144.7990 C   0  0  0  0  0  0  0  0  0  0  0  0
  184.2040  178.6090  145.1740 C   0  0  0  0  0  0  0  0  0  0  0  0
  185.2380  178.5600  142.9220 C   0  0  0  0  0  0  0  0  0  0  0  0
  182.4850  179.4640  140.3390 C   0  0  0  0  0  1  0  0  0  0  0  0
  184.2830  178.5040  146.4270 O   0  0  0  0  0  0  0  0  0  0  0  0
  182.8250  179.2440  143.3220 C   0  0  0  0  0  3  0  0  0  0  0  0
  185.3630  178.3030  144.3030 C   0  0  0  0  0  0  0  0  0  0  0  0
  183.6760  178.7160  140.9410 C   0  0  1  0  0  0  0  0  0  0  0  0
  186.2940  178.2650  142.0350 C   0  0  0  0  0  0  0  0  0  0  0  0
  187.5880  177.4150  143.9080 C   0  0  0  0  0  3  0  0  0  0  0  0
  182.9580  178.9980  144.5890 N   0  0  0  0  0  0  0  0  0  0  0  0
  184.8880  179.0820  140.0880 C   0  0  0  0  0  2  0  0  0  0  0  0
  186.1350  178.5060  140.6110 N   0  0  0  0  0  0  0  0  0  0  0  0
  183.9970  179.2170  142.3700 C   0  0  2  0  0  3  0  0  0  0  0  0
  187.4570  177.6730  142.5460 C   0  0  0  0  0  3  0  0  0  0  0  0
  187.9990  177.6490  137.4300 C   0  0  0  0  0  0  0  0  0  0  0  0
  189.4300  177.8880  137.8050 C   0  0  0  0  0  2  0  0  0  0  0  0
  187.1960  178.3040  139.6560 C   0  0  0  0  0  0  0  0  0  0  0  0
  189.6170  177.7060  139.3080 C   0  0  0  0  0  2  0  0  0  0  0  0
  186.9260  177.8860  138.4090 C   0  0  0  0  0  3  0  0  0  0  0  0
  188.6220  178.5790  140.0730 C   0  0  0  0  0  2  0  0  0  0  0  0
  187.7100  177.2800  136.2630 O   0  0  0  0  0  0  0  0  0  0  0  0
  187.9410  177.5100  146.8430 C   0  0  0  0  0  1  0  0  0  0  0  0
  186.6920  177.4570  146.1670 O   0  0  0  0  0  0  0  0  0  0  0  0
  183.5160  177.3070  140.8620 O   0  0  0  0  0  0  0  0  0  0  0  0
  182.4670  176.9740  139.9880 C   0  0  0  0  0  2  0  0  0  0  0  0
  182.7350  175.6130  139.3800 C   0  0  0  0  0  2  0  0  0  0  0  0
  184.5130  173.8720  137.9090 O   0  0  0  0  0  1  0  0  0  0  0  0
  182.9990  175.7480  137.8890 C   0  0  2  0  0  3  0  0  0  0  0  0
  184.3840  175.2050  137.5180 C   0  0  2  0  0  3  0  0  0  0  0  0
  184.2020  176.6460  135.4540 C   0  0  0  0  0  3  0  0  0  0  0  0
  183.4120  177.5010  136.1200 C   0  0  0  0  0  3  0  0  0  0  0  0
  182.9290  177.2300  137.5220 C   0  0  0  0  0  2  0  0  0  0  0  0
  184.5820  175.2970  136.0060 C   0  0  0  0  0  2  0  0  0  0  0  0
  1 24  1  0  0  0  0
  2  5  2  0  0  0  0
  3  7  2  0  0  0  0
  6 11  2  0  0  0  0
  7  1  1  0  0  0  0
  7  2  1  0  0  0  0
  8  4  1  6  0  0  0
  8 14  1  0  0  0  0
  9 15  2  0  0  0  0
  9  3  1  0  0  0  0
 10  1  2  0  0  0  0
 11  2  1  0  0  0  0
 12 13  1  0  0  0  0
 12  8  1  0  0  0  0
 13  9  1  0  0  0  0
 14  3  1  0  0  0  0
 14  6  1  1  0  0  0
 15 10  1  0  0  0  0
 16 17  1  0  0  0  0
 16 20  1  0  0  0  0
 17 19  1  0  0  0  0
 18 21  1  0  0  0  0
 18 13  1  0  0  0  0
 19 21  1  0  0  0  0
 20 18  2  0  0  0  0
 22 16  2  0  0  0  0
 24 23  1  0  0  0  0
 25  8  1  0  0  0  0
 26 25  1  0  0  0  0
 27 26  1  0  0  0  0
 29 27  1  1  0  0  0
 30 29  1  0  0  0  0
 30 28  1  6  0  0  0
 31 34  1  0  0  0  0
 31 32  2  0  0  0  0
 32 33  1  0  0  0  0
 33 29  1  0  0  0  0
 34 30  1  0  0  0  0
M  END
>  <MODEL>
3

>  <REMARK>
 VINA RESULT:      -8.5      3.455      8.850
  Name = 
  6 active torsions:
  status: ('A' for Active; 'I' for Inactive)
    1  A    between atoms: C_1  and  O_19
    2  A    between atoms: C_3  and  C_13
    3  A    between atoms: C_3  and  C_17
    4  A    between atoms: C_12  and  N_28
    5  A    between atoms: C_17  and  O_29
    6  A    between atoms: C_18  and  O_29
                            x       y       z     vdW  Elec       q    Type
                         _______ _______ _______ _____ _____    ______ ____

>  <TORSDO>
F 6

$$$$
=
 OpenBabel11052414023D

 34 38  0  0  1  0  0  0  0  0999 V2000
  186.5580  177.7430  144.9950 C   0  0  0  0  0  0  0  0  0  0  0  0
  184.1990  178.6590  145.1780 C   0  0  0  0  0  0  0  0  0  0  0  0
  185.3920  178.5450  143.0080 C   0  0  0  0  0  0  0  0  0  0  0  0
  182.8440  179.4150  140.2130 C   0  0  0  0  0  1  0  0  0  0  0  0
  184.1870  178.5830  146.4350 O   0  0  0  0  0  0  0  0  0  0  0  0
  182.9650  179.2640  143.2160 C   0  0  0  0  0  3  0  0  0  0  0  0
  185.4150  178.3200  144.4000 C   0  0  0  0  0  0  0  0  0  0  0  0
  183.9790  178.6700  140.9170 C   0  0  1  0  0  0  0  0  0  0  0  0
  186.5060  178.2180  142.2080 C   0  0  0  0  0  0  0  0  0  0  0  0
  187.6510  177.3990  144.1880 C   0  0  0  0  0  3  0  0  0  0  0  0
  183.0030  179.0470  144.4950 N   0  0  0  0  0  0  0  0  0  0  0  0
  185.2540  179.0030  140.1460 C   0  0  0  0  0  2  0  0  0  0  0  0
  186.4520  178.4260  140.7700 N   0  0  0  0  0  0  0  0  0  0  0  0
  184.2020  179.2020  142.3520 C   0  0  2  0  0  3  0  0  0  0  0  0
  187.6220  177.6270  142.8150 C   0  0  0  0  0  3  0  0  0  0  0  0
  189.9630  177.7410  139.5320 C   0  0  0  0  0  0  0  0  0  0  0  0
  189.8030  177.7600  138.0420 C   0  0  0  0  0  2  0  0  0  0  0  0
  187.5770  178.1900  139.9000 C   0  0  0  0  0  0  0  0  0  0  0  0
  188.6190  178.6390  137.6510 C   0  0  0  0  0  2  0  0  0  0  0  0
  188.7990  177.9570  140.4050 C   0  0  0  0  0  3  0  0  0  0  0  0
  187.3630  178.1970  138.4040 C   0  0  0  0  0  2  0  0  0  0  0  0
  191.0890  177.5030  140.0380 O   0  0  0  0  0  0  0  0  0  0  0  0
  187.7040  177.8560  147.1910 C   0  0  0  0  0  1  0  0  0  0  0  0
  186.5940  177.5060  146.3750 O   0  0  0  0  0  0  0  0  0  0  0  0
  183.8080  177.2610  140.8590 O   0  0  0  0  0  0  0  0  0  0  0  0
  182.6010  176.9320  140.2190 C   0  0  0  0  0  2  0  0  0  0  0  0
  182.8790  175.9490  139.1000 C   0  0  0  0  0  2  0  0  0  0  0  0
  180.9620  176.9530  137.1830 O   0  0  0  0  0  1  0  0  0  0  0  0
  183.2700  176.6930  137.8340 C   0  0  2  0  0  3  0  0  0  0  0  0
  182.2110  176.5190  136.7370 C   0  0  2  0  0  3  0  0  0  0  0  0
  184.0470  177.1280  135.1150 C   0  0  0  0  0  3  0  0  0  0  0  0
  184.9600  176.6280  135.9610 C   0  0  0  0  0  3  0  0  0  0  0  0
  184.6000  176.1310  137.3370 C   0  0  0  0  0  2  0  0  0  0  0  0
  182.6080  177.3360  135.5090 C   0  0  0  0  0  2  0  0  0  0  0  0
  1 24  1  0  0  0  0
  2  5  2  0  0  0  0
  3  7  2  0  0  0  0
  6 11  2  0  0  0  0
  7  1  1  0  0  0  0
  7  2  1  0  0  0  0
  8  4  1  6  0  0  0
  8 14  1  0  0  0  0
  9 15  2  0  0  0  0
  9  3  1  0  0  0  0
 10  1  2  0  0  0  0
 11  2  1  0  0  0  0
 12 13  1  0  0  0  0
 12  8  1  0  0  0  0
 13  9  1  0  0  0  0
 14  3  1  0  0  0  0
 14  6  1  1  0  0  0
 15 10  1  0  0  0  0
 16 22  2  0  0  0  0
 16 20  1  0  0  0  0
 17 16  1  0  0  0  0
 18 20  2  0  0  0  0
 18 13  1  0  0  0  0
 19 17  1  0  0  0  0
 19 21  1  0  0  0  0
 21 18  1  0  0  0  0
 24 23  1  0  0  0  0
 25  8  1  0  0  0  0
 26 25  1  0  0  0  0
 27 26  1  0  0  0  0
 29 27  1  1  0  0  0
 30 28  1  1  0  0  0
 30 29  1  0  0  0  0
 31 34  1  0  0  0  0
 31 32  2  0  0  0  0
 32 33  1  0  0  0  0
 33 29  1  0  0  0  0
 34 30  1  0  0  0  0
M  END
>  <MODEL>
4

>  <REMARK>
 VINA RESULT:      -8.4      3.417      9.111
  Name = 
  6 active torsions:
  status: ('A' for Active; 'I' for Inactive)
    1  A    between atoms: C_1  and  O_19
    2  A    between atoms: C_3  and  C_13
    3  A    between atoms: C_3  and  C_17
    4  A    between atoms: C_12  and  N_28
    5  A    between atoms: C_17  and  O_29
    6  A    between atoms: C_18  and  O_29
                            x       y       z     vdW  Elec       q    Type
                         _______ _______ _______ _____ _____    ______ ____

>  <TORSDO>
F 6

$$$$
=
 OpenBabel11052414023D

 34 38  0  0  1  0  0  0  0  0999 V2000
  189.0550  174.3130  136.1590 C   0  0  0  0  0  0  0  0  0  0  0  0
  191.5300  174.4210  136.7080 C   0  0  0  0  0  0  0  0  0  0  0  0
  189.8870  175.9470  137.7670 C   0  0  0  0  0  0  0  0  0  0  0  0
  191.7200  177.8770  140.5920 C   0  0  0  0  0  1  0  0  0  0  0  0
  191.8370  173.5630  135.8390 O   0  0  0  0  0  0  0  0  0  0  0  0
  192.3390  175.8790  138.4280 C   0  0  0  0  0  3  0  0  0  0  0  0
  190.1340  174.8990  136.8560 C   0  0  0  0  0  0  0  0  0  0  0  0
  190.6020  177.0940  139.9030 C   0  0  1  0  0  0  0  0  0  0  0  0
  188.5780  176.4280  137.9740 C   0  0  0  0  0  0  0  0  0  0  0  0
  187.7540  174.7820  136.3890 C   0  0  0  0  0  3  0  0  0  0  0  0
  192.5450  174.9120  137.5880 N   0  0  0  0  0  0  0  0  0  0  0  0
  189.4580  178.0810  139.6860 C   0  0  0  0  0  2  0  0  0  0  0  0
  188.3390  177.4870  138.9410 N   0  0  0  0  0  0  0  0  0  0  0  0
  191.0260  176.6230  138.4910 C   0  0  2  0  0  3  0  0  0  0  0  0
  187.5200  175.8190  137.2880 C   0  0  0  0  0  3  0  0  0  0  0  0
  185.3110  179.0230  140.6130 C   0  0  0  0  0  0  0  0  0  0  0  0
  184.3740  179.2520  139.4660 C   0  0  0  0  0  2  0  0  0  0  0  0
  187.0430  178.0830  139.1480 C   0  0  0  0  0  0  0  0  0  0  0  0
  184.6630  178.2590  138.3450 C   0  0  0  0  0  2  0  0  0  0  0  0
  186.6410  178.4390  140.3790 C   0  0  0  0  0  3  0  0  0  0  0  0
  186.1410  178.3150  137.9580 C   0  0  0  0  0  2  0  0  0  0  0  0
  184.9740  179.3670  141.7750 O   0  0  0  0  0  0  0  0  0  0  0  0
  188.2870  172.3060  134.9210 C   0  0  0  0  0  1  0  0  0  0  0  0
  189.2810  173.2650  135.2570 O   0  0  0  0  0  0  0  0  0  0  0  0
  190.1030  176.0450  140.7200 O   0  0  0  0  0  0  0  0  0  0  0  0
  190.1920  176.3880  142.0800 C   0  0  0  0  0  2  0  0  0  0  0  0
  188.8080  176.7080  142.6070 C   0  0  0  0  0  2  0  0  0  0  0  0
  186.5150  177.4150  144.2190 O   0  0  0  0  0  1  0  0  0  0  0  0
  188.7990  176.6460  144.1250 C   0  0  2  0  0  3  0  0  0  0  0  0
  187.7980  177.6460  144.7170 C   0  0  2  0  0  3  0  0  0  0  0  0
  189.1500  177.4730  146.8420 C   0  0  0  0  0  3  0  0  0  0  0  0
  190.2450  177.1890  146.1210 C   0  0  0  0  0  3  0  0  0  0  0  0
  190.2010  176.9850  144.6290 C   0  0  0  0  0  2  0  0  0  0  0  0
  187.7700  177.5040  146.2380 C   0  0  0  0  0  2  0  0  0  0  0  0
  1 10  2  0  0  0  0
  1  7  1  0  0  0  0
  2  7  1  0  0  0  0
  2 11  1  0  0  0  0
  3  9  1  0  0  0  0
  3 14  1  0  0  0  0
  5  2  2  0  0  0  0
  7  3  2  0  0  0  0
  8  4  1  1  0  0  0
  8 25  1  0  0  0  0
  9 13  1  0  0  0  0
 10 15  1  0  0  0  0
 11  6  2  0  0  0  0
 12  8  1  0  0  0  0
 13 18  1  0  0  0  0
 13 12  1  0  0  0  0
 14  6  1  1  0  0  0
 14  8  1  0  0  0  0
 15  9  2  0  0  0  0
 16 22  2  0  0  0  0
 17 16  1  0  0  0  0
 18 20  2  0  0  0  0
 19 17  1  0  0  0  0
 20 16  1  0  0  0  0
 21 19  1  0  0  0  0
 21 18  1  0  0  0  0
 23 24  1  0  0  0  0
 24  1  1  0  0  0  0
 25 26  1  0  0  0  0
 26 27  1  0  0  0  0
 29 27  1  6  0  0  0
 29 33  1  0  0  0  0
 29 30  1  0  0  0  0
 30 28  1  6  0  0  0
 30 34  1  0  0  0  0
 32 31  2  0  0  0  0
 33 32  1  0  0  0  0
 34 31  1  0  0  0  0
M  END
>  <MODEL>
5

>  <REMARK>
 VINA RESULT:      -8.3      1.969      2.936
  Name = 
  6 active torsions:
  status: ('A' for Active; 'I' for Inactive)
    1  A    between atoms: C_1  and  O_19
    2  A    between atoms: C_3  and  C_13
    3  A    between atoms: C_3  and  C_17
    4  A    between atoms: C_12  and  N_28
    5  A    between atoms: C_17  and  O_29
    6  A    between atoms: C_18  and  O_29
                            x       y       z     vdW  Elec       q    Type
                         _______ _______ _______ _____ _____    ______ ____

>  <TORSDO>
F 6

$$$$
=
 OpenBabel11052414023D

 34 38  0  0  1  0  0  0  0  0999 V2000
  186.7950  177.6520  145.1650 C   0  0  0  0  0  0  0  0  0  0  0  0
  184.4940  178.6680  145.4950 C   0  0  0  0  0  0  0  0  0  0  0  0
  185.5500  178.5230  143.2570 C   0  0  0  0  0  0  0  0  0  0  0  0
  182.8820  179.5300  140.6250 C   0  0  0  0  0  1  0  0  0  0  0  0
  184.5520  178.5800  146.7500 O   0  0  0  0  0  0  0  0  0  0  0  0
  183.1740  179.3440  143.6150 C   0  0  0  0  0  3  0  0  0  0  0  0
  185.6450  178.2840  144.6440 C   0  0  0  0  0  0  0  0  0  0  0  0
  184.0220  178.7300  141.2550 C   0  0  1  0  0  0  0  0  0  0  0  0
  186.5990  178.1560  142.3900 C   0  0  0  0  0  0  0  0  0  0  0  0
  187.8230  177.2690  144.2920 C   0  0  0  0  0  3  0  0  0  0  0  0
  183.2780  179.1140  144.8870 N   0  0  0  0  0  0  0  0  0  0  0  0
  185.2630  179.0140  140.4110 C   0  0  0  0  0  2  0  0  0  0  0  0
  186.4700  178.3800  140.9590 N   0  0  0  0  0  0  0  0  0  0  0  0
  184.3530  179.2380  142.6780 C   0  0  2  0  0  3  0  0  0  0  0  0
  187.7220  177.5110  142.9250 C   0  0  0  0  0  3  0  0  0  0  0  0
  189.8980  177.7280  139.4930 C   0  0  0  0  0  0  0  0  0  0  0  0
  189.6140  177.5800  138.0290 C   0  0  0  0  0  2  0  0  0  0  0  0
  187.5300  178.1040  140.0220 C   0  0  0  0  0  0  0  0  0  0  0  0
  188.3550  178.3560  137.6560 C   0  0  0  0  0  2  0  0  0  0  0  0
  188.8000  177.9830  140.4390 C   0  0  0  0  0  3  0  0  0  0  0  0
  187.1920  177.9400  138.5580 C   0  0  0  0  0  2  0  0  0  0  0  0
  191.0730  177.5980  139.9200 O   0  0  0  0  0  0  0  0  0  0  0  0
  188.1080  177.5890  147.2680 C   0  0  0  0  0  1  0  0  0  0  0  0
  186.9030  177.4000  146.5390 O   0  0  0  0  0  0  0  0  0  0  0  0
  183.7870  177.3300  141.1970 O   0  0  0  0  0  0  0  0  0  0  0  0
  182.5820  177.0560  140.5270 C   0  0  0  0  0  2  0  0  0  0  0  0
  182.8340  176.0280  139.4430 C   0  0  0  0  0  2  0  0  0  0  0  0
  182.6060  174.5020  136.9990 O   0  0  0  0  0  1  0  0  0  0  0  0
  181.5140  175.5050  138.9000 C   0  0  2  0  0  3  0  0  0  0  0  0
  181.5630  175.3490  137.3750 C   0  0  2  0  0  3  0  0  0  0  0  0
  179.0430  175.4560  137.4590 C   0  0  0  0  0  3  0  0  0  0  0  0
  179.1120  176.2060  138.5690 C   0  0  0  0  0  3  0  0  0  0  0  0
  180.4160  176.5030  139.2640 C   0  0  0  0  0  2  0  0  0  0  0  0
  180.2450  174.7580  136.8780 C   0  0  0  0  0  2  0  0  0  0  0  0
  1 24  1  0  0  0  0
  2  5  2  0  0  0  0
  3  7  2  0  0  0  0
  6 11  2  0  0  0  0
  7  1  1  0  0  0  0
  7  2  1  0  0  0  0
  8  4  1  6  0  0  0
  8 14  1  0  0  0  0
  9 15  2  0  0  0  0
  9  3  1  0  0  0  0
 10  1  2  0  0  0  0
 11  2  1  0  0  0  0
 12 13  1  0  0  0  0
 12  8  1  0  0  0  0
 13  9  1  0  0  0  0
 14  3  1  0  0  0  0
 14  6  1  1  0  0  0
 15 10  1  0  0  0  0
 16 22  2  0  0  0  0
 16 20  1  0  0  0  0
 17 16  1  0  0  0  0
 18 20  2  0  0  0  0
 18 13  1  0  0  0  0
 19 17  1  0  0  0  0
 19 21  1  0  0  0  0
 21 18  1  0  0  0  0
 24 23  1  0  0  0  0
 25  8  1  0  0  0  0
 26 25  1  0  0  0  0
 27 26  1  0  0  0  0
 29 33  1  0  0  0  0
 29 27  1  6  0  0  0
 30 28  1  1  0  0  0
 30 29  1  0  0  0  0
 31 32  2  0  0  0  0
 32 33  1  0  0  0  0
 34 30  1  0  0  0  0
 34 31  1  0  0  0  0
M  END
>  <MODEL>
6

>  <REMARK>
 VINA RESULT:      -8.1      3.867      9.172
  Name = 
  6 active torsions:
  status: ('A' for Active; 'I' for Inactive)
    1  A    between atoms: C_1  and  O_19
    2  A    between atoms: C_3  and  C_13
    3  A    between atoms: C_3  and  C_17
    4  A    between atoms: C_12  and  N_28
    5  A    between atoms: C_17  and  O_29
    6  A    between atoms: C_18  and  O_29
                            x       y       z     vdW  Elec       q    Type
                         _______ _______ _______ _____ _____    ______ ____

>  <TORSDO>
F 6

$$$$
=
 OpenBabel11052414023D

 34 38  0  0  1  0  0  0  0  0999 V2000
  187.7380  173.1150  136.8400 C   0  0  0  0  0  0  0  0  0  0  0  0
  190.0450  174.1700  136.7780 C   0  0  0  0  0  0  0  0  0  0  0  0
  187.9850  175.5390  136.9460 C   0  0  0  0  0  0  0  0  0  0  0  0
  189.0580  179.2040  137.6440 C   0  0  0  0  0  1  0  0  0  0  0  0
  190.6250  173.0700  136.5760 O   0  0  0  0  0  0  0  0  0  0  0  0
  190.3200  176.5290  137.0820 C   0  0  0  0  0  3  0  0  0  0  0  0
  188.5660  174.2590  136.8390 C   0  0  0  0  0  0  0  0  0  0  0  0
  188.2530  177.9110  137.7780 C   0  0  1  0  0  0  0  0  0  0  0  0
  186.5860  175.6900  137.0360 C   0  0  0  0  0  0  0  0  0  0  0  0
  186.3500  173.2740  136.9540 C   0  0  0  0  0  3  0  0  0  0  0  0
  190.8370  175.3430  136.9860 N   0  0  0  0  0  0  0  0  0  0  0  0
  186.8690  178.2060  137.2040 C   0  0  0  0  0  2  0  0  0  0  0  0
  186.0080  177.0160  137.1800 N   0  0  0  0  0  0  0  0  0  0  0  0
  188.8430  176.7810  136.9010 C   0  0  2  0  0  3  0  0  0  0  0  0
  185.7850  174.5420  137.0570 C   0  0  0  0  0  3  0  0  0  0  0  0
  182.5090  177.8190  138.3780 C   0  0  0  0  0  0  0  0  0  0  0  0
  181.6860  177.6800  137.1330 C   0  0  0  0  0  2  0  0  0  0  0  0
  184.5860  177.2540  137.1980 C   0  0  0  0  0  0  0  0  0  0  0  0
  182.3540  176.7040  136.1680 C   0  0  0  0  0  2  0  0  0  0  0  0
  183.9620  177.5980  138.3360 C   0  0  0  0  0  3  0  0  0  0  0  0
  183.8020  177.1240  135.9120 C   0  0  0  0  0  2  0  0  0  0  0  0
  181.9590  178.1620  139.4560 O   0  0  0  0  0  0  0  0  0  0  0  0
  187.9430  170.9110  135.7220 C   0  0  0  0  0  1  0  0  0  0  0  0
  188.2990  171.8350  136.7420 O   0  0  0  0  0  0  0  0  0  0  0  0
  188.0730  177.5330  139.1360 O   0  0  0  0  0  0  0  0  0  0  0  0
  188.9350  178.2600  139.9730 C   0  0  0  0  0  2  0  0  0  0  0  0
  189.5350  177.3290  141.0060 C   0  0  0  0  0  2  0  0  0  0  0  0
  191.4290  178.2690  142.9770 O   0  0  0  0  0  1  0  0  0  0  0  0
  189.1390  177.7740  142.4050 C   0  0  2  0  0  3  0  0  0  0  0  0
  190.2920  177.5780  143.3970 C   0  0  2  0  0  3  0  0  0  0  0  0
  188.5180  177.6070  145.1930 C   0  0  0  0  0  3  0  0  0  0  0  0
  187.6240  177.1270  144.3170 C   0  0  0  0  0  3  0  0  0  0  0  0
  187.9450  176.9360  142.8570 C   0  0  0  0  0  2  0  0  0  0  0  0
  189.8790  178.1000  144.7720 C   0  0  0  0  0  2  0  0  0  0  0  0
  1 10  1  0  0  0  0
  2  7  1  0  0  0  0
  2 11  1  0  0  0  0
  3  9  2  0  0  0  0
  5  2  2  0  0  0  0
  7  1  2  0  0  0  0
  7  3  1  0  0  0  0
  8  4  1  6  0  0  0
  8 25  1  0  0  0  0
  9 15  1  0  0  0  0
  9 13  1  0  0  0  0
 10 15  2  0  0  0  0
 11  6  2  0  0  0  0
 12  8  1  0  0  0  0
 13 18  1  0  0  0  0
 13 12  1  0  0  0  0
 14  3  1  0  0  0  0
 14  6  1  1  0  0  0
 14  8  1  0  0  0  0
 16 22  2  0  0  0  0
 17 16  1  0  0  0  0
 18 20  2  0  0  0  0
 19 17  1  0  0  0  0
 20 16  1  0  0  0  0
 21 19  1  0  0  0  0
 21 18  1  0  0  0  0
 23 24  1  0  0  0  0
 24  1  1  0  0  0  0
 25 26  1  0  0  0  0
 26 27  1  0  0  0  0
 29 27  1  6  0  0  0
 29 33  1  0  0  0  0
 29 30  1  0  0  0  0
 30 28  1  6  0  0  0
 30 34  1  0  0  0  0
 32 31  2  0  0  0  0
 33 32  1  0  0  0  0
 34 31  1  0  0  0  0
M  END
>  <MODEL>
7

>  <REMARK>
 VINA RESULT:      -7.9      3.258      4.666
  Name = 
  6 active torsions:
  status: ('A' for Active; 'I' for Inactive)
    1  A    between atoms: C_1  and  O_19
    2  A    between atoms: C_3  and  C_13
    3  A    between atoms: C_3  and  C_17
    4  A    between atoms: C_12  and  N_28
    5  A    between atoms: C_17  and  O_29
    6  A    between atoms: C_18  and  O_29
                            x       y       z     vdW  Elec       q    Type
                         _______ _______ _______ _____ _____    ______ ____

>  <TORSDO>
F 6

$$$$
=
 OpenBabel11052414023D

 34 38  0  0  1  0  0  0  0  0999 V2000
  185.9070  177.2760  137.2650 C   0  0  0  0  0  0  0  0  0  0  0  0
  188.4300  177.5470  137.2430 C   0  0  0  0  0  0  0  0  0  0  0  0
  187.0670  178.1550  139.2230 C   0  0  0  0  0  0  0  0  0  0  0  0
  189.5060  178.9270  142.1420 C   0  0  0  0  0  1  0  0  0  0  0  0
  188.5300  177.2220  136.0300 O   0  0  0  0  0  0  0  0  0  0  0  0
  189.6060  178.2160  139.2190 C   0  0  0  0  0  3  0  0  0  0  0  0
  187.1060  177.6690  137.8990 C   0  0  0  0  0  0  0  0  0  0  0  0
  188.2810  178.3510  141.4310 C   0  0  1  0  0  0  0  0  0  0  0  0
  185.8430  178.2680  139.9120 C   0  0  0  0  0  0  0  0  0  0  0  0
  184.6970  177.3710  137.9660 C   0  0  0  0  0  3  0  0  0  0  0  0
  189.6220  177.7650  138.0020 N   0  0  0  0  0  0  0  0  0  0  0  0
  187.0750  179.1250  141.9580 C   0  0  0  0  0  2  0  0  0  0  0  0
  185.8250  178.7390  141.2870 N   0  0  0  0  0  0  0  0  0  0  0  0
  188.3270  178.6240  139.9090 C   0  0  2  0  0  3  0  0  0  0  0  0
  184.6680  177.8530  139.2720 C   0  0  0  0  0  3  0  0  0  0  0  0
  183.3920  179.2490  144.1410 C   0  0  0  0  0  0  0  0  0  0  0  0
  182.0710  179.3610  143.4410 C   0  0  0  0  0  2  0  0  0  0  0  0
  184.6080  178.9560  142.0280 C   0  0  0  0  0  0  0  0  0  0  0  0
  182.1150  178.6090  142.1130 C   0  0  0  0  0  2  0  0  0  0  0  0
  184.6280  179.0540  143.3670 C   0  0  0  0  0  3  0  0  0  0  0  0
  183.3030  179.0850  141.2770 C   0  0  0  0  0  2  0  0  0  0  0  0
  183.4480  179.3590  145.3920 O   0  0  0  0  0  0  0  0  0  0  0  0
  184.8680  176.9960  135.0310 C   0  0  0  0  0  1  0  0  0  0  0  0
  185.9280  176.7850  135.9530 O   0  0  0  0  0  0  0  0  0  0  0  0
  188.0740  176.9820  141.7500 O   0  0  0  0  0  0  0  0  0  0  0  0
  187.5570  176.8470  143.0500 C   0  0  0  0  0  2  0  0  0  0  0  0
  188.6980  176.6440  144.0250 C   0  0  0  0  0  2  0  0  0  0  0  0
  190.6190  176.8410  146.1770 O   0  0  0  0  0  1  0  0  0  0  0  0
  188.4870  177.5010  145.2630 C   0  0  2  0  0  3  0  0  0  0  0  0
  189.2570  176.9410  146.4650 C   0  0  2  0  0  3  0  0  0  0  0  0
  187.6340  178.2460  147.8900 C   0  0  0  0  0  3  0  0  0  0  0  0
  186.7020  178.1340  146.9320 C   0  0  0  0  0  3  0  0  0  0  0  0
  186.9940  177.5150  145.5890 C   0  0  0  0  0  2  0  0  0  0  0  0
  189.0740  177.8650  147.6670 C   0  0  0  0  0  2  0  0  0  0  0  0
  1  7  2  0  0  0  0
  1 10  1  0  0  0  0
  2  7  1  0  0  0  0
  2 11  1  0  0  0  0
  3 14  1  0  0  0  0
  3  9  2  0  0  0  0
  5  2  2  0  0  0  0
  7  3  1  0  0  0  0
  8 25  1  0  0  0  0
  8 12  1  0  0  0  0
  8  4  1  1  0  0  0
  9 13  1  0  0  0  0
 10 15  2  0  0  0  0
 11  6  2  0  0  0  0
 13 12  1  0  0  0  0
 13 18  1  0  0  0  0
 14  6  1  6  0  0  0
 14  8  1  0  0  0  0
 15  9  1  0  0  0  0
 16 22  2  0  0  0  0
 17 16  1  0  0  0  0
 18 20  2  0  0  0  0
 19 17  1  0  0  0  0
 20 16  1  0  0  0  0
 21 18  1  0  0  0  0
 21 19  1  0  0  0  0
 23 24  1  0  0  0  0
 24  1  1  0  0  0  0
 25 26  1  0  0  0  0
 26 27  1  0  0  0  0
 29 27  1  6  0  0  0
 29 33  1  0  0  0  0
 29 30  1  0  0  0  0
 30 28  1  6  0  0  0
 30 34  1  0  0  0  0
 32 31  2  0  0  0  0
 33 32  1  0  0  0  0
 34 31  1  0  0  0  0
M  END
>  <MODEL>
8

>  <REMARK>
 VINA RESULT:      -7.9      2.409      3.533
  Name = 
  6 active torsions:
  status: ('A' for Active; 'I' for Inactive)
    1  A    between atoms: C_1  and  O_19
    2  A    between atoms: C_3  and  C_13
    3  A    between atoms: C_3  and  C_17
    4  A    between atoms: C_12  and  N_28
    5  A    between atoms: C_17  and  O_29
    6  A    between atoms: C_18  and  O_29
                            x       y       z     vdW  Elec       q    Type
                         _______ _______ _______ _____ _____    ______ ____

>  <TORSDO>
F 6

$$$$
=
 OpenBabel11052414023D

 34 38  0  0  1  0  0  0  0  0999 V2000
  189.2810  177.5880  141.4900 C   0  0  0  0  0  0  0  0  0  0  0  0
  187.1160  178.5620  140.5950 C   0  0  0  0  0  0  0  0  0  0  0  0
  188.7570  177.4410  139.1130 C   0  0  0  0  0  0  0  0  0  0  0  0
  187.1090  177.0320  135.6230 C   0  0  0  0  0  1  0  0  0  0  0  0
  186.7950  179.0640  141.7050 O   0  0  0  0  0  0  0  0  0  0  0  0
  186.4910  178.2530  138.3040 C   0  0  0  0  0  3  0  0  0  0  0  0
  188.4140  177.8690  140.4120 C   0  0  0  0  0  0  0  0  0  0  0  0
  187.9150  176.6510  136.8640 C   0  0  1  0  0  0  0  0  0  0  0  0
  189.9640  176.7510  138.8770 C   0  0  0  0  0  0  0  0  0  0  0  0
  190.4680  176.8820  141.2500 C   0  0  0  0  0  3  0  0  0  0  0  0
  186.1910  178.6370  139.5070 N   0  0  0  0  0  0  0  0  0  0  0  0
  189.3720  176.5580  136.4180 C   0  0  0  0  0  2  0  0  0  0  0  0
  190.2850  176.2880  137.5370 N   0  0  0  0  0  0  0  0  0  0  0  0
  187.8720  177.7670  137.9350 C   0  0  2  0  0  3  0  0  0  0  0  0
  190.8000  176.4640  139.9640 C   0  0  0  0  0  3  0  0  0  0  0  0
  193.8920  175.7420  136.5300 C   0  0  0  0  0  0  0  0  0  0  0  0
  194.0130  174.2480  136.5090 C   0  0  0  0  0  2  0  0  0  0  0  0
  191.5340  175.6490  137.2050 C   0  0  0  0  0  0  0  0  0  0  0  0
  192.6530  173.6150  136.2280 C   0  0  0  0  0  2  0  0  0  0  0  0
  192.6180  176.3780  136.8970 C   0  0  0  0  0  3  0  0  0  0  0  0
  191.6130  174.1400  137.2190 C   0  0  0  0  0  2  0  0  0  0  0  0
  194.8950  176.4550  136.2690 O   0  0  0  0  0  0  0  0  0  0  0  0
  188.9520  177.1180  143.9030 C   0  0  0  0  0  1  0  0  0  0  0  0
  188.9530  177.9990  142.7890 O   0  0  0  0  0  0  0  0  0  0  0  0
  187.5480  175.3740  137.3680 O   0  0  0  0  0  0  0  0  0  0  0  0
  187.4270  174.4430  136.3220 C   0  0  0  0  0  2  0  0  0  0  0  0
  187.7360  173.0560  136.8480 C   0  0  0  0  0  2  0  0  0  0  0  0
  187.1740  171.2620  134.6520 O   0  0  0  0  0  1  0  0  0  0  0  0
  186.4950  172.1810  136.7760 C   0  0  2  0  0  3  0  0  0  0  0  0
  186.1140  171.8750  135.3220 C   0  0  2  0  0  3  0  0  0  0  0  0
  183.8030  171.3940  136.2140 C   0  0  0  0  0  3  0  0  0  0  0  0
  184.0110  172.2560  137.2200 C   0  0  0  0  0  3  0  0  0  0  0  0
  185.3420  172.9260  137.4470 C   0  0  0  0  0  2  0  0  0  0  0  0
  184.9070  170.9400  135.2950 C   0  0  0  0  0  2  0  0  0  0  0  0
  1 24  1  0  0  0  0
  2  5  2  0  0  0  0
  3  7  1  0  0  0  0
  6 11  2  0  0  0  0
  7  2  1  0  0  0  0
  7  1  2  0  0  0  0
  8  4  1  6  0  0  0
  8 25  1  0  0  0  0
  8 14  1  0  0  0  0
  9  3  2  0  0  0  0
  9 15  1  0  0  0  0
 10  1  1  0  0  0  0
 11  2  1  0  0  0  0
 12  8  1  0  0  0  0
 12 13  1  0  0  0  0
 13  9  1  0  0  0  0
 14  6  1  1  0  0  0
 14  3  1  0  0  0  0
 15 10  2  0  0  0  0
 16 20  1  0  0  0  0
 17 16  1  0  0  0  0
 18 21  1  0  0  0  0
 18 13  1  0  0  0  0
 19 17  1  0  0  0  0
 19 21  1  0  0  0  0
 20 18  2  0  0  0  0
 22 16  2  0  0  0  0
 24 23  1  0  0  0  0
 26 27  1  0  0  0  0
 26 25  1  0  0  0  0
 29 27  1  6  0  0  0
 29 33  1  0  0  0  0
 30 28  1  1  0  0  0
 30 29  1  0  0  0  0
 31 32  2  0  0  0  0
 32 33  1  0  0  0  0
 34 30  1  0  0  0  0
 34 31  1  0  0  0  0
M  END
>  <MODEL>
9

>  <REMARK>
 VINA RESULT:      -7.8      3.487      8.815
  Name = 
  6 active torsions:
  status: ('A' for Active; 'I' for Inactive)
    1  A    between atoms: C_1  and  O_19
    2  A    between atoms: C_3  and  C_13
    3  A    between atoms: C_3  and  C_17
    4  A    between atoms: C_12  and  N_28
    5  A    between atoms: C_17  and  O_29
    6  A    between atoms: C_18  and  O_29
                            x       y       z     vdW  Elec       q    Type
                         _______ _______ _______ _____ _____    ______ ____

>  <TORSDO>
F 6

$$$$
