=
 OpenBabel11052415253D

 37 40  0  0  1  0  0  0  0  0999 V2000
  190.1830  176.3120  137.8890 C   0  0  1  0  0  3  0  0  0  0  0  0
  187.0600  174.6670  136.8880 O   0  0  0  0  0  0  0  0  0  0  0  0
  191.1630  175.4350  137.0950 C   0  0  1  0  0  3  0  0  0  0  0  0
  188.0090  171.6890  136.0550 C   0  0  0  0  0  2  0  0  0  0  0  0
  186.9570  177.0030  137.5440 C   0  0  1  0  0  3  0  0  0  0  0  0
  188.8630  179.8010  137.2760 O   0  0  0  0  0  1  0  0  0  0  0  0
  188.6410  173.0830  135.9800 C   0  0  1  0  0  3  0  0  0  0  0  0
  187.2090  171.4390  134.9270 O   0  0  0  0  0  0  0  0  0  0  0  0
  189.9050  177.6520  137.1840 C   0  0  0  0  0  2  0  0  0  0  0  0
  189.7630  173.1410  134.9590 C   0  0  0  0  0  2  0  0  0  0  0  0
  190.9900  173.8270  135.5510 C   0  0  2  0  0  3  0  0  0  0  0  0
  186.4790  173.7080  134.7490 C   0  0  0  0  0  2  0  0  0  0  0  0
  186.0840  172.2670  135.0610 C   0  0  0  0  0  2  0  0  0  0  0  0
  190.7310  175.1860  135.7780 O   0  0  0  0  0  0  0  0  0  0  0  0
  189.0170  178.6110  137.9850 C   0  0  2  0  0  3  0  0  0  0  0  0
  187.5920  174.1710  135.6930 C   0  0  1  0  0  3  0  0  0  0  0  0
  187.8300  175.8030  137.1480 C   0  0  1  0  0  3  0  0  0  0  0  0
  187.6340  178.0840  138.4230 C   0  0  2  0  0  3  0  0  0  0  0  0
  188.9140  175.5050  138.1800 C   0  0  0  0  0  2  0  0  0  0  0  0
  187.0400  177.6620  135.0980 C   0  0  0  0  0  1  0  0  0  0  0  0
  186.1940  177.5930  136.3600 C   0  0  0  0  0  2  0  0  0  0  0  0
  192.8890  176.3730  138.4930 C   0  0  0  0  0  1  0  0  0  0  0  0
  192.5380  175.9450  137.1440 N   0  0  0  0  0  2  0  0  0  0  0  0
  192.1650  173.6920  134.5940 C   0  0  0  0  0  2  0  0  0  0  0  0
  193.0910  172.5640  135.0190 C   0  0  0  0  0  2  0  0  0  0  0  0
  193.4450  172.7090  136.3610 O   0  0  0  0  0  1  0  0  0  0  0  0
  187.6910  177.6610  139.7540 O   0  0  0  0  0  0  0  0  0  0  0  0
  188.6040  178.5230  140.3700 C   0  0  0  0  0  2  0  0  0  0  0  0
  188.0340  177.0600  142.3210 C   0  0  0  0  0  2  0  0  0  0  0  0
  191.3670  177.2430  142.6050 C   0  0  0  0  0  2  0  0  0  0  0  0
  190.7900  176.6620  143.8060 N   0  0  0  0  0  2  0  0  0  0  0  0
  190.3250  178.5390  145.1050 O   0  0  0  0  0  0  0  0  0  0  0  0
  188.5140  177.0180  144.8050 C   0  0  0  0  0  2  0  0  0  0  0  0
  189.9320  177.4390  144.6360 C   0  0  0  0  0  0  0  0  0  0  0  0
  190.3890  177.1260  141.4380 C   0  0  0  0  0  2  0  0  0  0  0  0
  187.6480  177.6050  143.6930 C   0  0  0  0  0  2  0  0  0  0  0  0
  189.1120  177.9280  141.6760 C   0  0  1  0  0  3  0  0  0  0  0  0
  1  9  1  6  0  0  0
  1 19  1  0  0  0  0
  2 17  1  0  0  0  0
  3 23  1  6  0  0  0
  3  1  1  0  0  0  0
  5 21  1  6  0  0  0
  5 18  1  0  0  0  0
  7 10  1  6  0  0  0
  7  4  1  0  0  0  0
  8 13  1  0  0  0  0
  8  4  1  0  0  0  0
  9 15  1  0  0  0  0
 10 11  1  0  0  0  0
 11 24  1  6  0  0  0
 11 14  1  0  0  0  0
 12 13  1  0  0  0  0
 14  3  1  0  0  0  0
 15  6  1  6  0  0  0
 15 18  1  0  0  0  0
 16 12  1  6  0  0  0
 16  7  1  0  0  0  0
 16  2  1  0  0  0  0
 17  5  1  0  0  0  0
 17 19  1  1  0  0  0
 18 27  1  1  0  0  0
 20 21  1  0  0  0  0
 23 22  1  0  0  0  0
 24 25  1  0  0  0  0
 25 26  1  0  0  0  0
 27 28  1  0  0  0  0
 29 36  1  0  0  0  0
 30 31  1  0  0  0  0
 31 34  1  0  0  0  0
 34 33  1  0  0  0  0
 34 32  2  0  0  0  0
 35 37  1  0  0  0  0
 35 30  1  0  0  0  0
 36 33  1  0  0  0  0
 37 28  1  6  0  0  0
 37 29  1  0  0  0  0
M  END
>  <MODEL>
1

>  <REMARK>
 VINA RESULT:      -6.5      0.000      0.000
  Name = 
  7 active torsions:
  status: ('A' for Active; 'I' for Inactive)
    1  A    between atoms: C_3  and  C_32
    2  A    between atoms: C_5  and  N_23
    3  A    between atoms: C_10  and  C_14
    4  A    between atoms: C_21  and  C_32
    5  A    between atoms: C_27  and  O_33
    6  A    between atoms: C_27  and  C_37
    7  A    between atoms: O_33  and  C_34
                            x       y       z     vdW  Elec       q    Type
                         _______ _______ _______ _____ _____    ______ ____

>  <TORSDO>
F 7

$$$$
=
 OpenBabel11052415253D

 37 40  0  0  1  0  0  0  0  0999 V2000
  190.3650  176.4940  138.0850 C   0  0  1  0  0  3  0  0  0  0  0  0
  187.0930  174.9220  137.5550 O   0  0  0  0  0  0  0  0  0  0  0  0
  191.2050  175.5750  137.1850 C   0  0  1  0  0  3  0  0  0  0  0  0
  187.8420  171.9030  136.6670 C   0  0  0  0  0  2  0  0  0  0  0  0
  187.1410  177.2710  138.1680 C   0  0  1  0  0  3  0  0  0  0  0  0
  189.0640  180.0080  137.5810 O   0  0  0  0  0  1  0  0  0  0  0  0
  188.4940  173.2770  136.4760 C   0  0  1  0  0  3  0  0  0  0  0  0
  186.8890  171.6550  135.6640 O   0  0  0  0  0  0  0  0  0  0  0  0
  190.0280  177.8290  137.3960 C   0  0  0  0  0  2  0  0  0  0  0  0
  189.4670  173.2830  135.3110 C   0  0  0  0  0  2  0  0  0  0  0  0
  190.7810  173.9450  135.7150 C   0  0  2  0  0  3  0  0  0  0  0  0
  186.2010  173.9400  135.5360 C   0  0  0  0  0  2  0  0  0  0  0  0
  185.8150  172.5180  135.9310 C   0  0  0  0  0  2  0  0  0  0  0  0
  190.5900  175.3150  135.9460 O   0  0  0  0  0  0  0  0  0  0  0  0
  189.2830  178.8270  138.2890 C   0  0  2  0  0  3  0  0  0  0  0  0
  187.4440  174.3880  136.3100 C   0  0  1  0  0  3  0  0  0  0  0  0
  187.9200  176.0400  137.6830 C   0  0  1  0  0  3  0  0  0  0  0  0
  187.9590  178.3490  138.9220 C   0  0  2  0  0  3  0  0  0  0  0  0
  189.1270  175.7290  138.5640 C   0  0  0  0  0  2  0  0  0  0  0  0
  186.9020  177.8710  135.7160 C   0  0  0  0  0  1  0  0  0  0  0  0
  186.2390  177.8600  137.0850 C   0  0  0  0  0  2  0  0  0  0  0  0
  193.5270  175.1050  137.6310 C   0  0  0  0  0  1  0  0  0  0  0  0
  192.5860  176.0470  137.0360 N   0  0  0  0  0  2  0  0  0  0  0  0
  191.8110  173.7590  134.6100 C   0  0  0  0  0  2  0  0  0  0  0  0
  192.8640  172.7380  135.0100 C   0  0  0  0  0  2  0  0  0  0  0  0
  192.4750  171.4600  134.6080 O   0  0  0  0  0  1  0  0  0  0  0  0
  188.1860  177.9480  140.2410 O   0  0  0  0  0  0  0  0  0  0  0  0
  187.7830  179.0350  141.0250 C   0  0  0  0  0  2  0  0  0  0  0  0
  185.6090  178.1460  141.8930 C   0  0  0  0  0  2  0  0  0  0  0  0
  187.6550  177.4600  144.4550 C   0  0  0  0  0  2  0  0  0  0  0  0
  186.2690  177.2780  144.8540 N   0  0  0  0  0  2  0  0  0  0  0  0
  185.6640  179.4070  145.5800 O   0  0  0  0  0  0  0  0  0  0  0  0
  184.2040  178.4090  143.9810 C   0  0  0  0  0  2  0  0  0  0  0  0
  185.3820  178.3910  144.8920 C   0  0  0  0  0  0  0  0  0  0  0  0
  187.7790  177.4130  142.9340 C   0  0  0  0  0  2  0  0  0  0  0  0
  184.5860  179.0060  142.6280 C   0  0  0  0  0  2  0  0  0  0  0  0
  187.0320  178.5610  142.2620 C   0  0  1  0  0  3  0  0  0  0  0  0
  1  9  1  6  0  0  0
  1 19  1  0  0  0  0
  2 17  1  0  0  0  0
  3 23  1  6  0  0  0
  3  1  1  0  0  0  0
  5 21  1  6  0  0  0
  5 18  1  0  0  0  0
  7 10  1  6  0  0  0
  7  4  1  0  0  0  0
  8 13  1  0  0  0  0
  8  4  1  0  0  0  0
  9 15  1  0  0  0  0
 10 11  1  0  0  0  0
 11 24  1  6  0  0  0
 11 14  1  0  0  0  0
 12 13  1  0  0  0  0
 14  3  1  0  0  0  0
 15  6  1  6  0  0  0
 15 18  1  0  0  0  0
 16 12  1  1  0  0  0
 16  7  1  0  0  0  0
 16  2  1  0  0  0  0
 17  5  1  0  0  0  0
 17 19  1  1  0  0  0
 18 27  1  1  0  0  0
 20 21  1  0  0  0  0
 23 22  1  0  0  0  0
 24 25  1  0  0  0  0
 26 25  1  0  0  0  0
 27 28  1  0  0  0  0
 29 37  1  0  0  0  0
 29 36  1  0  0  0  0
 30 31  1  0  0  0  0
 31 34  1  0  0  0  0
 33 34  1  0  0  0  0
 34 32  2  0  0  0  0
 35 30  1  0  0  0  0
 36 33  1  0  0  0  0
 37 28  1  6  0  0  0
 37 35  1  0  0  0  0
M  END
>  <MODEL>
2

>  <REMARK>
 VINA RESULT:      -5.6      1.698      2.058
  Name = 
  7 active torsions:
  status: ('A' for Active; 'I' for Inactive)
    1  A    between atoms: C_3  and  C_32
    2  A    between atoms: C_5  and  N_23
    3  A    between atoms: C_10  and  C_14
    4  A    between atoms: C_21  and  C_32
    5  A    between atoms: C_27  and  O_33
    6  A    between atoms: C_27  and  C_37
    7  A    between atoms: O_33  and  C_34
                            x       y       z     vdW  Elec       q    Type
                         _______ _______ _______ _____ _____    ______ ____

>  <TORSDO>
F 7

$$$$
=
 OpenBabel11052415253D

 37 40  0  0  1  0  0  0  0  0999 V2000
  183.3700  177.3150  137.3210 C   0  0  1  0  0  3  0  0  0  0  0  0
  186.3630  178.7920  138.8460 O   0  0  0  0  0  0  0  0  0  0  0  0
  184.0540  176.1950  136.5220 C   0  0  1  0  0  3  0  0  0  0  0  0
  188.7410  177.9300  136.8300 C   0  0  0  0  0  2  0  0  0  0  0  0
  184.2450  179.0560  140.0060 C   0  0  1  0  0  3  0  0  0  0  0  0
  181.4120  177.2660  140.5550 O   0  0  0  0  0  1  0  0  0  0  0  0
  187.4250  177.2880  137.2840 C   0  0  1  0  0  3  0  0  0  0  0  0
  189.7810  177.6310  137.7260 O   0  0  0  0  0  0  0  0  0  0  0  0
  182.7490  176.7950  138.6310 C   0  0  0  0  0  2  0  0  0  0  0  0
  187.4220  175.7860  137.0570 C   0  0  0  0  0  2  0  0  0  0  0  0
  186.1200  175.3500  136.3900 C   0  0  2  0  0  3  0  0  0  0  0  0
  188.3540  177.6820  139.6430 C   0  0  0  0  0  2  0  0  0  0  0  0
  189.5020  178.3540  138.8960 C   0  0  0  0  0  2  0  0  0  0  0  0
  185.0390  175.5170  137.2660 O   0  0  0  0  0  0  0  0  0  0  0  0
  181.9600  177.8500  139.4140 C   0  0  2  0  0  3  0  0  0  0  0  0
  187.1090  177.6120  138.7540 C   0  0  1  0  0  3  0  0  0  0  0  0
  185.0410  178.3450  138.9010 C   0  0  1  0  0  3  0  0  0  0  0  0
  182.7120  179.1410  139.8020 C   0  0  2  0  0  3  0  0  0  0  0  0
  184.3680  178.4580  137.5350 C   0  0  0  0  0  2  0  0  0  0  0  0
  185.7470  179.4220  142.0160 C   0  0  0  0  0  1  0  0  0  0  0  0
  184.6330  178.5840  141.4060 C   0  0  0  0  0  2  0  0  0  0  0  0
  182.2260  175.9820  134.9650 C   0  0  0  0  0  1  0  0  0  0  0  0
  183.0900  175.2780  135.9050 N   0  0  0  0  0  2  0  0  0  0  0  0
  186.2180  173.8870  135.9820 C   0  0  0  0  0  2  0  0  0  0  0  0
  186.0420  172.9710  137.1820 C   0  0  0  0  0  2  0  0  0  0  0  0
  184.8560  172.2450  137.0650 O   0  0  0  0  0  1  0  0  0  0  0  0
  182.4000  180.1580  138.8960 O   0  0  0  0  0  0  0  0  0  0  0  0
  181.0520  180.4520  139.1310 C   0  0  0  0  0  2  0  0  0  0  0  0
  179.9990  180.5190  136.8600 C   0  0  0  0  0  2  0  0  0  0  0  0
  179.3820  183.6260  137.9480 C   0  0  0  0  0  2  0  0  0  0  0  0
  179.0980  183.5250  136.5260 N   0  0  0  0  0  2  0  0  0  0  0  0
  181.1630  184.0030  135.5590 O   0  0  0  0  0  0  0  0  0  0  0  0
  180.1130  181.9980  134.8100 C   0  0  0  0  0  2  0  0  0  0  0  0
  180.1490  183.2580  135.6030 C   0  0  0  0  0  0  0  0  0  0  0  0
  179.3830  182.2400  138.5880 C   0  0  0  0  0  2  0  0  0  0  0  0
  180.7690  180.8600  135.5880 C   0  0  0  0  0  2  0  0  0  0  0  0
  180.4970  181.3540  138.0370 C   0  0  1  0  0  3  0  0  0  0  0  0
  1 19  1  1  0  0  0
  1  9  1  0  0  0  0
  2 17  1  0  0  0  0
  3 23  1  1  0  0  0
  3 14  1  0  0  0  0
  3  1  1  0  0  0  0
  4  8  1  0  0  0  0
  5 21  1  1  0  0  0
  7  4  1  1  0  0  0
  7 16  1  0  0  0  0
  8 13  1  0  0  0  0
  9 15  1  0  0  0  0
 10  7  1  0  0  0  0
 11 24  1  1  0  0  0
 11 10  1  0  0  0  0
 11 14  1  0  0  0  0
 13 12  1  0  0  0  0
 15 18  1  0  0  0  0
 15  6  1  1  0  0  0
 16  2  1  0  0  0  0
 16 12  1  1  0  0  0
 17 19  1  6  0  0  0
 17  5  1  0  0  0  0
 18 27  1  6  0  0  0
 18  5  1  0  0  0  0
 21 20  1  0  0  0  0
 22 23  1  0  0  0  0
 24 25  1  0  0  0  0
 26 25  1  0  0  0  0
 27 28  1  0  0  0  0
 29 37  1  0  0  0  0
 30 35  1  0  0  0  0
 31 30  1  0  0  0  0
 32 34  2  0  0  0  0
 33 36  1  0  0  0  0
 33 34  1  0  0  0  0
 34 31  1  0  0  0  0
 36 29  1  0  0  0  0
 37 35  1  0  0  0  0
 37 28  1  1  0  0  0
M  END
>  <MODEL>
3

>  <REMARK>
 VINA RESULT:      -5.5      5.572      8.720
  Name = 
  7 active torsions:
  status: ('A' for Active; 'I' for Inactive)
    1  A    between atoms: C_3  and  C_32
    2  A    between atoms: C_5  and  N_23
    3  A    between atoms: C_10  and  C_14
    4  A    between atoms: C_21  and  C_32
    5  A    between atoms: C_27  and  O_33
    6  A    between atoms: C_27  and  C_37
    7  A    between atoms: O_33  and  C_34
                            x       y       z     vdW  Elec       q    Type
                         _______ _______ _______ _____ _____    ______ ____

>  <TORSDO>
F 7

$$$$
=
 OpenBabel11052415253D

 37 40  0  0  1  0  0  0  0  0999 V2000
  181.1470  180.7170  139.4460 C   0  0  1  0  0  3  0  0  0  0  0  0
  181.3710  177.2440  138.2840 O   0  0  0  0  0  0  0  0  0  0  0  0
  180.7070  181.3680  138.1250 C   0  0  1  0  0  3  0  0  0  0  0  0
  181.8290  177.5430  135.0960 C   0  0  0  0  0  2  0  0  0  0  0  0
  180.9360  177.6300  140.6420 C   0  0  1  0  0  3  0  0  0  0  0  0
  179.2260  179.8330  142.5800 O   0  0  0  0  0  1  0  0  0  0  0  0
  181.0680  178.3460  136.1570 C   0  0  1  0  0  3  0  0  0  0  0  0
  181.0360  176.4970  134.5950 O   0  0  0  0  0  0  0  0  0  0  0  0
  179.9640  180.5000  140.4070 C   0  0  0  0  0  2  0  0  0  0  0  0
  179.9960  179.2250  135.5390 C   0  0  0  0  0  2  0  0  0  0  0  0
  180.0660  180.6370  136.1120 C   0  0  2  0  0  3  0  0  0  0  0  0
  179.9660  176.0920  136.6930 C   0  0  0  0  0  2  0  0  0  0  0  0
  180.9280  175.5610  135.6350 C   0  0  0  0  0  2  0  0  0  0  0  0
  179.7010  180.6370  137.4660 O   0  0  0  0  0  0  0  0  0  0  0  0
  180.3620  179.9530  141.7820 C   0  0  2  0  0  3  0  0  0  0  0  0
  180.4630  177.4350  137.2380 C   0  0  1  0  0  3  0  0  0  0  0  0
  181.0050  178.2110  139.2230 C   0  0  1  0  0  3  0  0  0  0  0  0
  181.1560  178.6290  141.8050 C   0  0  2  0  0  3  0  0  0  0  0  0
  181.9200  179.4310  139.1360 C   0  0  0  0  0  2  0  0  0  0  0  0
  180.0130  175.2710  140.5580 C   0  0  0  0  0  1  0  0  0  0  0  0
  179.7180  176.7330  140.8520 C   0  0  0  0  0  2  0  0  0  0  0  0
  181.4620  183.6460  137.8940 C   0  0  0  0  0  1  0  0  0  0  0  0
  180.3550  182.7830  138.2880 N   0  0  0  0  0  2  0  0  0  0  0  0
  179.1300  181.5530  135.3370 C   0  0  0  0  0  2  0  0  0  0  0  0
  179.8930  182.7020  134.6970 C   0  0  0  0  0  2  0  0  0  0  0  0
  181.2470  182.3840  134.5940 O   0  0  0  0  0  1  0  0  0  0  0  0
  182.5180  178.8990  141.9610 O   0  0  0  0  0  0  0  0  0  0  0  0
  182.7690  178.7230  143.3260 C   0  0  0  0  0  2  0  0  0  0  0  0
  185.0740  179.3290  142.5580 C   0  0  0  0  0  2  0  0  0  0  0  0
  185.7140  178.1020  145.6090 C   0  0  0  0  0  2  0  0  0  0  0  0
  186.9490  178.2630  144.8620 N   0  0  0  0  0  2  0  0  0  0  0  0
  187.1300  176.2330  143.7320 O   0  0  0  0  0  0  0  0  0  0  0  0
  187.3260  178.1870  142.3800 C   0  0  0  0  0  2  0  0  0  0  0  0
  187.1830  177.4900  143.6890 C   0  0  0  0  0  0  0  0  0  0  0  0
  184.6120  178.9710  145.0050 C   0  0  0  0  0  2  0  0  0  0  0  0
  185.9570  178.3950  141.7360 C   0  0  0  0  0  2  0  0  0  0  0  0
  184.2590  178.5430  143.5830 C   0  0  1  0  0  3  0  0  0  0  0  0
  1 19  1  6  0  0  0
  1  9  1  0  0  0  0
  2 17  1  0  0  0  0
  3 23  1  1  0  0  0
  3  1  1  0  0  0  0
  5 21  1  1  0  0  0
  5 18  1  0  0  0  0
  7  4  1  6  0  0  0
  7 16  1  0  0  0  0
  8  4  1  0  0  0  0
  8 13  1  0  0  0  0
  9 15  1  0  0  0  0
 10 11  1  0  0  0  0
 10  7  1  0  0  0  0
 11 24  1  6  0  0  0
 11 14  1  0  0  0  0
 13 12  1  0  0  0  0
 14  3  1  0  0  0  0
 15 18  1  0  0  0  0
 15  6  1  1  0  0  0
 16 12  1  6  0  0  0
 16  2  1  0  0  0  0
 17 19  1  1  0  0  0
 17  5  1  0  0  0  0
 18 27  1  6  0  0  0
 20 21  1  0  0  0  0
 22 23  1  0  0  0  0
 25 24  1  0  0  0  0
 26 25  1  0  0  0  0
 27 28  1  0  0  0  0
 29 37  1  0  0  0  0
 31 30  1  0  0  0  0
 33 34  1  0  0  0  0
 34 32  2  0  0  0  0
 34 31  1  0  0  0  0
 35 30  1  0  0  0  0
 36 33  1  0  0  0  0
 36 29  1  0  0  0  0
 37 28  1  6  0  0  0
 37 35  1  0  0  0  0
M  END
>  <MODEL>
4

>  <REMARK>
 VINA RESULT:      -5.5      6.539      9.332
  Name = 
  7 active torsions:
  status: ('A' for Active; 'I' for Inactive)
    1  A    between atoms: C_3  and  C_32
    2  A    between atoms: C_5  and  N_23
    3  A    between atoms: C_10  and  C_14
    4  A    between atoms: C_21  and  C_32
    5  A    between atoms: C_27  and  O_33
    6  A    between atoms: C_27  and  C_37
    7  A    between atoms: O_33  and  C_34
                            x       y       z     vdW  Elec       q    Type
                         _______ _______ _______ _____ _____    ______ ____

>  <TORSDO>
F 7

$$$$
=
 OpenBabel11052415253D

 37 40  0  0  1  0  0  0  0  0999 V2000
  183.5160  177.9100  139.5310 C   0  0  1  0  0  3  0  0  0  0  0  0
  181.4730  179.5440  136.9580 O   0  0  0  0  0  0  0  0  0  0  0  0
  182.8420  178.5150  140.7710 C   0  0  1  0  0  3  0  0  0  0  0  0
  180.3570  182.1890  138.4480 C   0  0  0  0  0  2  0  0  0  0  0  0
  182.5130  177.4190  136.4070 C   0  0  1  0  0  3  0  0  0  0  0  0
  183.2640  174.4860  137.9470 O   0  0  0  0  0  1  0  0  0  0  0  0
  180.7080  180.7650  138.8950 C   0  0  1  0  0  3  0  0  0  0  0  0
  179.0390  182.2530  137.9660 O   0  0  0  0  0  0  0  0  0  0  0  0
  183.0310  176.4760  139.2500 C   0  0  0  0  0  2  0  0  0  0  0  0
  180.0290  180.4010  140.2040 C   0  0  0  0  0  2  0  0  0  0  0  0
  181.0280  179.7630  141.1640 C   0  0  2  0  0  3  0  0  0  0  0  0
  179.1160  180.0640  137.0100 C   0  0  0  0  0  2  0  0  0  0  0  0
  179.0410  181.5650  136.7430 C   0  0  0  0  0  2  0  0  0  0  0  0
  181.4360  178.5090  140.6860 O   0  0  0  0  0  0  0  0  0  0  0  0
  183.7510  175.7850  138.0870 C   0  0  2  0  0  3  0  0  0  0  0  0
  180.3780  179.7280  137.8090 C   0  0  1  0  0  3  0  0  0  0  0  0
  182.1280  178.4330  137.4950 C   0  0  1  0  0  3  0  0  0  0  0  0
  183.7210  176.5010  136.7200 C   0  0  2  0  0  3  0  0  0  0  0  0
  183.3230  178.8590  138.3430 C   0  0  0  0  0  2  0  0  0  0  0  0
  180.3270  176.2590  136.9590 C   0  0  0  0  0  1  0  0  0  0  0  0
  181.3090  176.6510  135.8650 C   0  0  0  0  0  2  0  0  0  0  0  0
  184.4830  178.6490  142.5320 C   0  0  0  0  0  1  0  0  0  0  0  0
  183.3290  177.9200  142.0210 N   0  0  0  0  0  2  0  0  0  0  0  0
  180.3880  179.5950  142.5350 C   0  0  0  0  0  2  0  0  0  0  0  0
  179.6990  178.2460  142.6560 C   0  0  0  0  0  2  0  0  0  0  0  0
  179.7110  177.8160  143.9840 O   0  0  0  0  0  1  0  0  0  0  0  0
  184.9190  177.1940  136.5260 O   0  0  0  0  0  0  0  0  0  0  0  0
  185.9120  176.2090  136.5200 C   0  0  0  0  0  2  0  0  0  0  0  0
  188.2180  177.0330  135.9970 C   0  0  0  0  0  2  0  0  0  0  0  0
  187.8600  178.0830  139.1580 C   0  0  0  0  0  2  0  0  0  0  0  0
  189.2450  178.2120  138.7380 N   0  0  0  0  0  2  0  0  0  0  0  0
  190.1340  176.1250  139.2680 O   0  0  0  0  0  0  0  0  0  0  0  0
  190.5200  176.8750  137.0380 C   0  0  0  0  0  2  0  0  0  0  0  0
  190.0100  177.0520  138.4250 C   0  0  0  0  0  0  0  0  0  0  0  0
  186.9430  177.9980  137.9390 C   0  0  0  0  0  2  0  0  0  0  0  0
  189.4720  176.1800  136.1700 C   0  0  0  0  0  2  0  0  0  0  0  0
  187.2100  176.7460  137.1080 C   0  0  1  0  0  3  0  0  0  0  0  0
  1 19  1  6  0  0  0
  1  3  1  0  0  0  0
  2 17  1  0  0  0  0
  2 16  1  0  0  0  0
  3 23  1  1  0  0  0
  5 21  1  1  0  0  0
  5 18  1  0  0  0  0
  5 17  1  0  0  0  0
  7  4  1  6  0  0  0
  7 10  1  0  0  0  0
  8  4  1  0  0  0  0
  9  1  1  0  0  0  0
 10 11  1  0  0  0  0
 11 24  1  1  0  0  0
 13 12  1  0  0  0  0
 13  8  1  0  0  0  0
 14  3  1  0  0  0  0
 14 11  1  0  0  0  0
 15  6  1  6  0  0  0
 15  9  1  0  0  0  0
 16 12  1  6  0  0  0
 16  7  1  0  0  0  0
 17 19  1  6  0  0  0
 18 27  1  1  0  0  0
 18 15  1  0  0  0  0
 21 20  1  0  0  0  0
 23 22  1  0  0  0  0
 24 25  1  0  0  0  0
 25 26  1  0  0  0  0
 28 27  1  0  0  0  0
 29 36  1  0  0  0  0
 29 37  1  0  0  0  0
 31 30  1  0  0  0  0
 33 34  1  0  0  0  0
 34 31  1  0  0  0  0
 34 32  2  0  0  0  0
 35 30  1  0  0  0  0
 36 33  1  0  0  0  0
 37 28  1  6  0  0  0
 37 35  1  0  0  0  0
M  END
>  <MODEL>
5

>  <REMARK>
 VINA RESULT:      -5.5      5.473      9.318
  Name = 
  7 active torsions:
  status: ('A' for Active; 'I' for Inactive)
    1  A    between atoms: C_3  and  C_32
    2  A    between atoms: C_5  and  N_23
    3  A    between atoms: C_10  and  C_14
    4  A    between atoms: C_21  and  C_32
    5  A    between atoms: C_27  and  O_33
    6  A    between atoms: C_27  and  C_37
    7  A    between atoms: O_33  and  C_34
                            x       y       z     vdW  Elec       q    Type
                         _______ _______ _______ _____ _____    ______ ____

>  <TORSDO>
F 7

$$$$
=
 OpenBabel11052415253D

 37 40  0  0  1  0  0  0  0  0999 V2000
  184.0780  178.9030  139.4260 C   0  0  1  0  0  3  0  0  0  0  0  0
  180.5870  178.8400  140.5530 O   0  0  0  0  0  0  0  0  0  0  0  0
  184.7570  178.9780  140.8010 C   0  0  1  0  0  3  0  0  0  0  0  0
  180.7120  180.2320  143.4710 C   0  0  0  0  0  2  0  0  0  0  0  0
  181.1090  177.8250  138.4100 C   0  0  1  0  0  3  0  0  0  0  0  0
  183.6310  176.0450  136.9920 O   0  0  0  0  0  1  0  0  0  0  0  0
  181.6640  179.3530  142.6530 C   0  0  1  0  0  3  0  0  0  0  0  0
  179.8050  179.4450  144.2010 O   0  0  0  0  0  0  0  0  0  0  0  0
  184.0980  177.4760  138.8480 C   0  0  0  0  0  2  0  0  0  0  0  0
  182.6980  178.6720  143.5320 C   0  0  0  0  0  2  0  0  0  0  0  0
  184.0930  178.8210  142.9310 C   0  0  2  0  0  3  0  0  0  0  0  0
  179.6520  177.7680  142.5060 C   0  0  0  0  0  2  0  0  0  0  0  0
  178.9320  178.8840  143.2570 C   0  0  0  0  0  2  0  0  0  0  0  0
  184.1940  178.0910  141.7380 O   0  0  0  0  0  0  0  0  0  0  0  0
  183.5290  177.3640  137.4290 C   0  0  2  0  0  3  0  0  0  0  0  0
  180.9030  178.3150  141.8110 C   0  0  1  0  0  3  0  0  0  0  0  0
  181.6300  178.3960  139.7370 C   0  0  1  0  0  3  0  0  0  0  0  0
  182.0880  177.8740  137.2100 C   0  0  2  0  0  3  0  0  0  0  0  0
  182.6690  179.4950  139.5310 C   0  0  0  0  0  2  0  0  0  0  0  0
  178.9370  176.5190  138.3850 C   0  0  0  0  0  1  0  0  0  0  0  0
  180.4440  176.4600  138.5780 C   0  0  0  0  0  2  0  0  0  0  0  0
  186.6390  178.6160  139.3380 C   0  0  0  0  0  1  0  0  0  0  0  0
  186.2160  178.8470  140.7140 N   0  0  0  0  0  2  0  0  0  0  0  0
  185.1350  178.3190  143.9190 C   0  0  0  0  0  2  0  0  0  0  0  0
  185.1390  179.1610  145.1850 C   0  0  0  0  0  2  0  0  0  0  0  0
  184.8630  178.3630  146.2960 O   0  0  0  0  0  1  0  0  0  0  0  0
  182.1220  179.1600  136.6650 O   0  0  0  0  0  0  0  0  0  0  0  0
  180.7830  179.4910  136.4310 C   0  0  0  0  0  2  0  0  0  0  0  0
  179.9170  181.6540  135.5130 C   0  0  0  0  0  2  0  0  0  0  0  0
  179.9990  182.3320  138.7930 C   0  0  0  0  0  2  0  0  0  0  0  0
  179.7860  183.5520  138.0320 N   0  0  0  0  0  2  0  0  0  0  0  0
  181.9610  184.2530  137.5770 O   0  0  0  0  0  0  0  0  0  0  0  0
  180.5080  184.1080  135.6920 C   0  0  0  0  0  2  0  0  0  0  0  0
  180.7970  184.0320  137.1510 C   0  0  0  0  0  0  0  0  0  0  0  0
  179.6280  181.1120  137.9530 C   0  0  0  0  0  2  0  0  0  0  0  0
  180.8240  182.7760  135.0160 C   0  0  0  0  0  2  0  0  0  0  0  0
  180.5290  180.9620  136.7300 C   0  0  1  0  0  3  0  0  0  0  0  0
  1  9  1  1  0  0  0
  1 19  1  0  0  0  0
  1  3  1  0  0  0  0
  2 16  1  0  0  0  0
  3 23  1  6  0  0  0
  3 14  1  0  0  0  0
  4  8  1  0  0  0  0
  5 21  1  1  0  0  0
  5 17  1  0  0  0  0
  7  4  1  1  0  0  0
  7 10  1  0  0  0  0
 11 10  1  0  0  0  0
 11 24  1  1  0  0  0
 12 13  1  0  0  0  0
 13  8  1  0  0  0  0
 14 11  1  0  0  0  0
 15  6  1  1  0  0  0
 15  9  1  0  0  0  0
 16 12  1  1  0  0  0
 16  7  1  0  0  0  0
 17 19  1  6  0  0  0
 17  2  1  0  0  0  0
 18 27  1  1  0  0  0
 18 15  1  0  0  0  0
 18  5  1  0  0  0  0
 20 21  1  0  0  0  0
 22 23  1  0  0  0  0
 24 25  1  0  0  0  0
 25 26  1  0  0  0  0
 28 27  1  0  0  0  0
 29 37  1  0  0  0  0
 31 30  1  0  0  0  0
 33 34  1  0  0  0  0
 34 32  2  0  0  0  0
 34 31  1  0  0  0  0
 35 30  1  0  0  0  0
 36 29  1  0  0  0  0
 36 33  1  0  0  0  0
 37 28  1  6  0  0  0
 37 35  1  0  0  0  0
M  END
>  <MODEL>
6

>  <REMARK>
 VINA RESULT:      -5.3      6.592     10.532
  Name = 
  7 active torsions:
  status: ('A' for Active; 'I' for Inactive)
    1  A    between atoms: C_3  and  C_32
    2  A    between atoms: C_5  and  N_23
    3  A    between atoms: C_10  and  C_14
    4  A    between atoms: C_21  and  C_32
    5  A    between atoms: C_27  and  O_33
    6  A    between atoms: C_27  and  C_37
    7  A    between atoms: O_33  and  C_34
                            x       y       z     vdW  Elec       q    Type
                         _______ _______ _______ _____ _____    ______ ____

>  <TORSDO>
F 7

$$$$
=
 OpenBabel11052415253D

 37 40  0  0  1  0  0  0  0  0999 V2000
  188.0550  174.5620  136.4660 C   0  0  1  0  0  3  0  0  0  0  0  0
  185.4730  176.9240  137.5710 O   0  0  0  0  0  0  0  0  0  0  0  0
  187.1330  173.4340  135.9780 C   0  0  1  0  0  3  0  0  0  0  0  0
  182.9200  175.0280  138.1630 C   0  0  0  0  0  2  0  0  0  0  0  0
  187.6270  177.8240  136.8980 C   0  0  1  0  0  3  0  0  0  0  0  0
  190.0370  177.1810  134.5940 O   0  0  0  0  0  1  0  0  0  0  0  0
  184.0840  174.9910  137.1660 C   0  0  1  0  0  3  0  0  0  0  0  0
  181.8630  175.8120  137.6720 O   0  0  0  0  0  0  0  0  0  0  0  0
  188.5850  175.4200  135.3020 C   0  0  0  0  0  2  0  0  0  0  0  0
  183.7690  174.1200  135.9630 C   0  0  0  0  0  2  0  0  0  0  0  0
  184.9340  173.1810  135.6640 C   0  0  2  0  0  3  0  0  0  0  0  0
  183.3140  177.3690  136.5850 C   0  0  0  0  0  2  0  0  0  0  0  0
  182.3140  177.1400  137.7140 C   0  0  0  0  0  2  0  0  0  0  0  0
  186.0480  173.9070  135.2170 O   0  0  0  0  0  0  0  0  0  0  0  0
  189.5950  176.4940  135.7220 C   0  0  2  0  0  3  0  0  0  0  0  0
  184.4960  176.4030  136.7160 C   0  0  1  0  0  3  0  0  0  0  0  0
  186.6740  176.6190  136.9270 C   0  0  1  0  0  3  0  0  0  0  0  0
  189.1390  177.5020  136.7980 C   0  0  2  0  0  3  0  0  0  0  0  0
  187.3230  175.3790  137.5360 C   0  0  0  0  0  2  0  0  0  0  0  0
  186.6870  178.3190  134.5960 C   0  0  0  0  0  1  0  0  0  0  0  0
  187.1830  178.9010  135.9100 C   0  0  0  0  0  2  0  0  0  0  0  0
  187.9420  171.1680  136.1260 C   0  0  0  0  0  1  0  0  0  0  0  0
  187.8700  172.3640  135.2960 N   0  0  0  0  0  2  0  0  0  0  0  0
  184.5240  172.1780  134.5950 C   0  0  0  0  0  2  0  0  0  0  0  0
  184.4950  170.7650  135.1530 C   0  0  0  0  0  2  0  0  0  0  0  0
  183.4600  170.6320  136.0790 O   0  0  0  0  0  1  0  0  0  0  0  0
  189.6340  177.1150  138.0470 O   0  0  0  0  0  0  0  0  0  0  0  0
  189.3730  178.1980  138.8930 C   0  0  0  0  0  2  0  0  0  0  0  0
  188.7450  177.1340  141.0700 C   0  0  0  0  0  2  0  0  0  0  0  0
  192.0520  177.5000  141.4620 C   0  0  0  0  0  2  0  0  0  0  0  0
  191.4310  177.1500  142.7280 N   0  0  0  0  0  2  0  0  0  0  0  0
  190.8440  179.2290  143.6000 O   0  0  0  0  0  0  0  0  0  0  0  0
  189.0960  177.6090  143.5310 C   0  0  0  0  0  2  0  0  0  0  0  0
  190.5080  178.0430  143.3450 C   0  0  0  0  0  0  0  0  0  0  0  0
  191.1400  177.1140  140.3000 C   0  0  0  0  0  2  0  0  0  0  0  0
  188.2720  177.9270  142.2850 C   0  0  0  0  0  2  0  0  0  0  0  0
  189.8300  177.8970  140.3140 C   0  0  1  0  0  3  0  0  0  0  0  0
  1  9  1  6  0  0  0
  1 19  1  0  0  0  0
  3 23  1  6  0  0  0
  3  1  1  0  0  0  0
  5 21  1  6  0  0  0
  5 17  1  0  0  0  0
  7 10  1  6  0  0  0
  7  4  1  0  0  0  0
  8 13  1  0  0  0  0
  8  4  1  0  0  0  0
  9 15  1  0  0  0  0
 11 24  1  6  0  0  0
 11 10  1  0  0  0  0
 12 13  1  0  0  0  0
 14 11  1  0  0  0  0
 14  3  1  0  0  0  0
 15  6  1  6  0  0  0
 15 18  1  0  0  0  0
 16 12  1  1  0  0  0
 16  7  1  0  0  0  0
 16  2  1  0  0  0  0
 17 19  1  1  0  0  0
 17  2  1  0  0  0  0
 18  5  1  0  0  0  0
 18 27  1  1  0  0  0
 20 21  1  0  0  0  0
 23 22  1  0  0  0  0
 24 25  1  0  0  0  0
 25 26  1  0  0  0  0
 27 28  1  0  0  0  0
 29 36  1  0  0  0  0
 30 31  1  0  0  0  0
 31 34  1  0  0  0  0
 34 33  1  0  0  0  0
 34 32  2  0  0  0  0
 35 37  1  0  0  0  0
 35 30  1  0  0  0  0
 36 33  1  0  0  0  0
 37 28  1  6  0  0  0
 37 29  1  0  0  0  0
M  END
>  <MODEL>
7

>  <REMARK>
 VINA RESULT:      -5.3      2.449      4.551
  Name = 
  7 active torsions:
  status: ('A' for Active; 'I' for Inactive)
    1  A    between atoms: C_3  and  C_32
    2  A    between atoms: C_5  and  N_23
    3  A    between atoms: C_10  and  C_14
    4  A    between atoms: C_21  and  C_32
    5  A    between atoms: C_27  and  O_33
    6  A    between atoms: C_27  and  C_37
    7  A    between atoms: O_33  and  C_34
                            x       y       z     vdW  Elec       q    Type
                         _______ _______ _______ _____ _____    ______ ____

>  <TORSDO>
F 7

$$$$
=
 OpenBabel11052415253D

 37 40  0  0  1  0  0  0  0  0999 V2000
  185.2970  178.6130  138.2950 C   0  0  1  0  0  3  0  0  0  0  0  0
  183.2160  179.0120  141.2910 O   0  0  0  0  0  0  0  0  0  0  0  0
  186.6620  178.4710  138.9870 C   0  0  1  0  0  3  0  0  0  0  0  0
  185.2900  180.1320  143.5060 C   0  0  0  0  0  2  0  0  0  0  0  0
  182.1750  178.1000  139.2950 C   0  0  1  0  0  3  0  0  0  0  0  0
  183.0020  176.0620  136.7070 O   0  0  0  0  0  1  0  0  0  0  0  0
  185.3990  179.1810  142.3090 C   0  0  1  0  0  3  0  0  0  0  0  0
  184.8770  179.4430  144.6590 O   0  0  0  0  0  0  0  0  0  0  0  0
  184.7210  177.2510  137.8670 C   0  0  0  0  0  2  0  0  0  0  0  0
  186.6160  178.2780  142.4140 C   0  0  0  0  0  2  0  0  0  0  0  0
  187.3790  178.2530  141.0930 C   0  0  2  0  0  3  0  0  0  0  0  0
  183.4570  177.9500  143.4470 C   0  0  0  0  0  2  0  0  0  0  0  0
  183.5330  179.1030  144.4440 C   0  0  0  0  0  2  0  0  0  0  0  0
  186.6220  177.6120  140.1010 O   0  0  0  0  0  0  0  0  0  0  0  0
  183.4120  177.3420  137.0760 C   0  0  2  0  0  3  0  0  0  0  0  0
  184.1210  178.3460  142.1250 C   0  0  1  0  0  3  0  0  0  0  0  0
  183.4720  178.4750  140.0270 C   0  0  1  0  0  3  0  0  0  0  0  0
  182.2390  178.0890  137.7470 C   0  0  2  0  0  3  0  0  0  0  0  0
  184.3560  179.4090  139.2050 C   0  0  0  0  0  2  0  0  0  0  0  0
  180.1870  177.1480  140.5470 C   0  0  0  0  0  1  0  0  0  0  0  0
  181.5160  176.8480  139.8710 C   0  0  0  0  0  2  0  0  0  0  0  0
  187.6590  178.9340  136.8410 C   0  0  0  0  0  1  0  0  0  0  0  0
  187.7320  178.1190  138.0470 N   0  0  0  0  0  2  0  0  0  0  0  0
  188.6980  177.5160  141.2760 C   0  0  0  0  0  2  0  0  0  0  0  0
  188.7210  176.7530  142.5900 C   0  0  0  0  0  2  0  0  0  0  0  0
  189.8360  175.9150  142.6420 O   0  0  0  0  0  1  0  0  0  0  0  0
  182.1650  179.3930  137.2510 O   0  0  0  0  0  0  0  0  0  0  0  0
  180.7970  179.6630  137.1410 C   0  0  0  0  0  2  0  0  0  0  0  0
  180.1500  181.5270  135.5990 C   0  0  0  0  0  2  0  0  0  0  0  0
  179.7570  182.9940  138.5850 C   0  0  0  0  0  2  0  0  0  0  0  0
  179.7020  183.9870  137.5250 N   0  0  0  0  0  2  0  0  0  0  0  0
  181.9420  184.5670  137.2540 O   0  0  0  0  0  0  0  0  0  0  0  0
  180.7860  183.9530  135.2610 C   0  0  0  0  0  2  0  0  0  0  0  0
  180.8490  184.2400  136.7210 C   0  0  0  0  0  0  0  0  0  0  0  0
  179.4780  181.6020  138.0230 C   0  0  0  0  0  2  0  0  0  0  0  0
  181.1570  182.4970  134.9880 C   0  0  0  0  0  2  0  0  0  0  0  0
  180.5480  181.1610  137.0280 C   0  0  1  0  0  3  0  0  0  0  0  0
  1  9  1  1  0  0  0
  1  3  1  0  0  0  0
  1 19  1  0  0  0  0
  2 16  1  0  0  0  0
  3 23  1  6  0  0  0
  3 14  1  0  0  0  0
  4  8  1  0  0  0  0
  5 21  1  1  0  0  0
  5 17  1  0  0  0  0
  7 10  1  1  0  0  0
  7  4  1  0  0  0  0
 11 24  1  1  0  0  0
 11 10  1  0  0  0  0
 12 13  1  0  0  0  0
 13  8  1  0  0  0  0
 14 11  1  0  0  0  0
 15  6  1  1  0  0  0
 15 18  1  0  0  0  0
 15  9  1  0  0  0  0
 16  7  1  0  0  0  0
 16 12  1  1  0  0  0
 17 19  1  6  0  0  0
 17  2  1  0  0  0  0
 18 27  1  1  0  0  0
 18  5  1  0  0  0  0
 21 20  1  0  0  0  0
 22 23  1  0  0  0  0
 24 25  1  0  0  0  0
 25 26  1  0  0  0  0
 28 27  1  0  0  0  0
 29 37  1  0  0  0  0
 31 30  1  0  0  0  0
 33 34  1  0  0  0  0
 34 32  2  0  0  0  0
 34 31  1  0  0  0  0
 35 30  1  0  0  0  0
 36 33  1  0  0  0  0
 36 29  1  0  0  0  0
 37 28  1  6  0  0  0
 37 35  1  0  0  0  0
M  END
>  <MODEL>
8

>  <REMARK>
 VINA RESULT:      -5.1      5.642      9.376
  Name = 
  7 active torsions:
  status: ('A' for Active; 'I' for Inactive)
    1  A    between atoms: C_3  and  C_32
    2  A    between atoms: C_5  and  N_23
    3  A    between atoms: C_10  and  C_14
    4  A    between atoms: C_21  and  C_32
    5  A    between atoms: C_27  and  O_33
    6  A    between atoms: C_27  and  C_37
    7  A    between atoms: O_33  and  C_34
                            x       y       z     vdW  Elec       q    Type
                         _______ _______ _______ _____ _____    ______ ____

>  <TORSDO>
F 7

$$$$
=
 OpenBabel11052415253D

 37 40  0  0  1  0  0  0  0  0999 V2000
  183.8410  177.6870  139.0860 C   0  0  1  0  0  3  0  0  0  0  0  0
  181.2860  175.0600  138.9170 O   0  0  0  0  0  0  0  0  0  0  0  0
  184.6290  177.3160  137.8210 C   0  0  1  0  0  3  0  0  0  0  0  0
  182.7000  172.7440  137.1570 C   0  0  0  0  0  2  0  0  0  0  0  0
  180.7250  177.1210  140.0740 C   0  0  1  0  0  3  0  0  0  0  0  0
  181.3510  180.4460  139.7820 O   0  0  0  0  0  1  0  0  0  0  0  0
  182.7650  174.2750  137.1770 C   0  0  1  0  0  3  0  0  0  0  0  0
  181.6320  172.2970  136.3610 O   0  0  0  0  0  0  0  0  0  0  0  0
  182.8860  178.8710  138.8460 C   0  0  0  0  0  2  0  0  0  0  0  0
  183.2830  174.8360  135.8650 C   0  0  0  0  0  2  0  0  0  0  0  0
  184.3560  175.8900  136.1210 C   0  0  2  0  0  3  0  0  0  0  0  0
  180.2130  174.1220  136.9670 C   0  0  0  0  0  2  0  0  0  0  0  0
  180.4630  172.6210  137.0670 C   0  0  0  0  0  2  0  0  0  0  0  0
  183.7960  177.0250  136.7240 O   0  0  0  0  0  0  0  0  0  0  0  0
  182.1540  179.3530  140.1030 C   0  0  2  0  0  3  0  0  0  0  0  0
  181.4050  174.9000  137.5330 C   0  0  1  0  0  3  0  0  0  0  0  0
  181.6880  176.3790  139.1350 C   0  0  1  0  0  3  0  0  0  0  0  0
  181.3210  178.3060  140.8730 C   0  0  2  0  0  3  0  0  0  0  0  0
  183.1340  176.4370  139.6200 C   0  0  0  0  0  2  0  0  0  0  0  0
  179.5740  177.9140  137.9590 C   0  0  0  0  0  1  0  0  0  0  0  0
  179.3970  177.4660  139.4020 C   0  0  0  0  0  2  0  0  0  0  0  0
  186.9090  178.0120  138.1870 C   0  0  0  0  0  1  0  0  0  0  0  0
  185.6610  178.3060  137.4920 N   0  0  0  0  0  2  0  0  0  0  0  0
  185.0080  176.2890  134.8050 C   0  0  0  0  0  2  0  0  0  0  0  0
  186.3190  175.5490  134.5970 C   0  0  0  0  0  2  0  0  0  0  0  0
  187.3390  176.1570  135.3310 O   0  0  0  0  0  1  0  0  0  0  0  0
  182.0530  177.8330  141.9660 O   0  0  0  0  0  0  0  0  0  0  0  0
  182.4270  178.9790  142.6760 C   0  0  0  0  0  2  0  0  0  0  0  0
  184.8890  179.3760  142.4480 C   0  0  0  0  0  2  0  0  0  0  0  0
  184.6570  178.6200  145.7030 C   0  0  0  0  0  2  0  0  0  0  0  0
  186.0480  178.6190  145.2840 N   0  0  0  0  0  2  0  0  0  0  0  0
  186.3540  176.4320  144.5390 O   0  0  0  0  0  0  0  0  0  0  0  0
  187.0230  178.1420  143.0190 C   0  0  0  0  0  2  0  0  0  0  0  0
  186.5090  177.6640  144.3320 C   0  0  0  0  0  0  0  0  0  0  0  0
  183.8080  179.4220  144.7190 C   0  0  0  0  0  2  0  0  0  0  0  0
  185.8770  178.2940  142.0220 C   0  0  0  0  0  2  0  0  0  0  0  0
  183.7890  178.7900  143.3300 C   0  0  1  0  0  3  0  0  0  0  0  0
  1  9  1  6  0  0  0
  1 19  1  0  0  0  0
  2 17  1  0  0  0  0
  3 23  1  6  0  0  0
  3  1  1  0  0  0  0
  4  7  1  0  0  0  0
  5 21  1  6  0  0  0
  5 18  1  0  0  0  0
  7 10  1  6  0  0  0
  7 16  1  0  0  0  0
  8 13  1  0  0  0  0
  8  4  1  0  0  0  0
  9 15  1  0  0  0  0
 10 11  1  0  0  0  0
 11 24  1  6  0  0  0
 11 14  1  0  0  0  0
 12 13  1  0  0  0  0
 14  3  1  0  0  0  0
 15  6  1  6  0  0  0
 15 18  1  0  0  0  0
 16 12  1  1  0  0  0
 16  2  1  0  0  0  0
 17 19  1  1  0  0  0
 17  5  1  0  0  0  0
 18 27  1  1  0  0  0
 20 21  1  0  0  0  0
 23 22  1  0  0  0  0
 25 24  1  0  0  0  0
 25 26  1  0  0  0  0
 27 28  1  0  0  0  0
 29 37  1  0  0  0  0
 31 30  1  0  0  0  0
 33 34  1  0  0  0  0
 34 32  2  0  0  0  0
 34 31  1  0  0  0  0
 35 30  1  0  0  0  0
 36 29  1  0  0  0  0
 36 33  1  0  0  0  0
 37 28  1  6  0  0  0
 37 35  1  0  0  0  0
M  END
>  <MODEL>
9

>  <REMARK>
 VINA RESULT:      -5.1      4.826      6.427
  Name = 
  7 active torsions:
  status: ('A' for Active; 'I' for Inactive)
    1  A    between atoms: C_3  and  C_32
    2  A    between atoms: C_5  and  N_23
    3  A    between atoms: C_10  and  C_14
    4  A    between atoms: C_21  and  C_32
    5  A    between atoms: C_27  and  O_33
    6  A    between atoms: C_27  and  C_37
    7  A    between atoms: O_33  and  C_34
                            x       y       z     vdW  Elec       q    Type
                         _______ _______ _______ _____ _____    ______ ____

>  <TORSDO>
F 7

$$$$
