=
 OpenBabel11052413383D

 27 30  0  0  1  0  0  0  0  0999 V2000
  188.1730  176.8630  143.7510 C   0  0  0  0  0  3  0  0  0  0  0  0
  186.0850  178.0970  144.3300 C   0  0  0  0  0  0  0  0  0  0  0  0
  186.4660  178.6240  141.9470 C   0  0  0  0  0  3  0  0  0  0  0  0
  181.8750  179.2900  143.1880 S   0  0  0  0  0  0  0  0  0  0  0  0
  181.0300  178.5510  140.6120 C   0  0  0  0  0  1  0  0  0  0  0  0
  185.2240  178.8050  145.3220 C   0  0  0  0  0  3  0  0  0  0  0  0
  183.3820  178.1130  141.5490 C   0  0  0  0  0  0  0  0  0  0  0  0
  183.8970  177.4230  140.3300 C   0  0  0  0  0  1  0  0  0  0  0  0
  184.1460  178.3180  142.7120 C   0  0  0  0  0  0  0  0  0  0  0  0
  187.2870  177.5870  144.7010 C   0  0  0  0  0  0  0  0  0  0  0  0
  182.0860  178.6120  141.6600 C   0  0  0  0  0  0  0  0  0  0  0  0
  183.4360  178.9590  143.7120 C   0  0  0  0  0  0  0  0  0  0  0  0
  188.3590  177.1180  142.4470 C   0  0  0  0  0  0  0  0  0  0  0  0
  185.5810  177.8990  142.9070 C   0  0  2  0  0  3  0  0  0  0  0  0
  183.9880  179.2160  145.0390 C   0  0  0  0  0  3  0  0  0  0  0  0
  187.7320  178.2630  141.7370 C   0  0  0  0  0  0  0  0  0  0  0  0
  188.7420  177.8610  148.6920 N   0  0  0  0  0  0  0  0  0  0  0  0
  187.7770  177.6570  146.1020 C   0  0  0  0  0  0  0  0  0  0  0  0
  186.9530  178.1280  147.1330 C   0  0  0  0  0  3  0  0  0  0  0  0
  187.4560  178.2190  148.4330 C   0  0  0  0  0  3  0  0  0  0  0  0
  189.5680  177.4160  147.7090 C   0  0  0  0  0  3  0  0  0  0  0  0
  189.1020  177.3110  146.3970 C   0  0  0  0  0  3  0  0  0  0  0  0
  189.3660  176.2800  141.7310 C   0  0  0  0  0  2  0  0  0  0  0  0
  190.1700  175.6100  142.6540 O   0  0  0  0  0  1  0  0  0  0  0  0
  188.5000  178.9990  140.6880 C   0  0  0  0  0  2  0  0  0  0  0  0
  188.2780  178.3660  139.3260 C   0  0  0  0  0  2  0  0  0  0  0  0
  188.9730  179.0890  138.3590 O   0  0  0  0  0  1  0  0  0  0  0  0
  1 10  1  0  0  0  0
  2 10  2  0  0  0  0
  2  6  1  0  0  0  0
  4 12  1  0  0  0  0
  5 11  1  0  0  0  0
  7 11  2  0  0  0  0
  7  9  1  0  0  0  0
  8  7  1  0  0  0  0
  9 14  1  0  0  0  0
  9 12  2  0  0  0  0
 10 18  1  0  0  0  0
 11  4  1  0  0  0  0
 12 15  1  0  0  0  0
 13  1  2  0  0  0  0
 14  3  1  6  0  0  0
 14  2  1  0  0  0  0
 15  6  2  0  0  0  0
 16  3  2  0  0  0  0
 16 13  1  0  0  0  0
 18 22  2  0  0  0  0
 18 19  1  0  0  0  0
 19 20  2  0  0  0  0
 20 17  1  0  0  0  0
 21 17  2  0  0  0  0
 22 21  1  0  0  0  0
 23 13  1  0  0  0  0
 23 24  1  0  0  0  0
 25 16  1  0  0  0  0
 26 25  1  0  0  0  0
 27 26  1  0  0  0  0
M  END
>  <MODEL>
1

>  <REMARK>
 VINA RESULT:      -9.6      0.000      0.000
  Name = 
  4 active torsions:
  status: ('A' for Active; 'I' for Inactive)
    1  A    between atoms: C_9  and  C_15
    2  A    between atoms: C_10  and  C_20
    3  A    between atoms: C_18  and  C_22
    4  A    between atoms: C_20  and  C_26
                            x       y       z     vdW  Elec       q    Type
                         _______ _______ _______ _____ _____    ______ ____

>  <TORSDO>
F 4

$$$$
=
 OpenBabel11052413383D

 27 30  0  0  1  0  0  0  0  0999 V2000
  189.1180  176.6140  142.7970 C   0  0  0  0  0  3  0  0  0  0  0  0
  187.3090  177.7690  144.0670 C   0  0  0  0  0  0  0  0  0  0  0  0
  187.0900  178.6360  141.7640 C   0  0  0  0  0  3  0  0  0  0  0  0
  183.0080  179.1550  144.2400 S   0  0  0  0  0  0  0  0  0  0  0  0
  181.4960  178.8090  141.8960 C   0  0  0  0  0  1  0  0  0  0  0  0
  186.7660  178.3310  145.3370 C   0  0  0  0  0  3  0  0  0  0  0  0
  183.9870  178.2180  142.1170 C   0  0  0  0  0  0  0  0  0  0  0  0
  184.1380  177.7100  140.7220 C   0  0  0  0  0  1  0  0  0  0  0  0
  185.0320  178.2430  143.0570 C   0  0  0  0  0  0  0  0  0  0  0  0
  188.5410  177.1990  144.0360 C   0  0  0  0  0  0  0  0  0  0  0  0
  182.7870  178.7060  142.6310 C   0  0  0  0  0  0  0  0  0  0  0  0
  184.6330  178.7360  144.2870 C   0  0  0  0  0  0  0  0  0  0  0  0
  188.9750  177.0570  141.5380 C   0  0  0  0  0  0  0  0  0  0  0  0
  186.4480  177.7860  142.8100 C   0  0  2  0  0  3  0  0  0  0  0  0
  185.5190  178.7910  145.4470 C   0  0  0  0  0  3  0  0  0  0  0  0
  188.2420  178.2990  141.1830 C   0  0  0  0  0  0  0  0  0  0  0  0
  190.9720  176.8790  147.5160 N   0  0  0  0  0  0  0  0  0  0  0  0
  189.3770  177.0580  145.2560 C   0  0  0  0  0  0  0  0  0  0  0  0
  188.8160  177.1860  146.5350 C   0  0  0  0  0  3  0  0  0  0  0  0
  189.6360  177.0870  147.6610 C   0  0  0  0  0  3  0  0  0  0  0  0
  191.5440  176.7660  146.2880 C   0  0  0  0  0  3  0  0  0  0  0  0
  190.7580  176.8590  145.1380 C   0  0  0  0  0  3  0  0  0  0  0  0
  189.7250  176.3240  140.4750 C   0  0  0  0  0  2  0  0  0  0  0  0
  191.0580  176.7350  140.4630 O   0  0  0  0  0  1  0  0  0  0  0  0
  188.7480  179.1740  140.0830 C   0  0  0  0  0  2  0  0  0  0  0  0
  188.3510  178.6090  138.7310 C   0  0  0  0  0  2  0  0  0  0  0  0
  188.9670  179.3460  137.7210 O   0  0  0  0  0  1  0  0  0  0  0  0
  1 10  1  0  0  0  0
  2  6  1  0  0  0  0
  4 12  1  0  0  0  0
  5 11  1  0  0  0  0
  6 15  2  0  0  0  0
  7 11  2  0  0  0  0
  7  9  1  0  0  0  0
  8  7  1  0  0  0  0
  9 12  2  0  0  0  0
 10  2  2  0  0  0  0
 10 18  1  0  0  0  0
 11  4  1  0  0  0  0
 12 15  1  0  0  0  0
 13  1  2  0  0  0  0
 14  3  1  6  0  0  0
 14  9  1  0  0  0  0
 14  2  1  0  0  0  0
 16 13  1  0  0  0  0
 16  3  2  0  0  0  0
 17 20  1  0  0  0  0
 18 19  1  0  0  0  0
 19 20  2  0  0  0  0
 21 17  2  0  0  0  0
 22 18  2  0  0  0  0
 22 21  1  0  0  0  0
 23 13  1  0  0  0  0
 24 23  1  0  0  0  0
 25 16  1  0  0  0  0
 26 25  1  0  0  0  0
 27 26  1  0  0  0  0
M  END
>  <MODEL>
2

>  <REMARK>
 VINA RESULT:      -8.5      1.246      1.570
  Name = 
  4 active torsions:
  status: ('A' for Active; 'I' for Inactive)
    1  A    between atoms: C_9  and  C_15
    2  A    between atoms: C_10  and  C_20
    3  A    between atoms: C_18  and  C_22
    4  A    between atoms: C_20  and  C_26
                            x       y       z     vdW  Elec       q    Type
                         _______ _______ _______ _____ _____    ______ ____

>  <TORSDO>
F 4

$$$$
=
 OpenBabel11052413383D

 27 30  0  0  1  0  0  0  0  0999 V2000
  187.2660  177.3820  144.2990 C   0  0  0  0  0  3  0  0  0  0  0  0
  186.9400  178.0820  141.9280 C   0  0  0  0  0  0  0  0  0  0  0  0
  189.3550  178.4040  142.3350 C   0  0  0  0  0  3  0  0  0  0  0  0
  188.3970  177.9800  137.6490 S   0  0  0  0  0  0  0  0  0  0  0  0
  190.8820  176.7440  137.2120 C   0  0  0  0  0  1  0  0  0  0  0  0
  186.0870  178.6510  140.8450 C   0  0  0  0  0  3  0  0  0  0  0  0
  189.8030  177.0560  139.5220 C   0  0  0  0  0  0  0  0  0  0  0  0
  190.8980  176.3860  140.2840 C   0  0  0  0  0  1  0  0  0  0  0  0
  188.6490  177.5920  140.1210 C   0  0  1  0  0  3  0  0  0  0  0  0
  186.4570  177.9540  143.1910 C   0  0  0  0  0  0  0  0  0  0  0  0
  189.8110  177.2050  138.1370 C   0  0  0  0  0  0  0  0  0  0  0  0
  187.7720  178.1360  139.1990 C   0  0  0  0  0  0  0  0  0  0  0  0
  188.5840  177.5200  144.5090 C   0  0  0  0  0  0  0  0  0  0  0  0
  188.3430  177.5910  141.5980 C   0  0  0  0  0  0  0  0  0  0  0  0
  186.4710  178.6860  139.5690 C   0  0  0  0  0  3  0  0  0  0  0  0
  189.4650  178.3670  143.6630 C   0  0  0  0  0  0  0  0  0  0  0  0
  182.4810  179.0800  144.2100 N   0  0  0  0  0  0  0  0  0  0  0  0
  185.0600  178.3160  143.5430 C   0  0  0  0  0  0  0  0  0  0  0  0
  184.0630  178.3940  142.5600 C   0  0  0  0  0  3  0  0  0  0  0  0
  182.7690  178.7750  142.9180 C   0  0  0  0  0  3  0  0  0  0  0  0
  183.4300  179.0290  145.1820 C   0  0  0  0  0  3  0  0  0  0  0  0
  184.7370  178.6510  144.8640 C   0  0  0  0  0  3  0  0  0  0  0  0
  189.1410  176.8980  145.7470 C   0  0  0  0  0  2  0  0  0  0  0  0
  188.4390  177.3510  146.8640 O   0  0  0  0  0  1  0  0  0  0  0  0
  190.5720  179.1490  144.2920 C   0  0  0  0  0  2  0  0  0  0  0  0
  191.9180  178.6660  143.7830 C   0  0  0  0  0  2  0  0  0  0  0  0
  191.9640  177.2740  143.8410 O   0  0  0  0  0  1  0  0  0  0  0  0
  1 13  1  0  0  0  0
  2 10  1  0  0  0  0
  3 16  1  0  0  0  0
  4 11  1  0  0  0  0
  4 12  1  0  0  0  0
  5 11  1  0  0  0  0
  6  2  2  0  0  0  0
  7  9  1  0  0  0  0
  7  8  1  0  0  0  0
  9 12  1  6  0  0  0
  9 14  1  0  0  0  0
 10 18  1  0  0  0  0
 10  1  2  0  0  0  0
 11  7  2  0  0  0  0
 12 15  2  0  0  0  0
 13 23  1  0  0  0  0
 14  2  1  0  0  0  0
 14  3  2  0  0  0  0
 15  6  1  0  0  0  0
 16 25  1  0  0  0  0
 16 13  2  0  0  0  0
 17 21  1  0  0  0  0
 18 22  1  0  0  0  0
 19 20  1  0  0  0  0
 19 18  2  0  0  0  0
 20 17  2  0  0  0  0
 22 21  2  0  0  0  0
 23 24  1  0  0  0  0
 26 27  1  0  0  0  0
 26 25  1  0  0  0  0
M  END
>  <MODEL>
3

>  <REMARK>
 VINA RESULT:      -8.2      3.007      5.716
  Name = 
  4 active torsions:
  status: ('A' for Active; 'I' for Inactive)
    1  A    between atoms: C_9  and  C_15
    2  A    between atoms: C_10  and  C_20
    3  A    between atoms: C_18  and  C_22
    4  A    between atoms: C_20  and  C_26
                            x       y       z     vdW  Elec       q    Type
                         _______ _______ _______ _____ _____    ______ ____

>  <TORSDO>
F 4

$$$$
=
 OpenBabel11052413383D

 27 30  0  0  1  0  0  0  0  0999 V2000
  188.8730  176.7310  144.3620 C   0  0  0  0  0  3  0  0  0  0  0  0
  187.6830  177.7970  142.4480 C   0  0  0  0  0  0  0  0  0  0  0  0
  190.0720  177.9360  141.8360 C   0  0  0  0  0  3  0  0  0  0  0  0
  187.2410  178.2730  137.9720 S   0  0  0  0  0  0  0  0  0  0  0  0
  189.1820  176.9980  136.3900 C   0  0  0  0  0  1  0  0  0  0  0  0
  186.5280  178.5630  141.8980 C   0  0  0  0  0  3  0  0  0  0  0  0
  189.1820  177.0090  138.9600 C   0  0  0  0  0  0  0  0  0  0  0  0
  190.4140  176.1790  139.1060 C   0  0  0  0  0  1  0  0  0  0  0  0
  188.4390  177.5030  140.0460 C   0  0  1  0  0  3  0  0  0  0  0  0
  187.7490  177.5030  143.7720 C   0  0  0  0  0  0  0  0  0  0  0  0
  188.6390  177.3650  137.7270 C   0  0  0  0  0  0  0  0  0  0  0  0
  187.3260  178.2230  139.6490 C   0  0  0  0  0  0  0  0  0  0  0  0
  190.1680  176.7720  144.0130 C   0  0  0  0  0  0  0  0  0  0  0  0
  188.7670  177.2940  141.5030 C   0  0  0  0  0  0  0  0  0  0  0  0
  186.3570  178.7720  140.5930 C   0  0  0  0  0  3  0  0  0  0  0  0
  190.7120  177.6940  142.9810 C   0  0  0  0  0  0  0  0  0  0  0  0
  184.6880  178.6510  146.4980 N   0  0  0  0  0  0  0  0  0  0  0  0
  186.6660  177.8750  144.7180 C   0  0  0  0  0  0  0  0  0  0  0  0
  185.3980  178.2530  144.2540 C   0  0  0  0  0  3  0  0  0  0  0  0
  184.4130  178.6350  145.1670 C   0  0  0  0  0  3  0  0  0  0  0  0
  185.9120  178.3050  146.9760 C   0  0  0  0  0  3  0  0  0  0  0  0
  186.9240  177.9170  146.0940 C   0  0  0  0  0  3  0  0  0  0  0  0
  191.1130  175.9440  144.8200 C   0  0  0  0  0  2  0  0  0  0  0  0
  191.1860  176.4390  146.1220 O   0  0  0  0  0  1  0  0  0  0  0  0
  192.0560  178.3170  143.1730 C   0  0  0  0  0  2  0  0  0  0  0  0
  192.0290  179.2830  144.3430 C   0  0  0  0  0  2  0  0  0  0  0  0
  190.9300  180.1310  144.2210 O   0  0  0  0  0  1  0  0  0  0  0  0
  2 10  1  0  0  0  0
  3 16  1  0  0  0  0
  4 12  1  0  0  0  0
  5 11  1  0  0  0  0
  6  2  2  0  0  0  0
  7  8  1  0  0  0  0
  9  7  1  1  0  0  0
  9 14  1  0  0  0  0
 10  1  2  0  0  0  0
 10 18  1  0  0  0  0
 11  4  1  0  0  0  0
 11  7  2  0  0  0  0
 12  9  1  0  0  0  0
 12 15  2  0  0  0  0
 13  1  1  0  0  0  0
 13 23  1  0  0  0  0
 14  3  2  0  0  0  0
 14  2  1  0  0  0  0
 15  6  1  0  0  0  0
 16 25  1  0  0  0  0
 16 13  2  0  0  0  0
 17 21  1  0  0  0  0
 18 22  1  0  0  0  0
 19 18  2  0  0  0  0
 19 20  1  0  0  0  0
 20 17  2  0  0  0  0
 22 21  2  0  0  0  0
 23 24  1  0  0  0  0
 25 26  1  0  0  0  0
 27 26  1  0  0  0  0
M  END
>  <MODEL>
4

>  <REMARK>
 VINA RESULT:      -8.0      2.955      4.868
  Name = 
  4 active torsions:
  status: ('A' for Active; 'I' for Inactive)
    1  A    between atoms: C_9  and  C_15
    2  A    between atoms: C_10  and  C_20
    3  A    between atoms: C_18  and  C_22
    4  A    between atoms: C_20  and  C_26
                            x       y       z     vdW  Elec       q    Type
                         _______ _______ _______ _____ _____    ______ ____

>  <TORSDO>
F 4

$$$$
=
 OpenBabel11052413383D

 27 30  0  0  1  0  0  0  0  0999 V2000
  187.0440  178.9310  141.3980 C   0  0  0  0  0  3  0  0  0  0  0  0
  186.8670  177.9440  143.6810 C   0  0  0  0  0  0  0  0  0  0  0  0
  188.9230  176.9480  142.7420 C   0  0  0  0  0  3  0  0  0  0  0  0
  188.9150  176.7780  147.5410 S   0  0  0  0  0  0  0  0  0  0  0  0
  191.7120  177.0500  147.5940 C   0  0  0  0  0  1  0  0  0  0  0  0
  186.0490  177.4880  144.8410 C   0  0  0  0  0  3  0  0  0  0  0  0
  190.2460  177.5350  145.5410 C   0  0  0  0  0  0  0  0  0  0  0  0
  191.3730  177.9480  144.6540 C   0  0  0  0  0  1  0  0  0  0  0  0
  188.8990  177.5180  145.1360 C   0  0  0  0  0  0  0  0  0  0  0  0
  186.2690  178.4520  142.5720 C   0  0  0  0  0  0  0  0  0  0  0  0
  190.4160  177.1370  146.8650 C   0  0  0  0  0  0  0  0  0  0  0  0
  188.0420  177.1210  146.1480 C   0  0  0  0  0  0  0  0  0  0  0  0
  188.1810  178.4190  140.9020 C   0  0  0  0  0  0  0  0  0  0  0  0
  188.3870  177.8900  143.7670 C   0  0  2  0  0  3  0  0  0  0  0  0
  186.5900  177.0960  145.9950 C   0  0  0  0  0  3  0  0  0  0  0  0
  188.8310  177.1930  141.4340 C   0  0  0  0  0  0  0  0  0  0  0  0
  182.0410  178.8640  142.3130 N   0  0  0  0  0  0  0  0  0  0  0  0
  184.7970  178.6280  142.4800 C   0  0  0  0  0  0  0  0  0  0  0  0
  184.0570  179.1130  143.5670 C   0  0  0  0  0  3  0  0  0  0  0  0
  182.6690  179.2300  143.4610 C   0  0  0  0  0  3  0  0  0  0  0  0
  182.7310  178.3760  141.2480 C   0  0  0  0  0  3  0  0  0  0  0  0
  184.1200  178.2440  141.3150 C   0  0  0  0  0  3  0  0  0  0  0  0
  188.7200  179.0480  139.6590 C   0  0  0  0  0  2  0  0  0  0  0  0
  187.9310  178.6930  138.5650 O   0  0  0  0  0  1  0  0  0  0  0  0
  189.4820  176.2290  140.4970 C   0  0  0  0  0  2  0  0  0  0  0  0
  190.9030  176.6670  140.1890 C   0  0  0  0  0  2  0  0  0  0  0  0
  191.1970  176.3860  138.8560 O   0  0  0  0  0  1  0  0  0  0  0  0
  1 10  1  0  0  0  0
  2 14  1  0  0  0  0
  2  6  1  0  0  0  0
  6 15  2  0  0  0  0
  7 11  2  0  0  0  0
  8  7  1  0  0  0  0
  9  7  1  0  0  0  0
  9 12  2  0  0  0  0
 10  2  2  0  0  0  0
 11  4  1  0  0  0  0
 11  5  1  0  0  0  0
 12  4  1  0  0  0  0
 13  1  2  0  0  0  0
 13 16  1  0  0  0  0
 14  3  1  6  0  0  0
 14  9  1  0  0  0  0
 15 12  1  0  0  0  0
 16  3  2  0  0  0  0
 17 20  1  0  0  0  0
 18 10  1  0  0  0  0
 18 19  1  0  0  0  0
 20 19  2  0  0  0  0
 21 22  1  0  0  0  0
 21 17  2  0  0  0  0
 22 18  2  0  0  0  0
 23 13  1  0  0  0  0
 24 23  1  0  0  0  0
 25 16  1  0  0  0  0
 26 25  1  0  0  0  0
 27 26  1  0  0  0  0
M  END
>  <MODEL>
5

>  <REMARK>
 VINA RESULT:      -8.0      2.803      6.058
  Name = 
  4 active torsions:
  status: ('A' for Active; 'I' for Inactive)
    1  A    between atoms: C_9  and  C_15
    2  A    between atoms: C_10  and  C_20
    3  A    between atoms: C_18  and  C_22
    4  A    between atoms: C_20  and  C_26
                            x       y       z     vdW  Elec       q    Type
                         _______ _______ _______ _____ _____    ______ ____

>  <TORSDO>
F 4

$$$$
=
 OpenBabel11052413383D

 27 30  0  0  1  0  0  0  0  0999 V2000
  186.5490  178.7770  141.8390 C   0  0  0  0  0  3  0  0  0  0  0  0
  186.0610  178.2140  144.2190 C   0  0  0  0  0  0  0  0  0  0  0  0
  188.2330  177.1290  143.7670 C   0  0  0  0  0  3  0  0  0  0  0  0
  187.5570  177.8290  148.4690 S   0  0  0  0  0  0  0  0  0  0  0  0
  190.3170  178.1930  148.8520 C   0  0  0  0  0  1  0  0  0  0  0  0
  185.0910  177.9510  145.3210 C   0  0  0  0  0  3  0  0  0  0  0  0
  189.1490  178.2530  146.5640 C   0  0  0  0  0  0  0  0  0  0  0  0
  190.3870  178.5330  145.7780 C   0  0  0  0  0  1  0  0  0  0  0  0
  187.8730  178.1210  145.9900 C   0  0  0  0  0  0  0  0  0  0  0  0
  185.6210  178.4950  142.9650 C   0  0  0  0  0  0  0  0  0  0  0  0
  189.1360  178.1060  147.9490 C   0  0  0  0  0  0  0  0  0  0  0  0
  186.8850  177.8880  146.9310 C   0  0  0  0  0  0  0  0  0  0  0  0
  187.7470  178.2190  141.6040 C   0  0  0  0  0  0  0  0  0  0  0  0
  187.5540  178.2240  144.5190 C   0  0  2  0  0  3  0  0  0  0  0  0
  185.4690  177.7900  146.5900 C   0  0  0  0  0  3  0  0  0  0  0  0
  188.3230  177.1310  142.4360 C   0  0  0  0  0  0  0  0  0  0  0  0
  181.4720  178.7190  142.0400 N   0  0  0  0  0  0  0  0  0  0  0  0
  184.1750  178.6050  142.6420 C   0  0  0  0  0  0  0  0  0  0  0  0
  183.2450  179.0030  143.6140 C   0  0  0  0  0  3  0  0  0  0  0  0
  181.8880  179.0590  143.2890 C   0  0  0  0  0  3  0  0  0  0  0  0
  182.3490  178.3150  141.0830 C   0  0  0  0  0  3  0  0  0  0  0  0
  183.7140  178.2460  141.3690 C   0  0  0  0  0  3  0  0  0  0  0  0
  188.4510  178.6300  140.3530 C   0  0  0  0  0  2  0  0  0  0  0  0
  187.5840  178.5280  139.2640 O   0  0  0  0  0  1  0  0  0  0  0  0
  189.1040  176.0340  141.7890 C   0  0  0  0  0  2  0  0  0  0  0  0
  190.5220  176.0030  142.3300 C   0  0  0  0  0  2  0  0  0  0  0  0
  191.2560  177.0460  141.7690 O   0  0  0  0  0  1  0  0  0  0  0  0
  1 10  1  0  0  0  0
  2 14  1  0  0  0  0
  2  6  1  0  0  0  0
  6 15  2  0  0  0  0
  7 11  2  0  0  0  0
  8  7  1  0  0  0  0
  9  7  1  0  0  0  0
  9 12  2  0  0  0  0
 10  2  2  0  0  0  0
 11  4  1  0  0  0  0
 11  5  1  0  0  0  0
 12  4  1  0  0  0  0
 13  1  2  0  0  0  0
 13 16  1  0  0  0  0
 14  3  1  6  0  0  0
 14  9  1  0  0  0  0
 15 12  1  0  0  0  0
 16  3  2  0  0  0  0
 17 20  1  0  0  0  0
 18 10  1  0  0  0  0
 18 19  1  0  0  0  0
 20 19  2  0  0  0  0
 21 22  1  0  0  0  0
 21 17  2  0  0  0  0
 22 18  2  0  0  0  0
 23 13  1  0  0  0  0
 24 23  1  0  0  0  0
 25 26  1  0  0  0  0
 25 16  1  0  0  0  0
 27 26  1  0  0  0  0
M  END
>  <MODEL>
6

>  <REMARK>
 VINA RESULT:      -7.6      2.618      6.012
  Name = 
  4 active torsions:
  status: ('A' for Active; 'I' for Inactive)
    1  A    between atoms: C_9  and  C_15
    2  A    between atoms: C_10  and  C_20
    3  A    between atoms: C_18  and  C_22
    4  A    between atoms: C_20  and  C_26
                            x       y       z     vdW  Elec       q    Type
                         _______ _______ _______ _____ _____    ______ ____

>  <TORSDO>
F 4

$$$$
=
 OpenBabel11052413383D

 27 30  0  0  1  0  0  0  0  0999 V2000
  189.2630  176.3710  143.6920 C   0  0  0  0  0  3  0  0  0  0  0  0
  187.7290  177.7250  142.2660 C   0  0  0  0  0  0  0  0  0  0  0  0
  189.8360  177.6350  140.9820 C   0  0  0  0  0  3  0  0  0  0  0  0
  186.0860  178.6210  138.1490 S   0  0  0  0  0  0  0  0  0  0  0  0
  187.2970  177.2660  136.0070 C   0  0  0  0  0  1  0  0  0  0  0  0
  186.5790  178.6640  142.1190 C   0  0  0  0  0  3  0  0  0  0  0  0
  188.0390  177.0610  138.4580 C   0  0  0  0  0  0  0  0  0  0  0  0
  189.1360  176.0850  138.1950 C   0  0  0  0  0  1  0  0  0  0  0  0
  187.7140  177.5460  139.7370 C   0  0  0  0  0  0  0  0  0  0  0  0
  188.1320  177.3150  143.4970 C   0  0  0  0  0  0  0  0  0  0  0  0
  187.2170  177.5800  137.4600 C   0  0  0  0  0  0  0  0  0  0  0  0
  186.6420  178.4210  139.7210 C   0  0  0  0  0  0  0  0  0  0  0  0
  190.3960  176.2900  142.9770 C   0  0  0  0  0  0  0  0  0  0  0  0
  188.4160  177.1790  141.0210 C   0  0  2  0  0  3  0  0  0  0  0  0
  186.0700  178.9990  140.9340 C   0  0  0  0  0  3  0  0  0  0  0  0
  190.7390  177.2250  141.8730 C   0  0  0  0  0  0  0  0  0  0  0  0
  186.0750  178.4220  147.0550 N   0  0  0  0  0  0  0  0  0  0  0  0
  187.4280  177.7310  144.7370 C   0  0  0  0  0  0  0  0  0  0  0  0
  188.1110  177.8330  145.9570 C   0  0  0  0  0  3  0  0  0  0  0  0
  187.4120  178.1880  147.1130 C   0  0  0  0  0  3  0  0  0  0  0  0
  185.3830  178.3150  145.8900 C   0  0  0  0  0  3  0  0  0  0  0  0
  186.0470  177.9630  144.7120 C   0  0  0  0  0  3  0  0  0  0  0  0
  191.4110  175.2930  143.4290 C   0  0  0  0  0  2  0  0  0  0  0  0
  191.9690  175.6980  144.6420 O   0  0  0  0  0  1  0  0  0  0  0  0
  192.1530  177.6690  141.6870 C   0  0  0  0  0  2  0  0  0  0  0  0
  192.5760  177.5000  140.2390 C   0  0  0  0  0  2  0  0  0  0  0  0
  193.9290  177.1720  140.1850 O   0  0  0  0  0  1  0  0  0  0  0  0
  2 10  2  0  0  0  0
  3 16  2  0  0  0  0
  4 12  1  0  0  0  0
  5 11  1  0  0  0  0
  6  2  1  0  0  0  0
  7  9  1  0  0  0  0
  8  7  1  0  0  0  0
  9 14  1  0  0  0  0
 10  1  1  0  0  0  0
 10 18  1  0  0  0  0
 11  4  1  0  0  0  0
 11  7  2  0  0  0  0
 12  9  2  0  0  0  0
 12 15  1  0  0  0  0
 13 23  1  0  0  0  0
 13  1  2  0  0  0  0
 14  3  1  6  0  0  0
 14  2  1  0  0  0  0
 15  6  2  0  0  0  0
 16 13  1  0  0  0  0
 17 20  1  0  0  0  0
 18 19  1  0  0  0  0
 19 20  2  0  0  0  0
 21 17  2  0  0  0  0
 22 18  2  0  0  0  0
 22 21  1  0  0  0  0
 23 24  1  0  0  0  0
 25 16  1  0  0  0  0
 26 25  1  0  0  0  0
 27 26  1  0  0  0  0
M  END
>  <MODEL>
7

>  <REMARK>
 VINA RESULT:      -7.3      2.651      4.235
  Name = 
  4 active torsions:
  status: ('A' for Active; 'I' for Inactive)
    1  A    between atoms: C_9  and  C_15
    2  A    between atoms: C_10  and  C_20
    3  A    between atoms: C_18  and  C_22
    4  A    between atoms: C_20  and  C_26
                            x       y       z     vdW  Elec       q    Type
                         _______ _______ _______ _____ _____    ______ ____

>  <TORSDO>
F 4

$$$$
=
 OpenBabel11052413383D

 27 30  0  0  1  0  0  0  0  0999 V2000
  188.8070  178.2360  141.2530 C   0  0  0  0  0  3  0  0  0  0  0  0
  186.9640  178.1350  142.9310 C   0  0  1  0  0  3  0  0  0  0  0  0
  188.7480  176.7240  143.8950 C   0  0  0  0  0  3  0  0  0  0  0  0
  185.6970  178.2610  147.2700 S   0  0  0  0  0  0  0  0  0  0  0  0
  187.7690  178.3280  149.1680 C   0  0  0  0  0  1  0  0  0  0  0  0
  185.5140  178.1790  143.2750 C   0  0  0  0  0  3  0  0  0  0  0  0
  188.1310  178.1630  146.6290 C   0  0  0  0  0  0  0  0  0  0  0  0
  189.6220  178.1520  146.6970 C   0  0  0  0  0  1  0  0  0  0  0  0
  187.4030  178.1020  145.4280 C   0  0  0  0  0  0  0  0  0  0  0  0
  187.3720  178.2610  141.6420 C   0  0  0  0  0  0  0  0  0  0  0  0
  187.3110  178.2460  147.7530 C   0  0  0  0  0  0  0  0  0  0  0  0
  186.0340  178.1530  145.6290 C   0  0  0  0  0  0  0  0  0  0  0  0
  189.7900  177.5000  141.7950 C   0  0  0  0  0  0  0  0  0  0  0  0
  187.9950  178.0040  144.0450 C   0  0  0  0  0  0  0  0  0  0  0  0
  185.0710  178.1810  144.5320 C   0  0  0  0  0  3  0  0  0  0  0  0
  189.5690  176.4970  142.8690 C   0  0  0  0  0  0  0  0  0  0  0  0
  184.6170  178.8540  138.4520 N   0  0  0  0  0  0  0  0  0  0  0  0
  186.4150  178.5000  140.5310 C   0  0  0  0  0  0  0  0  0  0  0  0
  185.1340  179.0130  140.7780 C   0  0  0  0  0  3  0  0  0  0  0  0
  184.2440  179.1890  139.7160 C   0  0  0  0  0  3  0  0  0  0  0  0
  185.8470  178.3410  138.1860 C   0  0  0  0  0  3  0  0  0  0  0  0
  186.7650  178.1500  139.2210 C   0  0  0  0  0  3  0  0  0  0  0  0
  191.1400  177.6090  141.1670 C   0  0  0  0  0  2  0  0  0  0  0  0
  191.0750  177.2200  139.8280 O   0  0  0  0  0  1  0  0  0  0  0  0
  190.3430  175.2200  142.8650 C   0  0  0  0  0  2  0  0  0  0  0  0
  191.7260  175.4360  143.4520 C   0  0  0  0  0  2  0  0  0  0  0  0
  191.9920  174.4440  144.3940 O   0  0  0  0  0  1  0  0  0  0  0  0
  1 10  2  0  0  0  0
  1 13  1  0  0  0  0
  2  6  1  1  0  0  0
  2 14  1  0  0  0  0
  3 14  2  0  0  0  0
  4 11  1  0  0  0  0
  6 15  2  0  0  0  0
  7  8  1  0  0  0  0
  7 11  2  0  0  0  0
  9 12  2  0  0  0  0
  9  7  1  0  0  0  0
 10  2  1  0  0  0  0
 11  5  1  0  0  0  0
 12  4  1  0  0  0  0
 13 16  2  0  0  0  0
 14  9  1  0  0  0  0
 15 12  1  0  0  0  0
 16  3  1  0  0  0  0
 17 20  1  0  0  0  0
 18 19  1  0  0  0  0
 18 10  1  0  0  0  0
 20 19  2  0  0  0  0
 21 17  2  0  0  0  0
 21 22  1  0  0  0  0
 22 18  2  0  0  0  0
 23 13  1  0  0  0  0
 24 23  1  0  0  0  0
 25 16  1  0  0  0  0
 25 26  1  0  0  0  0
 26 27  1  0  0  0  0
M  END
>  <MODEL>
8

>  <REMARK>
 VINA RESULT:      -7.0      2.892      6.147
  Name = 
  4 active torsions:
  status: ('A' for Active; 'I' for Inactive)
    1  A    between atoms: C_9  and  C_15
    2  A    between atoms: C_10  and  C_20
    3  A    between atoms: C_18  and  C_22
    4  A    between atoms: C_20  and  C_26
                            x       y       z     vdW  Elec       q    Type
                         _______ _______ _______ _____ _____    ______ ____

>  <TORSDO>
F 4

$$$$
=
 OpenBabel11052413383D

 27 30  0  0  1  0  0  0  0  0999 V2000
  189.0790  178.6910  141.1900 C   0  0  0  0  0  3  0  0  0  0  0  0
  186.7580  178.2570  140.3880 C   0  0  1  0  0  3  0  0  0  0  0  0
  186.7210  177.5800  142.7630 C   0  0  0  0  0  3  0  0  0  0  0  0
  182.3080  178.5500  141.1370 S   0  0  0  0  0  0  0  0  0  0  0  0
  181.5340  179.4770  143.6750 C   0  0  0  0  0  1  0  0  0  0  0  0
  185.8020  177.9090  139.2970 C   0  0  0  0  0  3  0  0  0  0  0  0
  183.9700  179.1050  142.9460 C   0  0  0  0  0  0  0  0  0  0  0  0
  184.5750  179.5500  144.2360 C   0  0  0  0  0  1  0  0  0  0  0  0
  184.7210  178.6760  141.8380 C   0  0  0  0  0  0  0  0  0  0  0  0
  188.0910  178.3340  140.1380 C   0  0  0  0  0  0  0  0  0  0  0  0
  182.5970  179.0820  142.7100 C   0  0  0  0  0  0  0  0  0  0  0  0
  183.9290  178.3400  140.7530 C   0  0  0  0  0  0  0  0  0  0  0  0
  189.0490  178.3580  142.4890 C   0  0  0  0  0  0  0  0  0  0  0  0
  186.2250  178.5840  141.7760 C   0  0  0  0  0  0  0  0  0  0  0  0
  184.4790  177.9380  139.4620 C   0  0  0  0  0  3  0  0  0  0  0  0
  188.0100  177.4810  143.0890 C   0  0  0  0  0  0  0  0  0  0  0  0
  189.6290  177.6990  136.2200 N   0  0  0  0  0  0  0  0  0  0  0  0
  188.6520  178.1320  138.7780 C   0  0  0  0  0  0  0  0  0  0  0  0
  188.5650  179.1360  137.8030 C   0  0  0  0  0  3  0  0  0  0  0  0
  189.0680  178.9000  136.5220 C   0  0  0  0  0  3  0  0  0  0  0  0
  189.7130  176.7020  137.1410 C   0  0  0  0  0  3  0  0  0  0  0  0
  189.2220  176.8990  138.4330 C   0  0  0  0  0  3  0  0  0  0  0  0
  190.2120  178.7850  143.3240 C   0  0  0  0  0  2  0  0  0  0  0  0
  191.3560  178.0870  142.9380 O   0  0  0  0  0  1  0  0  0  0  0  0
  188.3860  176.5040  144.1550 C   0  0  0  0  0  2  0  0  0  0  0  0
  188.1700  177.1110  145.5300 C   0  0  0  0  0  2  0  0  0  0  0  0
  189.3380  176.9890  146.2800 O   0  0  0  0  0  1  0  0  0  0  0  0
  1 13  1  0  0  0  0
  2  6  1  6  0  0  0
  2 14  1  0  0  0  0
  3 16  1  0  0  0  0
  4 11  1  0  0  0  0
  6 15  2  0  0  0  0
  7  8  1  0  0  0  0
  9  7  1  0  0  0  0
 10  2  1  0  0  0  0
 10  1  2  0  0  0  0
 11  7  2  0  0  0  0
 11  5  1  0  0  0  0
 12  4  1  0  0  0  0
 12  9  2  0  0  0  0
 13 16  2  0  0  0  0
 13 23  1  0  0  0  0
 14  9  1  0  0  0  0
 14  3  2  0  0  0  0
 15 12  1  0  0  0  0
 16 25  1  0  0  0  0
 17 20  2  0  0  0  0
 17 21  1  0  0  0  0
 18 10  1  0  0  0  0
 19 18  2  0  0  0  0
 20 19  1  0  0  0  0
 21 22  2  0  0  0  0
 22 18  1  0  0  0  0
 24 23  1  0  0  0  0
 25 26  1  0  0  0  0
 26 27  1  0  0  0  0
M  END
>  <MODEL>
9

>  <REMARK>
 VINA RESULT:      -6.9      3.058      5.913
  Name = 
  4 active torsions:
  status: ('A' for Active; 'I' for Inactive)
    1  A    between atoms: C_9  and  C_15
    2  A    between atoms: C_10  and  C_20
    3  A    between atoms: C_18  and  C_22
    4  A    between atoms: C_20  and  C_26
                            x       y       z     vdW  Elec       q    Type
                         _______ _______ _______ _____ _____    ______ ____

>  <TORSDO>
F 4

$$$$
