=
 OpenBabel11052412403D

 25 27  0  0  1  0  0  0  0  0999 V2000
  187.3710  177.9680  145.1290 N   0  0  0  0  0  0  0  0  0  0  0  0
  188.3930  177.2820  144.4020 C   0  0  0  0  0  0  0  0  0  0  0  0
  189.5800  177.2000  147.7220 N   0  0  0  0  0  2  0  0  0  0  0  0
  189.0820  177.5090  146.5720 C   0  0  0  0  0  0  0  0  0  0  0  0
  190.8140  177.3670  144.7450 C   0  0  1  0  0  3  0  0  0  0  0  0
  191.8700  177.0390  145.5720 F   0  0  0  0  0  0  0  0  0  0  0  0
  188.5500  177.3610  143.0780 C   0  0  0  0  0  3  0  0  0  0  0  0
  187.7940  178.1090  146.4530 N   0  0  0  0  0  2  0  0  0  0  0  0
  191.0460  176.7750  143.3510 C   0  0  0  0  0  2  0  0  0  0  0  0
  189.8020  176.8260  142.4220 C   0  0  2  0  0  3  0  0  0  0  0  0
  189.4990  176.8280  145.3050 C   0  0  2  0  0  3  0  0  0  0  0  0
  186.0310  178.2590  144.6790 C   0  0  0  0  0  0  0  0  0  0  0  0
  183.4290  178.8010  143.7510 C   0  0  0  0  0  3  0  0  0  0  0  0
  185.0250  178.6980  145.5740 C   0  0  0  0  0  0  0  0  0  0  0  0
  183.7360  178.9590  145.1040 C   0  0  0  0  0  3  0  0  0  0  0  0
  184.4140  178.3760  142.8590 C   0  0  0  0  0  3  0  0  0  0  0  0
  185.2970  178.8950  146.9590 N   0  0  0  0  0  1  0  0  0  0  0  0
  185.7030  178.1080  143.3210 C   0  0  0  0  0  3  0  0  0  0  0  0
  190.0910  177.5780  141.2790 O   0  0  0  0  0  0  0  0  0  0  0  0
  188.8500  177.8890  140.7170 C   0  0  0  0  0  2  0  0  0  0  0  0
  188.8610  177.5880  139.2140 C   0  0  2  0  0  3  0  0  0  0  0  0
  190.1750  177.4740  138.7670 O   0  0  0  0  0  1  0  0  0  0  0  0
  188.1410  178.5850  138.4120 N   0  0  0  0  0  0  0  0  0  0  0  0
  188.9890  179.0060  137.3060 C   0  0  0  0  0  1  0  0  0  0  0  0
  186.9220  178.0170  137.8460 C   0  0  0  0  0  1  0  0  0  0  0  0
  1  8  1  0  0  0  0
  2  1  1  0  0  0  0
  4  3  2  0  0  0  0
  5 11  1  0  0  0  0
  5  6  1  1  0  0  0
  7  2  2  0  0  0  0
  8  4  1  0  0  0  0
  9  5  1  0  0  0  0
 10 19  1  6  0  0  0
 10  7  1  0  0  0  0
 10  9  1  0  0  0  0
 11  2  1  6  0  0  0
 11  4  1  0  0  0  0
 12  1  1  0  0  0  0
 12 14  1  0  0  0  0
 13 15  1  0  0  0  0
 14 17  1  0  0  0  0
 15 14  2  0  0  0  0
 16 18  1  0  0  0  0
 16 13  2  0  0  0  0
 18 12  2  0  0  0  0
 20 19  1  0  0  0  0
 21 22  1  6  0  0  0
 21 20  1  0  0  0  0
 23 21  1  0  0  0  0
 24 23  1  0  0  0  0
 25 23  1  0  0  0  0
M  END
>  <MODEL>
1

>  <REMARK>
 VINA RESULT:      -9.0      0.000      0.000
  Name = 
  5 active torsions:
  status: ('A' for Active; 'I' for Inactive)
    1  A    between atoms: N_1  and  C_5
    2  A    between atoms: N_2  and  C_21
    3  A    between atoms: O_6  and  C_15
    4  A    between atoms: O_6  and  C_23
    5  A    between atoms: C_15  and  C_21
                            x       y       z     vdW  Elec       q    Type
                         _______ _______ _______ _____ _____    ______ ____

>  <TORSDO>
F 5

$$$$
=
 OpenBabel11052412403D

 25 27  0  0  1  0  0  0  0  0999 V2000
  187.7660  178.2470  141.6880 N   0  0  0  0  0  0  0  0  0  0  0  0
  187.1010  177.7850  142.8660 C   0  0  0  0  0  0  0  0  0  0  0  0
  184.5080  179.3170  141.0310 N   0  0  0  0  0  2  0  0  0  0  0  0
  185.6080  178.9950  141.6240 C   0  0  0  0  0  0  0  0  0  0  0  0
  185.3130  178.8820  144.1250 C   0  0  1  0  0  3  0  0  0  0  0  0
  183.9920  179.2830  144.1330 F   0  0  0  0  0  0  0  0  0  0  0  0
  187.7290  177.4500  143.9960 C   0  0  0  0  0  3  0  0  0  0  0  0
  186.8550  178.9880  140.9320 N   0  0  0  0  0  2  0  0  0  0  0  0
  185.5840  177.9730  145.3290 C   0  0  0  0  0  2  0  0  0  0  0  0
  186.9470  177.2280  145.2700 C   0  0  2  0  0  3  0  0  0  0  0  0
  185.6420  178.1230  142.8410 C   0  0  2  0  0  3  0  0  0  0  0  0
  189.0650  177.8410  141.2070 C   0  0  0  0  0  0  0  0  0  0  0  0
  191.6170  177.0450  140.3250 C   0  0  0  0  0  3  0  0  0  0  0  0
  189.2640  177.4190  139.8700 C   0  0  0  0  0  0  0  0  0  0  0  0
  190.5340  177.0200  139.4440 C   0  0  0  0  0  3  0  0  0  0  0  0
  191.4340  177.4650  141.6420 C   0  0  0  0  0  3  0  0  0  0  0  0
  188.1940  177.3990  138.9290 N   0  0  0  0  0  1  0  0  0  0  0  0
  190.1680  177.8600  142.0780 C   0  0  0  0  0  3  0  0  0  0  0  0
  187.7330  177.5840  146.3710 O   0  0  0  0  0  0  0  0  0  0  0  0
  189.0500  177.3210  145.9860 C   0  0  0  0  0  2  0  0  0  0  0  0
  189.9030  176.9930  147.2160 C   0  0  2  0  0  3  0  0  0  0  0  0
  189.6070  177.8830  148.2450 O   0  0  0  0  0  1  0  0  0  0  0  0
  191.3470  176.9990  146.9460 N   0  0  0  0  0  0  0  0  0  0  0  0
  191.9350  175.7810  147.4820 C   0  0  0  0  0  1  0  0  0  0  0  0
  191.6080  177.0250  145.5110 C   0  0  0  0  0  1  0  0  0  0  0  0
  1  2  1  0  0  0  0
  2  7  2  0  0  0  0
  3  4  2  0  0  0  0
  5  6  1  6  0  0  0
  5  9  1  0  0  0  0
  7 10  1  0  0  0  0
  8  4  1  0  0  0  0
  8  1  1  0  0  0  0
 10  9  1  0  0  0  0
 10 19  1  1  0  0  0
 11  4  1  6  0  0  0
 11  2  1  0  0  0  0
 11  5  1  0  0  0  0
 12  1  1  0  0  0  0
 12 18  1  0  0  0  0
 13 16  1  0  0  0  0
 14 12  2  0  0  0  0
 15 14  1  0  0  0  0
 15 13  2  0  0  0  0
 16 18  2  0  0  0  0
 17 14  1  0  0  0  0
 20 19  1  0  0  0  0
 20 21  1  0  0  0  0
 21 22  1  1  0  0  0
 23 21  1  0  0  0  0
 23 24  1  0  0  0  0
 25 23  1  0  0  0  0
M  END
>  <MODEL>
2

>  <REMARK>
 VINA RESULT:      -8.8      3.290      7.018
  Name = 
  5 active torsions:
  status: ('A' for Active; 'I' for Inactive)
    1  A    between atoms: N_1  and  C_5
    2  A    between atoms: N_2  and  C_21
    3  A    between atoms: O_6  and  C_15
    4  A    between atoms: O_6  and  C_23
    5  A    between atoms: C_15  and  C_21
                            x       y       z     vdW  Elec       q    Type
                         _______ _______ _______ _____ _____    ______ ____

>  <TORSDO>
F 5

$$$$
=
 OpenBabel11052412403D

 25 27  0  0  1  0  0  0  0  0999 V2000
  187.2000  177.4690  144.7630 N   0  0  0  0  0  0  0  0  0  0  0  0
  186.3230  178.2940  143.9920 C   0  0  0  0  0  0  0  0  0  0  0  0
  184.9760  178.5120  147.2440 N   0  0  0  0  0  2  0  0  0  0  0  0
  185.4900  178.1470  146.1180 C   0  0  0  0  0  0  0  0  0  0  0  0
  183.8980  178.5390  144.2030 C   0  0  1  0  0  3  0  0  0  0  0  0
  182.8530  179.0030  144.9770 F   0  0  0  0  0  0  0  0  0  0  0  0
  186.2310  178.2480  142.6610 C   0  0  0  0  0  3  0  0  0  0  0  0
  186.6890  177.3770  146.0590 N   0  0  0  0  0  2  0  0  0  0  0  0
  183.8260  179.1690  142.8080 C   0  0  0  0  0  2  0  0  0  0  0  0
  185.1010  178.9550  141.9470 C   0  0  2  0  0  3  0  0  0  0  0  0
  185.2410  178.8880  144.8410 C   0  0  2  0  0  3  0  0  0  0  0  0
  188.5110  177.0000  144.3810 C   0  0  0  0  0  0  0  0  0  0  0  0
  191.0460  176.0710  143.5830 C   0  0  0  0  0  3  0  0  0  0  0  0
  189.6610  177.2990  145.1510 C   0  0  0  0  0  0  0  0  0  0  0  0
  190.9150  176.8380  144.7430 C   0  0  0  0  0  3  0  0  0  0  0  0
  189.9190  175.7650  142.8200 C   0  0  0  0  0  3  0  0  0  0  0  0
  189.5740  178.0580  146.3540 N   0  0  0  0  0  1  0  0  0  0  0  0
  188.6630  176.2260  143.2170 C   0  0  0  0  0  3  0  0  0  0  0  0
  184.7760  178.2590  140.7780 O   0  0  0  0  0  0  0  0  0  0  0  0
  183.5180  178.7360  140.4000 C   0  0  0  0  0  2  0  0  0  0  0  0
  183.5770  179.3160  138.9830 C   0  0  2  0  0  3  0  0  0  0  0  0
  184.3080  180.5010  138.9900 O   0  0  0  0  0  1  0  0  0  0  0  0
  182.2540  179.5440  138.3890 N   0  0  0  0  0  0  0  0  0  0  0  0
  181.2610  178.7900  139.1380 C   0  0  0  0  0  1  0  0  0  0  0  0
  181.8880  180.9550  138.4600 C   0  0  0  0  0  1  0  0  0  0  0  0
  1  8  1  0  0  0  0
  2  1  1  0  0  0  0
  4  3  2  0  0  0  0
  5 11  1  0  0  0  0
  5  6  1  1  0  0  0
  7  2  2  0  0  0  0
  8  4  1  0  0  0  0
  9  5  1  0  0  0  0
 10 19  1  6  0  0  0
 10  7  1  0  0  0  0
 10  9  1  0  0  0  0
 11  2  1  6  0  0  0
 11  4  1  0  0  0  0
 12  1  1  0  0  0  0
 12 14  1  0  0  0  0
 13 15  1  0  0  0  0
 14 17  1  0  0  0  0
 15 14  2  0  0  0  0
 16 18  1  0  0  0  0
 16 13  2  0  0  0  0
 18 12  2  0  0  0  0
 20 19  1  0  0  0  0
 21 22  1  1  0  0  0
 21 20  1  0  0  0  0
 23 25  1  0  0  0  0
 23 21  1  0  0  0  0
 23 24  1  0  0  0  0
M  END
>  <MODEL>
3

>  <REMARK>
 VINA RESULT:      -8.6      3.381      5.590
  Name = 
  5 active torsions:
  status: ('A' for Active; 'I' for Inactive)
    1  A    between atoms: N_1  and  C_5
    2  A    between atoms: N_2  and  C_21
    3  A    between atoms: O_6  and  C_15
    4  A    between atoms: O_6  and  C_23
    5  A    between atoms: C_15  and  C_21
                            x       y       z     vdW  Elec       q    Type
                         _______ _______ _______ _____ _____    ______ ____

>  <TORSDO>
F 5

$$$$
=
 OpenBabel11052412403D

 25 27  0  0  1  0  0  0  0  0999 V2000
  188.4220  177.6690  145.1960 N   0  0  0  0  0  0  0  0  0  0  0  0
  187.1480  178.2940  145.0240 C   0  0  0  0  0  0  0  0  0  0  0  0
  187.5020  178.1470  148.5300 N   0  0  0  0  0  2  0  0  0  0  0  0
  187.4740  177.9260  147.2580 C   0  0  0  0  0  0  0  0  0  0  0  0
  185.1200  177.9930  146.3590 C   0  0  1  0  0  3  0  0  0  0  0  0
  184.5060  178.1990  147.5780 F   0  0  0  0  0  0  0  0  0  0  0  0
  186.4420  178.2530  143.8910 C   0  0  0  0  0  3  0  0  0  0  0  0
  188.6190  177.4420  146.5590 N   0  0  0  0  0  2  0  0  0  0  0  0
  184.2760  178.6170  145.2420 C   0  0  0  0  0  2  0  0  0  0  0  0
  185.0000  178.7060  143.8710 C   0  0  2  0  0  3  0  0  0  0  0  0
  186.5140  178.6180  146.3420 C   0  0  2  0  0  3  0  0  0  0  0  0
  189.4530  177.5080  144.1980 C   0  0  0  0  0  0  0  0  0  0  0  0
  191.4980  177.2310  142.2830 C   0  0  0  0  0  3  0  0  0  0  0  0
  189.3950  176.4780  143.2280 C   0  0  0  0  0  0  0  0  0  0  0  0
  190.4180  176.3450  142.2860 C   0  0  0  0  0  3  0  0  0  0  0  0
  191.5620  178.2530  143.2290 C   0  0  0  0  0  3  0  0  0  0  0  0
  188.3010  175.5650  143.1770 N   0  0  0  0  0  1  0  0  0  0  0  0
  190.5480  178.3890  144.1780 C   0  0  0  0  0  3  0  0  0  0  0  0
  184.2930  177.9780  142.9090 O   0  0  0  0  0  0  0  0  0  0  0  0
  183.8090  178.9280  142.0070 C   0  0  0  0  0  2  0  0  0  0  0  0
  184.2910  178.6030  140.5890 C   0  0  2  0  0  3  0  0  0  0  0  0
  185.0280  179.6720  140.0850 O   0  0  0  0  0  1  0  0  0  0  0  0
  183.2020  178.2620  139.6640 N   0  0  0  0  0  0  0  0  0  0  0  0
  182.8210  176.8730  139.8710 C   0  0  0  0  0  1  0  0  0  0  0  0
  182.0260  179.0880  139.9170 C   0  0  0  0  0  1  0  0  0  0  0  0
  1  8  1  0  0  0  0
  2  1  1  0  0  0  0
  4  3  2  0  0  0  0
  5  6  1  1  0  0  0
  7  2  2  0  0  0  0
  8  4  1  0  0  0  0
  9  5  1  0  0  0  0
 10 19  1  6  0  0  0
 10  7  1  0  0  0  0
 10  9  1  0  0  0  0
 11  2  1  6  0  0  0
 11  5  1  0  0  0  0
 11  4  1  0  0  0  0
 12  1  1  0  0  0  0
 13 15  2  0  0  0  0
 13 16  1  0  0  0  0
 14 12  2  0  0  0  0
 15 14  1  0  0  0  0
 16 18  2  0  0  0  0
 17 14  1  0  0  0  0
 18 12  1  0  0  0  0
 20 19  1  0  0  0  0
 21 22  1  6  0  0  0
 21 20  1  0  0  0  0
 23 24  1  0  0  0  0
 23 25  1  0  0  0  0
 23 21  1  0  0  0  0
M  END
>  <MODEL>
4

>  <REMARK>
 VINA RESULT:      -8.5      3.157      5.356
  Name = 
  5 active torsions:
  status: ('A' for Active; 'I' for Inactive)
    1  A    between atoms: N_1  and  C_5
    2  A    between atoms: N_2  and  C_21
    3  A    between atoms: O_6  and  C_15
    4  A    between atoms: O_6  and  C_23
    5  A    between atoms: C_15  and  C_21
                            x       y       z     vdW  Elec       q    Type
                         _______ _______ _______ _____ _____    ______ ____

>  <TORSDO>
F 5

$$$$
=
 OpenBabel11052412403D

 25 27  0  0  1  0  0  0  0  0999 V2000
  185.3470  178.7150  143.7860 N   0  0  0  0  0  0  0  0  0  0  0  0
  186.3920  177.7810  144.0690 C   0  0  0  0  0  0  0  0  0  0  0  0
  185.6180  179.1040  147.2450 N   0  0  0  0  0  2  0  0  0  0  0  0
  185.8840  178.9000  145.9990 C   0  0  0  0  0  0  0  0  0  0  0  0
  188.2150  177.9930  145.6870 C   0  0  1  0  0  3  0  0  0  0  0  0
  188.5690  178.0400  147.0210 F   0  0  0  0  0  0  0  0  0  0  0  0
  187.2270  177.2930  143.1490 C   0  0  0  0  0  3  0  0  0  0  0  0
  185.0400  179.3990  144.9640 N   0  0  0  0  0  2  0  0  0  0  0  0
  188.9840  176.8660  144.9880 C   0  0  0  0  0  2  0  0  0  0  0  0
  188.4610  176.5260  143.5650 C   0  0  2  0  0  3  0  0  0  0  0  0
  186.7160  177.7470  145.5310 C   0  0  2  0  0  3  0  0  0  0  0  0
  184.5560  178.7950  142.5810 C   0  0  0  0  0  0  0  0  0  0  0  0
  183.0630  178.9450  140.2000 C   0  0  0  0  0  3  0  0  0  0  0  0
  183.1440  178.6890  142.6100 C   0  0  0  0  0  0  0  0  0  0  0  0
  182.4130  178.7590  141.4220 C   0  0  0  0  0  3  0  0  0  0  0  0
  184.4520  179.0580  140.1600 C   0  0  0  0  0  3  0  0  0  0  0  0
  182.4360  178.5210  143.8350 N   0  0  0  0  0  1  0  0  0  0  0  0
  185.1910  178.9840  141.3410 C   0  0  0  0  0  3  0  0  0  0  0  0
  189.4770  176.7230  142.6240 O   0  0  0  0  0  0  0  0  0  0  0  0
  188.8490  177.3010  141.5170 C   0  0  0  0  0  2  0  0  0  0  0  0
  189.7140  177.1220  140.2660 C   0  0  2  0  0  3  0  0  0  0  0  0
  191.0560  177.3100  140.5900 O   0  0  0  0  0  1  0  0  0  0  0  0
  189.3350  178.0090  139.1590 N   0  0  0  0  0  0  0  0  0  0  0  0
  189.9030  177.4930  137.9220 C   0  0  0  0  0  1  0  0  0  0  0  0
  187.8860  178.0520  138.9980 C   0  0  0  0  0  1  0  0  0  0  0  0
  1  2  1  0  0  0  0
  1  8  1  0  0  0  0
  4  3  2  0  0  0  0
  5  6  1  1  0  0  0
  7 10  1  0  0  0  0
  7  2  2  0  0  0  0
  8  4  1  0  0  0  0
  9  5  1  0  0  0  0
 10 19  1  6  0  0  0
 10  9  1  0  0  0  0
 11  2  1  6  0  0  0
 11  5  1  0  0  0  0
 11  4  1  0  0  0  0
 12 14  1  0  0  0  0
 12  1  1  0  0  0  0
 13 15  1  0  0  0  0
 14 17  1  0  0  0  0
 15 14  2  0  0  0  0
 16 13  2  0  0  0  0
 16 18  1  0  0  0  0
 18 12  2  0  0  0  0
 20 19  1  0  0  0  0
 21 22  1  1  0  0  0
 21 20  1  0  0  0  0
 23 21  1  0  0  0  0
 24 23  1  0  0  0  0
 25 23  1  0  0  0  0
M  END
>  <MODEL>
5

>  <REMARK>
 VINA RESULT:      -8.4      1.922      2.779
  Name = 
  5 active torsions:
  status: ('A' for Active; 'I' for Inactive)
    1  A    between atoms: N_1  and  C_5
    2  A    between atoms: N_2  and  C_21
    3  A    between atoms: O_6  and  C_15
    4  A    between atoms: O_6  and  C_23
    5  A    between atoms: C_15  and  C_21
                            x       y       z     vdW  Elec       q    Type
                         _______ _______ _______ _____ _____    ______ ____

>  <TORSDO>
F 5

$$$$
=
 OpenBabel11052412403D

 25 27  0  0  1  0  0  0  0  0999 V2000
  187.2360  177.5200  144.8540 N   0  0  0  0  0  0  0  0  0  0  0  0
  186.3500  178.3300  144.0780 C   0  0  0  0  0  0  0  0  0  0  0  0
  185.0530  178.6280  147.3440 N   0  0  0  0  0  2  0  0  0  0  0  0
  185.5490  178.2350  146.2190 C   0  0  0  0  0  0  0  0  0  0  0  0
  183.9290  178.5890  144.3190 C   0  0  1  0  0  3  0  0  0  0  0  0
  182.8970  179.0740  145.0980 F   0  0  0  0  0  0  0  0  0  0  0  0
  186.2370  178.2530  142.7500 C   0  0  0  0  0  3  0  0  0  0  0  0
  186.7440  177.4600  146.1600 N   0  0  0  0  0  2  0  0  0  0  0  0
  183.8390  179.1860  142.9110 C   0  0  0  0  0  2  0  0  0  0  0  0
  185.1000  178.9470  142.0360 C   0  0  2  0  0  3  0  0  0  0  0  0
  185.2830  178.9470  144.9290 C   0  0  2  0  0  3  0  0  0  0  0  0
  188.5390  177.0370  144.4640 C   0  0  0  0  0  0  0  0  0  0  0  0
  191.0600  176.0870  143.6480 C   0  0  0  0  0  3  0  0  0  0  0  0
  189.6770  177.2230  145.2850 C   0  0  0  0  0  0  0  0  0  0  0  0
  190.9250  176.7530  144.8680 C   0  0  0  0  0  3  0  0  0  0  0  0
  189.9440  175.8910  142.8350 C   0  0  0  0  0  3  0  0  0  0  0  0
  189.5840  177.8770  146.5480 N   0  0  0  0  0  1  0  0  0  0  0  0
  188.6950  176.3620  143.2410 C   0  0  0  0  0  3  0  0  0  0  0  0
  184.7550  178.2250  140.8880 O   0  0  0  0  0  0  0  0  0  0  0  0
  185.1970  179.0030  139.8150 C   0  0  0  0  0  2  0  0  0  0  0  0
  186.2590  178.2410  139.0140 C   0  0  2  0  0  3  0  0  0  0  0  0
  187.5300  178.6280  139.4310 O   0  0  0  0  0  1  0  0  0  0  0  0
  186.1320  178.4140  137.5610 N   0  0  0  0  0  0  0  0  0  0  0  0
  187.4550  178.3500  136.9590 C   0  0  0  0  0  1  0  0  0  0  0  0
  185.3260  177.3470  136.9780 C   0  0  0  0  0  1  0  0  0  0  0  0
  1  8  1  0  0  0  0
  2  1  1  0  0  0  0
  4  3  2  0  0  0  0
  5 11  1  0  0  0  0
  5  6  1  1  0  0  0
  7  2  2  0  0  0  0
  8  4  1  0  0  0  0
  9  5  1  0  0  0  0
 10 19  1  6  0  0  0
 10  7  1  0  0  0  0
 10  9  1  0  0  0  0
 11  2  1  6  0  0  0
 11  4  1  0  0  0  0
 12  1  1  0  0  0  0
 12 14  1  0  0  0  0
 13 15  1  0  0  0  0
 14 17  1  0  0  0  0
 15 14  2  0  0  0  0
 16 18  1  0  0  0  0
 16 13  2  0  0  0  0
 18 12  2  0  0  0  0
 20 19  1  0  0  0  0
 21 22  1  1  0  0  0
 21 20  1  0  0  0  0
 23 21  1  0  0  0  0
 24 23  1  0  0  0  0
 25 23  1  0  0  0  0
M  END
>  <MODEL>
6

>  <REMARK>
 VINA RESULT:      -8.4      2.491      4.836
  Name = 
  5 active torsions:
  status: ('A' for Active; 'I' for Inactive)
    1  A    between atoms: N_1  and  C_5
    2  A    between atoms: N_2  and  C_21
    3  A    between atoms: O_6  and  C_15
    4  A    between atoms: O_6  and  C_23
    5  A    between atoms: C_15  and  C_21
                            x       y       z     vdW  Elec       q    Type
                         _______ _______ _______ _____ _____    ______ ____

>  <TORSDO>
F 5

$$$$
=
 OpenBabel11052412403D

 25 27  0  0  1  0  0  0  0  0999 V2000
  188.3830  177.8310  144.8550 N   0  0  0  0  0  0  0  0  0  0  0  0
  188.8220  177.3130  143.5970 C   0  0  0  0  0  0  0  0  0  0  0  0
  191.6280  176.8410  145.6810 N   0  0  0  0  0  2  0  0  0  0  0  0
  190.5910  177.2770  145.0480 C   0  0  0  0  0  0  0  0  0  0  0  0
  191.0390  177.4920  142.5760 C   0  0  1  0  0  3  0  0  0  0  0  0
  192.3650  177.1140  142.6360 F   0  0  0  0  0  0  0  0  0  0  0  0
  188.2320  177.5840  142.4300 C   0  0  0  0  0  3  0  0  0  0  0  0
  189.4640  177.8110  145.7390 N   0  0  0  0  0  2  0  0  0  0  0  0
  190.4550  177.1130  141.2100 C   0  0  0  0  0  2  0  0  0  0  0  0
  188.9070  177.2200  141.1280 C   0  0  2  0  0  3  0  0  0  0  0  0
  190.2290  176.8040  143.6740 C   0  0  2  0  0  3  0  0  0  0  0  0
  187.0230  178.1030  145.2560 C   0  0  0  0  0  0  0  0  0  0  0  0
  184.3540  178.6270  145.9820 C   0  0  0  0  0  3  0  0  0  0  0  0
  186.6380  178.1140  146.6180 C   0  0  0  0  0  0  0  0  0  0  0  0
  185.3090  178.3690  146.9680 C   0  0  0  0  0  3  0  0  0  0  0  0
  184.7240  178.6260  144.6370 C   0  0  0  0  0  3  0  0  0  0  0  0
  187.5810  177.8790  147.6600 N   0  0  0  0  0  1  0  0  0  0  0  0
  186.0470  178.3660  144.2790 C   0  0  0  0  0  3  0  0  0  0  0  0
  188.5440  178.1390  140.1380 O   0  0  0  0  0  0  0  0  0  0  0  0
  189.5550  178.0650  139.1760 C   0  0  0  0  0  2  0  0  0  0  0  0
  189.0570  178.6330  137.8430 C   0  0  2  0  0  3  0  0  0  0  0  0
  187.6740  178.7930  137.8870 O   0  0  0  0  0  1  0  0  0  0  0  0
  189.4310  177.8160  136.6810 N   0  0  0  0  0  0  0  0  0  0  0  0
  190.1970  176.6650  137.1380 C   0  0  0  0  0  1  0  0  0  0  0  0
  188.2470  177.3150  135.9920 C   0  0  0  0  0  1  0  0  0  0  0  0
  1 12  1  0  0  0  0
  1  8  1  0  0  0  0
  2  1  1  0  0  0  0
  4  3  2  0  0  0  0
  4  8  1  0  0  0  0
  5  6  1  6  0  0  0
  5 11  1  0  0  0  0
  7  2  2  0  0  0  0
  9  5  1  0  0  0  0
 10 19  1  6  0  0  0
 10  9  1  0  0  0  0
 10  7  1  0  0  0  0
 11  2  1  6  0  0  0
 11  4  1  0  0  0  0
 12 14  1  0  0  0  0
 13 15  1  0  0  0  0
 14 15  2  0  0  0  0
 14 17  1  0  0  0  0
 16 13  2  0  0  0  0
 18 16  1  0  0  0  0
 18 12  2  0  0  0  0
 20 19  1  0  0  0  0
 21 22  1  1  0  0  0
 21 20  1  0  0  0  0
 23 24  1  0  0  0  0
 23 21  1  0  0  0  0
 25 23  1  0  0  0  0
M  END
>  <MODEL>
7

>  <REMARK>
 VINA RESULT:      -8.3      1.667      2.087
  Name = 
  5 active torsions:
  status: ('A' for Active; 'I' for Inactive)
    1  A    between atoms: N_1  and  C_5
    2  A    between atoms: N_2  and  C_21
    3  A    between atoms: O_6  and  C_15
    4  A    between atoms: O_6  and  C_23
    5  A    between atoms: C_15  and  C_21
                            x       y       z     vdW  Elec       q    Type
                         _______ _______ _______ _____ _____    ______ ____

>  <TORSDO>
F 5

$$$$
=
 OpenBabel11052412403D

 25 27  0  0  1  0  0  0  0  0999 V2000
  187.6130  177.5340  145.2950 N   0  0  0  0  0  0  0  0  0  0  0  0
  187.0750  178.2930  144.2100 C   0  0  0  0  0  0  0  0  0  0  0  0
  184.5290  178.4600  146.6460 N   0  0  0  0  0  2  0  0  0  0  0  0
  185.4700  178.1170  145.8320 C   0  0  0  0  0  0  0  0  0  0  0  0
  184.7580  178.3860  143.4280 C   0  0  1  0  0  3  0  0  0  0  0  0
  183.4670  178.7900  143.7040 F   0  0  0  0  0  0  0  0  0  0  0  0
  187.5250  178.2270  142.9550 C   0  0  0  0  0  3  0  0  0  0  0  0
  186.6320  177.4240  146.2830 N   0  0  0  0  0  2  0  0  0  0  0  0
  185.2170  178.9950  142.0990 C   0  0  0  0  0  2  0  0  0  0  0  0
  186.7400  178.8530  141.8260 C   0  0  2  0  0  3  0  0  0  0  0  0
  185.7130  178.8260  144.5360 C   0  0  2  0  0  3  0  0  0  0  0  0
  188.9900  177.1450  145.4850 C   0  0  0  0  0  0  0  0  0  0  0  0
  191.6840  176.3900  145.7960 C   0  0  0  0  0  3  0  0  0  0  0  0
  189.5950  177.1510  146.7650 C   0  0  0  0  0  0  0  0  0  0  0  0
  190.9340  176.7800  146.9080 C   0  0  0  0  0  3  0  0  0  0  0  0
  191.0970  176.3740  144.5310 C   0  0  0  0  0  3  0  0  0  0  0  0
  188.8630  177.5180  147.9320 N   0  0  0  0  0  1  0  0  0  0  0  0
  189.7610  176.7480  144.3780 C   0  0  0  0  0  3  0  0  0  0  0  0
  186.9480  178.1250  140.6490 O   0  0  0  0  0  0  0  0  0  0  0  0
  188.2930  177.7470  140.6810 C   0  0  0  0  0  2  0  0  0  0  0  0
  189.0480  178.3900  139.5130 C   0  0  2  0  0  3  0  0  0  0  0  0
  188.1670  178.6400  138.4630 O   0  0  0  0  0  1  0  0  0  0  0  0
  190.1820  177.5870  139.0360 N   0  0  0  0  0  0  0  0  0  0  0  0
  190.9660  177.1470  140.1810 C   0  0  0  0  0  1  0  0  0  0  0  0
  189.7180  176.3970  138.3320 C   0  0  0  0  0  1  0  0  0  0  0  0
  1 12  1  0  0  0  0
  1  8  1  0  0  0  0
  2  1  1  0  0  0  0
  4  8  1  0  0  0  0
  4  3  2  0  0  0  0
  5  6  1  1  0  0  0
  5 11  1  0  0  0  0
  7  2  2  0  0  0  0
  9  5  1  0  0  0  0
 10 19  1  6  0  0  0
 10  9  1  0  0  0  0
 10  7  1  0  0  0  0
 11  2  1  6  0  0  0
 11  4  1  0  0  0  0
 12 14  1  0  0  0  0
 13 15  1  0  0  0  0
 14 15  2  0  0  0  0
 14 17  1  0  0  0  0
 16 13  2  0  0  0  0
 18 16  1  0  0  0  0
 18 12  2  0  0  0  0
 19 20  1  0  0  0  0
 21 22  1  6  0  0  0
 21 20  1  0  0  0  0
 23 21  1  0  0  0  0
 23 24  1  0  0  0  0
 25 23  1  0  0  0  0
M  END
>  <MODEL>
8

>  <REMARK>
 VINA RESULT:      -8.1      2.328      4.680
  Name = 
  5 active torsions:
  status: ('A' for Active; 'I' for Inactive)
    1  A    between atoms: N_1  and  C_5
    2  A    between atoms: N_2  and  C_21
    3  A    between atoms: O_6  and  C_15
    4  A    between atoms: O_6  and  C_23
    5  A    between atoms: C_15  and  C_21
                            x       y       z     vdW  Elec       q    Type
                         _______ _______ _______ _____ _____    ______ ____

>  <TORSDO>
F 5

$$$$
=
 OpenBabel11052412403D

 25 27  0  0  1  0  0  0  0  0999 V2000
  186.0800  178.6540  141.6010 N   0  0  0  0  0  0  0  0  0  0  0  0
  186.2960  178.0720  142.8890 C   0  0  0  0  0  0  0  0  0  0  0  0
  182.9390  179.1450  143.0450 N   0  0  0  0  0  2  0  0  0  0  0  0
  184.2110  179.0140  142.8640 C   0  0  0  0  0  0  0  0  0  0  0  0
  185.4440  178.8270  145.0550 C   0  0  1  0  0  3  0  0  0  0  0  0
  184.3340  178.9910  145.8590 F   0  0  0  0  0  0  0  0  0  0  0  0
  187.5020  177.8410  143.4130 C   0  0  0  0  0  3  0  0  0  0  0  0
  184.8090  179.2320  141.5880 N   0  0  0  0  0  2  0  0  0  0  0  0
  186.4860  177.9680  145.7790 C   0  0  0  0  0  2  0  0  0  0  0  0
  187.6450  177.4730  144.8720 C   0  0  2  0  0  3  0  0  0  0  0  0
  185.0640  178.1500  143.7390 C   0  0  2  0  0  3  0  0  0  0  0  0
  186.8980  178.4860  140.4240 C   0  0  0  0  0  0  0  0  0  0  0  0
  188.5400  178.1490  138.1620 C   0  0  0  0  0  3  0  0  0  0  0  0
  186.3260  178.2840  139.1440 C   0  0  0  0  0  0  0  0  0  0  0  0
  187.1500  178.1120  138.0290 C   0  0  0  0  0  3  0  0  0  0  0  0
  189.1140  178.3530  139.4160 C   0  0  0  0  0  3  0  0  0  0  0  0
  184.9140  178.2620  138.9560 N   0  0  0  0  0  1  0  0  0  0  0  0
  188.2990  178.5210  140.5360 C   0  0  0  0  0  3  0  0  0  0  0  0
  188.8680  177.9500  145.3580 O   0  0  0  0  0  0  0  0  0  0  0  0
  189.7810  176.9140  145.1430 C   0  0  0  0  0  2  0  0  0  0  0  0
  191.0460  177.4570  144.4720 C   0  0  2  0  0  3  0  0  0  0  0  0
  190.8560  178.7900  144.1170 O   0  0  0  0  0  1  0  0  0  0  0  0
  191.4670  176.6790  143.3000 N   0  0  0  0  0  0  0  0  0  0  0  0
  190.4380  175.6990  142.9860 C   0  0  0  0  0  1  0  0  0  0  0  0
  191.6290  177.5410  142.1340 C   0  0  0  0  0  1  0  0  0  0  0  0
  1  2  1  0  0  0  0
  2  7  2  0  0  0  0
  2 11  1  0  0  0  0
  4  3  2  0  0  0  0
  5  9  1  0  0  0  0
  5  6  1  1  0  0  0
  7 10  1  0  0  0  0
  8  1  1  0  0  0  0
  8  4  1  0  0  0  0
 10 19  1  1  0  0  0
 10  9  1  0  0  0  0
 11  4  1  6  0  0  0
 11  5  1  0  0  0  0
 12 18  1  0  0  0  0
 12  1  1  0  0  0  0
 13 16  1  0  0  0  0
 14 12  2  0  0  0  0
 15 13  2  0  0  0  0
 15 14  1  0  0  0  0
 16 18  2  0  0  0  0
 17 14  1  0  0  0  0
 20 19  1  0  0  0  0
 21 22  1  6  0  0  0
 21 20  1  0  0  0  0
 23 21  1  0  0  0  0
 24 23  1  0  0  0  0
 25 23  1  0  0  0  0
M  END
>  <MODEL>
9

>  <REMARK>
 VINA RESULT:      -8.0      2.937      5.813
  Name = 
  5 active torsions:
  status: ('A' for Active; 'I' for Inactive)
    1  A    between atoms: N_1  and  C_5
    2  A    between atoms: N_2  and  C_21
    3  A    between atoms: O_6  and  C_15
    4  A    between atoms: O_6  and  C_23
    5  A    between atoms: C_15  and  C_21
                            x       y       z     vdW  Elec       q    Type
                         _______ _______ _______ _____ _____    ______ ____

>  <TORSDO>
F 5

$$$$
