=
 OpenBabel11052412453D

 25 28  0  0  1  0  0  0  0  0999 V2000
  189.2850  177.3200  144.0880 C   0  0  0  0  0  0  0  0  0  0  0  0
  188.2990  177.6630  145.0330 C   0  0  0  0  0  0  0  0  0  0  0  0
  190.8770  176.8650  145.8480 C   0  0  0  0  0  3  0  0  0  0  0  0
  189.1090  177.2820  142.6760 N   0  0  0  0  0  0  0  0  0  0  0  0
  189.4460  177.2810  139.8880 C   0  0  0  0  0  2  0  0  0  0  0  0
  189.9190  177.2100  146.8070 C   0  0  0  0  0  3  0  0  0  0  0  0
  190.2260  176.6080  142.0070 C   0  0  1  0  0  3  0  0  0  0  0  0
  190.5940  177.3270  140.7930 N   0  0  0  0  0  2  0  0  0  0  0  0
  187.6540  177.9440  147.3760 C   0  0  0  0  0  0  0  0  0  0  0  0
  187.9970  177.9000  149.1000 Cl  0  0  0  0  0  0  0  0  0  0  0  0
  187.0050  178.0290  144.6470 C   0  0  0  0  0  3  0  0  0  0  0  0
  188.2060  177.9700  140.4800 C   0  0  0  0  0  2  0  0  0  0  0  0
  190.5400  176.9280  144.4980 C   0  0  0  0  0  0  0  0  0  0  0  0
  191.6510  176.5330  143.1630 S   0  0  0  0  0  0  0  0  0  0  0  0
  186.3710  178.3140  146.9640 C   0  0  0  0  0  3  0  0  0  0  0  0
  188.3390  178.3070  141.9680 C   0  0  0  0  0  2  0  0  0  0  0  0
  186.0450  178.3600  145.6060 C   0  0  0  0  0  0  0  0  0  0  0  0
  188.6270  177.6100  146.4150 C   0  0  0  0  0  0  0  0  0  0  0  0
  184.6680  178.7330  145.1830 C   0  0  0  0  0  2  0  0  0  0  0  0
  184.6890  179.2750  143.7620 C   0  0  0  0  0  2  0  0  0  0  0  0
  183.4490  178.6840  141.6400 C   0  0  0  0  0  0  0  0  0  0  0  0
  184.6800  178.8620  140.8180 C   0  0  0  0  0  1  0  0  0  0  0  0
  182.3790  178.3470  141.0650 O   0  0  0  0  0  0  0  0  0  0  0  0
  183.4690  178.8950  143.0620 N   0  0  0  0  0  0  0  0  0  0  0  0
  182.2350  178.8360  143.8290 C   0  0  0  0  0  1  0  0  0  0  0  0
  1 13  2  0  0  0  0
  1  2  1  0  0  0  0
  2 18  1  0  0  0  0
  3  6  2  0  0  0  0
  4  1  1  0  0  0  0
  5 12  1  0  0  0  0
  5  8  1  0  0  0  0
  7  8  1  6  0  0  0
  7  4  1  0  0  0  0
  7 14  1  0  0  0  0
  9 10  1  0  0  0  0
 11  2  2  0  0  0  0
 11 17  1  0  0  0  0
 12 16  1  0  0  0  0
 13  3  1  0  0  0  0
 14 13  1  0  0  0  0
 15  9  1  0  0  0  0
 16  4  1  0  0  0  0
 17 15  2  0  0  0  0
 18  6  1  0  0  0  0
 18  9  2  0  0  0  0
 19 17  1  0  0  0  0
 20 19  1  0  0  0  0
 21 24  1  0  0  0  0
 22 21  1  0  0  0  0
 23 21  2  0  0  0  0
 24 20  1  0  0  0  0
 24 25  1  0  0  0  0
M  END
>  <MODEL>
1

>  <REMARK>
 VINA RESULT:      -9.8      0.000      0.000
  Name = 
  3 active torsions:
  status: ('A' for Active; 'I' for Inactive)
    1  A    between atoms: C_6  and  C_15
    2  A    between atoms: C_6  and  C_23
    3  A    between atoms: C_15  and  N_21
                            x       y       z     vdW  Elec       q    Type
                         _______ _______ _______ _____ _____    ______ ____

>  <TORSDO>
F 3

$$$$
=
 OpenBabel11052412453D

 25 28  0  0  1  0  0  0  0  0999 V2000
  187.4710  177.9110  145.5620 C   0  0  0  0  0  0  0  0  0  0  0  0
  188.7970  177.5130  145.3040 C   0  0  0  0  0  0  0  0  0  0  0  0
  187.8020  177.6300  147.9390 C   0  0  0  0  0  3  0  0  0  0  0  0
  186.5220  178.3320  144.5870 N   0  0  0  0  0  0  0  0  0  0  0  0
  184.1980  178.9770  143.1490 C   0  0  0  0  0  2  0  0  0  0  0  0
  189.1210  177.2240  147.7090 C   0  0  0  0  0  3  0  0  0  0  0  0
  185.3470  178.9530  145.2060 C   0  0  1  0  0  3  0  0  0  0  0  0
  184.1310  178.5110  144.5340 N   0  0  0  0  0  2  0  0  0  0  0  0
  190.9620  176.7660  146.1620 C   0  0  0  0  0  0  0  0  0  0  0  0
  192.0440  176.3150  147.4730 Cl  0  0  0  0  0  0  0  0  0  0  0  0
  189.3160  177.4810  144.0040 C   0  0  0  0  0  3  0  0  0  0  0  0
  185.3940  178.3820  142.3880 C   0  0  0  0  0  2  0  0  0  0  0  0
  186.9970  177.9680  146.8530 C   0  0  0  0  0  0  0  0  0  0  0  0
  185.3000  178.4920  146.9830 S   0  0  0  0  0  0  0  0  0  0  0  0
  191.4540  176.7340  144.8550 C   0  0  0  0  0  3  0  0  0  0  0  0
  186.4020  177.6640  143.2900 C   0  0  0  0  0  2  0  0  0  0  0  0
  190.6370  177.0870  143.7780 C   0  0  0  0  0  0  0  0  0  0  0  0
  189.6310  177.1600  146.3990 C   0  0  0  0  0  0  0  0  0  0  0  0
  191.1820  177.0710  142.3930 C   0  0  0  0  0  2  0  0  0  0  0  0
  190.0860  176.7000  141.4070 C   0  0  0  0  0  2  0  0  0  0  0  0
  189.3860  178.0170  139.3660 C   0  0  0  0  0  0  0  0  0  0  0  0
  188.0130  178.2220  139.9130 C   0  0  0  0  0  1  0  0  0  0  0  0
  189.6680  178.5060  138.2400 O   0  0  0  0  0  0  0  0  0  0  0  0
  190.3730  177.2720  140.0980 N   0  0  0  0  0  0  0  0  0  0  0  0
  191.6640  176.9780  139.4960 C   0  0  0  0  0  1  0  0  0  0  0  0
  1 13  1  0  0  0  0
  2  1  2  0  0  0  0
  2 18  1  0  0  0  0
  4  7  1  0  0  0  0
  4  1  1  0  0  0  0
  5  8  1  0  0  0  0
  6  3  1  0  0  0  0
  7  8  1  6  0  0  0
  7 14  1  0  0  0  0
  9 18  1  0  0  0  0
  9 10  1  0  0  0  0
 11  2  1  0  0  0  0
 12  5  1  0  0  0  0
 12 16  1  0  0  0  0
 13 14  1  0  0  0  0
 13  3  2  0  0  0  0
 15  9  2  0  0  0  0
 16  4  1  0  0  0  0
 17 11  2  0  0  0  0
 17 15  1  0  0  0  0
 18  6  2  0  0  0  0
 19 17  1  0  0  0  0
 20 19  1  0  0  0  0
 21 22  1  0  0  0  0
 21 24  1  0  0  0  0
 23 21  2  0  0  0  0
 24 20  1  0  0  0  0
 25 24  1  0  0  0  0
M  END
>  <MODEL>
2

>  <REMARK>
 VINA RESULT:      -9.7      2.659      5.467
  Name = 
  3 active torsions:
  status: ('A' for Active; 'I' for Inactive)
    1  A    between atoms: C_6  and  C_15
    2  A    between atoms: C_6  and  C_23
    3  A    between atoms: C_15  and  N_21
                            x       y       z     vdW  Elec       q    Type
                         _______ _______ _______ _____ _____    ______ ____

>  <TORSDO>
F 3

$$$$
=
 OpenBabel11052412453D

 25 28  0  0  1  0  0  0  0  0999 V2000
  187.5020  177.8270  145.6410 C   0  0  0  0  0  0  0  0  0  0  0  0
  186.7180  178.1480  144.5160 C   0  0  0  0  0  0  0  0  0  0  0  0
  185.6450  178.2790  147.1190 C   0  0  0  0  0  3  0  0  0  0  0  0
  188.8510  177.3700  145.6140 N   0  0  0  0  0  0  0  0  0  0  0  0
  191.5150  176.7110  146.2080 C   0  0  0  0  0  2  0  0  0  0  0  0
  184.8480  178.6110  146.0190 C   0  0  0  0  0  3  0  0  0  0  0  0
  189.2730  176.8490  146.9180 C   0  0  1  0  0  3  0  0  0  0  0  0
  190.6310  177.2870  147.2200 N   0  0  0  0  0  2  0  0  0  0  0  0
  184.5680  178.8690  143.6010 C   0  0  0  0  0  0  0  0  0  0  0  0
  182.8940  179.3770  143.7780 Cl  0  0  0  0  0  0  0  0  0  0  0  0
  187.2260  178.0550  143.2140 C   0  0  0  0  0  3  0  0  0  0  0  0
  191.1740  177.1940  144.7890 C   0  0  0  0  0  2  0  0  0  0  0  0
  186.9660  177.8910  146.9080 C   0  0  0  0  0  0  0  0  0  0  0  0
  188.1060  177.4500  148.2030 S   0  0  0  0  0  0  0  0  0  0  0  0
  185.1010  178.7780  142.3120 C   0  0  0  0  0  3  0  0  0  0  0  0
  189.8390  177.9380  144.6960 C   0  0  0  0  0  2  0  0  0  0  0  0
  186.4240  178.3750  142.1170 C   0  0  0  0  0  0  0  0  0  0  0  0
  185.3700  178.5510  144.7130 C   0  0  0  0  0  0  0  0  0  0  0  0
  186.9710  178.2600  140.7370 C   0  0  0  0  0  2  0  0  0  0  0  0
  188.4890  178.3370  140.7710 C   0  0  0  0  0  2  0  0  0  0  0  0
  190.3740  176.8400  139.9970 C   0  0  0  0  0  0  0  0  0  0  0  0
  191.2140  177.2160  141.1710 C   0  0  0  0  0  1  0  0  0  0  0  0
  190.8370  176.0240  139.1560 O   0  0  0  0  0  0  0  0  0  0  0  0
  189.0610  177.3980  139.8150 N   0  0  0  0  0  0  0  0  0  0  0  0
  188.3070  177.1160  138.6040 C   0  0  0  0  0  1  0  0  0  0  0  0
  1 13  1  0  0  0  0
  2 18  1  0  0  0  0
  2  1  2  0  0  0  0
  4  1  1  0  0  0  0
  4  7  1  0  0  0  0
  5  8  1  0  0  0  0
  6  3  1  0  0  0  0
  7  8  1  1  0  0  0
  7 14  1  0  0  0  0
  9 10  1  0  0  0  0
  9 18  1  0  0  0  0
 11  2  1  0  0  0  0
 12  5  1  0  0  0  0
 13  3  2  0  0  0  0
 13 14  1  0  0  0  0
 15  9  2  0  0  0  0
 16 12  1  0  0  0  0
 16  4  1  0  0  0  0
 17 15  1  0  0  0  0
 17 11  2  0  0  0  0
 18  6  2  0  0  0  0
 19 20  1  0  0  0  0
 19 17  1  0  0  0  0
 21 22  1  0  0  0  0
 23 21  2  0  0  0  0
 24 21  1  0  0  0  0
 24 20  1  0  0  0  0
 25 24  1  0  0  0  0
M  END
>  <MODEL>
3

>  <REMARK>
 VINA RESULT:      -9.6      3.161      5.507
  Name = 
  3 active torsions:
  status: ('A' for Active; 'I' for Inactive)
    1  A    between atoms: C_6  and  C_15
    2  A    between atoms: C_6  and  C_23
    3  A    between atoms: C_15  and  N_21
                            x       y       z     vdW  Elec       q    Type
                         _______ _______ _______ _____ _____    ______ ____

>  <TORSDO>
F 3

$$$$
=
 OpenBabel11052412453D

 25 28  0  0  1  0  0  0  0  0999 V2000
  188.4630  177.3690  143.3180 C   0  0  0  0  0  0  0  0  0  0  0  0
  187.1810  177.7700  143.7430 C   0  0  0  0  0  0  0  0  0  0  0  0
  189.2150  177.1930  145.6080 C   0  0  0  0  0  3  0  0  0  0  0  0
  188.8670  177.1640  141.9680 N   0  0  0  0  0  0  0  0  0  0  0  0
  190.2950  176.8650  139.5690 C   0  0  0  0  0  2  0  0  0  0  0  0
  187.9520  177.5980  146.0550 C   0  0  0  0  0  3  0  0  0  0  0  0
  190.1580  176.4730  141.8880 C   0  0  1  0  0  3  0  0  0  0  0  0
  190.9840  177.0670  140.8430 N   0  0  0  0  0  2  0  0  0  0  0  0
  185.6500  178.2820  145.5810 C   0  0  0  0  0  0  0  0  0  0  0  0
  185.2740  178.4500  147.2900 Cl  0  0  0  0  0  0  0  0  0  0  0  0
  186.1510  178.0270  142.8310 C   0  0  0  0  0  3  0  0  0  0  0  0
  188.9220  177.5560  139.5290 C   0  0  0  0  0  2  0  0  0  0  0  0
  189.4470  177.0870  144.2390 C   0  0  0  0  0  0  0  0  0  0  0  0
  190.9990  176.5970  143.5160 S   0  0  0  0  0  0  0  0  0  0  0  0
  184.6410  178.5420  144.6500 C   0  0  0  0  0  3  0  0  0  0  0  0
  188.4480  178.0640  140.8930 C   0  0  0  0  0  2  0  0  0  0  0  0
  184.8880  178.4180  143.2800 C   0  0  0  0  0  0  0  0  0  0  0  0
  186.9270  177.8890  145.1360 C   0  0  0  0  0  0  0  0  0  0  0  0
  183.7960  178.6760  142.3010 C   0  0  0  0  0  2  0  0  0  0  0  0
  182.4990  178.9750  143.0360 C   0  0  0  0  0  2  0  0  0  0  0  0
  180.0560  178.3860  142.7680 C   0  0  0  0  0  0  0  0  0  0  0  0
  179.8240  178.4880  144.2390 C   0  0  0  0  0  1  0  0  0  0  0  0
  179.0860  178.0870  142.0220 O   0  0  0  0  0  0  0  0  0  0  0  0
  181.3570  178.6170  142.2040 N   0  0  0  0  0  0  0  0  0  0  0  0
  181.5910  178.3940  140.7870 C   0  0  0  0  0  1  0  0  0  0  0  0
  1  2  2  0  0  0  0
  1 13  1  0  0  0  0
  2 18  1  0  0  0  0
  3  6  1  0  0  0  0
  4  1  1  0  0  0  0
  5  8  1  0  0  0  0
  7  8  1  6  0  0  0
  7  4  1  0  0  0  0
  7 14  1  0  0  0  0
  9 10  1  0  0  0  0
 11 17  2  0  0  0  0
 11  2  1  0  0  0  0
 12  5  1  0  0  0  0
 12 16  1  0  0  0  0
 13  3  2  0  0  0  0
 14 13  1  0  0  0  0
 15  9  2  0  0  0  0
 16  4  1  0  0  0  0
 17 15  1  0  0  0  0
 18  9  1  0  0  0  0
 18  6  2  0  0  0  0
 19 20  1  0  0  0  0
 19 17  1  0  0  0  0
 21 22  1  0  0  0  0
 23 21  2  0  0  0  0
 24 21  1  0  0  0  0
 24 20  1  0  0  0  0
 25 24  1  0  0  0  0
M  END
>  <MODEL>
4

>  <REMARK>
 VINA RESULT:      -9.3      1.533      2.450
  Name = 
  3 active torsions:
  status: ('A' for Active; 'I' for Inactive)
    1  A    between atoms: C_6  and  C_15
    2  A    between atoms: C_6  and  C_23
    3  A    between atoms: C_15  and  N_21
                            x       y       z     vdW  Elec       q    Type
                         _______ _______ _______ _____ _____    ______ ____

>  <TORSDO>
F 3

$$$$
=
 OpenBabel11052412453D

 25 28  0  0  1  0  0  0  0  0999 V2000
  187.3310  178.1190  141.6720 C   0  0  0  0  0  0  0  0  0  0  0  0
  186.7340  178.1380  142.9470 C   0  0  0  0  0  0  0  0  0  0  0  0
  185.2540  178.7970  140.6400 C   0  0  0  0  0  3  0  0  0  0  0  0
  188.6980  177.8290  141.3960 N   0  0  0  0  0  0  0  0  0  0  0  0
  191.1450  177.1060  140.2250 C   0  0  0  0  0  2  0  0  0  0  0  0
  184.6350  178.8150  141.8940 C   0  0  0  0  0  3  0  0  0  0  0  0
  189.0590  178.1800  140.0180 C   0  0  1  0  0  3  0  0  0  0  0  0
  189.9110  177.1460  139.4420 N   0  0  0  0  0  2  0  0  0  0  0  0
  184.7470  178.5200  144.3220 C   0  0  0  0  0  0  0  0  0  0  0  0
  183.0520  178.9430  144.5220 Cl  0  0  0  0  0  0  0  0  0  0  0  0
  187.4630  177.8460  144.1060 C   0  0  0  0  0  3  0  0  0  0  0  0
  190.8940  176.7370  141.6970 C   0  0  0  0  0  2  0  0  0  0  0  0
  186.5990  178.4460  140.5520 C   0  0  0  0  0  0  0  0  0  0  0  0
  187.5210  178.3650  139.0310 S   0  0  0  0  0  0  0  0  0  0  0  0
  185.4950  178.2160  145.4630 C   0  0  0  0  0  3  0  0  0  0  0  0
  189.4160  176.7620  142.0940 C   0  0  0  0  0  2  0  0  0  0  0  0
  186.8460  177.8780  145.3580 C   0  0  0  0  0  0  0  0  0  0  0  0
  185.3610  178.4880  143.0550 C   0  0  0  0  0  0  0  0  0  0  0  0
  187.6360  177.5790  146.5840 C   0  0  0  0  0  2  0  0  0  0  0  0
  189.0320  177.1150  146.2030 C   0  0  0  0  0  2  0  0  0  0  0  0
  191.3070  176.8570  147.2750 C   0  0  0  0  0  0  0  0  0  0  0  0
  191.8130  176.0660  146.1150 C   0  0  0  0  0  1  0  0  0  0  0  0
  192.0860  177.0840  148.2390 O   0  0  0  0  0  0  0  0  0  0  0  0
  189.9580  177.3490  147.3050 N   0  0  0  0  0  0  0  0  0  0  0  0
  189.4460  178.0110  148.4940 C   0  0  0  0  0  1  0  0  0  0  0  0
  1  2  1  0  0  0  0
  2 18  2  0  0  0  0
  2 11  1  0  0  0  0
  3  6  2  0  0  0  0
  4  1  1  0  0  0  0
  4 16  1  0  0  0  0
  5 12  1  0  0  0  0
  6 18  1  0  0  0  0
  7 14  1  6  0  0  0
  7  4  1  0  0  0  0
  8  7  1  0  0  0  0
  8  5  1  0  0  0  0
  9 10  1  0  0  0  0
  9 15  2  0  0  0  0
 11 17  2  0  0  0  0
 12 16  1  0  0  0  0
 13  3  1  0  0  0  0
 13  1  2  0  0  0  0
 14 13  1  0  0  0  0
 17 15  1  0  0  0  0
 17 19  1  0  0  0  0
 18  9  1  0  0  0  0
 20 19  1  0  0  0  0
 20 24  1  0  0  0  0
 21 24  1  0  0  0  0
 21 23  2  0  0  0  0
 22 21  1  0  0  0  0
 24 25  1  0  0  0  0
M  END
>  <MODEL>
5

>  <REMARK>
 VINA RESULT:      -9.2      3.453      5.781
  Name = 
  3 active torsions:
  status: ('A' for Active; 'I' for Inactive)
    1  A    between atoms: C_6  and  C_15
    2  A    between atoms: C_6  and  C_23
    3  A    between atoms: C_15  and  N_21
                            x       y       z     vdW  Elec       q    Type
                         _______ _______ _______ _____ _____    ______ ____

>  <TORSDO>
F 3

$$$$
=
 OpenBabel11052412453D

 25 28  0  0  1  0  0  0  0  0999 V2000
  188.5810  177.3660  143.3400 C   0  0  0  0  0  0  0  0  0  0  0  0
  187.2750  177.7580  143.6930 C   0  0  0  0  0  0  0  0  0  0  0  0
  189.2040  177.1890  145.6680 C   0  0  0  0  0  3  0  0  0  0  0  0
  189.0630  177.1670  142.0150 N   0  0  0  0  0  0  0  0  0  0  0  0
  190.6250  176.8820  139.6990 C   0  0  0  0  0  2  0  0  0  0  0  0
  187.9160  177.5850  146.0450 C   0  0  0  0  0  3  0  0  0  0  0  0
  190.3600  176.4830  142.0060 C   0  0  1  0  0  3  0  0  0  0  0  0
  191.2400  177.0850  141.0100 N   0  0  0  0  0  2  0  0  0  0  0  0
  185.6400  178.2560  145.4420 C   0  0  0  0  0  0  0  0  0  0  0  0
  185.1670  178.4180  147.1280 Cl  0  0  0  0  0  0  0  0  0  0  0  0
  186.2970  178.0110  142.7240 C   0  0  0  0  0  3  0  0  0  0  0  0
  189.2530  177.5650  139.5830 C   0  0  0  0  0  2  0  0  0  0  0  0
  189.5140  177.0870  144.3140 C   0  0  0  0  0  0  0  0  0  0  0  0
  191.1080  176.6090  143.6790 S   0  0  0  0  0  0  0  0  0  0  0  0
  184.6830  178.5120  144.4570 C   0  0  0  0  0  3  0  0  0  0  0  0
  188.7000  178.0670  140.9200 C   0  0  0  0  0  2  0  0  0  0  0  0
  185.0080  178.3930  143.1030 C   0  0  0  0  0  0  0  0  0  0  0  0
  186.9430  177.8720  145.0700 C   0  0  0  0  0  0  0  0  0  0  0  0
  183.9720  178.6470  142.0650 C   0  0  0  0  0  2  0  0  0  0  0  0
  184.6360  178.9660  140.7340 C   0  0  0  0  0  2  0  0  0  0  0  0
  184.3300  178.1450  138.3630 C   0  0  0  0  0  0  0  0  0  0  0  0
  185.8010  178.1710  138.1170 C   0  0  0  0  0  1  0  0  0  0  0  0
  183.5660  177.7730  137.4330 O   0  0  0  0  0  0  0  0  0  0  0  0
  183.7830  178.5400  139.6320 N   0  0  0  0  0  0  0  0  0  0  0  0
  182.3430  178.6250  139.8140 C   0  0  0  0  0  1  0  0  0  0  0  0
  1  2  2  0  0  0  0
  1 13  1  0  0  0  0
  2 18  1  0  0  0  0
  3  6  1  0  0  0  0
  4  1  1  0  0  0  0
  5  8  1  0  0  0  0
  7  8  1  6  0  0  0
  7  4  1  0  0  0  0
  7 14  1  0  0  0  0
  9 10  1  0  0  0  0
 11 17  2  0  0  0  0
 11  2  1  0  0  0  0
 12  5  1  0  0  0  0
 12 16  1  0  0  0  0
 13  3  2  0  0  0  0
 14 13  1  0  0  0  0
 15  9  2  0  0  0  0
 16  4  1  0  0  0  0
 17 15  1  0  0  0  0
 18  9  1  0  0  0  0
 18  6  2  0  0  0  0
 19 17  1  0  0  0  0
 20 19  1  0  0  0  0
 21 24  1  0  0  0  0
 22 21  1  0  0  0  0
 23 21  2  0  0  0  0
 24 25  1  0  0  0  0
 24 20  1  0  0  0  0
M  END
>  <MODEL>
6

>  <REMARK>
 VINA RESULT:      -9.1      1.722      2.434
  Name = 
  3 active torsions:
  status: ('A' for Active; 'I' for Inactive)
    1  A    between atoms: C_6  and  C_15
    2  A    between atoms: C_6  and  C_23
    3  A    between atoms: C_15  and  N_21
                            x       y       z     vdW  Elec       q    Type
                         _______ _______ _______ _____ _____    ______ ____

>  <TORSDO>
F 3

$$$$
=
 OpenBabel11052412453D

 25 28  0  0  1  0  0  0  0  0999 V2000
  189.5070  177.4850  144.1760 C   0  0  0  0  0  0  0  0  0  0  0  0
  188.9660  177.7330  142.8990 C   0  0  0  0  0  0  0  0  0  0  0  0
  191.6120  176.8060  143.2020 C   0  0  0  0  0  3  0  0  0  0  0  0
  188.8450  177.7040  145.4180 N   0  0  0  0  0  0  0  0  0  0  0  0
  187.9990  177.6740  148.0950 C   0  0  0  0  0  2  0  0  0  0  0  0
  191.0960  177.0360  141.9230 C   0  0  0  0  0  3  0  0  0  0  0  0
  189.7760  177.6290  146.5490 C   0  0  1  0  0  3  0  0  0  0  0  0
  189.1640  176.9060  147.6580 N   0  0  0  0  0  2  0  0  0  0  0  0
  189.2570  177.7460  140.4710 C   0  0  0  0  0  0  0  0  0  0  0  0
  190.2080  177.4750  139.0160 Cl  0  0  0  0  0  0  0  0  0  0  0  0
  187.6670  178.2250  142.7330 C   0  0  0  0  0  3  0  0  0  0  0  0
  186.9410  177.8150  146.9890 C   0  0  0  0  0  2  0  0  0  0  0  0
  190.8010  177.0360  144.3120 C   0  0  0  0  0  0  0  0  0  0  0  0
  191.3090  176.7800  145.9990 S   0  0  0  0  0  0  0  0  0  0  0  0
  187.9530  178.2290  140.3310 C   0  0  0  0  0  3  0  0  0  0  0  0
  187.4320  177.3750  145.6070 C   0  0  0  0  0  2  0  0  0  0  0  0
  187.1580  178.4660  141.4550 C   0  0  0  0  0  0  0  0  0  0  0  0
  189.7770  177.4990  141.7550 C   0  0  0  0  0  0  0  0  0  0  0  0
  185.7790  179.0020  141.2920 C   0  0  0  0  0  2  0  0  0  0  0  0
  185.1970  179.3640  142.6490 C   0  0  0  0  0  2  0  0  0  0  0  0
  183.0990  178.8310  143.9540 C   0  0  0  0  0  0  0  0  0  0  0  0
  183.8100  179.0030  145.2540 C   0  0  0  0  0  1  0  0  0  0  0  0
  181.8760  178.5280  143.9670 O   0  0  0  0  0  0  0  0  0  0  0  0
  183.7870  179.0020  142.7030 N   0  0  0  0  0  0  0  0  0  0  0  0
  183.1100  178.7120  141.4500 C   0  0  0  0  0  1  0  0  0  0  0  0
  1 13  1  0  0  0  0
  1  4  1  0  0  0  0
  2  1  2  0  0  0  0
  3 13  2  0  0  0  0
  4 16  1  0  0  0  0
  4  7  1  0  0  0  0
  6  3  1  0  0  0  0
  7 14  1  6  0  0  0
  7  8  1  0  0  0  0
  8  5  1  0  0  0  0
  9 18  1  0  0  0  0
 10  9  1  0  0  0  0
 11  2  1  0  0  0  0
 12  5  1  0  0  0  0
 13 14  1  0  0  0  0
 15  9  2  0  0  0  0
 15 17  1  0  0  0  0
 16 12  1  0  0  0  0
 17 11  2  0  0  0  0
 18  6  2  0  0  0  0
 18  2  1  0  0  0  0
 19 17  1  0  0  0  0
 19 20  1  0  0  0  0
 20 24  1  0  0  0  0
 21 23  2  0  0  0  0
 21 22  1  0  0  0  0
 24 21  1  0  0  0  0
 25 24  1  0  0  0  0
M  END
>  <MODEL>
7

>  <REMARK>
 VINA RESULT:      -8.9      2.643      4.742
  Name = 
  3 active torsions:
  status: ('A' for Active; 'I' for Inactive)
    1  A    between atoms: C_6  and  C_15
    2  A    between atoms: C_6  and  C_23
    3  A    between atoms: C_15  and  N_21
                            x       y       z     vdW  Elec       q    Type
                         _______ _______ _______ _____ _____    ______ ____

>  <TORSDO>
F 3

$$$$
=
 OpenBabel11052412453D

 25 28  0  0  1  0  0  0  0  0999 V2000
  187.9560  177.6260  145.7100 C   0  0  0  0  0  0  0  0  0  0  0  0
  187.4560  177.8370  144.4110 C   0  0  0  0  0  0  0  0  0  0  0  0
  185.8490  178.3040  146.6790 C   0  0  0  0  0  3  0  0  0  0  0  0
  189.2500  177.1280  146.0350 N   0  0  0  0  0  0  0  0  0  0  0  0
  191.6790  176.4620  147.2760 C   0  0  0  0  0  2  0  0  0  0  0  0
  185.3310  178.5300  145.3990 C   0  0  0  0  0  3  0  0  0  0  0  0
  189.3470  176.7500  147.4480 C   0  0  1  0  0  3  0  0  0  0  0  0
  190.6290  177.1780  147.9970 N   0  0  0  0  0  2  0  0  0  0  0  0
  185.6010  178.5130  142.9670 C   0  0  0  0  0  0  0  0  0  0  0  0
  183.9590  179.0880  142.7100 Cl  0  0  0  0  0  0  0  0  0  0  0  0
  188.2300  177.5790  143.2730 C   0  0  0  0  0  3  0  0  0  0  0  0
  191.6840  176.7860  145.7730 C   0  0  0  0  0  2  0  0  0  0  0  0
  187.1600  177.8540  146.8110 C   0  0  0  0  0  0  0  0  0  0  0  0
  187.9630  177.5320  148.3680 S   0  0  0  0  0  0  0  0  0  0  0  0
  186.3970  178.2560  141.8470 C   0  0  0  0  0  3  0  0  0  0  0  0
  190.4450  177.5550  145.3050 C   0  0  0  0  0  2  0  0  0  0  0  0
  187.7060  177.7930  141.9970 C   0  0  0  0  0  0  0  0  0  0  0  0
  186.1210  178.3020  144.2580 C   0  0  0  0  0  0  0  0  0  0  0  0
  188.5340  177.5000  140.7940 C   0  0  0  0  0  2  0  0  0  0  0  0
  188.0020  178.2710  139.5970 C   0  0  0  0  0  2  0  0  0  0  0  0
  187.0950  177.2940  137.4490 C   0  0  0  0  0  0  0  0  0  0  0  0
  185.7440  177.8760  137.7020 C   0  0  0  0  0  1  0  0  0  0  0  0
  187.2770  176.6200  136.4010 O   0  0  0  0  0  0  0  0  0  0  0  0
  188.1730  177.4890  138.3790 N   0  0  0  0  0  0  0  0  0  0  0  0
  189.4450  176.8140  138.1780 C   0  0  0  0  0  1  0  0  0  0  0  0
  1  4  1  0  0  0  0
  1 13  1  0  0  0  0
  2  1  2  0  0  0  0
  3 13  2  0  0  0  0
  4  7  1  0  0  0  0
  5  8  1  0  0  0  0
  6  3  1  0  0  0  0
  7  8  1  1  0  0  0
  7 14  1  0  0  0  0
  9 18  1  0  0  0  0
 10  9  1  0  0  0  0
 11  2  1  0  0  0  0
 12  5  1  0  0  0  0
 13 14  1  0  0  0  0
 15 17  1  0  0  0  0
 15  9  2  0  0  0  0
 16 12  1  0  0  0  0
 16  4  1  0  0  0  0
 17 11  2  0  0  0  0
 18  2  1  0  0  0  0
 18  6  2  0  0  0  0
 19 17  1  0  0  0  0
 20 19  1  0  0  0  0
 21 22  1  0  0  0  0
 21 24  1  0  0  0  0
 23 21  2  0  0  0  0
 24 20  1  0  0  0  0
 25 24  1  0  0  0  0
M  END
>  <MODEL>
8

>  <REMARK>
 VINA RESULT:      -8.8      3.217      5.519
  Name = 
  3 active torsions:
  status: ('A' for Active; 'I' for Inactive)
    1  A    between atoms: C_6  and  C_15
    2  A    between atoms: C_6  and  C_23
    3  A    between atoms: C_15  and  N_21
                            x       y       z     vdW  Elec       q    Type
                         _______ _______ _______ _____ _____    ______ ____

>  <TORSDO>
F 3

$$$$
=
 OpenBabel11052412453D

 25 28  0  0  1  0  0  0  0  0999 V2000
  187.0470  177.9640  144.7490 C   0  0  0  0  0  0  0  0  0  0  0  0
  188.0580  177.5220  143.8740 C   0  0  0  0  0  0  0  0  0  0  0  0
  188.4010  177.3980  146.6700 C   0  0  0  0  0  3  0  0  0  0  0  0
  185.8060  178.5460  144.3630 N   0  0  0  0  0  0  0  0  0  0  0  0
  183.1620  179.4810  144.2280 C   0  0  0  0  0  2  0  0  0  0  0  0
  189.4170  176.9450  145.8220 C   0  0  0  0  0  3  0  0  0  0  0  0
  185.1170  179.1590  145.5030 C   0  0  1  0  0  3  0  0  0  0  0  0
  183.6900  178.8660  145.4450 N   0  0  0  0  0  2  0  0  0  0  0  0
  190.2860  176.5600  143.5660 C   0  0  0  0  0  0  0  0  0  0  0  0
  191.7960  175.9030  144.1840 Cl  0  0  0  0  0  0  0  0  0  0  0  0
  187.9180  177.6080  142.4840 C   0  0  0  0  0  3  0  0  0  0  0  0
  183.8080  178.9090  142.9550 C   0  0  0  0  0  2  0  0  0  0  0  0
  187.2270  177.9020  146.1130 C   0  0  0  0  0  0  0  0  0  0  0  0
  185.8430  178.5040  147.0570 S   0  0  0  0  0  0  0  0  0  0  0  0
  190.1180  176.6480  142.1810 C   0  0  0  0  0  3  0  0  0  0  0  0
  185.0370  178.0370  143.2270 C   0  0  0  0  0  2  0  0  0  0  0  0
  188.9390  177.1670  141.6400 C   0  0  0  0  0  0  0  0  0  0  0  0
  189.2610  177.0000  144.4240 C   0  0  0  0  0  0  0  0  0  0  0  0
  188.7840  177.2770  140.1640 C   0  0  0  0  0  2  0  0  0  0  0  0
  190.1190  177.6250  139.5240 C   0  0  0  0  0  2  0  0  0  0  0  0
  189.6860  177.6500  137.0340 C   0  0  0  0  0  0  0  0  0  0  0  0
  188.9900  178.9660  137.1230 C   0  0  0  0  0  1  0  0  0  0  0  0
  189.7970  177.0980  135.9070 O   0  0  0  0  0  0  0  0  0  0  0  0
  190.2190  177.0110  138.2060 N   0  0  0  0  0  0  0  0  0  0  0  0
  190.7850  175.6750  138.1190 C   0  0  0  0  0  1  0  0  0  0  0  0
  1 13  1  0  0  0  0
  2 18  1  0  0  0  0
  2  1  2  0  0  0  0
  4  1  1  0  0  0  0
  4  7  1  0  0  0  0
  5  8  1  0  0  0  0
  6  3  1  0  0  0  0
  7  8  1  6  0  0  0
  7 14  1  0  0  0  0
  9 10  1  0  0  0  0
  9 18  1  0  0  0  0
 11  2  1  0  0  0  0
 12 16  1  0  0  0  0
 12  5  1  0  0  0  0
 13  3  2  0  0  0  0
 13 14  1  0  0  0  0
 15  9  2  0  0  0  0
 16  4  1  0  0  0  0
 17 15  1  0  0  0  0
 17 11  2  0  0  0  0
 18  6  2  0  0  0  0
 19 17  1  0  0  0  0
 20 19  1  0  0  0  0
 21 22  1  0  0  0  0
 21 24  1  0  0  0  0
 23 21  2  0  0  0  0
 24 20  1  0  0  0  0
 25 24  1  0  0  0  0
M  END
>  <MODEL>
9

>  <REMARK>
 VINA RESULT:      -8.8      3.100      6.060
  Name = 
  3 active torsions:
  status: ('A' for Active; 'I' for Inactive)
    1  A    between atoms: C_6  and  C_15
    2  A    between atoms: C_6  and  C_23
    3  A    between atoms: C_15  and  N_21
                            x       y       z     vdW  Elec       q    Type
                         _______ _______ _______ _____ _____    ______ ____

>  <TORSDO>
F 3

$$$$
