=
 OpenBabel11052416473D

 32 37  0  0  0  0  0  0  0  0999 V2000
  183.2480  178.7710  144.8200 C   0  0  0  0  0  3  0  0  0  0  0  0
  188.1580  177.7610  143.1940 C   0  0  0  0  0  0  0  0  0  0  0  0
  190.5420  176.5940  147.3380 C   0  0  0  0  0  2  0  0  0  0  0  0
  191.6660  177.1720  146.7170 O   0  0  0  0  0  0  0  0  0  0  0  0
  189.7520  177.5550  141.2580 C   0  0  0  0  0  0  0  0  0  0  0  0
  189.1000  177.8150  140.0390 C   0  0  0  0  0  0  0  0  0  0  0  0
  185.8340  178.3210  143.0750 C   0  0  0  0  0  0  0  0  0  0  0  0
  186.8560  177.8800  145.2220 C   0  0  0  0  0  3  0  0  0  0  0  0
  191.8570  177.1480  140.1150 C   0  0  0  0  0  0  0  0  0  0  0  0
  184.6150  178.4110  145.2070 C   0  0  0  0  0  3  0  0  0  0  0  0
  189.2640  177.2600  146.8170 C   0  0  0  0  0  2  0  0  0  0  0  0
  188.0810  177.6480  144.5980 C   0  0  0  0  0  0  0  0  0  0  0  0
  189.2630  177.2930  145.3510 N   0  0  0  0  0  0  0  0  0  0  0  0
  190.4940  177.2030  143.3060 C   0  0  0  0  0  0  0  0  0  0  0  0
  191.2220  177.4050  138.8910 C   0  0  0  0  0  3  0  0  0  0  0  0
  183.4750  178.9450  142.3620 C   0  0  0  0  0  3  0  0  0  0  0  0
  185.7180  178.2170  144.4840 C   0  0  0  0  0  0  0  0  0  0  0  0
  189.8530  177.7360  138.8550 C   0  0  0  0  0  3  0  0  0  0  0  0
  184.7540  178.6630  142.1420 C   0  0  0  0  0  3  0  0  0  0  0  0
  182.7240  179.0050  143.6220 C   0  0  0  0  0  0  0  0  0  0  0  0
  191.7180  176.6650  145.4040 C   0  0  0  0  0  2  0  0  0  0  0  0
  190.5000  177.0900  144.6370 C   0  0  0  0  0  0  0  0  0  0  0  0
  191.5240  177.0240  142.5080 O   0  0  0  0  0  0  0  0  0  0  0  0
  187.0430  178.0890  142.4930 N   0  0  0  0  0  0  0  0  0  0  0  0
  187.7550  178.1440  139.9650 O   0  0  0  0  0  1  0  0  0  0  0  0
  193.2050  176.8210  140.1580 O   0  0  0  0  0  1  0  0  0  0  0  0
  189.3460  177.5380  142.5920 C   0  0  0  0  0  0  0  0  0  0  0  0
  191.0980  177.2300  141.2820 C   0  0  0  0  0  0  0  0  0  0  0  0
  180.3360  178.8550  142.6840 C   0  0  0  0  0  0  0  0  0  0  0  0
  181.3290  179.3370  143.5990 N   0  0  0  0  0  2  0  0  0  0  0  0
  180.6250  178.0460  141.7650 O   0  0  0  0  0  0  0  0  0  0  0  0
  178.9310  179.3210  142.8260 C   0  0  0  0  0  1  0  0  0  0  0  0
  1 10  1  0  0  0  0
  2 12  1  0  0  0  0
  4  3  1  0  0  0  0
  5 28  1  0  0  0  0
  5 27  1  0  0  0  0
  6  5  2  0  0  0  0
  7 17  1  0  0  0  0
  9 26  1  0  0  0  0
  9 28  2  0  0  0  0
 11  3  1  0  0  0  0
 12  8  2  0  0  0  0
 12 13  1  0  0  0  0
 13 11  1  0  0  0  0
 14 22  2  0  0  0  0
 15  9  1  0  0  0  0
 16 20  1  0  0  0  0
 17 10  2  0  0  0  0
 17  8  1  0  0  0  0
 18 15  2  0  0  0  0
 18  6  1  0  0  0  0
 19 16  2  0  0  0  0
 19  7  1  0  0  0  0
 20  1  2  0  0  0  0
 21  4  1  0  0  0  0
 22 13  1  0  0  0  0
 22 21  1  0  0  0  0
 23 14  1  0  0  0  0
 24  7  2  0  0  0  0
 24  2  1  0  0  0  0
 25  6  1  0  0  0  0
 27  2  2  0  0  0  0
 27 14  1  0  0  0  0
 28 23  1  0  0  0  0
 29 32  1  0  0  0  0
 29 30  1  0  0  0  0
 30 20  1  0  0  0  0
 31 29  2  0  0  0  0
M  END
>  <MODEL>
1

>  <REMARK>
 VINA RESULT:     -11.6      0.000      0.000
  Name = 
  1 active torsions:
  status: ('A' for Active; 'I' for Inactive)
    1  A    between atoms: N_10  and  C_24
                            x       y       z     vdW  Elec       q    Type
                         _______ _______ _______ _____ _____    ______ ____

>  <TORSDO>
F 1

$$$$
=
 OpenBabel11052416473D

 32 37  0  0  0  0  0  0  0  0999 V2000
  190.9630  177.2440  145.1670 C   0  0  0  0  0  3  0  0  0  0  0  0
  186.4600  178.1960  142.6000 C   0  0  0  0  0  0  0  0  0  0  0  0
  187.7680  178.0570  137.8590 C   0  0  0  0  0  2  0  0  0  0  0  0
  186.7580  179.0220  137.6720 O   0  0  0  0  0  0  0  0  0  0  0  0
  183.9810  178.6110  142.7440 C   0  0  0  0  0  0  0  0  0  0  0  0
  183.5450  178.5940  144.0810 C   0  0  0  0  0  0  0  0  0  0  0  0
  187.9510  177.8170  144.4340 C   0  0  0  0  0  0  0  0  0  0  0  0
  188.8020  177.8140  142.1700 C   0  0  0  0  0  3  0  0  0  0  0  0
  181.7260  179.0410  141.9500 C   0  0  0  0  0  0  0  0  0  0  0  0
  190.3120  177.4410  143.8680 C   0  0  0  0  0  3  0  0  0  0  0  0
  188.3410  178.1770  139.2750 C   0  0  0  0  0  2  0  0  0  0  0  0
  187.5220  178.0690  141.6820 C   0  0  0  0  0  0  0  0  0  0  0  0
  187.2600  178.2010  140.2650 N   0  0  0  0  0  0  0  0  0  0  0  0
  184.9550  178.5820  140.7650 C   0  0  0  0  0  0  0  0  0  0  0  0
  181.2750  179.0260  143.2770 C   0  0  0  0  0  3  0  0  0  0  0  0
  189.0390  177.4810  146.7060 C   0  0  0  0  0  3  0  0  0  0  0  0
  189.0440  177.6840  143.5400 C   0  0  0  0  0  0  0  0  0  0  0  0
  182.1780  178.8050  144.3350 C   0  0  0  0  0  3  0  0  0  0  0  0
  188.0130  177.7120  145.8960 C   0  0  0  0  0  3  0  0  0  0  0  0
  190.4560  177.2540  146.3940 C   0  0  0  0  0  0  0  0  0  0  0  0
  185.6210  178.5670  138.3670 C   0  0  0  0  0  2  0  0  0  0  0  0
  185.9120  178.4860  139.8370 C   0  0  0  0  0  0  0  0  0  0  0  0
  183.6790  178.8090  140.5410 O   0  0  0  0  0  0  0  0  0  0  0  0
  186.7110  178.0660  143.9270 N   0  0  0  0  0  0  0  0  0  0  0  0
  184.4060  178.3790  145.1470 O   0  0  0  0  0  1  0  0  0  0  0  0
  180.8410  179.2580  140.9040 O   0  0  0  0  0  1  0  0  0  0  0  0
  185.2200  178.4450  142.1240 C   0  0  0  0  0  0  0  0  0  0  0  0
  183.0840  178.8300  141.7130 C   0  0  0  0  0  0  0  0  0  0  0  0
  192.2750  175.9060  147.6140 C   0  0  0  0  0  0  0  0  0  0  0  0
  191.3860  177.0220  147.4610 N   0  0  0  0  0  2  0  0  0  0  0  0
  192.3150  174.9770  146.7660 O   0  0  0  0  0  0  0  0  0  0  0  0
  193.1690  175.8480  148.7990 C   0  0  0  0  0  1  0  0  0  0  0  0
  1 20  2  0  0  0  0
  2 24  1  0  0  0  0
  3 11  1  0  0  0  0
  4  3  1  0  0  0  0
  4 21  1  0  0  0  0
  5  6  1  0  0  0  0
  6 18  2  0  0  0  0
  6 25  1  0  0  0  0
  7 19  1  0  0  0  0
  8 17  1  0  0  0  0
  9 15  2  0  0  0  0
 10  1  1  0  0  0  0
 11 13  1  0  0  0  0
 12  8  2  0  0  0  0
 12  2  1  0  0  0  0
 13 12  1  0  0  0  0
 14 27  1  0  0  0  0
 15 18  1  0  0  0  0
 17 10  2  0  0  0  0
 17  7  1  0  0  0  0
 19 16  2  0  0  0  0
 20 16  1  0  0  0  0
 20 30  1  0  0  0  0
 21 22  1  0  0  0  0
 22 13  1  0  0  0  0
 22 14  2  0  0  0  0
 23 14  1  0  0  0  0
 23 28  1  0  0  0  0
 24  7  2  0  0  0  0
 26  9  1  0  0  0  0
 27  2  2  0  0  0  0
 27  5  1  0  0  0  0
 28  9  1  0  0  0  0
 28  5  2  0  0  0  0
 29 32  1  0  0  0  0
 30 29  1  0  0  0  0
 31 29  2  0  0  0  0
M  END
>  <MODEL>
2

>  <REMARK>
 VINA RESULT:     -11.4      2.408      8.367
  Name = 
  1 active torsions:
  status: ('A' for Active; 'I' for Inactive)
    1  A    between atoms: N_10  and  C_24
                            x       y       z     vdW  Elec       q    Type
                         _______ _______ _______ _____ _____    ______ ____

>  <TORSDO>
F 1

$$$$
=
 OpenBabel11052416473D

 32 37  0  0  0  0  0  0  0  0999 V2000
  191.6280  176.7030  139.0210 C   0  0  0  0  0  3  0  0  0  0  0  0
  188.6390  177.4400  143.2980 C   0  0  0  0  0  0  0  0  0  0  0  0
  191.7560  176.7250  147.0380 C   0  0  0  0  0  2  0  0  0  0  0  0
  190.6330  176.2290  147.7270 O   0  0  0  0  0  0  0  0  0  0  0  0
  186.3830  178.0510  144.2310 C   0  0  0  0  0  0  0  0  0  0  0  0
  185.4700  178.3310  143.1980 C   0  0  0  0  0  0  0  0  0  0  0  0
  189.2410  177.3220  140.9850 C   0  0  0  0  0  0  0  0  0  0  0  0
  190.8910  176.8330  142.6840 C   0  0  0  0  0  3  0  0  0  0  0  0
  184.6980  178.4970  145.9230 C   0  0  0  0  0  0  0  0  0  0  0  0
  191.5630  176.6920  140.4860 C   0  0  0  0  0  3  0  0  0  0  0  0
  191.5860  176.4850  145.5330 C   0  0  0  0  0  2  0  0  0  0  0  0
  189.9460  177.0720  143.6790 C   0  0  0  0  0  0  0  0  0  0  0  0
  190.2740  176.9590  145.0840 N   0  0  0  0  0  0  0  0  0  0  0  0
  188.0240  177.5570  145.6200 C   0  0  0  0  0  0  0  0  0  0  0  0
  183.7750  178.7790  144.9060 C   0  0  0  0  0  3  0  0  0  0  0  0
  189.3110  177.3540  138.4440 C   0  0  0  0  0  3  0  0  0  0  0  0
  190.5650  176.9500  141.3300 C   0  0  0  0  0  0  0  0  0  0  0  0
  184.1600  178.6970  143.5530 C   0  0  0  0  0  3  0  0  0  0  0  0
  188.7180  177.4930  139.6240 C   0  0  0  0  0  3  0  0  0  0  0  0
  190.6930  176.9800  138.1190 C   0  0  0  0  0  0  0  0  0  0  0  0
  189.5830  177.1430  147.5150 C   0  0  0  0  0  2  0  0  0  0  0  0
  189.2360  177.2020  146.0560 C   0  0  0  0  0  0  0  0  0  0  0  0
  186.9820  177.8390  146.3710 O   0  0  0  0  0  0  0  0  0  0  0  0
  188.3390  177.5500  141.9790 N   0  0  0  0  0  0  0  0  0  0  0  0
  185.8130  178.2600  141.8570 O   0  0  0  0  0  1  0  0  0  0  0  0
  184.3250  178.5770  147.2580 O   0  0  0  0  0  1  0  0  0  0  0  0
  187.7240  177.6710  144.2650 C   0  0  0  0  0  0  0  0  0  0  0  0
  185.9940  178.1360  145.5580 C   0  0  0  0  0  0  0  0  0  0  0  0
  191.4820  175.7190  136.0220 C   0  0  0  0  0  0  0  0  0  0  0  0
  191.0990  176.8960  136.7460 N   0  0  0  0  0  2  0  0  0  0  0  0
  191.4920  174.5850  136.5690 O   0  0  0  0  0  0  0  0  0  0  0  0
  191.8740  175.8400  134.5940 C   0  0  0  0  0  1  0  0  0  0  0  0
  1 10  1  0  0  0  0
  2 12  1  0  0  0  0
  2 27  2  0  0  0  0
  3  4  1  0  0  0  0
  5 27  1  0  0  0  0
  5 28  1  0  0  0  0
  6 18  1  0  0  0  0
  6  5  2  0  0  0  0
  7 17  1  0  0  0  0
  7 24  2  0  0  0  0
  8 12  2  0  0  0  0
  9 26  1  0  0  0  0
 10 17  2  0  0  0  0
 11  3  1  0  0  0  0
 12 13  1  0  0  0  0
 13 11  1  0  0  0  0
 13 22  1  0  0  0  0
 14 22  2  0  0  0  0
 14 23  1  0  0  0  0
 15  9  1  0  0  0  0
 16 19  2  0  0  0  0
 17  8  1  0  0  0  0
 18 15  2  0  0  0  0
 19  7  1  0  0  0  0
 20 16  1  0  0  0  0
 20  1  2  0  0  0  0
 21  4  1  0  0  0  0
 22 21  1  0  0  0  0
 24  2  1  0  0  0  0
 25  6  1  0  0  0  0
 27 14  1  0  0  0  0
 28  9  2  0  0  0  0
 28 23  1  0  0  0  0
 29 31  2  0  0  0  0
 29 30  1  0  0  0  0
 30 20  1  0  0  0  0
 32 29  1  0  0  0  0
M  END
>  <MODEL>
3

>  <REMARK>
 VINA RESULT:     -11.1      2.531      7.317
  Name = 
  1 active torsions:
  status: ('A' for Active; 'I' for Inactive)
    1  A    between atoms: N_10  and  C_24
                            x       y       z     vdW  Elec       q    Type
                         _______ _______ _______ _____ _____    ______ ____

>  <TORSDO>
F 1

$$$$
=
 OpenBabel11052416473D

 32 37  0  0  0  0  0  0  0  0999 V2000
  188.8810  177.6350  137.7930 C   0  0  0  0  0  3  0  0  0  0  0  0
  187.9640  177.8130  142.9790 C   0  0  0  0  0  0  0  0  0  0  0  0
  183.1980  179.0010  143.2810 C   0  0  0  0  0  2  0  0  0  0  0  0
  183.5590  179.6680  144.4680 O   0  0  0  0  0  0  0  0  0  0  0  0
  188.8670  177.4930  145.3060 C   0  0  0  0  0  0  0  0  0  0  0  0
  190.2130  177.0860  145.2730 C   0  0  0  0  0  0  0  0  0  0  0  0
  189.1580  177.4950  140.9290 C   0  0  0  0  0  0  0  0  0  0  0  0
  186.8410  178.1840  140.8770 C   0  0  0  0  0  3  0  0  0  0  0  0
  188.8490  177.4380  147.7350 C   0  0  0  0  0  0  0  0  0  0  0  0
  187.9070  177.9040  138.8550 C   0  0  0  0  0  3  0  0  0  0  0  0
  184.3890  178.9850  142.3160 C   0  0  0  0  0  2  0  0  0  0  0  0
  186.7990  178.1710  142.2700 C   0  0  0  0  0  0  0  0  0  0  0  0
  185.5960  178.5090  142.9990 N   0  0  0  0  0  0  0  0  0  0  0  0
  186.7720  178.1340  145.0430 C   0  0  0  0  0  0  0  0  0  0  0  0
  190.1910  177.0320  147.7190 C   0  0  0  0  0  3  0  0  0  0  0  0
  190.8770  177.0170  139.1190 C   0  0  0  0  0  3  0  0  0  0  0  0
  188.0070  177.8500  140.1830 C   0  0  0  0  0  0  0  0  0  0  0  0
  190.8670  176.8580  146.4960 C   0  0  0  0  0  3  0  0  0  0  0  0
  190.4640  177.1170  140.3770 C   0  0  0  0  0  3  0  0  0  0  0  0
  190.1520  177.2560  137.8650 C   0  0  0  0  0  0  0  0  0  0  0  0
  184.3770  178.7880  145.2030 C   0  0  0  0  0  2  0  0  0  0  0  0
  185.6360  178.4940  144.4410 C   0  0  0  0  0  0  0  0  0  0  0  0
  186.9660  178.0420  146.3410 O   0  0  0  0  0  0  0  0  0  0  0  0
  189.0870  177.4910  142.2900 N   0  0  0  0  0  0  0  0  0  0  0  0
  190.9110  176.9050  144.0880 O   0  0  0  0  0  1  0  0  0  0  0  0
  188.1760  177.6110  148.9370 O   0  0  0  0  0  1  0  0  0  0  0  0
  187.9210  177.8020  144.3300 C   0  0  0  0  0  0  0  0  0  0  0  0
  188.2120  177.6610  146.5150 C   0  0  0  0  0  0  0  0  0  0  0  0
  191.0030  175.8540  135.8850 C   0  0  0  0  0  0  0  0  0  0  0  0
  190.8270  177.0780  136.6120 N   0  0  0  0  0  2  0  0  0  0  0  0
  190.5460  174.7630  136.3140 O   0  0  0  0  0  0  0  0  0  0  0  0
  191.7390  175.8770  134.5940 C   0  0  0  0  0  1  0  0  0  0  0  0
  1 20  2  0  0  0  0
  1 10  1  0  0  0  0
  2 27  2  0  0  0  0
  3  4  1  0  0  0  0
  4 21  1  0  0  0  0
  5 28  1  0  0  0  0
  6  5  2  0  0  0  0
  6 18  1  0  0  0  0
  7 24  2  0  0  0  0
  8 12  2  0  0  0  0
  9 26  1  0  0  0  0
 10 17  2  0  0  0  0
 11 13  1  0  0  0  0
 11  3  1  0  0  0  0
 12  2  1  0  0  0  0
 12 13  1  0  0  0  0
 13 22  1  0  0  0  0
 14 23  1  0  0  0  0
 15  9  1  0  0  0  0
 16 19  2  0  0  0  0
 17  8  1  0  0  0  0
 17  7  1  0  0  0  0
 18 15  2  0  0  0  0
 19  7  1  0  0  0  0
 20 16  1  0  0  0  0
 22 14  2  0  0  0  0
 22 21  1  0  0  0  0
 23 28  1  0  0  0  0
 24  2  1  0  0  0  0
 25  6  1  0  0  0  0
 27 14  1  0  0  0  0
 27  5  1  0  0  0  0
 28  9  2  0  0  0  0
 29 31  2  0  0  0  0
 29 30  1  0  0  0  0
 30 20  1  0  0  0  0
 32 29  1  0  0  0  0
M  END
>  <MODEL>
4

>  <REMARK>
 VINA RESULT:     -10.9      2.506      7.672
  Name = 
  1 active torsions:
  status: ('A' for Active; 'I' for Inactive)
    1  A    between atoms: N_10  and  C_24
                            x       y       z     vdW  Elec       q    Type
                         _______ _______ _______ _____ _____    ______ ____

>  <TORSDO>
F 1

$$$$
=
 OpenBabel11052416473D

 32 37  0  0  0  0  0  0  0  0999 V2000
  190.3220  176.7190  147.5090 C   0  0  0  0  0  3  0  0  0  0  0  0
  188.2740  177.7570  142.7650 C   0  0  0  0  0  0  0  0  0  0  0  0
  183.6830  179.2120  143.7700 C   0  0  0  0  0  2  0  0  0  0  0  0
  183.3500  178.6280  142.5320 O   0  0  0  0  0  0  0  0  0  0  0  0
  188.6410  177.8930  140.2790 C   0  0  0  0  0  0  0  0  0  0  0  0
  189.9630  177.5500  139.9450 C   0  0  0  0  0  0  0  0  0  0  0  0
  189.8940  177.1340  144.4130 C   0  0  0  0  0  0  0  0  0  0  0  0
  187.6490  177.7200  145.0950 C   0  0  0  0  0  3  0  0  0  0  0  0
  188.0910  178.2880  137.9460 C   0  0  0  0  0  0  0  0  0  0  0  0
  189.1370  177.1330  146.7510 C   0  0  0  0  0  3  0  0  0  0  0  0
  184.8880  178.4870  144.3770 C   0  0  0  0  0  2  0  0  0  0  0  0
  187.2980  177.9460  143.7650 C   0  0  0  0  0  0  0  0  0  0  0  0
  185.9670  178.3720  143.3910 N   0  0  0  0  0  0  0  0  0  0  0  0
  186.6520  178.3780  141.1020 C   0  0  0  0  0  0  0  0  0  0  0  0
  189.4060  177.9480  137.5960 C   0  0  0  0  0  3  0  0  0  0  0  0
  191.9720  176.4130  145.6890 C   0  0  0  0  0  3  0  0  0  0  0  0
  188.9400  177.3130  145.4450 C   0  0  0  0  0  0  0  0  0  0  0  0
  190.3340  177.5820  138.5890 C   0  0  0  0  0  3  0  0  0  0  0  0
  191.2900  176.7140  144.5900 C   0  0  0  0  0  3  0  0  0  0  0  0
  191.5440  176.4050  147.0930 C   0  0  0  0  0  0  0  0  0  0  0  0
  184.3120  179.0620  141.6000 C   0  0  0  0  0  2  0  0  0  0  0  0
  185.6730  178.5660  141.9920 C   0  0  0  0  0  0  0  0  0  0  0  0
  186.5580  178.5380  139.8000 O   0  0  0  0  0  0  0  0  0  0  0  0
  189.5230  177.3630  143.1230 N   0  0  0  0  0  0  0  0  0  0  0  0
  190.9040  177.1840  140.8960 O   0  0  0  0  0  1  0  0  0  0  0  0
  187.1710  178.6500  136.9720 O   0  0  0  0  0  1  0  0  0  0  0  0
  187.9310  177.9760  141.4770 C   0  0  0  0  0  0  0  0  0  0  0  0
  187.7360  178.2530  139.2940 C   0  0  0  0  0  0  0  0  0  0  0  0
  192.9510  176.8530  149.1980 C   0  0  0  0  0  0  0  0  0  0  0  0
  192.4810  176.0380  148.1160 N   0  0  0  0  0  2  0  0  0  0  0  0
  192.5520  178.0370  149.3510 O   0  0  0  0  0  0  0  0  0  0  0  0
  193.9300  176.2860  150.1610 C   0  0  0  0  0  1  0  0  0  0  0  0
  2 24  1  0  0  0  0
  2 12  1  0  0  0  0
  3 11  1  0  0  0  0
  4  3  1  0  0  0  0
  5 27  1  0  0  0  0
  6  5  1  0  0  0  0
  6 25  1  0  0  0  0
  7 19  1  0  0  0  0
  7 17  1  0  0  0  0
  8 17  1  0  0  0  0
  9 28  1  0  0  0  0
 10  1  1  0  0  0  0
 12  8  2  0  0  0  0
 13 12  1  0  0  0  0
 13 11  1  0  0  0  0
 14 27  1  0  0  0  0
 14 22  2  0  0  0  0
 15  9  2  0  0  0  0
 15 18  1  0  0  0  0
 16 20  1  0  0  0  0
 17 10  2  0  0  0  0
 18  6  2  0  0  0  0
 19 16  2  0  0  0  0
 20  1  2  0  0  0  0
 20 30  1  0  0  0  0
 21 22  1  0  0  0  0
 21  4  1  0  0  0  0
 22 13  1  0  0  0  0
 23 14  1  0  0  0  0
 24  7  2  0  0  0  0
 26  9  1  0  0  0  0
 27  2  2  0  0  0  0
 28 23  1  0  0  0  0
 28  5  2  0  0  0  0
 29 31  2  0  0  0  0
 29 32  1  0  0  0  0
 30 29  1  0  0  0  0
M  END
>  <MODEL>
5

>  <REMARK>
 VINA RESULT:     -10.8      1.898      7.258
  Name = 
  1 active torsions:
  status: ('A' for Active; 'I' for Inactive)
    1  A    between atoms: N_10  and  C_24
                            x       y       z     vdW  Elec       q    Type
                         _______ _______ _______ _____ _____    ______ ____

>  <TORSDO>
F 1

$$$$
=
 OpenBabel11052416473D

 32 37  0  0  0  0  0  0  0  0999 V2000
  189.2880  177.3620  146.7730 C   0  0  0  0  0  3  0  0  0  0  0  0
  187.5320  178.0540  141.8520 C   0  0  0  0  0  0  0  0  0  0  0  0
  182.7820  179.1850  142.4570 C   0  0  0  0  0  2  0  0  0  0  0  0
  182.5880  178.5290  141.2250 O   0  0  0  0  0  0  0  0  0  0  0  0
  188.0750  178.1240  139.3950 C   0  0  0  0  0  0  0  0  0  0  0  0
  189.4400  177.8720  139.1740 C   0  0  0  0  0  0  0  0  0  0  0  0
  189.0650  177.6230  143.6390 C   0  0  0  0  0  0  0  0  0  0  0  0
  186.7370  178.0580  144.1300 C   0  0  0  0  0  3  0  0  0  0  0  0
  187.6740  178.3850  137.0140 C   0  0  0  0  0  0  0  0  0  0  0  0
  188.1360  177.6530  145.9130 C   0  0  0  0  0  3  0  0  0  0  0  0
  183.9890  178.5790  143.1810 C   0  0  0  0  0  2  0  0  0  0  0  0
  186.4720  178.2050  142.7690 C   0  0  0  0  0  0  0  0  0  0  0  0
  185.1450  178.5110  142.2810 N   0  0  0  0  0  0  0  0  0  0  0  0
  185.9980  178.4830  140.0500 C   0  0  0  0  0  0  0  0  0  0  0  0
  189.0330  178.1350  136.7750 C   0  0  0  0  0  3  0  0  0  0  0  0
  191.0880  177.1160  145.0920 C   0  0  0  0  0  3  0  0  0  0  0  0
  188.0240  177.7670  144.5900 C   0  0  0  0  0  0  0  0  0  0  0  0
  189.9090  177.8810  137.8480 C   0  0  0  0  0  3  0  0  0  0  0  0
  190.4710  177.3200  143.9350 C   0  0  0  0  0  3  0  0  0  0  0  0
  190.5570  177.1280  146.4610 C   0  0  0  0  0  0  0  0  0  0  0  0
  183.5830  179.0010  140.3470 C   0  0  0  0  0  2  0  0  0  0  0  0
  184.9440  178.6280  140.8580 C   0  0  0  0  0  0  0  0  0  0  0  0
  185.9910  178.5850  138.7390 O   0  0  0  0  0  0  0  0  0  0  0  0
  188.7760  177.7730  142.3170 N   0  0  0  0  0  0  0  0  0  0  0  0
  190.3310  177.6180  140.2050 O   0  0  0  0  0  1  0  0  0  0  0  0
  186.8060  178.6370  135.9600 O   0  0  0  0  0  1  0  0  0  0  0  0
  187.2720  178.1960  140.5340 C   0  0  0  0  0  0  0  0  0  0  0  0
  187.2220  178.3740  138.3320 C   0  0  0  0  0  0  0  0  0  0  0  0
  192.3440  175.7730  147.7190 C   0  0  0  0  0  0  0  0  0  0  0  0
  191.4390  176.8750  147.5640 N   0  0  0  0  0  2  0  0  0  0  0  0
  192.4470  174.8780  146.8400 O   0  0  0  0  0  0  0  0  0  0  0  0
  193.1800  175.6870  148.9440 C   0  0  0  0  0  1  0  0  0  0  0  0
  2 24  1  0  0  0  0
  2 12  1  0  0  0  0
  3 11  1  0  0  0  0
  4  3  1  0  0  0  0
  5 27  1  0  0  0  0
  6  5  1  0  0  0  0
  6 25  1  0  0  0  0
  7 19  1  0  0  0  0
  7 17  1  0  0  0  0
  8 17  1  0  0  0  0
  9 28  1  0  0  0  0
 10  1  1  0  0  0  0
 12  8  2  0  0  0  0
 13 12  1  0  0  0  0
 13 11  1  0  0  0  0
 14 27  1  0  0  0  0
 14 22  2  0  0  0  0
 15  9  2  0  0  0  0
 15 18  1  0  0  0  0
 16 20  1  0  0  0  0
 17 10  2  0  0  0  0
 18  6  2  0  0  0  0
 19 16  2  0  0  0  0
 20  1  2  0  0  0  0
 20 30  1  0  0  0  0
 21 22  1  0  0  0  0
 21  4  1  0  0  0  0
 22 13  1  0  0  0  0
 23 14  1  0  0  0  0
 24  7  2  0  0  0  0
 26  9  1  0  0  0  0
 27  2  2  0  0  0  0
 28 23  1  0  0  0  0
 28  5  2  0  0  0  0
 29 32  1  0  0  0  0
 30 29  1  0  0  0  0
 31 29  2  0  0  0  0
M  END
>  <MODEL>
6

>  <REMARK>
 VINA RESULT:     -10.7      1.974      7.175
  Name = 
  1 active torsions:
  status: ('A' for Active; 'I' for Inactive)
    1  A    between atoms: N_10  and  C_24
                            x       y       z     vdW  Elec       q    Type
                         _______ _______ _______ _____ _____    ______ ____

>  <TORSDO>
F 1

$$$$
=
 OpenBabel11052416473D

 32 37  0  0  0  0  0  0  0  0999 V2000
  192.1820  177.0770  140.6670 C   0  0  0  0  0  3  0  0  0  0  0  0
  187.6100  177.9410  143.1410 C   0  0  0  0  0  0  0  0  0  0  0  0
  188.8600  178.0470  147.8990 C   0  0  0  0  0  2  0  0  0  0  0  0
  187.5810  177.5030  148.1280 O   0  0  0  0  0  0  0  0  0  0  0  0
  185.1400  178.3810  142.9430 C   0  0  0  0  0  0  0  0  0  0  0  0
  184.7430  178.4270  141.5950 C   0  0  0  0  0  0  0  0  0  0  0  0
  189.1520  177.6280  141.3370 C   0  0  0  0  0  0  0  0  0  0  0  0
  189.9400  177.5420  143.6220 C   0  0  0  0  0  3  0  0  0  0  0  0
  182.8690  178.8140  143.6900 C   0  0  0  0  0  0  0  0  0  0  0  0
  191.4960  177.2280  141.9540 C   0  0  0  0  0  3  0  0  0  0  0  0
  189.3660  177.6140  146.5180 C   0  0  0  0  0  2  0  0  0  0  0  0
  188.6460  177.7800  144.0840 C   0  0  0  0  0  0  0  0  0  0  0  0
  188.3470  177.8720  145.4960 N   0  0  0  0  0  0  0  0  0  0  0  0
  186.0540  178.2530  144.9480 C   0  0  0  0  0  0  0  0  0  0  0  0
  182.4570  178.8630  142.3500 C   0  0  0  0  0  3  0  0  0  0  0  0
  190.3010  177.3720  139.0850 C   0  0  0  0  0  3  0  0  0  0  0  0
  190.2190  177.4610  142.2550 C   0  0  0  0  0  0  0  0  0  0  0  0
  183.3880  178.6710  141.3110 C   0  0  0  0  0  3  0  0  0  0  0  0
  189.2530  177.5760  139.8740 C   0  0  0  0  0  3  0  0  0  0  0  0
  191.7090  177.1320  139.4270 C   0  0  0  0  0  0  0  0  0  0  0  0
  186.6710  178.2530  147.3580 C   0  0  0  0  0  2  0  0  0  0  0  0
  186.9810  178.1000  145.8980 C   0  0  0  0  0  0  0  0  0  0  0  0
  184.7750  178.4930  145.1440 O   0  0  0  0  0  0  0  0  0  0  0  0
  187.8980  177.8600  141.8180 N   0  0  0  0  0  0  0  0  0  0  0  0
  185.6310  178.2420  140.5470 O   0  0  0  0  0  1  0  0  0  0  0  0
  181.9560  179.0040  144.7180 O   0  0  0  0  0  1  0  0  0  0  0  0
  186.3570  178.1710  143.5910 C   0  0  0  0  0  0  0  0  0  0  0  0
  184.2150  178.5720  143.9570 C   0  0  0  0  0  0  0  0  0  0  0  0
  192.8920  175.7460  137.6130 C   0  0  0  0  0  0  0  0  0  0  0  0
  192.6690  176.9380  138.3790 N   0  0  0  0  0  2  0  0  0  0  0  0
  192.2190  174.7020  137.8110 O   0  0  0  0  0  0  0  0  0  0  0  0
  193.9430  175.7460  136.5620 C   0  0  0  0  0  1  0  0  0  0  0  0
  1 10  1  0  0  0  0
  2 27  2  0  0  0  0
  2 12  1  0  0  0  0
  3  4  1  0  0  0  0
  5 27  1  0  0  0  0
  5 28  1  0  0  0  0
  6  5  2  0  0  0  0
  7 24  2  0  0  0  0
  7 17  1  0  0  0  0
  8 12  2  0  0  0  0
  9 28  2  0  0  0  0
  9 26  1  0  0  0  0
 10 17  2  0  0  0  0
 11  3  1  0  0  0  0
 12 13  1  0  0  0  0
 13 22  1  0  0  0  0
 13 11  1  0  0  0  0
 14 23  1  0  0  0  0
 14 22  2  0  0  0  0
 15  9  1  0  0  0  0
 16 20  1  0  0  0  0
 16 19  2  0  0  0  0
 17  8  1  0  0  0  0
 18  6  1  0  0  0  0
 18 15  2  0  0  0  0
 19  7  1  0  0  0  0
 20  1  2  0  0  0  0
 21  4  1  0  0  0  0
 22 21  1  0  0  0  0
 24  2  1  0  0  0  0
 25  6  1  0  0  0  0
 27 14  1  0  0  0  0
 28 23  1  0  0  0  0
 29 31  2  0  0  0  0
 29 30  1  0  0  0  0
 30 20  1  0  0  0  0
 32 29  1  0  0  0  0
M  END
>  <MODEL>
7

>  <REMARK>
 VINA RESULT:     -10.5      2.290      7.608
  Name = 
  1 active torsions:
  status: ('A' for Active; 'I' for Inactive)
    1  A    between atoms: N_10  and  C_24
                            x       y       z     vdW  Elec       q    Type
                         _______ _______ _______ _____ _____    ______ ____

>  <TORSDO>
F 1

$$$$
=
 OpenBabel11052416473D

 32 37  0  0  0  0  0  0  0  0999 V2000
  189.8580  177.0870  137.3700 C   0  0  0  0  0  3  0  0  0  0  0  0
  188.7790  177.5100  142.5110 C   0  0  0  0  0  0  0  0  0  0  0  0
  184.0580  178.8930  142.6030 C   0  0  0  0  0  2  0  0  0  0  0  0
  184.4060  179.5930  143.7740 O   0  0  0  0  0  0  0  0  0  0  0  0
  189.5920  177.2490  144.8790 C   0  0  0  0  0  0  0  0  0  0  0  0
  190.9210  176.7890  144.9070 C   0  0  0  0  0  0  0  0  0  0  0  0
  190.0260  177.0630  140.5180 C   0  0  0  0  0  0  0  0  0  0  0  0
  187.7410  177.8390  140.3580 C   0  0  0  0  0  3  0  0  0  0  0  0
  189.4920  177.2930  147.3050 C   0  0  0  0  0  0  0  0  0  0  0  0
  188.8610  177.4370  138.3870 C   0  0  0  0  0  3  0  0  0  0  0  0
  185.2770  178.7910  141.6800 C   0  0  0  0  0  2  0  0  0  0  0  0
  187.6530  177.8840  141.7490 C   0  0  0  0  0  0  0  0  0  0  0  0
  186.4420  178.2980  142.4220 N   0  0  0  0  0  0  0  0  0  0  0  0
  187.5340  177.9600  144.5190 C   0  0  0  0  0  0  0  0  0  0  0  0
  190.8160  176.8350  147.3510 C   0  0  0  0  0  3  0  0  0  0  0  0
  191.7830  176.4470  138.7870 C   0  0  0  0  0  3  0  0  0  0  0  0
  188.9160  177.4330  139.7180 C   0  0  0  0  0  0  0  0  0  0  0  0
  191.5250  176.5860  146.1600 C   0  0  0  0  0  3  0  0  0  0  0  0
  191.3340  176.6130  140.0250 C   0  0  0  0  0  3  0  0  0  0  0  0
  191.1090  176.6630  137.5010 C   0  0  0  0  0  0  0  0  0  0  0  0
  185.1630  178.7120  144.5710 C   0  0  0  0  0  2  0  0  0  0  0  0
  186.4330  178.3390  143.8640 C   0  0  0  0  0  0  0  0  0  0  0  0
  187.6810  177.9130  145.8250 O   0  0  0  0  0  0  0  0  0  0  0  0
  189.9110  177.1170  141.8740 N   0  0  0  0  0  0  0  0  0  0  0  0
  191.6490  176.5340  143.7550 O   0  0  0  0  0  1  0  0  0  0  0  0
  188.7870  177.5410  148.4760 O   0  0  0  0  0  1  0  0  0  0  0  0
  188.6910  177.5550  143.8590 C   0  0  0  0  0  0  0  0  0  0  0  0
  188.9040  177.4910  146.0570 C   0  0  0  0  0  0  0  0  0  0  0  0
  193.2380  176.4080  136.0820 C   0  0  0  0  0  0  0  0  0  0  0  0
  191.8180  176.4080  136.2800 N   0  0  0  0  0  2  0  0  0  0  0  0
  194.0340  176.6460  137.0280 O   0  0  0  0  0  0  0  0  0  0  0  0
  193.7830  176.1190  134.7300 C   0  0  0  0  0  1  0  0  0  0  0  0
  1 20  2  0  0  0  0
  1 10  1  0  0  0  0
  2 27  2  0  0  0  0
  3  4  1  0  0  0  0
  4 21  1  0  0  0  0
  5  6  2  0  0  0  0
  5 28  1  0  0  0  0
  6 18  1  0  0  0  0
  7 24  2  0  0  0  0
  8 12  2  0  0  0  0
  9 15  1  0  0  0  0
  9 26  1  0  0  0  0
 10 17  2  0  0  0  0
 11 13  1  0  0  0  0
 11  3  1  0  0  0  0
 12 13  1  0  0  0  0
 12  2  1  0  0  0  0
 13 22  1  0  0  0  0
 14 23  1  0  0  0  0
 16 19  2  0  0  0  0
 17  8  1  0  0  0  0
 17  7  1  0  0  0  0
 18 15  2  0  0  0  0
 19  7  1  0  0  0  0
 20 16  1  0  0  0  0
 22 14  2  0  0  0  0
 22 21  1  0  0  0  0
 23 28  1  0  0  0  0
 24  2  1  0  0  0  0
 25  6  1  0  0  0  0
 27 14  1  0  0  0  0
 27  5  1  0  0  0  0
 28  9  2  0  0  0  0
 29 30  1  0  0  0  0
 29 31  2  0  0  0  0
 30 20  1  0  0  0  0
 32 29  1  0  0  0  0
M  END
>  <MODEL>
8

>  <REMARK>
 VINA RESULT:     -10.4      2.469      8.090
  Name = 
  1 active torsions:
  status: ('A' for Active; 'I' for Inactive)
    1  A    between atoms: N_10  and  C_24
                            x       y       z     vdW  Elec       q    Type
                         _______ _______ _______ _____ _____    ______ ____

>  <TORSDO>
F 1

$$$$
=
 OpenBabel11052416473D

 32 37  0  0  0  0  0  0  0  0999 V2000
  183.0560  178.9730  140.1670 C   0  0  0  0  0  3  0  0  0  0  0  0
  187.2220  178.0210  143.2510 C   0  0  0  0  0  0  0  0  0  0  0  0
  190.9680  177.6800  140.0780 C   0  0  0  0  0  2  0  0  0  0  0  0
  191.5070  176.7530  140.9920 O   0  0  0  0  0  0  0  0  0  0  0  0
  188.1140  177.7420  145.5880 C   0  0  0  0  0  0  0  0  0  0  0  0
  187.0890  177.8980  146.5390 C   0  0  0  0  0  0  0  0  0  0  0  0
  184.9570  178.4860  142.6340 C   0  0  0  0  0  0  0  0  0  0  0  0
  186.6460  178.2490  140.9200 C   0  0  0  0  0  3  0  0  0  0  0  0
  189.7580  177.3560  147.3330 C   0  0  0  0  0  0  0  0  0  0  0  0
  184.4940  178.6950  140.2310 C   0  0  0  0  0  3  0  0  0  0  0  0
  189.4380  177.6560  140.1600 C   0  0  0  0  0  2  0  0  0  0  0  0
  187.6130  178.0150  141.8960 C   0  0  0  0  0  0  0  0  0  0  0  0
  188.9970  177.7730  141.5530 N   0  0  0  0  0  0  0  0  0  0  0  0
  189.4950  177.5500  143.8790 C   0  0  0  0  0  0  0  0  0  0  0  0
  188.7490  177.5080  148.2950 C   0  0  0  0  0  3  0  0  0  0  0  0
  182.4620  178.9670  142.5700 C   0  0  0  0  0  3  0  0  0  0  0  0
  185.3120  178.4870  141.2620 C   0  0  0  0  0  0  0  0  0  0  0  0
  187.4250  177.7770  147.8990 C   0  0  0  0  0  3  0  0  0  0  0  0
  183.6140  178.7160  143.1800 C   0  0  0  0  0  3  0  0  0  0  0  0
  182.1590  179.0960  141.1390 C   0  0  0  0  0  0  0  0  0  0  0  0
  191.3840  177.3220  142.2750 C   0  0  0  0  0  2  0  0  0  0  0  0
  189.9360  177.5170  142.6180 C   0  0  0  0  0  0  0  0  0  0  0  0
  190.2230  177.3670  144.9590 O   0  0  0  0  0  0  0  0  0  0  0  0
  185.9230  178.2550  143.5660 N   0  0  0  0  0  0  0  0  0  0  0  0
  185.7750  178.1630  146.1870 O   0  0  0  0  0  1  0  0  0  0  0  0
  191.0660  177.0910  147.7160 O   0  0  0  0  0  1  0  0  0  0  0  0
  188.1620  177.7930  144.1950 C   0  0  0  0  0  0  0  0  0  0  0  0
  189.4130  177.4780  145.9880 C   0  0  0  0  0  0  0  0  0  0  0  0
  180.3790  180.3960  139.8160 C   0  0  0  0  0  0  0  0  0  0  0  0
  180.8150  179.3740  140.7230 N   0  0  0  0  0  2  0  0  0  0  0  0
  181.1960  181.1850  139.2730 O   0  0  0  0  0  0  0  0  0  0  0  0
  178.9310  180.5250  139.5100 C   0  0  0  0  0  1  0  0  0  0  0  0
  1 10  1  0  0  0  0
  1 20  2  0  0  0  0
  2 24  1  0  0  0  0
  2 27  2  0  0  0  0
  3 11  1  0  0  0  0
  3  4  1  0  0  0  0
  4 21  1  0  0  0  0
  5 28  2  0  0  0  0
  5  6  1  0  0  0  0
  6 18  2  0  0  0  0
  7 19  1  0  0  0  0
  7 24  2  0  0  0  0
  8 17  1  0  0  0  0
  8 12  2  0  0  0  0
  9 26  1  0  0  0  0
  9 15  2  0  0  0  0
 10 17  2  0  0  0  0
 11 13  1  0  0  0  0
 12  2  1  0  0  0  0
 13 12  1  0  0  0  0
 13 22  1  0  0  0  0
 14 27  1  0  0  0  0
 14 23  1  0  0  0  0
 16 19  2  0  0  0  0
 17  7  1  0  0  0  0
 18 15  1  0  0  0  0
 20 16  1  0  0  0  0
 21 22  1  0  0  0  0
 22 14  2  0  0  0  0
 23 28  1  0  0  0  0
 25  6  1  0  0  0  0
 27  5  1  0  0  0  0
 28  9  1  0  0  0  0
 29 30  1  0  0  0  0
 30 20  1  0  0  0  0
 31 29  2  0  0  0  0
 32 29  1  0  0  0  0
M  END
>  <MODEL>
9

>  <REMARK>
 VINA RESULT:     -10.3      2.086      4.862
  Name = 
  1 active torsions:
  status: ('A' for Active; 'I' for Inactive)
    1  A    between atoms: N_10  and  C_24
                            x       y       z     vdW  Elec       q    Type
                         _______ _______ _______ _____ _____    ______ ____

>  <TORSDO>
F 1

$$$$
