=
 OpenBabel11052416163D

 43 46  0  0  1  0  0  0  0  0999 V2000
  185.2230  177.9820  139.4370 C   0  0  1  0  0  3  0  0  0  0  0  0
  181.4390  177.8690  139.1030 C   0  0  0  0  0  3  0  0  0  0  0  0
  181.1270  179.2120  138.8800 C   0  0  0  0  0  0  0  0  0  0  0  0
  181.8760  181.6320  138.6610 C   0  0  0  0  0  2  0  0  0  0  0  0
  182.7630  177.4690  139.2970 C   0  0  0  0  0  0  0  0  0  0  0  0
  179.6970  179.5770  138.5910 C   0  0  0  0  0  2  0  0  0  0  0  0
  183.4840  179.7680  139.0390 C   0  0  0  0  0  3  0  0  0  0  0  0
  183.0440  176.1260  139.5230 O   0  0  0  0  0  1  0  0  0  0  0  0
  179.4130  181.0780  138.7120 C   0  0  2  0  0  3  0  0  0  0  0  0
  183.7970  178.4180  139.2540 C   0  0  0  0  0  0  0  0  0  0  0  0
  180.5110  181.8860  138.0220 C   0  0  0  0  0  2  0  0  0  0  0  0
  182.1630  180.1690  138.8310 C   0  0  0  0  0  0  0  0  0  0  0  0
  179.2400  181.5060  140.1650 C   0  0  0  0  0  2  0  0  0  0  0  0
  179.0250  180.2950  141.0510 C   0  0  0  0  0  2  0  0  0  0  0  0
  179.6570  180.5440  142.4060 C   0  0  0  0  0  2  0  0  0  0  0  0
  179.9830  178.9620  143.2350 S   0  0  0  0  0  0  0  0  0  0  0  0
  181.6630  178.8500  142.5570 C   0  0  0  0  0  2  0  0  0  0  0  0
  182.6700  179.0520  143.6680 C   0  0  0  0  0  1  0  0  0  0  0  0
  185.9940  178.0350  138.1460 C   0  0  0  0  0  0  0  0  0  0  0  0
  186.3330  179.1080  137.6670 O   0  0  0  0  0  0  0  0  0  0  0  0
  186.2530  176.7550  137.4020 C   0  0  1  0  0  3  0  0  0  0  0  0
  182.6360  175.5420  135.3920 C   0  0  0  0  0  0  0  0  0  0  0  0
  184.5780  174.9800  136.7280 C   0  0  0  0  0  0  0  0  0  0  0  0
  183.0590  176.8720  135.3310 C   0  0  0  0  0  3  0  0  0  0  0  0
  181.1560  175.0580  134.5940 Cl  0  0  0  0  0  0  0  0  0  0  0  0
  185.0080  176.3190  136.6730 C   0  0  0  0  0  0  0  0  0  0  0  0
  183.3960  174.6000  136.0880 C   0  0  0  0  0  3  0  0  0  0  0  0
  184.2370  177.2600  135.9700 C   0  0  0  0  0  3  0  0  0  0  0  0
  185.4970  173.7530  137.5870 Cl  0  0  0  0  0  0  0  0  0  0  0  0
  187.5040  176.8160  136.5020 C   0  0  0  0  0  3  0  0  0  0  0  0
  188.7600  176.3700  137.2440 C   0  0  0  0  0  2  0  0  0  0  0  0
  189.6810  177.5540  137.4700 C   0  0  0  0  0  1  0  0  0  0  0  0
  188.6360  175.3280  134.7820 C   0  0  0  0  0  1  0  0  0  0  0  0
  187.3420  176.0020  135.2150 C   0  0  0  0  0  2  0  0  0  0  0  0
  185.8980  178.7490  140.5730 C   0  0  0  0  0  2  0  0  0  0  0  0
  189.1910  177.1140  141.6950 C   0  0  0  0  0  2  0  0  0  0  0  0
  189.0730  177.3080  143.2110 C   0  0  1  0  0  0  0  0  0  0  0  0
  189.7960  176.3120  143.8370 F   0  0  0  0  0  0  0  0  0  0  0  0
  186.7020  178.1400  142.8670 C   0  0  0  0  0  2  0  0  0  0  0  0
  188.2600  178.0500  140.9230 C   0  0  0  0  0  2  0  0  0  0  0  0
  186.8200  177.8420  141.3740 C   0  0  2  0  0  3  0  0  0  0  0  0
  189.6560  178.6500  143.6200 C   0  0  0  0  0  1  0  0  0  0  0  0
  187.6110  177.2020  143.6600 C   0  0  0  0  0  2  0  0  0  0  0  0
  1 35  1  1  0  0  0
  2  5  1  0  0  0  0
  3  2  2  0  0  0  0
  4 12  1  0  0  0  0
  5  8  1  0  0  0  0
  6  9  1  0  0  0  0
  6  3  1  0  0  0  0
  7 10  1  0  0  0  0
  9 13  1  1  0  0  0
 10  5  2  0  0  0  0
 10  1  1  0  0  0  0
 11  4  1  0  0  0  0
 11  9  1  0  0  0  0
 12  3  1  0  0  0  0
 12  7  2  0  0  0  0
 13 14  1  0  0  0  0
 14 15  1  0  0  0  0
 15 16  1  0  0  0  0
 17 16  1  0  0  0  0
 17 18  1  0  0  0  0
 19  1  1  0  0  0  0
 20 19  2  0  0  0  0
 21 30  1  6  0  0  0
 21 19  1  0  0  0  0
 22 27  1  0  0  0  0
 23 29  1  0  0  0  0
 24 22  2  0  0  0  0
 24 28  1  0  0  0  0
 25 22  1  0  0  0  0
 26 23  1  0  0  0  0
 26 21  1  0  0  0  0
 27 23  2  0  0  0  0
 28 26  2  0  0  0  0
 30 31  1  0  0  0  0
 31 32  1  0  0  0  0
 33 34  1  0  0  0  0
 34 30  1  0  0  0  0
 36 37  1  0  0  0  0
 37 42  1  1  0  0  0
 37 43  1  0  0  0  0
 37 38  1  0  0  0  0
 39 43  1  0  0  0  0
 40 41  1  0  0  0  0
 40 36  1  0  0  0  0
 41 35  1  6  0  0  0
 41 39  1  0  0  0  0
M  END
>  <MODEL>
1

>  <REMARK>
 VINA RESULT:      -5.5      0.000      0.000
  Name = 
  14 active torsions:
  status: ('A' for Active; 'I' for Inactive)
    1  A    between atoms: C_1  and  C_34
    2  A    between atoms: C_1  and  C_35
    3  A    between atoms: C_2  and  C_27
    4  A    between atoms: C_8  and  C_30
    5  A    between atoms: C_8  and  C_34
    6  A    between atoms: C_11  and  C_22
    7  A    between atoms: C_11  and  C_36
    8  A    between atoms: C_13  and  C_27
    9  A    between atoms: C_21  and  C_30
   10  A    between atoms: C_26  and  S_31
   11  A    between atoms: C_27  and  C_30
   12  A    between atoms: C_29  and  S_31
   13  A    between atoms: C_29  and  C_36
   14  A    between atoms: C_34  and  C_38
                            x       y       z     vdW  Elec       q    Type
                         _______ _______ _______ _____ _____    ______ ____

>  <TORSDO>
F 14

$$$$
=
 OpenBabel11052416163D

 43 46  0  0  1  0  0  0  0  0999 V2000
  184.9230  179.1230  140.5070 C   0  0  1  0  0  3  0  0  0  0  0  0
  187.8570  177.7490  138.5210 C   0  0  0  0  0  3  0  0  0  0  0  0
  187.2520  177.4130  137.3060 C   0  0  0  0  0  0  0  0  0  0  0  0
  185.1630  177.2380  135.8680 C   0  0  0  0  0  2  0  0  0  0  0  0
  187.1020  178.2900  139.5640 C   0  0  0  0  0  0  0  0  0  0  0  0
  188.1250  176.9140  136.1870 C   0  0  0  0  0  2  0  0  0  0  0  0
  185.1190  178.1710  138.1770 C   0  0  0  0  0  3  0  0  0  0  0  0
  187.7280  178.6090  140.7630 O   0  0  0  0  0  1  0  0  0  0  0  0
  187.3390  176.2540  135.0480 C   0  0  2  0  0  3  0  0  0  0  0  0
  185.7270  178.5170  139.3930 C   0  0  0  0  0  0  0  0  0  0  0  0
  186.1180  177.0970  134.6830 C   0  0  0  0  0  2  0  0  0  0  0  0
  185.8720  177.6420  137.1280 C   0  0  0  0  0  0  0  0  0  0  0  0
  186.9420  174.8230  135.3910 C   0  0  0  0  0  2  0  0  0  0  0  0
  188.0650  174.1250  136.1320 C   0  0  0  0  0  2  0  0  0  0  0  0
  187.5460  172.8350  136.7330 C   0  0  0  0  0  2  0  0  0  0  0  0
  185.8220  172.5690  136.2300 S   0  0  0  0  0  0  0  0  0  0  0  0
  185.1760  173.0870  137.8450 C   0  0  0  0  0  2  0  0  0  0  0  0
  184.0260  174.0490  137.6440 C   0  0  0  0  0  1  0  0  0  0  0  0
  183.7060  178.2990  140.8310 C   0  0  0  0  0  0  0  0  0  0  0  0
  183.8220  177.1620  141.2650 O   0  0  0  0  0  0  0  0  0  0  0  0
  182.3460  178.8580  140.5170 C   0  0  1  0  0  3  0  0  0  0  0  0
  181.4390  178.0750  136.3750 C   0  0  0  0  0  0  0  0  0  0  0  0
  181.7430  179.6520  138.1900 C   0  0  0  0  0  0  0  0  0  0  0  0
  181.6850  177.0150  137.2500 C   0  0  0  0  0  3  0  0  0  0  0  0
  181.0920  177.7550  134.6900 Cl  0  0  0  0  0  0  0  0  0  0  0  0
  181.9950  178.5880  139.0760 C   0  0  0  0  0  0  0  0  0  0  0  0
  181.4660  179.3890  136.8460 C   0  0  0  0  0  3  0  0  0  0  0  0
  181.9650  177.2690  138.5940 C   0  0  0  0  0  3  0  0  0  0  0  0
  181.7620  181.3230  138.7290 Cl  0  0  0  0  0  0  0  0  0  0  0  0
  181.2580  178.4050  141.5120 C   0  0  0  0  0  3  0  0  0  0  0  0
  181.1270  179.3660  142.6890 C   0  0  0  0  0  2  0  0  0  0  0  0
  180.6100  178.6300  143.9100 C   0  0  0  0  0  1  0  0  0  0  0  0
  179.3510  176.8010  141.0130 C   0  0  0  0  0  1  0  0  0  0  0  0
  179.8930  178.2120  140.8420 C   0  0  0  0  0  2  0  0  0  0  0  0
  185.7930  179.4160  141.7270 C   0  0  0  0  0  2  0  0  0  0  0  0
  185.7050  177.4500  145.0290 C   0  0  0  0  0  2  0  0  0  0  0  0
  184.9590  178.4580  145.9100 C   0  0  1  0  0  0  0  0  0  0  0  0
  184.3010  177.7640  146.9070 F   0  0  0  0  0  0  0  0  0  0  0  0
  184.5360  179.8710  143.8470 C   0  0  0  0  0  2  0  0  0  0  0  0
  186.2980  178.1080  143.7820 C   0  0  0  0  0  2  0  0  0  0  0  0
  185.2000  178.7990  142.9850 C   0  0  2  0  0  3  0  0  0  0  0  0
  185.9400  179.4170  146.5640 C   0  0  0  0  0  1  0  0  0  0  0  0
  183.9200  179.2320  145.0910 C   0  0  0  0  0  2  0  0  0  0  0  0
  1 19  1  0  0  0  0
  1 35  1  1  0  0  0
  2  5  1  0  0  0  0
  3  2  2  0  0  0  0
  4 12  1  0  0  0  0
  5  8  1  0  0  0  0
  6  3  1  0  0  0  0
  7 10  1  0  0  0  0
  9 13  1  1  0  0  0
  9  6  1  0  0  0  0
 10  5  2  0  0  0  0
 10  1  1  0  0  0  0
 11  9  1  0  0  0  0
 11  4  1  0  0  0  0
 12  3  1  0  0  0  0
 12  7  2  0  0  0  0
 13 14  1  0  0  0  0
 14 15  1  0  0  0  0
 16 15  1  0  0  0  0
 16 17  1  0  0  0  0
 18 17  1  0  0  0  0
 19 20  2  0  0  0  0
 21 19  1  1  0  0  0
 21 30  1  0  0  0  0
 22 27  2  0  0  0  0
 22 24  1  0  0  0  0
 23 29  1  0  0  0  0
 23 26  2  0  0  0  0
 24 28  2  0  0  0  0
 25 22  1  0  0  0  0
 26 21  1  0  0  0  0
 27 23  1  0  0  0  0
 28 26  1  0  0  0  0
 30 31  1  0  0  0  0
 31 32  1  0  0  0  0
 34 33  1  0  0  0  0
 34 30  1  0  0  0  0
 36 37  1  0  0  0  0
 37 42  1  1  0  0  0
 37 38  1  0  0  0  0
 39 43  1  0  0  0  0
 40 36  1  0  0  0  0
 41 35  1  6  0  0  0
 41 40  1  0  0  0  0
 41 39  1  0  0  0  0
 43 37  1  0  0  0  0
M  END
>  <MODEL>
2

>  <REMARK>
 VINA RESULT:      -5.4      2.942      6.915
  Name = 
  14 active torsions:
  status: ('A' for Active; 'I' for Inactive)
    1  A    between atoms: C_1  and  C_34
    2  A    between atoms: C_1  and  C_35
    3  A    between atoms: C_2  and  C_27
    4  A    between atoms: C_8  and  C_30
    5  A    between atoms: C_8  and  C_34
    6  A    between atoms: C_11  and  C_22
    7  A    between atoms: C_11  and  C_36
    8  A    between atoms: C_13  and  C_27
    9  A    between atoms: C_21  and  C_30
   10  A    between atoms: C_26  and  S_31
   11  A    between atoms: C_27  and  C_30
   12  A    between atoms: C_29  and  S_31
   13  A    between atoms: C_29  and  C_36
   14  A    between atoms: C_34  and  C_38
                            x       y       z     vdW  Elec       q    Type
                         _______ _______ _______ _____ _____    ______ ____

>  <TORSDO>
F 14

$$$$
=
 OpenBabel11052416163D

 43 46  0  0  1  0  0  0  0  0999 V2000
  187.6170  178.7290  141.2680 C   0  0  1  0  0  3  0  0  0  0  0  0
  183.9470  178.8000  142.2490 C   0  0  0  0  0  3  0  0  0  0  0  0
  183.3130  178.6860  141.0090 C   0  0  0  0  0  0  0  0  0  0  0  0
  183.4590  178.5180  138.4760 C   0  0  0  0  0  2  0  0  0  0  0  0
  185.3400  178.8280  142.3350 C   0  0  0  0  0  0  0  0  0  0  0  0
  181.8140  178.5730  140.9790 C   0  0  0  0  0  2  0  0  0  0  0  0
  185.4830  178.6180  139.9260 C   0  0  0  0  0  3  0  0  0  0  0  0
  185.9440  178.9490  143.5810 O   0  0  0  0  0  1  0  0  0  0  0  0
  181.2110  178.8040  139.5890 C   0  0  2  0  0  3  0  0  0  0  0  0
  186.1190  178.7250  141.1710 C   0  0  0  0  0  0  0  0  0  0  0  0
  182.0070  178.0450  138.5290 C   0  0  0  0  0  2  0  0  0  0  0  0
  184.0910  178.5760  139.8360 C   0  0  0  0  0  0  0  0  0  0  0  0
  181.1180  180.2890  139.2530 C   0  0  0  0  0  2  0  0  0  0  0  0
  180.3610  180.4900  137.9550 C   0  0  0  0  0  2  0  0  0  0  0  0
  180.9940  181.6250  137.1740 C   0  0  0  0  0  2  0  0  0  0  0  0
  179.7230  182.4980  136.2160 S   0  0  0  0  0  0  0  0  0  0  0  0
  180.8220  183.9010  135.8690 C   0  0  0  0  0  2  0  0  0  0  0  0
  181.4720  184.3630  137.1550 C   0  0  0  0  0  1  0  0  0  0  0  0
  188.1310  177.5490  142.0480 C   0  0  0  0  0  0  0  0  0  0  0  0
  187.4670  176.5250  142.1380 O   0  0  0  0  0  0  0  0  0  0  0  0
  189.4250  177.6830  142.8000 C   0  0  1  0  0  3  0  0  0  0  0  0
  188.6160  177.7400  147.0340 C   0  0  0  0  0  0  0  0  0  0  0  0
  190.0440  178.3300  145.1680 C   0  0  0  0  0  0  0  0  0  0  0  0
  187.7410  177.0860  146.1640 C   0  0  0  0  0  3  0  0  0  0  0  0
  188.2730  177.7800  148.7500 Cl  0  0  0  0  0  0  0  0  0  0  0  0
  189.1650  177.6770  144.2850 C   0  0  0  0  0  0  0  0  0  0  0  0
  189.7640  178.3580  146.5370 C   0  0  0  0  0  3  0  0  0  0  0  0
  188.0120  177.0560  144.7950 C   0  0  0  0  0  3  0  0  0  0  0  0
  191.5040  179.1210  144.5960 Cl  0  0  0  0  0  0  0  0  0  0  0  0
  190.4940  176.6620  142.3580 C   0  0  0  0  0  3  0  0  0  0  0  0
  191.8820  177.2910  142.2800 C   0  0  0  0  0  2  0  0  0  0  0  0
  192.2740  177.5140  140.8320 C   0  0  0  0  0  1  0  0  0  0  0  0
  191.8360  175.3040  144.0340 C   0  0  0  0  0  1  0  0  0  0  0  0
  190.5320  175.4240  143.2580 C   0  0  0  0  0  2  0  0  0  0  0  0
  188.2650  178.8670  139.8920 C   0  0  0  0  0  2  0  0  0  0  0  0
  187.7940  175.9600  137.4230 C   0  0  0  0  0  2  0  0  0  0  0  0
  189.2550  175.7130  137.0320 C   0  0  1  0  0  0  0  0  0  0  0  0
  189.3900  174.3910  136.6540 F   0  0  0  0  0  0  0  0  0  0  0  0
  189.9590  177.3580  138.8290 C   0  0  0  0  0  2  0  0  0  0  0  0
  187.5930  177.3420  138.0450 C   0  0  0  0  0  2  0  0  0  0  0  0
  188.5010  177.5050  139.2570 C   0  0  2  0  0  3  0  0  0  0  0  0
  189.6430  176.5890  135.8520 C   0  0  0  0  0  1  0  0  0  0  0  0
  190.1870  175.9750  138.2200 C   0  0  0  0  0  2  0  0  0  0  0  0
  1 35  1  6  0  0  0
  1 19  1  0  0  0  0
  2  5  1  0  0  0  0
  3  2  2  0  0  0  0
  4 11  1  0  0  0  0
  4 12  1  0  0  0  0
  5  8  1  0  0  0  0
  6  3  1  0  0  0  0
  7 10  1  0  0  0  0
  9 13  1  6  0  0  0
  9  6  1  0  0  0  0
 10  1  1  0  0  0  0
 10  5  2  0  0  0  0
 11  9  1  0  0  0  0
 12  7  2  0  0  0  0
 12  3  1  0  0  0  0
 14 13  1  0  0  0  0
 15 14  1  0  0  0  0
 16 15  1  0  0  0  0
 17 16  1  0  0  0  0
 17 18  1  0  0  0  0
 19 20  2  0  0  0  0
 21 19  1  6  0  0  0
 21 26  1  0  0  0  0
 22 25  1  0  0  0  0
 23 27  2  0  0  0  0
 24 22  2  0  0  0  0
 26 28  2  0  0  0  0
 26 23  1  0  0  0  0
 27 22  1  0  0  0  0
 28 24  1  0  0  0  0
 29 23  1  0  0  0  0
 30 21  1  0  0  0  0
 30 34  1  0  0  0  0
 31 30  1  0  0  0  0
 32 31  1  0  0  0  0
 34 33  1  0  0  0  0
 36 40  1  0  0  0  0
 37 42  1  6  0  0  0
 37 36  1  0  0  0  0
 37 43  1  0  0  0  0
 38 37  1  0  0  0  0
 39 41  1  0  0  0  0
 40 41  1  0  0  0  0
 41 35  1  6  0  0  0
 43 39  1  0  0  0  0
M  END
>  <MODEL>
3

>  <REMARK>
 VINA RESULT:      -5.3      3.920      7.107
  Name = 
  14 active torsions:
  status: ('A' for Active; 'I' for Inactive)
    1  A    between atoms: C_1  and  C_34
    2  A    between atoms: C_1  and  C_35
    3  A    between atoms: C_2  and  C_27
    4  A    between atoms: C_8  and  C_30
    5  A    between atoms: C_8  and  C_34
    6  A    between atoms: C_11  and  C_22
    7  A    between atoms: C_11  and  C_36
    8  A    between atoms: C_13  and  C_27
    9  A    between atoms: C_21  and  C_30
   10  A    between atoms: C_26  and  S_31
   11  A    between atoms: C_27  and  C_30
   12  A    between atoms: C_29  and  S_31
   13  A    between atoms: C_29  and  C_36
   14  A    between atoms: C_34  and  C_38
                            x       y       z     vdW  Elec       q    Type
                         _______ _______ _______ _____ _____    ______ ____

>  <TORSDO>
F 14

$$$$
=
 OpenBabel11052416163D

 43 46  0  0  1  0  0  0  0  0999 V2000
  187.8380  177.9190  139.5560 C   0  0  1  0  0  3  0  0  0  0  0  0
  184.4310  179.0840  140.7730 C   0  0  0  0  0  3  0  0  0  0  0  0
  183.6210  178.8170  139.6660 C   0  0  0  0  0  0  0  0  0  0  0  0
  183.3770  177.9990  137.2710 C   0  0  0  0  0  2  0  0  0  0  0  0
  185.8000  178.8070  140.7350 C   0  0  0  0  0  0  0  0  0  0  0  0
  182.1410  179.0530  139.7880 C   0  0  0  0  0  2  0  0  0  0  0  0
  185.5600  177.9800  138.4710 C   0  0  0  0  0  3  0  0  0  0  0  0
  186.5830  179.0890  141.8490 O   0  0  0  0  0  1  0  0  0  0  0  0
  181.4110  179.0680  138.4410 C   0  0  2  0  0  3  0  0  0  0  0  0
  186.3710  178.2400  139.5850 C   0  0  0  0  0  0  0  0  0  0  0  0
  181.8800  177.9050  137.5670 C   0  0  0  0  0  2  0  0  0  0  0  0
  184.1890  178.2430  138.5090 C   0  0  0  0  0  0  0  0  0  0  0  0
  181.5760  180.4020  137.7220 C   0  0  0  0  0  2  0  0  0  0  0  0
  180.6950  181.4590  138.3600 C   0  0  0  0  0  2  0  0  0  0  0  0
  180.8320  182.7580  137.5930 C   0  0  0  0  0  2  0  0  0  0  0  0
  180.2980  182.5200  135.8750 S   0  0  0  0  0  0  0  0  0  0  0  0
  180.7970  184.1970  135.3930 C   0  0  0  0  0  2  0  0  0  0  0  0
  181.1770  184.9850  136.6270 C   0  0  0  0  0  1  0  0  0  0  0  0
  188.4720  178.3140  138.2500 C   0  0  0  0  0  0  0  0  0  0  0  0
  188.7030  179.4880  138.0000 O   0  0  0  0  0  0  0  0  0  0  0  0
  188.7220  177.2530  137.2150 C   0  0  1  0  0  3  0  0  0  0  0  0
  192.7770  175.8360  137.5890 C   0  0  0  0  0  0  0  0  0  0  0  0
  190.8520  176.3300  136.2030 C   0  0  0  0  0  0  0  0  0  0  0  0
  192.0630  176.2230  138.7250 C   0  0  0  0  0  3  0  0  0  0  0  0
  194.4300  175.2820  137.7420 Cl  0  0  0  0  0  0  0  0  0  0  0  0
  190.1280  176.7250  137.3440 C   0  0  0  0  0  0  0  0  0  0  0  0
  192.1710  175.8880  136.3330 C   0  0  0  0  0  3  0  0  0  0  0  0
  190.7460  176.6680  138.6040 C   0  0  0  0  0  3  0  0  0  0  0  0
  190.1370  176.3730  134.5990 Cl  0  0  0  0  0  0  0  0  0  0  0  0
  187.6470  176.1470  137.2040 C   0  0  0  0  0  3  0  0  0  0  0  0
  186.8280  176.1630  135.9170 C   0  0  0  0  0  2  0  0  0  0  0  0
  186.9570  177.5100  135.2330 C   0  0  0  0  0  1  0  0  0  0  0  0
  188.0060  173.8210  136.2480 C   0  0  0  0  0  1  0  0  0  0  0  0
  188.2370  174.7520  137.4290 C   0  0  0  0  0  2  0  0  0  0  0  0
  188.5580  178.4960  140.7730 C   0  0  0  0  0  2  0  0  0  0  0  0
  191.6930  177.1670  142.5570 C   0  0  0  0  0  2  0  0  0  0  0  0
  191.0300  176.2780  143.6160 C   0  0  1  0  0  0  0  0  0  0  0  0
  191.9130  175.2720  143.9560 F   0  0  0  0  0  0  0  0  0  0  0  0
  188.7990  176.6770  142.4790 C   0  0  0  0  0  2  0  0  0  0  0  0
  190.7150  178.1880  141.9730 C   0  0  0  0  0  2  0  0  0  0  0  0
  189.5050  177.4750  141.3860 C   0  0  2  0  0  3  0  0  0  0  0  0
  190.7210  177.0850  144.8650 C   0  0  0  0  0  1  0  0  0  0  0  0
  189.7520  175.6360  143.0640 C   0  0  0  0  0  2  0  0  0  0  0  0
  1 10  1  0  0  0  0
  1 35  1  1  0  0  0
  3  6  1  0  0  0  0
  3  2  2  0  0  0  0
  4 11  1  0  0  0  0
  4 12  1  0  0  0  0
  5  2  1  0  0  0  0
  5  8  1  0  0  0  0
  7 12  2  0  0  0  0
  7 10  1  0  0  0  0
  9 13  1  6  0  0  0
  9  6  1  0  0  0  0
 10  5  2  0  0  0  0
 11  9  1  0  0  0  0
 12  3  1  0  0  0  0
 13 14  1  0  0  0  0
 15 14  1  0  0  0  0
 16 15  1  0  0  0  0
 17 16  1  0  0  0  0
 17 18  1  0  0  0  0
 19  1  1  0  0  0  0
 20 19  2  0  0  0  0
 21 30  1  1  0  0  0
 21 26  1  0  0  0  0
 21 19  1  0  0  0  0
 22 25  1  0  0  0  0
 22 24  1  0  0  0  0
 23 27  1  0  0  0  0
 23 26  2  0  0  0  0
 26 28  1  0  0  0  0
 27 22  2  0  0  0  0
 28 24  2  0  0  0  0
 29 23  1  0  0  0  0
 30 34  1  0  0  0  0
 31 30  1  0  0  0  0
 32 31  1  0  0  0  0
 33 34  1  0  0  0  0
 36 37  1  0  0  0  0
 37 38  1  0  0  0  0
 37 42  1  1  0  0  0
 39 43  1  0  0  0  0
 40 36  1  0  0  0  0
 41 35  1  1  0  0  0
 41 40  1  0  0  0  0
 41 39  1  0  0  0  0
 43 37  1  0  0  0  0
M  END
>  <MODEL>
4

>  <REMARK>
 VINA RESULT:      -5.3      2.904      5.188
  Name = 
  14 active torsions:
  status: ('A' for Active; 'I' for Inactive)
    1  A    between atoms: C_1  and  C_34
    2  A    between atoms: C_1  and  C_35
    3  A    between atoms: C_2  and  C_27
    4  A    between atoms: C_8  and  C_30
    5  A    between atoms: C_8  and  C_34
    6  A    between atoms: C_11  and  C_22
    7  A    between atoms: C_11  and  C_36
    8  A    between atoms: C_13  and  C_27
    9  A    between atoms: C_21  and  C_30
   10  A    between atoms: C_26  and  S_31
   11  A    between atoms: C_27  and  C_30
   12  A    between atoms: C_29  and  S_31
   13  A    between atoms: C_29  and  C_36
   14  A    between atoms: C_34  and  C_38
                            x       y       z     vdW  Elec       q    Type
                         _______ _______ _______ _____ _____    ______ ____

>  <TORSDO>
F 14

$$$$
=
 OpenBabel11052416163D

 43 46  0  0  1  0  0  0  0  0999 V2000
  184.0700  177.8540  138.0100 C   0  0  1  0  0  3  0  0  0  0  0  0
  187.4720  177.2300  136.4360 C   0  0  0  0  0  3  0  0  0  0  0  0
  187.4200  175.8600  136.1670 C   0  0  0  0  0  0  0  0  0  0  0  0
  186.1780  173.6450  136.2870 C   0  0  0  0  0  2  0  0  0  0  0  0
  186.3940  177.8760  137.0460 C   0  0  0  0  0  0  0  0  0  0  0  0
  188.5710  175.2310  135.4310 C   0  0  0  0  0  2  0  0  0  0  0  0
  185.1890  175.7750  137.1160 C   0  0  0  0  0  3  0  0  0  0  0  0
  186.4760  179.2390  137.3080 O   0  0  0  0  0  1  0  0  0  0  0  0
  188.5760  173.7000  135.5000 C   0  0  2  0  0  3  0  0  0  0  0  0
  185.2380  177.1520  137.3790 C   0  0  0  0  0  0  0  0  0  0  0  0
  187.1750  173.1490  135.2400 C   0  0  0  0  0  2  0  0  0  0  0  0
  186.2590  175.1290  136.4950 C   0  0  0  0  0  0  0  0  0  0  0  0
  189.1330  173.1950  136.8260 C   0  0  0  0  0  2  0  0  0  0  0  0
  190.3820  173.9660  137.2040 C   0  0  0  0  0  2  0  0  0  0  0  0
  191.5750  173.3800  136.4740 C   0  0  0  0  0  2  0  0  0  0  0  0
  193.0350  174.4260  136.7400 S   0  0  0  0  0  0  0  0  0  0  0  0
  192.0880  175.6660  137.6680 C   0  0  0  0  0  2  0  0  0  0  0  0
  193.0420  176.6210  138.3520 C   0  0  0  0  0  1  0  0  0  0  0  0
  182.8730  177.8780  137.1000 C   0  0  0  0  0  0  0  0  0  0  0  0
  183.0070  177.7400  135.8920 O   0  0  0  0  0  0  0  0  0  0  0  0
  181.5210  178.1760  137.6850 C   0  0  1  0  0  3  0  0  0  0  0  0
  179.7920  181.5090  135.5660 C   0  0  0  0  0  0  0  0  0  0  0  0
  181.1850  180.6640  137.3590 C   0  0  0  0  0  0  0  0  0  0  0  0
  179.4940  180.2020  135.1760 C   0  0  0  0  0  3  0  0  0  0  0  0
  179.1060  182.8600  134.6900 Cl  0  0  0  0  0  0  0  0  0  0  0  0
  180.8930  179.3440  136.9690 C   0  0  0  0  0  0  0  0  0  0  0  0
  180.6340  181.7380  136.6560 C   0  0  0  0  0  3  0  0  0  0  0  0
  180.0440  179.1230  135.8720 C   0  0  0  0  0  3  0  0  0  0  0  0
  182.2360  181.0090  138.7240 Cl  0  0  0  0  0  0  0  0  0  0  0  0
  180.6060  176.9370  137.7640 C   0  0  0  0  0  3  0  0  0  0  0  0
  181.3080  175.6780  137.2640 C   0  0  0  0  0  2  0  0  0  0  0  0
  180.3040  174.7420  136.6190 C   0  0  0  0  0  1  0  0  0  0  0  0
  180.0130  177.9760  140.0060 C   0  0  0  0  0  1  0  0  0  0  0  0
  180.0570  176.7020  139.1750 C   0  0  0  0  0  2  0  0  0  0  0  0
  183.7610  177.2870  139.3950 C   0  0  0  0  0  2  0  0  0  0  0  0
  183.3850  179.0020  142.8130 C   0  0  0  0  0  2  0  0  0  0  0  0
  184.8610  179.2500  143.1420 C   0  0  1  0  0  0  0  0  0  0  0  0
  184.9440  180.3450  143.9810 F   0  0  0  0  0  0  0  0  0  0  0  0
  185.4580  178.4780  140.8020 C   0  0  0  0  0  2  0  0  0  0  0  0
  183.2100  177.9350  141.7320 C   0  0  0  0  0  2  0  0  0  0  0  0
  183.9740  178.3350  140.4770 C   0  0  2  0  0  3  0  0  0  0  0  0
  185.4520  178.0500  143.8640 C   0  0  0  0  0  1  0  0  0  0  0  0
  185.6580  179.5530  141.8690 C   0  0  0  0  0  2  0  0  0  0  0  0
  1 35  1  1  0  0  0
  2  5  1  0  0  0  0
  3  2  2  0  0  0  0
  3 12  1  0  0  0  0
  4 12  1  0  0  0  0
  5  8  1  0  0  0  0
  5 10  2  0  0  0  0
  6  9  1  0  0  0  0
  6  3  1  0  0  0  0
  7 10  1  0  0  0  0
  9 13  1  1  0  0  0
 10  1  1  0  0  0  0
 11  9  1  0  0  0  0
 11  4  1  0  0  0  0
 12  7  2  0  0  0  0
 13 14  1  0  0  0  0
 15 16  1  0  0  0  0
 15 14  1  0  0  0  0
 16 17  1  0  0  0  0
 17 18  1  0  0  0  0
 19  1  1  0  0  0  0
 20 19  2  0  0  0  0
 21 19  1  6  0  0  0
 21 30  1  0  0  0  0
 22 27  1  0  0  0  0
 23 29  1  0  0  0  0
 24 22  2  0  0  0  0
 24 28  1  0  0  0  0
 25 22  1  0  0  0  0
 26 23  1  0  0  0  0
 26 21  1  0  0  0  0
 27 23  2  0  0  0  0
 28 26  2  0  0  0  0
 30 34  1  0  0  0  0
 31 30  1  0  0  0  0
 32 31  1  0  0  0  0
 34 33  1  0  0  0  0
 36 37  1  0  0  0  0
 37 42  1  1  0  0  0
 37 38  1  0  0  0  0
 39 43  1  0  0  0  0
 40 36  1  0  0  0  0
 41 35  1  6  0  0  0
 41 39  1  0  0  0  0
 41 40  1  0  0  0  0
 43 37  1  0  0  0  0
M  END
>  <MODEL>
5

>  <REMARK>
 VINA RESULT:      -4.9      3.659      8.022
  Name = 
  14 active torsions:
  status: ('A' for Active; 'I' for Inactive)
    1  A    between atoms: C_1  and  C_34
    2  A    between atoms: C_1  and  C_35
    3  A    between atoms: C_2  and  C_27
    4  A    between atoms: C_8  and  C_30
    5  A    between atoms: C_8  and  C_34
    6  A    between atoms: C_11  and  C_22
    7  A    between atoms: C_11  and  C_36
    8  A    between atoms: C_13  and  C_27
    9  A    between atoms: C_21  and  C_30
   10  A    between atoms: C_26  and  S_31
   11  A    between atoms: C_27  and  C_30
   12  A    between atoms: C_29  and  S_31
   13  A    between atoms: C_29  and  C_36
   14  A    between atoms: C_34  and  C_38
                            x       y       z     vdW  Elec       q    Type
                         _______ _______ _______ _____ _____    ______ ____

>  <TORSDO>
F 14

$$$$
=
 OpenBabel11052416163D

 43 46  0  0  1  0  0  0  0  0999 V2000
  186.6270  178.2510  142.6800 C   0  0  1  0  0  3  0  0  0  0  0  0
  182.8870  178.6220  142.1180 C   0  0  0  0  0  3  0  0  0  0  0  0
  182.8180  178.7930  140.7320 C   0  0  0  0  0  0  0  0  0  0  0  0
  183.9890  179.0240  138.4880 C   0  0  0  0  0  2  0  0  0  0  0  0
  184.1200  178.4610  142.7530 C   0  0  0  0  0  0  0  0  0  0  0  0
  181.4610  178.8760  140.0890 C   0  0  0  0  0  2  0  0  0  0  0  0
  185.2350  178.6310  140.6090 C   0  0  0  0  0  3  0  0  0  0  0  0
  184.1600  178.3000  144.1330 O   0  0  0  0  0  1  0  0  0  0  0  0
  181.4990  179.4050  138.6510 C   0  0  2  0  0  3  0  0  0  0  0  0
  185.3040  178.4520  141.9980 C   0  0  0  0  0  0  0  0  0  0  0  0
  182.6250  178.7350  137.8640 C   0  0  0  0  0  2  0  0  0  0  0  0
  184.0040  178.7790  139.9680 C   0  0  0  0  0  0  0  0  0  0  0  0
  181.6240  180.9240  138.6100 C   0  0  0  0  0  2  0  0  0  0  0  0
  180.2840  181.5720  138.8980 C   0  0  0  0  0  2  0  0  0  0  0  0
  179.8030  182.3060  137.6630 C   0  0  0  0  0  2  0  0  0  0  0  0
  179.0920  183.9080  138.1340 S   0  0  0  0  0  0  0  0  0  0  0  0
  180.0830  184.8100  136.9090 C   0  0  0  0  0  2  0  0  0  0  0  0
  181.5540  184.6280  137.2170 C   0  0  0  0  0  1  0  0  0  0  0  0
  187.7800  178.5880  141.7740 C   0  0  0  0  0  0  0  0  0  0  0  0
  187.9340  179.7280  141.3590 O   0  0  0  0  0  0  0  0  0  0  0  0
  188.6820  177.4810  141.3040 C   0  0  1  0  0  3  0  0  0  0  0  0
  189.0550  177.5110  137.0090 C   0  0  0  0  0  0  0  0  0  0  0  0
  190.0890  177.5100  139.2000 C   0  0  0  0  0  0  0  0  0  0  0  0
  187.7900  177.5300  137.6020 C   0  0  0  0  0  3  0  0  0  0  0  0
  189.2020  177.5010  135.2650 Cl  0  0  0  0  0  0  0  0  0  0  0  0
  188.8180  177.5260  139.8040 C   0  0  0  0  0  0  0  0  0  0  0  0
  190.2000  177.5030  137.8070 C   0  0  0  0  0  3  0  0  0  0  0  0
  187.6710  177.5350  138.9930 C   0  0  0  0  0  3  0  0  0  0  0  0
  191.5630  177.5030  140.1570 Cl  0  0  0  0  0  0  0  0  0  0  0  0
  190.0350  177.4420  142.0450 C   0  0  0  0  0  3  0  0  0  0  0  0
  190.1930  178.6210  143.0010 C   0  0  0  0  0  2  0  0  0  0  0  0
  191.5880  178.6260  143.5960 C   0  0  0  0  0  1  0  0  0  0  0  0
  188.9470  175.4680  143.2180 C   0  0  0  0  0  1  0  0  0  0  0  0
  190.2530  176.1270  142.7990 C   0  0  0  0  0  2  0  0  0  0  0  0
  186.6800  178.9840  144.0190 C   0  0  0  0  0  2  0  0  0  0  0  0
  188.8470  177.0340  146.5230 C   0  0  0  0  0  2  0  0  0  0  0  0
  188.0890  177.3450  147.8180 C   0  0  1  0  0  0  0  0  0  0  0  0
  188.3040  176.3110  148.7100 F   0  0  0  0  0  0  0  0  0  0  0  0
  186.2710  178.4390  146.4300 C   0  0  0  0  0  2  0  0  0  0  0  0
  188.5060  178.0230  145.4080 C   0  0  0  0  0  2  0  0  0  0  0  0
  187.0040  178.0270  145.1560 C   0  0  2  0  0  3  0  0  0  0  0  0
  188.6110  178.6290  148.4420 C   0  0  0  0  0  1  0  0  0  0  0  0
  186.5830  177.4520  147.5540 C   0  0  0  0  0  2  0  0  0  0  0  0
  1 35  1  1  0  0  0
  2  5  1  0  0  0  0
  3  2  2  0  0  0  0
  4 12  1  0  0  0  0
  5  8  1  0  0  0  0
  6  3  1  0  0  0  0
  7 10  1  0  0  0  0
  9 13  1  1  0  0  0
  9  6  1  0  0  0  0
 10  1  1  0  0  0  0
 10  5  2  0  0  0  0
 11  4  1  0  0  0  0
 11  9  1  0  0  0  0
 12  7  2  0  0  0  0
 12  3  1  0  0  0  0
 13 14  1  0  0  0  0
 15 16  1  0  0  0  0
 15 14  1  0  0  0  0
 17 18  1  0  0  0  0
 17 16  1  0  0  0  0
 19  1  1  0  0  0  0
 20 19  2  0  0  0  0
 21 19  1  1  0  0  0
 21 30  1  0  0  0  0
 22 24  2  0  0  0  0
 22 27  1  0  0  0  0
 23 26  1  0  0  0  0
 23 29  1  0  0  0  0
 24 28  1  0  0  0  0
 25 22  1  0  0  0  0
 26 21  1  0  0  0  0
 27 23  2  0  0  0  0
 28 26  2  0  0  0  0
 30 34  1  0  0  0  0
 30 31  1  0  0  0  0
 31 32  1  0  0  0  0
 34 33  1  0  0  0  0
 36 37  1  0  0  0  0
 37 42  1  1  0  0  0
 37 38  1  0  0  0  0
 39 43  1  0  0  0  0
 40 36  1  0  0  0  0
 41 35  1  6  0  0  0
 41 40  1  0  0  0  0
 41 39  1  0  0  0  0
 43 37  1  0  0  0  0
M  END
>  <MODEL>
6

>  <REMARK>
 VINA RESULT:      -4.8      3.007      5.300
  Name = 
  14 active torsions:
  status: ('A' for Active; 'I' for Inactive)
    1  A    between atoms: C_1  and  C_34
    2  A    between atoms: C_1  and  C_35
    3  A    between atoms: C_2  and  C_27
    4  A    between atoms: C_8  and  C_30
    5  A    between atoms: C_8  and  C_34
    6  A    between atoms: C_11  and  C_22
    7  A    between atoms: C_11  and  C_36
    8  A    between atoms: C_13  and  C_27
    9  A    between atoms: C_21  and  C_30
   10  A    between atoms: C_26  and  S_31
   11  A    between atoms: C_27  and  C_30
   12  A    between atoms: C_29  and  S_31
   13  A    between atoms: C_29  and  C_36
   14  A    between atoms: C_34  and  C_38
                            x       y       z     vdW  Elec       q    Type
                         _______ _______ _______ _____ _____    ______ ____

>  <TORSDO>
F 14

$$$$
=
 OpenBabel11052416163D

 43 46  0  0  1  0  0  0  0  0999 V2000
  185.6690  178.1170  139.3420 C   0  0  1  0  0  3  0  0  0  0  0  0
  181.8780  177.8820  139.2240 C   0  0  0  0  0  3  0  0  0  0  0  0
  181.5150  179.2000  138.9350 C   0  0  0  0  0  0  0  0  0  0  0  0
  182.1780  181.6200  138.5240 C   0  0  0  0  0  2  0  0  0  0  0  0
  183.2210  177.5310  139.3700 C   0  0  0  0  0  0  0  0  0  0  0  0
  180.0610  179.5080  138.7020 C   0  0  0  0  0  2  0  0  0  0  0  0
  183.8580  179.8270  138.9290 C   0  0  0  0  0  3  0  0  0  0  0  0
  183.5540  176.2130  139.6640 O   0  0  0  0  0  1  0  0  0  0  0  0
  179.7390  181.0050  138.7440 C   0  0  2  0  0  3  0  0  0  0  0  0
  184.2230  178.5020  139.2110 C   0  0  0  0  0  0  0  0  0  0  0  0
  180.7740  181.7970  137.9460 C   0  0  0  0  0  2  0  0  0  0  0  0
  182.5170  180.1790  138.7690 C   0  0  0  0  0  0  0  0  0  0  0  0
  179.6300  181.5210  140.1750 C   0  0  0  0  0  2  0  0  0  0  0  0
  178.9480  180.4940  141.0570 C   0  0  0  0  0  2  0  0  0  0  0  0
  179.7110  180.3640  142.3600 C   0  0  0  0  0  2  0  0  0  0  0  0
  180.1960  178.6340  142.6210 S   0  0  0  0  0  0  0  0  0  0  0  0
  181.6980  179.0990  143.5290 C   0  0  0  0  0  2  0  0  0  0  0  0
  182.9160  178.6160  142.7720 C   0  0  0  0  0  1  0  0  0  0  0  0
  186.4160  178.3000  138.0490 C   0  0  0  0  0  0  0  0  0  0  0  0
  186.7150  179.4190  137.6560 O   0  0  0  0  0  0  0  0  0  0  0  0
  186.7000  177.0940  137.1970 C   0  0  1  0  0  3  0  0  0  0  0  0
  190.8420  175.9870  137.6550 C   0  0  0  0  0  0  0  0  0  0  0  0
  188.8960  176.2740  136.2400 C   0  0  0  0  0  0  0  0  0  0  0  0
  190.0950  176.3790  138.7680 C   0  0  0  0  0  3  0  0  0  0  0  0
  192.5280  175.5600  137.8410 Cl  0  0  0  0  0  0  0  0  0  0  0  0
  188.1390  176.6740  137.3570 C   0  0  0  0  0  0  0  0  0  0  0  0
  190.2420  175.9340  136.3960 C   0  0  0  0  0  3  0  0  0  0  0  0
  188.7500  176.7240  138.6210 C   0  0  0  0  0  3  0  0  0  0  0  0
  188.1900  176.1860  134.6340 Cl  0  0  0  0  0  0  0  0  0  0  0  0
  185.6940  175.9450  137.4150 C   0  0  0  0  0  3  0  0  0  0  0  0
  184.4950  176.0540  136.4790 C   0  0  0  0  0  2  0  0  0  0  0  0
  184.7500  177.1150  135.4250 C   0  0  0  0  0  1  0  0  0  0  0  0
  185.8830  173.8270  136.0240 C   0  0  0  0  0  1  0  0  0  0  0  0
  186.3410  174.5640  137.2750 C   0  0  0  0  0  2  0  0  0  0  0  0
  186.3290  178.8250  140.5240 C   0  0  0  0  0  2  0  0  0  0  0  0
  189.3540  177.2750  142.3180 C   0  0  0  0  0  2  0  0  0  0  0  0
  188.7590  177.0960  143.7200 C   0  0  1  0  0  0  0  0  0  0  0  0
  189.4120  176.0500  144.3410 F   0  0  0  0  0  0  0  0  0  0  0  0
  186.4980  177.7680  142.7890 C   0  0  0  0  0  2  0  0  0  0  0  0
  188.5580  178.2790  141.4820 C   0  0  0  0  0  2  0  0  0  0  0  0
  187.1020  177.8420  141.3900 C   0  0  2  0  0  3  0  0  0  0  0  0
  188.9720  178.3520  144.5490 C   0  0  0  0  0  1  0  0  0  0  0  0
  187.2670  176.7560  143.6380 C   0  0  0  0  0  2  0  0  0  0  0  0
  1 35  1  1  0  0  0
  2  5  1  0  0  0  0
  3  2  2  0  0  0  0
  4 12  1  0  0  0  0
  5  8  1  0  0  0  0
  6  9  1  0  0  0  0
  6  3  1  0  0  0  0
  7 10  1  0  0  0  0
  9 13  1  1  0  0  0
 10  1  1  0  0  0  0
 10  5  2  0  0  0  0
 11  4  1  0  0  0  0
 11  9  1  0  0  0  0
 12  7  2  0  0  0  0
 12  3  1  0  0  0  0
 13 14  1  0  0  0  0
 14 15  1  0  0  0  0
 15 16  1  0  0  0  0
 16 17  1  0  0  0  0
 18 17  1  0  0  0  0
 19  1  1  0  0  0  0
 20 19  2  0  0  0  0
 21 26  1  0  0  0  0
 21 30  1  1  0  0  0
 21 19  1  0  0  0  0
 22 25  1  0  0  0  0
 22 24  1  0  0  0  0
 23 27  1  0  0  0  0
 23 26  2  0  0  0  0
 26 28  1  0  0  0  0
 27 22  2  0  0  0  0
 28 24  2  0  0  0  0
 29 23  1  0  0  0  0
 31 30  1  0  0  0  0
 32 31  1  0  0  0  0
 33 34  1  0  0  0  0
 34 30  1  0  0  0  0
 36 37  1  0  0  0  0
 37 38  1  0  0  0  0
 37 42  1  1  0  0  0
 39 43  1  0  0  0  0
 40 36  1  0  0  0  0
 41 35  1  6  0  0  0
 41 40  1  0  0  0  0
 41 39  1  0  0  0  0
 43 37  1  0  0  0  0
M  END
>  <MODEL>
7

>  <REMARK>
 VINA RESULT:      -4.8      1.578      3.356
  Name = 
  14 active torsions:
  status: ('A' for Active; 'I' for Inactive)
    1  A    between atoms: C_1  and  C_34
    2  A    between atoms: C_1  and  C_35
    3  A    between atoms: C_2  and  C_27
    4  A    between atoms: C_8  and  C_30
    5  A    between atoms: C_8  and  C_34
    6  A    between atoms: C_11  and  C_22
    7  A    between atoms: C_11  and  C_36
    8  A    between atoms: C_13  and  C_27
    9  A    between atoms: C_21  and  C_30
   10  A    between atoms: C_26  and  S_31
   11  A    between atoms: C_27  and  C_30
   12  A    between atoms: C_29  and  S_31
   13  A    between atoms: C_29  and  C_36
   14  A    between atoms: C_34  and  C_38
                            x       y       z     vdW  Elec       q    Type
                         _______ _______ _______ _____ _____    ______ ____

>  <TORSDO>
F 14

$$$$
=
 OpenBabel11052416163D

 43 46  0  0  1  0  0  0  0  0999 V2000
  183.2600  178.5900  138.7800 C   0  0  1  0  0  3  0  0  0  0  0  0
  184.4890  178.2600  142.3600 C   0  0  0  0  0  3  0  0  0  0  0  0
  185.8770  178.2870  142.1940 C   0  0  0  0  0  0  0  0  0  0  0  0
  187.9020  178.3900  140.6610 C   0  0  0  0  0  2  0  0  0  0  0  0
  183.6400  178.3440  141.2550 C   0  0  0  0  0  0  0  0  0  0  0  0
  186.7450  178.2810  143.4220 C   0  0  0  0  0  2  0  0  0  0  0  0
  185.5680  178.4920  139.7960 C   0  0  0  0  0  3  0  0  0  0  0  0
  182.2630  178.3080  141.4490 O   0  0  0  0  0  1  0  0  0  0  0  0
  188.2150  177.9610  143.1290 C   0  0  2  0  0  3  0  0  0  0  0  0
  184.1760  178.4740  139.9640 C   0  0  0  0  0  0  0  0  0  0  0  0
  188.7000  178.7480  141.9130 C   0  0  0  0  0  2  0  0  0  0  0  0
  186.4210  178.4220  140.8990 C   0  0  0  0  0  0  0  0  0  0  0  0
  188.4430  176.4640  142.9460 C   0  0  0  0  0  2  0  0  0  0  0  0
  189.6970  176.0280  143.6760 C   0  0  0  0  0  2  0  0  0  0  0  0
  189.7670  176.7260  145.0190 C   0  0  0  0  0  2  0  0  0  0  0  0
  191.3920  177.5090  145.2240 S   0  0  0  0  0  0  0  0  0  0  0  0
  191.5550  176.9290  146.9360 C   0  0  0  0  0  2  0  0  0  0  0  0
  192.1150  175.5230  146.9420 C   0  0  0  0  0  1  0  0  0  0  0  0
  182.7760  180.0010  138.5830 C   0  0  0  0  0  0  0  0  0  0  0  0
  183.4900  180.9510  138.8760 O   0  0  0  0  0  0  0  0  0  0  0  0
  181.3640  180.2270  138.1190 C   0  0  1  0  0  3  0  0  0  0  0  0
  179.6190  176.4260  137.0760 C   0  0  0  0  0  0  0  0  0  0  0  0
  180.4690  178.5930  136.4050 C   0  0  0  0  0  0  0  0  0  0  0  0
  179.8650  176.7390  138.4140 C   0  0  0  0  0  3  0  0  0  0  0  0
  178.9310  174.8730  136.6540 Cl  0  0  0  0  0  0  0  0  0  0  0  0
  180.7230  178.9140  137.7520 C   0  0  0  0  0  0  0  0  0  0  0  0
  179.9190  177.3520  136.0750 C   0  0  0  0  0  3  0  0  0  0  0  0
  180.4170  177.9760  138.7520 C   0  0  0  0  0  3  0  0  0  0  0  0
  180.8250  179.7220  135.1070 Cl  0  0  0  0  0  0  0  0  0  0  0  0
  180.5270  181.0680  139.1050 C   0  0  0  0  0  3  0  0  0  0  0  0
  180.0720  182.3860  138.4850 C   0  0  0  0  0  2  0  0  0  0  0  0
  180.8400  182.6520  137.2040 C   0  0  0  0  0  1  0  0  0  0  0  0
  179.1120  180.5130  141.1410 C   0  0  0  0  0  1  0  0  0  0  0  0
  179.3160  180.3020  139.6480 C   0  0  0  0  0  2  0  0  0  0  0  0
  183.8920  177.9910  137.5250 C   0  0  0  0  0  2  0  0  0  0  0  0
  183.6180  174.1600  137.6430 C   0  0  0  0  0  2  0  0  0  0  0  0
  184.9120  173.7850  136.9120 C   0  0  1  0  0  0  0  0  0  0  0  0
  185.3180  172.5400  137.3510 F   0  0  0  0  0  0  0  0  0  0  0  0
  185.5800  176.2310  136.9500 C   0  0  0  0  0  2  0  0  0  0  0  0
  183.2040  175.6060  137.3700 C   0  0  0  0  0  2  0  0  0  0  0  0
  184.3290  176.5540  137.7630 C   0  0  2  0  0  3  0  0  0  0  0  0
  184.6710  173.7080  135.4130 C   0  0  0  0  0  1  0  0  0  0  0  0
  186.0230  174.7950  137.2220 C   0  0  0  0  0  2  0  0  0  0  0  0
  1 35  1  6  0  0  0
  1 10  1  0  0  0  0
  3  2  1  0  0  0  0
  3  6  1  0  0  0  0
  4 12  1  0  0  0  0
  4 11  1  0  0  0  0
  5  8  1  0  0  0  0
  5  2  2  0  0  0  0
  7 10  2  0  0  0  0
  7 12  1  0  0  0  0
  9 13  1  6  0  0  0
  9  6  1  0  0  0  0
 10  5  1  0  0  0  0
 11  9  1  0  0  0  0
 12  3  2  0  0  0  0
 13 14  1  0  0  0  0
 14 15  1  0  0  0  0
 15 16  1  0  0  0  0
 16 17  1  0  0  0  0
 17 18  1  0  0  0  0
 19  1  1  0  0  0  0
 19 20  2  0  0  0  0
 21 19  1  1  0  0  0
 21 30  1  0  0  0  0
 22 24  1  0  0  0  0
 23 26  2  0  0  0  0
 24 28  2  0  0  0  0
 25 22  1  0  0  0  0
 26 21  1  0  0  0  0
 26 28  1  0  0  0  0
 27 23  1  0  0  0  0
 27 22  2  0  0  0  0
 29 23  1  0  0  0  0
 30 34  1  0  0  0  0
 31 30  1  0  0  0  0
 32 31  1  0  0  0  0
 34 33  1  0  0  0  0
 37 42  1  6  0  0  0
 37 43  1  0  0  0  0
 37 38  1  0  0  0  0
 37 36  1  0  0  0  0
 39 43  1  0  0  0  0
 39 41  1  0  0  0  0
 40 36  1  0  0  0  0
 40 41  1  0  0  0  0
 41 35  1  6  0  0  0
M  END
>  <MODEL>
8

>  <REMARK>
 VINA RESULT:      -4.8      3.035      7.605
  Name = 
  14 active torsions:
  status: ('A' for Active; 'I' for Inactive)
    1  A    between atoms: C_1  and  C_34
    2  A    between atoms: C_1  and  C_35
    3  A    between atoms: C_2  and  C_27
    4  A    between atoms: C_8  and  C_30
    5  A    between atoms: C_8  and  C_34
    6  A    between atoms: C_11  and  C_22
    7  A    between atoms: C_11  and  C_36
    8  A    between atoms: C_13  and  C_27
    9  A    between atoms: C_21  and  C_30
   10  A    between atoms: C_26  and  S_31
   11  A    between atoms: C_27  and  C_30
   12  A    between atoms: C_29  and  S_31
   13  A    between atoms: C_29  and  C_36
   14  A    between atoms: C_34  and  C_38
                            x       y       z     vdW  Elec       q    Type
                         _______ _______ _______ _____ _____    ______ ____

>  <TORSDO>
F 14

$$$$
=
 OpenBabel11052416163D

 43 46  0  0  1  0  0  0  0  0999 V2000
  182.8960  178.2690  138.4790 C   0  0  1  0  0  3  0  0  0  0  0  0
  185.4130  178.7740  141.2800 C   0  0  0  0  0  3  0  0  0  0  0  0
  186.6280  178.5910  140.6150 C   0  0  0  0  0  0  0  0  0  0  0  0
  187.9030  178.0350  138.4870 C   0  0  0  0  0  2  0  0  0  0  0  0
  184.2030  178.6570  140.5940 C   0  0  0  0  0  0  0  0  0  0  0  0
  187.9040  178.8130  141.3800 C   0  0  0  0  0  2  0  0  0  0  0  0
  185.4170  178.1760  138.5540 C   0  0  0  0  0  3  0  0  0  0  0  0
  183.0080  178.8390  141.2830 O   0  0  0  0  0  1  0  0  0  0  0  0
  189.1440  178.2540  140.6750 C   0  0  2  0  0  3  0  0  0  0  0  0
  184.1980  178.3690  139.2200 C   0  0  0  0  0  0  0  0  0  0  0  0
  189.1260  178.6210  139.1920 C   0  0  0  0  0  2  0  0  0  0  0  0
  186.6300  178.3050  139.2330 C   0  0  0  0  0  0  0  0  0  0  0  0
  189.2760  176.7480  140.8720 C   0  0  0  0  0  2  0  0  0  0  0  0
  189.1440  176.3920  142.3390 C   0  0  0  0  0  2  0  0  0  0  0  0
  190.4960  175.9760  142.8810 C   0  0  0  0  0  2  0  0  0  0  0  0
  191.4080  177.4370  143.4540 S   0  0  0  0  0  0  0  0  0  0  0  0
  191.3700  176.8910  145.1850 C   0  0  0  0  0  2  0  0  0  0  0  0
  190.0390  177.2600  145.8020 C   0  0  0  0  0  1  0  0  0  0  0  0
  182.0940  179.5380  138.5840 C   0  0  0  0  0  0  0  0  0  0  0  0
  182.6520  180.6200  138.6960 O   0  0  0  0  0  0  0  0  0  0  0  0
  180.5950  179.4450  138.6540 C   0  0  1  0  0  3  0  0  0  0  0  0
  179.4050  179.2770  142.7950 C   0  0  0  0  0  0  0  0  0  0  0  0
  179.8780  178.1460  140.7050 C   0  0  0  0  0  0  0  0  0  0  0  0
  179.6670  180.5090  142.1910 C   0  0  0  0  0  3  0  0  0  0  0  0
  178.9440  179.2110  144.4820 Cl  0  0  0  0  0  0  0  0  0  0  0  0
  180.1460  179.3830  140.0920 C   0  0  0  0  0  0  0  0  0  0  0  0
  179.5100  178.1000  142.0520 C   0  0  0  0  0  3  0  0  0  0  0  0
  180.0380  180.5630  140.8470 C   0  0  0  0  0  3  0  0  0  0  0  0
  179.9920  176.6340  139.8160 Cl  0  0  0  0  0  0  0  0  0  0  0  0
  179.8790  180.5370  137.8310 C   0  0  0  0  0  3  0  0  0  0  0  0
  180.7090  181.8130  137.7360 C   0  0  0  0  0  2  0  0  0  0  0  0
  180.5700  182.4250  136.3560 C   0  0  0  0  0  1  0  0  0  0  0  0
  179.1370  178.5800  136.3910 C   0  0  0  0  0  1  0  0  0  0  0  0
  179.4980  180.0580  136.4270 C   0  0  0  0  0  2  0  0  0  0  0  0
  183.1090  177.8100  137.0370 C   0  0  0  0  0  2  0  0  0  0  0  0
  182.7180  174.3420  135.4280 C   0  0  0  0  0  2  0  0  0  0  0  0
  182.7400  173.4690  136.6870 C   0  0  1  0  0  0  0  0  0  0  0  0
  182.0350  172.3100  136.4280 F   0  0  0  0  0  0  0  0  0  0  0  0
  182.6660  175.5800  138.0900 C   0  0  0  0  0  2  0  0  0  0  0  0
  183.3020  175.7320  135.6840 C   0  0  0  0  0  2  0  0  0  0  0  0
  182.5460  176.4140  136.8170 C   0  0  2  0  0  3  0  0  0  0  0  0
  184.1680  173.0890  137.0420 C   0  0  0  0  0  1  0  0  0  0  0  0
  182.0710  174.1910  137.8620 C   0  0  0  0  0  2  0  0  0  0  0  0
  1 35  1  6  0  0  0
  1 19  1  0  0  0  0
  1 10  1  0  0  0  0
  3  2  1  0  0  0  0
  3  6  1  0  0  0  0
  4 11  1  0  0  0  0
  4 12  1  0  0  0  0
  5  2  2  0  0  0  0
  5  8  1  0  0  0  0
  7 10  2  0  0  0  0
  7 12  1  0  0  0  0
  9 13  1  6  0  0  0
  9  6  1  0  0  0  0
 10  5  1  0  0  0  0
 11  9  1  0  0  0  0
 12  3  2  0  0  0  0
 13 14  1  0  0  0  0
 14 15  1  0  0  0  0
 15 16  1  0  0  0  0
 16 17  1  0  0  0  0
 17 18  1  0  0  0  0
 19 21  1  0  0  0  0
 19 20  2  0  0  0  0
 21 30  1  1  0  0  0
 21 26  1  0  0  0  0
 22 25  1  0  0  0  0
 23 27  1  0  0  0  0
 24 22  1  0  0  0  0
 26 23  2  0  0  0  0
 26 28  1  0  0  0  0
 27 22  2  0  0  0  0
 28 24  2  0  0  0  0
 29 23  1  0  0  0  0
 31 30  1  0  0  0  0
 32 31  1  0  0  0  0
 33 34  1  0  0  0  0
 34 30  1  0  0  0  0
 36 40  1  0  0  0  0
 36 37  1  0  0  0  0
 37 42  1  1  0  0  0
 37 43  1  0  0  0  0
 38 37  1  0  0  0  0
 40 41  1  0  0  0  0
 41 35  1  1  0  0  0
 41 39  1  0  0  0  0
 43 39  1  0  0  0  0
M  END
>  <MODEL>
9

>  <REMARK>
 VINA RESULT:      -4.7      3.528      8.104
  Name = 
  14 active torsions:
  status: ('A' for Active; 'I' for Inactive)
    1  A    between atoms: C_1  and  C_34
    2  A    between atoms: C_1  and  C_35
    3  A    between atoms: C_2  and  C_27
    4  A    between atoms: C_8  and  C_30
    5  A    between atoms: C_8  and  C_34
    6  A    between atoms: C_11  and  C_22
    7  A    between atoms: C_11  and  C_36
    8  A    between atoms: C_13  and  C_27
    9  A    between atoms: C_21  and  C_30
   10  A    between atoms: C_26  and  S_31
   11  A    between atoms: C_27  and  C_30
   12  A    between atoms: C_29  and  S_31
   13  A    between atoms: C_29  and  C_36
   14  A    between atoms: C_34  and  C_38
                            x       y       z     vdW  Elec       q    Type
                         _______ _______ _______ _____ _____    ______ ____

>  <TORSDO>
F 14

$$$$
