=
 OpenBabel11052413463D

 27 32  0  0  1  0  0  0  0  0999 V2000
  190.1220  178.6770  141.8710 C   0  0  0  0  0  2  0  0  0  0  0  0
  187.6630  178.3190  141.4230 C   0  0  0  0  0  0  0  0  0  0  0  0
  187.8690  177.5530  143.7670 O   0  0  0  0  0  0  0  0  0  0  0  0
  183.5280  179.1590  141.8920 C   0  0  0  0  0  3  0  0  0  0  0  0
  183.0800  178.8730  143.1410 C   0  0  0  0  0  0  0  0  0  0  0  0
  186.8810  178.8120  140.4250 N   0  0  0  0  0  0  0  0  0  0  0  0
  185.1870  178.0330  144.2220 C   0  0  0  0  0  3  0  0  0  0  0  0
  191.2610  176.9240  145.0590 C   0  0  0  0  0  0  0  0  0  0  0  0
  183.8640  178.3410  144.2450 C   0  0  0  0  0  0  0  0  0  0  0  0
  191.9140  175.9910  145.5950 O   0  0  0  0  0  0  0  0  0  0  0  0
  185.7390  178.3100  142.9150 C   0  0  0  0  0  0  0  0  0  0  0  0
  189.0400  178.0120  141.1300 N   0  0  0  0  0  0  0  0  0  0  0  0
  182.4980  178.6200  144.3920 C   0  0  0  0  0  2  0  0  0  0  0  0
  184.9310  178.8530  141.8000 C   0  0  0  0  0  0  0  0  0  0  0  0
  189.8670  178.7320  143.3110 N   0  0  2  0  0  0  0  0  0  0  0  0
  187.1040  178.0580  142.7000 C   0  0  0  0  0  0  0  0  0  0  0  0
  189.7800  176.9520  145.1110 C   0  0  0  0  0  2  0  0  0  0  0  0
  185.5620  179.0820  140.5830 C   0  0  0  0  0  3  0  0  0  0  0  0
  191.9240  177.9770  144.3750 N   0  0  0  0  0  2  0  0  0  0  0  0
  191.1290  179.1290  143.9620 C   0  0  0  0  0  2  0  0  0  0  0  0
  189.2850  177.4430  143.7510 C   0  0  1  0  0  3  0  0  0  0  0  0
  190.0480  175.5610  137.7980 C   0  0  0  0  0  3  0  0  0  0  0  0
  189.3780  177.1700  140.0070 C   0  0  0  0  0  0  0  0  0  0  0  0
  190.6550  176.5880  139.9030 C   0  0  0  0  0  3  0  0  0  0  0  0
  190.9870  175.7870  138.8070 C   0  0  0  0  0  3  0  0  0  0  0  0
  188.7790  176.1370  137.8830 C   0  0  0  0  0  3  0  0  0  0  0  0
  188.4470  176.9380  138.9790 C   0  0  0  0  0  3  0  0  0  0  0  0
  2 16  1  0  0  0  0
  4  5  2  0  0  0  0
  5  9  1  0  0  0  0
  5 13  1  0  0  0  0
  6 18  1  0  0  0  0
  6  2  2  0  0  0  0
  7  9  2  0  0  0  0
  8 17  1  0  0  0  0
  8 10  2  0  0  0  0
  9 13  1  0  0  0  0
 11  7  1  0  0  0  0
 12  2  1  0  0  0  0
 12  1  1  0  0  0  0
 14  4  1  0  0  0  0
 14 11  1  0  0  0  0
 15  1  1  6  0  0  0
 15 21  1  0  0  0  0
 15 20  1  0  0  0  0
 16 11  2  0  0  0  0
 16  3  1  0  0  0  0
 18 14  2  0  0  0  0
 19  8  1  0  0  0  0
 20 19  1  0  0  0  0
 21  3  1  0  0  0  0
 21 17  1  1  0  0  0
 22 26  2  0  0  0  0
 22 25  1  0  0  0  0
 23 12  1  0  0  0  0
 24 23  1  0  0  0  0
 25 24  2  0  0  0  0
 26 27  1  0  0  0  0
 27 23  2  0  0  0  0
M  END
>  <MODEL>
1

>  <REMARK>
 VINA RESULT:      -8.3      0.000      0.000
  Name = 
  1 active torsions:
  status: ('A' for Active; 'I' for Inactive)
    1  A    between atoms: C_9  and  N_15
                            x       y       z     vdW  Elec       q    Type
                         _______ _______ _______ _____ _____    ______ ____

>  <TORSDO>
F 1

$$$$
=
 OpenBabel11052413463D

 27 32  0  0  1  0  0  0  0  0999 V2000
  180.8200  178.2360  139.6770 C   0  0  0  0  0  2  0  0  0  0  0  0
  183.2420  178.8540  139.3230 C   0  0  0  0  0  0  0  0  0  0  0  0
  183.0320  179.0160  141.7830 O   0  0  0  0  0  0  0  0  0  0  0  0
  187.4310  178.2030  139.5630 C   0  0  0  0  0  3  0  0  0  0  0  0
  187.8840  178.2070  140.8430 C   0  0  0  0  0  0  0  0  0  0  0  0
  184.0360  178.6700  138.2320 N   0  0  0  0  0  0  0  0  0  0  0  0
  185.7480  178.6200  142.1010 C   0  0  0  0  0  3  0  0  0  0  0  0
  179.6310  179.0880  143.1970 C   0  0  0  0  0  0  0  0  0  0  0  0
  187.0870  178.4040  142.0450 C   0  0  0  0  0  0  0  0  0  0  0  0
  178.9310  179.8180  143.9450 O   0  0  0  0  0  0  0  0  0  0  0  0
  185.1900  178.6310  140.7680 C   0  0  0  0  0  0  0  0  0  0  0  0
  181.8440  179.1310  139.1160 N   0  0  0  0  0  0  0  0  0  0  0  0
  188.4700  178.1890  142.1170 C   0  0  0  0  0  2  0  0  0  0  0  0
  186.0100  178.4280  139.5520 C   0  0  0  0  0  0  0  0  0  0  0  0
  181.1060  177.8520  141.0590 N   0  0  2  0  0  0  0  0  0  0  0  0
  183.8080  178.8360  140.6230 C   0  0  0  0  0  0  0  0  0  0  0  0
  181.1120  179.1470  143.2380 C   0  0  0  0  0  2  0  0  0  0  0  0
  185.3720  178.4580  138.3170 C   0  0  0  0  0  3  0  0  0  0  0  0
  179.0240  178.1890  142.2800 N   0  0  0  0  0  2  0  0  0  0  0  0
  179.8830  177.2260  141.5980 C   0  0  0  0  0  2  0  0  0  0  0  0
  181.6110  179.0320  141.7970 C   0  0  1  0  0  3  0  0  0  0  0  0
  180.5920  182.2670  136.5220 C   0  0  0  0  0  3  0  0  0  0  0  0
  181.4320  180.1950  138.2310 C   0  0  0  0  0  0  0  0  0  0  0  0
  181.5680  181.5420  138.6140 C   0  0  0  0  0  3  0  0  0  0  0  0
  181.1530  182.5710  137.7640 C   0  0  0  0  0  3  0  0  0  0  0  0
  180.4430  180.9350  136.1310 C   0  0  0  0  0  3  0  0  0  0  0  0
  180.8580  179.9060  136.9810 C   0  0  0  0  0  3  0  0  0  0  0  0
  2 16  1  0  0  0  0
  3 21  1  0  0  0  0
  4  5  2  0  0  0  0
  5  9  1  0  0  0  0
  5 13  1  0  0  0  0
  6 18  1  0  0  0  0
  6  2  2  0  0  0  0
  8 17  1  0  0  0  0
  8 10  2  0  0  0  0
  9  7  2  0  0  0  0
  9 13  1  0  0  0  0
 11  7  1  0  0  0  0
 12  2  1  0  0  0  0
 12  1  1  0  0  0  0
 14  4  1  0  0  0  0
 14 11  1  0  0  0  0
 15  1  1  6  0  0  0
 15 20  1  0  0  0  0
 15 21  1  0  0  0  0
 16 11  2  0  0  0  0
 16  3  1  0  0  0  0
 18 14  2  0  0  0  0
 19  8  1  0  0  0  0
 20 19  1  0  0  0  0
 21 17  1  1  0  0  0
 22 25  1  0  0  0  0
 23 24  1  0  0  0  0
 23 12  1  0  0  0  0
 25 24  2  0  0  0  0
 26 22  2  0  0  0  0
 26 27  1  0  0  0  0
 27 23  2  0  0  0  0
M  END
>  <MODEL>
2

>  <REMARK>
 VINA RESULT:      -7.4      4.391      8.293
  Name = 
  1 active torsions:
  status: ('A' for Active; 'I' for Inactive)
    1  A    between atoms: C_9  and  N_15
                            x       y       z     vdW  Elec       q    Type
                         _______ _______ _______ _____ _____    ______ ____

>  <TORSDO>
F 1

$$$$
=
 OpenBabel11052413463D

 27 32  0  0  1  0  0  0  0  0999 V2000
  188.6150  178.2630  138.9430 C   0  0  0  0  0  2  0  0  0  0  0  0
  190.6990  176.8430  139.0410 C   0  0  0  0  0  0  0  0  0  0  0  0
  189.3350  175.6280  137.3720 O   0  0  0  0  0  0  0  0  0  0  0  0
  194.3130  175.2400  137.4920 C   0  0  0  0  0  3  0  0  0  0  0  0
  194.1010  174.4030  136.4440 C   0  0  0  0  0  0  0  0  0  0  0  0
  191.9280  177.1340  139.5500 N   0  0  0  0  0  0  0  0  0  0  0  0
  191.5960  174.4910  136.2640 C   0  0  0  0  0  3  0  0  0  0  0  0
  185.7590  176.4850  137.1490 C   0  0  0  0  0  0  0  0  0  0  0  0
  192.8160  174.0480  135.8620 C   0  0  0  0  0  0  0  0  0  0  0  0
  184.6410  175.9130  137.2180 O   0  0  0  0  0  0  0  0  0  0  0  0
  191.7390  175.3920  137.3850 C   0  0  0  0  0  0  0  0  0  0  0  0
  189.5370  177.3950  139.6900 N   0  0  0  0  0  0  0  0  0  0  0  0
  194.0130  173.5220  135.3560 C   0  0  0  0  0  2  0  0  0  0  0  0
  193.0530  175.7470  137.9690 C   0  0  0  0  0  0  0  0  0  0  0  0
  188.3050  177.7420  137.6120 N   0  0  2  0  0  0  0  0  0  0  0  0
  190.5800  175.9600  137.9380 C   0  0  0  0  0  0  0  0  0  0  0  0
  186.9900  175.7270  136.8180 C   0  0  0  0  0  2  0  0  0  0  0  0
  193.0770  176.6220  139.0480 C   0  0  0  0  0  3  0  0  0  0  0  0
  185.8820  177.8780  137.3990 N   0  0  0  0  0  2  0  0  0  0  0  0
  187.1590  178.5160  137.0980 C   0  0  0  0  0  2  0  0  0  0  0  0
  188.1130  176.2760  137.6970 C   0  0  1  0  0  3  0  0  0  0  0  0
  188.9500  176.8870  143.8760 C   0  0  0  0  0  3  0  0  0  0  0  0
  189.3470  177.2330  141.1120 C   0  0  0  0  0  0  0  0  0  0  0  0
  190.1810  176.3780  141.8560 C   0  0  0  0  0  3  0  0  0  0  0  0
  189.9850  176.2080  143.2290 C   0  0  0  0  0  3  0  0  0  0  0  0
  188.1090  177.7330  143.1500 C   0  0  0  0  0  3  0  0  0  0  0  0
  188.3050  177.9030  141.7760 C   0  0  0  0  0  3  0  0  0  0  0  0
  1 12  1  0  0  0  0
  2  6  1  0  0  0  0
  2 12  1  0  0  0  0
  3 21  1  0  0  0  0
  3 16  1  0  0  0  0
  4 14  1  0  0  0  0
  5  4  2  0  0  0  0
  7 11  1  0  0  0  0
  8 10  2  0  0  0  0
  8 19  1  0  0  0  0
  9  7  2  0  0  0  0
  9  5  1  0  0  0  0
 11 16  1  0  0  0  0
 11 14  2  0  0  0  0
 12 23  1  0  0  0  0
 13  9  1  0  0  0  0
 13  5  1  0  0  0  0
 14 18  1  0  0  0  0
 15 20  1  1  0  0  0
 15 21  1  0  0  0  0
 15  1  1  0  0  0  0
 16  2  2  0  0  0  0
 17  8  1  0  0  0  0
 18  6  2  0  0  0  0
 20 19  1  0  0  0  0
 21 17  1  6  0  0  0
 23 27  2  0  0  0  0
 23 24  1  0  0  0  0
 24 25  2  0  0  0  0
 25 22  1  0  0  0  0
 26 22  2  0  0  0  0
 27 26  1  0  0  0  0
M  END
>  <MODEL>
3

>  <REMARK>
 VINA RESULT:      -7.3      3.571      8.306
  Name = 
  1 active torsions:
  status: ('A' for Active; 'I' for Inactive)
    1  A    between atoms: C_9  and  N_15
                            x       y       z     vdW  Elec       q    Type
                         _______ _______ _______ _____ _____    ______ ____

>  <TORSDO>
F 1

$$$$
=
 OpenBabel11052413463D

 27 32  0  0  1  0  0  0  0  0999 V2000
  186.8900  179.0030  139.8600 C   0  0  0  0  0  2  0  0  0  0  0  0
  185.8820  178.5550  142.1310 C   0  0  0  0  0  0  0  0  0  0  0  0
  187.9780  177.2440  142.2380 O   0  0  0  0  0  0  0  0  0  0  0  0
  185.6800  178.8820  146.3590 C   0  0  0  0  0  3  0  0  0  0  0  0
  186.7130  178.2530  146.9780 C   0  0  0  0  0  0  0  0  0  0  0  0
  184.8850  179.2110  142.7850 N   0  0  0  0  0  0  0  0  0  0  0  0
  187.9770  177.3570  144.9990 C   0  0  0  0  0  3  0  0  0  0  0  0
  189.7520  176.6120  139.0730 C   0  0  0  0  0  0  0  0  0  0  0  0
  187.8000  177.5310  146.3340 C   0  0  0  0  0  0  0  0  0  0  0  0
  190.1810  175.6350  138.4050 O   0  0  0  0  0  0  0  0  0  0  0  0
  186.9090  178.0010  144.2680 C   0  0  0  0  0  0  0  0  0  0  0  0
  185.8120  178.4530  140.6960 N   0  0  0  0  0  0  0  0  0  0  0  0
  187.7270  177.6430  147.7300 C   0  0  0  0  0  2  0  0  0  0  0  0
  185.8080  178.7340  144.9330 C   0  0  0  0  0  0  0  0  0  0  0  0
  188.2200  178.6720  140.3700 N   0  0  2  0  0  0  0  0  0  0  0  0
  186.9230  177.9320  142.8650 C   0  0  0  0  0  0  0  0  0  0  0  0
  189.5070  176.4950  140.5300 C   0  0  0  0  0  2  0  0  0  0  0  0
  184.8300  179.3160  144.1360 C   0  0  0  0  0  3  0  0  0  0  0  0
  189.4780  177.8570  138.4480 N   0  0  0  0  0  2  0  0  0  0  0  0
  189.1880  179.0020  139.3060 C   0  0  0  0  0  2  0  0  0  0  0  0
  188.2250  177.2670  140.8400 C   0  0  1  0  0  3  0  0  0  0  0  0
  182.2750  177.0170  138.8090 C   0  0  0  0  0  3  0  0  0  0  0  0
  184.6180  177.9540  140.0550 C   0  0  0  0  0  0  0  0  0  0  0  0
  184.5080  177.9360  138.6530 C   0  0  0  0  0  3  0  0  0  0  0  0
  183.3450  177.4690  138.0340 C   0  0  0  0  0  3  0  0  0  0  0  0
  182.3660  177.0350  140.2030 C   0  0  0  0  0  3  0  0  0  0  0  0
  183.5290  177.5030  140.8210 C   0  0  0  0  0  3  0  0  0  0  0  0
  1 15  1  0  0  0  0
  1 12  1  0  0  0  0
  2  6  2  0  0  0  0
  2 16  1  0  0  0  0
  3 16  1  0  0  0  0
  4  5  2  0  0  0  0
  5 13  1  0  0  0  0
  6 18  1  0  0  0  0
  7  9  2  0  0  0  0
  8 17  1  0  0  0  0
  9  5  1  0  0  0  0
  9 13  1  0  0  0  0
 10  8  2  0  0  0  0
 11 14  1  0  0  0  0
 11  7  1  0  0  0  0
 12  2  1  0  0  0  0
 14  4  1  0  0  0  0
 15 20  1  6  0  0  0
 15 21  1  0  0  0  0
 16 11  2  0  0  0  0
 18 14  2  0  0  0  0
 19  8  1  0  0  0  0
 19 20  1  0  0  0  0
 21 17  1  1  0  0  0
 21  3  1  0  0  0  0
 22 26  1  0  0  0  0
 23 12  1  0  0  0  0
 23 27  1  0  0  0  0
 24 23  2  0  0  0  0
 25 24  1  0  0  0  0
 25 22  2  0  0  0  0
 26 27  2  0  0  0  0
M  END
>  <MODEL>
4

>  <REMARK>
 VINA RESULT:      -7.3      2.463      4.934
  Name = 
  1 active torsions:
  status: ('A' for Active; 'I' for Inactive)
    1  A    between atoms: C_9  and  N_15
                            x       y       z     vdW  Elec       q    Type
                         _______ _______ _______ _____ _____    ______ ____

>  <TORSDO>
F 1

$$$$
=
 OpenBabel11052413463D

 27 32  0  0  1  0  0  0  0  0999 V2000
  181.6380  178.6590  140.9610 C   0  0  0  0  0  2  0  0  0  0  0  0
  183.8760  178.2540  139.8660 C   0  0  0  0  0  0  0  0  0  0  0  0
  182.6010  176.2510  139.1700 O   0  0  0  0  0  0  0  0  0  0  0  0
  186.5110  177.9260  136.5530 C   0  0  0  0  0  3  0  0  0  0  0  0
  186.2200  176.8610  135.7630 C   0  0  0  0  0  0  0  0  0  0  0  0
  184.9010  179.1200  139.6340 N   0  0  0  0  0  0  0  0  0  0  0  0
  184.2420  175.8960  136.9760 C   0  0  0  0  0  3  0  0  0  0  0  0
  179.4590  175.5310  140.9520 C   0  0  0  0  0  0  0  0  0  0  0  0
  185.1460  175.9000  135.9620 C   0  0  0  0  0  0  0  0  0  0  0  0
  178.9300  174.5910  141.6000 O   0  0  0  0  0  0  0  0  0  0  0  0
  184.4900  177.0070  137.8660 C   0  0  0  0  0  0  0  0  0  0  0  0
  183.0860  178.4260  141.0580 N   0  0  0  0  0  0  0  0  0  0  0  0
  186.0200  175.7970  134.8710 C   0  0  0  0  0  2  0  0  0  0  0  0
  185.5850  177.9800  137.6530 C   0  0  0  0  0  0  0  0  0  0  0  0
  180.9890  177.7700  139.9960 N   0  0  2  0  0  0  0  0  0  0  0  0
  183.6470  177.1720  138.9780 C   0  0  0  0  0  0  0  0  0  0  0  0
  180.5500  175.2750  139.9820 C   0  0  0  0  0  2  0  0  0  0  0  0
  185.7350  179.0120  138.5720 C   0  0  0  0  0  3  0  0  0  0  0  0
  179.0330  176.8730  141.1390 N   0  0  0  0  0  2  0  0  0  0  0  0
  179.5340  177.8830  140.2110 C   0  0  0  0  0  2  0  0  0  0  0  0
  181.5630  176.4110  140.1260 C   0  0  1  0  0  3  0  0  0  0  0  0
  184.9550  178.6900  144.8750 C   0  0  0  0  0  3  0  0  0  0  0  0
  183.7240  178.5280  142.3500 C   0  0  0  0  0  0  0  0  0  0  0  0
  185.0690  178.1510  142.5190 C   0  0  0  0  0  3  0  0  0  0  0  0
  185.6800  178.2330  143.7730 C   0  0  0  0  0  3  0  0  0  0  0  0
  183.6170  179.0610  144.7250 C   0  0  0  0  0  3  0  0  0  0  0  0
  183.0050  178.9780  143.4710 C   0  0  0  0  0  3  0  0  0  0  0  0
  1 12  1  0  0  0  0
  2 12  1  0  0  0  0
  3 21  1  0  0  0  0
  4 14  1  0  0  0  0
  5  9  1  0  0  0  0
  5  4  2  0  0  0  0
  6  2  1  0  0  0  0
  7 11  1  0  0  0  0
  8 19  1  0  0  0  0
  8 10  2  0  0  0  0
  9  7  2  0  0  0  0
 11 16  1  0  0  0  0
 12 23  1  0  0  0  0
 13  5  1  0  0  0  0
 13  9  1  0  0  0  0
 14 11  2  0  0  0  0
 14 18  1  0  0  0  0
 15 21  1  0  0  0  0
 15 20  1  1  0  0  0
 15  1  1  0  0  0  0
 16  3  1  0  0  0  0
 16  2  2  0  0  0  0
 17  8  1  0  0  0  0
 18  6  2  0  0  0  0
 20 19  1  0  0  0  0
 21 17  1  6  0  0  0
 23 24  2  0  0  0  0
 23 27  1  0  0  0  0
 24 25  1  0  0  0  0
 25 22  2  0  0  0  0
 26 22  1  0  0  0  0
 27 26  2  0  0  0  0
M  END
>  <MODEL>
5

>  <REMARK>
 VINA RESULT:      -7.1      4.622      8.438
  Name = 
  1 active torsions:
  status: ('A' for Active; 'I' for Inactive)
    1  A    between atoms: C_9  and  N_15
                            x       y       z     vdW  Elec       q    Type
                         _______ _______ _______ _____ _____    ______ ____

>  <TORSDO>
F 1

$$$$
=
 OpenBabel11052413463D

 27 32  0  0  1  0  0  0  0  0999 V2000
  186.7740  179.0010  137.8920 C   0  0  0  0  0  2  0  0  0  0  0  0
  185.8010  178.4030  140.1430 C   0  0  0  0  0  0  0  0  0  0  0  0
  188.0510  177.3830  140.2760 O   0  0  0  0  0  0  0  0  0  0  0  0
  185.4940  178.6640  144.3690 C   0  0  0  0  0  3  0  0  0  0  0  0
  186.5920  178.1730  145.0000 C   0  0  0  0  0  0  0  0  0  0  0  0
  184.7160  178.9150  140.7860 N   0  0  0  0  0  0  0  0  0  0  0  0
  187.9930  177.4700  143.0360 C   0  0  0  0  0  3  0  0  0  0  0  0
  189.9420  177.0200  137.1350 C   0  0  0  0  0  0  0  0  0  0  0  0
  187.7750  177.6090  144.3690 C   0  0  0  0  0  0  0  0  0  0  0  0
  190.5060  176.1150  136.4670 O   0  0  0  0  0  0  0  0  0  0  0  0
  186.8600  177.9720  142.2930 C   0  0  0  0  0  0  0  0  0  0  0  0
  185.7660  178.3050  138.7060 N   0  0  0  0  0  0  0  0  0  0  0  0
  187.6670  177.6970  145.7640 C   0  0  0  0  0  2  0  0  0  0  0  0
  185.6610  178.5470  142.9450 C   0  0  0  0  0  0  0  0  0  0  0  0
  188.1290  178.8460  138.4200 N   0  0  2  0  0  0  0  0  0  0  0  0
  186.9050  177.9190  140.8900 C   0  0  0  0  0  0  0  0  0  0  0  0
  189.6930  176.8590  138.5870 C   0  0  0  0  0  2  0  0  0  0  0  0
  184.6270  179.0000  142.1350 C   0  0  0  0  0  3  0  0  0  0  0  0
  189.5120  178.2230  136.5140 N   0  0  0  0  0  2  0  0  0  0  0  0
  189.0600  179.3110  137.3740 C   0  0  0  0  0  2  0  0  0  0  0  0
  188.3140  177.4510  138.8810 C   0  0  1  0  0  3  0  0  0  0  0  0
  182.5130  176.4100  136.7170 C   0  0  0  0  0  3  0  0  0  0  0  0
  184.6600  177.6570  138.0430 C   0  0  0  0  0  0  0  0  0  0  0  0
  184.8150  176.3840  137.4630 C   0  0  0  0  0  3  0  0  0  0  0  0
  183.7470  175.7650  136.8070 C   0  0  0  0  0  3  0  0  0  0  0  0
  182.3450  177.6770  137.2820 C   0  0  0  0  0  3  0  0  0  0  0  0
  183.4120  178.2970  137.9380 C   0  0  0  0  0  3  0  0  0  0  0  0
  1 15  1  0  0  0  0
  1 12  1  0  0  0  0
  2  6  2  0  0  0  0
  2 16  1  0  0  0  0
  3 16  1  0  0  0  0
  4  5  2  0  0  0  0
  5 13  1  0  0  0  0
  6 18  1  0  0  0  0
  7  9  2  0  0  0  0
  8 17  1  0  0  0  0
  9  5  1  0  0  0  0
  9 13  1  0  0  0  0
 10  8  2  0  0  0  0
 11 14  1  0  0  0  0
 11  7  1  0  0  0  0
 12  2  1  0  0  0  0
 14  4  1  0  0  0  0
 15 20  1  6  0  0  0
 15 21  1  0  0  0  0
 16 11  2  0  0  0  0
 18 14  2  0  0  0  0
 19  8  1  0  0  0  0
 19 20  1  0  0  0  0
 21 17  1  1  0  0  0
 21  3  1  0  0  0  0
 22 25  2  0  0  0  0
 22 26  1  0  0  0  0
 23 12  1  0  0  0  0
 24 23  2  0  0  0  0
 25 24  1  0  0  0  0
 26 27  2  0  0  0  0
 27 23  1  0  0  0  0
M  END
>  <MODEL>
6

>  <REMARK>
 VINA RESULT:      -7.1      3.137      5.344
  Name = 
  1 active torsions:
  status: ('A' for Active; 'I' for Inactive)
    1  A    between atoms: C_9  and  N_15
                            x       y       z     vdW  Elec       q    Type
                         _______ _______ _______ _____ _____    ______ ____

>  <TORSDO>
F 1

$$$$
=
 OpenBabel11052413463D

 27 32  0  0  1  0  0  0  0  0999 V2000
  181.3790  177.1390  140.1850 C   0  0  0  0  0  2  0  0  0  0  0  0
  180.9140  179.6190  140.0980 C   0  0  0  0  0  0  0  0  0  0  0  0
  182.0090  179.2310  137.9140 O   0  0  0  0  0  0  0  0  0  0  0  0
  178.9340  183.0930  138.6700 C   0  0  0  0  0  3  0  0  0  0  0  0
  179.2330  183.3630  137.3730 C   0  0  0  0  0  0  0  0  0  0  0  0
  180.0810  180.3750  140.8640 N   0  0  0  0  0  0  0  0  0  0  0  0
  180.8060  181.4760  136.8440 C   0  0  0  0  0  3  0  0  0  0  0  0
  183.7980  176.0440  137.4500 C   0  0  0  0  0  0  0  0  0  0  0  0
  180.1180  182.5980  136.5090 C   0  0  0  0  0  0  0  0  0  0  0  0
  184.9470  175.6390  137.1340 O   0  0  0  0  0  0  0  0  0  0  0  0
  180.5390  181.1230  138.2200 C   0  0  0  0  0  0  0  0  0  0  0  0
  181.5820  178.4980  140.7090 N   0  0  0  0  0  0  0  0  0  0  0  0
  179.4620  183.7470  136.0440 C   0  0  0  0  0  2  0  0  0  0  0  0
  179.6350  181.9080  139.0910 C   0  0  0  0  0  0  0  0  0  0  0  0
  181.4390  177.0850  138.7240 N   0  0  2  0  0  0  0  0  0  0  0  0
  181.1600  179.9800  138.7490 C   0  0  0  0  0  0  0  0  0  0  0  0
  183.3310  177.3990  137.0690 C   0  0  0  0  0  2  0  0  0  0  0  0
  179.4490  181.4810  140.4000 C   0  0  0  0  0  3  0  0  0  0  0  0
  182.9140  175.2190  138.1950 N   0  0  0  0  0  2  0  0  0  0  0  0
  181.5320  175.6620  138.3450 C   0  0  0  0  0  2  0  0  0  0  0  0
  182.5390  177.9570  138.2510 C   0  0  1  0  0  3  0  0  0  0  0  0
  183.7880  178.9660  144.3200 C   0  0  0  0  0  3  0  0  0  0  0  0
  182.3310  178.6700  141.9310 C   0  0  0  0  0  0  0  0  0  0  0  0
  183.7370  178.6280  141.9250 C   0  0  0  0  0  3  0  0  0  0  0  0
  184.4610  178.7780  143.1110 C   0  0  0  0  0  3  0  0  0  0  0  0
  182.3920  179.0030  144.3440 C   0  0  0  0  0  3  0  0  0  0  0  0
  181.6690  178.8540  143.1580 C   0  0  0  0  0  3  0  0  0  0  0  0
  1 12  1  0  0  0  0
  2 12  1  0  0  0  0
  2  6  1  0  0  0  0
  3 21  1  0  0  0  0
  3 16  1  0  0  0  0
  4 14  1  0  0  0  0
  5  4  2  0  0  0  0
  7 11  1  0  0  0  0
  8 19  1  0  0  0  0
  9  7  2  0  0  0  0
  9  5  1  0  0  0  0
 10  8  2  0  0  0  0
 11 16  1  0  0  0  0
 11 14  2  0  0  0  0
 12 23  1  0  0  0  0
 13  9  1  0  0  0  0
 13  5  1  0  0  0  0
 14 18  1  0  0  0  0
 15 20  1  1  0  0  0
 15  1  1  0  0  0  0
 16  2  2  0  0  0  0
 17  8  1  0  0  0  0
 18  6  2  0  0  0  0
 19 20  1  0  0  0  0
 21 17  1  6  0  0  0
 21 15  1  0  0  0  0
 22 26  1  0  0  0  0
 23 27  1  0  0  0  0
 24 23  2  0  0  0  0
 24 25  1  0  0  0  0
 25 22  2  0  0  0  0
 27 26  2  0  0  0  0
M  END
>  <MODEL>
7

>  <REMARK>
 VINA RESULT:      -7.1      5.823      8.844
  Name = 
  1 active torsions:
  status: ('A' for Active; 'I' for Inactive)
    1  A    between atoms: C_9  and  N_15
                            x       y       z     vdW  Elec       q    Type
                         _______ _______ _______ _____ _____    ______ ____

>  <TORSDO>
F 1

$$$$
=
 OpenBabel11052413463D

 27 32  0  0  1  0  0  0  0  0999 V2000
  189.5100  177.1360  136.6080 C   0  0  0  0  0  2  0  0  0  0  0  0
  188.7690  177.3300  139.0130 C   0  0  0  0  0  0  0  0  0  0  0  0
  190.6410  175.7220  139.1870 O   0  0  0  0  0  0  0  0  0  0  0  0
  189.2020  178.5190  143.0660 C   0  0  0  0  0  3  0  0  0  0  0  0
  190.2050  177.8550  143.6970 C   0  0  0  0  0  0  0  0  0  0  0  0
  187.9810  178.2670  139.6080 N   0  0  0  0  0  0  0  0  0  0  0  0
  191.0360  176.3780  141.8420 C   0  0  0  0  0  3  0  0  0  0  0  0
  191.8490  174.1750  136.0700 C   0  0  0  0  0  0  0  0  0  0  0  0
  191.0730  176.8420  143.1170 C   0  0  0  0  0  0  0  0  0  0  0  0
  192.0310  173.0260  135.5900 O   0  0  0  0  0  0  0  0  0  0  0  0
  189.9860  177.0400  141.1020 C   0  0  0  0  0  0  0  0  0  0  0  0
  188.4870  176.9600  137.6500 N   0  0  0  0  0  0  0  0  0  0  0  0
  191.2100  177.2390  144.4550 C   0  0  0  0  0  2  0  0  0  0  0  0
  189.1090  178.0710  141.7010 C   0  0  0  0  0  0  0  0  0  0  0  0
  190.8340  176.6860  137.0370 N   0  0  2  0  0  0  0  0  0  0  0  0
  189.7970  176.6940  139.7540 C   0  0  0  0  0  0  0  0  0  0  0  0
  191.7920  174.3940  137.5350 C   0  0  0  0  0  2  0  0  0  0  0  0
  188.1280  178.6450  140.9010 C   0  0  0  0  0  3  0  0  0  0  0  0
  191.6790  175.3000  135.2200 N   0  0  0  0  0  2  0  0  0  0  0  0
  191.6840  176.6250  135.8330 C   0  0  0  0  0  2  0  0  0  0  0  0
  190.6940  175.4240  137.7990 C   0  0  1  0  0  3  0  0  0  0  0  0
  184.5490  175.7810  136.5400 C   0  0  0  0  0  3  0  0  0  0  0  0
  187.1560  176.5600  137.2600 C   0  0  0  0  0  0  0  0  0  0  0  0
  186.1920  177.5200  136.9030 C   0  0  0  0  0  3  0  0  0  0  0  0
  184.8980  177.1320  136.5430 C   0  0  0  0  0  3  0  0  0  0  0  0
  185.4930  174.8150  136.9000 C   0  0  0  0  0  3  0  0  0  0  0  0
  186.7870  175.2030  137.2600 C   0  0  0  0  0  3  0  0  0  0  0  0
  1 15  1  0  0  0  0
  1 12  1  0  0  0  0
  2  6  2  0  0  0  0
  2 16  1  0  0  0  0
  3 16  1  0  0  0  0
  4  5  2  0  0  0  0
  5 13  1  0  0  0  0
  6 18  1  0  0  0  0
  7  9  2  0  0  0  0
  8 17  1  0  0  0  0
  9  5  1  0  0  0  0
  9 13  1  0  0  0  0
 10  8  2  0  0  0  0
 11 14  1  0  0  0  0
 11  7  1  0  0  0  0
 12  2  1  0  0  0  0
 14  4  1  0  0  0  0
 15 20  1  6  0  0  0
 15 21  1  0  0  0  0
 16 11  2  0  0  0  0
 18 14  2  0  0  0  0
 19 20  1  0  0  0  0
 19  8  1  0  0  0  0
 21 17  1  1  0  0  0
 21  3  1  0  0  0  0
 22 25  2  0  0  0  0
 22 26  1  0  0  0  0
 23 12  1  0  0  0  0
 24 23  2  0  0  0  0
 25 24  1  0  0  0  0
 26 27  2  0  0  0  0
 27 23  1  0  0  0  0
M  END
>  <MODEL>
8

>  <REMARK>
 VINA RESULT:      -7.0      3.503      6.295
  Name = 
  1 active torsions:
  status: ('A' for Active; 'I' for Inactive)
    1  A    between atoms: C_9  and  N_15
                            x       y       z     vdW  Elec       q    Type
                         _______ _______ _______ _____ _____    ______ ____

>  <TORSDO>
F 1

$$$$
=
 OpenBabel11052413463D

 27 32  0  0  1  0  0  0  0  0999 V2000
  184.8950  179.5010  140.3800 C   0  0  0  0  0  2  0  0  0  0  0  0
  187.0110  178.2950  139.7170 C   0  0  0  0  0  0  0  0  0  0  0  0
  185.3310  177.2120  138.2590 O   0  0  0  0  0  0  0  0  0  0  0  0
  190.1810  177.3030  137.0710 C   0  0  0  0  0  3  0  0  0  0  0  0
  189.7510  176.6140  135.9830 C   0  0  0  0  0  0  0  0  0  0  0  0
  188.3110  178.6280  139.9460 N   0  0  0  0  0  0  0  0  0  0  0  0
  187.2850  176.4800  136.4480 C   0  0  0  0  0  3  0  0  0  0  0  0
  181.7780  177.7350  139.0790 C   0  0  0  0  0  0  0  0  0  0  0  0
  188.3810  176.2240  135.6880 C   0  0  0  0  0  0  0  0  0  0  0  0
  180.7510  177.0510  139.3270 O   0  0  0  0  0  0  0  0  0  0  0  0
  187.6640  177.2150  137.6340 C   0  0  0  0  0  0  0  0  0  0  0  0
  186.0290  178.6280  140.7170 N   0  0  0  0  0  0  0  0  0  0  0  0
  189.4320  175.9000  134.8190 C   0  0  0  0  0  2  0  0  0  0  0  0
  189.0620  177.6070  137.9240 C   0  0  0  0  0  0  0  0  0  0  0  0
  184.2790  179.1550  139.1000 N   0  0  2  0  0  0  0  0  0  0  0  0
  186.6590  177.5770  138.5450 C   0  0  0  0  0  0  0  0  0  0  0  0
  182.9200  177.1600  138.3300 C   0  0  0  0  0  2  0  0  0  0  0  0
  189.3170  178.3120  139.0950 C   0  0  0  0  0  3  0  0  0  0  0  0
  181.8810  179.0810  139.5210 N   0  0  0  0  0  2  0  0  0  0  0  0
  182.9960  179.8790  139.0240 C   0  0  0  0  0  2  0  0  0  0  0  0
  184.2010  177.6800  138.9810 C   0  0  1  0  0  3  0  0  0  0  0  0
  186.6330  177.5150  144.7820 C   0  0  0  0  0  3  0  0  0  0  0  0
  186.2270  178.2390  142.0930 C   0  0  0  0  0  0  0  0  0  0  0  0
  185.3030  178.6150  143.0860 C   0  0  0  0  0  3  0  0  0  0  0  0
  185.5040  178.2530  144.4210 C   0  0  0  0  0  3  0  0  0  0  0  0
  187.5630  177.1410  143.8100 C   0  0  0  0  0  3  0  0  0  0  0  0
  187.3620  177.5030  142.4740 C   0  0  0  0  0  3  0  0  0  0  0  0
  1 12  1  0  0  0  0
  2  6  1  0  0  0  0
  2 12  1  0  0  0  0
  3 16  1  0  0  0  0
  3 21  1  0  0  0  0
  4 14  1  0  0  0  0
  5  4  2  0  0  0  0
  7 11  1  0  0  0  0
  8 10  2  0  0  0  0
  8 19  1  0  0  0  0
  9  5  1  0  0  0  0
  9  7  2  0  0  0  0
 11 14  2  0  0  0  0
 11 16  1  0  0  0  0
 12 23  1  0  0  0  0
 13  9  1  0  0  0  0
 13  5  1  0  0  0  0
 14 18  1  0  0  0  0
 15 20  1  1  0  0  0
 15  1  1  0  0  0  0
 16  2  2  0  0  0  0
 17  8  1  0  0  0  0
 18  6  2  0  0  0  0
 20 19  1  0  0  0  0
 21 17  1  6  0  0  0
 21 15  1  0  0  0  0
 23 27  2  0  0  0  0
 23 24  1  0  0  0  0
 24 25  2  0  0  0  0
 25 22  1  0  0  0  0
 26 22  2  0  0  0  0
 27 26  1  0  0  0  0
M  END
>  <MODEL>
9

>  <REMARK>
 VINA RESULT:      -6.8      3.240      7.718
  Name = 
  1 active torsions:
  status: ('A' for Active; 'I' for Inactive)
    1  A    between atoms: C_9  and  N_15
                            x       y       z     vdW  Elec       q    Type
                         _______ _______ _______ _____ _____    ______ ____

>  <TORSDO>
F 1

$$$$
