=
 OpenBabel11052415183D

 37 42  0  0  1  0  0  0  0  0999 V2000
  183.1660  176.0390  136.7900 C   0  0  0  0  0  0  0  0  0  0  0  0
  184.4680  178.4350  138.8970 C   0  0  2  0  0  3  0  0  0  0  0  0
  185.6950  176.4700  137.2840 C   0  0  0  0  0  2  0  0  0  0  0  0
  183.9250  177.3650  139.8630 C   0  0  0  0  0  2  0  0  0  0  0  0
  183.8910  178.3020  137.4660 C   0  0  2  0  0  3  0  0  0  0  0  0
  183.8130  177.8690  141.3070 C   0  0  1  0  0  3  0  0  0  0  0  0
  187.0040  178.3740  136.6350 O   0  0  0  0  0  1  0  0  0  0  0  0
  182.3710  178.2830  137.3340 C   0  0  1  0  0  3  0  0  0  0  0  0
  183.3880  174.8190  137.6730 C   0  0  0  0  0  1  0  0  0  0  0  0
  186.7700  178.2580  140.1360 C   0  0  0  0  0  2  0  0  0  0  0  0
  186.6350  177.5900  137.7300 C   0  0  1  0  0  3  0  0  0  0  0  0
  181.9710  176.8150  137.3290 C   0  0  0  0  0  2  0  0  0  0  0  0
  186.0200  178.4790  138.8250 C   0  0  1  0  0  3  0  0  0  0  0  0
  184.3520  177.0220  136.7680 C   0  0  2  0  0  3  0  0  0  0  0  0
  185.1760  177.9940  142.0020 C   0  0  1  0  0  3  0  0  0  0  0  0
  182.8730  175.5810  135.3750 C   0  0  0  0  0  1  0  0  0  0  0  0
  186.1300  178.9660  141.3160 C   0  0  0  0  0  2  0  0  0  0  0  0
  180.1660  179.2880  137.9540 C   0  0  0  0  0  2  0  0  0  0  0  0
  180.1130  180.6020  137.1740 C   0  0  1  0  0  0  0  0  0  0  0  0
  179.5040  182.4550  138.5990 C   0  0  2  0  0  3  0  0  0  0  0  0
  178.9310  181.4460  137.6440 C   0  0  0  0  0  2  0  0  0  0  0  0
  180.9600  182.5580  138.2060 C   0  0  0  0  0  2  0  0  0  0  0  0
  182.1370  180.5340  138.3980 C   0  0  0  0  0  2  0  0  0  0  0  0
  181.3400  181.3480  137.4850 N   0  0  1  0  0  0  0  0  0  0  0  0
  179.4120  181.9630  139.9020 O   0  0  0  0  0  1  0  0  0  0  0  0
  181.6050  179.1180  138.3660 C   0  0  2  0  0  3  0  0  0  0  0  0
  180.0740  180.3780  135.7740 O   0  0  0  0  0  0  0  0  0  0  0  0
  179.2270  179.2930  135.4810 C   0  0  0  0  0  1  0  0  0  0  0  0
  183.8910  178.7780  144.0410 C   0  0  0  0  0  3  0  0  0  0  0  0
  185.0600  178.2420  143.4760 C   0  0  0  0  0  0  0  0  0  0  0  0
  186.1320  177.8990  144.3080 C   0  0  0  0  0  3  0  0  0  0  0  0
  187.3910  177.6710  146.7210 Cl  0  0  0  0  0  0  0  0  0  0  0  0
  184.8820  178.6380  146.2450 C   0  0  0  0  0  3  0  0  0  0  0  0
  186.0450  178.1000  145.6880 C   0  0  0  0  0  0  0  0  0  0  0  0
  183.8040  178.9770  145.4210 C   0  0  0  0  0  3  0  0  0  0  0  0
  182.9600  179.1290  141.4230 C   0  0  0  0  0  2  0  0  0  0  0  0
  181.5170  178.7510  141.6890 C   0  0  0  0  0  1  0  0  0  0  0  0
  1 12  1  0  0  0  0
  1  9  1  0  0  0  0
  2  4  1  1  0  0  0
  3 11  1  0  0  0  0
  4  6  1  0  0  0  0
  5  2  1  0  0  0  0
  6 36  1  0  0  0  0
  6 15  1  0  0  0  0
  7 11  1  0  0  0  0
  8  5  1  0  0  0  0
  8 26  1  0  0  0  0
 10 17  1  0  0  0  0
 11 13  1  0  0  0  0
 12  8  1  0  0  0  0
 13  2  1  0  0  0  0
 13 10  1  0  0  0  0
 14  1  1  0  0  0  0
 14  3  1  0  0  0  0
 14  5  1  0  0  0  0
 15 30  1  0  0  0  0
 16  1  1  0  0  0  0
 17 15  1  0  0  0  0
 18 26  1  0  0  0  0
 19 24  1  0  0  0  0
 19 21  1  0  0  0  0
 19 18  1  0  0  0  0
 20 25  1  0  0  0  0
 21 20  1  0  0  0  0
 22 20  1  0  0  0  0
 24 22  1  0  0  0  0
 24 23  1  0  0  0  0
 26 23  1  0  0  0  0
 27 19  1  0  0  0  0
 28 27  1  0  0  0  0
 29 35  1  0  0  0  0
 30 29  2  0  0  0  0
 30 31  1  0  0  0  0
 31 34  2  0  0  0  0
 34 33  1  0  0  0  0
 34 32  1  0  0  0  0
 35 33  2  0  0  0  0
 36 37  1  0  0  0  0
M  END
>  <MODEL>
1

>  <REMARK>
 VINA RESULT:      -7.7      0.000      0.000
  Name = 
  4 active torsions:
  status: ('A' for Active; 'I' for Inactive)
    1  A    between atoms: C_5  and  O_12
    2  A    between atoms: C_6  and  C_31
    3  A    between atoms: C_7  and  C_14
    4  A    between atoms: C_20  and  C_36
                            x       y       z     vdW  Elec       q    Type
                         _______ _______ _______ _____ _____    ______ ____

>  <TORSDO>
F 4

$$$$
=
 OpenBabel11052415183D

 37 42  0  0  1  0  0  0  0  0999 V2000
  183.2090  176.6180  137.6490 C   0  0  0  0  0  0  0  0  0  0  0  0
  185.1100  178.6710  139.6620 C   0  0  2  0  0  3  0  0  0  0  0  0
  185.8120  176.8380  137.6320 C   0  0  0  0  0  2  0  0  0  0  0  0
  184.6910  177.5290  140.6080 C   0  0  0  0  0  2  0  0  0  0  0  0
  184.2410  178.7400  138.3810 C   0  0  2  0  0  3  0  0  0  0  0  0
  184.9210  177.8660  142.0860 C   0  0  1  0  0  3  0  0  0  0  0  0
  187.1110  178.7250  136.9160 O   0  0  0  0  0  1  0  0  0  0  0  0
  182.7300  178.8260  138.5760 C   0  0  1  0  0  3  0  0  0  0  0  0
  183.5070  175.2930  138.3350 C   0  0  0  0  0  1  0  0  0  0  0  0
  187.5950  178.2150  140.3550 C   0  0  0  0  0  2  0  0  0  0  0  0
  186.9130  177.8420  137.9790 C   0  0  1  0  0  3  0  0  0  0  0  0
  182.2190  177.3950  138.5070 C   0  0  0  0  0  2  0  0  0  0  0  0
  186.6110  178.6320  139.2640 C   0  0  1  0  0  3  0  0  0  0  0  0
  184.4420  177.5250  137.4740 C   0  0  2  0  0  3  0  0  0  0  0  0
  186.4030  177.8280  142.4820 C   0  0  1  0  0  3  0  0  0  0  0  0
  182.5940  176.3470  136.2910 C   0  0  0  0  0  1  0  0  0  0  0  0
  187.2720  178.8160  141.7110 C   0  0  0  0  0  2  0  0  0  0  0  0
  181.3260  178.7280  140.6440 C   0  0  0  0  0  2  0  0  0  0  0  0
  179.9190  179.0920  140.1680 C   0  0  1  0  0  0  0  0  0  0  0  0
  178.9310  180.8050  141.5560 C   0  0  2  0  0  3  0  0  0  0  0  0
  178.9990  179.3150  141.3660 C   0  0  0  0  0  2  0  0  0  0  0  0
  179.2770  181.3720  140.1980 C   0  0  0  0  0  2  0  0  0  0  0  0
  181.4190  180.7720  139.4420 C   0  0  0  0  0  2  0  0  0  0  0  0
  180.0170  180.3660  139.4420 N   0  0  1  0  0  0  0  0  0  0  0  0
  179.8980  181.1990  142.4800 O   0  0  0  0  0  1  0  0  0  0  0  0
  182.2650  179.5780  139.8270 C   0  0  2  0  0  3  0  0  0  0  0  0
  179.3990  178.1170  139.2810 O   0  0  0  0  0  0  0  0  0  0  0  0
  178.9460  176.9980  140.0040 C   0  0  0  0  0  1  0  0  0  0  0  0
  185.5750  178.2770  144.8350 C   0  0  0  0  0  3  0  0  0  0  0  0
  186.6140  177.9090  143.9640 C   0  0  0  0  0  0  0  0  0  0  0  0
  187.8670  177.5760  144.4900 C   0  0  0  0  0  3  0  0  0  0  0  0
  189.6590  177.2060  146.5180 Cl  0  0  0  0  0  0  0  0  0  0  0  0
  187.0530  177.9940  146.7310 C   0  0  0  0  0  3  0  0  0  0  0  0
  188.0880  177.6220  145.8690 C   0  0  0  0  0  0  0  0  0  0  0  0
  185.7960  178.3220  146.2140 C   0  0  0  0  0  3  0  0  0  0  0  0
  184.2160  179.1520  142.5090 C   0  0  0  0  0  2  0  0  0  0  0  0
  183.0060  178.8210  143.3580 C   0  0  0  0  0  1  0  0  0  0  0  0
  1  9  1  0  0  0  0
  1 12  1  0  0  0  0
  2  4  1  6  0  0  0
  3 11  1  0  0  0  0
  4  6  1  0  0  0  0
  5  8  1  0  0  0  0
  5  2  1  0  0  0  0
  6 15  1  0  0  0  0
  6 36  1  0  0  0  0
  7 11  1  0  0  0  0
  8 26  1  0  0  0  0
 10 17  1  0  0  0  0
 11 13  1  0  0  0  0
 12  8  1  0  0  0  0
 13  2  1  0  0  0  0
 13 10  1  0  0  0  0
 14  3  1  0  0  0  0
 14  1  1  0  0  0  0
 14  5  1  0  0  0  0
 15 30  1  0  0  0  0
 16  1  1  0  0  0  0
 17 15  1  0  0  0  0
 19 18  1  0  0  0  0
 19 21  1  0  0  0  0
 20 25  1  0  0  0  0
 21 20  1  0  0  0  0
 22 20  1  0  0  0  0
 23 24  1  0  0  0  0
 23 26  1  0  0  0  0
 24 19  1  0  0  0  0
 24 22  1  0  0  0  0
 26 18  1  0  0  0  0
 27 28  1  0  0  0  0
 27 19  1  0  0  0  0
 29 35  1  0  0  0  0
 30 31  1  0  0  0  0
 30 29  2  0  0  0  0
 31 34  2  0  0  0  0
 34 32  1  0  0  0  0
 34 33  1  0  0  0  0
 35 33  2  0  0  0  0
 36 37  1  0  0  0  0
M  END
>  <MODEL>
2

>  <REMARK>
 VINA RESULT:      -7.3      1.769      2.184
  Name = 
  4 active torsions:
  status: ('A' for Active; 'I' for Inactive)
    1  A    between atoms: C_5  and  O_12
    2  A    between atoms: C_6  and  C_31
    3  A    between atoms: C_7  and  C_14
    4  A    between atoms: C_20  and  C_36
                            x       y       z     vdW  Elec       q    Type
                         _______ _______ _______ _____ _____    ______ ____

>  <TORSDO>
F 4

$$$$
=
 OpenBabel11052415183D

 37 42  0  0  1  0  0  0  0  0999 V2000
  180.2260  180.7950  138.0670 C   0  0  0  0  0  0  0  0  0  0  0  0
  181.7190  178.5210  140.1820 C   0  0  2  0  0  3  0  0  0  0  0  0
  180.0560  180.7480  140.6730 C   0  0  0  0  0  2  0  0  0  0  0  0
  182.8860  179.4320  139.7530 C   0  0  0  0  0  2  0  0  0  0  0  0
  180.4880  178.6420  139.2510 C   0  0  2  0  0  3  0  0  0  0  0  0
  184.2590  178.8330  140.0800 C   0  0  1  0  0  3  0  0  0  0  0  0
  178.9330  179.1200  142.0320 O   0  0  0  0  0  1  0  0  0  0  0  0
  180.7260  178.4250  137.7590 C   0  0  1  0  0  3  0  0  0  0  0  0
  181.1430  181.9810  138.3290 C   0  0  0  0  0  1  0  0  0  0  0  0
  182.3820  178.9930  142.6730 C   0  0  0  0  0  2  0  0  0  0  0  0
  180.1540  179.7690  141.8440 C   0  0  1  0  0  3  0  0  0  0  0  0
  180.9580  179.8070  137.1680 C   0  0  0  0  0  2  0  0  0  0  0  0
  181.2740  178.7310  141.6550 C   0  0  1  0  0  3  0  0  0  0  0  0
  179.8260  180.0180  139.3360 C   0  0  2  0  0  3  0  0  0  0  0  0
  184.5920  178.8890  141.5780 C   0  0  1  0  0  3  0  0  0  0  0  0
  178.9730  181.2810  137.3650 C   0  0  0  0  0  1  0  0  0  0  0  0
  183.6080  178.1240  142.4560 C   0  0  0  0  0  2  0  0  0  0  0  0
  181.9470  177.2650  135.9100 C   0  0  0  0  0  2  0  0  0  0  0  0
  181.0500  176.0820  135.5430 C   0  0  1  0  0  0  0  0  0  0  0  0
  182.3000  174.0170  135.4520 C   0  0  2  0  0  3  0  0  0  0  0  0
  181.7850  175.1390  134.5940 C   0  0  0  0  0  2  0  0  0  0  0  0
  181.3910  174.0220  136.6600 C   0  0  0  0  0  2  0  0  0  0  0  0
  181.4460  176.0320  137.8750 C   0  0  0  0  0  2  0  0  0  0  0  0
  180.7740  175.3390  136.7800 N   0  0  1  0  0  0  0  0  0  0  0  0
  183.6040  174.3040  135.8550 O   0  0  0  0  0  1  0  0  0  0  0  0
  181.8260  177.4190  137.4040 C   0  0  2  0  0  3  0  0  0  0  0  0
  179.8130  176.5130  135.0010 O   0  0  0  0  0  0  0  0  0  0  0  0
  179.0160  175.4010  134.6690 C   0  0  0  0  0  1  0  0  0  0  0  0
  187.0370  178.7470  140.9260 C   0  0  0  0  0  3  0  0  0  0  0  0
  186.0200  178.5400  141.8730 C   0  0  0  0  0  0  0  0  0  0  0  0
  186.3460  178.0270  143.1330 C   0  0  0  0  0  3  0  0  0  0  0  0
  188.0710  177.0680  145.0210 Cl  0  0  0  0  0  0  0  0  0  0  0  0
  188.6800  177.9150  142.4970 C   0  0  0  0  0  3  0  0  0  0  0  0
  187.6720  177.7120  143.4430 C   0  0  0  0  0  0  0  0  0  0  0  0
  188.3620  178.4340  141.2380 C   0  0  0  0  0  3  0  0  0  0  0  0
  184.4540  177.4470  139.4710 C   0  0  0  0  0  2  0  0  0  0  0  0
  185.1830  177.5660  138.1480 C   0  0  0  0  0  1  0  0  0  0  0  0
  1  9  1  0  0  0  0
  1 14  1  0  0  0  0
  2  4  1  6  0  0  0
  2 13  1  0  0  0  0
  3 11  1  0  0  0  0
  4  6  1  0  0  0  0
  5 14  1  0  0  0  0
  5  2  1  0  0  0  0
  6 15  1  0  0  0  0
  8  5  1  0  0  0  0
 11  7  1  0  0  0  0
 12  8  1  0  0  0  0
 12  1  1  0  0  0  0
 13 11  1  0  0  0  0
 13 10  1  0  0  0  0
 14  3  1  0  0  0  0
 15 30  1  0  0  0  0
 15 17  1  0  0  0  0
 16  1  1  0  0  0  0
 17 10  1  0  0  0  0
 18 26  1  0  0  0  0
 19 18  1  0  0  0  0
 19 24  1  0  0  0  0
 20 25  1  0  0  0  0
 20 22  1  0  0  0  0
 21 20  1  0  0  0  0
 21 19  1  0  0  0  0
 22 24  1  0  0  0  0
 24 23  1  0  0  0  0
 26  8  1  0  0  0  0
 26 23  1  0  0  0  0
 27 19  1  0  0  0  0
 28 27  1  0  0  0  0
 29 35  2  0  0  0  0
 29 30  1  0  0  0  0
 30 31  2  0  0  0  0
 31 34  1  0  0  0  0
 33 34  2  0  0  0  0
 34 32  1  0  0  0  0
 35 33  1  0  0  0  0
 36  6  1  0  0  0  0
 37 36  1  0  0  0  0
M  END
>  <MODEL>
3

>  <REMARK>
 VINA RESULT:      -6.9      2.219      5.432
  Name = 
  4 active torsions:
  status: ('A' for Active; 'I' for Inactive)
    1  A    between atoms: C_5  and  O_12
    2  A    between atoms: C_6  and  C_31
    3  A    between atoms: C_7  and  C_14
    4  A    between atoms: C_20  and  C_36
                            x       y       z     vdW  Elec       q    Type
                         _______ _______ _______ _____ _____    ______ ____

>  <TORSDO>
F 4

$$$$
=
 OpenBabel11052415183D

 37 42  0  0  1  0  0  0  0  0999 V2000
  180.3860  178.3870  135.5840 C   0  0  0  0  0  0  0  0  0  0  0  0
  182.6870  177.7090  138.0570 C   0  0  2  0  0  3  0  0  0  0  0  0
  181.1870  180.0230  137.4560 C   0  0  0  0  0  2  0  0  0  0  0  0
  183.5570  177.8930  136.7990 C   0  0  0  0  0  2  0  0  0  0  0  0
  181.1950  177.4600  137.7260 C   0  0  2  0  0  3  0  0  0  0  0  0
  184.9890  177.3750  136.9850 C   0  0  1  0  0  3  0  0  0  0  0  0
  180.7430  179.8750  139.8100 O   0  0  0  0  0  1  0  0  0  0  0  0
  180.8820  176.3110  136.7700 C   0  0  1  0  0  3  0  0  0  0  0  0
  181.2610  179.2620  134.6970 C   0  0  0  0  0  1  0  0  0  0  0  0
  184.1870  179.4970  139.2490 C   0  0  0  0  0  2  0  0  0  0  0  0
  181.7680  180.0030  138.8710 C   0  0  1  0  0  3  0  0  0  0  0  0
  180.7960  176.9340  135.3850 C   0  0  0  0  0  2  0  0  0  0  0  0
  182.8010  178.8810  139.0710 C   0  0  1  0  0  3  0  0  0  0  0  0
  180.5280  178.6800  137.0900 C   0  0  2  0  0  3  0  0  0  0  0  0
  185.8430  178.2920  137.8710 C   0  0  1  0  0  3  0  0  0  0  0  0
  178.9360  178.5610  135.1780 C   0  0  0  0  0  1  0  0  0  0  0  0
  185.2990  178.4640  139.2840 C   0  0  0  0  0  2  0  0  0  0  0  0
  181.8400  174.3580  135.5360 C   0  0  0  0  0  2  0  0  0  0  0  0
  180.7920  173.2560  135.6930 C   0  0  1  0  0  0  0  0  0  0  0  0
  181.7880  171.1840  136.4330 C   0  0  2  0  0  3  0  0  0  0  0  0
  181.3510  171.9240  135.1990 C   0  0  0  0  0  2  0  0  0  0  0  0
  180.9670  171.7920  137.5460 C   0  0  0  0  0  2  0  0  0  0  0  0
  181.3290  174.0950  137.8390 C   0  0  0  0  0  2  0  0  0  0  0  0
  180.5130  173.1150  137.1280 N   0  0  1  0  0  0  0  0  0  0  0  0
  183.1400  171.4350  136.6680 O   0  0  0  0  0  1  0  0  0  0  0  0
  181.8350  175.1130  136.8400 C   0  0  2  0  0  3  0  0  0  0  0  0
  179.5800  173.5910  135.0380 O   0  0  0  0  0  0  0  0  0  0  0  0
  178.9310  172.4240  134.5950 C   0  0  0  0  0  1  0  0  0  0  0  0
  187.9800  177.6880  136.6490 C   0  0  0  0  0  3  0  0  0  0  0  0
  187.2990  177.9300  137.8530 C   0  0  0  0  0  0  0  0  0  0  0  0
  187.9960  177.8670  139.0640 C   0  0  0  0  0  3  0  0  0  0  0  0
  190.2230  177.4740  140.5970 Cl  0  0  0  0  0  0  0  0  0  0  0  0
  190.0310  177.3080  137.8770 C   0  0  0  0  0  3  0  0  0  0  0  0
  189.3580  177.5540  139.0770 C   0  0  0  0  0  0  0  0  0  0  0  0
  189.3420  177.3760  136.6620 C   0  0  0  0  0  3  0  0  0  0  0  0
  185.0310  175.9110  137.4140 C   0  0  0  0  0  2  0  0  0  0  0  0
  185.3560  175.0340  136.2220 C   0  0  0  0  0  1  0  0  0  0  0  0
  1 14  1  0  0  0  0
  2  4  1  6  0  0  0
  2 13  1  0  0  0  0
  3 11  1  0  0  0  0
  4  6  1  0  0  0  0
  5  2  1  0  0  0  0
  6 36  1  0  0  0  0
  6 15  1  0  0  0  0
  8 26  1  0  0  0  0
  8  5  1  0  0  0  0
  9  1  1  0  0  0  0
 10 17  1  0  0  0  0
 11 13  1  0  0  0  0
 11  7  1  0  0  0  0
 12  1  1  0  0  0  0
 12  8  1  0  0  0  0
 13 10  1  0  0  0  0
 14  3  1  0  0  0  0
 14  5  1  0  0  0  0
 15 17  1  0  0  0  0
 16  1  1  0  0  0  0
 18 19  1  0  0  0  0
 18 26  1  0  0  0  0
 19 24  1  0  0  0  0
 20 25  1  0  0  0  0
 20 22  1  0  0  0  0
 21 19  1  0  0  0  0
 21 20  1  0  0  0  0
 24 22  1  0  0  0  0
 24 23  1  0  0  0  0
 26 23  1  0  0  0  0
 27 19  1  0  0  0  0
 28 27  1  0  0  0  0
 29 35  2  0  0  0  0
 29 30  1  0  0  0  0
 30 15  1  0  0  0  0
 30 31  2  0  0  0  0
 31 34  1  0  0  0  0
 33 34  2  0  0  0  0
 34 32  1  0  0  0  0
 35 33  1  0  0  0  0
 37 36  1  0  0  0  0
M  END
>  <MODEL>
4

>  <REMARK>
 VINA RESULT:      -6.5      3.561      6.667
  Name = 
  4 active torsions:
  status: ('A' for Active; 'I' for Inactive)
    1  A    between atoms: C_5  and  O_12
    2  A    between atoms: C_6  and  C_31
    3  A    between atoms: C_7  and  C_14
    4  A    between atoms: C_20  and  C_36
                            x       y       z     vdW  Elec       q    Type
                         _______ _______ _______ _____ _____    ______ ____

>  <TORSDO>
F 4

$$$$
=
 OpenBabel11052415183D

 37 42  0  0  1  0  0  0  0  0999 V2000
  184.8960  178.6970  140.8910 C   0  0  0  0  0  0  0  0  0  0  0  0
  183.6140  177.8760  137.8000 C   0  0  2  0  0  3  0  0  0  0  0  0
  182.4880  179.2090  140.0190 C   0  0  0  0  0  2  0  0  0  0  0  0
  183.6180  176.5330  138.5540 C   0  0  0  0  0  2  0  0  0  0  0  0
  184.5240  178.9400  138.4620 C   0  0  2  0  0  3  0  0  0  0  0  0
  183.4300  175.3280  137.6240 C   0  0  1  0  0  3  0  0  0  0  0  0
  181.8610  180.7470  138.2860 O   0  0  0  0  0  1  0  0  0  0  0  0
  185.9790  178.5490  138.7080 C   0  0  1  0  0  3  0  0  0  0  0  0
  184.1750  177.6430  141.7200 C   0  0  0  0  0  1  0  0  0  0  0  0
  181.0770  177.4760  137.2810 C   0  0  0  0  0  2  0  0  0  0  0  0
  181.7290  179.4230  138.7080 C   0  0  1  0  0  3  0  0  0  0  0  0
  186.0320  178.0230  140.1340 C   0  0  0  0  0  2  0  0  0  0  0  0
  182.1930  178.4700  137.5930 C   0  0  1  0  0  3  0  0  0  0  0  0
  184.0080  179.3780  139.8330 C   0  0  2  0  0  3  0  0  0  0  0  0
  181.9890  175.1880  137.1150 C   0  0  1  0  0  3  0  0  0  0  0  0
  185.4650  179.7530  141.8180 C   0  0  0  0  0  1  0  0  0  0  0  0
  181.5010  176.3880  136.3110 C   0  0  0  0  0  2  0  0  0  0  0  0
  187.7270  176.8100  138.2890 C   0  0  0  0  0  2  0  0  0  0  0  0
  188.9910  177.6090  137.9680 C   0  0  1  0  0  0  0  0  0  0  0  0
  190.0540  176.8120  135.9510 C   0  0  2  0  0  3  0  0  0  0  0  0
  190.0840  176.6790  137.4480 C   0  0  0  0  0  2  0  0  0  0  0  0
  189.4250  178.1650  135.7070 C   0  0  0  0  0  2  0  0  0  0  0  0
  187.2450  178.3610  136.5590 C   0  0  0  0  0  2  0  0  0  0  0  0
  188.6550  178.5450  136.8870 N   0  0  1  0  0  0  0  0  0  0  0  0
  189.2330  175.8190  135.4150 O   0  0  0  0  0  1  0  0  0  0  0  0
  186.5890  177.5880  137.6820 C   0  0  2  0  0  3  0  0  0  0  0  0
  189.4310  178.3620  139.0860 O   0  0  0  0  0  0  0  0  0  0  0  0
  189.7540  177.5030  140.1520 C   0  0  0  0  0  1  0  0  0  0  0  0
  180.7410  173.7560  135.4380 C   0  0  0  0  0  3  0  0  0  0  0  0
  181.7400  173.8850  136.4160 C   0  0  0  0  0  0  0  0  0  0  0  0
  182.5480  172.7850  136.7250 C   0  0  0  0  0  3  0  0  0  0  0  0
  183.3660  170.1920  136.4690 Cl  0  0  0  0  0  0  0  0  0  0  0  0
  181.3540  171.4380  135.1060 C   0  0  0  0  0  3  0  0  0  0  0  0
  182.3530  171.5640  136.0740 C   0  0  0  0  0  0  0  0  0  0  0  0
  180.5470  172.5350  134.7870 C   0  0  0  0  0  3  0  0  0  0  0  0
  184.4710  175.2810  136.5090 C   0  0  0  0  0  2  0  0  0  0  0  0
  185.5550  174.2810  136.8590 C   0  0  0  0  0  1  0  0  0  0  0  0
  1  9  1  0  0  0  0
  1 16  1  0  0  0  0
  2  5  1  0  0  0  0
  2  4  1  1  0  0  0
  5  8  1  0  0  0  0
  5 14  1  0  0  0  0
  6  4  1  0  0  0  0
  7 11  1  0  0  0  0
  8 12  1  0  0  0  0
 10 13  1  0  0  0  0
 11  3  1  0  0  0  0
 12  1  1  0  0  0  0
 13  2  1  0  0  0  0
 13 11  1  0  0  0  0
 14  3  1  0  0  0  0
 14  1  1  0  0  0  0
 15  6  1  0  0  0  0
 17 15  1  0  0  0  0
 17 10  1  0  0  0  0
 19 18  1  0  0  0  0
 19 27  1  0  0  0  0
 20 21  1  0  0  0  0
 21 19  1  0  0  0  0
 22 20  1  0  0  0  0
 22 24  1  0  0  0  0
 23 24  1  0  0  0  0
 23 26  1  0  0  0  0
 24 19  1  0  0  0  0
 25 20  1  0  0  0  0
 26 18  1  0  0  0  0
 26  8  1  0  0  0  0
 27 28  1  0  0  0  0
 29 30  1  0  0  0  0
 30 31  2  0  0  0  0
 30 15  1  0  0  0  0
 33 34  2  0  0  0  0
 34 32  1  0  0  0  0
 34 31  1  0  0  0  0
 35 33  1  0  0  0  0
 35 29  2  0  0  0  0
 36 37  1  0  0  0  0
 36  6  1  0  0  0  0
M  END
>  <MODEL>
5

>  <REMARK>
 VINA RESULT:      -5.7      3.406      8.333
  Name = 
  4 active torsions:
  status: ('A' for Active; 'I' for Inactive)
    1  A    between atoms: C_5  and  O_12
    2  A    between atoms: C_6  and  C_31
    3  A    between atoms: C_7  and  C_14
    4  A    between atoms: C_20  and  C_36
                            x       y       z     vdW  Elec       q    Type
                         _______ _______ _______ _____ _____    ______ ____

>  <TORSDO>
F 4

$$$$
=
 OpenBabel11052415183D

 37 42  0  0  1  0  0  0  0  0999 V2000
  185.1480  175.7060  136.7000 C   0  0  0  0  0  0  0  0  0  0  0  0
  186.8610  178.2250  138.3100 C   0  0  2  0  0  3  0  0  0  0  0  0
  187.5810  176.5090  136.1870 C   0  0  0  0  0  2  0  0  0  0  0  0
  186.9000  177.0630  139.3210 C   0  0  0  0  0  2  0  0  0  0  0  0
  185.7790  178.0380  137.2190 C   0  0  2  0  0  3  0  0  0  0  0  0
  187.3140  177.5100  140.7280 C   0  0  1  0  0  3  0  0  0  0  0  0
  188.2530  178.6070  135.2340 O   0  0  0  0  0  1  0  0  0  0  0  0
  184.3510  177.7880  137.6970 C   0  0  1  0  0  3  0  0  0  0  0  0
  185.8660  174.5150  137.3180 C   0  0  0  0  0  1  0  0  0  0  0  0
  189.4690  178.3770  138.5190 C   0  0  0  0  0  2  0  0  0  0  0  0
  188.4650  177.7510  136.3160 C   0  0  1  0  0  3  0  0  0  0  0  0
  184.1820  176.2770  137.7280 C   0  0  0  0  0  2  0  0  0  0  0  0
  188.2310  178.5100  137.6350 C   0  0  1  0  0  3  0  0  0  0  0  0
  186.0840  176.8600  136.2920 C   0  0  2  0  0  3  0  0  0  0  0  0
  188.8120  177.8270  140.8340 C   0  0  1  0  0  3  0  0  0  0  0  0
  184.3720  175.2410  135.4830 C   0  0  0  0  0  1  0  0  0  0  0  0
  189.2710  178.9500  139.9110 C   0  0  0  0  0  2  0  0  0  0  0  0
  183.1930  177.5270  139.8980 C   0  0  0  0  0  2  0  0  0  0  0  0
  181.7180  177.7800  139.5860 C   0  0  1  0  0  0  0  0  0  0  0  0
  180.7480  179.3730  141.1220 C   0  0  2  0  0  3  0  0  0  0  0  0
  180.9180  177.8980  140.8810 C   0  0  0  0  0  2  0  0  0  0  0  0
  180.8970  179.9960  139.7530 C   0  0  0  0  0  2  0  0  0  0  0  0
  182.9870  179.5970  138.7560 C   0  0  0  0  0  2  0  0  0  0  0  0
  181.6310  179.0730  138.8930 N   0  0  1  0  0  0  0  0  0  0  0  0
  181.7750  179.8280  141.9500 O   0  0  0  0  0  1  0  0  0  0  0  0
  183.9650  178.4710  139.0130 C   0  0  2  0  0  3  0  0  0  0  0  0
  181.1860  176.7830  138.7300 O   0  0  0  0  0  0  0  0  0  0  0  0
  180.8630  175.6320  139.4720 C   0  0  0  0  0  1  0  0  0  0  0  0
  190.4880  178.6520  142.5480 C   0  0  0  0  0  3  0  0  0  0  0  0
  189.2690  178.0210  142.2500 C   0  0  0  0  0  0  0  0  0  0  0  0
  188.4430  177.5900  143.2930 C   0  0  0  0  0  3  0  0  0  0  0  0
  187.7940  177.2320  145.9220 Cl  0  0  0  0  0  0  0  0  0  0  0  0
  190.0480  178.4000  144.9150 C   0  0  0  0  0  3  0  0  0  0  0  0
  188.8320  177.7760  144.6220 C   0  0  0  0  0  0  0  0  0  0  0  0
  190.8760  178.8390  143.8770 C   0  0  0  0  0  3  0  0  0  0  0  0
  186.4230  178.6210  141.2750 C   0  0  0  0  0  2  0  0  0  0  0  0
  185.5330  178.0730  142.3730 C   0  0  0  0  0  1  0  0  0  0  0  0
  1  9  1  0  0  0  0
  1 12  1  0  0  0  0
  2  4  1  6  0  0  0
  3 14  1  0  0  0  0
  3 11  1  0  0  0  0
  4  6  1  0  0  0  0
  5  8  1  0  0  0  0
  5  2  1  0  0  0  0
  6 15  1  0  0  0  0
  6 36  1  0  0  0  0
  7 11  1  0  0  0  0
  8 12  1  0  0  0  0
  8 26  1  0  0  0  0
 10 17  1  0  0  0  0
 11 13  1  0  0  0  0
 13  2  1  0  0  0  0
 13 10  1  0  0  0  0
 14  1  1  0  0  0  0
 14  5  1  0  0  0  0
 15 30  1  0  0  0  0
 16  1  1  0  0  0  0
 17 15  1  0  0  0  0
 19 18  1  0  0  0  0
 19 21  1  0  0  0  0
 20 25  1  0  0  0  0
 21 20  1  0  0  0  0
 22 20  1  0  0  0  0
 23 24  1  0  0  0  0
 23 26  1  0  0  0  0
 24 19  1  0  0  0  0
 24 22  1  0  0  0  0
 26 18  1  0  0  0  0
 27 28  1  0  0  0  0
 27 19  1  0  0  0  0
 29 35  1  0  0  0  0
 30 29  2  0  0  0  0
 30 31  1  0  0  0  0
 31 34  2  0  0  0  0
 34 33  1  0  0  0  0
 34 32  1  0  0  0  0
 35 33  2  0  0  0  0
 36 37  1  0  0  0  0
M  END
>  <MODEL>
6

>  <REMARK>
 VINA RESULT:      -5.2      2.342      3.587
  Name = 
  4 active torsions:
  status: ('A' for Active; 'I' for Inactive)
    1  A    between atoms: C_5  and  O_12
    2  A    between atoms: C_6  and  C_31
    3  A    between atoms: C_7  and  C_14
    4  A    between atoms: C_20  and  C_36
                            x       y       z     vdW  Elec       q    Type
                         _______ _______ _______ _____ _____    ______ ____

>  <TORSDO>
F 4

$$$$
=
 OpenBabel11052415183D

 37 42  0  0  1  0  0  0  0  0999 V2000
  190.4550  174.3670  136.1070 C   0  0  0  0  0  0  0  0  0  0  0  0
  191.3290  176.9830  138.1720 C   0  0  2  0  0  3  0  0  0  0  0  0
  192.8680  175.0010  136.8790 C   0  0  0  0  0  2  0  0  0  0  0  0
  190.7290  175.9470  139.1410 C   0  0  0  0  0  2  0  0  0  0  0  0
  190.9520  176.7140  136.6940 C   0  0  2  0  0  3  0  0  0  0  0  0
  190.4010  176.5390  140.5170 C   0  0  1  0  0  3  0  0  0  0  0  0
  194.1360  176.9420  136.2560 O   0  0  0  0  0  1  0  0  0  0  0  0
  189.4650  176.5820  136.3740 C   0  0  1  0  0  3  0  0  0  0  0  0
  190.6320  173.2280  137.1010 C   0  0  0  0  0  1  0  0  0  0  0  0
  193.4580  177.0480  139.6990 C   0  0  0  0  0  2  0  0  0  0  0  0
  193.6760  176.2110  137.3530 C   0  0  1  0  0  3  0  0  0  0  0  0
  189.1570  175.0940  136.4310 C   0  0  0  0  0  2  0  0  0  0  0  0
  192.8720  177.1280  138.2910 C   0  0  1  0  0  3  0  0  0  0  0  0
  191.5740  175.4240  136.1580 C   0  0  2  0  0  3  0  0  0  0  0  0
  191.6530  176.8030  141.3650 C   0  0  1  0  0  3  0  0  0  0  0  0
  190.3750  173.7950  134.7050 C   0  0  0  0  0  1  0  0  0  0  0  0
  192.6290  177.7890  140.7320 C   0  0  0  0  0  2  0  0  0  0  0  0
  187.4850  176.5680  137.9030 C   0  0  0  0  0  2  0  0  0  0  0  0
  186.2790  176.5750  136.9640 C   0  0  1  0  0  0  0  0  0  0  0  0
  184.6810  178.2770  137.5880 C   0  0  2  0  0  3  0  0  0  0  0  0
  184.9960  176.8170  137.7570 C   0  0  0  0  0  2  0  0  0  0  0  0
  185.3790  178.6650  136.3040 C   0  0  0  0  0  2  0  0  0  0  0  0
  187.7080  178.3630  136.3670 C   0  0  0  0  0  2  0  0  0  0  0  0
  186.4470  177.7050  136.0400 N   0  0  1  0  0  0  0  0  0  0  0  0
  185.2340  178.9950  138.6480 O   0  0  0  0  0  1  0  0  0  0  0  0
  188.5240  177.4320  137.2360 C   0  0  2  0  0  3  0  0  0  0  0  0
  186.2050  175.3850  136.1980 O   0  0  0  0  0  0  0  0  0  0  0  0
  185.3370  174.4650  136.8150 C   0  0  0  0  0  1  0  0  0  0  0  0
  190.5810  178.2810  143.1220 C   0  0  0  0  0  3  0  0  0  0  0  0
  191.3320  177.1420  142.7900 C   0  0  0  0  0  0  0  0  0  0  0  0
  191.7660  176.2820  143.8060 C   0  0  0  0  0  3  0  0  0  0  0  0
  192.0120  175.4820  146.4060 Cl  0  0  0  0  0  0  0  0  0  0  0  0
  190.7210  177.6990  145.4680 C   0  0  0  0  0  3  0  0  0  0  0  0
  191.4640  176.5610  145.1410 C   0  0  0  0  0  0  0  0  0  0  0  0
  190.2790  178.5590  144.4580 C   0  0  0  0  0  3  0  0  0  0  0  0
  189.4680  177.7430  140.4290 C   0  0  0  0  0  2  0  0  0  0  0  0
  188.1870  177.4570  141.1870 C   0  0  0  0  0  1  0  0  0  0  0  0
  1 14  1  0  0  0  0
  1 12  1  0  0  0  0
  1  9  1  0  0  0  0
  2 13  1  0  0  0  0
  2  4  1  1  0  0  0
  3 11  1  0  0  0  0
  4  6  1  0  0  0  0
  5  2  1  0  0  0  0
  6 15  1  0  0  0  0
  7 11  1  0  0  0  0
  8 12  1  0  0  0  0
  8  5  1  0  0  0  0
  8 26  1  0  0  0  0
 10 17  1  0  0  0  0
 11 13  1  0  0  0  0
 13 10  1  0  0  0  0
 14  5  1  0  0  0  0
 14  3  1  0  0  0  0
 15 30  1  0  0  0  0
 16  1  1  0  0  0  0
 17 15  1  0  0  0  0
 19 21  1  0  0  0  0
 19 18  1  0  0  0  0
 20 21  1  0  0  0  0
 20 25  1  0  0  0  0
 22 20  1  0  0  0  0
 23 26  1  0  0  0  0
 24 22  1  0  0  0  0
 24 23  1  0  0  0  0
 24 19  1  0  0  0  0
 26 18  1  0  0  0  0
 27 28  1  0  0  0  0
 27 19  1  0  0  0  0
 29 35  1  0  0  0  0
 30 29  2  0  0  0  0
 30 31  1  0  0  0  0
 31 34  2  0  0  0  0
 34 33  1  0  0  0  0
 34 32  1  0  0  0  0
 35 33  2  0  0  0  0
 36  6  1  0  0  0  0
 36 37  1  0  0  0  0
M  END
>  <MODEL>
7

>  <REMARK>
 VINA RESULT:      -5.2      4.668      6.946
  Name = 
  4 active torsions:
  status: ('A' for Active; 'I' for Inactive)
    1  A    between atoms: C_5  and  O_12
    2  A    between atoms: C_6  and  C_31
    3  A    between atoms: C_7  and  C_14
    4  A    between atoms: C_20  and  C_36
                            x       y       z     vdW  Elec       q    Type
                         _______ _______ _______ _____ _____    ______ ____

>  <TORSDO>
F 4

$$$$
=
 OpenBabel11052415183D

 37 42  0  0  1  0  0  0  0  0999 V2000
  188.8210  177.1440  135.3830 C   0  0  0  0  0  0  0  0  0  0  0  0
  186.4420  176.1150  137.6540 C   0  0  2  0  0  3  0  0  0  0  0  0
  186.8230  175.5260  134.9200 C   0  0  0  0  0  2  0  0  0  0  0  0
  186.0250  177.5620  137.3290 C   0  0  0  0  0  2  0  0  0  0  0  0
  187.9030  175.8030  137.2440 C   0  0  2  0  0  3  0  0  0  0  0  0
  185.0110  178.1290  138.3300 C   0  0  1  0  0  3  0  0  0  0  0  0
  186.5270  173.2970  135.7570 O   0  0  0  0  0  1  0  0  0  0  0  0
  188.9850  176.7330  137.7850 C   0  0  1  0  0  3  0  0  0  0  0  0
  187.9690  178.1300  134.5970 C   0  0  0  0  0  1  0  0  0  0  0  0
  184.0040  175.3700  137.0460 C   0  0  0  0  0  2  0  0  0  0  0  0
  185.9080  174.5430  135.6500 C   0  0  1  0  0  3  0  0  0  0  0  0
  189.2050  177.7860  136.7100 C   0  0  0  0  0  2  0  0  0  0  0  0
  185.4960  175.0430  137.0460 C   0  0  1  0  0  3  0  0  0  0  0  0
  188.1000  175.8270  135.7280 C   0  0  2  0  0  3  0  0  0  0  0  0
  183.6040  177.5420  138.1470 C   0  0  1  0  0  3  0  0  0  0  0  0
  190.0770  176.8320  134.5940 C   0  0  0  0  0  1  0  0  0  0  0  0
  183.5390  176.0300  138.3310 C   0  0  0  0  0  2  0  0  0  0  0  0
  189.8070  178.2910  139.5610 C   0  0  0  0  0  2  0  0  0  0  0  0
  190.8250  177.4670  140.3500 C   0  0  1  0  0  0  0  0  0  0  0  0
  190.4160  177.5970  142.7280 C   0  0  2  0  0  3  0  0  0  0  0  0
  191.2300  178.2090  141.6220 C   0  0  0  0  0  2  0  0  0  0  0  0
  190.0600  176.2210  142.2140 C   0  0  0  0  0  2  0  0  0  0  0  0
  188.7990  176.2500  140.2320 C   0  0  0  0  0  2  0  0  0  0  0  0
  190.1600  176.2220  140.7580 N   0  0  1  0  0  0  0  0  0  0  0  0
  189.2490  178.3390  142.9070 O   0  0  0  0  0  1  0  0  0  0  0  0
  188.7170  177.3270  139.1720 C   0  0  2  0  0  3  0  0  0  0  0  0
  191.9510  177.1290  139.5580 O   0  0  0  0  0  0  0  0  0  0  0  0
  193.1360  177.5020  140.2190 C   0  0  0  0  0  1  0  0  0  0  0  0
  181.9990  177.7010  140.1020 C   0  0  0  0  0  3  0  0  0  0  0  0
  182.5610  178.2660  138.9470 C   0  0  0  0  0  0  0  0  0  0  0  0
  182.1680  179.5480  138.5450 C   0  0  0  0  0  3  0  0  0  0  0  0
  180.7260  181.8560  138.7710 Cl  0  0  0  0  0  0  0  0  0  0  0  0
  180.6530  179.6860  140.4280 C   0  0  0  0  0  3  0  0  0  0  0  0
  181.2140  180.2550  139.2820 C   0  0  0  0  0  0  0  0  0  0  0  0
  181.0460  178.4090  140.8390 C   0  0  0  0  0  3  0  0  0  0  0  0
  185.5100  178.0620  139.7700 C   0  0  0  0  0  2  0  0  0  0  0  0
  185.2380  179.3780  140.4700 C   0  0  0  0  0  1  0  0  0  0  0  0
  1 14  1  0  0  0  0
  1 12  1  0  0  0  0
  2  4  1  6  0  0  0
  3 11  1  0  0  0  0
  3 14  1  0  0  0  0
  4  6  1  0  0  0  0
  5  2  1  0  0  0  0
  5  8  1  0  0  0  0
  6 36  1  0  0  0  0
  8 26  1  0  0  0  0
  9  1  1  0  0  0  0
 10 13  1  0  0  0  0
 10 17  1  0  0  0  0
 11  7  1  0  0  0  0
 11 13  1  0  0  0  0
 12  8  1  0  0  0  0
 13  2  1  0  0  0  0
 14  5  1  0  0  0  0
 15  6  1  0  0  0  0
 15 17  1  0  0  0  0
 15 30  1  0  0  0  0
 16  1  1  0  0  0  0
 18 19  1  0  0  0  0
 19 24  1  0  0  0  0
 19 21  1  0  0  0  0
 20 25  1  0  0  0  0
 21 20  1  0  0  0  0
 22 20  1  0  0  0  0
 23 24  1  0  0  0  0
 24 22  1  0  0  0  0
 26 18  1  0  0  0  0
 26 23  1  0  0  0  0
 27 28  1  0  0  0  0
 27 19  1  0  0  0  0
 29 35  1  0  0  0  0
 30 29  2  0  0  0  0
 31 30  1  0  0  0  0
 31 34  2  0  0  0  0
 32 34  1  0  0  0  0
 33 35  2  0  0  0  0
 34 33  1  0  0  0  0
 36 37  1  0  0  0  0
M  END
>  <MODEL>
8

>  <REMARK>
 VINA RESULT:      -5.1      4.361      7.850
  Name = 
  4 active torsions:
  status: ('A' for Active; 'I' for Inactive)
    1  A    between atoms: C_5  and  O_12
    2  A    between atoms: C_6  and  C_31
    3  A    between atoms: C_7  and  C_14
    4  A    between atoms: C_20  and  C_36
                            x       y       z     vdW  Elec       q    Type
                         _______ _______ _______ _____ _____    ______ ____

>  <TORSDO>
F 4

$$$$
=
 OpenBabel11052415183D

 37 42  0  0  1  0  0  0  0  0999 V2000
  181.7300  180.5690  138.2680 C   0  0  0  0  0  0  0  0  0  0  0  0
  182.3310  178.2830  140.7760 C   0  0  2  0  0  3  0  0  0  0  0  0
  180.2590  180.1600  140.3880 C   0  0  0  0  0  2  0  0  0  0  0  0
  183.3510  179.4030  141.0590 C   0  0  0  0  0  2  0  0  0  0  0  0
  181.7560  178.3430  139.3390 C   0  0  2  0  0  3  0  0  0  0  0  0
  184.4470  178.9750  142.0420 C   0  0  1  0  0  3  0  0  0  0  0  0
  178.9360  178.2220  140.8930 O   0  0  0  0  0  1  0  0  0  0  0  0
  182.7630  178.3580  138.1920 C   0  0  1  0  0  3  0  0  0  0  0  0
  182.1330  181.8330  139.0150 C   0  0  0  0  0  1  0  0  0  0  0  0
  181.5160  178.5200  143.2550 C   0  0  0  0  0  2  0  0  0  0  0  0
  179.9280  179.0620  141.4000 C   0  0  1  0  0  3  0  0  0  0  0  0
  182.9930  179.8240  137.8590 C   0  0  0  0  0  2  0  0  0  0  0  0
  181.1620  178.2320  141.7970 C   0  0  1  0  0  3  0  0  0  0  0  0
  180.8930  179.5840  139.1070 C   0  0  2  0  0  3  0  0  0  0  0  0
  183.9460  178.8840  143.4900 C   0  0  1  0  0  3  0  0  0  0  0  0
  180.9480  180.9530  137.0270 C   0  0  0  0  0  1  0  0  0  0  0  0
  182.8200  177.8760  143.6890 C   0  0  0  0  0  2  0  0  0  0  0  0
  185.1060  177.9470  137.4180 C   0  0  0  0  0  2  0  0  0  0  0  0
  184.9610  176.9230  136.2920 C   0  0  1  0  0  0  0  0  0  0  0  0
  186.4770  175.0650  136.5840 C   0  0  2  0  0  3  0  0  0  0  0  0
  186.3330  176.3890  135.8860 C   0  0  0  0  0  2  0  0  0  0  0  0
  185.0560  174.6220  136.8450 C   0  0  0  0  0  2  0  0  0  0  0  0
  183.8400  176.1010  138.2060 C   0  0  0  0  0  2  0  0  0  0  0  0
  184.1860  175.7930  136.8220 N   0  0  1  0  0  0  0  0  0  0  0  0
  187.1320  175.2520  137.8010 O   0  0  0  0  0  1  0  0  0  0  0  0
  184.0600  177.5800  138.4380 C   0  0  2  0  0  3  0  0  0  0  0  0
  184.2590  177.4600  135.1840 O   0  0  0  0  0  0  0  0  0  0  0  0
  183.2470  176.5710  134.7750 C   0  0  0  0  0  1  0  0  0  0  0  0
  184.8830  179.0310  145.8400 C   0  0  0  0  0  3  0  0  0  0  0  0
  185.0560  178.7130  144.4830 C   0  0  0  0  0  0  0  0  0  0  0  0
  186.2800  178.1920  144.0490 C   0  0  0  0  0  3  0  0  0  0  0  0
  188.8550  177.3520  144.4030 Cl  0  0  0  0  0  0  0  0  0  0  0  0
  187.1520  178.3250  146.3030 C   0  0  0  0  0  3  0  0  0  0  0  0
  187.3260  178.0020  144.9550 C   0  0  0  0  0  0  0  0  0  0  0  0
  185.9290  178.8400  146.7460 C   0  0  0  0  0  3  0  0  0  0  0  0
  185.1910  177.7240  141.5820 C   0  0  0  0  0  2  0  0  0  0  0  0
  186.4450  178.1190  140.8290 C   0  0  0  0  0  1  0  0  0  0  0  0
  1  9  1  0  0  0  0
  1 14  1  0  0  0  0
  2  4  1  1  0  0  0
  2 13  1  0  0  0  0
  3 11  1  0  0  0  0
  4  6  1  0  0  0  0
  5  2  1  0  0  0  0
  6 15  1  0  0  0  0
  7 11  1  0  0  0  0
  8 26  1  0  0  0  0
  8  5  1  0  0  0  0
 10 17  1  0  0  0  0
 11 13  1  0  0  0  0
 12  8  1  0  0  0  0
 12  1  1  0  0  0  0
 13 10  1  0  0  0  0
 14  5  1  0  0  0  0
 14  3  1  0  0  0  0
 15 17  1  0  0  0  0
 15 30  1  0  0  0  0
 16  1  1  0  0  0  0
 18 26  1  0  0  0  0
 19 24  1  0  0  0  0
 19 18  1  0  0  0  0
 20 22  1  0  0  0  0
 20 25  1  0  0  0  0
 21 19  1  0  0  0  0
 21 20  1  0  0  0  0
 23 26  1  0  0  0  0
 24 22  1  0  0  0  0
 24 23  1  0  0  0  0
 27 19  1  0  0  0  0
 28 27  1  0  0  0  0
 29 35  1  0  0  0  0
 30 29  2  0  0  0  0
 31 30  1  0  0  0  0
 31 34  2  0  0  0  0
 32 34  1  0  0  0  0
 33 35  2  0  0  0  0
 34 33  1  0  0  0  0
 36  6  1  0  0  0  0
 37 36  1  0  0  0  0
M  END
>  <MODEL>
9

>  <REMARK>
 VINA RESULT:      -4.8      2.070      5.420
  Name = 
  4 active torsions:
  status: ('A' for Active; 'I' for Inactive)
    1  A    between atoms: C_5  and  O_12
    2  A    between atoms: C_6  and  C_31
    3  A    between atoms: C_7  and  C_14
    4  A    between atoms: C_20  and  C_36
                            x       y       z     vdW  Elec       q    Type
                         _______ _______ _______ _____ _____    ______ ____

>  <TORSDO>
F 4

$$$$
