=
 OpenBabel11052413433D

 27 30  0  0  0  0  0  0  0  0999 V2000
  187.8610  178.7700  141.4950 C   0  0  0  0  0  2  0  0  0  0  0  0
  189.5750  177.3340  142.6900 C   0  0  0  0  0  0  0  0  0  0  0  0
  187.7540  178.0130  144.1720 O   0  0  0  0  0  0  0  0  0  0  0  0
  191.9320  176.2500  145.9880 C   0  0  0  0  0  3  0  0  0  0  0  0
  192.2550  176.1050  148.3440 F   0  0  0  0  0  0  0  0  0  0  0  0
  190.8570  176.7750  142.5550 C   0  0  0  0  0  3  0  0  0  0  0  0
  189.4010  177.3520  146.4290 C   0  0  0  0  0  3  0  0  0  0  0  0
  185.1100  179.1920  144.4430 C   0  0  0  0  0  2  0  0  0  0  0  0
  190.2110  177.0020  147.5120 C   0  0  0  0  0  3  0  0  0  0  0  0
  184.3510  178.2610  143.5080 C   0  0  0  0  0  2  0  0  0  0  0  0
  189.0460  177.4990  143.9970 C   0  0  0  0  0  0  0  0  0  0  0  0
  188.8370  177.6800  141.4950 N   0  0  0  0  0  0  0  0  0  0  0  0
  191.4720  176.4470  147.2920 C   0  0  0  0  0  0  0  0  0  0  0  0
  191.1280  176.6020  144.9000 C   0  0  0  0  0  0  0  0  0  0  0  0
  186.4480  178.2250  141.3880 C   0  0  0  0  0  2  0  0  0  0  0  0
  189.8420  177.1480  145.1120 C   0  0  0  0  0  0  0  0  0  0  0  0
  185.7910  178.4130  145.5590 C   0  0  0  0  0  2  0  0  0  0  0  0
  191.5920  176.4260  143.6390 N   0  0  0  0  0  0  0  0  0  0  0  0
  184.1490  178.9060  142.1380 C   0  0  0  0  0  2  0  0  0  0  0  0
  185.4650  179.3730  141.5210 C   0  0  0  0  0  2  0  0  0  0  0  0
  186.8000  177.3970  145.0330 C   0  0  0  0  0  2  0  0  0  0  0  0
  190.1060  177.5010  137.5300 O   0  0  0  0  0  0  0  0  0  0  0  0
  189.2290  177.0770  140.2150 C   0  0  0  0  0  3  0  0  0  0  0  0
  190.6810  177.4080  139.8630 C   0  0  0  0  0  2  0  0  0  0  0  0
  190.9780  176.8970  138.4530 C   0  0  0  0  0  2  0  0  0  0  0  0
  188.8300  176.9550  137.7620 C   0  0  0  0  0  2  0  0  0  0  0  0
  188.2740  177.4730  139.0870 C   0  0  0  0  0  2  0  0  0  0  0  0
  1 12  1  0  0  0  0
  2 11  1  0  0  0  0
  3 21  1  0  0  0  0
  4 13  2  0  0  0  0
  6  2  2  0  0  0  0
  6 18  1  0  0  0  0
  7  9  2  0  0  0  0
  8 17  1  0  0  0  0
 10  8  1  0  0  0  0
 11  3  1  0  0  0  0
 11 16  2  0  0  0  0
 12  2  1  0  0  0  0
 13  9  1  0  0  0  0
 13  5  1  0  0  0  0
 14 16  1  0  0  0  0
 14  4  1  0  0  0  0
 15  1  1  0  0  0  0
 15 20  1  0  0  0  0
 16  7  1  0  0  0  0
 18 14  2  0  0  0  0
 19 10  1  0  0  0  0
 20 19  1  0  0  0  0
 21 17  1  0  0  0  0
 22 26  1  0  0  0  0
 22 25  1  0  0  0  0
 23 12  1  0  0  0  0
 24 23  1  0  0  0  0
 25 24  1  0  0  0  0
 26 27  1  0  0  0  0
 27 23  1  0  0  0  0
M  END
>  <MODEL>
1

>  <REMARK>
 VINA RESULT:     -10.7      0.000      0.000
  Name = 
  1 active torsions:
  status: ('A' for Active; 'I' for Inactive)
    1  A    between atoms: C_9  and  N_15
                            x       y       z     vdW  Elec       q    Type
                         _______ _______ _______ _____ _____    ______ ____

>  <TORSDO>
F 1

$$$$
=
 OpenBabel11052413433D

 27 30  0  0  0  0  0  0  0  0999 V2000
  190.1570  176.0770  143.3310 C   0  0  0  0  0  2  0  0  0  0  0  0
  188.2690  177.6040  142.6000 C   0  0  0  0  0  0  0  0  0  0  0  0
  188.2760  177.2460  145.0180 O   0  0  0  0  0  0  0  0  0  0  0  0
  184.3450  179.0800  142.7720 C   0  0  0  0  0  3  0  0  0  0  0  0
  182.3720  179.5760  144.0120 F   0  0  0  0  0  0  0  0  0  0  0  0
  187.5860  178.0760  141.4670 C   0  0  0  0  0  3  0  0  0  0  0  0
  185.5620  178.1750  145.1210 C   0  0  0  0  0  3  0  0  0  0  0  0
  189.6880  176.2440  147.3550 C   0  0  0  0  0  2  0  0  0  0  0  0
  184.2490  178.6540  145.1520 C   0  0  0  0  0  3  0  0  0  0  0  0
  190.9700  177.0510  147.2070 C   0  0  0  0  0  2  0  0  0  0  0  0
  187.6140  177.6670  143.8580 C   0  0  0  0  0  0  0  0  0  0  0  0
  189.6200  177.1090  142.4440 N   0  0  0  0  0  0  0  0  0  0  0  0
  183.6440  179.1100  143.9800 C   0  0  0  0  0  0  0  0  0  0  0  0
  185.6570  178.6000  142.7350 C   0  0  0  0  0  0  0  0  0  0  0  0
  191.2060  176.6620  144.2590 C   0  0  0  0  0  2  0  0  0  0  0  0
  186.2860  178.1520  143.9180 C   0  0  0  0  0  0  0  0  0  0  0  0
  188.4730  177.1560  147.4450 C   0  0  0  0  0  2  0  0  0  0  0  0
  186.3210  178.5560  141.5550 N   0  0  0  0  0  0  0  0  0  0  0  0
  192.0770  176.2110  146.5730 C   0  0  0  0  0  2  0  0  0  0  0  0
  191.6430  175.5940  145.2450 C   0  0  0  0  0  2  0  0  0  0  0  0
  188.3030  178.0310  146.2070 C   0  0  0  0  0  2  0  0  0  0  0  0
  192.2100  176.6720  139.2100 O   0  0  0  0  0  0  0  0  0  0  0  0
  190.3830  177.4860  141.2480 C   0  0  0  0  0  3  0  0  0  0  0  0
  189.9490  176.6720  140.0270 C   0  0  0  0  0  2  0  0  0  0  0  0
  190.8850  176.9890  138.8620 C   0  0  0  0  0  2  0  0  0  0  0  0
  192.6180  177.6240  140.1620 C   0  0  0  0  0  2  0  0  0  0  0  0
  191.8910  177.3840  141.4840 C   0  0  0  0  0  2  0  0  0  0  0  0
  1 15  1  0  0  0  0
  2 11  1  0  0  0  0
  3 21  1  0  0  0  0
  4 13  2  0  0  0  0
  6 18  1  0  0  0  0
  6  2  2  0  0  0  0
  7  9  2  0  0  0  0
  8 17  1  0  0  0  0
 10  8  1  0  0  0  0
 11 16  2  0  0  0  0
 11  3  1  0  0  0  0
 12  2  1  0  0  0  0
 12  1  1  0  0  0  0
 13  5  1  0  0  0  0
 13  9  1  0  0  0  0
 14  4  1  0  0  0  0
 14 16  1  0  0  0  0
 15 20  1  0  0  0  0
 16  7  1  0  0  0  0
 18 14  2  0  0  0  0
 19 10  1  0  0  0  0
 20 19  1  0  0  0  0
 21 17  1  0  0  0  0
 22 26  1  0  0  0  0
 23 27  1  0  0  0  0
 23 12  1  0  0  0  0
 24 23  1  0  0  0  0
 25 22  1  0  0  0  0
 25 24  1  0  0  0  0
 26 27  1  0  0  0  0
M  END
>  <MODEL>
2

>  <REMARK>
 VINA RESULT:     -10.4      2.575      5.531
  Name = 
  1 active torsions:
  status: ('A' for Active; 'I' for Inactive)
    1  A    between atoms: C_9  and  N_15
                            x       y       z     vdW  Elec       q    Type
                         _______ _______ _______ _____ _____    ______ ____

>  <TORSDO>
F 1

$$$$
=
 OpenBabel11052413433D

 27 30  0  0  0  0  0  0  0  0999 V2000
  187.2500  177.0540  144.6870 C   0  0  0  0  0  2  0  0  0  0  0  0
  188.9720  177.4910  142.8780 C   0  0  0  0  0  0  0  0  0  0  0  0
  186.7130  178.0840  142.1570 O   0  0  0  0  0  0  0  0  0  0  0  0
  190.3200  177.5560  138.9060 C   0  0  0  0  0  3  0  0  0  0  0  0
  189.8870  177.8040  136.5750 F   0  0  0  0  0  0  0  0  0  0  0  0
  190.3120  177.2560  142.5290 C   0  0  0  0  0  3  0  0  0  0  0  0
  187.6180  178.0420  139.4330 C   0  0  0  0  0  3  0  0  0  0  0  0
  183.9360  178.5440  142.8870 C   0  0  0  0  0  2  0  0  0  0  0  0
  188.0850  178.0400  138.1160 C   0  0  0  0  0  3  0  0  0  0  0  0
  184.1570  179.6090  143.9520 C   0  0  0  0  0  2  0  0  0  0  0  0
  188.0490  177.8010  141.8450 C   0  0  0  0  0  0  0  0  0  0  0  0
  188.5980  177.4450  144.2750 N   0  0  0  0  0  0  0  0  0  0  0  0
  189.4360  177.8030  137.8530 C   0  0  0  0  0  0  0  0  0  0  0  0
  189.8580  177.5540  140.2250 C   0  0  0  0  0  0  0  0  0  0  0  0
  186.4860  178.2500  145.2260 C   0  0  0  0  0  2  0  0  0  0  0  0
  188.4970  177.8110  140.5030 C   0  0  0  0  0  0  0  0  0  0  0  0
  184.5270  178.9730  141.5520 C   0  0  0  0  0  2  0  0  0  0  0  0
  190.7210  177.2930  141.2360 N   0  0  0  0  0  0  0  0  0  0  0  0
  184.0930  179.0040  145.3540 C   0  0  0  0  0  2  0  0  0  0  0  0
  185.0580  177.8330  145.5200 C   0  0  0  0  0  2  0  0  0  0  0  0
  186.0310  179.2170  141.6270 C   0  0  0  0  0  2  0  0  0  0  0  0
  191.0930  176.3360  147.4230 O   0  0  0  0  0  0  0  0  0  0  0  0
  189.6430  177.5760  145.2970 C   0  0  0  0  0  3  0  0  0  0  0  0
  190.7930  176.5970  145.0510 C   0  0  0  0  0  2  0  0  0  0  0  0
  191.7630  176.6660  146.2310 C   0  0  0  0  0  2  0  0  0  0  0  0
  190.2290  177.4080  147.7110 C   0  0  0  0  0  2  0  0  0  0  0  0
  189.0740  177.4300  146.7100 C   0  0  0  0  0  2  0  0  0  0  0  0
  1 15  1  0  0  0  0
  2 12  1  0  0  0  0
  4 14  1  0  0  0  0
  5 13  1  0  0  0  0
  6  2  1  0  0  0  0
  7 16  1  0  0  0  0
  8 10  1  0  0  0  0
  9  7  2  0  0  0  0
 10 19  1  0  0  0  0
 11  3  1  0  0  0  0
 11  2  2  0  0  0  0
 12  1  1  0  0  0  0
 12 23  1  0  0  0  0
 13  9  1  0  0  0  0
 13  4  2  0  0  0  0
 14 16  2  0  0  0  0
 14 18  1  0  0  0  0
 15 20  1  0  0  0  0
 16 11  1  0  0  0  0
 17 21  1  0  0  0  0
 17  8  1  0  0  0  0
 18  6  2  0  0  0  0
 19 20  1  0  0  0  0
 21  3  1  0  0  0  0
 22 26  1  0  0  0  0
 23 27  1  0  0  0  0
 24 23  1  0  0  0  0
 24 25  1  0  0  0  0
 25 22  1  0  0  0  0
 27 26  1  0  0  0  0
M  END
>  <MODEL>
3

>  <REMARK>
 VINA RESULT:     -10.2      2.800      6.055
  Name = 
  1 active torsions:
  status: ('A' for Active; 'I' for Inactive)
    1  A    between atoms: C_9  and  N_15
                            x       y       z     vdW  Elec       q    Type
                         _______ _______ _______ _____ _____    ______ ____

>  <TORSDO>
F 1

$$$$
=
 OpenBabel11052413433D

 27 30  0  0  0  0  0  0  0  0999 V2000
  187.7470  177.1540  144.0460 C   0  0  0  0  0  2  0  0  0  0  0  0
  186.9980  178.2070  141.8640 C   0  0  0  0  0  0  0  0  0  0  0  0
  185.2950  178.3980  143.6080 O   0  0  0  0  0  0  0  0  0  0  0  0
  184.1630  179.1320  138.9130 C   0  0  0  0  0  3  0  0  0  0  0  0
  181.9170  179.6140  138.2770 F   0  0  0  0  0  0  0  0  0  0  0  0
  187.3290  178.3180  140.5040 C   0  0  0  0  0  3  0  0  0  0  0  0
  183.3400  178.9460  141.5780 C   0  0  0  0  0  3  0  0  0  0  0  0
  184.6150  178.1420  146.4230 C   0  0  0  0  0  2  0  0  0  0  0  0
  182.4090  179.2340  140.5760 C   0  0  0  0  0  3  0  0  0  0  0  0
  185.6800  179.0640  146.9980 C   0  0  0  0  0  2  0  0  0  0  0  0
  185.6560  178.4570  142.2550 C   0  0  0  0  0  0  0  0  0  0  0  0
  188.0430  177.8800  142.8110 N   0  0  0  0  0  0  0  0  0  0  0  0
  182.8210  179.3320  139.2460 C   0  0  0  0  0  0  0  0  0  0  0  0
  185.0980  178.8400  139.9100 C   0  0  0  0  0  0  0  0  0  0  0  0
  187.8830  178.0680  145.2500 C   0  0  0  0  0  2  0  0  0  0  0  0
  184.6950  178.7560  141.2620 C   0  0  0  0  0  0  0  0  0  0  0  0
  183.7370  178.8750  145.4190 C   0  0  0  0  0  2  0  0  0  0  0  0
  186.3920  178.6280  139.5730 N   0  0  0  0  0  0  0  0  0  0  0  0
  186.8640  178.2640  147.5390 C   0  0  0  0  0  2  0  0  0  0  0  0
  187.4450  177.3160  146.4930 C   0  0  0  0  0  2  0  0  0  0  0  0
  184.5310  179.4230  144.2360 C   0  0  0  0  0  2  0  0  0  0  0  0
  192.1310  177.1220  142.5370 O   0  0  0  0  0  0  0  0  0  0  0  0
  189.4440  178.0850  142.4240 C   0  0  0  0  0  3  0  0  0  0  0  0
  189.9510  176.9460  141.5370 C   0  0  0  0  0  2  0  0  0  0  0  0
  191.4510  177.1280  141.3050 C   0  0  0  0  0  2  0  0  0  0  0  0
  191.8010  178.3250  143.1870 C   0  0  0  0  0  2  0  0  0  0  0  0
  190.3430  178.2880  143.6450 C   0  0  0  0  0  2  0  0  0  0  0  0
  1 15  1  0  0  0  0
  2 11  1  0  0  0  0
  2 12  1  0  0  0  0
  3 21  1  0  0  0  0
  4 13  2  0  0  0  0
  4 14  1  0  0  0  0
  5 13  1  0  0  0  0
  6  2  2  0  0  0  0
  8 10  1  0  0  0  0
  9  7  2  0  0  0  0
 10 19  1  0  0  0  0
 11  3  1  0  0  0  0
 12  1  1  0  0  0  0
 13  9  1  0  0  0  0
 14 16  1  0  0  0  0
 15 20  1  0  0  0  0
 16  7  1  0  0  0  0
 16 11  2  0  0  0  0
 17  8  1  0  0  0  0
 18 14  2  0  0  0  0
 18  6  1  0  0  0  0
 20 19  1  0  0  0  0
 21 17  1  0  0  0  0
 22 26  1  0  0  0  0
 23 12  1  0  0  0  0
 23 27  1  0  0  0  0
 24 23  1  0  0  0  0
 25 24  1  0  0  0  0
 25 22  1  0  0  0  0
 26 27  1  0  0  0  0
M  END
>  <MODEL>
4

>  <REMARK>
 VINA RESULT:     -10.1      3.693      6.433
  Name = 
  1 active torsions:
  status: ('A' for Active; 'I' for Inactive)
    1  A    between atoms: C_9  and  N_15
                            x       y       z     vdW  Elec       q    Type
                         _______ _______ _______ _____ _____    ______ ____

>  <TORSDO>
F 1

$$$$
=
 OpenBabel11052413433D

 27 30  0  0  0  0  0  0  0  0999 V2000
  189.1270  176.6650  144.1170 C   0  0  0  0  0  2  0  0  0  0  0  0
  187.2850  177.9110  142.8980 C   0  0  0  0  0  0  0  0  0  0  0  0
  186.8870  177.8130  145.3080 O   0  0  0  0  0  0  0  0  0  0  0  0
  183.2890  179.0010  142.2240 C   0  0  0  0  0  3  0  0  0  0  0  0
  181.0930  179.4270  143.0440 F   0  0  0  0  0  0  0  0  0  0  0  0
  186.7810  178.1900  141.6170 C   0  0  0  0  0  3  0  0  0  0  0  0
  184.1340  178.4740  144.8370 C   0  0  0  0  0  3  0  0  0  0  0  0
  187.9330  177.2090  147.9530 C   0  0  0  0  0  2  0  0  0  0  0  0
  182.8030  178.8210  144.5870 C   0  0  0  0  0  3  0  0  0  0  0  0
  189.1520  178.1190  147.9270 C   0  0  0  0  0  2  0  0  0  0  0  0
  186.4120  178.0420  144.0090 C   0  0  0  0  0  0  0  0  0  0  0  0
  188.6760  177.5390  143.0330 N   0  0  0  0  0  0  0  0  0  0  0  0
  182.3830  179.0890  143.2830 C   0  0  0  0  0  0  0  0  0  0  0  0
  184.6210  178.6520  142.4670 C   0  0  0  0  0  0  0  0  0  0  0  0
  189.9430  177.4450  145.1310 C   0  0  0  0  0  2  0  0  0  0  0  0
  185.0610  178.3960  143.7860 C   0  0  0  0  0  0  0  0  0  0  0  0
  186.6520  178.0000  147.7260 C   0  0  0  0  0  2  0  0  0  0  0  0
  185.4870  178.5490  141.4310 N   0  0  0  0  0  0  0  0  0  0  0  0
  190.4180  177.3300  147.5960 C   0  0  0  0  0  2  0  0  0  0  0  0
  190.2790  176.5360  146.2980 C   0  0  0  0  0  2  0  0  0  0  0  0
  186.6380  178.7180  146.3800 C   0  0  0  0  0  2  0  0  0  0  0  0
  191.3230  176.8810  139.8820 O   0  0  0  0  0  0  0  0  0  0  0  0
  189.6090  177.8610  141.9470 C   0  0  0  0  0  3  0  0  0  0  0  0
  189.0810  177.3790  140.5930 C   0  0  0  0  0  2  0  0  0  0  0  0
  190.1610  177.5930  139.5340 C   0  0  0  0  0  2  0  0  0  0  0  0
  191.8850  177.5400  140.9910 C   0  0  0  0  0  2  0  0  0  0  0  0
  191.0130  177.3190  142.2260 C   0  0  0  0  0  2  0  0  0  0  0  0
  1 15  1  0  0  0  0
  2 12  1  0  0  0  0
  2 11  1  0  0  0  0
  3 21  1  0  0  0  0
  4 14  1  0  0  0  0
  4 13  2  0  0  0  0
  5 13  1  0  0  0  0
  6  2  2  0  0  0  0
  9  7  2  0  0  0  0
 10  8  1  0  0  0  0
 11  3  1  0  0  0  0
 12  1  1  0  0  0  0
 13  9  1  0  0  0  0
 14 16  1  0  0  0  0
 15 20  1  0  0  0  0
 16 11  2  0  0  0  0
 16  7  1  0  0  0  0
 17  8  1  0  0  0  0
 18  6  1  0  0  0  0
 18 14  2  0  0  0  0
 19 10  1  0  0  0  0
 20 19  1  0  0  0  0
 21 17  1  0  0  0  0
 22 26  1  0  0  0  0
 23 27  1  0  0  0  0
 23 12  1  0  0  0  0
 24 23  1  0  0  0  0
 25 22  1  0  0  0  0
 25 24  1  0  0  0  0
 26 27  1  0  0  0  0
M  END
>  <MODEL>
5

>  <REMARK>
 VINA RESULT:      -9.8      2.889      5.843
  Name = 
  1 active torsions:
  status: ('A' for Active; 'I' for Inactive)
    1  A    between atoms: C_9  and  N_15
                            x       y       z     vdW  Elec       q    Type
                         _______ _______ _______ _____ _____    ______ ____

>  <TORSDO>
F 1

$$$$
=
 OpenBabel11052413433D

 27 30  0  0  0  0  0  0  0  0999 V2000
  185.3060  179.3780  142.3670 C   0  0  0  0  0  2  0  0  0  0  0  0
  186.9850  178.3520  140.7670 C   0  0  0  0  0  0  0  0  0  0  0  0
  187.7170  178.1910  143.0940 O   0  0  0  0  0  0  0  0  0  0  0  0
  190.8680  177.5030  139.4260 C   0  0  0  0  0  3  0  0  0  0  0  0
  193.1680  177.0740  139.8780 F   0  0  0  0  0  0  0  0  0  0  0  0
  187.3080  178.2390  139.4050 C   0  0  0  0  0  3  0  0  0  0  0  0
  190.3910  177.6970  142.1730 C   0  0  0  0  0  3  0  0  0  0  0  0
  187.0430  178.4510  145.9110 C   0  0  0  0  0  2  0  0  0  0  0  0
  191.6810  177.4340  141.7030 C   0  0  0  0  0  3  0  0  0  0  0  0
  185.8540  177.5030  145.9470 C   0  0  0  0  0  2  0  0  0  0  0  0
  188.0090  178.1300  141.7250 C   0  0  0  0  0  0  0  0  0  0  0  0
  185.6180  178.6510  141.1360 N   0  0  0  0  0  0  0  0  0  0  0  0
  191.9180  177.3320  140.3320 C   0  0  0  0  0  0  0  0  0  0  0  0
  189.5770  177.7690  139.8890 C   0  0  0  0  0  0  0  0  0  0  0  0
  184.6600  178.4570  143.3850 C   0  0  0  0  0  2  0  0  0  0  0  0
  189.3230  177.8570  141.2760 C   0  0  0  0  0  0  0  0  0  0  0  0
  188.2960  177.7420  145.4180 C   0  0  0  0  0  2  0  0  0  0  0  0
  188.5710  177.9540  139.0010 N   0  0  0  0  0  0  0  0  0  0  0  0
  184.5360  178.2730  145.8880 C   0  0  0  0  0  2  0  0  0  0  0  0
  184.4710  179.2130  144.6860 C   0  0  0  0  0  2  0  0  0  0  0  0
  188.1360  177.1820  144.0070 C   0  0  0  0  0  2  0  0  0  0  0  0
  181.8000  178.7800  139.4730 O   0  0  0  0  0  0  0  0  0  0  0  0
  184.5480  178.4160  140.1590 C   0  0  0  0  0  3  0  0  0  0  0  0
  184.0040  179.7330  139.5990 C   0  0  0  0  0  2  0  0  0  0  0  0
  182.7910  179.4330  138.7190 C   0  0  0  0  0  2  0  0  0  0  0  0
  182.2800  177.4840  139.7370 C   0  0  0  0  0  2  0  0  0  0  0  0
  183.4310  177.5480  140.7400 C   0  0  0  0  0  2  0  0  0  0  0  0
  1 15  1  0  0  0  0
  2 12  1  0  0  0  0
  2 11  1  0  0  0  0
  3 21  1  0  0  0  0
  4 14  1  0  0  0  0
  4 13  2  0  0  0  0
  5 13  1  0  0  0  0
  6  2  2  0  0  0  0
  8 10  1  0  0  0  0
  9  7  2  0  0  0  0
 11  3  1  0  0  0  0
 12  1  1  0  0  0  0
 13  9  1  0  0  0  0
 14 16  1  0  0  0  0
 15 20  1  0  0  0  0
 16 11  2  0  0  0  0
 16  7  1  0  0  0  0
 17  8  1  0  0  0  0
 18  6  1  0  0  0  0
 18 14  2  0  0  0  0
 19 10  1  0  0  0  0
 20 19  1  0  0  0  0
 21 17  1  0  0  0  0
 22 26  1  0  0  0  0
 23 27  1  0  0  0  0
 23 12  1  0  0  0  0
 24 23  1  0  0  0  0
 25 22  1  0  0  0  0
 25 24  1  0  0  0  0
 26 27  1  0  0  0  0
M  END
>  <MODEL>
6

>  <REMARK>
 VINA RESULT:      -9.8      2.886      5.153
  Name = 
  1 active torsions:
  status: ('A' for Active; 'I' for Inactive)
    1  A    between atoms: C_9  and  N_15
                            x       y       z     vdW  Elec       q    Type
                         _______ _______ _______ _____ _____    ______ ____

>  <TORSDO>
F 1

$$$$
=
 OpenBabel11052413433D

 27 30  0  0  0  0  0  0  0  0999 V2000
  184.9860  179.4720  143.0450 C   0  0  0  0  0  2  0  0  0  0  0  0
  185.8810  178.5800  140.8470 C   0  0  0  0  0  0  0  0  0  0  0  0
  187.3780  178.0860  142.7150 O   0  0  0  0  0  0  0  0  0  0  0  0
  188.9330  177.7230  138.0980 C   0  0  0  0  0  3  0  0  0  0  0  0
  191.1930  177.1280  137.6320 F   0  0  0  0  0  0  0  0  0  0  0  0
  185.6840  178.6280  139.4570 C   0  0  0  0  0  3  0  0  0  0  0  0
  189.4880  177.5840  140.8350 C   0  0  0  0  0  3  0  0  0  0  0  0
  187.7820  178.0140  145.5940 C   0  0  0  0  0  2  0  0  0  0  0  0
  190.4950  177.3220  139.9010 C   0  0  0  0  0  3  0  0  0  0  0  0
  186.6020  177.1280  145.9650 C   0  0  0  0  0  2  0  0  0  0  0  0
  187.1540  178.1880  141.3350 C   0  0  0  0  0  0  0  0  0  0  0  0
  184.7690  178.8950  141.7180 N   0  0  0  0  0  0  0  0  0  0  0  0
  190.2160  177.3850  138.5350 C   0  0  0  0  0  0  0  0  0  0  0  0
  187.9230  177.9900  139.0270 C   0  0  0  0  0  0  0  0  0  0  0  0
  184.6650  178.4600  144.1290 C   0  0  0  0  0  2  0  0  0  0  0  0
  188.1900  177.9100  140.4120 C   0  0  0  0  0  0  0  0  0  0  0  0
  188.7050  177.3140  144.6070 C   0  0  0  0  0  2  0  0  0  0  0  0
  186.6870  178.3360  138.5920 N   0  0  0  0  0  0  0  0  0  0  0  0
  185.4270  177.9630  146.4720 C   0  0  0  0  0  2  0  0  0  0  0  0
  185.0240  179.0520  145.4800 C   0  0  0  0  0  2  0  0  0  0  0  0
  188.0010  176.9480  143.3030 C   0  0  0  0  0  2  0  0  0  0  0  0
  180.8070  177.6640  141.3380 O   0  0  0  0  0  0  0  0  0  0  0  0
  183.4050  178.8410  141.1810 C   0  0  0  0  0  3  0  0  0  0  0  0
  182.3720  179.2550  142.2330 C   0  0  0  0  0  2  0  0  0  0  0  0
  180.9710  179.0210  141.6710 C   0  0  0  0  0  2  0  0  0  0  0  0
  181.6050  177.4260  140.2050 C   0  0  0  0  0  2  0  0  0  0  0  0
  183.0830  177.4670  140.5900 C   0  0  0  0  0  2  0  0  0  0  0  0
  1 15  1  0  0  0  0
  2 11  1  0  0  0  0
  2 12  1  0  0  0  0
  3 21  1  0  0  0  0
  4 13  2  0  0  0  0
  4 14  1  0  0  0  0
  5 13  1  0  0  0  0
  6  2  2  0  0  0  0
  8 10  1  0  0  0  0
  9  7  2  0  0  0  0
 10 19  1  0  0  0  0
 11  3  1  0  0  0  0
 12  1  1  0  0  0  0
 13  9  1  0  0  0  0
 14 16  1  0  0  0  0
 15 20  1  0  0  0  0
 16  7  1  0  0  0  0
 16 11  2  0  0  0  0
 17  8  1  0  0  0  0
 18 14  2  0  0  0  0
 18  6  1  0  0  0  0
 20 19  1  0  0  0  0
 21 17  1  0  0  0  0
 22 25  1  0  0  0  0
 23 12  1  0  0  0  0
 23 24  1  0  0  0  0
 25 24  1  0  0  0  0
 26 27  1  0  0  0  0
 26 22  1  0  0  0  0
 27 23  1  0  0  0  0
M  END
>  <MODEL>
7

>  <REMARK>
 VINA RESULT:      -9.6      3.284      6.355
  Name = 
  1 active torsions:
  status: ('A' for Active; 'I' for Inactive)
    1  A    between atoms: C_9  and  N_15
                            x       y       z     vdW  Elec       q    Type
                         _______ _______ _______ _____ _____    ______ ____

>  <TORSDO>
F 1

$$$$
=
 OpenBabel11052413433D

 27 30  0  0  0  0  0  0  0  0999 V2000
  184.3390  177.6540  139.0310 C   0  0  0  0  0  2  0  0  0  0  0  0
  183.6960  178.5750  141.3050 C   0  0  0  0  0  0  0  0  0  0  0  0
  186.0860  178.0860  141.1550 O   0  0  0  0  0  0  0  0  0  0  0  0
  183.9390  178.7730  145.4890 C   0  0  0  0  0  3  0  0  0  0  0  0
  185.1960  178.5640  147.5020 F   0  0  0  0  0  0  0  0  0  0  0  0
  182.5910  178.8870  142.1140 C   0  0  0  0  0  3  0  0  0  0  0  0
  186.2320  178.1360  144.0220 C   0  0  0  0  0  3  0  0  0  0  0  0
  188.3620  177.4170  139.4740 C   0  0  0  0  0  2  0  0  0  0  0  0
  186.2850  178.1880  145.4180 C   0  0  0  0  0  3  0  0  0  0  0  0
  188.2740  178.5830  138.5000 C   0  0  0  0  0  2  0  0  0  0  0  0
  184.9510  178.3570  141.9310 C   0  0  0  0  0  0  0  0  0  0  0  0
  183.5170  178.5270  139.8700 N   0  0  0  0  0  0  0  0  0  0  0  0
  185.1420  178.5110  146.1500 C   0  0  0  0  0  0  0  0  0  0  0  0
  183.8780  178.7180  144.0930 C   0  0  0  0  0  0  0  0  0  0  0  0
  185.3090  178.4700  138.1970 C   0  0  0  0  0  2  0  0  0  0  0  0
  185.0350  178.4100  143.3420 C   0  0  0  0  0  0  0  0  0  0  0  0
  188.5040  177.9070  140.9070 C   0  0  0  0  0  2  0  0  0  0  0  0
  182.7020  178.9530  143.4640 N   0  0  0  0  0  0  0  0  0  0  0  0
  187.5950  178.1620  137.1990 C   0  0  0  0  0  2  0  0  0  0  0  0
  186.2270  177.5270  137.4430 C   0  0  0  0  0  2  0  0  0  0  0  0
  187.3230  178.7650  141.3530 C   0  0  0  0  0  2  0  0  0  0  0  0
  181.1960  180.3850  136.9500 O   0  0  0  0  0  0  0  0  0  0  0  0
  182.3530  179.1930  139.2740 C   0  0  0  0  0  3  0  0  0  0  0  0
  181.7600  178.3670  138.1300 C   0  0  0  0  0  2  0  0  0  0  0  0
  180.6620  179.1820  137.4470 C   0  0  0  0  0  2  0  0  0  0  0  0
  181.4870  181.1900  138.0670 C   0  0  0  0  0  2  0  0  0  0  0  0
  182.6840  180.6180  138.8250 C   0  0  0  0  0  2  0  0  0  0  0  0
  1 12  1  0  0  0  0
  2 11  2  0  0  0  0
  2  6  1  0  0  0  0
  3 21  1  0  0  0  0
  3 11  1  0  0  0  0
  4 13  1  0  0  0  0
  6 18  2  0  0  0  0
  7  9  1  0  0  0  0
  8 17  1  0  0  0  0
  9 13  2  0  0  0  0
 10  8  1  0  0  0  0
 11 16  1  0  0  0  0
 12  2  1  0  0  0  0
 13  5  1  0  0  0  0
 14  4  2  0  0  0  0
 15  1  1  0  0  0  0
 16  7  2  0  0  0  0
 16 14  1  0  0  0  0
 17 21  1  0  0  0  0
 18 14  1  0  0  0  0
 19 20  1  0  0  0  0
 19 10  1  0  0  0  0
 20 15  1  0  0  0  0
 22 25  1  0  0  0  0
 22 26  1  0  0  0  0
 23 12  1  0  0  0  0
 24 23  1  0  0  0  0
 25 24  1  0  0  0  0
 26 27  1  0  0  0  0
 27 23  1  0  0  0  0
M  END
>  <MODEL>
8

>  <REMARK>
 VINA RESULT:      -9.3      3.862      6.723
  Name = 
  1 active torsions:
  status: ('A' for Active; 'I' for Inactive)
    1  A    between atoms: C_9  and  N_15
                            x       y       z     vdW  Elec       q    Type
                         _______ _______ _______ _____ _____    ______ ____

>  <TORSDO>
F 1

$$$$
=
 OpenBabel11052413433D

 27 30  0  0  0  0  0  0  0  0999 V2000
  187.1290  178.9470  139.8020 C   0  0  0  0  0  2  0  0  0  0  0  0
  189.0350  177.7010  140.9180 C   0  0  0  0  0  0  0  0  0  0  0  0
  187.2110  178.1730  142.4750 O   0  0  0  0  0  0  0  0  0  0  0  0
  191.6250  176.8680  144.1120 C   0  0  0  0  0  3  0  0  0  0  0  0
  192.0550  176.7510  146.4530 F   0  0  0  0  0  0  0  0  0  0  0  0
  190.3640  177.2860  140.7280 C   0  0  0  0  0  3  0  0  0  0  0  0
  189.0090  177.6870  144.6600 C   0  0  0  0  0  3  0  0  0  0  0  0
  184.4680  179.0570  142.8590 C   0  0  0  0  0  2  0  0  0  0  0  0
  189.8940  177.4230  145.7090 C   0  0  0  0  0  3  0  0  0  0  0  0
  183.7780  178.0530  141.9470 C   0  0  0  0  0  2  0  0  0  0  0  0
  188.5430  177.8040  142.2450 C   0  0  0  0  0  0  0  0  0  0  0  0
  188.2170  177.9700  139.7550 N   0  0  0  0  0  0  0  0  0  0  0  0
  191.1990  177.0090  145.4350 C   0  0  0  0  0  0  0  0  0  0  0  0
  190.7450  177.1340  143.0590 C   0  0  0  0  0  0  0  0  0  0  0  0
  185.7810  178.2530  139.7460 C   0  0  0  0  0  2  0  0  0  0  0  0
  189.4170  177.5370  143.3250 C   0  0  0  0  0  0  0  0  0  0  0  0
  185.2730  178.3530  143.9410 C   0  0  0  0  0  2  0  0  0  0  0  0
  191.1750  177.0150  141.7800 N   0  0  0  0  0  0  0  0  0  0  0  0
  183.4520  178.6760  140.5910 C   0  0  0  0  0  2  0  0  0  0  0  0
  184.6850  179.2860  139.9270 C   0  0  0  0  0  2  0  0  0  0  0  0
  186.3650  177.4540  143.3680 C   0  0  0  0  0  2  0  0  0  0  0  0
  187.9800  177.0580  135.6960 O   0  0  0  0  0  0  0  0  0  0  0  0
  188.6210  177.4190  138.4560 C   0  0  0  0  0  3  0  0  0  0  0  0
  188.8080  178.5230  137.4140 C   0  0  0  0  0  2  0  0  0  0  0  0
  189.0640  177.8800  136.0510 C   0  0  0  0  0  2  0  0  0  0  0  0
  188.0260  175.9380  136.5460 C   0  0  0  0  0  2  0  0  0  0  0  0
  187.6440  176.3460  137.9690 C   0  0  0  0  0  2  0  0  0  0  0  0
  2 11  1  0  0  0  0
  3 21  1  0  0  0  0
  4 13  2  0  0  0  0
  6  2  2  0  0  0  0
  6 18  1  0  0  0  0
  7  9  2  0  0  0  0
  8 17  1  0  0  0  0
 10  8  1  0  0  0  0
 11  3  1  0  0  0  0
 11 16  2  0  0  0  0
 12  1  1  0  0  0  0
 12  2  1  0  0  0  0
 13  9  1  0  0  0  0
 13  5  1  0  0  0  0
 14 16  1  0  0  0  0
 14  4  1  0  0  0  0
 15  1  1  0  0  0  0
 15 20  1  0  0  0  0
 16  7  1  0  0  0  0
 18 14  2  0  0  0  0
 19 10  1  0  0  0  0
 20 19  1  0  0  0  0
 21 17  1  0  0  0  0
 22 25  1  0  0  0  0
 22 26  1  0  0  0  0
 23 12  1  0  0  0  0
 24 23  1  0  0  0  0
 25 24  1  0  0  0  0
 26 27  1  0  0  0  0
 27 23  1  0  0  0  0
M  END
>  <MODEL>
9

>  <REMARK>
 VINA RESULT:      -9.2      1.489      2.026
  Name = 
  1 active torsions:
  status: ('A' for Active; 'I' for Inactive)
    1  A    between atoms: C_9  and  N_15
                            x       y       z     vdW  Elec       q    Type
                         _______ _______ _______ _____ _____    ______ ____

>  <TORSDO>
F 1

$$$$
