=
 OpenBabel11052414553D

 55 59  0  0  1  0  0  0  0  0999 V2000
  186.6950  178.3630  142.1850 C   0  0  0  0  0  2  0  0  0  0  0  0
  188.4170  177.7250  135.4350 S   0  0  0  0  0  0  0  0  0  0  0  0
  184.7060  176.3730  135.5670 O   0  0  0  0  0  0  0  0  0  0  0  0
  181.7220  174.1880  135.6050 C   0  0  0  0  0  3  0  0  0  0  0  0
  180.4900  174.0160  136.2380 C   0  0  0  0  0  3  0  0  0  0  0  0
  182.4430  175.6800  137.3890 C   0  0  0  0  0  0  0  0  0  0  0  0
  181.2040  175.4870  138.0180 C   0  0  0  0  0  3  0  0  0  0  0  0
  184.3950  174.2750  134.6670 O   0  0  0  0  0  0  0  0  0  0  0  0
  180.2300  174.6690  137.4440 C   0  0  0  0  0  3  0  0  0  0  0  0
  182.7050  175.0190  136.1600 C   0  0  0  0  0  0  0  0  0  0  0  0
  184.5360  178.0390  140.9670 C   0  0  0  0  0  2  0  0  0  0  0  0
  188.4200  179.0290  140.4690 C   0  0  0  0  0  2  0  0  0  0  0  0
  184.5660  178.1390  139.4550 C   0  0  0  0  0  2  0  0  0  0  0  0
  188.6270  179.7250  137.4100 O   0  0  0  0  0  1  0  0  0  0  0  0
  183.5070  176.4490  138.0770 C   0  0  0  0  0  3  0  0  0  0  0  0
  186.6050  177.8200  135.5490 C   0  0  0  0  0  2  0  0  0  0  0  0
  186.0080  176.5260  135.0330 C   0  0  0  0  0  2  0  0  0  0  0  0
  188.7020  177.4320  137.2320 C   0  0  1  0  0  3  0  0  0  0  0  0
  185.4950  179.0560  141.5600 C   0  0  0  0  0  2  0  0  0  0  0  0
  183.9770  175.1910  135.4280 C   0  0  0  0  0  0  0  0  0  0  0  0
  187.6810  177.8670  141.1280 C   0  0  1  0  0  3  0  0  0  0  0  0
  188.3220  178.5790  138.0700 N   0  0  0  0  0  0  0  0  0  0  0  0
  183.3440  177.5220  138.8570 C   0  0  0  0  0  0  0  0  0  0  0  0
  189.1900  178.5620  139.2390 C   0  0  0  0  0  2  0  0  0  0  0  0
  182.0080  178.1920  139.0260 C   0  0  1  0  0  3  0  0  0  0  0  0
  181.5640  180.2630  138.3410 C   0  0  1  0  0  3  0  0  0  0  0  0
  181.9950  178.9720  140.1980 O   0  0  0  0  0  0  0  0  0  0  0  0
  181.3870  180.1650  139.8210 C   0  0  0  0  0  2  0  0  0  0  0  0
  181.7010  178.9580  137.8800 O   0  0  0  0  0  0  0  0  0  0  0  0
  180.3480  180.9150  137.7060 C   0  0  0  0  0  3  0  0  0  0  0  0
  180.7290  181.4490  136.3380 C   0  0  0  0  0  2  0  0  0  0  0  0
  180.6070  182.3970  137.5140 C   0  0  0  0  0  2  0  0  0  0  0  0
  187.9530  176.1760  137.6710 C   0  0  0  0  0  2  0  0  0  0  0  0
  188.4140  174.9550  136.9030 C   0  0  0  0  0  2  0  0  0  0  0  0
  189.8530  174.6520  137.2800 C   0  0  0  0  0  2  0  0  0  0  0  0
  190.7470  174.9850  136.1750 N   0  0  0  0  0  0  0  0  0  0  0  0
  192.1150  176.3880  137.5620 C   0  0  0  0  0  2  0  0  0  0  0  0
  191.9560  175.7360  136.4100 C   0  0  0  0  0  0  0  0  0  0  0  0
  194.3210  176.4390  135.9410 C   0  0  0  0  0  2  0  0  0  0  0  0
  194.3240  174.9980  136.3920 C   0  0  1  0  0  3  0  0  0  0  0  0
  193.1720  175.5220  135.5460 C   0  0  1  0  0  3  0  0  0  0  0  0
  195.2510  174.1910  135.5080 C   0  0  0  0  0  2  0  0  0  0  0  0
  196.0300  173.2080  136.3670 C   0  0  0  0  0  2  0  0  0  0  0  0
  195.1140  172.1150  136.8980 C   0  0  0  0  0  2  0  0  0  0  0  0
  197.2990  170.7660  137.2590 C   0  0  0  0  0  1  0  0  0  0  0  0
  195.3570  170.4490  138.5430 O   0  0  0  0  0  0  0  0  0  0  0  0
  195.8880  171.0680  137.6360 C   0  0  0  0  0  0  0  0  0  0  0  0
  190.4290  174.4810  134.8410 C   0  0  0  0  0  2  0  0  0  0  0  0
  189.4120  172.1660  134.7560 C   0  0  0  0  0  1  0  0  0  0  0  0
  191.6790  172.4890  135.7480 C   0  0  0  0  0  1  0  0  0  0  0  0
  190.6930  172.9800  134.7050 C   0  0  0  0  0  3  0  0  0  0  0  0
  188.6550  176.8610  141.7410 C   0  0  0  0  0  2  0  0  0  0  0  0
  188.3980  176.6060  143.2170 C   0  0  0  0  0  2  0  0  0  0  0  0
  188.9380  177.4850  145.4620 C   0  0  0  0  0  1  0  0  0  0  0  0
  189.4590  177.2980  144.0490 C   0  0  0  0  0  2  0  0  0  0  0  0
  2 16  1  0  0  0  0
  2 18  1  0  0  0  0
  4 10  2  0  0  0  0
  4  5  1  0  0  0  0
  5  9  2  0  0  0  0
  6  7  2  0  0  0  0
  6 15  1  0  0  0  0
  8 20  2  0  0  0  0
  9  7  1  0  0  0  0
 10  6  1  0  0  0  0
 11 19  1  0  0  0  0
 12 21  1  0  0  0  0
 13 11  1  0  0  0  0
 14 22  1  0  0  0  0
 15 23  2  0  0  0  0
 17 16  1  0  0  0  0
 17  3  1  0  0  0  0
 18 33  1  1  0  0  0
 18 22  1  0  0  0  0
 19  1  1  0  0  0  0
 20  3  1  0  0  0  0
 20 10  1  0  0  0  0
 21 52  1  1  0  0  0
 21  1  1  0  0  0  0
 22 24  1  0  0  0  0
 23 13  1  0  0  0  0
 24 12  1  0  0  0  0
 25 23  1  6  0  0  0
 25 27  1  0  0  0  0
 26 30  1  6  0  0  0
 26 28  1  0  0  0  0
 28 27  1  0  0  0  0
 29 26  1  0  0  0  0
 29 25  1  0  0  0  0
 31 32  1  0  0  0  0
 31 30  1  0  0  0  0
 32 30  1  0  0  0  0
 34 35  1  0  0  0  0
 34 33  1  0  0  0  0
 36 38  1  0  0  0  0
 36 35  1  0  0  0  0
 38 37  2  0  0  0  0
 39 40  1  0  0  0  0
 40 42  1  6  0  0  0
 41 39  1  0  0  0  0
 41 40  1  0  0  0  0
 41 38  1  1  0  0  0
 42 43  1  0  0  0  0
 43 44  1  0  0  0  0
 44 47  1  0  0  0  0
 45 47  1  0  0  0  0
 47 46  2  0  0  0  0
 48 36  1  0  0  0  0
 51 49  1  0  0  0  0
 51 48  1  0  0  0  0
 51 50  1  0  0  0  0
 52 53  1  0  0  0  0
 53 55  1  0  0  0  0
 55 54  1  0  0  0  0
M  END
>  <MODEL>
1

>  <REMARK>
 VINA RESULT:      -5.9      0.000      0.000
  Name = 
  17 active torsions:
  status: ('A' for Active; 'I' for Inactive)
    1  A    between atoms: C_3  and  C_14
    2  A    between atoms: C_3  and  C_21
    3  A    between atoms: C_6  and  C_14
    4  A    between atoms: C_6  and  C_38
    5  A    between atoms: C_8  and  C_20
    6  A    between atoms: C_8  and  C_22
    7  A    between atoms: C_10  and  C_32
    8  A    between atoms: N_12  and  C_20
    9  A    between atoms: N_12  and  C_42
   10  A    between atoms: N_12  and  C_46
   11  A    between atoms: C_13  and  C_52
   12  A    between atoms: C_22  and  C_43
   13  A    between atoms: C_27  and  C_49
   14  A    between atoms: C_27  and  C_55
   15  A    between atoms: C_41  and  C_55
   16  A    between atoms: C_42  and  C_50
   17  A    between atoms: C_46  and  C_53
                            x       y       z     vdW  Elec       q    Type
                         _______ _______ _______ _____ _____    ______ ____

>  <TORSDO>
F 17

$$$$
=
 OpenBabel11052414553D

 55 59  0  0  1  0  0  0  0  0999 V2000
  186.7560  178.3880  142.2260 C   0  0  0  0  0  2  0  0  0  0  0  0
  188.7300  177.7520  135.5450 S   0  0  0  0  0  0  0  0  0  0  0  0
  184.9870  176.4860  135.5210 O   0  0  0  0  0  0  0  0  0  0  0  0
  181.9540  174.3710  135.4240 C   0  0  0  0  0  3  0  0  0  0  0  0
  180.6940  174.2250  136.0060 C   0  0  0  0  0  3  0  0  0  0  0  0
  182.6380  175.8350  137.2460 C   0  0  0  0  0  0  0  0  0  0  0  0
  181.3710  175.6670  137.8240 C   0  0  0  0  0  3  0  0  0  0  0  0
  184.6640  174.4020  134.5940 O   0  0  0  0  0  0  0  0  0  0  0  0
  180.4010  174.8760  137.2060 C   0  0  0  0  0  3  0  0  0  0  0  0
  182.9330  175.1760  136.0230 C   0  0  0  0  0  0  0  0  0  0  0  0
  184.6400  178.1220  140.9210 C   0  0  0  0  0  2  0  0  0  0  0  0
  188.5630  179.0250  140.5850 C   0  0  0  0  0  2  0  0  0  0  0  0
  184.7330  178.2310  139.4120 C   0  0  0  0  0  2  0  0  0  0  0  0
  188.9070  179.7350  137.5410 O   0  0  0  0  0  1  0  0  0  0  0  0
  183.6900  176.5750  137.9810 C   0  0  0  0  0  3  0  0  0  0  0  0
  186.9180  177.8890  135.5880 C   0  0  0  0  0  2  0  0  0  0  0  0
  186.3130  176.6130  135.0400 C   0  0  0  0  0  2  0  0  0  0  0  0
  188.9370  177.4420  137.3500 C   0  0  1  0  0  3  0  0  0  0  0  0
  185.5980  179.1130  141.5590 C   0  0  0  0  0  2  0  0  0  0  0  0
  184.2370  175.3230  135.3440 C   0  0  0  0  0  0  0  0  0  0  0  0
  187.7710  177.8760  141.2060 C   0  0  1  0  0  3  0  0  0  0  0  0
  188.5500  178.5920  138.1800 N   0  0  0  0  0  0  0  0  0  0  0  0
  183.5220  177.6460  138.7610 C   0  0  0  0  0  0  0  0  0  0  0  0
  189.3700  178.5480  139.3830 C   0  0  0  0  0  2  0  0  0  0  0  0
  182.1950  178.3470  138.8820 C   0  0  1  0  0  3  0  0  0  0  0  0
  181.5690  180.0480  137.5910 C   0  0  1  0  0  3  0  0  0  0  0  0
  182.3160  179.4890  139.6960 O   0  0  0  0  0  0  0  0  0  0  0  0
  181.6100  180.4790  139.0210 C   0  0  0  0  0  2  0  0  0  0  0  0
  181.6960  178.6630  137.6010 O   0  0  0  0  0  0  0  0  0  0  0  0
  180.2480  180.4470  136.9570 C   0  0  0  0  0  3  0  0  0  0  0  0
  180.5080  181.4830  135.8800 C   0  0  0  0  0  2  0  0  0  0  0  0
  179.9740  181.9130  137.2310 C   0  0  0  0  0  2  0  0  0  0  0  0
  188.1420  176.2010  137.7500 C   0  0  0  0  0  2  0  0  0  0  0  0
  188.6310  174.9670  137.0210 C   0  0  0  0  0  2  0  0  0  0  0  0
  190.0330  174.6360  137.5010 C   0  0  0  0  0  2  0  0  0  0  0  0
  190.9370  174.4910  136.3640 N   0  0  0  0  0  0  0  0  0  0  0  0
  190.3750  172.9580  134.6040 C   0  0  0  0  0  2  0  0  0  0  0  0
  191.0850  173.2180  135.7020 C   0  0  0  0  0  0  0  0  0  0  0  0
  192.5970  171.4020  134.8490 C   0  0  0  0  0  2  0  0  0  0  0  0
  193.4190  172.6480  135.0820 C   0  0  1  0  0  3  0  0  0  0  0  0
  192.2580  172.3240  136.0120 C   0  0  1  0  0  3  0  0  0  0  0  0
  194.7140  172.2790  135.7730 C   0  0  0  0  0  2  0  0  0  0  0  0
  195.8220  173.1950  135.2780 C   0  0  0  0  0  2  0  0  0  0  0  0
  196.2380  174.1710  136.3690 C   0  0  0  0  0  2  0  0  0  0  0  0
  198.2850  172.7510  137.0920 C   0  0  0  0  0  1  0  0  0  0  0  0
  198.4150  175.0420  136.5830 O   0  0  0  0  0  0  0  0  0  0  0  0
  197.7000  174.0570  136.6700 C   0  0  0  0  0  0  0  0  0  0  0  0
  191.6330  175.6760  135.8680 C   0  0  0  0  0  2  0  0  0  0  0  0
  193.9670  176.6190  136.1140 C   0  0  0  0  0  1  0  0  0  0  0  0
  193.0380  175.1270  137.8870 C   0  0  0  0  0  1  0  0  0  0  0  0
  192.7080  176.1720  136.8360 C   0  0  0  0  0  3  0  0  0  0  0  0
  188.6970  176.8440  141.8500 C   0  0  0  0  0  2  0  0  0  0  0  0
  188.5300  176.7530  143.3570 C   0  0  0  0  0  2  0  0  0  0  0  0
  190.9210  176.3860  143.8610 C   0  0  0  0  0  1  0  0  0  0  0  0
  189.7490  177.3330  144.0440 C   0  0  0  0  0  2  0  0  0  0  0  0
  2 16  1  0  0  0  0
  2 18  1  0  0  0  0
  4  5  2  0  0  0  0
  4 10  1  0  0  0  0
  5  9  1  0  0  0  0
  6  7  1  0  0  0  0
  6 15  1  0  0  0  0
  8 20  2  0  0  0  0
  9  7  2  0  0  0  0
 10  6  2  0  0  0  0
 11 19  1  0  0  0  0
 12 21  1  0  0  0  0
 13 11  1  0  0  0  0
 14 22  1  0  0  0  0
 15 23  2  0  0  0  0
 17  3  1  0  0  0  0
 17 16  1  0  0  0  0
 18 33  1  1  0  0  0
 18 22  1  0  0  0  0
 19  1  1  0  0  0  0
 20  3  1  0  0  0  0
 20 10  1  0  0  0  0
 21 52  1  1  0  0  0
 21  1  1  0  0  0  0
 22 24  1  0  0  0  0
 23 13  1  0  0  0  0
 24 12  1  0  0  0  0
 25 23  1  6  0  0  0
 25 27  1  0  0  0  0
 26 30  1  1  0  0  0
 26 29  1  0  0  0  0
 26 28  1  0  0  0  0
 28 27  1  0  0  0  0
 29 25  1  0  0  0  0
 30 32  1  0  0  0  0
 31 30  1  0  0  0  0
 31 32  1  0  0  0  0
 34 35  1  0  0  0  0
 34 33  1  0  0  0  0
 36 35  1  0  0  0  0
 37 38  2  0  0  0  0
 38 36  1  0  0  0  0
 39 40  1  0  0  0  0
 39 41  1  0  0  0  0
 40 42  1  1  0  0  0
 40 41  1  0  0  0  0
 41 38  1  6  0  0  0
 43 42  1  0  0  0  0
 43 44  1  0  0  0  0
 44 47  1  0  0  0  0
 46 47  2  0  0  0  0
 47 45  1  0  0  0  0
 48 36  1  0  0  0  0
 48 51  1  0  0  0  0
 49 51  1  0  0  0  0
 51 50  1  0  0  0  0
 52 53  1  0  0  0  0
 53 55  1  0  0  0  0
 54 55  1  0  0  0  0
M  END
>  <MODEL>
2

>  <REMARK>
 VINA RESULT:      -5.7      1.123      2.072
  Name = 
  17 active torsions:
  status: ('A' for Active; 'I' for Inactive)
    1  A    between atoms: C_3  and  C_14
    2  A    between atoms: C_3  and  C_21
    3  A    between atoms: C_6  and  C_14
    4  A    between atoms: C_6  and  C_38
    5  A    between atoms: C_8  and  C_20
    6  A    between atoms: C_8  and  C_22
    7  A    between atoms: C_10  and  C_32
    8  A    between atoms: N_12  and  C_20
    9  A    between atoms: N_12  and  C_42
   10  A    between atoms: N_12  and  C_46
   11  A    between atoms: C_13  and  C_52
   12  A    between atoms: C_22  and  C_43
   13  A    between atoms: C_27  and  C_49
   14  A    between atoms: C_27  and  C_55
   15  A    between atoms: C_41  and  C_55
   16  A    between atoms: C_42  and  C_50
   17  A    between atoms: C_46  and  C_53
                            x       y       z     vdW  Elec       q    Type
                         _______ _______ _______ _____ _____    ______ ____

>  <TORSDO>
F 17

$$$$
=
 OpenBabel11052414553D

 55 59  0  0  1  0  0  0  0  0999 V2000
  186.4670  178.3590  142.3070 C   0  0  0  0  0  2  0  0  0  0  0  0
  188.4700  177.7460  135.6320 S   0  0  0  0  0  0  0  0  0  0  0  0
  184.6770  176.6400  135.5570 O   0  0  0  0  0  0  0  0  0  0  0  0
  181.5590  174.6570  135.4020 C   0  0  0  0  0  3  0  0  0  0  0  0
  180.2890  174.5550  135.9720 C   0  0  0  0  0  3  0  0  0  0  0  0
  182.2880  176.0620  137.2530 C   0  0  0  0  0  0  0  0  0  0  0  0
  181.0100  175.9390  137.8180 C   0  0  0  0  0  3  0  0  0  0  0  0
  184.2750  174.5860  134.5940 O   0  0  0  0  0  0  0  0  0  0  0  0
  180.0140  175.1990  137.1790 C   0  0  0  0  0  3  0  0  0  0  0  0
  182.5660  175.4100  136.0220 C   0  0  0  0  0  0  0  0  0  0  0  0
  184.3540  178.2040  140.9800 C   0  0  0  0  0  2  0  0  0  0  0  0
  188.3130  178.9450  140.6910 C   0  0  0  0  0  2  0  0  0  0  0  0
  184.4630  178.3320  139.4740 C   0  0  0  0  0  2  0  0  0  0  0  0
  188.7140  179.6870  137.6610 O   0  0  0  0  0  1  0  0  0  0  0  0
  183.3650  176.7440  138.0080 C   0  0  0  0  0  3  0  0  0  0  0  0
  186.6650  177.9590  135.6620 C   0  0  0  0  0  2  0  0  0  0  0  0
  186.0120  176.7180  135.0890 C   0  0  0  0  0  2  0  0  0  0  0  0
  188.6480  177.3980  137.4330 C   0  0  1  0  0  3  0  0  0  0  0  0
  185.3470  179.1430  141.6420 C   0  0  0  0  0  2  0  0  0  0  0  0
  183.8810  175.5120  135.3550 C   0  0  0  0  0  0  0  0  0  0  0  0
  187.4690  177.8200  141.2860 C   0  0  1  0  0  3  0  0  0  0  0  0
  188.3030  178.5500  138.2790 N   0  0  0  0  0  0  0  0  0  0  0  0
  183.2350  177.8100  138.8040 C   0  0  0  0  0  0  0  0  0  0  0  0
  189.1100  178.4530  139.4870 C   0  0  0  0  0  2  0  0  0  0  0  0
  181.9380  178.5640  138.9260 C   0  0  1  0  0  3  0  0  0  0  0  0
  181.5240  180.4940  137.8970 C   0  0  1  0  0  3  0  0  0  0  0  0
  182.0330  179.5440  139.9320 O   0  0  0  0  0  0  0  0  0  0  0  0
  181.4450  180.6760  139.3780 C   0  0  0  0  0  2  0  0  0  0  0  0
  181.5830  179.1210  137.6790 O   0  0  0  0  0  0  0  0  0  0  0  0
  180.2930  181.0760  137.2260 C   0  0  0  0  0  3  0  0  0  0  0  0
  180.7110  182.2390  136.3470 C   0  0  0  0  0  2  0  0  0  0  0  0
  180.0820  182.5010  137.7000 C   0  0  0  0  0  2  0  0  0  0  0  0
  187.7990  176.1860  137.8070 C   0  0  0  0  0  2  0  0  0  0  0  0
  188.6060  174.9060  137.7660 C   0  0  0  0  0  2  0  0  0  0  0  0
  189.2260  174.7590  136.3870 C   0  0  0  0  0  2  0  0  0  0  0  0
  190.4200  173.9220  136.4550 N   0  0  0  0  0  0  0  0  0  0  0  0
  191.7500  172.1400  135.5490 C   0  0  0  0  0  2  0  0  0  0  0  0
  190.6470  172.8880  135.4760 C   0  0  0  0  0  0  0  0  0  0  0  0
  189.4020  170.8870  134.6050 C   0  0  0  0  0  2  0  0  0  0  0  0
  188.4580  171.7200  135.4400 C   0  0  1  0  0  3  0  0  0  0  0  0
  189.5240  172.4040  134.5950 C   0  0  1  0  0  3  0  0  0  0  0  0
  187.1250  171.8380  134.7330 C   0  0  0  0  0  2  0  0  0  0  0  0
  186.0140  171.8980  135.7700 C   0  0  0  0  0  2  0  0  0  0  0  0
  184.7790  171.1590  135.2750 C   0  0  0  0  0  2  0  0  0  0  0  0
  182.2360  171.1940  135.7880 C   0  0  0  0  0  1  0  0  0  0  0  0
  183.8920  171.4390  137.4380 O   0  0  0  0  0  0  0  0  0  0  0  0
  183.6520  171.2720  136.2540 C   0  0  0  0  0  0  0  0  0  0  0  0
  191.4120  174.2010  137.4900 C   0  0  0  0  0  2  0  0  0  0  0  0
  193.8980  174.5830  137.2210 C   0  0  0  0  0  1  0  0  0  0  0  0
  192.3850  176.5190  137.6600 C   0  0  0  0  0  1  0  0  0  0  0  0
  192.5070  175.1550  137.0090 C   0  0  0  0  0  3  0  0  0  0  0  0
  188.3450  176.7400  141.9200 C   0  0  0  0  0  2  0  0  0  0  0  0
  188.4510  176.8710  143.4310 C   0  0  0  0  0  2  0  0  0  0  0  0
  189.7850  177.8300  145.2770 C   0  0  0  0  0  1  0  0  0  0  0  0
  189.5200  177.8850  143.7830 C   0  0  0  0  0  2  0  0  0  0  0  0
  2 16  1  0  0  0  0
  2 18  1  0  0  0  0
  4  5  2  0  0  0  0
  4 10  1  0  0  0  0
  5  9  1  0  0  0  0
  6  7  1  0  0  0  0
  6 15  1  0  0  0  0
  8 20  2  0  0  0  0
  9  7  2  0  0  0  0
 10  6  2  0  0  0  0
 11 19  1  0  0  0  0
 12 21  1  0  0  0  0
 13 11  1  0  0  0  0
 14 22  1  0  0  0  0
 15 23  2  0  0  0  0
 17  3  1  0  0  0  0
 17 16  1  0  0  0  0
 18 33  1  1  0  0  0
 18 22  1  0  0  0  0
 19  1  1  0  0  0  0
 20  3  1  0  0  0  0
 20 10  1  0  0  0  0
 21 52  1  1  0  0  0
 21  1  1  0  0  0  0
 22 24  1  0  0  0  0
 23 13  1  0  0  0  0
 24 12  1  0  0  0  0
 25 23  1  6  0  0  0
 25 27  1  0  0  0  0
 26 30  1  6  0  0  0
 26 28  1  0  0  0  0
 28 27  1  0  0  0  0
 29 26  1  0  0  0  0
 29 25  1  0  0  0  0
 30 32  1  0  0  0  0
 31 30  1  0  0  0  0
 31 32  1  0  0  0  0
 34 33  1  0  0  0  0
 35 36  1  0  0  0  0
 35 34  1  0  0  0  0
 36 48  1  0  0  0  0
 38 37  2  0  0  0  0
 38 36  1  0  0  0  0
 39 40  1  0  0  0  0
 40 42  1  6  0  0  0
 41 39  1  0  0  0  0
 41 40  1  0  0  0  0
 41 38  1  1  0  0  0
 42 43  1  0  0  0  0
 44 43  1  0  0  0  0
 44 47  1  0  0  0  0
 45 47  1  0  0  0  0
 47 46  2  0  0  0  0
 51 49  1  0  0  0  0
 51 48  1  0  0  0  0
 51 50  1  0  0  0  0
 52 53  1  0  0  0  0
 53 55  1  0  0  0  0
 55 54  1  0  0  0  0
M  END
>  <MODEL>
3

>  <REMARK>
 VINA RESULT:      -5.6      1.987      4.356
  Name = 
  17 active torsions:
  status: ('A' for Active; 'I' for Inactive)
    1  A    between atoms: C_3  and  C_14
    2  A    between atoms: C_3  and  C_21
    3  A    between atoms: C_6  and  C_14
    4  A    between atoms: C_6  and  C_38
    5  A    between atoms: C_8  and  C_20
    6  A    between atoms: C_8  and  C_22
    7  A    between atoms: C_10  and  C_32
    8  A    between atoms: N_12  and  C_20
    9  A    between atoms: N_12  and  C_42
   10  A    between atoms: N_12  and  C_46
   11  A    between atoms: C_13  and  C_52
   12  A    between atoms: C_22  and  C_43
   13  A    between atoms: C_27  and  C_49
   14  A    between atoms: C_27  and  C_55
   15  A    between atoms: C_41  and  C_55
   16  A    between atoms: C_42  and  C_50
   17  A    between atoms: C_46  and  C_53
                            x       y       z     vdW  Elec       q    Type
                         _______ _______ _______ _____ _____    ______ ____

>  <TORSDO>
F 17

$$$$
=
 OpenBabel11052414553D

 55 59  0  0  1  0  0  0  0  0999 V2000
  186.3510  178.5180  142.1930 C   0  0  0  0  0  2  0  0  0  0  0  0
  188.1400  177.4950  135.5080 S   0  0  0  0  0  0  0  0  0  0  0  0
  184.4180  176.1760  135.6740 O   0  0  0  0  0  0  0  0  0  0  0  0
  181.4180  174.0170  135.8000 C   0  0  0  0  0  3  0  0  0  0  0  0
  180.1790  173.8890  136.4280 C   0  0  0  0  0  3  0  0  0  0  0  0
  182.1320  175.6010  137.5060 C   0  0  0  0  0  0  0  0  0  0  0  0
  180.8850  175.4520  138.1310 C   0  0  0  0  0  3  0  0  0  0  0  0
  184.1020  174.0340  134.8890 O   0  0  0  0  0  0  0  0  0  0  0  0
  179.9110  174.6100  137.5930 C   0  0  0  0  0  3  0  0  0  0  0  0
  182.4010  174.8710  136.3190 C   0  0  0  0  0  0  0  0  0  0  0  0
  184.2030  178.1420  140.9710 C   0  0  0  0  0  2  0  0  0  0  0  0
  188.0990  179.0770  140.4620 C   0  0  0  0  0  2  0  0  0  0  0  0
  184.2500  178.1570  139.4560 C   0  0  0  0  0  2  0  0  0  0  0  0
  188.3430  179.6000  137.3700 O   0  0  0  0  0  1  0  0  0  0  0  0
  183.1930  176.4000  138.1620 C   0  0  0  0  0  3  0  0  0  0  0  0
  186.3280  177.6080  135.5960 C   0  0  0  0  0  2  0  0  0  0  0  0
  185.7280  176.2920  135.1470 C   0  0  0  0  0  2  0  0  0  0  0  0
  188.4040  177.3000  137.3210 C   0  0  1  0  0  3  0  0  0  0  0  0
  185.1630  179.1840  141.5170 C   0  0  0  0  0  2  0  0  0  0  0  0
  183.6830  174.9930  135.5920 C   0  0  0  0  0  0  0  0  0  0  0  0
  187.3450  177.9580  141.1760 C   0  0  1  0  0  3  0  0  0  0  0  0
  188.0240  178.4940  138.0900 N   0  0  0  0  0  0  0  0  0  0  0  0
  183.0300  177.5160  138.8790 C   0  0  0  0  0  0  0  0  0  0  0  0
  188.8790  178.5370  139.2680 C   0  0  0  0  0  2  0  0  0  0  0  0
  181.6970  178.2030  138.9970 C   0  0  1  0  0  3  0  0  0  0  0  0
  181.3670  180.3560  138.5370 C   0  0  1  0  0  3  0  0  0  0  0  0
  181.5780  178.8320  140.2500 O   0  0  0  0  0  0  0  0  0  0  0  0
  181.0360  180.0820  139.9670 C   0  0  0  0  0  2  0  0  0  0  0  0
  181.5260  179.1140  137.9320 O   0  0  0  0  0  0  0  0  0  0  0  0
  180.2370  181.1200  137.8700 C   0  0  0  0  0  3  0  0  0  0  0  0
  180.6980  182.5370  137.5830 C   0  0  0  0  0  2  0  0  0  0  0  0
  179.7940  182.2600  138.7680 C   0  0  0  0  0  2  0  0  0  0  0  0
  187.6420  176.0750  137.8210 C   0  0  0  0  0  2  0  0  0  0  0  0
  187.9570  174.8470  136.9940 C   0  0  0  0  0  2  0  0  0  0  0  0
  189.2930  174.2820  137.4430 C   0  0  0  0  0  2  0  0  0  0  0  0
  190.1020  173.9130  136.2850 N   0  0  0  0  0  0  0  0  0  0  0  0
  192.2100  172.8430  135.8650 C   0  0  0  0  0  2  0  0  0  0  0  0
  191.5400  173.8790  136.3740 C   0  0  0  0  0  0  0  0  0  0  0  0
  191.4660  176.3800  136.5880 C   0  0  0  0  0  2  0  0  0  0  0  0
  191.7300  175.7850  137.9510 C   0  0  1  0  0  3  0  0  0  0  0  0
  192.3180  175.1250  136.7110 C   0  0  1  0  0  3  0  0  0  0  0  0
  192.8200  176.5720  138.6470 C   0  0  0  0  0  2  0  0  0  0  0  0
  192.1880  177.4940  139.6780 C   0  0  0  0  0  2  0  0  0  0  0  0
  192.8940  177.3630  141.0200 C   0  0  0  0  0  2  0  0  0  0  0  0
  191.9000  176.1190  143.0670 C   0  0  0  0  0  1  0  0  0  0  0  0
  191.1040  178.1940  142.3030 O   0  0  0  0  0  0  0  0  0  0  0  0
  191.9100  177.2920  142.1460 C   0  0  0  0  0  0  0  0  0  0  0  0
  189.4210  173.5090  135.0560 C   0  0  0  0  0  2  0  0  0  0  0  0
  189.4660  171.0230  134.5960 C   0  0  0  0  0  1  0  0  0  0  0  0
  187.2870  172.2390  134.6250 C   0  0  0  0  0  1  0  0  0  0  0  0
  188.6870  172.1750  135.2050 C   0  0  0  0  0  3  0  0  0  0  0  0
  188.3050  176.9820  141.8540 C   0  0  0  0  0  2  0  0  0  0  0  0
  187.8270  176.5300  143.2240 C   0  0  0  0  0  2  0  0  0  0  0  0
  188.8500  178.1090  144.8250 C   0  0  0  0  0  1  0  0  0  0  0  0
  188.9360  176.7120  144.2400 C   0  0  0  0  0  2  0  0  0  0  0  0
  2 16  1  0  0  0  0
  2 18  1  0  0  0  0
  4 10  2  0  0  0  0
  4  5  1  0  0  0  0
  5  9  2  0  0  0  0
  6  7  2  0  0  0  0
  6 15  1  0  0  0  0
  8 20  2  0  0  0  0
  9  7  1  0  0  0  0
 10  6  1  0  0  0  0
 11 19  1  0  0  0  0
 12 21  1  0  0  0  0
 13 11  1  0  0  0  0
 14 22  1  0  0  0  0
 15 23  2  0  0  0  0
 17 16  1  0  0  0  0
 17  3  1  0  0  0  0
 18 33  1  1  0  0  0
 18 22  1  0  0  0  0
 19  1  1  0  0  0  0
 20  3  1  0  0  0  0
 20 10  1  0  0  0  0
 21 52  1  1  0  0  0
 21  1  1  0  0  0  0
 22 24  1  0  0  0  0
 23 13  1  0  0  0  0
 24 12  1  0  0  0  0
 25 23  1  1  0  0  0
 25 27  1  0  0  0  0
 26 30  1  6  0  0  0
 26 28  1  0  0  0  0
 28 27  1  0  0  0  0
 29 26  1  0  0  0  0
 29 25  1  0  0  0  0
 30 32  1  0  0  0  0
 31 30  1  0  0  0  0
 31 32  1  0  0  0  0
 34 35  1  0  0  0  0
 34 33  1  0  0  0  0
 36 38  1  0  0  0  0
 36 35  1  0  0  0  0
 37 38  2  0  0  0  0
 39 41  1  0  0  0  0
 39 40  1  0  0  0  0
 40 42  1  1  0  0  0
 41 38  1  6  0  0  0
 41 40  1  0  0  0  0
 42 43  1  0  0  0  0
 43 44  1  0  0  0  0
 44 47  1  0  0  0  0
 47 46  2  0  0  0  0
 47 45  1  0  0  0  0
 48 51  1  0  0  0  0
 48 36  1  0  0  0  0
 49 51  1  0  0  0  0
 50 51  1  0  0  0  0
 52 53  1  0  0  0  0
 53 55  1  0  0  0  0
 55 54  1  0  0  0  0
M  END
>  <MODEL>
4

>  <REMARK>
 VINA RESULT:      -5.1      1.954      2.877
  Name = 
  17 active torsions:
  status: ('A' for Active; 'I' for Inactive)
    1  A    between atoms: C_3  and  C_14
    2  A    between atoms: C_3  and  C_21
    3  A    between atoms: C_6  and  C_14
    4  A    between atoms: C_6  and  C_38
    5  A    between atoms: C_8  and  C_20
    6  A    between atoms: C_8  and  C_22
    7  A    between atoms: C_10  and  C_32
    8  A    between atoms: N_12  and  C_20
    9  A    between atoms: N_12  and  C_42
   10  A    between atoms: N_12  and  C_46
   11  A    between atoms: C_13  and  C_52
   12  A    between atoms: C_22  and  C_43
   13  A    between atoms: C_27  and  C_49
   14  A    between atoms: C_27  and  C_55
   15  A    between atoms: C_41  and  C_55
   16  A    between atoms: C_42  and  C_50
   17  A    between atoms: C_46  and  C_53
                            x       y       z     vdW  Elec       q    Type
                         _______ _______ _______ _____ _____    ______ ____

>  <TORSDO>
F 17

$$$$
=
 OpenBabel11052414553D

 55 59  0  0  1  0  0  0  0  0999 V2000
  187.2090  172.6660  135.3670 C   0  0  0  0  0  2  0  0  0  0  0  0
  183.5830  178.4260  136.9850 S   0  0  0  0  0  0  0  0  0  0  0  0
  186.6910  178.5830  139.4210 O   0  0  0  0  0  0  0  0  0  0  0  0
  188.8810  178.4310  142.3980 C   0  0  0  0  0  3  0  0  0  0  0  0
  190.1480  178.0210  142.8130 C   0  0  0  0  0  3  0  0  0  0  0  0
  189.1020  177.0990  140.3710 C   0  0  0  0  0  0  0  0  0  0  0  0
  190.3700  176.6880  140.8090 C   0  0  0  0  0  3  0  0  0  0  0  0
  186.1740  178.8250  141.6530 O   0  0  0  0  0  0  0  0  0  0  0  0
  190.8950  177.1520  142.0160 C   0  0  0  0  0  3  0  0  0  0  0  0
  188.3460  177.9880  141.1800 C   0  0  0  0  0  0  0  0  0  0  0  0
  188.7810  174.1080  136.6700 C   0  0  0  0  0  2  0  0  0  0  0  0
  185.3170  174.1450  134.5940 C   0  0  0  0  0  2  0  0  0  0  0  0
  188.3620  175.5420  136.9290 C   0  0  0  0  0  2  0  0  0  0  0  0
  184.4640  177.1720  134.6190 O   0  0  0  0  0  1  0  0  0  0  0  0
  188.5130  176.4980  139.1520 C   0  0  0  0  0  3  0  0  0  0  0  0
  185.3140  178.6930  137.4730 C   0  0  0  0  0  2  0  0  0  0  0  0
  185.3800  178.8820  138.9750 C   0  0  0  0  0  2  0  0  0  0  0  0
  183.7390  176.6080  136.7290 C   0  0  1  0  0  3  0  0  0  0  0  0
  188.3280  173.6920  135.2820 C   0  0  0  0  0  2  0  0  0  0  0  0
  187.0130  178.4820  140.7750 C   0  0  0  0  0  0  0  0  0  0  0  0
  185.8750  173.3090  135.7430 C   0  0  1  0  0  3  0  0  0  0  0  0
  184.6250  176.2570  135.6090 N   0  0  0  0  0  0  0  0  0  0  0  0
  189.1620  176.1370  138.0410 C   0  0  0  0  0  0  0  0  0  0  0  0
  184.1420  174.9990  135.0570 C   0  0  0  0  0  2  0  0  0  0  0  0
  190.6210  176.4420  137.8330 C   0  0  1  0  0  3  0  0  0  0  0  0
  191.8350  175.6130  136.1620 C   0  0  1  0  0  3  0  0  0  0  0  0
  191.4190  175.4420  138.4200 O   0  0  0  0  0  0  0  0  0  0  0  0
  192.4020  175.1740  137.4720 C   0  0  0  0  0  2  0  0  0  0  0  0
  190.8930  176.5930  136.4570 O   0  0  0  0  0  0  0  0  0  0  0  0
  192.9290  176.1890  135.2800 C   0  0  0  0  0  3  0  0  0  0  0  0
  193.8260  175.0630  134.8030 C   0  0  0  0  0  2  0  0  0  0  0  0
  194.2790  175.9660  135.9330 C   0  0  0  0  0  2  0  0  0  0  0  0
  184.2200  175.9480  138.0190 C   0  0  0  0  0  2  0  0  0  0  0  0
  183.0620  175.4350  138.8480 C   0  0  0  0  0  2  0  0  0  0  0  0
  182.4780  176.5890  139.6450 C   0  0  0  0  0  2  0  0  0  0  0  0
  181.0200  176.5540  139.5930 N   0  0  0  0  0  0  0  0  0  0  0  0
  179.0450  176.5920  140.9590 C   0  0  0  0  0  2  0  0  0  0  0  0
  180.2340  177.1200  140.6620 C   0  0  0  0  0  0  0  0  0  0  0  0
  180.0890  179.3620  141.7840 C   0  0  0  0  0  2  0  0  0  0  0  0
  179.9060  178.2850  142.8270 C   0  0  1  0  0  3  0  0  0  0  0  0
  180.8610  178.0550  141.6630 C   0  0  1  0  0  3  0  0  0  0  0  0
  180.7160  178.6290  144.0600 C   0  0  0  0  0  2  0  0  0  0  0  0
  182.1610  178.8750  143.6550 C   0  0  0  0  0  2  0  0  0  0  0  0
  183.0240  179.1360  144.8810 C   0  0  0  0  0  2  0  0  0  0  0  0
  185.5490  179.2860  145.4570 C   0  0  0  0  0  1  0  0  0  0  0  0
  184.6840  177.8720  143.7900 O   0  0  0  0  0  0  0  0  0  0  0  0
  184.4380  178.7010  144.6510 C   0  0  0  0  0  0  0  0  0  0  0  0
  180.3750  175.9980  138.4060 C   0  0  0  0  0  2  0  0  0  0  0  0
  180.2240  176.8900  136.0440 C   0  0  0  0  0  1  0  0  0  0  0  0
  180.1700  178.4730  137.9730 C   0  0  0  0  0  1  0  0  0  0  0  0
  179.8030  177.0820  137.4900 C   0  0  0  0  0  3  0  0  0  0  0  0
  184.8780  172.2400  136.1910 C   0  0  0  0  0  2  0  0  0  0  0  0
  185.2980  170.8330  135.7990 C   0  0  0  0  0  2  0  0  0  0  0  0
  182.9000  170.7280  135.2150 C   0  0  0  0  0  1  0  0  0  0  0  0
  184.0810  169.9330  135.7400 C   0  0  0  0  0  2  0  0  0  0  0  0
  1 21  1  0  0  0  0
  2 16  1  0  0  0  0
  3 20  1  0  0  0  0
  4  5  1  0  0  0  0
  6  7  2  0  0  0  0
  6 10  1  0  0  0  0
  7  9  1  0  0  0  0
  9  5  2  0  0  0  0
 10  4  2  0  0  0  0
 11 13  1  0  0  0  0
 12 24  1  0  0  0  0
 12 21  1  0  0  0  0
 13 23  1  0  0  0  0
 14 22  1  0  0  0  0
 15  6  1  0  0  0  0
 16 17  1  0  0  0  0
 17  3  1  0  0  0  0
 18  2  1  0  0  0  0
 18 33  1  1  0  0  0
 19  1  1  0  0  0  0
 19 11  1  0  0  0  0
 20 10  1  0  0  0  0
 20  8  2  0  0  0  0
 21 52  1  6  0  0  0
 22 18  1  0  0  0  0
 23 15  2  0  0  0  0
 24 22  1  0  0  0  0
 25 23  1  6  0  0  0
 25 27  1  0  0  0  0
 26 30  1  6  0  0  0
 26 29  1  0  0  0  0
 26 28  1  0  0  0  0
 28 27  1  0  0  0  0
 29 25  1  0  0  0  0
 30 32  1  0  0  0  0
 31 30  1  0  0  0  0
 31 32  1  0  0  0  0
 33 34  1  0  0  0  0
 34 35  1  0  0  0  0
 36 35  1  0  0  0  0
 36 38  1  0  0  0  0
 38 37  2  0  0  0  0
 39 40  1  0  0  0  0
 40 42  1  1  0  0  0
 41 38  1  6  0  0  0
 41 39  1  0  0  0  0
 41 40  1  0  0  0  0
 43 42  1  0  0  0  0
 43 44  1  0  0  0  0
 46 47  2  0  0  0  0
 47 44  1  0  0  0  0
 47 45  1  0  0  0  0
 48 36  1  0  0  0  0
 49 51  1  0  0  0  0
 51 50  1  0  0  0  0
 51 48  1  0  0  0  0
 53 52  1  0  0  0  0
 54 55  1  0  0  0  0
 55 53  1  0  0  0  0
M  END
>  <MODEL>
5

>  <REMARK>
 VINA RESULT:      -4.3      2.950     10.810
  Name = 
  17 active torsions:
  status: ('A' for Active; 'I' for Inactive)
    1  A    between atoms: C_3  and  C_14
    2  A    between atoms: C_3  and  C_21
    3  A    between atoms: C_6  and  C_14
    4  A    between atoms: C_6  and  C_38
    5  A    between atoms: C_8  and  C_20
    6  A    between atoms: C_8  and  C_22
    7  A    between atoms: C_10  and  C_32
    8  A    between atoms: N_12  and  C_20
    9  A    between atoms: N_12  and  C_42
   10  A    between atoms: N_12  and  C_46
   11  A    between atoms: C_13  and  C_52
   12  A    between atoms: C_22  and  C_43
   13  A    between atoms: C_27  and  C_49
   14  A    between atoms: C_27  and  C_55
   15  A    between atoms: C_41  and  C_55
   16  A    between atoms: C_42  and  C_50
   17  A    between atoms: C_46  and  C_53
                            x       y       z     vdW  Elec       q    Type
                         _______ _______ _______ _____ _____    ______ ____

>  <TORSDO>
F 17

$$$$
=
 OpenBabel11052414553D

 55 59  0  0  1  0  0  0  0  0999 V2000
  185.2370  178.2970  142.0530 C   0  0  0  0  0  2  0  0  0  0  0  0
  188.1740  177.7540  135.7270 S   0  0  0  0  0  0  0  0  0  0  0  0
  184.9640  175.4660  135.4480 O   0  0  0  0  0  0  0  0  0  0  0  0
  182.6740  172.5670  135.2660 C   0  0  0  0  0  3  0  0  0  0  0  0
  181.4390  172.1090  135.7250 C   0  0  0  0  0  3  0  0  0  0  0  0
  182.6810  174.2990  136.9780 C   0  0  0  0  0  0  0  0  0  0  0  0
  181.4440  173.8180  137.4340 C   0  0  0  0  0  3  0  0  0  0  0  0
  185.3550  173.3140  134.7270 O   0  0  0  0  0  0  0  0  0  0  0  0
  180.8220  172.7370  136.8080 C   0  0  0  0  0  3  0  0  0  0  0  0
  183.3050  173.6630  135.8730 C   0  0  0  0  0  0  0  0  0  0  0  0
  183.4690  177.3370  140.5690 C   0  0  0  0  0  2  0  0  0  0  0  0
  186.9980  179.3020  140.5510 C   0  0  0  0  0  2  0  0  0  0  0  0
  183.7270  177.3530  139.0760 C   0  0  0  0  0  2  0  0  0  0  0  0
  187.5320  179.8480  137.5000 O   0  0  0  0  0  1  0  0  0  0  0  0
  183.3810  175.3630  137.7340 C   0  0  0  0  0  3  0  0  0  0  0  0
  186.4060  177.3670  135.5630 C   0  0  0  0  0  2  0  0  0  0  0  0
  186.2550  175.9320  135.0980 C   0  0  0  0  0  2  0  0  0  0  0  0
  188.2190  177.6530  137.5660 C   0  0  1  0  0  3  0  0  0  0  0  0
  184.0230  178.6060  141.1920 C   0  0  0  0  0  2  0  0  0  0  0  0
  184.5960  174.1260  135.3220 C   0  0  0  0  0  0  0  0  0  0  0  0
  186.4800  178.0240  141.2070 C   0  0  1  0  0  3  0  0  0  0  0  0
  187.4230  178.7030  138.2200 N   0  0  0  0  0  0  0  0  0  0  0  0
  182.8210  176.3970  138.3700 C   0  0  0  0  0  0  0  0  0  0  0  0
  188.0570  178.9870  139.5000 C   0  0  0  0  0  2  0  0  0  0  0  0
  181.3490  176.6930  138.2730 C   0  0  1  0  0  3  0  0  0  0  0  0
  180.4240  178.6090  138.9280 C   0  0  1  0  0  3  0  0  0  0  0  0
  180.7080  176.3940  139.4890 O   0  0  0  0  0  0  0  0  0  0  0  0
  179.8580  177.4720  139.7140 C   0  0  0  0  0  2  0  0  0  0  0  0
  181.1500  178.0370  137.8880 O   0  0  0  0  0  0  0  0  0  0  0  0
  179.3070  179.4740  138.3700 C   0  0  0  0  0  3  0  0  0  0  0  0
  179.4250  179.5200  136.8590 C   0  0  0  0  0  2  0  0  0  0  0  0
  179.9000  180.6940  137.6910 C   0  0  0  0  0  2  0  0  0  0  0  0
  187.7530  176.2700  138.0150 C   0  0  0  0  0  2  0  0  0  0  0  0
  188.8190  175.2210  137.7830 C   0  0  0  0  0  2  0  0  0  0  0  0
  190.0120  175.8730  137.1070 C   0  0  0  0  0  2  0  0  0  0  0  0
  191.2500  175.4840  137.7770 N   0  0  0  0  0  0  0  0  0  0  0  0
  193.1790  176.7600  138.4180 C   0  0  0  0  0  2  0  0  0  0  0  0
  191.9200  176.3970  138.6690 C   0  0  0  0  0  0  0  0  0  0  0  0
  190.3660  176.3290  140.6410 C   0  0  0  0  0  2  0  0  0  0  0  0
  191.6680  176.9600  141.0720 C   0  0  1  0  0  3  0  0  0  0  0  0
  191.1360  177.2090  139.6680 C   0  0  1  0  0  3  0  0  0  0  0  0
  191.3840  178.1790  141.9240 C   0  0  0  0  0  2  0  0  0  0  0  0
  191.9550  177.9580  143.3160 C   0  0  0  0  0  2  0  0  0  0  0  0
  191.4980  176.6200  143.8780 C   0  0  0  0  0  2  0  0  0  0  0  0
  192.0670  175.3420  146.0620 C   0  0  0  0  0  1  0  0  0  0  0  0
  191.3450  177.5780  146.0220 O   0  0  0  0  0  0  0  0  0  0  0  0
  191.6220  176.5860  145.3690 C   0  0  0  0  0  0  0  0  0  0  0  0
  191.7540  174.1260  137.5800 C   0  0  0  0  0  2  0  0  0  0  0  0
  192.1140  175.0100  135.2380 C   0  0  0  0  0  1  0  0  0  0  0  0
  190.7700  172.9360  135.5890 C   0  0  0  0  0  1  0  0  0  0  0  0
  191.9260  173.7750  136.1010 C   0  0  0  0  0  3  0  0  0  0  0  0
  187.5620  177.3530  142.0540 C   0  0  0  0  0  2  0  0  0  0  0  0
  188.1590  178.2800  143.1000 C   0  0  0  0  0  2  0  0  0  0  0  0
  186.7960  177.0920  144.7830 C   0  0  0  0  0  1  0  0  0  0  0  0
  188.1920  177.5830  144.4440 C   0  0  0  0  0  2  0  0  0  0  0  0
  2 18  1  0  0  0  0
  4  5  2  0  0  0  0
  4 10  1  0  0  0  0
  5  9  1  0  0  0  0
  6  7  1  0  0  0  0
  6 15  1  0  0  0  0
  8 20  2  0  0  0  0
  9  7  2  0  0  0  0
 10  6  2  0  0  0  0
 11 19  1  0  0  0  0
 12 21  1  0  0  0  0
 13 11  1  0  0  0  0
 14 22  1  0  0  0  0
 15 23  2  0  0  0  0
 16  2  1  0  0  0  0
 17  3  1  0  0  0  0
 17 16  1  0  0  0  0
 18 33  1  6  0  0  0
 18 22  1  0  0  0  0
 19  1  1  0  0  0  0
 20  3  1  0  0  0  0
 20 10  1  0  0  0  0
 21  1  1  0  0  0  0
 21 52  1  1  0  0  0
 22 24  1  0  0  0  0
 23 13  1  0  0  0  0
 24 12  1  0  0  0  0
 25 23  1  1  0  0  0
 25 27  1  0  0  0  0
 26 30  1  6  0  0  0
 26 28  1  0  0  0  0
 27 28  1  0  0  0  0
 29 25  1  0  0  0  0
 29 26  1  0  0  0  0
 31 32  1  0  0  0  0
 31 30  1  0  0  0  0
 32 30  1  0  0  0  0
 34 33  1  0  0  0  0
 35 36  1  0  0  0  0
 35 34  1  0  0  0  0
 36 38  1  0  0  0  0
 37 38  2  0  0  0  0
 39 40  1  0  0  0  0
 40 42  1  1  0  0  0
 41 38  1  6  0  0  0
 41 39  1  0  0  0  0
 41 40  1  0  0  0  0
 42 43  1  0  0  0  0
 43 44  1  0  0  0  0
 44 47  1  0  0  0  0
 47 46  2  0  0  0  0
 47 45  1  0  0  0  0
 48 36  1  0  0  0  0
 49 51  1  0  0  0  0
 50 51  1  0  0  0  0
 51 48  1  0  0  0  0
 52 53  1  0  0  0  0
 53 55  1  0  0  0  0
 55 54  1  0  0  0  0
M  END
>  <MODEL>
6

>  <REMARK>
 VINA RESULT:      -3.6      2.414      3.890
  Name = 
  17 active torsions:
  status: ('A' for Active; 'I' for Inactive)
    1  A    between atoms: C_3  and  C_14
    2  A    between atoms: C_3  and  C_21
    3  A    between atoms: C_6  and  C_14
    4  A    between atoms: C_6  and  C_38
    5  A    between atoms: C_8  and  C_20
    6  A    between atoms: C_8  and  C_22
    7  A    between atoms: C_10  and  C_32
    8  A    between atoms: N_12  and  C_20
    9  A    between atoms: N_12  and  C_42
   10  A    between atoms: N_12  and  C_46
   11  A    between atoms: C_13  and  C_52
   12  A    between atoms: C_22  and  C_43
   13  A    between atoms: C_27  and  C_49
   14  A    between atoms: C_27  and  C_55
   15  A    between atoms: C_41  and  C_55
   16  A    between atoms: C_42  and  C_50
   17  A    between atoms: C_46  and  C_53
                            x       y       z     vdW  Elec       q    Type
                         _______ _______ _______ _____ _____    ______ ____

>  <TORSDO>
F 17

$$$$
=
 OpenBabel11052414553D

 55 59  0  0  1  0  0  0  0  0999 V2000
  186.9580  177.9520  142.8400 C   0  0  0  0  0  2  0  0  0  0  0  0
  188.2130  178.0770  135.9590 S   0  0  0  0  0  0  0  0  0  0  0  0
  184.4490  176.8950  136.1840 O   0  0  0  0  0  0  0  0  0  0  0  0
  181.3570  174.8660  136.1640 C   0  0  0  0  0  3  0  0  0  0  0  0
  180.1600  174.6750  136.8560 C   0  0  0  0  0  3  0  0  0  0  0  0
  182.2710  176.0890  138.0610 C   0  0  0  0  0  0  0  0  0  0  0  0
  181.0650  175.8780  138.7470 C   0  0  0  0  0  3  0  0  0  0  0  0
  183.9670  174.9430  135.0610 O   0  0  0  0  0  0  0  0  0  0  0  0
  180.0130  175.1850  138.1470 C   0  0  0  0  0  3  0  0  0  0  0  0
  182.4180  175.5750  136.7460 C   0  0  0  0  0  0  0  0  0  0  0  0
  184.7130  177.8850  141.7440 C   0  0  0  0  0  2  0  0  0  0  0  0
  188.6060  178.7450  141.1020 C   0  0  0  0  0  2  0  0  0  0  0  0
  184.6530  178.1700  140.2560 C   0  0  0  0  0  2  0  0  0  0  0  0
  188.6580  179.8050  138.1410 O   0  0  0  0  0  1  0  0  0  0  0  0
  183.4170  176.7160  138.7610 C   0  0  0  0  0  3  0  0  0  0  0  0
  186.4210  178.2430  136.2090 C   0  0  0  0  0  2  0  0  0  0  0  0
  185.7220  177.0530  135.5830 C   0  0  0  0  0  2  0  0  0  0  0  0
  188.5950  177.5500  137.6830 C   0  0  1  0  0  3  0  0  0  0  0  0
  185.7620  178.7740  142.3870 C   0  0  0  0  0  2  0  0  0  0  0  0
  183.6490  175.7760  135.9540 C   0  0  0  0  0  0  0  0  0  0  0  0
  187.8470  177.5460  141.6650 C   0  0  1  0  0  3  0  0  0  0  0  0
  188.3320  178.6010  138.6780 N   0  0  0  0  0  0  0  0  0  0  0  0
  183.3630  177.6900  139.6740 C   0  0  0  0  0  0  0  0  0  0  0  0
  189.2700  178.3980  139.7730 C   0  0  0  0  0  2  0  0  0  0  0  0
  182.0790  178.3970  140.0160 C   0  0  1  0  0  3  0  0  0  0  0  0
  181.3980  178.7940  142.0980 C   0  0  1  0  0  3  0  0  0  0  0  0
  181.0530  177.4630  140.2510 O   0  0  0  0  0  0  0  0  0  0  0  0
  180.4060  177.9290  141.3910 C   0  0  0  0  0  2  0  0  0  0  0  0
  182.2760  179.2530  141.1210 O   0  0  0  0  0  0  0  0  0  0  0  0
  180.6980  179.9670  142.7610 C   0  0  0  0  0  3  0  0  0  0  0  0
  179.9560  179.4720  143.9880 C   0  0  0  0  0  2  0  0  0  0  0  0
  179.1960  179.7590  142.7080 C   0  0  0  0  0  2  0  0  0  0  0  0
  187.8070  176.2860  138.0180 C   0  0  0  0  0  2  0  0  0  0  0  0
  187.7840  175.3190  136.8540 C   0  0  0  0  0  2  0  0  0  0  0  0
  189.2120  174.9460  136.4960 C   0  0  0  0  0  2  0  0  0  0  0  0
  189.2370  173.6830  135.7650 N   0  0  0  0  0  0  0  0  0  0  0  0
  190.6370  172.0910  134.6360 C   0  0  0  0  0  2  0  0  0  0  0  0
  190.4530  172.9130  135.6710 C   0  0  0  0  0  0  0  0  0  0  0  0
  192.9480  172.7430  135.9100 C   0  0  0  0  0  2  0  0  0  0  0  0
  192.5750  174.1960  135.7380 C   0  0  1  0  0  3  0  0  0  0  0  0
  191.6520  173.2660  136.5130 C   0  0  1  0  0  3  0  0  0  0  0  0
  193.3560  175.0400  136.7230 C   0  0  0  0  0  2  0  0  0  0  0  0
  194.2770  174.1400  137.5320 C   0  0  0  0  0  2  0  0  0  0  0  0
  194.9220  174.9160  138.6710 C   0  0  0  0  0  2  0  0  0  0  0  0
  197.0170  174.8720  140.1980 C   0  0  0  0  0  1  0  0  0  0  0  0
  196.4570  173.1320  138.7220 O   0  0  0  0  0  0  0  0  0  0  0  0
  196.1530  174.2250  139.1690 C   0  0  0  0  0  0  0  0  0  0  0  0
  187.9900  173.1810  135.1920 C   0  0  0  0  0  2  0  0  0  0  0  0
  186.8070  170.9620  134.9170 C   0  0  0  0  0  1  0  0  0  0  0  0
  186.5980  172.2230  137.0610 C   0  0  0  0  0  1  0  0  0  0  0  0
  187.5000  171.9070  135.8830 C   0  0  0  0  0  3  0  0  0  0  0  0
  188.8010  176.4270  142.0830 C   0  0  0  0  0  2  0  0  0  0  0  0
  189.2320  176.5240  143.5370 C   0  0  0  0  0  2  0  0  0  0  0  0
  191.1440  176.8260  145.0720 C   0  0  0  0  0  1  0  0  0  0  0  0
  190.7320  176.7220  143.6150 C   0  0  0  0  0  2  0  0  0  0  0  0
  2 16  1  0  0  0  0
  2 18  1  0  0  0  0
  4 10  2  0  0  0  0
  4  5  1  0  0  0  0
  5  9  2  0  0  0  0
  6  7  2  0  0  0  0
  6 15  1  0  0  0  0
  8 20  2  0  0  0  0
  9  7  1  0  0  0  0
 10  6  1  0  0  0  0
 11 19  1  0  0  0  0
 12 21  1  0  0  0  0
 13 11  1  0  0  0  0
 14 22  1  0  0  0  0
 15 23  2  0  0  0  0
 17  3  1  0  0  0  0
 17 16  1  0  0  0  0
 18 33  1  1  0  0  0
 18 22  1  0  0  0  0
 19  1  1  0  0  0  0
 20  3  1  0  0  0  0
 20 10  1  0  0  0  0
 21 52  1  1  0  0  0
 21  1  1  0  0  0  0
 22 24  1  0  0  0  0
 23 13  1  0  0  0  0
 24 12  1  0  0  0  0
 25 23  1  1  0  0  0
 25 27  1  0  0  0  0
 25 29  1  0  0  0  0
 26 30  1  6  0  0  0
 27 28  1  0  0  0  0
 28 26  1  0  0  0  0
 29 26  1  0  0  0  0
 30 31  1  0  0  0  0
 32 30  1  0  0  0  0
 32 31  1  0  0  0  0
 34 33  1  0  0  0  0
 35 34  1  0  0  0  0
 36 35  1  0  0  0  0
 37 38  2  0  0  0  0
 38 36  1  0  0  0  0
 39 41  1  0  0  0  0
 40 39  1  0  0  0  0
 40 41  1  0  0  0  0
 40 42  1  1  0  0  0
 41 38  1  6  0  0  0
 42 43  1  0  0  0  0
 43 44  1  0  0  0  0
 44 47  1  0  0  0  0
 46 47  2  0  0  0  0
 47 45  1  0  0  0  0
 48 36  1  0  0  0  0
 48 51  1  0  0  0  0
 49 51  1  0  0  0  0
 51 50  1  0  0  0  0
 52 53  1  0  0  0  0
 53 55  1  0  0  0  0
 55 54  1  0  0  0  0
M  END
>  <MODEL>
7

>  <REMARK>
 VINA RESULT:      -3.5      1.828      2.656
  Name = 
  17 active torsions:
  status: ('A' for Active; 'I' for Inactive)
    1  A    between atoms: C_3  and  C_14
    2  A    between atoms: C_3  and  C_21
    3  A    between atoms: C_6  and  C_14
    4  A    between atoms: C_6  and  C_38
    5  A    between atoms: C_8  and  C_20
    6  A    between atoms: C_8  and  C_22
    7  A    between atoms: C_10  and  C_32
    8  A    between atoms: N_12  and  C_20
    9  A    between atoms: N_12  and  C_42
   10  A    between atoms: N_12  and  C_46
   11  A    between atoms: C_13  and  C_52
   12  A    between atoms: C_22  and  C_43
   13  A    between atoms: C_27  and  C_49
   14  A    between atoms: C_27  and  C_55
   15  A    between atoms: C_41  and  C_55
   16  A    between atoms: C_42  and  C_50
   17  A    between atoms: C_46  and  C_53
                            x       y       z     vdW  Elec       q    Type
                         _______ _______ _______ _____ _____    ______ ____

>  <TORSDO>
F 17

$$$$
