=
 OpenBabel11052413573D

 34 38  0  0  1  0  0  0  0  0999 V2000
  191.6780  175.5280  137.0260 C   0  0  0  0  0  0  0  0  0  0  0  0
  192.8860  176.5240  138.8500 C   0  0  0  0  0  0  0  0  0  0  0  0
  190.5990  177.0630  138.8260 C   0  0  0  0  0  2  0  0  0  0  0  0
  192.7390  177.3910  140.0350 C   0  0  0  0  0  2  0  0  0  0  0  0
  192.8850  174.9240  136.5960 C   0  0  0  0  0  0  0  0  0  0  0  0
  194.0410  175.9460  138.4470 N   0  0  0  0  0  0  0  0  0  0  0  0
  194.0830  175.1420  137.3440 C   0  0  0  0  0  0  0  0  0  0  0  0
  191.2470  177.7490  140.0370 C   0  0  2  0  0  3  0  0  0  0  0  0
  191.7150  176.3330  138.1770 C   0  0  0  0  0  0  0  0  0  0  0  0
  189.6550  176.5280  136.0500 N   0  0  0  0  0  0  0  0  0  0  0  0
  189.4190  174.4610  136.9920 C   0  0  0  0  0  0  0  0  0  0  0  0
  188.4650  176.3960  136.5490 C   0  0  0  0  0  0  0  0  0  0  0  0
  188.1920  175.1460  137.1720 N   0  0  0  0  0  2  0  0  0  0  0  0
  190.4000  175.2920  136.2510 C   0  0  2  0  0  3  0  0  0  0  0  0
  187.5080  177.4460  136.5030 N   0  0  0  0  0  1  0  0  0  0  0  0
  189.6210  173.2860  137.3950 O   0  0  0  0  0  0  0  0  0  0  0  0
  197.4440  174.5030  135.6920 C   0  0  0  0  0  0  0  0  0  0  0  0
  197.7870  173.2940  136.2980 C   0  0  0  0  0  3  0  0  0  0  0  0
  195.3900  174.5390  136.9820 C   0  0  0  0  0  0  0  0  0  0  0  0
  196.9510  172.7280  137.2070 N   0  0  0  0  0  0  0  0  0  0  0  0
  196.2410  175.1200  136.0320 C   0  0  0  0  0  3  0  0  0  0  0  0
  195.7730  173.3160  137.5530 C   0  0  0  0  0  3  0  0  0  0  0  0
  198.3500  175.1260  134.6930 C   0  0  0  0  0  1  0  0  0  0  0  0
  190.1140  176.8560  142.2840 C   0  0  0  0  0  0  0  0  0  0  0  0
  190.6230  177.2580  141.2680 C   0  0  0  0  0  0  0  0  0  0  0  0
  191.3160  176.6750  145.2370 C   0  0  0  0  0  1  0  0  0  0  0  0
  189.5010  176.3690  143.5230 C   0  0  1  0  0  3  0  0  0  0  0  0
  189.9960  177.2120  144.7170 C   0  0  1  0  0  3  0  0  0  0  0  0
  187.6950  177.3880  145.5640 C   0  0  0  0  0  3  0  0  0  0  0  0
  187.2490  177.4230  144.1330 C   0  0  0  0  0  2  0  0  0  0  0  0
  187.9690  176.3180  143.3570 C   0  0  0  0  0  2  0  0  0  0  0  0
  188.9970  177.2760  145.8400 C   0  0  0  0  0  3  0  0  0  0  0  0
  192.6490  172.6640  135.6140 C   0  0  0  0  0  1  0  0  0  0  0  0
  192.8930  174.1330  135.3200 C   0  0  0  0  0  2  0  0  0  0  0  0
  1  9  1  0  0  0  0
  2  4  1  0  0  0  0
  3  8  1  0  0  0  0
  4  8  1  0  0  0  0
  5  1  2  0  0  0  0
  5  7  1  0  0  0  0
  6  2  1  0  0  0  0
  7  6  2  0  0  0  0
  8 25  1  1  0  0  0
  9  3  1  0  0  0  0
  9  2  2  0  0  0  0
 10 14  1  0  0  0  0
 10 12  2  0  0  0  0
 11 13  1  0  0  0  0
 11 16  2  0  0  0  0
 12 13  1  0  0  0  0
 14 11  1  0  0  0  0
 14  1  1  1  0  0  0
 15 12  1  0  0  0  0
 17 21  2  0  0  0  0
 17 18  1  0  0  0  0
 18 20  2  0  0  0  0
 19  7  1  0  0  0  0
 19 22  2  0  0  0  0
 20 22  1  0  0  0  0
 21 19  1  0  0  0  0
 23 17  1  0  0  0  0
 25 24  3  0  0  0  0
 27 24  1  6  0  0  0
 27 28  1  0  0  0  0
 28 26  1  1  0  0  0
 28 32  1  0  0  0  0
 29 32  2  0  0  0  0
 30 29  1  0  0  0  0
 31 27  1  0  0  0  0
 31 30  1  0  0  0  0
 34 33  1  0  0  0  0
 34  5  1  0  0  0  0
M  END
>  <MODEL>
1

>  <REMARK>
 VINA RESULT:      -8.2      0.000      0.000
  Name = 
  5 active torsions:
  status: ('A' for Active; 'I' for Inactive)
    1  A    between atoms: C_3  and  C_13
    2  A    between atoms: C_4  and  C_15
    3  A    between atoms: C_12  and  C_28
    4  A    between atoms: C_17  and  C_29
    5  A    between atoms: C_21  and  C_32
                            x       y       z     vdW  Elec       q    Type
                         _______ _______ _______ _____ _____    ______ ____

>  <TORSDO>
F 5

$$$$
=
 OpenBabel11052413573D

 34 38  0  0  1  0  0  0  0  0999 V2000
  188.1720  176.9750  137.8600 C   0  0  0  0  0  0  0  0  0  0  0  0
  189.8280  176.8720  139.5980 C   0  0  0  0  0  0  0  0  0  0  0  0
  188.1020  178.4060  140.0290 C   0  0  0  0  0  2  0  0  0  0  0  0
  190.2020  177.4280  140.9140 C   0  0  0  0  0  2  0  0  0  0  0  0
  188.8970  175.9860  137.1510 C   0  0  0  0  0  0  0  0  0  0  0  0
  190.5230  175.9240  138.9290 N   0  0  0  0  0  0  0  0  0  0  0  0
  190.0940  175.4530  137.7210 C   0  0  0  0  0  0  0  0  0  0  0  0
  189.0790  178.4310  141.2130 C   0  0  2  0  0  3  0  0  0  0  0  0
  188.6730  177.3990  139.1010 C   0  0  0  0  0  0  0  0  0  0  0  0
  186.5260  178.8010  137.8960 N   0  0  0  0  0  0  0  0  0  0  0  0
  185.7060  176.6950  137.5640 C   0  0  0  0  0  0  0  0  0  0  0  0
  185.3360  178.6980  138.4020 C   0  0  0  0  0  0  0  0  0  0  0  0
  184.7140  177.4260  138.2630 N   0  0  0  0  0  2  0  0  0  0  0  0
  186.8940  177.5360  137.2740 C   0  0  2  0  0  3  0  0  0  0  0  0
  184.7090  179.7800  139.0790 N   0  0  0  0  0  1  0  0  0  0  0  0
  185.5660  175.4930  137.2190 O   0  0  0  0  0  0  0  0  0  0  0  0
  193.0470  173.4300  136.4450 C   0  0  0  0  0  0  0  0  0  0  0  0
  192.3720  172.4420  135.7260 C   0  0  0  0  0  3  0  0  0  0  0  0
  190.9120  174.4030  137.0620 C   0  0  0  0  0  0  0  0  0  0  0  0
  191.0150  172.4470  135.6740 N   0  0  0  0  0  0  0  0  0  0  0  0
  192.3130  174.4130  137.1070 C   0  0  0  0  0  3  0  0  0  0  0  0
  190.2810  173.3970  136.3150 C   0  0  0  0  0  3  0  0  0  0  0  0
  194.5310  173.4350  136.5020 C   0  0  0  0  0  1  0  0  0  0  0  0
  187.8030  177.7080  143.4440 C   0  0  0  0  0  0  0  0  0  0  0  0
  188.3770  178.0350  142.4350 C   0  0  0  0  0  0  0  0  0  0  0  0
  188.9870  176.9360  146.3070 C   0  0  0  0  0  1  0  0  0  0  0  0
  187.1120  177.3070  144.6730 C   0  0  1  0  0  3  0  0  0  0  0  0
  187.8620  177.8670  145.9000 C   0  0  1  0  0  3  0  0  0  0  0  0
  185.7330  178.6130  146.8770 C   0  0  0  0  0  3  0  0  0  0  0  0
  185.2750  178.8980  145.4780 C   0  0  0  0  0  2  0  0  0  0  0  0
  185.6250  177.7070  144.5840 C   0  0  0  0  0  2  0  0  0  0  0  0
  186.9550  178.1130  147.0750 C   0  0  0  0  0  3  0  0  0  0  0  0
  189.0230  176.5040  134.7330 C   0  0  0  0  0  1  0  0  0  0  0  0
  188.4340  175.5790  135.7830 C   0  0  0  0  0  2  0  0  0  0  0  0
  1  9  1  0  0  0  0
  2  4  1  0  0  0  0
  3  8  1  0  0  0  0
  4  8  1  0  0  0  0
  5  7  1  0  0  0  0
  5  1  2  0  0  0  0
  6  2  1  0  0  0  0
  7  6  2  0  0  0  0
  8 25  1  1  0  0  0
  9  2  2  0  0  0  0
  9  3  1  0  0  0  0
 10 12  2  0  0  0  0
 11 13  1  0  0  0  0
 12 15  1  0  0  0  0
 13 12  1  0  0  0  0
 14 11  1  0  0  0  0
 14  1  1  1  0  0  0
 14 10  1  0  0  0  0
 16 11  2  0  0  0  0
 17 23  1  0  0  0  0
 17 21  1  0  0  0  0
 18 17  2  0  0  0  0
 19 21  2  0  0  0  0
 19  7  1  0  0  0  0
 20 18  1  0  0  0  0
 20 22  2  0  0  0  0
 22 19  1  0  0  0  0
 25 24  3  0  0  0  0
 27 24  1  6  0  0  0
 27 28  1  0  0  0  0
 28 26  1  1  0  0  0
 28 32  1  0  0  0  0
 29 32  2  0  0  0  0
 30 29  1  0  0  0  0
 31 27  1  0  0  0  0
 31 30  1  0  0  0  0
 33 34  1  0  0  0  0
 34  5  1  0  0  0  0
M  END
>  <MODEL>
2

>  <REMARK>
 VINA RESULT:      -8.2      2.439      3.967
  Name = 
  5 active torsions:
  status: ('A' for Active; 'I' for Inactive)
    1  A    between atoms: C_3  and  C_13
    2  A    between atoms: C_4  and  C_15
    3  A    between atoms: C_12  and  C_28
    4  A    between atoms: C_17  and  C_29
    5  A    between atoms: C_21  and  C_32
                            x       y       z     vdW  Elec       q    Type
                         _______ _______ _______ _____ _____    ______ ____

>  <TORSDO>
F 5

$$$$
=
 OpenBabel11052413573D

 34 38  0  0  1  0  0  0  0  0999 V2000
  188.1280  178.2720  141.8340 C   0  0  0  0  0  0  0  0  0  0  0  0
  185.9580  178.3390  142.8650 C   0  0  0  0  0  0  0  0  0  0  0  0
  185.9120  178.7030  140.5450 C   0  0  0  0  0  2  0  0  0  0  0  0
  184.5200  178.5270  142.5890 C   0  0  0  0  0  2  0  0  0  0  0  0
  188.6910  178.0110  143.1070 C   0  0  0  0  0  0  0  0  0  0  0  0
  186.4900  178.0850  144.0830 N   0  0  0  0  0  0  0  0  0  0  0  0
  187.8330  177.9080  144.2450 C   0  0  0  0  0  0  0  0  0  0  0  0
  184.4710  178.7610  141.0730 C   0  0  2  0  0  3  0  0  0  0  0  0
  186.7350  178.4310  141.7480 C   0  0  0  0  0  0  0  0  0  0  0  0
  188.3620  179.0450  139.5110 N   0  0  0  0  0  0  0  0  0  0  0  0
  189.3360  177.0430  140.0240 C   0  0  0  0  0  0  0  0  0  0  0  0
  188.3460  178.2610  138.4790 C   0  0  0  0  0  0  0  0  0  0  0  0
  188.9230  176.9740  138.6710 N   0  0  0  0  0  2  0  0  0  0  0  0
  189.0240  178.3680  140.6190 C   0  0  2  0  0  3  0  0  0  0  0  0
  187.7580  178.6520  137.2450 N   0  0  0  0  0  1  0  0  0  0  0  0
  189.9170  176.0990  140.6210 O   0  0  0  0  0  0  0  0  0  0  0  0
  190.0140  176.7850  147.1470 C   0  0  0  0  0  0  0  0  0  0  0  0
  189.1480  177.0310  148.2120 C   0  0  0  0  0  3  0  0  0  0  0  0
  188.3290  177.6210  145.6150 C   0  0  0  0  0  0  0  0  0  0  0  0
  187.9120  177.5460  147.9780 N   0  0  0  0  0  0  0  0  0  0  0  0
  189.5990  177.0750  145.8480 C   0  0  0  0  0  3  0  0  0  0  0  0
  187.4890  177.8360  146.7180 C   0  0  0  0  0  3  0  0  0  0  0  0
  191.3650  176.2170  147.3930 C   0  0  0  0  0  1  0  0  0  0  0  0
  183.0220  176.8400  139.9150 C   0  0  0  0  0  0  0  0  0  0  0  0
  183.6750  177.7100  140.4370 C   0  0  0  0  0  0  0  0  0  0  0  0
  179.9280  176.1160  140.2330 C   0  0  0  0  0  1  0  0  0  0  0  0
  182.2320  175.7790  139.2850 C   0  0  1  0  0  3  0  0  0  0  0  0
  180.8020  176.2860  139.0060 C   0  0  1  0  0  3  0  0  0  0  0  0
  180.8900  175.3300  136.7420 C   0  0  0  0  0  3  0  0  0  0  0  0
  182.3470  175.6840  136.7290 C   0  0  0  0  0  2  0  0  0  0  0  0
  182.9820  175.2420  138.0480 C   0  0  0  0  0  2  0  0  0  0  0  0
  180.1610  175.6050  137.8270 C   0  0  0  0  0  3  0  0  0  0  0  0
  190.7510  179.2750  143.6450 C   0  0  0  0  0  1  0  0  0  0  0  0
  190.1840  177.9260  143.2430 C   0  0  0  0  0  2  0  0  0  0  0  0
  1  5  1  0  0  0  0
  2  6  2  0  0  0  0
  3  8  1  0  0  0  0
  3  9  1  0  0  0  0
  4  2  1  0  0  0  0
  5 34  1  0  0  0  0
  5  7  2  0  0  0  0
  6  7  1  0  0  0  0
  7 19  1  0  0  0  0
  8 25  1  6  0  0  0
  8  4  1  0  0  0  0
  9  1  2  0  0  0  0
  9  2  1  0  0  0  0
 10 14  1  0  0  0  0
 11 14  1  0  0  0  0
 11 16  2  0  0  0  0
 12 13  1  0  0  0  0
 12 10  2  0  0  0  0
 13 11  1  0  0  0  0
 14  1  1  1  0  0  0
 15 12  1  0  0  0  0
 17 23  1  0  0  0  0
 17 18  1  0  0  0  0
 19 21  1  0  0  0  0
 19 22  2  0  0  0  0
 20 18  2  0  0  0  0
 21 17  2  0  0  0  0
 22 20  1  0  0  0  0
 24 25  3  0  0  0  0
 27 24  1  6  0  0  0
 28 27  1  0  0  0  0
 28 26  1  1  0  0  0
 29 32  2  0  0  0  0
 30 29  1  0  0  0  0
 30 31  1  0  0  0  0
 31 27  1  0  0  0  0
 32 28  1  0  0  0  0
 34 33  1  0  0  0  0
M  END
>  <MODEL>
3

>  <REMARK>
 VINA RESULT:      -7.8      5.157      9.427
  Name = 
  5 active torsions:
  status: ('A' for Active; 'I' for Inactive)
    1  A    between atoms: C_3  and  C_13
    2  A    between atoms: C_4  and  C_15
    3  A    between atoms: C_12  and  C_28
    4  A    between atoms: C_17  and  C_29
    5  A    between atoms: C_21  and  C_32
                            x       y       z     vdW  Elec       q    Type
                         _______ _______ _______ _____ _____    ______ ____

>  <TORSDO>
F 5

$$$$
=
 OpenBabel11052413573D

 34 38  0  0  1  0  0  0  0  0999 V2000
  190.1340  176.2350  137.2000 C   0  0  0  0  0  0  0  0  0  0  0  0
  191.6270  176.7630  139.0090 C   0  0  0  0  0  0  0  0  0  0  0  0
  189.4940  177.7230  139.2330 C   0  0  0  0  0  2  0  0  0  0  0  0
  191.7280  177.4970  140.2860 C   0  0  0  0  0  2  0  0  0  0  0  0
  191.1690  175.4680  136.6100 C   0  0  0  0  0  0  0  0  0  0  0  0
  192.6170  176.0280  138.4530 N   0  0  0  0  0  0  0  0  0  0  0  0
  192.4300  175.3660  137.2740 C   0  0  0  0  0  0  0  0  0  0  0  0
  190.3390  178.1280  140.4500 C   0  0  2  0  0  3  0  0  0  0  0  0
  190.4020  176.8770  138.4210 C   0  0  0  0  0  0  0  0  0  0  0  0
  188.1980  177.6600  136.6820 N   0  0  0  0  0  0  0  0  0  0  0  0
  187.7580  175.4630  137.1300 C   0  0  0  0  0  0  0  0  0  0  0  0
  187.0360  177.5410  137.2460 C   0  0  0  0  0  0  0  0  0  0  0  0
  186.6440  176.2140  137.5800 N   0  0  0  0  0  2  0  0  0  0  0  0
  188.7890  176.3380  136.5160 C   0  0  2  0  0  3  0  0  0  0  0  0
  186.2220  178.6690  137.5390 N   0  0  0  0  0  1  0  0  0  0  0  0
  187.8330  174.2100  137.2240 O   0  0  0  0  0  0  0  0  0  0  0  0
  194.8800  172.5360  136.6180 C   0  0  0  0  0  0  0  0  0  0  0  0
  195.7760  173.1830  135.7650 C   0  0  0  0  0  3  0  0  0  0  0  0
  193.5680  174.5730  136.7420 C   0  0  0  0  0  0  0  0  0  0  0  0
  195.5730  174.4820  135.4250 N   0  0  0  0  0  0  0  0  0  0  0  0
  193.7800  173.2370  137.1100 C   0  0  0  0  0  3  0  0  0  0  0  0
  194.5040  175.1820  135.8940 C   0  0  0  0  0  3  0  0  0  0  0  0
  195.0970  171.1170  136.9990 C   0  0  0  0  0  1  0  0  0  0  0  0
  189.1860  177.2050  142.6750 C   0  0  0  0  0  0  0  0  0  0  0  0
  189.7090  177.6220  141.6720 C   0  0  0  0  0  0  0  0  0  0  0  0
  190.3800  176.7830  145.6060 C   0  0  0  0  0  1  0  0  0  0  0  0
  188.5430  176.7000  143.8910 C   0  0  1  0  0  3  0  0  0  0  0  0
  189.1010  177.4400  145.1240 C   0  0  1  0  0  3  0  0  0  0  0  0
  186.8210  177.7380  145.9940 C   0  0  0  0  0  3  0  0  0  0  0  0
  186.3750  177.8800  144.5700 C   0  0  0  0  0  2  0  0  0  0  0  0
  187.0100  176.7680  143.7330 C   0  0  0  0  0  2  0  0  0  0  0  0
  188.1120  177.5170  146.2550 C   0  0  0  0  0  3  0  0  0  0  0  0
  190.5440  173.3890  135.4210 C   0  0  0  0  0  1  0  0  0  0  0  0
  190.9410  174.8450  135.2640 C   0  0  0  0  0  2  0  0  0  0  0  0
  1  9  1  0  0  0  0
  2  4  1  0  0  0  0
  3  8  1  0  0  0  0
  4  8  1  0  0  0  0
  5  1  2  0  0  0  0
  5  7  1  0  0  0  0
  6  2  1  0  0  0  0
  7  6  2  0  0  0  0
  8 25  1  1  0  0  0
  9  2  2  0  0  0  0
  9  3  1  0  0  0  0
 10 12  2  0  0  0  0
 11 16  2  0  0  0  0
 11 13  1  0  0  0  0
 12 15  1  0  0  0  0
 12 13  1  0  0  0  0
 14 10  1  0  0  0  0
 14 11  1  0  0  0  0
 14  1  1  1  0  0  0
 17 23  1  0  0  0  0
 17 21  1  0  0  0  0
 18 17  2  0  0  0  0
 19 21  2  0  0  0  0
 19  7  1  0  0  0  0
 20 18  1  0  0  0  0
 20 22  2  0  0  0  0
 22 19  1  0  0  0  0
 25 24  3  0  0  0  0
 27 24  1  6  0  0  0
 27 28  1  0  0  0  0
 28 26  1  1  0  0  0
 28 32  1  0  0  0  0
 29 32  2  0  0  0  0
 30 29  1  0  0  0  0
 31 27  1  0  0  0  0
 31 30  1  0  0  0  0
 34 33  1  0  0  0  0
 34  5  1  0  0  0  0
M  END
>  <MODEL>
4

>  <REMARK>
 VINA RESULT:      -7.4      1.494      2.051
  Name = 
  5 active torsions:
  status: ('A' for Active; 'I' for Inactive)
    1  A    between atoms: C_3  and  C_13
    2  A    between atoms: C_4  and  C_15
    3  A    between atoms: C_12  and  C_28
    4  A    between atoms: C_17  and  C_29
    5  A    between atoms: C_21  and  C_32
                            x       y       z     vdW  Elec       q    Type
                         _______ _______ _______ _____ _____    ______ ____

>  <TORSDO>
F 5

$$$$
=
 OpenBabel11052413573D

 34 38  0  0  1  0  0  0  0  0999 V2000
  187.5470  178.0480  141.8860 C   0  0  0  0  0  0  0  0  0  0  0  0
  187.7890  178.3430  139.5130 C   0  0  0  0  0  0  0  0  0  0  0  0
  189.7930  177.7830  140.6040 C   0  0  0  0  0  2  0  0  0  0  0  0
  188.7670  178.3020  138.4070 C   0  0  0  0  0  2  0  0  0  0  0  0
  186.1670  178.3390  141.7510 C   0  0  0  0  0  0  0  0  0  0  0  0
  186.4710  178.6170  139.3770 N   0  0  0  0  0  0  0  0  0  0  0  0
  185.6340  178.6170  140.4540 C   0  0  0  0  0  0  0  0  0  0  0  0
  190.0830  177.9310  139.1040 C   0  0  2  0  0  3  0  0  0  0  0  0
  188.3400  178.0570  140.7270 C   0  0  0  0  0  0  0  0  0  0  0  0
  189.2770  178.5700  143.5530 N   0  0  0  0  0  0  0  0  0  0  0  0
  188.6970  176.3710  143.3390 C   0  0  0  0  0  0  0  0  0  0  0  0
  190.2970  177.8100  143.8050 C   0  0  0  0  0  0  0  0  0  0  0  0
  190.0660  176.4100  143.7010 N   0  0  0  0  0  2  0  0  0  0  0  0
  188.1200  177.7360  143.2510 C   0  0  2  0  0  3  0  0  0  0  0  0
  191.5730  178.3460  144.1310 N   0  0  0  0  0  1  0  0  0  0  0  0
  188.0610  175.3020  143.1460 O   0  0  0  0  0  0  0  0  0  0  0  0
  181.8390  178.5780  140.6620 C   0  0  0  0  0  0  0  0  0  0  0  0
  181.5300  179.4680  139.6320 C   0  0  0  0  0  3  0  0  0  0  0  0
  184.1990  178.9150  140.2110 C   0  0  0  0  0  0  0  0  0  0  0  0
  182.5270  180.0490  138.9150 N   0  0  0  0  0  0  0  0  0  0  0  0
  183.1760  178.2990  140.9440 C   0  0  0  0  0  3  0  0  0  0  0  0
  183.8370  179.7910  139.1770 C   0  0  0  0  0  3  0  0  0  0  0  0
  180.7560  177.9330  141.4470 C   0  0  0  0  0  1  0  0  0  0  0  0
  190.9940  175.6160  138.1340 C   0  0  0  0  0  0  0  0  0  0  0  0
  190.5810  176.6600  138.5740 C   0  0  0  0  0  0  0  0  0  0  0  0
  189.4520  173.2730  136.6100 C   0  0  0  0  0  1  0  0  0  0  0  0
  191.4990  174.3510  137.5940 C   0  0  1  0  0  3  0  0  0  0  0  0
  190.7440  173.9990  136.2950 C   0  0  1  0  0  3  0  0  0  0  0  0
  192.8720  173.4420  135.1950 C   0  0  0  0  0  3  0  0  0  0  0  0
  193.4920  174.5460  135.9990 C   0  0  0  0  0  2  0  0  0  0  0  0
  193.0330  174.4240  137.4530 C   0  0  0  0  0  2  0  0  0  0  0  0
  191.5710  173.1760  135.3450 C   0  0  0  0  0  3  0  0  0  0  0  0
  185.2230  179.8620  143.4590 C   0  0  0  0  0  1  0  0  0  0  0  0
  185.3130  178.4240  142.9820 C   0  0  0  0  0  2  0  0  0  0  0  0
  2  9  1  0  0  0  0
  3  9  1  0  0  0  0
  4  8  1  0  0  0  0
  4  2  1  0  0  0  0
  5  1  1  0  0  0  0
  5 34  1  0  0  0  0
  6  2  2  0  0  0  0
  6  7  1  0  0  0  0
  7  5  2  0  0  0  0
  8 25  1  6  0  0  0
  8  3  1  0  0  0  0
  9  1  2  0  0  0  0
 10 12  2  0  0  0  0
 11 13  1  0  0  0  0
 12 15  1  0  0  0  0
 13 12  1  0  0  0  0
 14  1  1  6  0  0  0
 14 11  1  0  0  0  0
 14 10  1  0  0  0  0
 16 11  2  0  0  0  0
 17 21  1  0  0  0  0
 17 23  1  0  0  0  0
 18 17  2  0  0  0  0
 19  7  1  0  0  0  0
 19 21  2  0  0  0  0
 20 22  2  0  0  0  0
 20 18  1  0  0  0  0
 22 19  1  0  0  0  0
 24 25  3  0  0  0  0
 27 24  1  6  0  0  0
 28 26  1  1  0  0  0
 28 27  1  0  0  0  0
 29 32  2  0  0  0  0
 29 30  1  0  0  0  0
 30 31  1  0  0  0  0
 31 27  1  0  0  0  0
 32 28  1  0  0  0  0
 34 33  1  0  0  0  0
M  END
>  <MODEL>
5

>  <REMARK>
 VINA RESULT:      -7.2      4.049     10.189
  Name = 
  5 active torsions:
  status: ('A' for Active; 'I' for Inactive)
    1  A    between atoms: C_3  and  C_13
    2  A    between atoms: C_4  and  C_15
    3  A    between atoms: C_12  and  C_28
    4  A    between atoms: C_17  and  C_29
    5  A    between atoms: C_21  and  C_32
                            x       y       z     vdW  Elec       q    Type
                         _______ _______ _______ _____ _____    ______ ____

>  <TORSDO>
F 5

$$$$
=
 OpenBabel11052413573D

 34 38  0  0  1  0  0  0  0  0999 V2000
  181.1770  177.5940  139.7800 C   0  0  0  0  0  0  0  0  0  0  0  0
  183.5730  177.5660  139.5870 C   0  0  0  0  0  0  0  0  0  0  0  0
  182.7810  178.9340  141.3250 C   0  0  0  0  0  2  0  0  0  0  0  0
  184.8150  178.1040  140.1760 C   0  0  0  0  0  2  0  0  0  0  0  0
  181.1090  176.6950  138.6870 C   0  0  0  0  0  0  0  0  0  0  0  0
  183.5140  176.7040  138.5460 N   0  0  0  0  0  0  0  0  0  0  0  0
  182.3190  176.2430  138.0750 C   0  0  0  0  0  0  0  0  0  0  0  0
  184.3160  178.9980  141.3180 C   0  0  2  0  0  3  0  0  0  0  0  0
  182.4460  178.0130  140.2120 C   0  0  0  0  0  0  0  0  0  0  0  0
  180.0020  179.4580  140.8720 N   0  0  0  0  0  0  0  0  0  0  0  0
  179.6290  177.3740  141.7300 C   0  0  0  0  0  0  0  0  0  0  0  0
  179.7820  179.5310  142.1470 C   0  0  0  0  0  0  0  0  0  0  0  0
  179.5380  178.2920  142.8040 N   0  0  0  0  0  2  0  0  0  0  0  0
  179.9040  178.0670  140.4460 C   0  0  2  0  0  3  0  0  0  0  0  0
  179.8150  180.7680  142.8480 N   0  0  0  0  0  1  0  0  0  0  0  0
  179.4690  176.1330  141.8640 O   0  0  0  0  0  0  0  0  0  0  0  0
  182.8440  173.1150  135.9830 C   0  0  0  0  0  0  0  0  0  0  0  0
  182.4530  173.5910  134.7310 C   0  0  0  0  0  3  0  0  0  0  0  0
  182.3490  175.2900  136.9370 C   0  0  0  0  0  0  0  0  0  0  0  0
  182.0340  174.8760  134.5940 N   0  0  0  0  0  0  0  0  0  0  0  0
  182.7970  173.9700  137.0830 C   0  0  0  0  0  3  0  0  0  0  0  0
  181.9800  175.7250  135.6560 C   0  0  0  0  0  3  0  0  0  0  0  0
  183.3090  171.7130  136.1410 C   0  0  0  0  0  1  0  0  0  0  0  0
  185.2510  178.0880  143.6480 C   0  0  0  0  0  0  0  0  0  0  0  0
  184.8310  178.5010  142.5950 C   0  0  0  0  0  0  0  0  0  0  0  0
  188.0440  176.7170  144.3610 C   0  0  0  0  0  1  0  0  0  0  0  0
  185.7540  177.5850  144.9290 C   0  0  1  0  0  3  0  0  0  0  0  0
  187.2730  177.8380  145.0290 C   0  0  1  0  0  3  0  0  0  0  0  0
  186.9940  178.6800  147.3230 C   0  0  0  0  0  3  0  0  0  0  0  0
  185.6780  179.2440  146.8770 C   0  0  0  0  0  2  0  0  0  0  0  0
  184.9200  178.1800  146.0830 C   0  0  0  0  0  2  0  0  0  0  0  0
  187.7440  178.0030  146.4490 C   0  0  0  0  0  3  0  0  0  0  0  0
  179.3950  174.9090  138.6270 C   0  0  0  0  0  1  0  0  0  0  0  0
  179.7650  176.3000  138.1470 C   0  0  0  0  0  2  0  0  0  0  0  0
  1  9  1  0  0  0  0
  2  4  1  0  0  0  0
  2  9  2  0  0  0  0
  4  8  1  0  0  0  0
  5  1  2  0  0  0  0
  6  2  1  0  0  0  0
  7  6  2  0  0  0  0
  7  5  1  0  0  0  0
  8  3  1  0  0  0  0
  8 25  1  1  0  0  0
  9  3  1  0  0  0  0
 10 12  2  0  0  0  0
 11 16  2  0  0  0  0
 11 13  1  0  0  0  0
 12 13  1  0  0  0  0
 12 15  1  0  0  0  0
 14  1  1  1  0  0  0
 14 10  1  0  0  0  0
 14 11  1  0  0  0  0
 17 23  1  0  0  0  0
 17 21  1  0  0  0  0
 18 17  2  0  0  0  0
 19 21  2  0  0  0  0
 19  7  1  0  0  0  0
 20 18  1  0  0  0  0
 20 22  2  0  0  0  0
 22 19  1  0  0  0  0
 25 24  3  0  0  0  0
 27 24  1  6  0  0  0
 27 28  1  0  0  0  0
 27 31  1  0  0  0  0
 28 26  1  1  0  0  0
 28 32  1  0  0  0  0
 30 29  1  0  0  0  0
 31 30  1  0  0  0  0
 32 29  2  0  0  0  0
 34 33  1  0  0  0  0
 34  5  1  0  0  0  0
M  END
>  <MODEL>
6

>  <REMARK>
 VINA RESULT:      -7.1      8.152     10.496
  Name = 
  5 active torsions:
  status: ('A' for Active; 'I' for Inactive)
    1  A    between atoms: C_3  and  C_13
    2  A    between atoms: C_4  and  C_15
    3  A    between atoms: C_12  and  C_28
    4  A    between atoms: C_17  and  C_29
    5  A    between atoms: C_21  and  C_32
                            x       y       z     vdW  Elec       q    Type
                         _______ _______ _______ _____ _____    ______ ____

>  <TORSDO>
F 5

$$$$
=
 OpenBabel11052413573D

 34 38  0  0  1  0  0  0  0  0999 V2000
  189.0420  176.7520  138.3040 C   0  0  0  0  0  0  0  0  0  0  0  0
  190.7760  177.2710  139.8850 C   0  0  0  0  0  0  0  0  0  0  0  0
  188.6790  178.1620  140.4570 C   0  0  0  0  0  2  0  0  0  0  0  0
  191.0510  177.9710  141.1560 C   0  0  0  0  0  2  0  0  0  0  0  0
  189.9940  176.0330  137.5410 C   0  0  0  0  0  0  0  0  0  0  0  0
  191.6890  176.5820  139.1630 N   0  0  0  0  0  0  0  0  0  0  0  0
  191.3440  175.9490  138.0040 C   0  0  0  0  0  0  0  0  0  0  0  0
  189.6870  178.5560  141.5470 C   0  0  2  0  0  3  0  0  0  0  0  0
  189.4740  177.3660  139.4910 C   0  0  0  0  0  0  0  0  0  0  0  0
  187.2200  175.6550  137.0710 N   0  0  0  0  0  0  0  0  0  0  0  0
  187.3840  177.9220  136.8440 C   0  0  0  0  0  0  0  0  0  0  0  0
  186.8160  176.0180  135.8930 C   0  0  0  0  0  0  0  0  0  0  0  0
  186.8730  177.4150  135.6240 N   0  0  0  0  0  2  0  0  0  0  0  0
  187.6070  176.8360  137.8320 C   0  0  2  0  0  3  0  0  0  0  0  0
  186.3770  175.0760  134.9230 N   0  0  0  0  0  1  0  0  0  0  0  0
  187.5910  179.1460  137.0530 O   0  0  0  0  0  0  0  0  0  0  0  0
  193.3810  173.1490  136.4380 C   0  0  0  0  0  0  0  0  0  0  0  0
  194.4870  173.8730  135.9930 C   0  0  0  0  0  3  0  0  0  0  0  0
  192.4070  175.2050  137.2830 C   0  0  0  0  0  0  0  0  0  0  0  0
  194.5490  175.2150  136.1980 N   0  0  0  0  0  0  0  0  0  0  0  0
  192.3450  173.8180  137.0890 C   0  0  0  0  0  3  0  0  0  0  0  0
  193.5470  175.8850  136.8300 C   0  0  0  0  0  3  0  0  0  0  0  0
  193.3080  171.6810  136.2240 C   0  0  0  0  0  1  0  0  0  0  0  0
  188.9160  177.5360  143.8910 C   0  0  0  0  0  0  0  0  0  0  0  0
  189.2610  177.9970  142.8310 C   0  0  0  0  0  0  0  0  0  0  0  0
  190.6550  176.8120  146.4690 C   0  0  0  0  0  1  0  0  0  0  0  0
  188.5020  176.9740  145.1790 C   0  0  1  0  0  3  0  0  0  0  0  0
  189.3570  177.5790  146.3120 C   0  0  1  0  0  3  0  0  0  0  0  0
  187.3340  177.9400  147.6630 C   0  0  0  0  0  3  0  0  0  0  0  0
  186.6150  178.2210  146.3780 C   0  0  0  0  0  2  0  0  0  0  0  0
  186.9790  177.1440  145.3540 C   0  0  0  0  0  2  0  0  0  0  0  0
  188.6320  177.6240  147.6300 C   0  0  0  0  0  3  0  0  0  0  0  0
  190.2100  176.2190  135.0810 C   0  0  0  0  0  1  0  0  0  0  0  0
  189.5820  175.4430  136.2240 C   0  0  0  0  0  2  0  0  0  0  0  0
  1  9  1  0  0  0  0
  2  4  1  0  0  0  0
  3  8  1  0  0  0  0
  4  8  1  0  0  0  0
  5  7  1  0  0  0  0
  5  1  2  0  0  0  0
  6  2  1  0  0  0  0
  7  6  2  0  0  0  0
  8 25  1  1  0  0  0
  9  2  2  0  0  0  0
  9  3  1  0  0  0  0
 10 14  1  0  0  0  0
 11 16  2  0  0  0  0
 11 14  1  0  0  0  0
 12 10  2  0  0  0  0
 13 12  1  0  0  0  0
 13 11  1  0  0  0  0
 14  1  1  6  0  0  0
 15 12  1  0  0  0  0
 17 21  1  0  0  0  0
 18 20  1  0  0  0  0
 18 17  2  0  0  0  0
 19  7  1  0  0  0  0
 20 22  2  0  0  0  0
 21 19  2  0  0  0  0
 22 19  1  0  0  0  0
 23 17  1  0  0  0  0
 25 24  3  0  0  0  0
 27 24  1  6  0  0  0
 27 31  1  0  0  0  0
 27 28  1  0  0  0  0
 28 26  1  1  0  0  0
 28 32  1  0  0  0  0
 30 29  1  0  0  0  0
 31 30  1  0  0  0  0
 32 29  2  0  0  0  0
 33 34  1  0  0  0  0
 34  5  1  0  0  0  0
M  END
>  <MODEL>
7

>  <REMARK>
 VINA RESULT:      -7.0      2.115      3.241
  Name = 
  5 active torsions:
  status: ('A' for Active; 'I' for Inactive)
    1  A    between atoms: C_3  and  C_13
    2  A    between atoms: C_4  and  C_15
    3  A    between atoms: C_12  and  C_28
    4  A    between atoms: C_17  and  C_29
    5  A    between atoms: C_21  and  C_32
                            x       y       z     vdW  Elec       q    Type
                         _______ _______ _______ _____ _____    ______ ____

>  <TORSDO>
F 5

$$$$
=
 OpenBabel11052413573D

 34 38  0  0  1  0  0  0  0  0999 V2000
  187.6680  178.3540  140.6420 C   0  0  0  0  0  0  0  0  0  0  0  0
  185.2690  178.2260  140.5610 C   0  0  0  0  0  0  0  0  0  0  0  0
  186.2900  178.1650  138.4460 C   0  0  0  0  0  2  0  0  0  0  0  0
  184.1190  178.1120  139.6420 C   0  0  0  0  0  2  0  0  0  0  0  0
  187.5860  178.4190  142.0540 C   0  0  0  0  0  0  0  0  0  0  0  0
  185.1850  178.2830  141.9090 N   0  0  0  0  0  0  0  0  0  0  0  0
  186.3040  178.3710  142.6850 C   0  0  0  0  0  0  0  0  0  0  0  0
  184.7690  178.0660  138.2530 C   0  0  2  0  0  3  0  0  0  0  0  0
  186.4700  178.2530  139.9150 C   0  0  0  0  0  0  0  0  0  0  0  0
  188.9500  179.0230  138.6530 N   0  0  0  0  0  0  0  0  0  0  0  0
  189.5300  177.0360  139.6210 C   0  0  0  0  0  0  0  0  0  0  0  0
  189.3810  178.1950  137.7530 C   0  0  0  0  0  0  0  0  0  0  0  0
  189.7730  176.9120  138.2310 N   0  0  0  0  0  2  0  0  0  0  0  0
  189.0190  178.3880  139.9630 C   0  0  2  0  0  3  0  0  0  0  0  0
  189.4270  178.5370  136.3740 N   0  0  0  0  0  1  0  0  0  0  0  0
  189.7510  176.1140  140.4480 O   0  0  0  0  0  0  0  0  0  0  0  0
  186.8220  177.8840  146.4180 C   0  0  0  0  0  0  0  0  0  0  0  0
  185.6530  178.4700  146.9040 C   0  0  0  0  0  3  0  0  0  0  0  0
  186.1200  178.4160  144.1580 C   0  0  0  0  0  0  0  0  0  0  0  0
  184.7490  179.0000  146.0400 N   0  0  0  0  0  0  0  0  0  0  0  0
  187.0490  177.8530  145.0430 C   0  0  0  0  0  3  0  0  0  0  0  0
  184.9530  178.9810  144.6950 C   0  0  0  0  0  3  0  0  0  0  0  0
  187.8140  177.2960  147.3550 C   0  0  0  0  0  1  0  0  0  0  0  0
  184.1750  175.7530  137.0590 C   0  0  0  0  0  0  0  0  0  0  0  0
  184.4420  176.7990  137.5960 C   0  0  0  0  0  0  0  0  0  0  0  0
  185.7680  172.9860  137.0720 C   0  0  0  0  0  1  0  0  0  0  0  0
  183.8550  174.4780  136.4110 C   0  0  1  0  0  3  0  0  0  0  0  0
  184.3050  173.3070  137.3090 C   0  0  1  0  0  3  0  0  0  0  0  0
  182.1550  172.1750  136.9340 C   0  0  0  0  0  3  0  0  0  0  0  0
  181.5270  173.5360  136.9070 C   0  0  0  0  0  2  0  0  0  0  0  0
  182.3640  174.4570  136.0170 C   0  0  0  0  0  2  0  0  0  0  0  0
  183.4750  172.0680  137.1130 C   0  0  0  0  0  3  0  0  0  0  0  0
  189.4010  177.2760  143.2910 C   0  0  0  0  0  1  0  0  0  0  0  0
  188.8420  178.6170  142.8520 C   0  0  0  0  0  2  0  0  0  0  0  0
  1  5  1  0  0  0  0
  2  6  2  0  0  0  0
  3  9  1  0  0  0  0
  4  2  1  0  0  0  0
  5  7  2  0  0  0  0
  5 34  1  0  0  0  0
  6  7  1  0  0  0  0
  7 19  1  0  0  0  0
  8 25  1  1  0  0  0
  8  3  1  0  0  0  0
  8  4  1  0  0  0  0
  9  2  1  0  0  0  0
  9  1  2  0  0  0  0
 10 14  1  0  0  0  0
 11 14  1  0  0  0  0
 11 16  2  0  0  0  0
 12 13  1  0  0  0  0
 12 10  2  0  0  0  0
 13 11  1  0  0  0  0
 14  1  1  6  0  0  0
 15 12  1  0  0  0  0
 17 18  1  0  0  0  0
 17 23  1  0  0  0  0
 19 22  2  0  0  0  0
 19 21  1  0  0  0  0
 20 18  2  0  0  0  0
 21 17  2  0  0  0  0
 22 20  1  0  0  0  0
 24 25  3  0  0  0  0
 27 24  1  1  0  0  0
 27 28  1  0  0  0  0
 28 26  1  6  0  0  0
 29 32  2  0  0  0  0
 30 29  1  0  0  0  0
 31 27  1  0  0  0  0
 31 30  1  0  0  0  0
 32 28  1  0  0  0  0
 34 33  1  0  0  0  0
M  END
>  <MODEL>
8

>  <REMARK>
 VINA RESULT:      -6.9      4.851      9.816
  Name = 
  5 active torsions:
  status: ('A' for Active; 'I' for Inactive)
    1  A    between atoms: C_3  and  C_13
    2  A    between atoms: C_4  and  C_15
    3  A    between atoms: C_12  and  C_28
    4  A    between atoms: C_17  and  C_29
    5  A    between atoms: C_21  and  C_32
                            x       y       z     vdW  Elec       q    Type
                         _______ _______ _______ _____ _____    ______ ____

>  <TORSDO>
F 5

$$$$
=
 OpenBabel11052413573D

 34 38  0  0  1  0  0  0  0  0999 V2000
  187.9900  177.5640  142.9460 C   0  0  0  0  0  0  0  0  0  0  0  0
  187.4050  178.5280  140.8240 C   0  0  0  0  0  0  0  0  0  0  0  0
  189.6680  177.9220  140.9940 C   0  0  0  0  0  2  0  0  0  0  0  0
  187.9480  178.9050  139.5040 C   0  0  0  0  0  2  0  0  0  0  0  0
  186.6420  177.7200  143.3540 C   0  0  0  0  0  0  0  0  0  0  0  0
  186.1160  178.6760  141.2060 N   0  0  0  0  0  0  0  0  0  0  0  0
  185.6950  178.2820  142.4430 C   0  0  0  0  0  0  0  0  0  0  0  0
  189.4280  178.5110  139.5970 C   0  0  2  0  0  3  0  0  0  0  0  0
  188.3410  177.9830  141.6530 C   0  0  0  0  0  0  0  0  0  0  0  0
  189.8900  177.9630  144.4540 N   0  0  0  0  0  0  0  0  0  0  0  0
  189.9540  176.0430  143.2190 C   0  0  0  0  0  0  0  0  0  0  0  0
  191.1170  177.6490  144.1770 C   0  0  0  0  0  0  0  0  0  0  0  0
  191.2930  176.4670  143.4040 N   0  0  0  0  0  2  0  0  0  0  0  0
  188.9980  176.9550  143.8960 C   0  0  2  0  0  3  0  0  0  0  0  0
  192.2130  178.4540  144.5920 N   0  0  0  0  0  1  0  0  0  0  0  0
  189.6380  175.0050  142.5810 O   0  0  0  0  0  0  0  0  0  0  0  0
  181.9280  178.6760  142.1360 C   0  0  0  0  0  0  0  0  0  0  0  0
  181.5990  178.9150  143.4710 C   0  0  0  0  0  3  0  0  0  0  0  0
  184.2600  178.4700  142.7740 C   0  0  0  0  0  0  0  0  0  0  0  0
  182.5740  178.9390  144.4170 N   0  0  0  0  0  0  0  0  0  0  0  0
  183.2620  178.4600  141.7910 C   0  0  0  0  0  3  0  0  0  0  0  0
  183.8800  178.7290  144.0990 C   0  0  0  0  0  3  0  0  0  0  0  0
  180.8700  178.6540  141.0940 C   0  0  0  0  0  1  0  0  0  0  0  0
  189.9890  176.6730  137.7430 C   0  0  0  0  0  0  0  0  0  0  0  0
  189.7340  177.5010  138.5820 C   0  0  0  0  0  0  0  0  0  0  0  0
  192.3940  174.5790  137.5830 C   0  0  0  0  0  1  0  0  0  0  0  0
  190.3010  175.6720  136.7190 C   0  0  1  0  0  3  0  0  0  0  0  0
  190.9010  174.4150  137.3830 C   0  0  1  0  0  3  0  0  0  0  0  0
  189.4390  172.9820  136.0200 C   0  0  0  0  0  3  0  0  0  0  0  0
  188.4020  174.0590  136.1320 C   0  0  0  0  0  2  0  0  0  0  0  0
  189.0530  175.4140  135.8500 C   0  0  0  0  0  2  0  0  0  0  0  0
  190.6280  173.1570  136.6030 C   0  0  0  0  0  3  0  0  0  0  0  0
  186.6260  178.4930  145.7070 C   0  0  0  0  0  1  0  0  0  0  0  0
  186.2570  177.3640  144.7610 C   0  0  0  0  0  2  0  0  0  0  0  0
  1  5  1  0  0  0  0
  2  6  2  0  0  0  0
  2  9  1  0  0  0  0
  3  9  1  0  0  0  0
  4  8  1  0  0  0  0
  4  2  1  0  0  0  0
  5 34  1  0  0  0  0
  6  7  1  0  0  0  0
  7 19  1  0  0  0  0
  7  5  2  0  0  0  0
  8 25  1  6  0  0  0
  8  3  1  0  0  0  0
  9  1  2  0  0  0  0
 11 13  1  0  0  0  0
 11 14  1  0  0  0  0
 12 10  2  0  0  0  0
 12 15  1  0  0  0  0
 13 12  1  0  0  0  0
 14  1  1  6  0  0  0
 14 10  1  0  0  0  0
 16 11  2  0  0  0  0
 17 18  1  0  0  0  0
 18 20  2  0  0  0  0
 19 22  2  0  0  0  0
 21 17  2  0  0  0  0
 21 19  1  0  0  0  0
 22 20  1  0  0  0  0
 23 17  1  0  0  0  0
 24 25  3  0  0  0  0
 27 28  1  0  0  0  0
 27 24  1  1  0  0  0
 28 26  1  6  0  0  0
 29 30  1  0  0  0  0
 29 32  2  0  0  0  0
 31 30  1  0  0  0  0
 31 27  1  0  0  0  0
 32 28  1  0  0  0  0
 34 33  1  0  0  0  0
M  END
>  <MODEL>
9

>  <REMARK>
 VINA RESULT:      -6.8      3.888     10.311
  Name = 
  5 active torsions:
  status: ('A' for Active; 'I' for Inactive)
    1  A    between atoms: C_3  and  C_13
    2  A    between atoms: C_4  and  C_15
    3  A    between atoms: C_12  and  C_28
    4  A    between atoms: C_17  and  C_29
    5  A    between atoms: C_21  and  C_32
                            x       y       z     vdW  Elec       q    Type
                         _______ _______ _______ _____ _____    ______ ____

>  <TORSDO>
F 5

$$$$
