=
 OpenBabel11052415353D

 37 40  0  0  1  0  0  0  0  0999 V2000
  190.4410  176.9290  137.6560 C   0  0  2  0  0  3  0  0  0  0  0  0
  189.3680  178.2510  139.3420 O   0  0  0  0  0  0  0  0  0  0  0  0
  190.2470  177.4370  140.0810 C   0  0  2  0  0  3  0  0  0  0  0  0
  189.5290  176.9260  138.8850 C   0  0  2  0  0  3  0  0  0  0  0  0
  189.6040  176.9870  141.4060 C   0  0  1  0  0  3  0  0  0  0  0  0
  190.4500  176.0580  142.2880 C   0  0  0  0  0  1  0  0  0  0  0  0
  188.9900  178.1600  142.1750 C   0  0  2  0  0  3  0  0  0  0  0  0
  189.6990  178.4110  143.5030 C   0  0  0  0  0  1  0  0  0  0  0  0
  187.5010  177.9280  142.3990 C   0  0  0  0  0  2  0  0  0  0  0  0
  186.6770  178.8190  141.5240 C   0  0  0  0  0  3  0  0  0  0  0  0
  185.4950  178.5770  141.3300 O   0  0  0  0  0  0  0  0  0  0  0  0
  190.1600  176.6880  135.1120 C   0  0  0  0  0  1  0  0  0  0  0  0
  189.5860  177.2290  136.4120 C   0  0  1  0  0  3  0  0  0  0  0  0
  188.0620  177.0350  136.6020 C   0  0  1  0  0  3  0  0  0  0  0  0
  187.6170  179.3800  136.9880 O   0  0  0  0  0  0  0  0  0  0  0  0
  187.1770  178.2600  136.3170 C   0  0  0  0  0  3  0  0  0  0  0  0
  186.5740  178.6930  137.4780 O   0  0  0  0  0  0  0  0  0  0  0  0
  187.4820  175.7400  136.0300 C   0  0  0  0  0  2  0  0  0  0  0  0
  185.6180  174.9010  137.1970 O   0  0  0  0  0  0  0  0  0  0  0  0
  186.8310  174.8930  137.0760 C   0  0  0  0  0  3  0  0  0  0  0  0
  191.2680  175.6210  137.5430 C   0  0  1  0  0  3  0  0  0  0  0  0
  193.9150  175.3140  136.2660 C   0  0  1  0  0  3  0  0  0  0  0  0
  195.5140  173.3850  136.7750 C   0  0  0  0  0  2  0  0  0  0  0  0
  194.8210  174.8500  138.5840 O   0  0  0  0  0  0  0  0  0  0  0  0
  195.2170  174.5900  135.8660 C   0  0  2  0  0  3  0  0  0  0  0  0
  192.4740  175.5830  138.5070 C   0  0  1  0  0  3  0  0  0  0  0  0
  193.8340  175.4920  137.8070 C   0  0  2  0  0  0  0  0  0  0  0  0
  193.9580  177.1220  139.5700 O   0  0  0  0  0  1  0  0  0  0  0  0
  194.8610  173.5090  138.1600 C   0  0  0  0  0  2  0  0  0  0  0  0
  193.6800  176.5860  135.4550 C   0  0  0  0  0  1  0  0  0  0  0  0
  193.3460  176.8270  138.3500 C   0  0  2  0  0  3  0  0  0  0  0  0
  196.7040  176.1700  134.6280 O   0  0  0  0  0  0  0  0  0  0  0  0
  197.1430  175.6670  136.8180 O   0  0  0  0  0  1  0  0  0  0  0  0
  196.4090  175.5010  135.8080 C   0  0  0  0  0  0  0  0  0  0  0  0
  190.4710  174.4520  137.6280 O   0  0  0  0  0  0  0  0  0  0  0  0
  190.9590  173.4840  136.7320 C   0  0  0  0  0  2  0  0  0  0  0  0
  189.8440  173.0530  135.8010 C   0  0  0  0  0  1  0  0  0  0  0  0
  1 13  1  6  0  0  0
  2  3  1  0  0  0  0
  3  5  1  1  0  0  0
  4  1  1  6  0  0  0
  4  2  1  0  0  0  0
  4  3  1  0  0  0  0
  5  7  1  0  0  0  0
  5  6  1  1  0  0  0
  7  9  1  0  0  0  0
  7  8  1  1  0  0  0
 10  9  1  0  0  0  0
 11 10  2  0  0  0  0
 13 12  1  6  0  0  0
 13 14  1  0  0  0  0
 14 18  1  6  0  0  0
 15 17  1  0  0  0  0
 16 14  1  0  0  0  0
 16 15  1  0  0  0  0
 16 17  1  0  0  0  0
 18 20  1  0  0  0  0
 20 19  2  0  0  0  0
 21 35  1  1  0  0  0
 21  1  1  0  0  0  0
 22 30  1  6  0  0  0
 22 27  1  0  0  0  0
 23 29  1  0  0  0  0
 25 34  1  1  0  0  0
 25 22  1  0  0  0  0
 25 23  1  0  0  0  0
 26 21  1  6  0  0  0
 27 31  1  0  0  0  0
 27 26  1  0  0  0  0
 27 24  1  1  0  0  0
 29 24  1  0  0  0  0
 31 26  1  0  0  0  0
 31 28  1  1  0  0  0
 32 34  2  0  0  0  0
 34 33  1  0  0  0  0
 36 35  1  0  0  0  0
 37 36  1  0  0  0  0
M  END
>  <MODEL>
1

>  <REMARK>
 VINA RESULT:      -5.6      0.000      0.000
  Name = 
  15 active torsions:
  status: ('A' for Active; 'I' for Inactive)
    1  A    between atoms: C_1  and  C_5
    2  A    between atoms: C_1  and  C_23
    3  A    between atoms: C_5  and  C_26
    4  A    between atoms: C_8  and  C_19
    5  A    between atoms: C_9  and  C_13
    6  A    between atoms: C_9  and  C_16
    7  A    between atoms: C_9  and  C_30
    8  A    between atoms: C_10  and  C_29
    9  A    between atoms: C_11  and  C_26
   10  A    between atoms: C_13  and  C_20
   11  A    between atoms: C_16  and  C_24
   12  A    between atoms: C_20  and  C_25
   13  A    between atoms: C_20  and  C_29
   14  A    between atoms: C_27  and  O_33
   15  A    between atoms: C_29  and  O_33
                            x       y       z     vdW  Elec       q    Type
                         _______ _______ _______ _____ _____    ______ ____

>  <TORSDO>
F 15

$$$$
=
 OpenBabel11052415353D

 37 40  0  0  1  0  0  0  0  0999 V2000
  187.3560  177.4990  138.3960 C   0  0  2  0  0  3  0  0  0  0  0  0
  189.3440  177.9530  139.6540 O   0  0  0  0  0  0  0  0  0  0  0  0
  188.5090  177.3140  140.5900 C   0  0  2  0  0  3  0  0  0  0  0  0
  187.9690  178.2560  139.5770 C   0  0  2  0  0  3  0  0  0  0  0  0
  188.6520  177.9500  141.9860 C   0  0  1  0  0  3  0  0  0  0  0  0
  187.5320  177.6420  142.9880 C   0  0  0  0  0  1  0  0  0  0  0  0
  190.0560  177.7530  142.5660 C   0  0  2  0  0  3  0  0  0  0  0  0
  190.5090  176.2990  142.4930 C   0  0  0  0  0  1  0  0  0  0  0  0
  190.1140  178.2610  144.0000 C   0  0  0  0  0  2  0  0  0  0  0  0
  191.4900  178.1180  144.5710 C   0  0  0  0  0  3  0  0  0  0  0  0
  191.6690  177.5030  145.6110 O   0  0  0  0  0  0  0  0  0  0  0  0
  188.9850  179.0870  137.1980 C   0  0  0  0  0  1  0  0  0  0  0  0
  188.1950  177.7880  137.1390 C   0  0  1  0  0  3  0  0  0  0  0  0
  188.9560  176.5700  136.5640 C   0  0  1  0  0  3  0  0  0  0  0  0
  187.9290  174.8500  135.2080 O   0  0  0  0  0  0  0  0  0  0  0  0
  188.5250  176.0920  135.1660 C   0  0  0  0  0  3  0  0  0  0  0  0
  189.2100  174.9480  134.8200 O   0  0  0  0  0  0  0  0  0  0  0  0
  190.4760  176.5940  136.7370 C   0  0  0  0  0  2  0  0  0  0  0  0
  190.5770  174.5140  137.8360 O   0  0  0  0  0  0  0  0  0  0  0  0
  190.9430  175.6770  137.8220 C   0  0  0  0  0  3  0  0  0  0  0  0
  185.8470  177.8130  138.2230 C   0  0  1  0  0  3  0  0  0  0  0  0
  182.9800  177.8180  138.9380 C   0  0  1  0  0  3  0  0  0  0  0  0
  181.3750  179.7120  138.3290 C   0  0  0  0  0  2  0  0  0  0  0  0
  183.3190  180.2090  139.6970 O   0  0  0  0  0  0  0  0  0  0  0  0
  181.5110  178.2870  138.8910 C   0  0  2  0  0  3  0  0  0  0  0  0
  185.3760  179.0060  139.0840 C   0  0  1  0  0  3  0  0  0  0  0  0
  183.9000  178.9400  139.4920 C   0  0  2  0  0  0  0  0  0  0  0  0
  185.2200  179.5880  141.3940 O   0  0  0  0  0  1  0  0  0  0  0  0
  182.6530  180.5470  138.5040 C   0  0  0  0  0  2  0  0  0  0  0  0
  183.1390  176.4590  139.6150 C   0  0  0  0  0  1  0  0  0  0  0  0
  184.9830  178.5530  140.4880 C   0  0  2  0  0  3  0  0  0  0  0  0
  179.8540  177.2000  140.4110 O   0  0  0  0  0  0  0  0  0  0  0  0
  181.0890  178.9790  141.1540 O   0  0  0  0  0  1  0  0  0  0  0  0
  180.8140  178.1840  140.2160 C   0  0  0  0  0  0  0  0  0  0  0  0
  185.4590  177.9400  136.8650 O   0  0  0  0  0  0  0  0  0  0  0  0
  185.0400  176.6900  136.3770 C   0  0  0  0  0  2  0  0  0  0  0  0
  183.7910  176.8680  135.5400 C   0  0  0  0  0  1  0  0  0  0  0  0
  1 13  1  6  0  0  0
  2  3  1  0  0  0  0
  3  5  1  1  0  0  0
  4  1  1  6  0  0  0
  4  2  1  0  0  0  0
  4  3  1  0  0  0  0
  5  7  1  0  0  0  0
  5  6  1  1  0  0  0
  7  8  1  1  0  0  0
  7  9  1  0  0  0  0
  9 10  1  0  0  0  0
 10 11  2  0  0  0  0
 13 12  1  1  0  0  0
 14 18  1  6  0  0  0
 14 13  1  0  0  0  0
 16 15  1  0  0  0  0
 16 14  1  0  0  0  0
 17 16  1  0  0  0  0
 17 15  1  0  0  0  0
 18 20  1  0  0  0  0
 20 19  2  0  0  0  0
 21 35  1  6  0  0  0
 21  1  1  0  0  0  0
 22 27  1  0  0  0  0
 22 30  1  1  0  0  0
 23 29  1  0  0  0  0
 23 25  1  0  0  0  0
 25 22  1  0  0  0  0
 25 34  1  1  0  0  0
 26 21  1  6  0  0  0
 26 27  1  0  0  0  0
 26 31  1  0  0  0  0
 27 24  1  1  0  0  0
 27 31  1  0  0  0  0
 29 24  1  0  0  0  0
 31 28  1  1  0  0  0
 34 32  2  0  0  0  0
 34 33  1  0  0  0  0
 36 35  1  0  0  0  0
 37 36  1  0  0  0  0
M  END
>  <MODEL>
2

>  <REMARK>
 VINA RESULT:      -4.7      3.232      8.586
  Name = 
  15 active torsions:
  status: ('A' for Active; 'I' for Inactive)
    1  A    between atoms: C_1  and  C_5
    2  A    between atoms: C_1  and  C_23
    3  A    between atoms: C_5  and  C_26
    4  A    between atoms: C_8  and  C_19
    5  A    between atoms: C_9  and  C_13
    6  A    between atoms: C_9  and  C_16
    7  A    between atoms: C_9  and  C_30
    8  A    between atoms: C_10  and  C_29
    9  A    between atoms: C_11  and  C_26
   10  A    between atoms: C_13  and  C_20
   11  A    between atoms: C_16  and  C_24
   12  A    between atoms: C_20  and  C_25
   13  A    between atoms: C_20  and  C_29
   14  A    between atoms: C_27  and  O_33
   15  A    between atoms: C_29  and  O_33
                            x       y       z     vdW  Elec       q    Type
                         _______ _______ _______ _____ _____    ______ ____

>  <TORSDO>
F 15

$$$$
=
 OpenBabel11052415353D

 37 40  0  0  1  0  0  0  0  0999 V2000
  188.4630  178.2510  141.2000 C   0  0  2  0  0  3  0  0  0  0  0  0
  186.7020  178.8450  139.6880 O   0  0  0  0  0  0  0  0  0  0  0  0
  186.0790  178.9100  140.9490 C   0  0  2  0  0  3  0  0  0  0  0  0
  187.0930  177.8720  140.6310 C   0  0  2  0  0  3  0  0  0  0  0  0
  184.6350  178.3800  140.8830 C   0  0  1  0  0  3  0  0  0  0  0  0
  183.6920  178.8430  142.0010 C   0  0  0  0  0  1  0  0  0  0  0  0
  184.0330  178.5250  139.4820 C   0  0  2  0  0  3  0  0  0  0  0  0
  183.1080  179.7330  139.3770 C   0  0  0  0  0  1  0  0  0  0  0  0
  183.2990  177.2510  139.0850 C   0  0  0  0  0  2  0  0  0  0  0  0
  183.8220  176.7040  137.7940 C   0  0  0  0  0  3  0  0  0  0  0  0
  184.8370  177.1630  137.2910 O   0  0  0  0  0  0  0  0  0  0  0  0
  190.6680  177.0230  140.7090 C   0  0  0  0  0  1  0  0  0  0  0  0
  189.5410  177.8890  140.1650 C   0  0  1  0  0  3  0  0  0  0  0  0
  189.0030  177.4860  138.7710 C   0  0  1  0  0  3  0  0  0  0  0  0
  188.9820  179.5930  137.5840 O   0  0  0  0  0  0  0  0  0  0  0  0
  189.5040  178.3180  137.5780 C   0  0  0  0  0  3  0  0  0  0  0  0
  188.4480  178.6720  136.7670 O   0  0  0  0  0  0  0  0  0  0  0  0
  188.9800  175.9840  138.4770 C   0  0  0  0  0  2  0  0  0  0  0  0
  190.9660  174.8310  137.9570 O   0  0  0  0  0  0  0  0  0  0  0  0
  190.0800  175.5650  137.5540 C   0  0  0  0  0  3  0  0  0  0  0  0
  188.7050  177.6220  142.5980 C   0  0  1  0  0  3  0  0  0  0  0  0
  190.0900  176.4660  144.9380 C   0  0  1  0  0  3  0  0  0  0  0  0
  189.3350  176.8340  147.3520 C   0  0  0  0  0  2  0  0  0  0  0  0
  189.9200  178.7600  145.9940 O   0  0  0  0  0  0  0  0  0  0  0  0
  190.2730  176.0560  146.4130 C   0  0  2  0  0  3  0  0  0  0  0  0
  189.2230  178.6400  143.6370 C   0  0  1  0  0  3  0  0  0  0  0  0
  189.9960  178.0100  144.8010 C   0  0  2  0  0  0  0  0  0  0  0  0
  191.1780  179.9550  144.0260 O   0  0  0  0  0  1  0  0  0  0  0  0
  188.8960  178.1860  146.7690 C   0  0  0  0  0  2  0  0  0  0  0  0
  191.1060  175.7970  144.0150 C   0  0  0  0  0  1  0  0  0  0  0  0
  190.7500  178.6770  143.6610 C   0  0  2  0  0  3  0  0  0  0  0  0
  192.6150  175.1940  146.5370 O   0  0  0  0  0  0  0  0  0  0  0  0
  192.0570  177.1420  147.6030 O   0  0  0  0  0  1  0  0  0  0  0  0
  191.6920  176.1710  146.8890 C   0  0  0  0  0  0  0  0  0  0  0  0
  187.5920  176.8830  143.0740 O   0  0  0  0  0  0  0  0  0  0  0  0
  186.7540  177.7270  143.8250 C   0  0  0  0  0  2  0  0  0  0  0  0
  186.3110  177.0080  145.0820 C   0  0  0  0  0  1  0  0  0  0  0  0
  1 13  1  6  0  0  0
  1 21  1  0  0  0  0
  2  4  1  0  0  0  0
  2  3  1  0  0  0  0
  3  5  1  6  0  0  0
  4  3  1  0  0  0  0
  4  1  1  1  0  0  0
  5  6  1  1  0  0  0
  7  8  1  1  0  0  0
  7  5  1  0  0  0  0
  9  7  1  0  0  0  0
 10  9  1  0  0  0  0
 11 10  2  0  0  0  0
 13 12  1  1  0  0  0
 14 18  1  6  0  0  0
 14 13  1  0  0  0  0
 16 15  1  0  0  0  0
 16 14  1  0  0  0  0
 17 16  1  0  0  0  0
 17 15  1  0  0  0  0
 20 19  2  0  0  0  0
 20 18  1  0  0  0  0
 21 35  1  1  0  0  0
 22 30  1  6  0  0  0
 22 25  1  0  0  0  0
 24 29  1  0  0  0  0
 25 34  1  1  0  0  0
 25 23  1  0  0  0  0
 26 21  1  6  0  0  0
 26 31  1  0  0  0  0
 26 27  1  0  0  0  0
 27 22  1  0  0  0  0
 27 24  1  1  0  0  0
 29 23  1  0  0  0  0
 31 28  1  1  0  0  0
 31 27  1  0  0  0  0
 32 34  2  0  0  0  0
 34 33  1  0  0  0  0
 35 36  1  0  0  0  0
 36 37  1  0  0  0  0
M  END
>  <MODEL>
3

>  <REMARK>
 VINA RESULT:      -4.7      3.323      7.418
  Name = 
  15 active torsions:
  status: ('A' for Active; 'I' for Inactive)
    1  A    between atoms: C_1  and  C_5
    2  A    between atoms: C_1  and  C_23
    3  A    between atoms: C_5  and  C_26
    4  A    between atoms: C_8  and  C_19
    5  A    between atoms: C_9  and  C_13
    6  A    between atoms: C_9  and  C_16
    7  A    between atoms: C_9  and  C_30
    8  A    between atoms: C_10  and  C_29
    9  A    between atoms: C_11  and  C_26
   10  A    between atoms: C_13  and  C_20
   11  A    between atoms: C_16  and  C_24
   12  A    between atoms: C_20  and  C_25
   13  A    between atoms: C_20  and  C_29
   14  A    between atoms: C_27  and  O_33
   15  A    between atoms: C_29  and  O_33
                            x       y       z     vdW  Elec       q    Type
                         _______ _______ _______ _____ _____    ______ ____

>  <TORSDO>
F 15

$$$$
=
 OpenBabel11052415353D

 37 40  0  0  1  0  0  0  0  0999 V2000
  183.2300  178.4100  138.3090 C   0  0  2  0  0  3  0  0  0  0  0  0
  185.4230  179.2680  138.7510 O   0  0  0  0  0  0  0  0  0  0  0  0
  185.6520  178.2890  137.7660 C   0  0  2  0  0  3  0  0  0  0  0  0
  184.6350  178.1010  138.8320 C   0  0  2  0  0  3  0  0  0  0  0  0
  186.9590  177.5210  138.0400 C   0  0  1  0  0  3  0  0  0  0  0  0
  187.2430  176.3200  137.1280 C   0  0  0  0  0  1  0  0  0  0  0  0
  188.1570  178.4630  138.1940 C   0  0  2  0  0  3  0  0  0  0  0  0
  189.0020  178.5290  136.9250 C   0  0  0  0  0  1  0  0  0  0  0  0
  189.0100  178.0470  139.3850 C   0  0  0  0  0  2  0  0  0  0  0  0
  188.2620  178.2090  140.6700 C   0  0  0  0  0  3  0  0  0  0  0  0
  188.4190  177.4140  141.5850 O   0  0  0  0  0  0  0  0  0  0  0  0
  182.9670  178.4900  140.8660 C   0  0  0  0  0  1  0  0  0  0  0  0
  182.3160  178.7120  139.5090 C   0  0  1  0  0  3  0  0  0  0  0  0
  181.4670  179.9990  139.3790 C   0  0  1  0  0  3  0  0  0  0  0  0
  182.5780  182.0350  138.6940 O   0  0  0  0  0  0  0  0  0  0  0  0
  181.8490  180.9580  138.2380 C   0  0  0  0  0  3  0  0  0  0  0  0
  181.2710  182.1920  138.4380 O   0  0  0  0  0  0  0  0  0  0  0  0
  179.9540  179.8130  139.5120 C   0  0  0  0  0  2  0  0  0  0  0  0
  180.1590  180.6240  141.7120 O   0  0  0  0  0  0  0  0  0  0  0  0
  179.4130  180.4060  140.7730 C   0  0  0  0  0  3  0  0  0  0  0  0
  182.6930  177.2850  137.3850 C   0  0  1  0  0  3  0  0  0  0  0  0
  182.5030  174.3980  136.7870 C   0  0  1  0  0  3  0  0  0  0  0  0
  180.5290  173.3360  135.5570 C   0  0  0  0  0  2  0  0  0  0  0  0
  180.1210  174.5240  137.6360 O   0  0  0  0  0  0  0  0  0  0  0  0
  181.9480  173.1270  136.1130 C   0  0  2  0  0  3  0  0  0  0  0  0
  181.4570  176.5640  137.9650 C   0  0  1  0  0  3  0  0  0  0  0  0
  181.4270  175.0560  137.6940 C   0  0  2  0  0  0  0  0  0  0  0  0
  180.8190  175.4610  139.9840 O   0  0  0  0  0  1  0  0  0  0  0  0
  179.7690  174.4620  136.2750 C   0  0  0  0  0  2  0  0  0  0  0  0
  183.8550  174.1630  137.4560 C   0  0  0  0  0  1  0  0  0  0  0  0
  181.8570  175.5750  139.0580 C   0  0  2  0  0  3  0  0  0  0  0  0
  183.1030  171.0990  137.0060 O   0  0  0  0  0  0  0  0  0  0  0  0
  181.0070  171.6420  137.7520 O   0  0  0  0  0  1  0  0  0  0  0  0
  181.9820  171.9190  137.0040 C   0  0  0  0  0  0  0  0  0  0  0  0
  182.4900  177.7160  136.0490 O   0  0  0  0  0  0  0  0  0  0  0  0
  181.1960  178.2520  135.9200 C   0  0  0  0  0  2  0  0  0  0  0  0
  181.1410  179.1450  134.6980 C   0  0  0  0  0  1  0  0  0  0  0  0
  1 21  1  1  0  0  0
  1 13  1  0  0  0  0
  2  4  1  0  0  0  0
  3  5  1  1  0  0  0
  3  2  1  0  0  0  0
  3  4  1  0  0  0  0
  4  1  1  6  0  0  0
  5  6  1  6  0  0  0
  5  7  1  0  0  0  0
  7  8  1  6  0  0  0
  7  9  1  0  0  0  0
  9 10  1  0  0  0  0
 10 11  2  0  0  0  0
 13 12  1  1  0  0  0
 14 13  1  0  0  0  0
 14 18  1  6  0  0  0
 16 17  1  0  0  0  0
 16 15  1  0  0  0  0
 16 14  1  0  0  0  0
 17 15  1  0  0  0  0
 18 20  1  0  0  0  0
 20 19  2  0  0  0  0
 21 35  1  6  0  0  0
 22 30  1  1  0  0  0
 22 27  1  0  0  0  0
 23 25  1  0  0  0  0
 23 29  1  0  0  0  0
 25 22  1  0  0  0  0
 25 34  1  1  0  0  0
 26 21  1  6  0  0  0
 26 31  1  0  0  0  0
 27 24  1  6  0  0  0
 27 26  1  0  0  0  0
 27 31  1  0  0  0  0
 29 24  1  0  0  0  0
 31 28  1  1  0  0  0
 34 32  2  0  0  0  0
 34 33  1  0  0  0  0
 36 35  1  0  0  0  0
 37 36  1  0  0  0  0
M  END
>  <MODEL>
4

>  <REMARK>
 VINA RESULT:      -4.6      4.891      9.920
  Name = 
  15 active torsions:
  status: ('A' for Active; 'I' for Inactive)
    1  A    between atoms: C_1  and  C_5
    2  A    between atoms: C_1  and  C_23
    3  A    between atoms: C_5  and  C_26
    4  A    between atoms: C_8  and  C_19
    5  A    between atoms: C_9  and  C_13
    6  A    between atoms: C_9  and  C_16
    7  A    between atoms: C_9  and  C_30
    8  A    between atoms: C_10  and  C_29
    9  A    between atoms: C_11  and  C_26
   10  A    between atoms: C_13  and  C_20
   11  A    between atoms: C_16  and  C_24
   12  A    between atoms: C_20  and  C_25
   13  A    between atoms: C_20  and  C_29
   14  A    between atoms: C_27  and  O_33
   15  A    between atoms: C_29  and  O_33
                            x       y       z     vdW  Elec       q    Type
                         _______ _______ _______ _____ _____    ______ ____

>  <TORSDO>
F 15

$$$$
=
 OpenBabel11052415353D

 37 40  0  0  1  0  0  0  0  0999 V2000
  188.9290  177.3640  141.9270 C   0  0  2  0  0  3  0  0  0  0  0  0
  187.5870  178.2170  143.7200 O   0  0  0  0  0  0  0  0  0  0  0  0
  186.6510  177.5560  142.9020 C   0  0  2  0  0  3  0  0  0  0  0  0
  187.7950  178.3110  142.3280 C   0  0  2  0  0  3  0  0  0  0  0  0
  185.3240  178.3350  142.8370 C   0  0  1  0  0  3  0  0  0  0  0  0
  184.3580  177.9340  141.7150 C   0  0  0  0  0  1  0  0  0  0  0  0
  184.6510  178.4400  144.2090 C   0  0  2  0  0  3  0  0  0  0  0  0
  183.1630  178.7560  144.0950 C   0  0  0  0  0  1  0  0  0  0  0  0
  185.3560  179.4800  145.0690 C   0  0  0  0  0  2  0  0  0  0  0  0
  185.7920  178.8970  146.3760 C   0  0  0  0  0  3  0  0  0  0  0  0
  185.5530  179.4760  147.4250 O   0  0  0  0  0  0  0  0  0  0  0  0
  190.2650  179.1630  143.1890 C   0  0  0  0  0  1  0  0  0  0  0  0
  190.1710  177.7040  142.7690 C   0  0  1  0  0  3  0  0  0  0  0  0
  190.5220  176.6700  143.8660 C   0  0  1  0  0  3  0  0  0  0  0  0
  191.3510  174.3980  143.8500 O   0  0  0  0  0  0  0  0  0  0  0  0
  191.6760  175.7030  143.5510 C   0  0  0  0  0  3  0  0  0  0  0  0
  192.1170  175.0930  144.7050 O   0  0  0  0  0  0  0  0  0  0  0  0
  190.5790  177.2120  145.2950 C   0  0  0  0  0  2  0  0  0  0  0  0
  189.4290  176.7430  147.2950 O   0  0  0  0  0  0  0  0  0  0  0  0
  189.3550  176.8750  146.0850 C   0  0  0  0  0  3  0  0  0  0  0  0
  189.1890  177.3830  140.3970 C   0  0  1  0  0  3  0  0  0  0  0  0
  188.5720  176.7350  137.5810 C   0  0  1  0  0  3  0  0  0  0  0  0
  189.1960  178.2430  135.6140 C   0  0  0  0  0  2  0  0  0  0  0  0
  187.7540  179.1200  137.3600 O   0  0  0  0  0  0  0  0  0  0  0  0
  188.6590  176.8690  136.0480 C   0  0  2  0  0  3  0  0  0  0  0  0
  188.3220  178.4180  139.6490 C   0  0  1  0  0  3  0  0  0  0  0  0
  187.9640  178.0170  138.2140 C   0  0  2  0  0  0  0  0  0  0  0  0
  186.0070  178.8900  139.3030 O   0  0  0  0  0  1  0  0  0  0  0  0
  188.9610  179.3340  136.6700 C   0  0  0  0  0  2  0  0  0  0  0  0
  187.9180  175.4260  138.0190 C   0  0  0  0  0  1  0  0  0  0  0  0
  186.9400  177.8520  139.3270 C   0  0  2  0  0  3  0  0  0  0  0  0
  186.3440  177.5240  135.3760 O   0  0  0  0  0  1  0  0  0  0  0  0
  187.1820  175.4880  134.7480 O   0  0  0  0  0  0  0  0  0  0  0  0
  187.3600  176.5780  135.3530 C   0  0  0  0  0  0  0  0  0  0  0  0
  190.5650  177.4940  140.0710 O   0  0  0  0  0  0  0  0  0  0  0  0
  191.0330  176.2610  139.5830 C   0  0  0  0  0  2  0  0  0  0  0  0
  192.0200  176.5050  138.4600 C   0  0  0  0  0  1  0  0  0  0  0  0
  1 21  1  6  0  0  0
  1 13  1  0  0  0  0
  3  5  1  6  0  0  0
  3  2  1  0  0  0  0
  4  1  1  1  0  0  0
  4  3  1  0  0  0  0
  4  2  1  0  0  0  0
  5  6  1  6  0  0  0
  5  7  1  0  0  0  0
  7  8  1  6  0  0  0
  7  9  1  0  0  0  0
  9 10  1  0  0  0  0
 10 11  2  0  0  0  0
 13 12  1  1  0  0  0
 13 14  1  0  0  0  0
 14 18  1  1  0  0  0
 15 17  1  0  0  0  0
 16 15  1  0  0  0  0
 16 14  1  0  0  0  0
 16 17  1  0  0  0  0
 18 20  1  0  0  0  0
 20 19  2  0  0  0  0
 21 35  1  1  0  0  0
 22 30  1  6  0  0  0
 22 27  1  0  0  0  0
 23 25  1  0  0  0  0
 23 29  1  0  0  0  0
 25 34  1  6  0  0  0
 25 22  1  0  0  0  0
 26 21  1  1  0  0  0
 27 24  1  6  0  0  0
 27 31  1  0  0  0  0
 27 26  1  0  0  0  0
 29 24  1  0  0  0  0
 31 28  1  6  0  0  0
 31 26  1  0  0  0  0
 33 34  2  0  0  0  0
 34 32  1  0  0  0  0
 36 35  1  0  0  0  0
 37 36  1  0  0  0  0
M  END
>  <MODEL>
5

>  <REMARK>
 VINA RESULT:      -4.5      3.181      7.164
  Name = 
  15 active torsions:
  status: ('A' for Active; 'I' for Inactive)
    1  A    between atoms: C_1  and  C_5
    2  A    between atoms: C_1  and  C_23
    3  A    between atoms: C_5  and  C_26
    4  A    between atoms: C_8  and  C_19
    5  A    between atoms: C_9  and  C_13
    6  A    between atoms: C_9  and  C_16
    7  A    between atoms: C_9  and  C_30
    8  A    between atoms: C_10  and  C_29
    9  A    between atoms: C_11  and  C_26
   10  A    between atoms: C_13  and  C_20
   11  A    between atoms: C_16  and  C_24
   12  A    between atoms: C_20  and  C_25
   13  A    between atoms: C_20  and  C_29
   14  A    between atoms: C_27  and  O_33
   15  A    between atoms: C_29  and  O_33
                            x       y       z     vdW  Elec       q    Type
                         _______ _______ _______ _____ _____    ______ ____

>  <TORSDO>
F 15

$$$$
=
 OpenBabel11052415353D

 37 40  0  0  1  0  0  0  0  0999 V2000
  182.1350  179.0990  140.2450 C   0  0  2  0  0  3  0  0  0  0  0  0
  182.6690  178.6300  142.5330 O   0  0  0  0  0  0  0  0  0  0  0  0
  183.9010  179.0480  141.9940 C   0  0  2  0  0  3  0  0  0  0  0  0
  182.9420  178.2270  141.2100 C   0  0  2  0  0  3  0  0  0  0  0  0
  185.0670  178.2230  142.5700 C   0  0  1  0  0  3  0  0  0  0  0  0
  186.4430  178.4600  141.9340 C   0  0  0  0  0  1  0  0  0  0  0  0
  185.0920  178.2540  144.1010 C   0  0  2  0  0  3  0  0  0  0  0  0
  184.6270  179.5980  144.6550 C   0  0  0  0  0  1  0  0  0  0  0  0
  186.4840  177.9150  144.6170 C   0  0  0  0  0  2  0  0  0  0  0  0
  186.6200  178.2520  146.0680 C   0  0  0  0  0  3  0  0  0  0  0  0
  187.0050  177.4110  146.8670 O   0  0  0  0  0  0  0  0  0  0  0  0
  180.3540  177.2710  140.5620 C   0  0  0  0  0  1  0  0  0  0  0  0
  180.6430  178.7570  140.4050 C   0  0  1  0  0  3  0  0  0  0  0  0
  179.8530  179.6940  141.3490 C   0  0  1  0  0  3  0  0  0  0  0  0
  179.0820  180.7760  139.3290 O   0  0  0  0  0  0  0  0  0  0  0  0
  179.1820  180.9150  140.6960 C   0  0  0  0  0  3  0  0  0  0  0  0
  180.0600  181.5400  139.8390 O   0  0  0  0  0  0  0  0  0  0  0  0
  178.9510  179.0000  142.3710 C   0  0  0  0  0  2  0  0  0  0  0  0
  179.6830  177.9130  144.3270 O   0  0  0  0  0  0  0  0  0  0  0  0
  179.5510  178.9740  143.7410 C   0  0  0  0  0  3  0  0  0  0  0  0
  182.6480  178.9810  138.7860 C   0  0  1  0  0  3  0  0  0  0  0  0
  184.9860  177.9120  137.3290 C   0  0  1  0  0  3  0  0  0  0  0  0
  184.9120  177.1790  134.8810 C   0  0  0  0  0  2  0  0  0  0  0  0
  183.4470  176.0900  136.4820 O   0  0  0  0  0  0  0  0  0  0  0  0
  185.8050  177.4700  136.0990 C   0  0  2  0  0  3  0  0  0  0  0  0
  182.4770  177.5630  138.1980 C   0  0  1  0  0  3  0  0  0  0  0  0
  183.7310  177.0150  137.5090 C   0  0  2  0  0  0  0  0  0  0  0  0
  182.7700  175.2970  138.8900 O   0  0  0  0  0  1  0  0  0  0  0  0
  183.4730  176.8070  135.2720 C   0  0  0  0  0  2  0  0  0  0  0  0
  185.8480  178.0760  138.5780 C   0  0  0  0  0  1  0  0  0  0  0  0
  183.3730  176.5560  138.9150 C   0  0  2  0  0  3  0  0  0  0  0  0
  188.0240  176.5160  136.7360 O   0  0  0  0  0  1  0  0  0  0  0  0
  186.2670  175.1180  136.2840 O   0  0  0  0  0  0  0  0  0  0  0  0
  186.7010  176.2970  136.3750 C   0  0  0  0  0  0  0  0  0  0  0  0
  182.1270  179.9870  137.9320 O   0  0  0  0  0  0  0  0  0  0  0  0
  181.3040  179.3950  136.9580 C   0  0  0  0  0  2  0  0  0  0  0  0
  180.6820  180.4770  136.1000 C   0  0  0  0  0  1  0  0  0  0  0  0
  1 21  1  6  0  0  0
  1 13  1  0  0  0  0
  3  2  1  0  0  0  0
  3  5  1  1  0  0  0
  4  1  1  6  0  0  0
  4  3  1  0  0  0  0
  4  2  1  0  0  0  0
  5  6  1  6  0  0  0
  5  7  1  0  0  0  0
  7  9  1  0  0  0  0
  7  8  1  6  0  0  0
  9 10  1  0  0  0  0
 10 11  2  0  0  0  0
 13 12  1  1  0  0  0
 13 14  1  0  0  0  0
 14 18  1  6  0  0  0
 15 17  1  0  0  0  0
 15 16  1  0  0  0  0
 16 14  1  0  0  0  0
 17 16  1  0  0  0  0
 18 20  1  0  0  0  0
 20 19  2  0  0  0  0
 21 35  1  6  0  0  0
 22 27  1  0  0  0  0
 22 30  1  1  0  0  0
 23 29  1  0  0  0  0
 23 25  1  0  0  0  0
 25 34  1  1  0  0  0
 25 22  1  0  0  0  0
 26 21  1  1  0  0  0
 26 31  1  0  0  0  0
 27 24  1  6  0  0  0
 27 26  1  0  0  0  0
 27 31  1  0  0  0  0
 29 24  1  0  0  0  0
 31 28  1  6  0  0  0
 33 34  2  0  0  0  0
 34 32  1  0  0  0  0
 36 35  1  0  0  0  0
 37 36  1  0  0  0  0
M  END
>  <MODEL>
6

>  <REMARK>
 VINA RESULT:      -4.1      5.433      9.192
  Name = 
  15 active torsions:
  status: ('A' for Active; 'I' for Inactive)
    1  A    between atoms: C_1  and  C_5
    2  A    between atoms: C_1  and  C_23
    3  A    between atoms: C_5  and  C_26
    4  A    between atoms: C_8  and  C_19
    5  A    between atoms: C_9  and  C_13
    6  A    between atoms: C_9  and  C_16
    7  A    between atoms: C_9  and  C_30
    8  A    between atoms: C_10  and  C_29
    9  A    between atoms: C_11  and  C_26
   10  A    between atoms: C_13  and  C_20
   11  A    between atoms: C_16  and  C_24
   12  A    between atoms: C_20  and  C_25
   13  A    between atoms: C_20  and  C_29
   14  A    between atoms: C_27  and  O_33
   15  A    between atoms: C_29  and  O_33
                            x       y       z     vdW  Elec       q    Type
                         _______ _______ _______ _____ _____    ______ ____

>  <TORSDO>
F 15

$$$$
=
 OpenBabel11052415353D

 37 40  0  0  1  0  0  0  0  0999 V2000
  185.9430  178.3720  142.4810 C   0  0  2  0  0  3  0  0  0  0  0  0
  183.9120  178.7200  141.2580 O   0  0  0  0  0  0  0  0  0  0  0  0
  184.6990  177.9640  140.3690 C   0  0  2  0  0  3  0  0  0  0  0  0
  185.2940  179.0040  141.2470 C   0  0  2  0  0  3  0  0  0  0  0  0
  184.5080  178.4410  138.9170 C   0  0  1  0  0  3  0  0  0  0  0  0
  185.7070  178.2480  137.9780 C   0  0  0  0  0  1  0  0  0  0  0  0
  183.1850  177.9520  138.3200 C   0  0  2  0  0  3  0  0  0  0  0  0
  182.1080  179.0310  138.3510 C   0  0  0  0  0  1  0  0  0  0  0  0
  182.7080  176.6980  139.0400 C   0  0  0  0  0  2  0  0  0  0  0  0
  182.9140  175.4780  138.1990 C   0  0  0  0  0  3  0  0  0  0  0  0
  183.7080  175.4910  137.2700 O   0  0  0  0  0  0  0  0  0  0  0  0
  185.4770  180.6440  143.5920 C   0  0  0  0  0  1  0  0  0  0  0  0
  185.4600  179.1290  143.7300 C   0  0  1  0  0  3  0  0  0  0  0  0
  184.2030  178.5340  144.4110 C   0  0  1  0  0  3  0  0  0  0  0  0
  184.8510  178.8510  146.7190 O   0  0  0  0  0  0  0  0  0  0  0  0
  184.4080  177.9190  145.8060 C   0  0  0  0  0  3  0  0  0  0  0  0
  185.7330  177.9990  146.1730 O   0  0  0  0  0  0  0  0  0  0  0  0
  182.9340  179.3850  144.3210 C   0  0  0  0  0  2  0  0  0  0  0  0
  180.7050  178.6270  144.3380 O   0  0  0  0  0  0  0  0  0  0  0  0
  181.7760  178.6270  143.7550 C   0  0  0  0  0  3  0  0  0  0  0  0
  187.4880  178.3030  142.3540 C   0  0  1  0  0  3  0  0  0  0  0  0
  189.6270  177.8720  144.3470 C   0  0  1  0  0  3  0  0  0  0  0  0
  191.9530  176.9930  143.7560 C   0  0  0  0  0  2  0  0  0  0  0  0
  190.0120  175.6290  143.2390 O   0  0  0  0  0  0  0  0  0  0  0  0
  191.0620  177.6090  144.8470 C   0  0  2  0  0  3  0  0  0  0  0  0
  188.0380  176.8620  142.4420 C   0  0  1  0  0  3  0  0  0  0  0  0
  189.0960  176.6610  143.5330 C   0  0  2  0  0  0  0  0  0  0  0  0
  187.5390  174.8290  143.5910 O   0  0  0  0  0  1  0  0  0  0  0  0
  191.1490  176.2440  142.6830 C   0  0  0  0  0  2  0  0  0  0  0  0
  188.7000  178.3600  145.4580 C   0  0  0  0  0  1  0  0  0  0  0  0
  187.6630  176.2080  143.7710 C   0  0  2  0  0  3  0  0  0  0  0  0
  192.0790  175.7820  146.2120 O   0  0  0  0  0  0  0  0  0  0  0  0
  190.2870  176.9520  147.0260 O   0  0  0  0  0  1  0  0  0  0  0  0
  191.1120  176.7700  146.0910 C   0  0  0  0  0  0  0  0  0  0  0  0
  187.9830  179.0020  141.2240 O   0  0  0  0  0  0  0  0  0  0  0  0
  188.8870  178.1830  140.5240 C   0  0  0  0  0  2  0  0  0  0  0  0
  189.0120  178.6740  139.0970 C   0  0  0  0  0  1  0  0  0  0  0  0
  1 21  1  6  0  0  0
  1 13  1  0  0  0  0
  3  5  1  6  0  0  0
  3  4  1  0  0  0  0
  3  2  1  0  0  0  0
  4  2  1  0  0  0  0
  4  1  1  1  0  0  0
  5  6  1  6  0  0  0
  7  8  1  1  0  0  0
  7  5  1  0  0  0  0
  7  9  1  0  0  0  0
 10  9  1  0  0  0  0
 11 10  2  0  0  0  0
 13 12  1  6  0  0  0
 13 14  1  0  0  0  0
 14 18  1  1  0  0  0
 14 16  1  0  0  0  0
 16 17  1  0  0  0  0
 16 15  1  0  0  0  0
 17 15  1  0  0  0  0
 20 18  1  0  0  0  0
 20 19  2  0  0  0  0
 21 35  1  6  0  0  0
 22 25  1  0  0  0  0
 22 30  1  1  0  0  0
 23 25  1  0  0  0  0
 25 34  1  1  0  0  0
 26 21  1  1  0  0  0
 26 27  1  0  0  0  0
 26 31  1  0  0  0  0
 27 24  1  6  0  0  0
 27 31  1  0  0  0  0
 27 22  1  0  0  0  0
 29 24  1  0  0  0  0
 29 23  1  0  0  0  0
 31 28  1  6  0  0  0
 34 32  2  0  0  0  0
 34 33  1  0  0  0  0
 36 35  1  0  0  0  0
 37 36  1  0  0  0  0
M  END
>  <MODEL>
7

>  <REMARK>
 VINA RESULT:      -3.8      5.090      8.359
  Name = 
  15 active torsions:
  status: ('A' for Active; 'I' for Inactive)
    1  A    between atoms: C_1  and  C_5
    2  A    between atoms: C_1  and  C_23
    3  A    between atoms: C_5  and  C_26
    4  A    between atoms: C_8  and  C_19
    5  A    between atoms: C_9  and  C_13
    6  A    between atoms: C_9  and  C_16
    7  A    between atoms: C_9  and  C_30
    8  A    between atoms: C_10  and  C_29
    9  A    between atoms: C_11  and  C_26
   10  A    between atoms: C_13  and  C_20
   11  A    between atoms: C_16  and  C_24
   12  A    between atoms: C_20  and  C_25
   13  A    between atoms: C_20  and  C_29
   14  A    between atoms: C_27  and  O_33
   15  A    between atoms: C_29  and  O_33
                            x       y       z     vdW  Elec       q    Type
                         _______ _______ _______ _____ _____    ______ ____

>  <TORSDO>
F 15

$$$$
=
 OpenBabel11052415353D

 37 40  0  0  1  0  0  0  0  0999 V2000
  185.6270  177.0490  137.4100 C   0  0  2  0  0  3  0  0  0  0  0  0
  186.1720  178.6200  139.1350 O   0  0  0  0  0  0  0  0  0  0  0  0
  184.9800  178.0340  139.5980 C   0  0  2  0  0  3  0  0  0  0  0  0
  185.2030  178.3160  138.1570 C   0  0  2  0  0  3  0  0  0  0  0  0
  184.0770  179.0780  140.2820 C   0  0  1  0  0  3  0  0  0  0  0  0
  183.1030  179.8330  139.3680 C   0  0  0  0  0  1  0  0  0  0  0  0
  183.4180  178.5260  141.5490 C   0  0  2  0  0  3  0  0  0  0  0  0
  181.9700  178.9870  141.6890 C   0  0  0  0  0  1  0  0  0  0  0  0
  184.2250  178.9150  142.7810 C   0  0  0  0  0  2  0  0  0  0  0  0
  183.3610  178.9600  144.0020 C   0  0  0  0  0  3  0  0  0  0  0  0
  183.8620  179.0420  145.1140 O   0  0  0  0  0  0  0  0  0  0  0  0
  187.2410  178.7650  136.3790 C   0  0  0  0  0  1  0  0  0  0  0  0
  186.9860  177.3090  136.7370 C   0  0  1  0  0  3  0  0  0  0  0  0
  188.1830  176.5560  137.3660 C   0  0  1  0  0  3  0  0  0  0  0  0
  188.2700  174.2480  136.6500 O   0  0  0  0  0  0  0  0  0  0  0  0
  188.8550  175.4860  136.4890 C   0  0  0  0  0  3  0  0  0  0  0  0
  189.4260  174.5110  137.2780 O   0  0  0  0  0  0  0  0  0  0  0  0
  189.1950  177.4270  138.1140 C   0  0  0  0  0  2  0  0  0  0  0  0
  189.2430  177.9210  140.4150 O   0  0  0  0  0  0  0  0  0  0  0  0
  189.3100  177.0570  139.5580 C   0  0  0  0  0  3  0  0  0  0  0  0
  184.5300  176.5570  136.4290 C   0  0  1  0  0  3  0  0  0  0  0  0
  183.6370  173.7500  136.2040 C   0  0  1  0  0  3  0  0  0  0  0  0
  181.4010  173.0560  135.1770 C   0  0  0  0  0  2  0  0  0  0  0  0
  181.4050  174.5370  137.1010 O   0  0  0  0  0  0  0  0  0  0  0  0
  182.7630  172.5790  135.7110 C   0  0  2  0  0  3  0  0  0  0  0  0
  183.1960  176.2230  137.1320 C   0  0  1  0  0  3  0  0  0  0  0  0
  182.7990  174.7450  137.0530 C   0  0  2  0  0  0  0  0  0  0  0  0
  182.4390  175.5430  139.2920 O   0  0  0  0  0  1  0  0  0  0  0  0
  180.9680  174.4050  135.7700 C   0  0  0  0  0  2  0  0  0  0  0  0
  184.9340  173.2770  136.8560 C   0  0  0  0  0  1  0  0  0  0  0  0
  183.4180  175.2990  138.3270 C   0  0  2  0  0  3  0  0  0  0  0  0
  183.3930  170.3930  136.7420 O   0  0  0  0  0  0  0  0  0  0  0  0
  181.6630  171.6120  137.6160 O   0  0  0  0  0  1  0  0  0  0  0  0
  182.5660  171.5090  136.7450 C   0  0  0  0  0  0  0  0  0  0  0  0
  184.3530  177.4200  135.3170 O   0  0  0  0  0  0  0  0  0  0  0  0
  183.2130  177.0270  134.5940 C   0  0  0  0  0  2  0  0  0  0  0  0
  182.2020  178.1540  134.5950 C   0  0  0  0  0  1  0  0  0  0  0  0
  1 21  1  6  0  0  0
  2  3  1  0  0  0  0
  3  5  1  1  0  0  0
  4  1  1  6  0  0  0
  4  2  1  0  0  0  0
  4  3  1  0  0  0  0
  5  6  1  6  0  0  0
  5  7  1  0  0  0  0
  7  8  1  1  0  0  0
  7  9  1  0  0  0  0
  9 10  1  0  0  0  0
 10 11  2  0  0  0  0
 13 12  1  1  0  0  0
 13 14  1  0  0  0  0
 13  1  1  0  0  0  0
 14 18  1  6  0  0  0
 15 17  1  0  0  0  0
 16 15  1  0  0  0  0
 16 17  1  0  0  0  0
 16 14  1  0  0  0  0
 18 20  1  0  0  0  0
 20 19  2  0  0  0  0
 21 35  1  6  0  0  0
 22 30  1  1  0  0  0
 22 27  1  0  0  0  0
 23 25  1  0  0  0  0
 23 29  1  0  0  0  0
 25 22  1  0  0  0  0
 25 34  1  1  0  0  0
 26 21  1  6  0  0  0
 26 31  1  0  0  0  0
 27 24  1  1  0  0  0
 27 26  1  0  0  0  0
 27 31  1  0  0  0  0
 29 24  1  0  0  0  0
 31 28  1  1  0  0  0
 32 34  2  0  0  0  0
 34 33  1  0  0  0  0
 36 37  1  0  0  0  0
 36 35  1  0  0  0  0
M  END
>  <MODEL>
8

>  <REMARK>
 VINA RESULT:      -3.8      4.038      8.718
  Name = 
  15 active torsions:
  status: ('A' for Active; 'I' for Inactive)
    1  A    between atoms: C_1  and  C_5
    2  A    between atoms: C_1  and  C_23
    3  A    between atoms: C_5  and  C_26
    4  A    between atoms: C_8  and  C_19
    5  A    between atoms: C_9  and  C_13
    6  A    between atoms: C_9  and  C_16
    7  A    between atoms: C_9  and  C_30
    8  A    between atoms: C_10  and  C_29
    9  A    between atoms: C_11  and  C_26
   10  A    between atoms: C_13  and  C_20
   11  A    between atoms: C_16  and  C_24
   12  A    between atoms: C_20  and  C_25
   13  A    between atoms: C_20  and  C_29
   14  A    between atoms: C_27  and  O_33
   15  A    between atoms: C_29  and  O_33
                            x       y       z     vdW  Elec       q    Type
                         _______ _______ _______ _____ _____    ______ ____

>  <TORSDO>
F 15

$$$$
=
 OpenBabel11052415353D

 37 40  0  0  1  0  0  0  0  0999 V2000
  184.0190  176.0810  136.6990 C   0  0  2  0  0  3  0  0  0  0  0  0
  186.2670  175.5260  136.0830 O   0  0  0  0  0  0  0  0  0  0  0  0
  186.4250  176.6750  136.8800 C   0  0  2  0  0  3  0  0  0  0  0  0
  185.2780  176.5230  135.9490 C   0  0  2  0  0  3  0  0  0  0  0  0
  187.5340  177.5880  136.3230 C   0  0  1  0  0  3  0  0  0  0  0  0
  187.3060  179.0980  136.4720 C   0  0  0  0  0  1  0  0  0  0  0  0
  188.9280  177.1370  136.7700 C   0  0  2  0  0  3  0  0  0  0  0  0
  189.6310  176.3040  135.7030 C   0  0  0  0  0  1  0  0  0  0  0  0
  188.8430  176.3680  138.0820 C   0  0  0  0  0  2  0  0  0  0  0  0
  189.0990  177.2640  139.2520 C   0  0  0  0  0  3  0  0  0  0  0  0
  189.8060  178.2530  139.1340 O   0  0  0  0  0  0  0  0  0  0  0  0
  183.9470  174.6060  134.5940 C   0  0  0  0  0  1  0  0  0  0  0  0
  183.4610  174.8180  136.0200 C   0  0  1  0  0  3  0  0  0  0  0  0
  183.4330  173.5530  136.9110 C   0  0  1  0  0  3  0  0  0  0  0  0
  181.3870  172.2770  136.7230 O   0  0  0  0  0  0  0  0  0  0  0  0
  182.7080  172.3260  136.3330 C   0  0  0  0  0  3  0  0  0  0  0  0
  182.2840  171.4990  137.3500 O   0  0  0  0  0  0  0  0  0  0  0  0
  184.7540  173.1930  137.5930 C   0  0  0  0  0  2  0  0  0  0  0  0
  186.8010  172.3130  136.8330 O   0  0  0  0  0  0  0  0  0  0  0  0
  185.5840  172.2570  136.7750 C   0  0  0  0  0  3  0  0  0  0  0  0
  182.9830  177.2300  136.8240 C   0  0  1  0  0  3  0  0  0  0  0  0
  181.0560  177.4980  139.0470 C   0  0  1  0  0  3  0  0  0  0  0  0
  179.8920  179.6910  139.6530 C   0  0  0  0  0  2  0  0  0  0  0  0
  182.3180  179.5920  139.7020 O   0  0  0  0  0  0  0  0  0  0  0  0
  179.9590  178.1740  139.8950 C   0  0  2  0  0  3  0  0  0  0  0  0
  183.3560  178.2640  137.9090 C   0  0  1  0  0  3  0  0  0  0  0  0
  182.3690  178.3260  139.0800 C   0  0  2  0  0  0  0  0  0  0  0  0
  184.6160  178.3490  139.9350 O   0  0  0  0  0  1  0  0  0  0  0  0
  181.2200  180.2730  139.1440 C   0  0  0  0  0  2  0  0  0  0  0  0
  181.2190  176.0150  139.3770 C   0  0  0  0  0  1  0  0  0  0  0  0
  183.6850  177.5800  139.2340 C   0  0  2  0  0  3  0  0  0  0  0  0
  181.0710  178.5290  142.1030 O   0  0  0  0  0  1  0  0  0  0  0  0
  179.3070  177.0790  141.9330 O   0  0  0  0  0  0  0  0  0  0  0  0
  180.0850  177.8890  141.3640 C   0  0  0  0  0  0  0  0  0  0  0  0
  182.6780  177.8390  135.5800 O   0  0  0  0  0  0  0  0  0  0  0  0
  181.3190  178.2000  135.5550 C   0  0  0  0  0  2  0  0  0  0  0  0
  180.4690  176.9530  135.4360 C   0  0  0  0  0  1  0  0  0  0  0  0
  1 13  1  6  0  0  0
  1 21  1  0  0  0  0
  2  3  1  0  0  0  0
  3  5  1  6  0  0  0
  4  2  1  0  0  0  0
  4  1  1  1  0  0  0
  4  3  1  0  0  0  0
  5  6  1  1  0  0  0
  5  7  1  0  0  0  0
  7  8  1  6  0  0  0
  7  9  1  0  0  0  0
  9 10  1  0  0  0  0
 11 10  2  0  0  0  0
 13 12  1  6  0  0  0
 13 14  1  0  0  0  0
 14 18  1  6  0  0  0
 15 17  1  0  0  0  0
 16 15  1  0  0  0  0
 16 14  1  0  0  0  0
 16 17  1  0  0  0  0
 20 19  2  0  0  0  0
 20 18  1  0  0  0  0
 21 35  1  6  0  0  0
 22 27  1  0  0  0  0
 22 30  1  1  0  0  0
 22 25  1  0  0  0  0
 23 25  1  0  0  0  0
 25 34  1  1  0  0  0
 26 21  1  6  0  0  0
 26 27  1  0  0  0  0
 26 31  1  0  0  0  0
 27 31  1  0  0  0  0
 27 24  1  1  0  0  0
 29 23  1  0  0  0  0
 29 24  1  0  0  0  0
 31 28  1  1  0  0  0
 34 33  2  0  0  0  0
 34 32  1  0  0  0  0
 36 35  1  0  0  0  0
 37 36  1  0  0  0  0
M  END
>  <MODEL>
9

>  <REMARK>
 VINA RESULT:      -3.7      4.271     10.113
  Name = 
  15 active torsions:
  status: ('A' for Active; 'I' for Inactive)
    1  A    between atoms: C_1  and  C_5
    2  A    between atoms: C_1  and  C_23
    3  A    between atoms: C_5  and  C_26
    4  A    between atoms: C_8  and  C_19
    5  A    between atoms: C_9  and  C_13
    6  A    between atoms: C_9  and  C_16
    7  A    between atoms: C_9  and  C_30
    8  A    between atoms: C_10  and  C_29
    9  A    between atoms: C_11  and  C_26
   10  A    between atoms: C_13  and  C_20
   11  A    between atoms: C_16  and  C_24
   12  A    between atoms: C_20  and  C_25
   13  A    between atoms: C_20  and  C_29
   14  A    between atoms: C_27  and  O_33
   15  A    between atoms: C_29  and  O_33
                            x       y       z     vdW  Elec       q    Type
                         _______ _______ _______ _____ _____    ______ ____

>  <TORSDO>
F 15

$$$$
