=
 OpenBabel11052416123D

 43 47  0  0  1  0  0  0  0  0999 V2000
  194.1510  175.3700  136.4470 C   0  0  0  0  0  0  0  0  0  0  0  0
  190.5320  177.4540  139.1590 C   0  0  0  0  0  0  0  0  0  0  0  0
  188.6350  177.7300  138.2290 C   0  0  0  0  0  0  0  0  0  0  0  0
  192.8940  176.3710  138.1960 C   0  0  0  0  0  0  0  0  0  0  0  0
  193.0500  175.4270  135.5860 C   0  0  0  0  0  3  0  0  0  0  0  0
  195.3810  174.8230  135.9880 N   0  0  0  0  0  1  0  0  0  0  0  0
  191.7580  176.4460  137.3490 C   0  0  0  0  0  0  0  0  0  0  0  0
  194.0520  175.8390  137.7220 N   0  0  0  0  0  0  0  0  0  0  0  0
  191.8450  175.9690  136.0400 C   0  0  0  0  0  3  0  0  0  0  0  0
  189.4010  177.1620  137.2600 N   0  0  0  0  0  0  0  0  0  0  0  0
  190.5900  177.0000  137.8720 C   0  0  0  0  0  0  0  0  0  0  0  0
  191.6260  177.3940  140.0240 C   0  0  0  0  0  3  0  0  0  0  0  0
  189.2960  177.9110  139.3990 N   0  0  0  0  0  0  0  0  0  0  0  0
  192.8210  176.8440  139.5250 C   0  0  0  0  0  3  0  0  0  0  0  0
  187.2030  178.1080  138.0190 C   0  0  1  0  0  3  0  0  0  0  0  0
  187.1290  179.1870  137.1360 O   0  0  0  0  0  1  0  0  0  0  0  0
  186.4210  176.9230  137.4710 C   0  0  0  0  0  2  0  0  0  0  0  0
  185.0320  177.2990  137.2590 N   0  0  0  0  0  2  0  0  0  0  0  0
  184.3210  177.1060  138.5170 C   0  0  0  0  0  2  0  0  0  0  0  0
  183.2940  178.2170  138.7630 C   0  0  0  0  0  0  0  0  0  0  0  0
  182.3040  178.2650  137.6070 C   0  0  0  0  0  1  0  0  0  0  0  0
  184.0050  179.5600  138.8610 C   0  0  0  0  0  1  0  0  0  0  0  0
  182.5280  177.9230  140.0650 C   0  0  1  0  0  3  0  0  0  0  0  0
  181.7380  176.7760  139.9370 O   0  0  0  0  0  0  0  0  0  0  0  0
  180.4660  177.1660  140.3580 C   0  0  0  0  0  1  0  0  0  0  0  0
  183.4110  177.7640  141.1410 O   0  0  0  0  0  0  0  0  0  0  0  0
  183.0680  178.7770  142.0410 C   0  0  0  0  0  2  0  0  0  0  0  0
  183.8690  178.6340  143.2850 C   0  0  0  0  0  0  0  0  0  0  0  0
  184.0540  178.8120  145.6940 C   0  0  0  0  0  3  0  0  0  0  0  0
  185.9690  178.1200  144.3800 C   0  0  0  0  0  3  0  0  0  0  0  0
  185.3900  178.4070  145.6220 C   0  0  0  0  0  3  0  0  0  0  0  0
  185.2090  178.2360  143.2120 C   0  0  0  0  0  3  0  0  0  0  0  0
  183.2940  178.9280  144.5260 C   0  0  0  0  0  3  0  0  0  0  0  0
  188.7570  178.4390  140.6500 C   0  0  0  0  0  2  0  0  0  0  0  0
  188.3830  177.3100  141.6060 C   0  0  0  0  0  2  0  0  0  0  0  0
  191.0770  175.9900  143.9200 C   0  0  0  0  0  3  0  0  0  0  0  0
  191.1170  176.9890  144.9060 C   0  0  0  0  0  0  0  0  0  0  0  0
  189.3820  178.2060  143.7210 C   0  0  0  0  0  3  0  0  0  0  0  0
  190.1940  176.1000  142.8420 C   0  0  0  0  0  3  0  0  0  0  0  0
  189.3450  177.2090  142.7420 C   0  0  0  0  0  0  0  0  0  0  0  0
  190.2690  178.0970  144.7960 C   0  0  0  0  0  3  0  0  0  0  0  0
  191.5440  176.5420  147.3010 C   0  0  0  0  0  1  0  0  0  0  0  0
  191.9830  176.9060  145.9990 O   0  0  0  0  0  0  0  0  0  0  0  0
  1  8  1  0  0  0  0
  2 13  1  0  0  0  0
  2 12  1  0  0  0  0
  3 13  1  0  0  0  0
  4 14  1  0  0  0  0
  5  9  1  0  0  0  0
  5  1  2  0  0  0  0
  6  1  1  0  0  0  0
  7 11  1  0  0  0  0
  7  4  1  0  0  0  0
  8  4  2  0  0  0  0
  9  7  2  0  0  0  0
 10 11  1  0  0  0  0
 10  3  2  0  0  0  0
 11  2  2  0  0  0  0
 13 34  1  0  0  0  0
 14 12  2  0  0  0  0
 15 16  1  6  0  0  0
 15  3  1  0  0  0  0
 17 15  1  0  0  0  0
 18 17  1  0  0  0  0
 18 19  1  0  0  0  0
 19 20  1  0  0  0  0
 20 22  1  0  0  0  0
 20 23  1  0  0  0  0
 21 20  1  0  0  0  0
 23 24  1  6  0  0  0
 23 26  1  0  0  0  0
 24 25  1  0  0  0  0
 26 27  1  0  0  0  0
 27 28  1  0  0  0  0
 28 33  1  0  0  0  0
 30 31  2  0  0  0  0
 31 29  1  0  0  0  0
 32 28  2  0  0  0  0
 32 30  1  0  0  0  0
 33 29  2  0  0  0  0
 34 35  1  0  0  0  0
 35 40  1  0  0  0  0
 36 37  1  0  0  0  0
 37 43  1  0  0  0  0
 38 41  1  0  0  0  0
 39 36  2  0  0  0  0
 40 39  1  0  0  0  0
 40 38  2  0  0  0  0
 41 37  2  0  0  0  0
 43 42  1  0  0  0  0
M  END
>  <MODEL>
1

>  <REMARK>
 VINA RESULT:      -8.3      0.000      0.000
  Name = 
  14 active torsions:
  status: ('A' for Active; 'I' for Inactive)
    1  A    between atoms: C_1  and  C_35
    2  A    between atoms: C_1  and  C_38
    3  A    between atoms: C_2  and  C_6
    4  A    between atoms: C_2  and  C_13
    5  A    between atoms: C_3  and  C_4
    6  A    between atoms: C_3  and  N_17
    7  A    between atoms: C_4  and  C_22
    8  A    between atoms: C_6  and  N_17
    9  A    between atoms: O_10  and  C_22
   10  A    between atoms: C_11  and  C_41
   11  A    between atoms: O_14  and  C_22
   12  A    between atoms: O_14  and  C_41
   13  A    between atoms: C_19  and  O_37
   14  A    between atoms: N_34  and  C_38
                            x       y       z     vdW  Elec       q    Type
                         _______ _______ _______ _____ _____    ______ ____

>  <TORSDO>
F 14

$$$$
=
 OpenBabel11052416123D

 43 47  0  0  1  0  0  0  0  0999 V2000
  191.2050  176.6920  138.4490 C   0  0  0  0  0  0  0  0  0  0  0  0
  187.3690  178.5550  141.0180 C   0  0  0  0  0  0  0  0  0  0  0  0
  185.5450  178.8870  139.9690 C   0  0  0  0  0  0  0  0  0  0  0  0
  189.8090  177.5580  140.1640 C   0  0  0  0  0  0  0  0  0  0  0  0
  190.1720  176.8040  137.5130 C   0  0  0  0  0  3  0  0  0  0  0  0
  192.4730  176.1860  138.0480 N   0  0  0  0  0  1  0  0  0  0  0  0
  188.7400  177.6870  139.2410 C   0  0  0  0  0  0  0  0  0  0  0  0
  191.0050  177.0680  139.7430 N   0  0  0  0  0  0  0  0  0  0  0  0
  188.9300  177.3050  137.9110 C   0  0  0  0  0  3  0  0  0  0  0  0
  186.3880  178.3930  139.0230 N   0  0  0  0  0  0  0  0  0  0  0  0
  187.5290  178.1950  139.7110 C   0  0  0  0  0  0  0  0  0  0  0  0
  188.3960  178.4400  141.9580 C   0  0  0  0  0  3  0  0  0  0  0  0
  186.1130  178.9870  141.1960 N   0  0  0  0  0  0  0  0  0  0  0  0
  189.6310  177.9350  141.5130 C   0  0  0  0  0  3  0  0  0  0  0  0
  184.1290  179.2700  139.6780 C   0  0  1  0  0  3  0  0  0  0  0  0
  184.1060  180.4740  138.9710 O   0  0  0  0  0  1  0  0  0  0  0  0
  183.4400  178.1740  138.8770 C   0  0  0  0  0  2  0  0  0  0  0  0
  182.4070  178.7510  138.0300 N   0  0  0  0  0  2  0  0  0  0  0  0
  181.3800  177.7360  137.8270 C   0  0  0  0  0  2  0  0  0  0  0  0
  179.9980  178.3640  137.6140 C   0  0  0  0  0  0  0  0  0  0  0  0
  178.9800  177.6810  138.5170 C   0  0  0  0  0  1  0  0  0  0  0  0
  179.5710  178.1840  136.1630 C   0  0  0  0  0  1  0  0  0  0  0  0
  180.0580  179.8590  137.9710 C   0  0  1  0  0  3  0  0  0  0  0  0
  179.6530  180.6520  136.8910 O   0  0  0  0  0  0  0  0  0  0  0  0
  180.7050  181.5460  136.6860 C   0  0  0  0  0  1  0  0  0  0  0  0
  179.2560  180.1420  139.0840 O   0  0  0  0  0  0  0  0  0  0  0  0
  180.0880  180.8500  139.9560 C   0  0  0  0  0  2  0  0  0  0  0  0
  180.1270  180.1660  141.2760 C   0  0  0  0  0  0  0  0  0  0  0  0
  181.0170  178.4340  142.7160 C   0  0  0  0  0  3  0  0  0  0  0  0
  179.2950  179.9260  143.5390 C   0  0  0  0  0  3  0  0  0  0  0  0
  180.1690  178.8530  143.7460 C   0  0  0  0  0  3  0  0  0  0  0  0
  179.2720  180.5820  142.3040 C   0  0  0  0  0  3  0  0  0  0  0  0
  180.9950  179.0890  141.4800 C   0  0  0  0  0  3  0  0  0  0  0  0
  185.4760  179.4210  142.4370 C   0  0  0  0  0  2  0  0  0  0  0  0
  184.9710  178.2260  143.2410 C   0  0  0  0  0  2  0  0  0  0  0  0
  185.8570  178.8690  146.8680 C   0  0  0  0  0  3  0  0  0  0  0  0
  186.9470  178.0010  147.0510 C   0  0  0  0  0  0  0  0  0  0  0  0
  186.7300  177.2690  144.7470 C   0  0  0  0  0  3  0  0  0  0  0  0
  185.2100  178.9340  145.6320 C   0  0  0  0  0  3  0  0  0  0  0  0
  185.6460  178.1330  144.5690 C   0  0  0  0  0  0  0  0  0  0  0  0
  187.3730  177.2010  145.9850 C   0  0  0  0  0  3  0  0  0  0  0  0
  188.9830  178.2930  148.4260 C   0  0  0  0  0  1  0  0  0  0  0  0
  187.6200  177.9170  148.2720 O   0  0  0  0  0  0  0  0  0  0  0  0
  1  8  1  0  0  0  0
  2 13  1  0  0  0  0
  2 12  1  0  0  0  0
  3 13  1  0  0  0  0
  4 14  1  0  0  0  0
  5  9  1  0  0  0  0
  5  1  2  0  0  0  0
  6  1  1  0  0  0  0
  7 11  1  0  0  0  0
  7  4  1  0  0  0  0
  8  4  2  0  0  0  0
  9  7  2  0  0  0  0
 10 11  1  0  0  0  0
 10  3  2  0  0  0  0
 11  2  2  0  0  0  0
 13 34  1  0  0  0  0
 14 12  2  0  0  0  0
 15 16  1  6  0  0  0
 15  3  1  0  0  0  0
 17 15  1  0  0  0  0
 18 17  1  0  0  0  0
 19 18  1  0  0  0  0
 20 19  1  0  0  0  0
 20 23  1  0  0  0  0
 20 21  1  0  0  0  0
 22 20  1  0  0  0  0
 23 24  1  6  0  0  0
 23 26  1  0  0  0  0
 25 24  1  0  0  0  0
 26 27  1  0  0  0  0
 27 28  1  0  0  0  0
 28 33  2  0  0  0  0
 28 32  1  0  0  0  0
 29 31  2  0  0  0  0
 30 31  1  0  0  0  0
 32 30  2  0  0  0  0
 33 29  1  0  0  0  0
 34 35  1  0  0  0  0
 35 40  1  0  0  0  0
 36 37  1  0  0  0  0
 37 43  1  0  0  0  0
 38 41  1  0  0  0  0
 39 36  2  0  0  0  0
 40 38  2  0  0  0  0
 40 39  1  0  0  0  0
 41 37  2  0  0  0  0
 43 42  1  0  0  0  0
M  END
>  <MODEL>
2

>  <REMARK>
 VINA RESULT:      -8.1      2.584      4.369
  Name = 
  14 active torsions:
  status: ('A' for Active; 'I' for Inactive)
    1  A    between atoms: C_1  and  C_35
    2  A    between atoms: C_1  and  C_38
    3  A    between atoms: C_2  and  C_6
    4  A    between atoms: C_2  and  C_13
    5  A    between atoms: C_3  and  C_4
    6  A    between atoms: C_3  and  N_17
    7  A    between atoms: C_4  and  C_22
    8  A    between atoms: C_6  and  N_17
    9  A    between atoms: O_10  and  C_22
   10  A    between atoms: C_11  and  C_41
   11  A    between atoms: O_14  and  C_22
   12  A    between atoms: O_14  and  C_41
   13  A    between atoms: C_19  and  O_37
   14  A    between atoms: N_34  and  C_38
                            x       y       z     vdW  Elec       q    Type
                         _______ _______ _______ _____ _____    ______ ____

>  <TORSDO>
F 14

$$$$
=
 OpenBabel11052416123D

 43 47  0  0  1  0  0  0  0  0999 V2000
  185.4980  178.5720  146.3730 C   0  0  0  0  0  0  0  0  0  0  0  0
  182.7680  178.8890  142.2210 C   0  0  0  0  0  0  0  0  0  0  0  0
  183.8020  178.9260  140.3590 C   0  0  0  0  0  0  0  0  0  0  0  0
  183.7040  178.7240  144.8240 C   0  0  0  0  0  0  0  0  0  0  0  0
  186.4330  178.5840  145.3330 C   0  0  0  0  0  3  0  0  0  0  0  0
  185.9400  178.4900  147.7220 N   0  0  0  0  0  1  0  0  0  0  0  0
  184.6250  178.7400  143.7450 C   0  0  0  0  0  0  0  0  0  0  0  0
  184.1660  178.6420  146.1000 N   0  0  0  0  0  0  0  0  0  0  0  0
  185.9940  178.6680  144.0090 C   0  0  0  0  0  3  0  0  0  0  0  0
  184.7920  178.8470  141.2880 N   0  0  0  0  0  0  0  0  0  0  0  0
  184.1130  178.8260  142.4510 C   0  0  0  0  0  0  0  0  0  0  0  0
  181.8300  178.8720  143.2550 C   0  0  0  0  0  3  0  0  0  0  0  0
  182.5580  178.9440  140.8990 N   0  0  0  0  0  0  0  0  0  0  0  0
  182.3160  178.7900  144.5730 C   0  0  0  0  0  3  0  0  0  0  0  0
  184.0680  178.9800  138.8880 C   0  0  1  0  0  3  0  0  0  0  0  0
  184.6720  180.1960  138.5650 O   0  0  0  0  0  1  0  0  0  0  0  0
  184.9610  177.8200  138.4710 C   0  0  0  0  0  2  0  0  0  0  0  0
  186.2520  178.3210  138.0250 N   0  0  0  0  0  2  0  0  0  0  0  0
  187.0680  177.1730  137.6450 C   0  0  0  0  0  2  0  0  0  0  0  0
  188.5640  177.5030  137.6920 C   0  0  0  0  0  0  0  0  0  0  0  0
  188.7580  179.0120  137.6190 C   0  0  0  0  0  1  0  0  0  0  0  0
  189.2690  176.8560  136.5070 C   0  0  0  0  0  1  0  0  0  0  0  0
  189.1580  176.9860  139.0130 C   0  0  1  0  0  3  0  0  0  0  0  0
  190.4050  176.3860  138.8060 O   0  0  0  0  0  0  0  0  0  0  0  0
  191.2760  177.0610  139.6630 C   0  0  0  0  0  1  0  0  0  0  0  0
  189.2900  178.0250  139.9440 O   0  0  0  0  0  0  0  0  0  0  0  0
  188.3010  177.7800  140.9000 C   0  0  0  0  0  2  0  0  0  0  0  0
  188.9230  177.6610  142.2460 C   0  0  0  0  0  0  0  0  0  0  0  0
  190.3970  178.5320  143.9590 C   0  0  0  0  0  3  0  0  0  0  0  0
  189.2580  176.4210  144.3000 C   0  0  0  0  0  3  0  0  0  0  0  0
  190.1270  177.4170  144.7590 C   0  0  0  0  0  3  0  0  0  0  0  0
  188.6580  176.5420  143.0420 C   0  0  0  0  0  3  0  0  0  0  0  0
  189.7970  178.6540  142.7010 C   0  0  0  0  0  3  0  0  0  0  0  0
  181.2820  178.9660  140.1880 C   0  0  0  0  0  2  0  0  0  0  0  0
  180.4050  180.1180  140.6700 C   0  0  0  0  0  2  0  0  0  0  0  0
  179.0450  183.0520  138.6970 C   0  0  0  0  0  3  0  0  0  0  0  0
  179.9650  183.1310  137.6380 C   0  0  0  0  0  0  0  0  0  0  0  0
  181.1820  181.2510  138.5750 C   0  0  0  0  0  3  0  0  0  0  0  0
  179.1950  182.0770  139.6870 C   0  0  0  0  0  3  0  0  0  0  0  0
  180.2640  181.1760  139.6270 C   0  0  0  0  0  0  0  0  0  0  0  0
  181.0340  182.2290  137.5880 C   0  0  0  0  0  3  0  0  0  0  0  0
  180.9590  184.6320  135.9420 C   0  0  0  0  0  1  0  0  0  0  0  0
  179.8400  184.0880  136.6280 O   0  0  0  0  0  0  0  0  0  0  0  0
  1  6  1  0  0  0  0
  2 11  2  0  0  0  0
  2 12  1  0  0  0  0
  3 13  1  0  0  0  0
  3 10  2  0  0  0  0
  4  8  2  0  0  0  0
  5  1  2  0  0  0  0
  7  9  2  0  0  0  0
  7  4  1  0  0  0  0
  8  1  1  0  0  0  0
  9  5  1  0  0  0  0
 10 11  1  0  0  0  0
 11  7  1  0  0  0  0
 12 14  2  0  0  0  0
 13  2  1  0  0  0  0
 14  4  1  0  0  0  0
 15 16  1  1  0  0  0
 15  3  1  0  0  0  0
 17 15  1  0  0  0  0
 18 17  1  0  0  0  0
 19 20  1  0  0  0  0
 19 18  1  0  0  0  0
 20 23  1  0  0  0  0
 21 20  1  0  0  0  0
 22 20  1  0  0  0  0
 23 24  1  6  0  0  0
 23 26  1  0  0  0  0
 24 25  1  0  0  0  0
 26 27  1  0  0  0  0
 27 28  1  0  0  0  0
 28 33  2  0  0  0  0
 28 32  1  0  0  0  0
 29 31  2  0  0  0  0
 30 31  1  0  0  0  0
 32 30  2  0  0  0  0
 33 29  1  0  0  0  0
 34 35  1  0  0  0  0
 34 13  1  0  0  0  0
 36 39  1  0  0  0  0
 37 36  2  0  0  0  0
 38 40  1  0  0  0  0
 40 39  2  0  0  0  0
 40 35  1  0  0  0  0
 41 37  1  0  0  0  0
 41 38  2  0  0  0  0
 42 43  1  0  0  0  0
 43 37  1  0  0  0  0
M  END
>  <MODEL>
3

>  <REMARK>
 VINA RESULT:      -8.0      3.500      9.527
  Name = 
  14 active torsions:
  status: ('A' for Active; 'I' for Inactive)
    1  A    between atoms: C_1  and  C_35
    2  A    between atoms: C_1  and  C_38
    3  A    between atoms: C_2  and  C_6
    4  A    between atoms: C_2  and  C_13
    5  A    between atoms: C_3  and  C_4
    6  A    between atoms: C_3  and  N_17
    7  A    between atoms: C_4  and  C_22
    8  A    between atoms: C_6  and  N_17
    9  A    between atoms: O_10  and  C_22
   10  A    between atoms: C_11  and  C_41
   11  A    between atoms: O_14  and  C_22
   12  A    between atoms: O_14  and  C_41
   13  A    between atoms: C_19  and  O_37
   14  A    between atoms: N_34  and  C_38
                            x       y       z     vdW  Elec       q    Type
                         _______ _______ _______ _____ _____    ______ ____

>  <TORSDO>
F 14

$$$$
=
 OpenBabel11052416123D

 43 47  0  0  1  0  0  0  0  0999 V2000
  190.9200  176.7670  138.0070 C   0  0  0  0  0  0  0  0  0  0  0  0
  187.2520  178.5250  140.8790 C   0  0  0  0  0  0  0  0  0  0  0  0
  185.3840  178.9500  139.9470 C   0  0  0  0  0  0  0  0  0  0  0  0
  189.6270  177.5460  139.8410 C   0  0  0  0  0  0  0  0  0  0  0  0
  189.8430  176.9540  137.1340 C   0  0  0  0  0  3  0  0  0  0  0  0
  192.1560  176.2680  137.5110 N   0  0  0  0  0  1  0  0  0  0  0  0
  188.5150  177.7490  138.9830 C   0  0  0  0  0  0  0  0  0  0  0  0
  190.7910  177.0640  139.3300 N   0  0  0  0  0  0  0  0  0  0  0  0
  188.6320  177.4490  137.6250 C   0  0  0  0  0  3  0  0  0  0  0  0
  186.1700  178.5040  138.9300 N   0  0  0  0  0  0  0  0  0  0  0  0
  187.3400  178.2460  139.5450 C   0  0  0  0  0  0  0  0  0  0  0  0
  188.3210  178.3350  141.7560 C   0  0  0  0  0  3  0  0  0  0  0  0
  186.0150  178.9650  141.1470 N   0  0  0  0  0  0  0  0  0  0  0  0
  189.5230  177.8400  141.2190 C   0  0  0  0  0  3  0  0  0  0  0  0
  183.9630  179.3730  139.7520 C   0  0  1  0  0  3  0  0  0  0  0  0
  183.9160  180.4800  138.9020 O   0  0  0  0  0  1  0  0  0  0  0  0
  183.1460  178.2270  139.1720 C   0  0  0  0  0  2  0  0  0  0  0  0
  182.6040  178.6080  137.8760 N   0  0  0  0  0  2  0  0  0  0  0  0
  181.2110  178.1780  137.8330 C   0  0  0  0  0  2  0  0  0  0  0  0
  180.9450  177.2450  136.6470 C   0  0  0  0  0  0  0  0  0  0  0  0
  182.0520  177.4010  135.6120 C   0  0  0  0  0  1  0  0  0  0  0  0
  179.6130  177.6010  136.0020 C   0  0  0  0  0  1  0  0  0  0  0  0
  180.9250  175.7880  137.1400 C   0  0  1  0  0  3  0  0  0  0  0  0
  179.6680  175.2050  136.9430 O   0  0  0  0  0  0  0  0  0  0  0  0
  179.1330  175.0630  138.2240 C   0  0  0  0  0  1  0  0  0  0  0  0
  181.9010  175.0230  136.4860 O   0  0  0  0  0  0  0  0  0  0  0  0
  182.4460  174.2080  137.4820 C   0  0  0  0  0  2  0  0  0  0  0  0
  183.9270  174.1780  137.3480 C   0  0  0  0  0  0  0  0  0  0  0  0
  186.0210  172.9690  137.4850 C   0  0  0  0  0  3  0  0  0  0  0  0
  186.0160  175.3200  136.9030 C   0  0  0  0  0  3  0  0  0  0  0  0
  186.7160  174.1320  137.1390 C   0  0  0  0  0  3  0  0  0  0  0  0
  184.6220  175.3440  137.0090 C   0  0  0  0  0  3  0  0  0  0  0  0
  184.6270  172.9910  137.5920 C   0  0  0  0  0  3  0  0  0  0  0  0
  185.4480  179.3290  142.4430 C   0  0  0  0  0  2  0  0  0  0  0  0
  185.0700  178.0880  143.2460 C   0  0  0  0  0  2  0  0  0  0  0  0
  185.7130  178.7740  146.9160 C   0  0  0  0  0  3  0  0  0  0  0  0
  186.9480  178.1340  147.1110 C   0  0  0  0  0  0  0  0  0  0  0  0
  186.9420  177.4480  144.7820 C   0  0  0  0  0  3  0  0  0  0  0  0
  185.0990  178.7510  145.6600 C   0  0  0  0  0  3  0  0  0  0  0  0
  185.7140  178.0870  144.5920 C   0  0  0  0  0  0  0  0  0  0  0  0
  187.5530  177.4680  146.0390 C   0  0  0  0  0  3  0  0  0  0  0  0
  189.0070  178.1540  148.4820 C   0  0  0  0  0  1  0  0  0  0  0  0
  187.5910  178.1450  148.3510 O   0  0  0  0  0  0  0  0  0  0  0  0
  1  8  1  0  0  0  0
  2 13  1  0  0  0  0
  2 12  1  0  0  0  0
  3 13  1  0  0  0  0
  4 14  1  0  0  0  0
  5  9  1  0  0  0  0
  5  1  2  0  0  0  0
  6  1  1  0  0  0  0
  7 11  1  0  0  0  0
  7  4  1  0  0  0  0
  8  4  2  0  0  0  0
  9  7  2  0  0  0  0
 10 11  1  0  0  0  0
 10  3  2  0  0  0  0
 11  2  2  0  0  0  0
 13 34  1  0  0  0  0
 14 12  2  0  0  0  0
 15 16  1  6  0  0  0
 15  3  1  0  0  0  0
 17 15  1  0  0  0  0
 18 17  1  0  0  0  0
 19 18  1  0  0  0  0
 20 23  1  0  0  0  0
 20 19  1  0  0  0  0
 21 20  1  0  0  0  0
 22 20  1  0  0  0  0
 23 26  1  6  0  0  0
 24 23  1  0  0  0  0
 24 25  1  0  0  0  0
 26 27  1  0  0  0  0
 28 27  1  0  0  0  0
 28 33  1  0  0  0  0
 29 33  2  0  0  0  0
 30 32  1  0  0  0  0
 30 31  2  0  0  0  0
 31 29  1  0  0  0  0
 32 28  2  0  0  0  0
 34 35  1  0  0  0  0
 35 40  1  0  0  0  0
 36 37  1  0  0  0  0
 37 43  1  0  0  0  0
 38 41  1  0  0  0  0
 39 36  2  0  0  0  0
 40 38  2  0  0  0  0
 40 39  1  0  0  0  0
 41 37  2  0  0  0  0
 43 42  1  0  0  0  0
M  END
>  <MODEL>
4

>  <REMARK>
 VINA RESULT:      -8.0      2.454      5.046
  Name = 
  14 active torsions:
  status: ('A' for Active; 'I' for Inactive)
    1  A    between atoms: C_1  and  C_35
    2  A    between atoms: C_1  and  C_38
    3  A    between atoms: C_2  and  C_6
    4  A    between atoms: C_2  and  C_13
    5  A    between atoms: C_3  and  C_4
    6  A    between atoms: C_3  and  N_17
    7  A    between atoms: C_4  and  C_22
    8  A    between atoms: C_6  and  N_17
    9  A    between atoms: O_10  and  C_22
   10  A    between atoms: C_11  and  C_41
   11  A    between atoms: O_14  and  C_22
   12  A    between atoms: O_14  and  C_41
   13  A    between atoms: C_19  and  O_37
   14  A    between atoms: N_34  and  C_38
                            x       y       z     vdW  Elec       q    Type
                         _______ _______ _______ _____ _____    ______ ____

>  <TORSDO>
F 14

$$$$
=
 OpenBabel11052416123D

 43 47  0  0  1  0  0  0  0  0999 V2000
  181.0820  178.9380  143.1650 C   0  0  0  0  0  0  0  0  0  0  0  0
  185.9660  178.4500  142.3310 C   0  0  0  0  0  0  0  0  0  0  0  0
  186.6160  178.3450  140.3040 C   0  0  0  0  0  0  0  0  0  0  0  0
  183.4330  178.7190  143.4200 C   0  0  0  0  0  0  0  0  0  0  0  0
  181.2010  178.8900  141.7720 C   0  0  0  0  0  3  0  0  0  0  0  0
  179.7970  179.0730  143.7620 N   0  0  0  0  0  1  0  0  0  0  0  0
  183.5900  178.6650  142.0120 C   0  0  0  0  0  0  0  0  0  0  0  0
  182.1880  178.8520  143.9530 N   0  0  0  0  0  0  0  0  0  0  0  0
  182.4640  178.7520  141.1910 C   0  0  0  0  0  3  0  0  0  0  0  0
  185.2640  178.4640  140.2140 N   0  0  0  0  0  0  0  0  0  0  0  0
  184.8810  178.5270  141.5040 C   0  0  0  0  0  0  0  0  0  0  0  0
  185.8530  178.5040  143.7210 C   0  0  0  0  0  3  0  0  0  0  0  0
  187.0720  178.3430  141.5820 N   0  0  0  0  0  0  0  0  0  0  0  0
  184.5620  178.6380  144.2640 C   0  0  0  0  0  3  0  0  0  0  0  0
  187.5060  178.2360  139.1070 C   0  0  1  0  0  3  0  0  0  0  0  0
  188.1040  176.9740  139.0820 O   0  0  0  0  0  1  0  0  0  0  0  0
  186.7060  178.4670  137.8330 C   0  0  0  0  0  2  0  0  0  0  0  0
  186.4010  177.1930  137.1990 N   0  0  0  0  0  2  0  0  0  0  0  0
  185.1670  177.3580  136.4400 C   0  0  0  0  0  2  0  0  0  0  0  0
  184.2390  176.1490  136.6010 C   0  0  0  0  0  0  0  0  0  0  0  0
  185.0100  174.9890  137.2180 C   0  0  0  0  0  1  0  0  0  0  0  0
  183.7100  175.7220  135.2390 C   0  0  0  0  0  1  0  0  0  0  0  0
  183.0730  176.5230  137.5330 C   0  0  1  0  0  3  0  0  0  0  0  0
  183.2810  176.0300  138.8260 O   0  0  0  0  0  0  0  0  0  0  0  0
  182.0240  175.6000  139.2540 C   0  0  0  0  0  1  0  0  0  0  0  0
  182.9000  177.9130  137.5870 O   0  0  0  0  0  0  0  0  0  0  0  0
  181.5950  178.1310  137.1370 C   0  0  0  0  0  2  0  0  0  0  0  0
  181.0210  179.3190  137.8220 C   0  0  0  0  0  0  0  0  0  0  0  0
  181.2720  181.5710  138.6790 C   0  0  0  0  0  3  0  0  0  0  0  0
  179.1730  180.3950  138.9600 C   0  0  0  0  0  3  0  0  0  0  0  0
  179.9550  181.5390  139.1490 C   0  0  0  0  0  3  0  0  0  0  0  0
  179.7060  179.2840  138.2980 C   0  0  0  0  0  3  0  0  0  0  0  0
  181.8060  180.4600  138.0180 C   0  0  0  0  0  3  0  0  0  0  0  0
  188.4620  178.2890  142.0280 C   0  0  0  0  0  2  0  0  0  0  0  0
  188.8400  176.8790  142.4730 C   0  0  0  0  0  2  0  0  0  0  0  0
  191.6840  176.4380  144.9380 C   0  0  0  0  0  3  0  0  0  0  0  0
  191.0910  176.8730  146.1340 C   0  0  0  0  0  0  0  0  0  0  0  0
  189.0330  177.3300  144.9300 C   0  0  0  0  0  3  0  0  0  0  0  0
  190.9540  176.4490  143.7460 C   0  0  0  0  0  3  0  0  0  0  0  0
  189.6270  176.8960  143.7420 C   0  0  0  0  0  0  0  0  0  0  0  0
  189.7660  177.3220  146.1200 C   0  0  0  0  0  3  0  0  0  0  0  0
  192.5190  175.7380  147.8050 C   0  0  0  0  0  1  0  0  0  0  0  0
  191.7910  176.8680  147.3430 O   0  0  0  0  0  0  0  0  0  0  0  0
  1  6  1  0  0  0  0
  1  8  1  0  0  0  0
  2 12  1  0  0  0  0
  3 13  1  0  0  0  0
  4  8  2  0  0  0  0
  4 14  1  0  0  0  0
  5  1  2  0  0  0  0
  7  4  1  0  0  0  0
  9  5  1  0  0  0  0
  9  7  2  0  0  0  0
 10  3  2  0  0  0  0
 10 11  1  0  0  0  0
 11  7  1  0  0  0  0
 11  2  2  0  0  0  0
 12 14  2  0  0  0  0
 13 34  1  0  0  0  0
 13  2  1  0  0  0  0
 15 16  1  6  0  0  0
 15  3  1  0  0  0  0
 17 15  1  0  0  0  0
 18 17  1  0  0  0  0
 19 20  1  0  0  0  0
 19 18  1  0  0  0  0
 20 21  1  0  0  0  0
 20 23  1  0  0  0  0
 22 20  1  0  0  0  0
 23 26  1  1  0  0  0
 23 24  1  0  0  0  0
 24 25  1  0  0  0  0
 27 26  1  0  0  0  0
 27 28  1  0  0  0  0
 28 33  2  0  0  0  0
 28 32  1  0  0  0  0
 29 31  2  0  0  0  0
 30 31  1  0  0  0  0
 32 30  2  0  0  0  0
 33 29  1  0  0  0  0
 34 35  1  0  0  0  0
 35 40  1  0  0  0  0
 36 37  1  0  0  0  0
 37 43  1  0  0  0  0
 38 41  1  0  0  0  0
 39 36  2  0  0  0  0
 40 39  1  0  0  0  0
 40 38  2  0  0  0  0
 41 37  2  0  0  0  0
 43 42  1  0  0  0  0
M  END
>  <MODEL>
5

>  <REMARK>
 VINA RESULT:      -7.8      3.408      6.914
  Name = 
  14 active torsions:
  status: ('A' for Active; 'I' for Inactive)
    1  A    between atoms: C_1  and  C_35
    2  A    between atoms: C_1  and  C_38
    3  A    between atoms: C_2  and  C_6
    4  A    between atoms: C_2  and  C_13
    5  A    between atoms: C_3  and  C_4
    6  A    between atoms: C_3  and  N_17
    7  A    between atoms: C_4  and  C_22
    8  A    between atoms: C_6  and  N_17
    9  A    between atoms: O_10  and  C_22
   10  A    between atoms: C_11  and  C_41
   11  A    between atoms: O_14  and  C_22
   12  A    between atoms: O_14  and  C_41
   13  A    between atoms: C_19  and  O_37
   14  A    between atoms: N_34  and  C_38
                            x       y       z     vdW  Elec       q    Type
                         _______ _______ _______ _____ _____    ______ ____

>  <TORSDO>
F 14

$$$$
=
 OpenBabel11052416123D

 43 47  0  0  1  0  0  0  0  0999 V2000
  190.5700  177.1260  145.7380 C   0  0  0  0  0  0  0  0  0  0  0  0
  190.2090  177.5090  140.7870 C   0  0  0  0  0  0  0  0  0  0  0  0
  188.2940  177.9570  139.9680 C   0  0  0  0  0  0  0  0  0  0  0  0
  191.0380  177.1770  143.4100 C   0  0  0  0  0  0  0  0  0  0  0  0
  189.2220  177.4120  145.5020 C   0  0  0  0  0  3  0  0  0  0  0  0
  191.0330  176.9460  147.0710 N   0  0  0  0  0  1  0  0  0  0  0  0
  189.6770  177.4660  143.1340 C   0  0  0  0  0  0  0  0  0  0  0  0
  191.4420  177.0150  144.6990 N   0  0  0  0  0  0  0  0  0  0  0  0
  188.7710  177.5830  144.1900 C   0  0  0  0  0  3  0  0  0  0  0  0
  188.0790  177.9080  141.3100 N   0  0  0  0  0  0  0  0  0  0  0  0
  189.3010  177.6240  141.8010 C   0  0  0  0  0  0  0  0  0  0  0  0
  191.5580  177.2300  141.0180 C   0  0  0  0  0  3  0  0  0  0  0  0
  189.5850  177.7270  139.6220 N   0  0  0  0  0  0  0  0  0  0  0  0
  191.9670  177.0610  142.3540 C   0  0  0  0  0  3  0  0  0  0  0  0
  187.2100  178.2440  138.9790 C   0  0  1  0  0  3  0  0  0  0  0  0
  187.0070  177.1260  138.1680 O   0  0  0  0  0  1  0  0  0  0  0  0
  185.9220  178.6130  139.7010 C   0  0  0  0  0  2  0  0  0  0  0  0
  184.8990  178.9840  138.7360 N   0  0  0  0  0  2  0  0  0  0  0  0
  183.7900  179.5820  139.4710 C   0  0  0  0  0  2  0  0  0  0  0  0
  182.5500  178.6810  139.4550 C   0  0  0  0  0  0  0  0  0  0  0  0
  182.9640  177.2360  139.7050 C   0  0  0  0  0  1  0  0  0  0  0  0
  181.8660  178.7710  138.0980 C   0  0  0  0  0  1  0  0  0  0  0  0
  181.5860  179.1230  140.5690 C   0  0  1  0  0  3  0  0  0  0  0  0
  180.2580  179.1000  140.1260 O   0  0  0  0  0  0  0  0  0  0  0  0
  179.7900  180.4000  140.3250 C   0  0  0  0  0  1  0  0  0  0  0  0
  181.7140  178.3030  141.6990 O   0  0  0  0  0  0  0  0  0  0  0  0
  181.8220  179.1880  142.7750 C   0  0  0  0  0  2  0  0  0  0  0  0
  183.0600  178.8920  143.5440 C   0  0  0  0  0  0  0  0  0  0  0  0
  184.2320  178.7510  145.6590 C   0  0  0  0  0  3  0  0  0  0  0  0
  185.3990  178.2640  143.5930 C   0  0  0  0  0  3  0  0  0  0  0  0
  185.4000  178.3760  144.9870 C   0  0  0  0  0  3  0  0  0  0  0  0
  184.2300  178.5240  142.8700 C   0  0  0  0  0  3  0  0  0  0  0  0
  183.0620  179.0110  144.9380 C   0  0  0  0  0  3  0  0  0  0  0  0
  190.1640  177.7620  138.2810 C   0  0  0  0  0  2  0  0  0  0  0  0
  190.0770  176.3940  137.6090 C   0  0  0  0  0  2  0  0  0  0  0  0
  193.8250  175.8500  137.7120 C   0  0  0  0  0  3  0  0  0  0  0  0
  193.9220  174.4910  137.3690 C   0  0  0  0  0  0  0  0  0  0  0  0
  191.5030  174.3750  137.2030 C   0  0  0  0  0  3  0  0  0  0  0  0
  192.5730  176.4650  137.7990 C   0  0  0  0  0  3  0  0  0  0  0  0
  191.4110  175.7270  137.5440 C   0  0  0  0  0  0  0  0  0  0  0  0
  192.7550  173.7600  137.1210 C   0  0  0  0  0  3  0  0  0  0  0  0
  195.7430  173.1290  138.3440 C   0  0  0  0  0  1  0  0  0  0  0  0
  195.1580  173.8480  137.2660 O   0  0  0  0  0  0  0  0  0  0  0  0
  1  6  1  0  0  0  0
  2 12  2  0  0  0  0
  2 11  1  0  0  0  0
  3 10  2  0  0  0  0
  4  8  1  0  0  0  0
  5  1  1  0  0  0  0
  7  4  1  0  0  0  0
  7  9  1  0  0  0  0
  8  1  2  0  0  0  0
  9  5  2  0  0  0  0
 10 11  1  0  0  0  0
 11  7  2  0  0  0  0
 12 14  1  0  0  0  0
 13  3  1  0  0  0  0
 13  2  1  0  0  0  0
 14  4  2  0  0  0  0
 15 16  1  1  0  0  0
 15 17  1  0  0  0  0
 15  3  1  0  0  0  0
 18 19  1  0  0  0  0
 18 17  1  0  0  0  0
 20 19  1  0  0  0  0
 20 21  1  0  0  0  0
 20 23  1  0  0  0  0
 22 20  1  0  0  0  0
 23 24  1  6  0  0  0
 23 26  1  0  0  0  0
 24 25  1  0  0  0  0
 26 27  1  0  0  0  0
 27 28  1  0  0  0  0
 28 33  1  0  0  0  0
 30 31  2  0  0  0  0
 31 29  1  0  0  0  0
 32 28  2  0  0  0  0
 32 30  1  0  0  0  0
 33 29  2  0  0  0  0
 34 13  1  0  0  0  0
 35 34  1  0  0  0  0
 36 39  1  0  0  0  0
 37 36  2  0  0  0  0
 38 40  1  0  0  0  0
 40 35  1  0  0  0  0
 40 39  2  0  0  0  0
 41 38  2  0  0  0  0
 41 37  1  0  0  0  0
 43 37  1  0  0  0  0
 43 42  1  0  0  0  0
M  END
>  <MODEL>
6

>  <REMARK>
 VINA RESULT:      -7.8      2.570      5.399
  Name = 
  14 active torsions:
  status: ('A' for Active; 'I' for Inactive)
    1  A    between atoms: C_1  and  C_35
    2  A    between atoms: C_1  and  C_38
    3  A    between atoms: C_2  and  C_6
    4  A    between atoms: C_2  and  C_13
    5  A    between atoms: C_3  and  C_4
    6  A    between atoms: C_3  and  N_17
    7  A    between atoms: C_4  and  C_22
    8  A    between atoms: C_6  and  N_17
    9  A    between atoms: O_10  and  C_22
   10  A    between atoms: C_11  and  C_41
   11  A    between atoms: O_14  and  C_22
   12  A    between atoms: O_14  and  C_41
   13  A    between atoms: C_19  and  O_37
   14  A    between atoms: N_34  and  C_38
                            x       y       z     vdW  Elec       q    Type
                         _______ _______ _______ _____ _____    ______ ____

>  <TORSDO>
F 14

$$$$
=
 OpenBabel11052416123D

 43 47  0  0  1  0  0  0  0  0999 V2000
  191.2490  176.7170  138.6180 C   0  0  0  0  0  0  0  0  0  0  0  0
  187.3800  178.5100  141.1880 C   0  0  0  0  0  0  0  0  0  0  0  0
  185.5870  178.9230  140.1150 C   0  0  0  0  0  0  0  0  0  0  0  0
  189.8250  177.5180  140.3410 C   0  0  0  0  0  0  0  0  0  0  0  0
  190.2410  176.8930  137.6650 C   0  0  0  0  0  3  0  0  0  0  0  0
  192.5190  176.2120  138.2210 N   0  0  0  0  0  1  0  0  0  0  0  0
  188.7800  177.7100  139.4010 C   0  0  0  0  0  0  0  0  0  0  0  0
  191.0240  177.0300  139.9230 N   0  0  0  0  0  0  0  0  0  0  0  0
  188.9970  177.3930  138.0590 C   0  0  0  0  0  3  0  0  0  0  0  0
  186.4450  178.4640  139.1650 N   0  0  0  0  0  0  0  0  0  0  0  0
  187.5670  178.2140  139.8680 C   0  0  0  0  0  0  0  0  0  0  0  0
  188.3820  178.3310  142.1440 C   0  0  0  0  0  3  0  0  0  0  0  0
  186.1270  178.9520  141.3580 N   0  0  0  0  0  0  0  0  0  0  0  0
  189.6200  177.8290  141.7030 C   0  0  0  0  0  3  0  0  0  0  0  0
  184.1840  179.3430  139.8100 C   0  0  1  0  0  3  0  0  0  0  0  0
  184.1940  180.3190  138.8120 O   0  0  0  0  0  1  0  0  0  0  0  0
  183.3590  178.1430  139.3670 C   0  0  0  0  0  2  0  0  0  0  0  0
  183.5860  177.8770  137.9550 N   0  0  0  0  0  2  0  0  0  0  0  0
  183.8190  176.4450  137.8040 C   0  0  0  0  0  2  0  0  0  0  0  0
  184.4210  176.1120  136.4340 C   0  0  0  0  0  0  0  0  0  0  0  0
  185.3860  177.2140  136.0170 C   0  0  0  0  0  1  0  0  0  0  0  0
  183.3110  176.0080  135.3970 C   0  0  0  0  0  1  0  0  0  0  0  0
  185.1910  174.7830  136.5260 C   0  0  1  0  0  3  0  0  0  0  0  0
  184.5030  173.7550  135.8710 O   0  0  0  0  0  0  0  0  0  0  0  0
  184.1440  172.8610  136.8810 C   0  0  0  0  0  1  0  0  0  0  0  0
  186.4740  174.9070  135.9800 O   0  0  0  0  0  0  0  0  0  0  0  0
  187.3200  174.2800  136.8990 C   0  0  0  0  0  2  0  0  0  0  0  0
  188.2980  173.4240  136.1770 C   0  0  0  0  0  0  0  0  0  0  0  0
  188.7750  171.5070  134.7740 C   0  0  0  0  0  3  0  0  0  0  0  0
  190.5880  172.8860  135.5980 C   0  0  0  0  0  3  0  0  0  0  0  0
  190.1420  171.7890  134.8530 C   0  0  0  0  0  3  0  0  0  0  0  0
  189.6670  173.7020  136.2620 C   0  0  0  0  0  3  0  0  0  0  0  0
  187.8520  172.3230  135.4380 C   0  0  0  0  0  3  0  0  0  0  0  0
  185.4660  179.3330  142.6040 C   0  0  0  0  0  2  0  0  0  0  0  0
  185.0810  178.1020  143.4190 C   0  0  0  0  0  2  0  0  0  0  0  0
  185.8740  178.8400  147.0490 C   0  0  0  0  0  3  0  0  0  0  0  0
  187.0600  178.1100  147.2330 C   0  0  0  0  0  0  0  0  0  0  0  0
  186.9380  177.3600  144.9280 C   0  0  0  0  0  3  0  0  0  0  0  0
  185.2270  178.8290  145.8110 C   0  0  0  0  0  3  0  0  0  0  0  0
  185.7580  178.0880  144.7490 C   0  0  0  0  0  0  0  0  0  0  0  0
  187.5820  177.3680  146.1680 C   0  0  0  0  0  3  0  0  0  0  0  0
  189.1480  178.2390  148.5550 C   0  0  0  0  0  1  0  0  0  0  0  0
  187.7360  178.1060  148.4560 O   0  0  0  0  0  0  0  0  0  0  0  0
  1  8  1  0  0  0  0
  2 13  1  0  0  0  0
  2 12  1  0  0  0  0
  3 13  1  0  0  0  0
  4 14  1  0  0  0  0
  5  9  1  0  0  0  0
  5  1  2  0  0  0  0
  6  1  1  0  0  0  0
  7 11  1  0  0  0  0
  7  4  1  0  0  0  0
  8  4  2  0  0  0  0
  9  7  2  0  0  0  0
 10 11  1  0  0  0  0
 10  3  2  0  0  0  0
 11  2  2  0  0  0  0
 13 34  1  0  0  0  0
 14 12  2  0  0  0  0
 15 16  1  6  0  0  0
 15  3  1  0  0  0  0
 17 15  1  0  0  0  0
 18 17  1  0  0  0  0
 19 18  1  0  0  0  0
 20 23  1  0  0  0  0
 20 19  1  0  0  0  0
 21 20  1  0  0  0  0
 22 20  1  0  0  0  0
 23 24  1  6  0  0  0
 24 25  1  0  0  0  0
 26 23  1  0  0  0  0
 26 27  1  0  0  0  0
 28 32  1  0  0  0  0
 28 27  1  0  0  0  0
 29 31  2  0  0  0  0
 29 33  1  0  0  0  0
 30 32  2  0  0  0  0
 31 30  1  0  0  0  0
 33 28  2  0  0  0  0
 34 35  1  0  0  0  0
 35 40  1  0  0  0  0
 36 37  1  0  0  0  0
 37 43  1  0  0  0  0
 38 41  1  0  0  0  0
 39 36  2  0  0  0  0
 40 38  2  0  0  0  0
 40 39  1  0  0  0  0
 41 37  2  0  0  0  0
 43 42  1  0  0  0  0
M  END
>  <MODEL>
7

>  <REMARK>
 VINA RESULT:      -7.7      2.831      6.035
  Name = 
  14 active torsions:
  status: ('A' for Active; 'I' for Inactive)
    1  A    between atoms: C_1  and  C_35
    2  A    between atoms: C_1  and  C_38
    3  A    between atoms: C_2  and  C_6
    4  A    between atoms: C_2  and  C_13
    5  A    between atoms: C_3  and  C_4
    6  A    between atoms: C_3  and  N_17
    7  A    between atoms: C_4  and  C_22
    8  A    between atoms: C_6  and  N_17
    9  A    between atoms: O_10  and  C_22
   10  A    between atoms: C_11  and  C_41
   11  A    between atoms: O_14  and  C_22
   12  A    between atoms: O_14  and  C_41
   13  A    between atoms: C_19  and  O_37
   14  A    between atoms: N_34  and  C_38
                            x       y       z     vdW  Elec       q    Type
                         _______ _______ _______ _____ _____    ______ ____

>  <TORSDO>
F 14

$$$$
=
 OpenBabel11052416123D

 43 47  0  0  1  0  0  0  0  0999 V2000
  191.4420  176.4360  146.9550 C   0  0  0  0  0  0  0  0  0  0  0  0
  187.9330  177.7510  143.6770 C   0  0  0  0  0  0  0  0  0  0  0  0
  188.4350  177.6750  141.6080 C   0  0  0  0  0  0  0  0  0  0  0  0
  189.4200  177.1530  145.9380 C   0  0  0  0  0  0  0  0  0  0  0  0
  192.0540  176.2950  145.7050 C   0  0  0  0  0  3  0  0  0  0  0  0
  192.1740  176.1410  148.1390 N   0  0  0  0  0  1  0  0  0  0  0  0
  190.0090  177.0230  144.6540 C   0  0  0  0  0  0  0  0  0  0  0  0
  190.1510  176.8590  147.0460 N   0  0  0  0  0  0  0  0  0  0  0  0
  191.3320  176.5910  144.5460 C   0  0  0  0  0  3  0  0  0  0  0  0
  189.5710  177.2780  142.2410 N   0  0  0  0  0  0  0  0  0  0  0  0
  189.2270  177.3360  143.5420 C   0  0  0  0  0  0  0  0  0  0  0  0
  187.3170  177.8880  144.9230 C   0  0  0  0  0  3  0  0  0  0  0  0
  187.4180  177.9610  142.4580 N   0  0  0  0  0  0  0  0  0  0  0  0
  188.0810  177.5840  146.0640 C   0  0  0  0  0  3  0  0  0  0  0  0
  188.3250  177.7760  140.1200 C   0  0  1  0  0  3  0  0  0  0  0  0
  188.6510  179.0710  139.7130 O   0  0  0  0  0  1  0  0  0  0  0  0
  189.2470  176.7650  139.4530 C   0  0  0  0  0  2  0  0  0  0  0  0
  189.2440  176.9640  138.0120 N   0  0  0  0  0  2  0  0  0  0  0  0
  188.0390  176.3390  137.4790 C   0  0  0  0  0  2  0  0  0  0  0  0
  187.4910  177.1070  136.2710 C   0  0  0  0  0  0  0  0  0  0  0  0
  188.1650  176.6100  134.9990 C   0  0  0  0  0  1  0  0  0  0  0  0
  187.7780  178.5930  136.4340 C   0  0  0  0  0  1  0  0  0  0  0  0
  185.9750  176.8650  136.1600 C   0  0  1  0  0  3  0  0  0  0  0  0
  185.6940  175.8230  135.2700 O   0  0  0  0  0  0  0  0  0  0  0  0
  185.3780  174.7320  136.0820 C   0  0  0  0  0  1  0  0  0  0  0  0
  185.4210  176.5710  137.4130 O   0  0  0  0  0  0  0  0  0  0  0  0
  184.6180  177.6740  137.7190 C   0  0  0  0  0  2  0  0  0  0  0  0
  183.2430  177.2160  138.0480 C   0  0  0  0  0  0  0  0  0  0  0  0
  180.8440  177.5400  137.9520 C   0  0  0  0  0  3  0  0  0  0  0  0
  181.7620  175.6350  139.1340 C   0  0  0  0  0  3  0  0  0  0  0  0
  180.6560  176.3770  138.7050 C   0  0  0  0  0  3  0  0  0  0  0  0
  183.0560  176.0550  138.8080 C   0  0  0  0  0  3  0  0  0  0  0  0
  182.1370  177.9610  137.6250 C   0  0  0  0  0  3  0  0  0  0  0  0
  186.0560  178.3580  142.1110 C   0  0  0  0  0  2  0  0  0  0  0  0
  185.1540  178.3620  143.3420 C   0  0  0  0  0  2  0  0  0  0  0  0
  181.9820  178.6990  141.2980 C   0  0  0  0  0  3  0  0  0  0  0  0
  181.0560  179.0940  142.2780 C   0  0  0  0  0  0  0  0  0  0  0  0
  182.8080  178.9910  143.9540 C   0  0  0  0  0  3  0  0  0  0  0  0
  183.3120  178.4520  141.6480 C   0  0  0  0  0  3  0  0  0  0  0  0
  183.7270  178.5980  142.9770 C   0  0  0  0  0  0  0  0  0  0  0  0
  181.4770  179.2320  143.6050 C   0  0  0  0  0  3  0  0  0  0  0  0
  179.0260  180.4990  142.4410 C   0  0  0  0  0  1  0  0  0  0  0  0
  179.7210  179.3560  141.9610 O   0  0  0  0  0  0  0  0  0  0  0  0
  1  8  1  0  0  0  0
  1  6  1  0  0  0  0
  2 12  1  0  0  0  0
  3 10  2  0  0  0  0
  3 13  1  0  0  0  0
  4 14  1  0  0  0  0
  4  8  2  0  0  0  0
  5  1  2  0  0  0  0
  7  4  1  0  0  0  0
  9  7  2  0  0  0  0
  9  5  1  0  0  0  0
 10 11  1  0  0  0  0
 11  2  2  0  0  0  0
 11  7  1  0  0  0  0
 12 14  2  0  0  0  0
 13  2  1  0  0  0  0
 15 16  1  6  0  0  0
 15  3  1  0  0  0  0
 17 15  1  0  0  0  0
 18 17  1  0  0  0  0
 19 18  1  0  0  0  0
 20 22  1  0  0  0  0
 20 19  1  0  0  0  0
 21 20  1  0  0  0  0
 23 24  1  6  0  0  0
 23 20  1  0  0  0  0
 23 26  1  0  0  0  0
 24 25  1  0  0  0  0
 26 27  1  0  0  0  0
 27 28  1  0  0  0  0
 28 32  1  0  0  0  0
 29 31  2  0  0  0  0
 31 30  1  0  0  0  0
 32 30  2  0  0  0  0
 33 29  1  0  0  0  0
 33 28  2  0  0  0  0
 34 13  1  0  0  0  0
 34 35  1  0  0  0  0
 36 39  2  0  0  0  0
 36 37  1  0  0  0  0
 37 41  2  0  0  0  0
 39 40  1  0  0  0  0
 40 35  1  0  0  0  0
 40 38  2  0  0  0  0
 41 38  1  0  0  0  0
 43 37  1  0  0  0  0
 43 42  1  0  0  0  0
M  END
>  <MODEL>
8

>  <REMARK>
 VINA RESULT:      -7.5      2.883      7.369
  Name = 
  14 active torsions:
  status: ('A' for Active; 'I' for Inactive)
    1  A    between atoms: C_1  and  C_35
    2  A    between atoms: C_1  and  C_38
    3  A    between atoms: C_2  and  C_6
    4  A    between atoms: C_2  and  C_13
    5  A    between atoms: C_3  and  C_4
    6  A    between atoms: C_3  and  N_17
    7  A    between atoms: C_4  and  C_22
    8  A    between atoms: C_6  and  N_17
    9  A    between atoms: O_10  and  C_22
   10  A    between atoms: C_11  and  C_41
   11  A    between atoms: O_14  and  C_22
   12  A    between atoms: O_14  and  C_41
   13  A    between atoms: C_19  and  O_37
   14  A    between atoms: N_34  and  C_38
                            x       y       z     vdW  Elec       q    Type
                         _______ _______ _______ _____ _____    ______ ____

>  <TORSDO>
F 14

$$$$
=
 OpenBabel11052416123D

 43 47  0  0  1  0  0  0  0  0999 V2000
  187.9620  177.4680  147.0710 C   0  0  0  0  0  0  0  0  0  0  0  0
  186.2750  178.5190  142.5060 C   0  0  0  0  0  0  0  0  0  0  0  0
  187.6090  178.2340  140.8700 C   0  0  0  0  0  0  0  0  0  0  0  0
  186.6140  178.1180  145.2270 C   0  0  0  0  0  0  0  0  0  0  0  0
  189.0400  177.1960  146.2230 C   0  0  0  0  0  3  0  0  0  0  0  0
  188.0990  177.2760  148.4740 N   0  0  0  0  0  1  0  0  0  0  0  0
  187.6880  177.8530  144.3380 C   0  0  0  0  0  0  0  0  0  0  0  0
  186.7830  177.9190  146.5620 N   0  0  0  0  0  0  0  0  0  0  0  0
  188.9030  177.3900  144.8460 C   0  0  0  0  0  3  0  0  0  0  0  0
  188.3400  177.8800  141.9610 N   0  0  0  0  0  0  0  0  0  0  0  0
  187.4760  178.0710  142.9770 C   0  0  0  0  0  0  0  0  0  0  0  0
  185.1930  178.7860  143.3480 C   0  0  0  0  0  3  0  0  0  0  0  0
  186.3440  178.6180  141.1720 N   0  0  0  0  0  0  0  0  0  0  0  0
  185.3770  178.5810  144.7280 C   0  0  0  0  0  3  0  0  0  0  0  0
  188.1520  178.1910  139.4770 C   0  0  1  0  0  3  0  0  0  0  0  0
  188.8350  179.3780  139.2050 O   0  0  0  0  0  1  0  0  0  0  0  0
  189.0800  176.9970  139.3090 C   0  0  0  0  0  2  0  0  0  0  0  0
  188.8040  176.3260  138.0480 N   0  0  0  0  0  2  0  0  0  0  0  0
  187.4180  176.6050  137.6890 C   0  0  0  0  0  2  0  0  0  0  0  0
  187.2510  176.7800  136.1750 C   0  0  0  0  0  0  0  0  0  0  0  0
  188.4400  176.1600  135.4530 C   0  0  0  0  0  1  0  0  0  0  0  0
  187.1840  178.2630  135.8340 C   0  0  0  0  0  1  0  0  0  0  0  0
  185.9650  176.0700  135.7200 C   0  0  1  0  0  3  0  0  0  0  0  0
  186.2320  174.7610  135.3020 O   0  0  0  0  0  0  0  0  0  0  0  0
  185.5140  173.9490  136.1820 C   0  0  0  0  0  1  0  0  0  0  0  0
  185.0140  176.0460  136.7480 O   0  0  0  0  0  0  0  0  0  0  0  0
  184.0040  176.9150  136.3250 C   0  0  0  0  0  2  0  0  0  0  0  0
  182.7910  176.7190  137.1630 C   0  0  0  0  0  0  0  0  0  0  0  0
  181.6740  175.6250  139.0130 C   0  0  0  0  0  3  0  0  0  0  0  0
  180.4650  177.2080  137.6340 C   0  0  0  0  0  3  0  0  0  0  0  0
  180.4970  176.3180  138.7130 C   0  0  0  0  0  3  0  0  0  0  0  0
  181.6120  177.4070  136.8570 C   0  0  0  0  0  3  0  0  0  0  0  0
  182.8210  175.8230  138.2370 C   0  0  0  0  0  3  0  0  0  0  0  0
  185.2860  179.0020  140.2400 C   0  0  0  0  0  2  0  0  0  0  0  0
  183.9890  178.2580  140.5450 C   0  0  0  0  0  2  0  0  0  0  0  0
  181.7620  180.7060  138.7000 C   0  0  0  0  0  3  0  0  0  0  0  0
  180.5600  180.5890  139.4160 C   0  0  0  0  0  0  0  0  0  0  0  0
  181.5970  178.9330  140.8570 C   0  0  0  0  0  3  0  0  0  0  0  0
  182.8740  179.9410  139.0630 C   0  0  0  0  0  3  0  0  0  0  0  0
  182.7920  179.0530  140.1420 C   0  0  0  0  0  0  0  0  0  0  0  0
  180.4850  179.6960  140.4910 C   0  0  0  0  0  3  0  0  0  0  0  0
  179.4710  182.4120  138.1460 C   0  0  0  0  0  1  0  0  0  0  0  0
  179.4330  181.3450  139.0850 O   0  0  0  0  0  0  0  0  0  0  0  0
  1  6  1  0  0  0  0
  2 11  2  0  0  0  0
  2 12  1  0  0  0  0
  3 13  1  0  0  0  0
  3 10  2  0  0  0  0
  4  8  2  0  0  0  0
  5  1  2  0  0  0  0
  7  9  2  0  0  0  0
  7  4  1  0  0  0  0
  8  1  1  0  0  0  0
  9  5  1  0  0  0  0
 10 11  1  0  0  0  0
 11  7  1  0  0  0  0
 12 14  2  0  0  0  0
 13  2  1  0  0  0  0
 14  4  1  0  0  0  0
 15 16  1  1  0  0  0
 15  3  1  0  0  0  0
 17 15  1  0  0  0  0
 18 17  1  0  0  0  0
 19 18  1  0  0  0  0
 20 19  1  0  0  0  0
 21 20  1  0  0  0  0
 22 20  1  0  0  0  0
 23 24  1  1  0  0  0
 23 20  1  0  0  0  0
 23 26  1  0  0  0  0
 24 25  1  0  0  0  0
 27 26  1  0  0  0  0
 27 28  1  0  0  0  0
 28 33  1  0  0  0  0
 30 31  2  0  0  0  0
 31 29  1  0  0  0  0
 32 28  2  0  0  0  0
 32 30  1  0  0  0  0
 33 29  2  0  0  0  0
 34 35  1  0  0  0  0
 34 13  1  0  0  0  0
 36 39  2  0  0  0  0
 36 37  1  0  0  0  0
 37 41  2  0  0  0  0
 39 40  1  0  0  0  0
 40 35  1  0  0  0  0
 40 38  2  0  0  0  0
 41 38  1  0  0  0  0
 42 43  1  0  0  0  0
 43 37  1  0  0  0  0
M  END
>  <MODEL>
9

>  <REMARK>
 VINA RESULT:      -7.5      3.100      8.305
  Name = 
  14 active torsions:
  status: ('A' for Active; 'I' for Inactive)
    1  A    between atoms: C_1  and  C_35
    2  A    between atoms: C_1  and  C_38
    3  A    between atoms: C_2  and  C_6
    4  A    between atoms: C_2  and  C_13
    5  A    between atoms: C_3  and  C_4
    6  A    between atoms: C_3  and  N_17
    7  A    between atoms: C_4  and  C_22
    8  A    between atoms: C_6  and  N_17
    9  A    between atoms: O_10  and  C_22
   10  A    between atoms: C_11  and  C_41
   11  A    between atoms: O_14  and  C_22
   12  A    between atoms: O_14  and  C_41
   13  A    between atoms: C_19  and  O_37
   14  A    between atoms: N_34  and  C_38
                            x       y       z     vdW  Elec       q    Type
                         _______ _______ _______ _____ _____    ______ ____

>  <TORSDO>
F 14

$$$$
