=
 OpenBabel11052413503D

 27 30  0  0  1  0  0  0  0  0999 V2000
  188.9100  177.4000  144.0960 N   0  0  0  0  0  0  0  0  0  0  0  0
  188.0140  175.5000  143.0770 O   0  0  0  0  0  0  0  0  0  0  0  0
  188.5430  176.6350  142.9260 C   0  0  0  0  0  0  0  0  0  0  0  0
  189.0760  178.1120  138.9560 C   0  0  0  0  0  3  0  0  0  0  0  0
  191.2170  176.8730  138.6710 C   0  0  0  0  0  1  0  0  0  0  0  0
  189.8790  176.7590  140.7950 C   0  0  0  0  0  0  0  0  0  0  0  0
  190.8240  175.9370  141.3210 F   0  0  0  0  0  0  0  0  0  0  0  0
  188.7550  177.1470  141.5500 C   0  0  0  0  0  0  0  0  0  0  0  0
  190.0350  177.2530  139.4920 C   0  0  0  0  0  0  0  0  0  0  0  0
  187.8360  177.9840  140.9890 N   0  0  0  0  0  0  0  0  0  0  0  0
  187.9720  178.4690  139.7270 C   0  0  0  0  0  3  0  0  0  0  0  0
  190.1680  179.0760  145.3130 N   0  0  0  0  0  2  0  0  0  0  0  0
  189.7090  178.6300  143.9880 C   0  0  1  0  0  3  0  0  0  0  0  0
  191.1350  178.4800  144.3750 C   0  0  2  0  0  3  0  0  0  0  0  0
  192.0330  175.6240  146.7180 C   0  0  0  0  0  3  0  0  0  0  0  0
  192.2590  174.5780  145.8200 C   0  0  0  0  0  3  0  0  0  0  0  0
  191.6820  176.8900  146.2420 C   0  0  0  0  0  3  0  0  0  0  0  0
  192.1240  174.7950  144.4460 C   0  0  0  0  0  3  0  0  0  0  0  0
  191.7760  176.0620  143.9710 C   0  0  0  0  0  3  0  0  0  0  0  0
  191.5780  177.1260  144.8650 C   0  0  0  0  0  0  0  0  0  0  0  0
  188.2000  177.1350  145.3470 C   0  0  0  0  0  2  0  0  0  0  0  0
  184.2920  178.9130  145.3340 C   0  0  0  0  0  3  0  0  0  0  0  0
  186.8370  177.7480  145.3360 C   0  0  0  0  0  0  0  0  0  0  0  0
  186.2100  178.0650  146.5450 C   0  0  0  0  0  3  0  0  0  0  0  0
  184.9380  178.6460  146.5440 C   0  0  0  0  0  3  0  0  0  0  0  0
  184.9190  178.6010  144.1240 C   0  0  0  0  0  3  0  0  0  0  0  0
  186.1910  178.0200  144.1250 C   0  0  0  0  0  3  0  0  0  0  0  0
  1 21  1  0  0  0  0
  3  2  2  0  0  0  0
  3  1  1  0  0  0  0
  4  9  2  0  0  0  0
  4 11  1  0  0  0  0
  5  9  1  0  0  0  0
  6  7  1  0  0  0  0
  6  8  2  0  0  0  0
  8  3  1  0  0  0  0
  9  6  1  0  0  0  0
 10  8  1  0  0  0  0
 11 10  2  0  0  0  0
 13  1  1  1  0  0  0
 13 14  1  0  0  0  0
 13 12  1  0  0  0  0
 14 20  1  1  0  0  0
 14 12  1  0  0  0  0
 16 15  2  0  0  0  0
 17 15  1  0  0  0  0
 18 16  1  0  0  0  0
 19 18  2  0  0  0  0
 19 20  1  0  0  0  0
 20 17  2  0  0  0  0
 22 25  1  0  0  0  0
 23 21  1  0  0  0  0
 23 24  1  0  0  0  0
 25 24  2  0  0  0  0
 26 27  1  0  0  0  0
 26 22  2  0  0  0  0
 27 23  2  0  0  0  0
M  END
>  <MODEL>
1

>  <REMARK>
 VINA RESULT:      -7.9      0.000      0.000
  Name = 
  5 active torsions:
  status: ('A' for Active; 'I' for Inactive)
    1  A    between atoms: N_2  and  C_6
    2  A    between atoms: N_2  and  C_15
    3  A    between atoms: C_6  and  C_9
    4  A    between atoms: C_14  and  C_19
    5  A    between atoms: C_18  and  C_26
                            x       y       z     vdW  Elec       q    Type
                         _______ _______ _______ _____ _____    ______ ____

>  <TORSDO>
F 5

$$$$
=
 OpenBabel11052413503D

 27 30  0  0  1  0  0  0  0  0999 V2000
  188.9500  177.3110  143.8810 N   0  0  0  0  0  0  0  0  0  0  0  0
  188.2260  175.3150  142.9090 O   0  0  0  0  0  0  0  0  0  0  0  0
  188.7990  176.4260  142.7470 C   0  0  0  0  0  0  0  0  0  0  0  0
  190.2750  177.4610  138.8770 C   0  0  0  0  0  3  0  0  0  0  0  0
  188.2230  178.7580  138.3260 C   0  0  0  0  0  1  0  0  0  0  0  0
  188.5140  177.5900  140.5320 C   0  0  0  0  0  0  0  0  0  0  0  0
  187.2810  178.0240  140.9010 F   0  0  0  0  0  0  0  0  0  0  0  0
  189.2870  176.7870  141.3930 C   0  0  0  0  0  0  0  0  0  0  0  0
  189.0170  177.9210  139.2660 C   0  0  0  0  0  0  0  0  0  0  0  0
  190.5140  176.3610  140.9800 N   0  0  0  0  0  0  0  0  0  0  0  0
  191.0170  176.6750  139.7570 C   0  0  0  0  0  3  0  0  0  0  0  0
  190.1170  179.0140  145.1490 N   0  0  0  0  0  2  0  0  0  0  0  0
  189.7820  178.5200  143.8030 C   0  0  1  0  0  3  0  0  0  0  0  0
  191.1590  178.3620  144.3370 C   0  0  2  0  0  3  0  0  0  0  0  0
  192.2370  174.7250  144.5960 C   0  0  0  0  0  3  0  0  0  0  0  0
  192.3400  174.5550  145.9780 C   0  0  0  0  0  3  0  0  0  0  0  0
  191.8420  175.9580  144.0710 C   0  0  0  0  0  3  0  0  0  0  0  0
  192.0560  175.6210  146.8370 C   0  0  0  0  0  3  0  0  0  0  0  0
  191.6570  176.8530  146.3110 C   0  0  0  0  0  3  0  0  0  0  0  0
  191.5210  177.0220  144.9240 C   0  0  0  0  0  0  0  0  0  0  0  0
  188.0030  177.1820  144.9880 C   0  0  0  0  0  2  0  0  0  0  0  0
  184.3570  179.3000  144.1790 C   0  0  0  0  0  3  0  0  0  0  0  0
  186.7320  177.9120  144.7010 C   0  0  0  0  0  0  0  0  0  0  0  0
  186.1060  178.6420  145.7190 C   0  0  0  0  0  3  0  0  0  0  0  0
  184.9200  179.3330  145.4570 C   0  0  0  0  0  3  0  0  0  0  0  0
  184.9820  178.5750  143.1600 C   0  0  0  0  0  3  0  0  0  0  0  0
  186.1690  177.8830  143.4210 C   0  0  0  0  0  3  0  0  0  0  0  0
  1 21  1  0  0  0  0
  3  2  2  0  0  0  0
  3  1  1  0  0  0  0
  4  9  2  0  0  0  0
  4 11  1  0  0  0  0
  5  9  1  0  0  0  0
  6  7  1  0  0  0  0
  6  8  2  0  0  0  0
  8  3  1  0  0  0  0
  9  6  1  0  0  0  0
 10  8  1  0  0  0  0
 11 10  2  0  0  0  0
 13  1  1  1  0  0  0
 13 14  1  0  0  0  0
 13 12  1  0  0  0  0
 14 20  1  1  0  0  0
 14 12  1  0  0  0  0
 15 16  1  0  0  0  0
 16 18  2  0  0  0  0
 17 15  2  0  0  0  0
 17 20  1  0  0  0  0
 19 18  1  0  0  0  0
 20 19  2  0  0  0  0
 22 25  1  0  0  0  0
 23 21  1  0  0  0  0
 23 24  1  0  0  0  0
 25 24  2  0  0  0  0
 26 27  1  0  0  0  0
 26 22  2  0  0  0  0
 27 23  2  0  0  0  0
M  END
>  <MODEL>
2

>  <REMARK>
 VINA RESULT:      -7.6      1.175      1.812
  Name = 
  5 active torsions:
  status: ('A' for Active; 'I' for Inactive)
    1  A    between atoms: N_2  and  C_6
    2  A    between atoms: N_2  and  C_15
    3  A    between atoms: C_6  and  C_9
    4  A    between atoms: C_14  and  C_19
    5  A    between atoms: C_18  and  C_26
                            x       y       z     vdW  Elec       q    Type
                         _______ _______ _______ _____ _____    ______ ____

>  <TORSDO>
F 5

$$$$
=
 OpenBabel11052413503D

 27 30  0  0  1  0  0  0  0  0999 V2000
  189.4990  176.9750  143.3640 N   0  0  0  0  0  0  0  0  0  0  0  0
  187.9410  175.2400  143.2430 O   0  0  0  0  0  0  0  0  0  0  0  0
  188.1430  176.4750  143.4000 C   0  0  0  0  0  0  0  0  0  0  0  0
  184.8120  179.0790  143.9930 C   0  0  0  0  0  3  0  0  0  0  0  0
  184.8220  178.7020  146.4540 C   0  0  0  0  0  1  0  0  0  0  0  0
  186.4780  177.5910  144.9250 C   0  0  0  0  0  0  0  0  0  0  0  0
  187.0210  176.9660  146.0020 F   0  0  0  0  0  0  0  0  0  0  0  0
  186.9790  177.3660  143.6280 C   0  0  0  0  0  0  0  0  0  0  0  0
  185.3850  178.4510  145.0990 C   0  0  0  0  0  0  0  0  0  0  0  0
  186.3960  178.0020  142.5720 N   0  0  0  0  0  0  0  0  0  0  0  0
  185.3370  178.8400  142.7250 C   0  0  0  0  0  3  0  0  0  0  0  0
  191.1410  178.6750  142.8320 N   0  0  0  0  0  2  0  0  0  0  0  0
  189.7830  178.4180  143.3370 C   0  0  1  0  0  3  0  0  0  0  0  0
  189.9820  178.9860  141.9780 C   0  0  2  0  0  3  0  0  0  0  0  0
  188.6820  177.1160  138.9340 C   0  0  0  0  0  3  0  0  0  0  0  0
  189.8010  176.3710  138.5560 C   0  0  0  0  0  3  0  0  0  0  0  0
  188.7430  177.9520  140.0520 C   0  0  0  0  0  3  0  0  0  0  0  0
  190.9860  176.4690  139.2910 C   0  0  0  0  0  3  0  0  0  0  0  0
  191.0460  177.3020  140.4110 C   0  0  0  0  0  3  0  0  0  0  0  0
  189.9150  178.0300  140.8150 C   0  0  0  0  0  0  0  0  0  0  0  0
  190.5850  176.0540  143.7000 C   0  0  0  0  0  2  0  0  0  0  0  0
  191.6920  176.3720  147.8360 C   0  0  0  0  0  3  0  0  0  0  0  0
  190.9620  176.1650  145.1420 C   0  0  0  0  0  0  0  0  0  0  0  0
  192.0650  175.4540  145.6270 C   0  0  0  0  0  3  0  0  0  0  0  0
  192.4290  175.5570  146.9730 C   0  0  0  0  0  3  0  0  0  0  0  0
  190.5920  177.0870  147.3530 C   0  0  0  0  0  3  0  0  0  0  0  0
  190.2280  176.9840  146.0070 C   0  0  0  0  0  3  0  0  0  0  0  0
  1  3  1  0  0  0  0
  1 21  1  0  0  0  0
  2  3  2  0  0  0  0
  3  8  1  0  0  0  0
  4  9  1  0  0  0  0
  6  9  2  0  0  0  0
  6  7  1  0  0  0  0
  8  6  1  0  0  0  0
  9  5  1  0  0  0  0
 10 11  1  0  0  0  0
 10  8  2  0  0  0  0
 11  4  2  0  0  0  0
 12 13  1  0  0  0  0
 13  1  1  6  0  0  0
 14 20  1  6  0  0  0
 14 12  1  0  0  0  0
 14 13  1  0  0  0  0
 15 17  1  0  0  0  0
 16 15  2  0  0  0  0
 16 18  1  0  0  0  0
 17 20  2  0  0  0  0
 18 19  2  0  0  0  0
 19 20  1  0  0  0  0
 21 23  1  0  0  0  0
 23 24  2  0  0  0  0
 23 27  1  0  0  0  0
 24 25  1  0  0  0  0
 25 22  2  0  0  0  0
 26 22  1  0  0  0  0
 27 26  2  0  0  0  0
M  END
>  <MODEL>
3

>  <REMARK>
 VINA RESULT:      -7.3      1.715      5.561
  Name = 
  5 active torsions:
  status: ('A' for Active; 'I' for Inactive)
    1  A    between atoms: N_2  and  C_6
    2  A    between atoms: N_2  and  C_15
    3  A    between atoms: C_6  and  C_9
    4  A    between atoms: C_14  and  C_19
    5  A    between atoms: C_18  and  C_26
                            x       y       z     vdW  Elec       q    Type
                         _______ _______ _______ _____ _____    ______ ____

>  <TORSDO>
F 5

$$$$
=
 OpenBabel11052413503D

 27 30  0  0  1  0  0  0  0  0999 V2000
  183.3110  178.2010  139.7130 N   0  0  0  0  0  0  0  0  0  0  0  0
  184.3880  180.2000  139.1670 O   0  0  0  0  0  0  0  0  0  0  0  0
  184.3920  178.9400  139.1000 C   0  0  0  0  0  0  0  0  0  0  0  0
  187.5730  176.9560  137.0600 C   0  0  0  0  0  3  0  0  0  0  0  0
  189.1730  177.3840  138.9190 C   0  0  0  0  0  1  0  0  0  0  0  0
  186.7850  178.1610  139.0050 C   0  0  0  0  0  0  0  0  0  0  0  0
  187.0290  178.7090  140.2230 F   0  0  0  0  0  0  0  0  0  0  0  0
  185.5150  178.2670  138.4040 C   0  0  0  0  0  0  0  0  0  0  0  0
  187.8160  177.5030  138.3190 C   0  0  0  0  0  0  0  0  0  0  0  0
  185.3150  177.7140  137.1740 N   0  0  0  0  0  0  0  0  0  0  0  0
  186.3040  177.0710  136.4980 C   0  0  0  0  0  3  0  0  0  0  0  0
  181.8010  176.3130  139.8740 N   0  0  0  0  0  2  0  0  0  0  0  0
  183.1530  176.7550  139.4960 C   0  0  1  0  0  3  0  0  0  0  0  0
  182.1650  176.3890  138.4490 C   0  0  2  0  0  3  0  0  0  0  0  0
  181.1930  179.0320  135.8940 C   0  0  0  0  0  3  0  0  0  0  0  0
  179.9930  179.5130  136.4230 C   0  0  0  0  0  3  0  0  0  0  0  0
  181.8980  178.0280  136.5620 C   0  0  0  0  0  3  0  0  0  0  0  0
  179.4930  178.9840  137.6160 C   0  0  0  0  0  3  0  0  0  0  0  0
  180.2010  177.9830  138.2860 C   0  0  0  0  0  3  0  0  0  0  0  0
  181.4240  177.5160  137.7770 C   0  0  0  0  0  0  0  0  0  0  0  0
  182.5840  178.8270  140.8170 C   0  0  0  0  0  2  0  0  0  0  0  0
  184.7380  178.4780  144.5140 C   0  0  0  0  0  3  0  0  0  0  0  0
  183.3410  178.7080  142.1000 C   0  0  0  0  0  0  0  0  0  0  0  0
  182.7070  179.0140  143.3100 C   0  0  0  0  0  3  0  0  0  0  0  0
  183.4060  178.8990  144.5150 C   0  0  0  0  0  3  0  0  0  0  0  0
  185.3720  178.1680  143.3080 C   0  0  0  0  0  3  0  0  0  0  0  0
  184.6740  178.2820  142.1010 C   0  0  0  0  0  3  0  0  0  0  0  0
  1 21  1  0  0  0  0
  3  2  2  0  0  0  0
  3  1  1  0  0  0  0
  4  9  1  0  0  0  0
  6  7  1  0  0  0  0
  8  6  1  0  0  0  0
  8  3  1  0  0  0  0
  9  5  1  0  0  0  0
  9  6  2  0  0  0  0
 10  8  2  0  0  0  0
 11  4  2  0  0  0  0
 11 10  1  0  0  0  0
 13  1  1  6  0  0  0
 13 12  1  0  0  0  0
 14 20  1  6  0  0  0
 14 13  1  0  0  0  0
 14 12  1  0  0  0  0
 15 16  2  0  0  0  0
 15 17  1  0  0  0  0
 16 18  1  0  0  0  0
 17 20  2  0  0  0  0
 18 19  2  0  0  0  0
 20 19  1  0  0  0  0
 21 23  1  0  0  0  0
 22 25  1  0  0  0  0
 23 27  2  0  0  0  0
 23 24  1  0  0  0  0
 24 25  2  0  0  0  0
 26 22  2  0  0  0  0
 27 26  1  0  0  0  0
M  END
>  <MODEL>
4

>  <REMARK>
 VINA RESULT:      -6.7      4.971      8.414
  Name = 
  5 active torsions:
  status: ('A' for Active; 'I' for Inactive)
    1  A    between atoms: N_2  and  C_6
    2  A    between atoms: N_2  and  C_15
    3  A    between atoms: C_6  and  C_9
    4  A    between atoms: C_14  and  C_19
    5  A    between atoms: C_18  and  C_26
                            x       y       z     vdW  Elec       q    Type
                         _______ _______ _______ _____ _____    ______ ____

>  <TORSDO>
F 5

$$$$
=
 OpenBabel11052413503D

 27 30  0  0  1  0  0  0  0  0999 V2000
  183.1000  178.4140  138.8230 N   0  0  0  0  0  0  0  0  0  0  0  0
  184.2140  180.4670  138.8330 O   0  0  0  0  0  0  0  0  0  0  0  0
  184.0900  179.3240  139.3540 C   0  0  0  0  0  0  0  0  0  0  0  0
  186.6400  178.2530  142.6060 C   0  0  0  0  0  3  0  0  0  0  0  0
  184.7520  178.2720  144.2290 C   0  0  0  0  0  1  0  0  0  0  0  0
  184.4260  178.7980  141.7940 C   0  0  0  0  0  0  0  0  0  0  0  0
  183.1050  179.0030  142.0360 F   0  0  0  0  0  0  0  0  0  0  0  0
  184.9600  178.9650  140.5010 C   0  0  0  0  0  0  0  0  0  0  0  0
  185.2800  178.4440  142.8480 C   0  0  0  0  0  0  0  0  0  0  0  0
  186.2930  178.7640  140.3030 N   0  0  0  0  0  0  0  0  0  0  0  0
  187.1330  178.4180  141.3130 C   0  0  0  0  0  3  0  0  0  0  0  0
  182.2780  176.1980  138.2900 N   0  0  0  0  0  2  0  0  0  0  0  0
  183.0470  177.0080  139.2500 C   0  0  1  0  0  3  0  0  0  0  0  0
  183.7440  176.0580  138.3440 C   0  0  2  0  0  3  0  0  0  0  0  0
  186.3330  177.5020  135.9640 C   0  0  0  0  0  3  0  0  0  0  0  0
  185.6190  177.5570  134.7650 C   0  0  0  0  0  3  0  0  0  0  0  0
  185.7150  177.0270  137.1240 C   0  0  0  0  0  3  0  0  0  0  0  0
  184.2890  177.1280  134.7220 C   0  0  0  0  0  3  0  0  0  0  0  0
  183.6710  176.6560  135.8830 C   0  0  0  0  0  3  0  0  0  0  0  0
  184.3720  176.6280  137.0990 C   0  0  0  0  0  0  0  0  0  0  0  0
  181.9460  178.9790  138.1260 C   0  0  0  0  0  2  0  0  0  0  0  0
  179.2590  180.8720  140.8880 C   0  0  0  0  0  3  0  0  0  0  0  0
  181.0070  179.6420  139.0810 C   0  0  0  0  0  0  0  0  0  0  0  0
  180.4550  178.9060  140.1340 C   0  0  0  0  0  3  0  0  0  0  0  0
  179.5810  179.5200  141.0360 C   0  0  0  0  0  3  0  0  0  0  0  0
  179.8130  181.6110  139.8390 C   0  0  0  0  0  3  0  0  0  0  0  0
  180.6870  180.9970  138.9360 C   0  0  0  0  0  3  0  0  0  0  0  0
  1  3  1  0  0  0  0
  2  3  2  0  0  0  0
  3  8  1  0  0  0  0
  4  9  1  0  0  0  0
  6  7  1  0  0  0  0
  6  9  2  0  0  0  0
  8  6  1  0  0  0  0
  9  5  1  0  0  0  0
 10  8  2  0  0  0  0
 10 11  1  0  0  0  0
 11  4  2  0  0  0  0
 12 14  1  0  0  0  0
 12 13  1  0  0  0  0
 13  1  1  6  0  0  0
 14 20  1  6  0  0  0
 14 13  1  0  0  0  0
 15 17  1  0  0  0  0
 16 15  2  0  0  0  0
 18 16  1  0  0  0  0
 18 19  2  0  0  0  0
 19 20  1  0  0  0  0
 20 17  2  0  0  0  0
 21  1  1  0  0  0  0
 21 23  1  0  0  0  0
 22 25  1  0  0  0  0
 23 24  1  0  0  0  0
 24 25  2  0  0  0  0
 26 22  2  0  0  0  0
 27 23  2  0  0  0  0
 27 26  1  0  0  0  0
M  END
>  <MODEL>
5

>  <REMARK>
 VINA RESULT:      -6.7      5.300      8.672
  Name = 
  5 active torsions:
  status: ('A' for Active; 'I' for Inactive)
    1  A    between atoms: N_2  and  C_6
    2  A    between atoms: N_2  and  C_15
    3  A    between atoms: C_6  and  C_9
    4  A    between atoms: C_14  and  C_19
    5  A    between atoms: C_18  and  C_26
                            x       y       z     vdW  Elec       q    Type
                         _______ _______ _______ _____ _____    ______ ____

>  <TORSDO>
F 5

$$$$
=
 OpenBabel11052413503D

 27 30  0  0  1  0  0  0  0  0999 V2000
  189.3380  177.1040  143.5780 N   0  0  0  0  0  0  0  0  0  0  0  0
  187.7590  175.3830  143.5790 O   0  0  0  0  0  0  0  0  0  0  0  0
  187.9940  176.6080  143.7700 C   0  0  0  0  0  0  0  0  0  0  0  0
  184.7920  179.1140  145.0700 C   0  0  0  0  0  3  0  0  0  0  0  0
  183.7870  179.1900  142.7940 C   0  0  0  0  0  1  0  0  0  0  0  0
  185.8880  177.9030  143.2860 C   0  0  0  0  0  0  0  0  0  0  0  0
  185.9470  177.5400  141.9780 F   0  0  0  0  0  0  0  0  0  0  0  0
  186.8800  177.4890  144.1970 C   0  0  0  0  0  0  0  0  0  0  0  0
  184.8440  178.7240  143.7330 C   0  0  0  0  0  0  0  0  0  0  0  0
  186.7910  177.8870  145.4980 N   0  0  0  0  0  0  0  0  0  0  0  0
  185.7840  178.6810  145.9480 C   0  0  0  0  0  3  0  0  0  0  0  0
  190.9820  178.8090  143.0670 N   0  0  0  0  0  2  0  0  0  0  0  0
  189.6300  178.5450  143.5860 C   0  0  1  0  0  3  0  0  0  0  0  0
  189.8100  179.1500  142.2410 C   0  0  2  0  0  3  0  0  0  0  0  0
  188.4610  177.3990  139.1490 C   0  0  0  0  0  3  0  0  0  0  0  0
  189.5600  176.6340  138.7500 C   0  0  0  0  0  3  0  0  0  0  0  0
  188.5440  178.2020  140.2890 C   0  0  0  0  0  3  0  0  0  0  0  0
  190.7470  176.6800  139.4870 C   0  0  0  0  0  3  0  0  0  0  0  0
  190.8290  177.4810  140.6290 C   0  0  0  0  0  3  0  0  0  0  0  0
  189.7180  178.2280  141.0530 C   0  0  0  0  0  0  0  0  0  0  0  0
  190.4480  176.1630  143.7180 C   0  0  0  0  0  2  0  0  0  0  0  0
  191.9180  176.1070  147.7510 C   0  0  0  0  0  3  0  0  0  0  0  0
  190.9680  176.1430  145.1180 C   0  0  0  0  0  0  0  0  0  0  0  0
  190.3480  176.9250  146.0990 C   0  0  0  0  0  3  0  0  0  0  0  0
  190.8230  176.9070  147.4140 C   0  0  0  0  0  3  0  0  0  0  0  0
  192.5370  175.3220  146.7740 C   0  0  0  0  0  3  0  0  0  0  0  0
  192.0610  175.3390  145.4590 C   0  0  0  0  0  3  0  0  0  0  0  0
  1 21  1  0  0  0  0
  1  3  1  0  0  0  0
  2  3  2  0  0  0  0
  3  8  1  0  0  0  0
  4 11  1  0  0  0  0
  5  9  1  0  0  0  0
  6  9  1  0  0  0  0
  6  8  2  0  0  0  0
  7  6  1  0  0  0  0
  8 10  1  0  0  0  0
  9  4  2  0  0  0  0
 10 11  2  0  0  0  0
 12 13  1  0  0  0  0
 13  1  1  6  0  0  0
 14 20  1  6  0  0  0
 14 12  1  0  0  0  0
 14 13  1  0  0  0  0
 15 17  1  0  0  0  0
 16 15  2  0  0  0  0
 16 18  1  0  0  0  0
 17 20  2  0  0  0  0
 18 19  2  0  0  0  0
 19 20  1  0  0  0  0
 21 23  1  0  0  0  0
 23 27  2  0  0  0  0
 23 24  1  0  0  0  0
 24 25  2  0  0  0  0
 25 22  1  0  0  0  0
 26 22  2  0  0  0  0
 27 26  1  0  0  0  0
M  END
>  <MODEL>
6

>  <REMARK>
 VINA RESULT:      -6.3      1.603      5.589
  Name = 
  5 active torsions:
  status: ('A' for Active; 'I' for Inactive)
    1  A    between atoms: N_2  and  C_6
    2  A    between atoms: N_2  and  C_15
    3  A    between atoms: C_6  and  C_9
    4  A    between atoms: C_14  and  C_19
    5  A    between atoms: C_18  and  C_26
                            x       y       z     vdW  Elec       q    Type
                         _______ _______ _______ _____ _____    ______ ____

>  <TORSDO>
F 5

$$$$
=
 OpenBabel11052413503D

 27 30  0  0  1  0  0  0  0  0999 V2000
  189.2800  177.8790  142.7680 N   0  0  0  0  0  0  0  0  0  0  0  0
  190.4830  179.6840  143.6320 O   0  0  0  0  0  0  0  0  0  0  0  0
  189.9950  178.5390  143.8370 C   0  0  0  0  0  0  0  0  0  0  0  0
  190.4500  176.8210  147.7180 C   0  0  0  0  0  3  0  0  0  0  0  0
  192.4300  175.4880  147.0110 C   0  0  0  0  0  1  0  0  0  0  0  0
  191.2100  177.0120  145.4290 C   0  0  0  0  0  0  0  0  0  0  0  0
  192.0700  176.6440  144.4440 F   0  0  0  0  0  0  0  0  0  0  0  0
  190.1640  177.9210  145.1750 C   0  0  0  0  0  0  0  0  0  0  0  0
  191.3440  176.4610  146.7110 C   0  0  0  0  0  0  0  0  0  0  0  0
  189.3140  178.2530  146.1870 N   0  0  0  0  0  0  0  0  0  0  0  0
  189.4310  177.7290  147.4360 C   0  0  0  0  0  3  0  0  0  0  0  0
  188.5100  176.1370  144.2650 N   0  0  0  0  0  2  0  0  0  0  0  0
  188.8680  176.4720  142.8770 C   0  0  1  0  0  3  0  0  0  0  0  0
  187.4450  176.2700  143.2560 C   0  0  2  0  0  3  0  0  0  0  0  0
  185.1020  179.2130  142.7060 C   0  0  0  0  0  3  0  0  0  0  0  0
  184.9610  179.7120  144.0030 C   0  0  0  0  0  3  0  0  0  0  0  0
  185.9190  178.1050  142.4690 C   0  0  0  0  0  3  0  0  0  0  0  0
  185.6290  179.0970  145.0650 C   0  0  0  0  0  3  0  0  0  0  0  0
  186.4490  177.9910  144.8270 C   0  0  0  0  0  3  0  0  0  0  0  0
  186.6210  177.5030  143.5210 C   0  0  0  0  0  0  0  0  0  0  0  0
  188.6720  178.7080  141.7280 C   0  0  0  0  0  2  0  0  0  0  0  0
  189.4130  177.1190  137.8090 C   0  0  0  0  0  3  0  0  0  0  0  0
  188.9340  178.1480  140.3670 C   0  0  0  0  0  0  0  0  0  0  0  0
  187.9460  178.2320  139.3810 C   0  0  0  0  0  3  0  0  0  0  0  0
  188.1850  177.7170  138.1040 C   0  0  0  0  0  3  0  0  0  0  0  0
  190.4040  177.0380  138.7910 C   0  0  0  0  0  3  0  0  0  0  0  0
  190.1650  177.5530  140.0690 C   0  0  0  0  0  3  0  0  0  0  0  0
  1  3  1  0  0  0  0
  2  3  2  0  0  0  0
  3  8  1  0  0  0  0
  6  9  1  0  0  0  0
  7  6  1  0  0  0  0
  8  6  2  0  0  0  0
  8 10  1  0  0  0  0
  9  5  1  0  0  0  0
  9  4  2  0  0  0  0
 10 11  2  0  0  0  0
 11  4  1  0  0  0  0
 13  1  1  1  0  0  0
 13 14  1  0  0  0  0
 13 12  1  0  0  0  0
 14 20  1  1  0  0  0
 14 12  1  0  0  0  0
 15 16  1  0  0  0  0
 16 18  2  0  0  0  0
 17 15  2  0  0  0  0
 17 20  1  0  0  0  0
 19 18  1  0  0  0  0
 20 19  2  0  0  0  0
 21  1  1  0  0  0  0
 22 25  2  0  0  0  0
 22 26  1  0  0  0  0
 23 21  1  0  0  0  0
 24 23  2  0  0  0  0
 25 24  1  0  0  0  0
 26 27  2  0  0  0  0
 27 23  1  0  0  0  0
M  END
>  <MODEL>
7

>  <REMARK>
 VINA RESULT:      -6.1      1.729      6.418
  Name = 
  5 active torsions:
  status: ('A' for Active; 'I' for Inactive)
    1  A    between atoms: N_2  and  C_6
    2  A    between atoms: N_2  and  C_15
    3  A    between atoms: C_6  and  C_9
    4  A    between atoms: C_14  and  C_19
    5  A    between atoms: C_18  and  C_26
                            x       y       z     vdW  Elec       q    Type
                         _______ _______ _______ _____ _____    ______ ____

>  <TORSDO>
F 5

$$$$
=
 OpenBabel11052413503D

 27 30  0  0  1  0  0  0  0  0999 V2000
  188.8640  177.7750  143.7280 N   0  0  0  0  0  0  0  0  0  0  0  0
  189.6940  179.7070  142.7120 O   0  0  0  0  0  0  0  0  0  0  0  0
  189.3790  178.4920  142.5840 C   0  0  0  0  0  0  0  0  0  0  0  0
  189.9830  176.6350  138.7880 C   0  0  0  0  0  3  0  0  0  0  0  0
  187.7850  177.4300  137.9310 C   0  0  0  0  0  1  0  0  0  0  0  0
  188.5850  177.9570  140.2540 C   0  0  0  0  0  0  0  0  0  0  0  0
  187.4250  178.6280  140.4790 F   0  0  0  0  0  0  0  0  0  0  0  0
  189.5630  177.8440  141.2620 C   0  0  0  0  0  0  0  0  0  0  0  0
  188.8030  177.3410  139.0140 C   0  0  0  0  0  0  0  0  0  0  0  0
  190.7060  177.1500  141.0010 N   0  0  0  0  0  0  0  0  0  0  0  0
  190.9340  176.5500  139.8030 C   0  0  0  0  0  3  0  0  0  0  0  0
  187.5660  176.0410  144.8130 N   0  0  0  0  0  2  0  0  0  0  0  0
  188.2940  176.4270  143.5930 C   0  0  1  0  0  3  0  0  0  0  0  0
  186.8090  176.3780  143.5950 C   0  0  2  0  0  3  0  0  0  0  0  0
  184.8000  179.5090  142.8120 C   0  0  0  0  0  3  0  0  0  0  0  0
  184.5820  180.0360  144.0870 C   0  0  0  0  0  3  0  0  0  0  0  0
  185.5340  178.3300  142.6590 C   0  0  0  0  0  3  0  0  0  0  0  0
  185.0900  179.3780  145.2110 C   0  0  0  0  0  3  0  0  0  0  0  0
  185.8270  178.2000  145.0570 C   0  0  0  0  0  3  0  0  0  0  0  0
  186.0760  177.6820  143.7760 C   0  0  0  0  0  0  0  0  0  0  0  0
  189.2250  178.2530  145.0630 C   0  0  0  0  0  2  0  0  0  0  0  0
  192.0560  175.6330  146.9480 C   0  0  0  0  0  3  0  0  0  0  0  0
  190.2160  177.3440  145.7130 C   0  0  0  0  0  0  0  0  0  0  0  0
  190.1810  177.1580  147.1000 C   0  0  0  0  0  3  0  0  0  0  0  0
  191.1010  176.3050  147.7160 C   0  0  0  0  0  3  0  0  0  0  0  0
  192.0900  175.8130  145.5620 C   0  0  0  0  0  3  0  0  0  0  0  0
  191.1700  176.6670  144.9450 C   0  0  0  0  0  3  0  0  0  0  0  0
  1 21  1  0  0  0  0
  3  2  2  0  0  0  0
  3  1  1  0  0  0  0
  4  9  2  0  0  0  0
  4 11  1  0  0  0  0
  5  9  1  0  0  0  0
  6  7  1  0  0  0  0
  6  8  2  0  0  0  0
  8  3  1  0  0  0  0
  9  6  1  0  0  0  0
 10  8  1  0  0  0  0
 11 10  2  0  0  0  0
 13 14  1  0  0  0  0
 13  1  1  1  0  0  0
 13 12  1  0  0  0  0
 14 20  1  1  0  0  0
 14 12  1  0  0  0  0
 15 16  1  0  0  0  0
 16 18  2  0  0  0  0
 17 15  2  0  0  0  0
 17 20  1  0  0  0  0
 19 18  1  0  0  0  0
 20 19  2  0  0  0  0
 21 23  1  0  0  0  0
 22 25  1  0  0  0  0
 23 24  1  0  0  0  0
 24 25  2  0  0  0  0
 26 22  2  0  0  0  0
 27 26  1  0  0  0  0
 27 23  2  0  0  0  0
M  END
>  <MODEL>
8

>  <REMARK>
 VINA RESULT:      -6.0      1.812      5.250
  Name = 
  5 active torsions:
  status: ('A' for Active; 'I' for Inactive)
    1  A    between atoms: N_2  and  C_6
    2  A    between atoms: N_2  and  C_15
    3  A    between atoms: C_6  and  C_9
    4  A    between atoms: C_14  and  C_19
    5  A    between atoms: C_18  and  C_26
                            x       y       z     vdW  Elec       q    Type
                         _______ _______ _______ _____ _____    ______ ____

>  <TORSDO>
F 5

$$$$
=
 OpenBabel11052413503D

 27 30  0  0  1  0  0  0  0  0999 V2000
  188.8860  177.8650  143.5600 N   0  0  0  0  0  0  0  0  0  0  0  0
  189.4320  179.8530  142.4640 O   0  0  0  0  0  0  0  0  0  0  0  0
  189.1610  178.6250  142.3620 C   0  0  0  0  0  0  0  0  0  0  0  0
  189.0440  176.8370  138.4870 C   0  0  0  0  0  3  0  0  0  0  0  0
  191.3800  176.0010  138.6880 C   0  0  0  0  0  1  0  0  0  0  0  0
  190.2690  177.3130  140.5190 C   0  0  0  0  0  0  0  0  0  0  0  0
  191.4120  177.2250  141.2480 F   0  0  0  0  0  0  0  0  0  0  0  0
  189.1470  178.0070  141.0130 C   0  0  0  0  0  0  0  0  0  0  0  0
  190.2100  176.7310  139.2460 C   0  0  0  0  0  0  0  0  0  0  0  0
  188.0240  178.0850  140.2450 N   0  0  0  0  0  0  0  0  0  0  0  0
  187.9500  177.5240  139.0090 C   0  0  0  0  0  3  0  0  0  0  0  0
  187.7330  176.1060  144.7630 N   0  0  0  0  0  2  0  0  0  0  0  0
  188.3690  176.4900  143.4930 C   0  0  1  0  0  3  0  0  0  0  0  0
  186.8900  176.3780  143.5860 C   0  0  2  0  0  3  0  0  0  0  0  0
  184.7090  179.4030  142.8490 C   0  0  0  0  0  3  0  0  0  0  0  0
  184.5380  179.9500  144.1220 C   0  0  0  0  0  3  0  0  0  0  0  0
  185.4830  178.2520  142.6800 C   0  0  0  0  0  3  0  0  0  0  0  0
  185.1350  179.3410  145.2300 C   0  0  0  0  0  3  0  0  0  0  0  0
  185.9120  178.1920  145.0600 C   0  0  0  0  0  3  0  0  0  0  0  0
  186.1130  177.6550  143.7790 C   0  0  0  0  0  0  0  0  0  0  0  0
  189.4460  178.3410  144.8250 C   0  0  0  0  0  2  0  0  0  0  0  0
  192.0640  175.4200  146.5700 C   0  0  0  0  0  3  0  0  0  0  0  0
  190.3630  177.3260  145.4270 C   0  0  0  0  0  0  0  0  0  0  0  0
  190.3690  177.1320  146.8120 C   0  0  0  0  0  3  0  0  0  0  0  0
  191.2190  176.1810  147.3830 C   0  0  0  0  0  3  0  0  0  0  0  0
  192.0570  175.6080  145.1860 C   0  0  0  0  0  3  0  0  0  0  0  0
  191.2060  176.5600  144.6140 C   0  0  0  0  0  3  0  0  0  0  0  0
  1 21  1  0  0  0  0
  3  2  2  0  0  0  0
  3  1  1  0  0  0  0
  4 11  2  0  0  0  0
  4  9  1  0  0  0  0
  5  9  1  0  0  0  0
  6  8  1  0  0  0  0
  6  7  1  0  0  0  0
  8  3  1  0  0  0  0
  9  6  2  0  0  0  0
 10  8  2  0  0  0  0
 11 10  1  0  0  0  0
 13  1  1  1  0  0  0
 13 14  1  0  0  0  0
 13 12  1  0  0  0  0
 14 20  1  1  0  0  0
 14 12  1  0  0  0  0
 15 16  1  0  0  0  0
 16 18  2  0  0  0  0
 17 15  2  0  0  0  0
 17 20  1  0  0  0  0
 19 18  1  0  0  0  0
 20 19  2  0  0  0  0
 21 23  1  0  0  0  0
 22 25  1  0  0  0  0
 23 24  1  0  0  0  0
 24 25  2  0  0  0  0
 26 22  2  0  0  0  0
 27 26  1  0  0  0  0
 27 23  2  0  0  0  0
M  END
>  <MODEL>
9

>  <REMARK>
 VINA RESULT:      -5.9      1.476      5.062
  Name = 
  5 active torsions:
  status: ('A' for Active; 'I' for Inactive)
    1  A    between atoms: N_2  and  C_6
    2  A    between atoms: N_2  and  C_15
    3  A    between atoms: C_6  and  C_9
    4  A    between atoms: C_14  and  C_19
    5  A    between atoms: C_18  and  C_26
                            x       y       z     vdW  Elec       q    Type
                         _______ _______ _______ _____ _____    ______ ____

>  <TORSDO>
F 5

$$$$
