=
 OpenBabel11052416293D

 43 46  0  0  1  0  0  0  0  0999 V2000
  188.5740  178.0180  138.5870 C   0  0  0  0  0  0  0  0  0  0  0  0
  188.9460  176.4940  141.6010 C   0  0  0  0  0  1  0  0  0  0  0  0
  190.0810  176.0610  138.5630 C   0  0  2  0  0  3  0  0  0  0  0  0
  189.6700  177.4540  140.6690 C   0  0  2  0  0  3  0  0  0  0  0  0
  191.8200  174.5540  136.8800 C   0  0  0  0  0  0  0  0  0  0  0  0
  192.4350  175.2760  138.0600 C   0  0  2  0  0  3  0  0  0  0  0  0
  192.5630  173.5840  136.2240 O   0  0  0  0  0  1  0  0  0  0  0  0
  192.0060  176.8360  139.9950 C   0  0  0  0  0  3  0  0  0  0  0  0
  187.8630  178.8890  137.9300 C   0  0  0  0  0  3  0  0  0  0  0  0
  191.5660  176.4210  138.6100 C   0  0  2  0  0  3  0  0  0  0  0  0
  189.6780  175.8110  137.1090 C   0  0  0  0  0  2  0  0  0  0  0  0
  189.3010  177.1530  139.2480 C   0  0  0  0  0  0  0  0  0  0  0  0
  191.1700  177.3710  140.9020 C   0  0  0  0  0  0  0  0  0  0  0  0
  190.5600  174.7700  136.4850 C   0  0  0  0  0  3  0  0  0  0  0  0
  185.2700  176.7000  136.2610 C   0  0  0  0  0  2  0  0  0  0  0  0
  187.2040  177.3560  134.7660 C   0  0  0  0  0  3  0  0  0  0  0  0
  186.0830  176.3730  135.0070 C   0  0  1  0  0  3  0  0  0  0  0  0
  186.1870  177.1700  137.3780 C   0  0  0  0  0  2  0  0  0  0  0  0
  186.8840  178.4390  136.9070 C   0  0  2  0  0  3  0  0  0  0  0  0
  186.6100  175.0860  135.1160 O   0  0  0  0  0  1  0  0  0  0  0  0
  187.5660  178.2340  135.6420 N   0  0  0  0  0  0  0  0  0  0  0  0
  193.8160  175.7520  137.7260 C   0  0  0  0  0  0  0  0  0  0  0  0
  193.9910  176.5840  136.7910 O   0  0  0  0  0  0  0  0  0  0  0  0
  194.9030  175.2370  138.4360 O   0  0  0  0  0  0  0  0  0  0  0  0
  195.1140  173.8400  138.5650 C   0  0  0  0  0  1  0  0  0  0  0  0
  191.7530  177.8400  142.2070 C   0  0  0  0  0  2  0  0  0  0  0  0
  190.6790  178.1200  143.2700 C   0  0  2  0  0  3  0  0  0  0  0  0
  190.6380  179.4920  143.5430 O   0  0  0  0  0  0  0  0  0  0  0  0
  191.7520  179.7300  144.3480 C   0  0  0  0  0  1  0  0  0  0  0  0
  190.8990  177.2760  144.5420 C   0  0  1  0  0  3  0  0  0  0  0  0
  189.7180  177.1330  146.8390 C   0  0  0  0  0  1  0  0  0  0  0  0
  189.5890  177.0150  145.3220 C   0  0  1  0  0  3  0  0  0  0  0  0
  188.4900  177.7580  144.8350 O   0  0  0  0  0  0  0  0  0  0  0  0
  187.4310  177.6740  145.7580 C   0  0  0  0  0  2  0  0  0  0  0  0
  185.1580  178.7560  145.9350 C   0  0  0  0  0  0  0  0  0  0  0  0
  186.2090  178.1770  145.1510 N   0  0  0  0  0  0  0  0  0  0  0  0
  183.7780  178.9700  143.9510 N   0  0  0  0  0  2  0  0  0  0  0  0
  185.0250  179.0510  143.1940 C   0  0  0  0  0  2  0  0  0  0  0  0
  186.0060  178.0060  143.7180 C   0  0  0  0  0  2  0  0  0  0  0  0
  185.2700  178.8700  147.1850 O   0  0  0  0  0  0  0  0  0  0  0  0
  184.0290  179.2570  145.2840 O   0  0  0  0  0  0  0  0  0  0  0  0
  191.5730  175.9670  144.1420 C   0  0  0  0  0  2  0  0  0  0  0  0
  192.1370  175.3670  145.2690 O   0  0  0  0  0  1  0  0  0  0  0  0
  1 12  2  0  0  0  0
  3 11  1  6  0  0  0
  3 10  1  0  0  0  0
  3 12  1  0  0  0  0
  4 13  1  0  0  0  0
  4  2  1  1  0  0  0
  5  6  1  0  0  0  0
  6 22  1  6  0  0  0
  6 10  1  0  0  0  0
  7  5  1  0  0  0  0
  8 13  2  0  0  0  0
  9  1  2  0  0  0  0
 10  8  1  1  0  0  0
 12  4  1  0  0  0  0
 13 26  1  0  0  0  0
 14  5  2  0  0  0  0
 14 11  1  0  0  0  0
 15 18  1  0  0  0  0
 16 17  1  0  0  0  0
 16 21  2  0  0  0  0
 17 20  1  1  0  0  0
 17 15  1  0  0  0  0
 19 18  1  0  0  0  0
 19  9  1  1  0  0  0
 21 19  1  0  0  0  0
 22 24  1  0  0  0  0
 23 22  2  0  0  0  0
 24 25  1  0  0  0  0
 27 26  1  6  0  0  0
 27 28  1  0  0  0  0
 27 30  1  0  0  0  0
 28 29  1  0  0  0  0
 30 42  1  6  0  0  0
 30 32  1  0  0  0  0
 32 31  1  1  0  0  0
 33 32  1  0  0  0  0
 33 34  1  0  0  0  0
 35 40  2  0  0  0  0
 36 34  1  0  0  0  0
 36 35  1  0  0  0  0
 37 41  1  0  0  0  0
 38 39  1  0  0  0  0
 38 37  1  0  0  0  0
 39 36  1  0  0  0  0
 41 35  1  0  0  0  0
 42 43  1  0  0  0  0
M  END
>  <MODEL>
1

>  <REMARK>
 VINA RESULT:      -7.6      0.000      0.000
  Name = 
  12 active torsions:
  status: ('A' for Active; 'I' for Inactive)
    1  A    between atoms: C_2  and  C_6
    2  A    between atoms: C_2  and  C_38
    3  A    between atoms: C_4  and  C_15
    4  A    between atoms: C_4  and  O_22
    5  A    between atoms: O_5  and  C_18
    6  A    between atoms: C_6  and  O_12
    7  A    between atoms: C_6  and  C_15
    8  A    between atoms: C_10  and  C_15
    9  A    between atoms: N_14  and  C_41
   10  A    between atoms: C_18  and  C_21
   11  A    between atoms: O_22  and  C_41
   12  A    between atoms: C_28  and  C_35
                            x       y       z     vdW  Elec       q    Type
                         _______ _______ _______ _____ _____    ______ ____

>  <TORSDO>
F 12

$$$$
=
 OpenBabel11052416293D

 43 46  0  0  1  0  0  0  0  0999 V2000
  186.2950  175.3770  136.9640 C   0  0  0  0  0  0  0  0  0  0  0  0
  188.1080  178.0700  135.9620 C   0  0  0  0  0  1  0  0  0  0  0  0
  185.3670  177.5540  137.6730 C   0  0  2  0  0  3  0  0  0  0  0  0
  187.8560  177.2110  137.1920 C   0  0  2  0  0  3  0  0  0  0  0  0
  183.2710  178.7410  139.1970 C   0  0  0  0  0  0  0  0  0  0  0  0
  184.6920  178.9570  139.6700 C   0  0  2  0  0  3  0  0  0  0  0  0
  182.2610  179.5340  139.7210 O   0  0  0  0  0  1  0  0  0  0  0  0
  187.1200  178.3990  139.2760 C   0  0  0  0  0  3  0  0  0  0  0  0
  186.1340  174.0960  136.7940 C   0  0  0  0  0  3  0  0  0  0  0  0
  185.6930  177.9260  139.1200 C   0  0  2  0  0  3  0  0  0  0  0  0
  183.9690  176.9360  137.6250 C   0  0  0  0  0  2  0  0  0  0  0  0
  186.4630  176.6630  137.1480 C   0  0  0  0  0  0  0  0  0  0  0  0
  188.1140  178.0200  138.4530 C   0  0  0  0  0  0  0  0  0  0  0  0
  182.9590  177.8580  138.2420 C   0  0  0  0  0  3  0  0  0  0  0  0
  182.7490  172.5190  136.2000 C   0  0  0  0  0  2  0  0  0  0  0  0
  184.6270  171.5050  134.8430 C   0  0  0  0  0  3  0  0  0  0  0  0
  183.2450  171.3030  135.4170 C   0  0  1  0  0  3  0  0  0  0  0  0
  183.8820  173.1230  137.0140 C   0  0  0  0  0  2  0  0  0  0  0  0
  184.9620  173.5800  136.0420 C   0  0  2  0  0  3  0  0  0  0  0  0
  183.2480  170.1830  136.2470 O   0  0  0  0  0  1  0  0  0  0  0  0
  185.3830  172.5010  135.1680 N   0  0  0  0  0  0  0  0  0  0  0  0
  184.7470  179.0240  141.1660 C   0  0  0  0  0  0  0  0  0  0  0  0
  185.6080  179.7510  141.7370 O   0  0  0  0  0  0  0  0  0  0  0  0
  183.8610  178.2450  141.9130 O   0  0  0  0  0  0  0  0  0  0  0  0
  183.0940  178.7960  142.9730 C   0  0  0  0  0  1  0  0  0  0  0  0
  189.5100  178.4770  138.7780 C   0  0  0  0  0  2  0  0  0  0  0  0
  190.3390  177.3950  139.4880 C   0  0  2  0  0  3  0  0  0  0  0  0
  189.7770  176.1370  139.2390 O   0  0  0  0  0  0  0  0  0  0  0  0
  190.6920  175.4960  138.4020 C   0  0  0  0  0  1  0  0  0  0  0  0
  190.4850  177.6840  140.9960 C   0  0  1  0  0  3  0  0  0  0  0  0
  190.2210  175.7580  142.7040 C   0  0  0  0  0  1  0  0  0  0  0  0
  189.5300  176.8310  141.8640 C   0  0  1  0  0  3  0  0  0  0  0  0
  188.6390  177.6050  142.6410 O   0  0  0  0  0  0  0  0  0  0  0  0
  187.7420  176.7470  143.3050 C   0  0  0  0  0  2  0  0  0  0  0  0
  188.2350  177.3940  145.6940 C   0  0  0  0  0  0  0  0  0  0  0  0
  187.3440  177.3380  144.5720 N   0  0  0  0  0  0  0  0  0  0  0  0
  186.4680  178.3270  147.0690 N   0  0  0  0  0  2  0  0  0  0  0  0
  185.9060  178.8670  145.8330 C   0  0  0  0  0  2  0  0  0  0  0  0
  185.9730  177.8050  144.7390 C   0  0  0  0  0  2  0  0  0  0  0  0
  189.4100  176.9480  145.6090 O   0  0  0  0  0  0  0  0  0  0  0  0
  187.8030  178.0120  146.8690 O   0  0  0  0  0  0  0  0  0  0  0  0
  191.9410  177.4580  141.3920 C   0  0  0  0  0  2  0  0  0  0  0  0
  192.7520  177.5300  140.2590 O   0  0  0  0  0  1  0  0  0  0  0  0
  1 12  2  0  0  0  0
  3 11  1  1  0  0  0
  3 10  1  0  0  0  0
  4  2  1  6  0  0  0
  4 13  1  0  0  0  0
  5  6  1  0  0  0  0
  5  7  1  0  0  0  0
  6 22  1  1  0  0  0
  9  1  2  0  0  0  0
 10  8  1  6  0  0  0
 10  6  1  0  0  0  0
 11 14  1  0  0  0  0
 12  4  1  0  0  0  0
 12  3  1  0  0  0  0
 13 26  1  0  0  0  0
 13  8  2  0  0  0  0
 14  5  2  0  0  0  0
 15 18  1  0  0  0  0
 16 21  2  0  0  0  0
 16 17  1  0  0  0  0
 17 15  1  0  0  0  0
 17 20  1  1  0  0  0
 19  9  1  1  0  0  0
 19 18  1  0  0  0  0
 21 19  1  0  0  0  0
 22 23  2  0  0  0  0
 22 24  1  0  0  0  0
 24 25  1  0  0  0  0
 27 26  1  1  0  0  0
 27 30  1  0  0  0  0
 28 27  1  0  0  0  0
 29 28  1  0  0  0  0
 30 42  1  1  0  0  0
 30 32  1  0  0  0  0
 32 33  1  0  0  0  0
 32 31  1  1  0  0  0
 33 34  1  0  0  0  0
 34 36  1  0  0  0  0
 35 41  1  0  0  0  0
 36 39  1  0  0  0  0
 36 35  1  0  0  0  0
 38 37  1  0  0  0  0
 39 38  1  0  0  0  0
 40 35  2  0  0  0  0
 41 37  1  0  0  0  0
 43 42  1  0  0  0  0
M  END
>  <MODEL>
2

>  <REMARK>
 VINA RESULT:      -7.2      2.996      6.286
  Name = 
  12 active torsions:
  status: ('A' for Active; 'I' for Inactive)
    1  A    between atoms: C_2  and  C_6
    2  A    between atoms: C_2  and  C_38
    3  A    between atoms: C_4  and  C_15
    4  A    between atoms: C_4  and  O_22
    5  A    between atoms: O_5  and  C_18
    6  A    between atoms: C_6  and  O_12
    7  A    between atoms: C_6  and  C_15
    8  A    between atoms: C_10  and  C_15
    9  A    between atoms: N_14  and  C_41
   10  A    between atoms: C_18  and  C_21
   11  A    between atoms: O_22  and  C_41
   12  A    between atoms: C_28  and  C_35
                            x       y       z     vdW  Elec       q    Type
                         _______ _______ _______ _____ _____    ______ ____

>  <TORSDO>
F 12

$$$$
=
 OpenBabel11052416293D

 43 46  0  0  1  0  0  0  0  0999 V2000
  181.6610  180.7550  138.6040 C   0  0  0  0  0  0  0  0  0  0  0  0
  181.2680  178.4850  141.1000 C   0  0  0  0  0  1  0  0  0  0  0  0
  181.7350  178.4000  137.8630 C   0  0  2  0  0  3  0  0  0  0  0  0
  182.3530  179.1140  140.2410 C   0  0  2  0  0  3  0  0  0  0  0  0
  182.1520  176.7510  135.5770 C   0  0  0  0  0  0  0  0  0  0  0  0
  183.1480  176.6430  136.7110 C   0  0  2  0  0  3  0  0  0  0  0  0
  182.1430  175.7700  134.5950 O   0  0  0  0  0  1  0  0  0  0  0  0
  183.8390  177.5480  138.9620 C   0  0  0  0  0  3  0  0  0  0  0  0
  181.5510  182.0180  138.3040 C   0  0  0  0  0  3  0  0  0  0  0  0
  183.1500  177.8600  137.6530 C   0  0  2  0  0  3  0  0  0  0  0  0
  181.1680  178.8410  136.5140 C   0  0  0  0  0  2  0  0  0  0  0  0
  181.7870  179.4870  138.9050 C   0  0  0  0  0  0  0  0  0  0  0  0
  183.5340  178.1640  140.1170 C   0  0  0  0  0  0  0  0  0  0  0  0
  181.2330  177.7210  135.5180 C   0  0  0  0  0  3  0  0  0  0  0  0
  179.6260  182.8390  135.1550 C   0  0  0  0  0  2  0  0  0  0  0  0
  179.7330  184.7260  136.8360 C   0  0  0  0  0  3  0  0  0  0  0  0
  179.5170  184.3460  135.3910 C   0  0  1  0  0  3  0  0  0  0  0  0
  180.7570  182.2530  135.9850 C   0  0  0  0  0  2  0  0  0  0  0  0
  180.4300  182.4920  137.4530 C   0  0  2  0  0  3  0  0  0  0  0  0
  180.4480  185.0110  134.5940 O   0  0  0  0  0  1  0  0  0  0  0  0
  180.1770  183.8960  137.7210 N   0  0  0  0  0  0  0  0  0  0  0  0
  184.5220  176.3620  136.1830 C   0  0  0  0  0  0  0  0  0  0  0  0
  184.9150  175.1700  136.0410 O   0  0  0  0  0  0  0  0  0  0  0  0
  185.3680  177.4330  135.8870 O   0  0  0  0  0  0  0  0  0  0  0  0
  186.6550  177.5510  136.4750 C   0  0  0  0  0  1  0  0  0  0  0  0
  184.3640  177.8400  141.3290 C   0  0  0  0  0  2  0  0  0  0  0  0
  184.4720  179.0190  142.3080 C   0  0  2  0  0  3  0  0  0  0  0  0
  185.6950  179.6740  142.1200 O   0  0  0  0  0  0  0  0  0  0  0  0
  186.4090  178.8520  141.2470 C   0  0  0  0  0  1  0  0  0  0  0  0
  184.2660  178.5700  143.7700 C   0  0  1  0  0  3  0  0  0  0  0  0
  185.2990  178.8160  146.1290 C   0  0  0  0  0  1  0  0  0  0  0  0
  185.5470  178.7100  144.6250 C   0  0  1  0  0  3  0  0  0  0  0  0
  186.5290  177.7380  144.3280 O   0  0  0  0  0  0  0  0  0  0  0  0
  187.0590  177.2350  145.5310 C   0  0  0  0  0  2  0  0  0  0  0  0
  189.3360  177.1090  146.6110 C   0  0  0  0  0  0  0  0  0  0  0  0
  188.5090  177.1820  145.4430 N   0  0  0  0  0  0  0  0  0  0  0  0
  191.3250  177.2680  145.2320 N   0  0  0  0  0  2  0  0  0  0  0  0
  190.5320  176.6600  144.1660 C   0  0  0  0  0  2  0  0  0  0  0  0
  189.1460  177.2980  144.1370 C   0  0  0  0  0  2  0  0  0  0  0  0
  188.8260  177.0650  147.7630 O   0  0  0  0  0  0  0  0  0  0  0  0
  190.7200  177.0190  146.4550 O   0  0  0  0  0  0  0  0  0  0  0  0
  183.1140  179.3740  144.3650 C   0  0  0  0  0  2  0  0  0  0  0  0
  181.9300  178.6440  144.2600 O   0  0  0  0  0  1  0  0  0  0  0  0
  1 12  2  0  0  0  0
  3 11  1  6  0  0  0
  3 12  1  0  0  0  0
  4  2  1  1  0  0  0
  5  6  1  0  0  0  0
  6 22  1  6  0  0  0
  6 10  1  0  0  0  0
  7  5  1  0  0  0  0
  8 13  2  0  0  0  0
  9  1  2  0  0  0  0
 10  3  1  0  0  0  0
 10  8  1  1  0  0  0
 12  4  1  0  0  0  0
 13  4  1  0  0  0  0
 13 26  1  0  0  0  0
 14  5  2  0  0  0  0
 14 11  1  0  0  0  0
 15 17  1  0  0  0  0
 15 18  1  0  0  0  0
 16 21  2  0  0  0  0
 17 20  1  6  0  0  0
 17 16  1  0  0  0  0
 18 19  1  0  0  0  0
 19 21  1  0  0  0  0
 19  9  1  1  0  0  0
 23 22  2  0  0  0  0
 24 22  1  0  0  0  0
 24 25  1  0  0  0  0
 27 26  1  6  0  0  0
 27 30  1  0  0  0  0
 28 27  1  0  0  0  0
 29 28  1  0  0  0  0
 30 42  1  1  0  0  0
 30 32  1  0  0  0  0
 32 31  1  1  0  0  0
 33 32  1  0  0  0  0
 33 34  1  0  0  0  0
 35 40  2  0  0  0  0
 36 34  1  0  0  0  0
 36 35  1  0  0  0  0
 37 41  1  0  0  0  0
 38 37  1  0  0  0  0
 39 38  1  0  0  0  0
 39 36  1  0  0  0  0
 41 35  1  0  0  0  0
 43 42  1  0  0  0  0
M  END
>  <MODEL>
3

>  <REMARK>
 VINA RESULT:      -7.1      4.686      7.934
  Name = 
  12 active torsions:
  status: ('A' for Active; 'I' for Inactive)
    1  A    between atoms: C_2  and  C_6
    2  A    between atoms: C_2  and  C_38
    3  A    between atoms: C_4  and  C_15
    4  A    between atoms: C_4  and  O_22
    5  A    between atoms: O_5  and  C_18
    6  A    between atoms: C_6  and  O_12
    7  A    between atoms: C_6  and  C_15
    8  A    between atoms: C_10  and  C_15
    9  A    between atoms: N_14  and  C_41
   10  A    between atoms: C_18  and  C_21
   11  A    between atoms: O_22  and  C_41
   12  A    between atoms: C_28  and  C_35
                            x       y       z     vdW  Elec       q    Type
                         _______ _______ _______ _____ _____    ______ ____

>  <TORSDO>
F 12

$$$$
=
 OpenBabel11052416293D

 43 46  0  0  1  0  0  0  0  0999 V2000
  188.8630  177.3340  140.4420 C   0  0  0  0  0  0  0  0  0  0  0  0
  187.6800  178.8190  137.6260 C   0  0  0  0  0  1  0  0  0  0  0  0
  190.4150  177.2640  138.5220 C   0  0  2  0  0  3  0  0  0  0  0  0
  187.8790  177.4400  138.2350 C   0  0  2  0  0  3  0  0  0  0  0  0
  192.9470  176.2570  137.6840 C   0  0  0  0  0  0  0  0  0  0  0  0
  191.7150  175.7380  136.9750 C   0  0  2  0  0  3  0  0  0  0  0  0
  194.1930  176.0300  137.1190 O   0  0  0  0  0  1  0  0  0  0  0  0
  189.1950  175.7820  136.8870 C   0  0  0  0  0  3  0  0  0  0  0  0
  188.6610  177.1940  141.7220 C   0  0  0  0  0  3  0  0  0  0  0  0
  190.4120  175.9320  137.7700 C   0  0  2  0  0  3  0  0  0  0  0  0
  191.5840  177.2720  139.5080 C   0  0  0  0  0  2  0  0  0  0  0  0
  189.0620  177.4600  139.1540 C   0  0  0  0  0  0  0  0  0  0  0  0
  188.0270  176.4020  137.1340 C   0  0  0  0  0  0  0  0  0  0  0  0
  192.8770  176.9860  138.8040 C   0  0  0  0  0  3  0  0  0  0  0  0
  191.7420  177.9270  143.7870 C   0  0  0  0  0  2  0  0  0  0  0  0
  189.5940  177.8150  145.1180 C   0  0  0  0  0  3  0  0  0  0  0  0
  191.1010  177.7180  145.1600 C   0  0  1  0  0  3  0  0  0  0  0  0
  190.9180  177.2450  142.7070 C   0  0  0  0  0  2  0  0  0  0  0  0
  189.5370  177.8880  142.7000 C   0  0  2  0  0  3  0  0  0  0  0  0
  191.4700  176.4710  145.6620 O   0  0  0  0  0  1  0  0  0  0  0  0
  188.9230  177.8470  144.0150 N   0  0  0  0  0  0  0  0  0  0  0  0
  191.9000  174.3060  136.5750 C   0  0  0  0  0  0  0  0  0  0  0  0
  191.7490  173.3850  137.4270 O   0  0  0  0  0  0  0  0  0  0  0  0
  192.2750  174.0100  135.2620 O   0  0  0  0  0  0  0  0  0  0  0  0
  193.4180  173.2190  134.9740 C   0  0  0  0  0  1  0  0  0  0  0  0
  186.8590  176.0880  136.2400 C   0  0  0  0  0  2  0  0  0  0  0  0
  185.8770  175.0910  136.8740 C   0  0  2  0  0  3  0  0  0  0  0  0
  186.0860  173.8180  136.3300 O   0  0  0  0  0  0  0  0  0  0  0  0
  186.1700  172.9670  137.4330 C   0  0  0  0  0  1  0  0  0  0  0  0
  184.4140  175.5580  136.7280 C   0  0  1  0  0  3  0  0  0  0  0  0
  182.8830  177.6430  136.6990 C   0  0  0  0  0  1  0  0  0  0  0  0
  184.2140  177.0350  137.1390 C   0  0  1  0  0  3  0  0  0  0  0  0
  184.4680  177.2760  138.5080 O   0  0  0  0  0  0  0  0  0  0  0  0
  184.0210  178.5690  138.8400 C   0  0  0  0  0  2  0  0  0  0  0  0
  184.7890  179.0640  141.1920 C   0  0  0  0  0  0  0  0  0  0  0  0
  183.7730  178.6510  140.2700 N   0  0  0  0  0  0  0  0  0  0  0  0
  183.3020  178.6150  143.0550 N   0  0  0  0  0  2  0  0  0  0  0  0
  182.2010  178.8860  142.1330 C   0  0  0  0  0  2  0  0  0  0  0  0
  182.4840  178.2130  140.7930 C   0  0  0  0  0  2  0  0  0  0  0  0
  185.9350  179.3940  140.7850 O   0  0  0  0  0  0  0  0  0  0  0  0
  184.4720  179.1590  142.5480 O   0  0  0  0  0  0  0  0  0  0  0  0
  183.9720  175.3200  135.2880 C   0  0  0  0  0  2  0  0  0  0  0  0
  182.9500  174.3700  135.2620 O   0  0  0  0  0  1  0  0  0  0  0  0
  1  9  2  0  0  0  0
  3 12  1  0  0  0  0
  3 11  1  1  0  0  0
  4  2  1  6  0  0  0
  4 12  1  0  0  0  0
  5 14  2  0  0  0  0
  6 22  1  1  0  0  0
  6  5  1  0  0  0  0
  6 10  1  0  0  0  0
  7  5  1  0  0  0  0
  8 13  2  0  0  0  0
 10  8  1  6  0  0  0
 10  3  1  0  0  0  0
 12  1  2  0  0  0  0
 13  4  1  0  0  0  0
 14 11  1  0  0  0  0
 15 17  1  0  0  0  0
 16 17  1  0  0  0  0
 17 20  1  6  0  0  0
 18 15  1  0  0  0  0
 19  9  1  6  0  0  0
 19 18  1  0  0  0  0
 19 21  1  0  0  0  0
 21 16  2  0  0  0  0
 22 23  2  0  0  0  0
 24 22  1  0  0  0  0
 25 24  1  0  0  0  0
 26 13  1  0  0  0  0
 27 26  1  6  0  0  0
 28 27  1  0  0  0  0
 28 29  1  0  0  0  0
 30 42  1  6  0  0  0
 30 27  1  0  0  0  0
 30 32  1  0  0  0  0
 32 31  1  1  0  0  0
 32 33  1  0  0  0  0
 33 34  1  0  0  0  0
 34 36  1  0  0  0  0
 35 41  1  0  0  0  0
 36 39  1  0  0  0  0
 36 35  1  0  0  0  0
 38 37  1  0  0  0  0
 39 38  1  0  0  0  0
 40 35  2  0  0  0  0
 41 37  1  0  0  0  0
 43 42  1  0  0  0  0
M  END
>  <MODEL>
4

>  <REMARK>
 VINA RESULT:      -7.0      2.163      7.047
  Name = 
  12 active torsions:
  status: ('A' for Active; 'I' for Inactive)
    1  A    between atoms: C_2  and  C_6
    2  A    between atoms: C_2  and  C_38
    3  A    between atoms: C_4  and  C_15
    4  A    between atoms: C_4  and  O_22
    5  A    between atoms: O_5  and  C_18
    6  A    between atoms: C_6  and  O_12
    7  A    between atoms: C_6  and  C_15
    8  A    between atoms: C_10  and  C_15
    9  A    between atoms: N_14  and  C_41
   10  A    between atoms: C_18  and  C_21
   11  A    between atoms: O_22  and  C_41
   12  A    between atoms: C_28  and  C_35
                            x       y       z     vdW  Elec       q    Type
                         _______ _______ _______ _____ _____    ______ ____

>  <TORSDO>
F 12

$$$$
=
 OpenBabel11052416293D

 43 46  0  0  1  0  0  0  0  0999 V2000
  191.5580  175.5300  138.3480 C   0  0  0  0  0  0  0  0  0  0  0  0
  192.3620  177.5220  140.9790 C   0  0  0  0  0  1  0  0  0  0  0  0
  190.2270  177.6050  138.5010 C   0  0  2  0  0  3  0  0  0  0  0  0
  191.3110  176.5120  140.5440 C   0  0  2  0  0  3  0  0  0  0  0  0
  188.0630  179.0100  137.2900 C   0  0  0  0  0  0  0  0  0  0  0  0
  187.8850  178.5420  138.7180 C   0  0  2  0  0  3  0  0  0  0  0  0
  187.1740  179.9410  136.7720 O   0  0  0  0  0  1  0  0  0  0  0  0
  188.9170  177.2570  140.6280 C   0  0  0  0  0  3  0  0  0  0  0  0
  191.9480  174.5010  137.6500 C   0  0  0  0  0  3  0  0  0  0  0  0
  188.8450  177.4110  139.1260 C   0  0  2  0  0  3  0  0  0  0  0  0
  190.0880  177.5890  136.9790 C   0  0  0  0  0  2  0  0  0  0  0  0
  191.1550  176.5550  139.0550 C   0  0  0  0  0  0  0  0  0  0  0  0
  190.0010  176.7820  141.2660 C   0  0  0  0  0  0  0  0  0  0  0  0
  189.0850  178.6090  136.5260 C   0  0  0  0  0  3  0  0  0  0  0  0
  194.0760  173.8320  134.5970 C   0  0  0  0  0  2  0  0  0  0  0  0
  194.2000  176.2080  135.4560 C   0  0  0  0  0  3  0  0  0  0  0  0
  194.8770  175.1330  134.6390 C   0  0  1  0  0  3  0  0  0  0  0  0
  193.4590  173.5440  135.9560 C   0  0  0  0  0  2  0  0  0  0  0  0
  192.5090  174.6880  136.2870 C   0  0  2  0  0  3  0  0  0  0  0  0
  196.1450  174.8840  135.1630 O   0  0  0  0  0  1  0  0  0  0  0  0
  193.1770  175.9750  136.2100 N   0  0  0  0  0  0  0  0  0  0  0  0
  186.4580  178.1650  138.9770 C   0  0  0  0  0  0  0  0  0  0  0  0
  185.8080  178.7350  139.8980 O   0  0  0  0  0  0  0  0  0  0  0  0
  185.8740  177.1520  138.2130 O   0  0  0  0  0  0  0  0  0  0  0  0
  184.4840  177.1400  137.9270 C   0  0  0  0  0  1  0  0  0  0  0  0
  189.9090  176.5790  142.7540 C   0  0  0  0  0  2  0  0  0  0  0  0
  189.7260  177.8960  143.5230 C   0  0  2  0  0  3  0  0  0  0  0  0
  190.4150  178.9220  142.8660 O   0  0  0  0  0  0  0  0  0  0  0  0
  191.0070  179.6660  143.8880 C   0  0  0  0  0  1  0  0  0  0  0  0
  190.1470  177.7590  145.0010 C   0  0  1  0  0  3  0  0  0  0  0  0
  189.3090  177.3570  147.4150 C   0  0  0  0  0  1  0  0  0  0  0  0
  188.9690  177.3730  145.9260 C   0  0  1  0  0  3  0  0  0  0  0  0
  187.7900  178.1080  145.6690 O   0  0  0  0  0  0  0  0  0  0  0  0
  186.8320  177.2550  145.0890 C   0  0  0  0  0  2  0  0  0  0  0  0
  184.7540  178.5660  145.6650 C   0  0  0  0  0  0  0  0  0  0  0  0
  185.6630  178.0260  144.6970 N   0  0  0  0  0  0  0  0  0  0  0  0
  183.3070  179.3560  143.8850 N   0  0  0  0  0  2  0  0  0  0  0  0
  184.5070  179.4260  143.0550 C   0  0  0  0  0  2  0  0  0  0  0  0
  185.3540  178.1770  143.2810 C   0  0  0  0  0  2  0  0  0  0  0  0
  184.9530  178.4080  146.8990 O   0  0  0  0  0  0  0  0  0  0  0  0
  183.6730  179.3310  145.2230 O   0  0  0  0  0  0  0  0  0  0  0  0
  191.2760  176.7380  145.0890 C   0  0  0  0  0  2  0  0  0  0  0  0
  192.0680  177.0090  146.2050 O   0  0  0  0  0  1  0  0  0  0  0  0
  1 12  2  0  0  0  0
  3 11  1  6  0  0  0
  3 12  1  0  0  0  0
  3 10  1  0  0  0  0
  4  2  1  1  0  0  0
  4 13  1  0  0  0  0
  5  6  1  0  0  0  0
  6 22  1  6  0  0  0
  6 10  1  0  0  0  0
  7  5  1  0  0  0  0
  8 13  2  0  0  0  0
  9  1  2  0  0  0  0
 10  8  1  1  0  0  0
 12  4  1  0  0  0  0
 13 26  1  0  0  0  0
 14 11  1  0  0  0  0
 14  5  2  0  0  0  0
 15 17  1  0  0  0  0
 15 18  1  0  0  0  0
 16 21  2  0  0  0  0
 17 20  1  1  0  0  0
 17 16  1  0  0  0  0
 18 19  1  0  0  0  0
 19  9  1  1  0  0  0
 21 19  1  0  0  0  0
 22 23  2  0  0  0  0
 24 22  1  0  0  0  0
 25 24  1  0  0  0  0
 27 26  1  6  0  0  0
 27 30  1  0  0  0  0
 28 27  1  0  0  0  0
 28 29  1  0  0  0  0
 30 42  1  6  0  0  0
 30 32  1  0  0  0  0
 32 31  1  1  0  0  0
 33 32  1  0  0  0  0
 34 33  1  0  0  0  0
 35 40  2  0  0  0  0
 36 34  1  0  0  0  0
 36 35  1  0  0  0  0
 37 41  1  0  0  0  0
 38 39  1  0  0  0  0
 38 37  1  0  0  0  0
 39 36  1  0  0  0  0
 41 35  1  0  0  0  0
 42 43  1  0  0  0  0
M  END
>  <MODEL>
5

>  <REMARK>
 VINA RESULT:      -7.0      2.116      5.021
  Name = 
  12 active torsions:
  status: ('A' for Active; 'I' for Inactive)
    1  A    between atoms: C_2  and  C_6
    2  A    between atoms: C_2  and  C_38
    3  A    between atoms: C_4  and  C_15
    4  A    between atoms: C_4  and  O_22
    5  A    between atoms: O_5  and  C_18
    6  A    between atoms: C_6  and  O_12
    7  A    between atoms: C_6  and  C_15
    8  A    between atoms: C_10  and  C_15
    9  A    between atoms: N_14  and  C_41
   10  A    between atoms: C_18  and  C_21
   11  A    between atoms: O_22  and  C_41
   12  A    between atoms: C_28  and  C_35
                            x       y       z     vdW  Elec       q    Type
                         _______ _______ _______ _____ _____    ______ ____

>  <TORSDO>
F 12

$$$$
=
 OpenBabel11052416293D

 43 46  0  0  1  0  0  0  0  0999 V2000
  187.1050  177.2500  143.0770 C   0  0  0  0  0  0  0  0  0  0  0  0
  184.9330  179.8500  142.8340 C   0  0  0  0  0  1  0  0  0  0  0  0
  187.2830  178.5350  140.9760 C   0  0  2  0  0  3  0  0  0  0  0  0
  185.1220  178.4230  142.3410 C   0  0  2  0  0  3  0  0  0  0  0  0
  188.6370  178.6140  138.4690 C   0  0  0  0  0  0  0  0  0  0  0  0
  187.1400  178.3930  138.4520 C   0  0  2  0  0  3  0  0  0  0  0  0
  189.2800  178.9550  137.2880 O   0  0  0  0  0  1  0  0  0  0  0  0
  185.0720  178.0640  139.8580 C   0  0  0  0  0  3  0  0  0  0  0  0
  187.6140  176.3790  143.9010 C   0  0  0  0  0  3  0  0  0  0  0  0
  186.5720  177.8850  139.7890 C   0  0  2  0  0  3  0  0  0  0  0  0
  188.7680  178.1750  140.9200 C   0  0  0  0  0  2  0  0  0  0  0  0
  186.5850  178.1140  142.2420 C   0  0  0  0  0  0  0  0  0  0  0  0
  184.4060  178.2330  141.0140 C   0  0  0  0  0  0  0  0  0  0  0  0
  189.3580  178.5570  139.5950 C   0  0  0  0  0  3  0  0  0  0  0  0
  190.7810  178.1090  145.0300 C   0  0  0  0  0  2  0  0  0  0  0  0
  191.1240  176.3860  143.2090 C   0  0  0  0  0  3  0  0  0  0  0  0
  191.6800  177.6100  143.8980 C   0  0  1  0  0  3  0  0  0  0  0  0
  189.3180  178.0000  144.6330 C   0  0  0  0  0  2  0  0  0  0  0  0
  189.0120  176.5290  144.3820 C   0  0  2  0  0  3  0  0  0  0  0  0
  191.8570  178.6280  142.9610 O   0  0  0  0  0  1  0  0  0  0  0  0
  189.9240  175.9530  143.4110 N   0  0  0  0  0  0  0  0  0  0  0  0
  186.7520  177.4930  137.3180 C   0  0  0  0  0  0  0  0  0  0  0  0
  186.9260  176.2450  137.4120 O   0  0  0  0  0  0  0  0  0  0  0  0
  186.2330  178.0570  136.1510 O   0  0  0  0  0  0  0  0  0  0  0  0
  186.8620  177.8760  134.8920 C   0  0  0  0  0  1  0  0  0  0  0  0
  182.9040  178.2930  140.9580 C   0  0  0  0  0  2  0  0  0  0  0  0
  182.3780  178.7340  139.5830 C   0  0  2  0  0  3  0  0  0  0  0  0
  181.8610  180.0310  139.6730 O   0  0  0  0  0  0  0  0  0  0  0  0
  181.6050  180.4070  138.3530 C   0  0  0  0  0  1  0  0  0  0  0  0
  181.3520  177.7320  139.0140 C   0  0  1  0  0  3  0  0  0  0  0  0
  182.9490  177.3980  137.0060 C   0  0  0  0  0  1  0  0  0  0  0  0
  181.9740  176.7540  137.9910 C   0  0  1  0  0  3  0  0  0  0  0  0
  182.5250  175.5960  138.5850 O   0  0  0  0  0  0  0  0  0  0  0  0
  183.6270  175.1660  137.8220 C   0  0  0  0  0  2  0  0  0  0  0  0
  184.4130  172.7970  137.4510 C   0  0  0  0  0  0  0  0  0  0  0  0
  183.4010  173.8070  137.3560 N   0  0  0  0  0  0  0  0  0  0  0  0
  182.9820  171.2330  136.2700 N   0  0  0  0  0  2  0  0  0  0  0  0
  181.8540  171.9910  136.8060 C   0  0  0  0  0  2  0  0  0  0  0  0
  182.1450  173.4850  136.6910 C   0  0  0  0  0  2  0  0  0  0  0  0
  185.5350  173.0510  137.9670 O   0  0  0  0  0  0  0  0  0  0  0  0
  184.1160  171.5020  137.0220 O   0  0  0  0  0  0  0  0  0  0  0  0
  180.7140  176.9810  140.1790 C   0  0  0  0  0  2  0  0  0  0  0  0
  179.3860  176.6820  139.8730 O   0  0  0  0  0  1  0  0  0  0  0  0
  1  9  2  0  0  0  0
  3 11  1  1  0  0  0
  3 12  1  0  0  0  0
  4  2  1  6  0  0  0
  5 14  2  0  0  0  0
  6 22  1  6  0  0  0
  6  5  1  0  0  0  0
  6 10  1  0  0  0  0
  7  5  1  0  0  0  0
  8 13  2  0  0  0  0
 10  8  1  6  0  0  0
 10  3  1  0  0  0  0
 12  4  1  0  0  0  0
 12  1  2  0  0  0  0
 13  4  1  0  0  0  0
 14 11  1  0  0  0  0
 16 21  2  0  0  0  0
 16 17  1  0  0  0  0
 17 20  1  6  0  0  0
 17 15  1  0  0  0  0
 18 15  1  0  0  0  0
 19  9  1  6  0  0  0
 19 18  1  0  0  0  0
 21 19  1  0  0  0  0
 22 23  2  0  0  0  0
 24 22  1  0  0  0  0
 25 24  1  0  0  0  0
 26 13  1  0  0  0  0
 27 28  1  0  0  0  0
 27 26  1  1  0  0  0
 29 28  1  0  0  0  0
 30 27  1  0  0  0  0
 30 42  1  1  0  0  0
 32 31  1  1  0  0  0
 32 33  1  0  0  0  0
 32 30  1  0  0  0  0
 34 33  1  0  0  0  0
 35 40  2  0  0  0  0
 36 35  1  0  0  0  0
 36 34  1  0  0  0  0
 37 38  1  0  0  0  0
 37 41  1  0  0  0  0
 39 38  1  0  0  0  0
 39 36  1  0  0  0  0
 41 35  1  0  0  0  0
 43 42  1  0  0  0  0
M  END
>  <MODEL>
6

>  <REMARK>
 VINA RESULT:      -6.9      3.752      8.817
  Name = 
  12 active torsions:
  status: ('A' for Active; 'I' for Inactive)
    1  A    between atoms: C_2  and  C_6
    2  A    between atoms: C_2  and  C_38
    3  A    between atoms: C_4  and  C_15
    4  A    between atoms: C_4  and  O_22
    5  A    between atoms: O_5  and  C_18
    6  A    between atoms: C_6  and  O_12
    7  A    between atoms: C_6  and  C_15
    8  A    between atoms: C_10  and  C_15
    9  A    between atoms: N_14  and  C_41
   10  A    between atoms: C_18  and  C_21
   11  A    between atoms: O_22  and  C_41
   12  A    between atoms: C_28  and  C_35
                            x       y       z     vdW  Elec       q    Type
                         _______ _______ _______ _____ _____    ______ ____

>  <TORSDO>
F 12

$$$$
=
 OpenBabel11052416293D

 43 46  0  0  1  0  0  0  0  0999 V2000
  182.3310  180.4940  138.8170 C   0  0  0  0  0  0  0  0  0  0  0  0
  182.7030  178.6710  141.6590 C   0  0  0  0  0  1  0  0  0  0  0  0
  183.1560  178.1940  138.4550 C   0  0  2  0  0  3  0  0  0  0  0  0
  183.5230  179.4580  140.6480 C   0  0  2  0  0  3  0  0  0  0  0  0
  184.0720  176.4010  136.4370 C   0  0  0  0  0  0  0  0  0  0  0  0
  185.0550  176.8080  137.5130 C   0  0  2  0  0  3  0  0  0  0  0  0
  184.3750  175.3180  135.6250 O   0  0  0  0  0  1  0  0  0  0  0  0
  185.4280  178.2510  139.5480 C   0  0  0  0  0  3  0  0  0  0  0  0
  181.8180  181.5870  138.3280 C   0  0  0  0  0  3  0  0  0  0  0  0
  184.6690  178.1030  138.2490 C   0  0  2  0  0  3  0  0  0  0  0  0
  182.4710  178.1990  137.0880 C   0  0  0  0  0  2  0  0  0  0  0  0
  182.8600  179.4010  139.3060 C   0  0  0  0  0  0  0  0  0  0  0  0
  184.9460  178.9240  140.6080 C   0  0  0  0  0  0  0  0  0  0  0  0
  182.8890  177.0060  136.2800 C   0  0  0  0  0  3  0  0  0  0  0  0
  179.7170  181.5370  135.1850 C   0  0  0  0  0  2  0  0  0  0  0  0
  178.9750  183.2310  136.9110 C   0  0  0  0  0  3  0  0  0  0  0  0
  178.9460  182.8300  135.4550 C   0  0  1  0  0  3  0  0  0  0  0  0
  180.9930  181.4980  136.0090 C   0  0  0  0  0  2  0  0  0  0  0  0
  180.6000  181.5300  137.4800 C   0  0  2  0  0  3  0  0  0  0  0  0
  179.4780  183.8600  134.6810 O   0  0  0  0  0  1  0  0  0  0  0  0
  179.7470  182.6660  137.7790 N   0  0  0  0  0  0  0  0  0  0  0  0
  186.4440  176.8920  136.9560 C   0  0  0  0  0  0  0  0  0  0  0  0
  187.3680  176.1840  137.4480 O   0  0  0  0  0  0  0  0  0  0  0  0
  186.7050  177.7870  135.9160 O   0  0  0  0  0  0  0  0  0  0  0  0
  187.4950  177.4190  134.7960 C   0  0  0  0  0  1  0  0  0  0  0  0
  185.8430  179.0890  141.8040 C   0  0  0  0  0  2  0  0  0  0  0  0
  186.6910  177.8390  142.0870 C   0  0  2  0  0  3  0  0  0  0  0  0
  186.4590  177.4030  143.3970 O   0  0  0  0  0  0  0  0  0  0  0  0
  185.7070  178.4210  143.9840 C   0  0  0  0  0  1  0  0  0  0  0  0
  188.1880  178.0880  141.8090 C   0  0  1  0  0  3  0  0  0  0  0  0
  190.3840  176.7450  142.0700 C   0  0  0  0  0  1  0  0  0  0  0  0
  189.1140  177.2700  142.7390 C   0  0  1  0  0  3  0  0  0  0  0  0
  189.4010  177.9230  143.9590 O   0  0  0  0  0  0  0  0  0  0  0  0
  188.9770  177.1110  145.0270 C   0  0  0  0  0  2  0  0  0  0  0  0
  189.9770  177.4290  147.3210 C   0  0  0  0  0  0  0  0  0  0  0  0
  190.0650  176.9410  145.9770 N   0  0  0  0  0  0  0  0  0  0  0  0
  192.2720  176.7560  147.7300 N   0  0  0  0  0  2  0  0  0  0  0  0
  192.0660  175.7340  146.7060 C   0  0  0  0  0  2  0  0  0  0  0  0
  191.3140  176.3420  145.5260 C   0  0  0  0  0  2  0  0  0  0  0  0
  188.9350  178.0060  147.7340 O   0  0  0  0  0  0  0  0  0  0  0  0
  191.0420  177.1970  148.1940 O   0  0  0  0  0  0  0  0  0  0  0  0
  188.4650  177.7770  140.3410 C   0  0  0  0  0  2  0  0  0  0  0  0
  189.1220  178.8560  139.7480 O   0  0  0  0  0  1  0  0  0  0  0  0
  1 12  2  0  0  0  0
  3 11  1  6  0  0  0
  3 12  1  0  0  0  0
  4  2  1  1  0  0  0
  5  6  1  0  0  0  0
  6 22  1  6  0  0  0
  6 10  1  0  0  0  0
  7  5  1  0  0  0  0
  8 13  2  0  0  0  0
  9  1  2  0  0  0  0
 10  3  1  0  0  0  0
 10  8  1  1  0  0  0
 12  4  1  0  0  0  0
 13  4  1  0  0  0  0
 13 26  1  0  0  0  0
 14  5  2  0  0  0  0
 14 11  1  0  0  0  0
 15 17  1  0  0  0  0
 15 18  1  0  0  0  0
 16 21  2  0  0  0  0
 17 20  1  6  0  0  0
 17 16  1  0  0  0  0
 18 19  1  0  0  0  0
 19 21  1  0  0  0  0
 19  9  1  1  0  0  0
 22 23  2  0  0  0  0
 24 22  1  0  0  0  0
 25 24  1  0  0  0  0
 27 26  1  1  0  0  0
 27 28  1  0  0  0  0
 28 29  1  0  0  0  0
 30 42  1  6  0  0  0
 30 27  1  0  0  0  0
 30 32  1  0  0  0  0
 32 31  1  6  0  0  0
 32 33  1  0  0  0  0
 33 34  1  0  0  0  0
 34 36  1  0  0  0  0
 35 40  2  0  0  0  0
 35 41  1  0  0  0  0
 36 35  1  0  0  0  0
 37 41  1  0  0  0  0
 38 37  1  0  0  0  0
 39 36  1  0  0  0  0
 39 38  1  0  0  0  0
 43 42  1  0  0  0  0
M  END
>  <MODEL>
7

>  <REMARK>
 VINA RESULT:      -6.5      4.329      7.018
  Name = 
  12 active torsions:
  status: ('A' for Active; 'I' for Inactive)
    1  A    between atoms: C_2  and  C_6
    2  A    between atoms: C_2  and  C_38
    3  A    between atoms: C_4  and  C_15
    4  A    between atoms: C_4  and  O_22
    5  A    between atoms: O_5  and  C_18
    6  A    between atoms: C_6  and  O_12
    7  A    between atoms: C_6  and  C_15
    8  A    between atoms: C_10  and  C_15
    9  A    between atoms: N_14  and  C_41
   10  A    between atoms: C_18  and  C_21
   11  A    between atoms: O_22  and  C_41
   12  A    between atoms: C_28  and  C_35
                            x       y       z     vdW  Elec       q    Type
                         _______ _______ _______ _____ _____    ______ ____

>  <TORSDO>
F 12

$$$$
=
 OpenBabel11052416293D

 43 46  0  0  1  0  0  0  0  0999 V2000
  182.8090  179.9750  139.0160 C   0  0  0  0  0  0  0  0  0  0  0  0
  183.7810  177.9960  141.6010 C   0  0  0  0  0  1  0  0  0  0  0  0
  183.9530  177.8940  138.3350 C   0  0  2  0  0  3  0  0  0  0  0  0
  184.3480  179.0000  140.6080 C   0  0  2  0  0  3  0  0  0  0  0  0
  184.9200  176.4750  136.0610 C   0  0  0  0  0  0  0  0  0  0  0  0
  185.9360  176.9460  137.0780 C   0  0  2  0  0  3  0  0  0  0  0  0
  185.3050  175.5370  135.1130 O   0  0  0  0  0  1  0  0  0  0  0  0
  186.2910  178.2430  139.2120 C   0  0  0  0  0  3  0  0  0  0  0  0
  182.0760  181.0030  138.6970 C   0  0  0  0  0  3  0  0  0  0  0  0
  185.4280  178.0840  137.9820 C   0  0  2  0  0  3  0  0  0  0  0  0
  183.1300  177.9040  137.0460 C   0  0  0  0  0  2  0  0  0  0  0  0
  183.5600  178.9500  139.3350 C   0  0  0  0  0  0  0  0  0  0  0  0
  185.8250  178.7250  140.3780 C   0  0  0  0  0  0  0  0  0  0  0  0
  183.6450  176.8780  136.0800 C   0  0  0  0  0  3  0  0  0  0  0  0
  179.7340  180.5490  135.7630 C   0  0  0  0  0  2  0  0  0  0  0  0
  179.0580  182.3860  137.3660 C   0  0  0  0  0  3  0  0  0  0  0  0
  178.9310  181.8340  135.9660 C   0  0  1  0  0  3  0  0  0  0  0  0
  181.0730  180.6430  136.4760 C   0  0  0  0  0  2  0  0  0  0  0  0
  180.7980  180.8140  137.9640 C   0  0  2  0  0  3  0  0  0  0  0  0
  179.3520  182.7970  135.0490 O   0  0  0  0  0  1  0  0  0  0  0  0
  179.9210  181.9430  138.2180 N   0  0  0  0  0  0  0  0  0  0  0  0
  187.2230  177.3180  136.4070 C   0  0  0  0  0  0  0  0  0  0  0  0
  187.2610  178.2930  135.6040 O   0  0  0  0  0  0  0  0  0  0  0  0
  188.3640  176.5510  136.6530 O   0  0  0  0  0  0  0  0  0  0  0  0
  188.3010  175.1390  136.7780 C   0  0  0  0  0  1  0  0  0  0  0  0
  186.8090  178.9340  141.4970 C   0  0  0  0  0  2  0  0  0  0  0  0
  187.7290  177.7220  141.7130 C   0  0  2  0  0  3  0  0  0  0  0  0
  187.3390  177.0390  142.8710 O   0  0  0  0  0  0  0  0  0  0  0  0
  186.3930  177.8690  143.4740 C   0  0  0  0  0  1  0  0  0  0  0  0
  189.2160  178.1310  141.7450 C   0  0  1  0  0  3  0  0  0  0  0  0
  191.5140  177.4350  142.7080 C   0  0  0  0  0  1  0  0  0  0  0  0
  189.9980  177.4530  142.8950 C   0  0  1  0  0  3  0  0  0  0  0  0
  189.6380  177.9310  144.1750 O   0  0  0  0  0  0  0  0  0  0  0  0
  189.6500  176.8590  145.0880 C   0  0  0  0  0  2  0  0  0  0  0  0
  189.8970  177.4220  147.5340 C   0  0  0  0  0  0  0  0  0  0  0  0
  189.0900  177.2890  146.3580 N   0  0  0  0  0  0  0  0  0  0  0  0
  187.9240  177.9480  148.8460 N   0  0  0  0  0  2  0  0  0  0  0  0
  187.3430  178.4630  147.6090 C   0  0  0  0  0  2  0  0  0  0  0  0
  187.6520  177.5030  146.4640 C   0  0  0  0  0  2  0  0  0  0  0  0
  191.1350  177.1900  147.4990 O   0  0  0  0  0  0  0  0  0  0  0  0
  189.3030  177.8790  148.7130 O   0  0  0  0  0  0  0  0  0  0  0  0
  189.8360  177.8070  140.3900 C   0  0  0  0  0  2  0  0  0  0  0  0
  189.1270  176.7670  139.7860 O   0  0  0  0  0  1  0  0  0  0  0  0
  1 12  2  0  0  0  0
  3 11  1  6  0  0  0
  3 12  1  0  0  0  0
  4  2  1  1  0  0  0
  5 14  2  0  0  0  0
  5  6  1  0  0  0  0
  6 22  1  6  0  0  0
  6 10  1  0  0  0  0
  7  5  1  0  0  0  0
  8 13  2  0  0  0  0
  9  1  2  0  0  0  0
 10  3  1  0  0  0  0
 10  8  1  1  0  0  0
 12  4  1  0  0  0  0
 13  4  1  0  0  0  0
 13 26  1  0  0  0  0
 14 11  1  0  0  0  0
 15 17  1  0  0  0  0
 15 18  1  0  0  0  0
 16 21  2  0  0  0  0
 17 20  1  6  0  0  0
 17 16  1  0  0  0  0
 18 19  1  0  0  0  0
 19 21  1  0  0  0  0
 19  9  1  1  0  0  0
 22 24  1  0  0  0  0
 23 22  2  0  0  0  0
 24 25  1  0  0  0  0
 27 26  1  1  0  0  0
 27 30  1  0  0  0  0
 27 28  1  0  0  0  0
 28 29  1  0  0  0  0
 30 42  1  6  0  0  0
 30 32  1  0  0  0  0
 32 31  1  6  0  0  0
 32 33  1  0  0  0  0
 33 34  1  0  0  0  0
 34 36  1  0  0  0  0
 35 41  1  0  0  0  0
 36 39  1  0  0  0  0
 36 35  1  0  0  0  0
 38 37  1  0  0  0  0
 39 38  1  0  0  0  0
 40 35  2  0  0  0  0
 41 37  1  0  0  0  0
 43 42  1  0  0  0  0
M  END
>  <MODEL>
8

>  <REMARK>
 VINA RESULT:      -6.4      3.931      6.213
  Name = 
  12 active torsions:
  status: ('A' for Active; 'I' for Inactive)
    1  A    between atoms: C_2  and  C_6
    2  A    between atoms: C_2  and  C_38
    3  A    between atoms: C_4  and  C_15
    4  A    between atoms: C_4  and  O_22
    5  A    between atoms: O_5  and  C_18
    6  A    between atoms: C_6  and  O_12
    7  A    between atoms: C_6  and  C_15
    8  A    between atoms: C_10  and  C_15
    9  A    between atoms: N_14  and  C_41
   10  A    between atoms: C_18  and  C_21
   11  A    between atoms: O_22  and  C_41
   12  A    between atoms: C_28  and  C_35
                            x       y       z     vdW  Elec       q    Type
                         _______ _______ _______ _____ _____    ______ ____

>  <TORSDO>
F 12

$$$$
=
 OpenBabel11052416293D

 43 46  0  0  1  0  0  0  0  0999 V2000
  184.7380  175.1050  136.0690 C   0  0  0  0  0  0  0  0  0  0  0  0
  186.5710  177.5550  134.5940 C   0  0  0  0  0  1  0  0  0  0  0  0
  184.2610  177.3800  136.9040 C   0  0  2  0  0  3  0  0  0  0  0  0
  186.5130  176.7370  135.8740 C   0  0  2  0  0  3  0  0  0  0  0  0
  182.7300  178.8160  138.8320 C   0  0  0  0  0  0  0  0  0  0  0  0
  184.2380  178.8600  138.9590 C   0  0  2  0  0  3  0  0  0  0  0  0
  181.9690  179.7270  139.5500 O   0  0  0  0  0  1  0  0  0  0  0  0
  186.4260  178.0120  138.0340 C   0  0  0  0  0  3  0  0  0  0  0  0
  184.3940  173.8510  135.9810 C   0  0  0  0  0  3  0  0  0  0  0  0
  184.9560  177.7140  138.2250 C   0  0  2  0  0  3  0  0  0  0  0  0
  182.8280  176.9350  137.1980 C   0  0  0  0  0  2  0  0  0  0  0  0
  185.0930  176.3610  136.1700 C   0  0  0  0  0  0  0  0  0  0  0  0
  187.1500  177.5130  137.0160 C   0  0  0  0  0  0  0  0  0  0  0  0
  182.1040  177.9740  138.0030 C   0  0  0  0  0  3  0  0  0  0  0  0
  180.6390  173.4300  136.1190 C   0  0  0  0  0  2  0  0  0  0  0  0
  181.9020  171.3370  135.4690 C   0  0  0  0  0  3  0  0  0  0  0  0
  180.6200  171.9030  136.0290 C   0  0  1  0  0  3  0  0  0  0  0  0
  182.0050  173.9160  136.5760 C   0  0  0  0  0  2  0  0  0  0  0  0
  183.0270  173.4790  135.5350 C   0  0  2  0  0  3  0  0  0  0  0  0
  180.3900  171.3640  137.2950 O   0  0  0  0  0  1  0  0  0  0  0  0
  182.9670  172.0480  135.2980 N   0  0  0  0  0  0  0  0  0  0  0  0
  184.6460  178.9240  140.3990 C   0  0  0  0  0  0  0  0  0  0  0  0
  185.5140  179.7620  140.7750 O   0  0  0  0  0  0  0  0  0  0  0  0
  184.0820  178.0240  141.3060 O   0  0  0  0  0  0  0  0  0  0  0  0
  183.8200  178.3870  142.6520 C   0  0  0  0  0  1  0  0  0  0  0  0
  188.6270  177.7980  136.9960 C   0  0  0  0  0  2  0  0  0  0  0  0
  189.4760  176.5250  136.8590 C   0  0  2  0  0  3  0  0  0  0  0  0
  188.9930  175.5440  137.7330 O   0  0  0  0  0  0  0  0  0  0  0  0
  188.8920  174.3900  136.9550 C   0  0  0  0  0  1  0  0  0  0  0  0
  190.9760  176.8120  137.0710 C   0  0  1  0  0  3  0  0  0  0  0  0
  192.9400  176.5630  138.7360 C   0  0  0  0  0  1  0  0  0  0  0  0
  191.4270  176.5960  138.5350 C   0  0  1  0  0  3  0  0  0  0  0  0
  190.8000  177.4720  139.4490 O   0  0  0  0  0  0  0  0  0  0  0  0
  191.2520  177.1820  140.7500 C   0  0  0  0  0  2  0  0  0  0  0  0
  190.2410  176.3800  142.9180 C   0  0  0  0  0  0  0  0  0  0  0  0
  190.1140  177.0120  141.6380 N   0  0  0  0  0  0  0  0  0  0  0  0
  187.8430  176.5370  143.2500 N   0  0  0  0  0  2  0  0  0  0  0  0
  187.8830  177.7050  142.3720 C   0  0  0  0  0  2  0  0  0  0  0  0
  188.7890  177.4120  141.1800 C   0  0  0  0  0  2  0  0  0  0  0  0
  191.3590  175.9670  143.3280 O   0  0  0  0  0  0  0  0  0  0  0  0
  189.1160  176.2850  143.7400 O   0  0  0  0  0  0  0  0  0  0  0  0
  191.7760  175.9360  136.1120 C   0  0  0  0  0  2  0  0  0  0  0  0
  191.3050  176.1130  134.8110 O   0  0  0  0  0  1  0  0  0  0  0  0
  1 12  2  0  0  0  0
  3 11  1  1  0  0  0
  3 10  1  0  0  0  0
  4  2  1  6  0  0  0
  4 12  1  0  0  0  0
  4 13  1  0  0  0  0
  5  6  1  0  0  0  0
  5  7  1  0  0  0  0
  6 22  1  1  0  0  0
  9  1  2  0  0  0  0
 10  8  1  6  0  0  0
 10  6  1  0  0  0  0
 11 14  1  0  0  0  0
 12  3  1  0  0  0  0
 13  8  2  0  0  0  0
 14  5  2  0  0  0  0
 15 18  1  0  0  0  0
 16 17  1  0  0  0  0
 17 15  1  0  0  0  0
 17 20  1  1  0  0  0
 19  9  1  1  0  0  0
 19 18  1  0  0  0  0
 21 16  2  0  0  0  0
 21 19  1  0  0  0  0
 22 23  2  0  0  0  0
 22 24  1  0  0  0  0
 24 25  1  0  0  0  0
 26 13  1  0  0  0  0
 27 26  1  1  0  0  0
 27 30  1  0  0  0  0
 27 28  1  0  0  0  0
 29 28  1  0  0  0  0
 30 42  1  6  0  0  0
 30 32  1  0  0  0  0
 32 31  1  6  0  0  0
 32 33  1  0  0  0  0
 33 34  1  0  0  0  0
 34 36  1  0  0  0  0
 35 40  2  0  0  0  0
 35 41  1  0  0  0  0
 36 35  1  0  0  0  0
 37 41  1  0  0  0  0
 38 37  1  0  0  0  0
 39 36  1  0  0  0  0
 39 38  1  0  0  0  0
 43 42  1  0  0  0  0
M  END
>  <MODEL>
9

>  <REMARK>
 VINA RESULT:      -6.4      3.517      7.659
  Name = 
  12 active torsions:
  status: ('A' for Active; 'I' for Inactive)
    1  A    between atoms: C_2  and  C_6
    2  A    between atoms: C_2  and  C_38
    3  A    between atoms: C_4  and  C_15
    4  A    between atoms: C_4  and  O_22
    5  A    between atoms: O_5  and  C_18
    6  A    between atoms: C_6  and  O_12
    7  A    between atoms: C_6  and  C_15
    8  A    between atoms: C_10  and  C_15
    9  A    between atoms: N_14  and  C_41
   10  A    between atoms: C_18  and  C_21
   11  A    between atoms: O_22  and  C_41
   12  A    between atoms: C_28  and  C_35
                            x       y       z     vdW  Elec       q    Type
                         _______ _______ _______ _____ _____    ______ ____

>  <TORSDO>
F 12

$$$$
