=
 OpenBabel11052413023D

 31 35  0  0  1  0  0  0  0  0999 V2000
  190.1650  177.2110  140.7270 C   0  0  1  0  0  3  0  0  0  0  0  0
  188.4250  177.5060  144.0670 C   0  0  0  0  0  0  0  0  0  0  0  0
  189.4240  177.1490  145.0210 C   0  0  0  0  0  0  0  0  0  0  0  0
  182.5530  179.0550  143.9190 O   0  0  0  0  0  0  0  0  0  0  0  0
  183.6390  178.8370  143.3180 C   0  0  0  0  0  0  0  0  0  0  0  0
  191.7010  176.4880  145.6020 C   0  0  0  0  0  3  0  0  0  0  0  0
  188.6700  177.5740  142.6720 C   0  0  0  0  0  0  0  0  0  0  0  0
  189.3170  178.2330  139.9850 C   0  0  0  0  0  2  0  0  0  0  0  0
  190.7430  176.8350  144.6470 C   0  0  0  0  0  3  0  0  0  0  0  0
  186.1060  178.1600  143.6220 C   0  0  0  0  0  0  0  0  0  0  0  0
  191.6320  177.4440  140.4310 C   0  0  0  0  0  1  0  0  0  0  0  0
  187.8040  177.4030  146.8270 C   0  0  0  0  0  3  0  0  0  0  0  0
  192.5590  176.0160  148.1500 Cl  0  0  0  0  0  0  0  0  0  0  0  0
  186.3920  178.2160  142.2950 N   0  0  0  0  0  0  0  0  0  0  0  0
  187.1160  177.8070  144.5340 C   0  0  0  0  0  0  0  0  0  0  0  0
  184.7820  178.4580  144.0970 N   0  0  0  0  0  2  0  0  0  0  0  0
  189.9380  177.3090  142.1310 O   0  0  0  0  0  0  0  0  0  0  0  0
  191.3580  176.4500  146.9530 C   0  0  0  0  0  0  0  0  0  0  0  0
  187.6270  177.9490  141.8050 C   0  0  0  0  0  0  0  0  0  0  0  0
  187.8480  177.9980  140.3210 C   0  0  0  0  0  2  0  0  0  0  0  0
  186.8250  177.7510  145.9020 C   0  0  0  0  0  3  0  0  0  0  0  0
  189.0930  177.1040  146.4010 C   0  0  0  0  0  0  0  0  0  0  0  0
  190.0570  176.7570  147.3510 C   0  0  0  0  0  3  0  0  0  0  0  0
  183.7180  178.9740  141.8510 C   0  0  0  0  0  3  0  0  0  0  0  0
  181.2830  178.1880  139.0050 C   0  0  0  0  0  2  0  0  0  0  0  0
  181.5040  178.1090  141.3700 N   0  0  0  0  0  0  0  0  0  0  0  0
  182.9700  178.8570  139.2320 S   0  0  0  0  0  0  0  0  0  0  0  0
  182.7570  178.6450  140.9850 C   0  0  0  0  0  0  0  0  0  0  0  0
  180.7380  177.8700  140.3590 C   0  0  0  0  0  0  0  0  0  0  0  0
  179.4570  177.3390  140.5120 O   0  0  0  0  0  0  0  0  0  0  0  0
  179.2280  175.9440  140.6400 C   0  0  0  0  0  1  0  0  0  0  0  0
  1 11  1  1  0  0  0
  1 17  1  0  0  0  0
  2 15  2  0  0  0  0
  2  3  1  0  0  0  0
  3 22  1  0  0  0  0
  5  4  2  0  0  0  0
  5 16  1  0  0  0  0
  6 18  2  0  0  0  0
  7  2  1  0  0  0  0
  8 20  1  0  0  0  0
  8  1  1  0  0  0  0
  9  3  2  0  0  0  0
  9  6  1  0  0  0  0
 10 16  1  0  0  0  0
 10 15  1  0  0  0  0
 14 10  2  0  0  0  0
 15 21  1  0  0  0  0
 17  7  1  0  0  0  0
 18 23  1  0  0  0  0
 18 13  1  0  0  0  0
 19 14  1  0  0  0  0
 19  7  2  0  0  0  0
 20 19  1  0  0  0  0
 21 12  2  0  0  0  0
 22 12  1  0  0  0  0
 22 23  2  0  0  0  0
 24  5  1  0  0  0  0
 25 27  1  0  0  0  0
 25 29  1  0  0  0  0
 27 28  1  0  0  0  0
 28 26  1  0  0  0  0
 28 24  2  0  0  0  0
 29 30  1  0  0  0  0
 29 26  2  0  0  0  0
 30 31  1  0  0  0  0
M  END
>  <MODEL>
1

>  <REMARK>
 VINA RESULT:     -11.2      0.000      0.000
  Name = 
  2 active torsions:
  status: ('A' for Active; 'I' for Inactive)
    1  A    between atoms: O_1  and  C_24
    2  A    between atoms: C_3  and  C_9
                            x       y       z     vdW  Elec       q    Type
                         _______ _______ _______ _____ _____    ______ ____

>  <TORSDO>
F 2

$$$$
=
 OpenBabel11052413023D

 31 35  0  0  1  0  0  0  0  0999 V2000
  185.4900  178.7850  145.4610 C   0  0  1  0  0  3  0  0  0  0  0  0
  188.5600  177.5450  143.6400 C   0  0  0  0  0  0  0  0  0  0  0  0
  189.4660  177.1810  144.6800 C   0  0  0  0  0  0  0  0  0  0  0  0
  188.3840  177.8080  137.5730 O   0  0  0  0  0  0  0  0  0  0  0  0
  187.8220  177.9710  138.6890 C   0  0  0  0  0  0  0  0  0  0  0  0
  190.0320  176.9060  147.0390 C   0  0  0  0  0  3  0  0  0  0  0  0
  187.2470  178.0240  143.8840 C   0  0  0  0  0  0  0  0  0  0  0  0
  184.4800  178.4450  144.3750 C   0  0  0  0  0  2  0  0  0  0  0  0
  189.1240  177.2690  146.0410 C   0  0  0  0  0  3  0  0  0  0  0  0
  188.1230  177.7790  141.2400 C   0  0  0  0  0  0  0  0  0  0  0  0
  184.9740  178.3280  146.8080 C   0  0  0  0  0  1  0  0  0  0  0  0
  191.1560  176.6070  143.0170 C   0  0  0  0  0  3  0  0  0  0  0  0
  192.4390  175.9910  147.9430 Cl  0  0  0  0  0  0  0  0  0  0  0  0
  186.8740  178.2280  141.5260 N   0  0  0  0  0  0  0  0  0  0  0  0
  188.9900  177.4270  142.2900 C   0  0  0  0  0  0  0  0  0  0  0  0
  188.5640  177.6630  139.8760 N   0  0  0  0  0  2  0  0  0  0  0  0
  186.7390  178.1550  145.1870 O   0  0  0  0  0  0  0  0  0  0  0  0
  191.3020  176.4460  146.6930 C   0  0  0  0  0  0  0  0  0  0  0  0
  186.4160  178.3480  142.7960 C   0  0  0  0  0  0  0  0  0  0  0  0
  185.0340  178.8870  143.0250 C   0  0  0  0  0  2  0  0  0  0  0  0
  190.2780  176.9610  141.9990 C   0  0  0  0  0  3  0  0  0  0  0  0
  190.7640  176.7120  144.3460 C   0  0  0  0  0  0  0  0  0  0  0  0
  191.6670  176.3490  145.3500 C   0  0  0  0  0  3  0  0  0  0  0  0
  186.4320  178.4650  138.7560 C   0  0  0  0  0  3  0  0  0  0  0  0
  183.1010  177.1220  137.4360 C   0  0  0  0  0  2  0  0  0  0  0  0
  185.4260  176.6350  137.5230 N   0  0  0  0  0  0  0  0  0  0  0  0
  183.7340  178.5560  138.3770 S   0  0  0  0  0  0  0  0  0  0  0  0
  185.3650  177.8610  138.2310 C   0  0  0  0  0  0  0  0  0  0  0  0
  184.2680  176.2470  137.1090 C   0  0  0  0  0  0  0  0  0  0  0  0
  184.0990  175.0630  136.3900 O   0  0  0  0  0  0  0  0  0  0  0  0
  184.1300  173.7890  137.0150 C   0  0  0  0  0  1  0  0  0  0  0  0
  1 11  1  1  0  0  0
  2  7  1  0  0  0  0
  2  3  1  0  0  0  0
  3  9  1  0  0  0  0
  4  5  2  0  0  0  0
  5 24  1  0  0  0  0
  5 16  1  0  0  0  0
  7 17  1  0  0  0  0
  8  1  1  0  0  0  0
  9  6  2  0  0  0  0
 10 14  2  0  0  0  0
 10 15  1  0  0  0  0
 12 22  1  0  0  0  0
 14 19  1  0  0  0  0
 15  2  2  0  0  0  0
 16 10  1  0  0  0  0
 17  1  1  0  0  0  0
 18  6  1  0  0  0  0
 18 13  1  0  0  0  0
 19 20  1  0  0  0  0
 19  7  2  0  0  0  0
 20  8  1  0  0  0  0
 21 15  1  0  0  0  0
 21 12  2  0  0  0  0
 22  3  2  0  0  0  0
 22 23  1  0  0  0  0
 23 18  2  0  0  0  0
 25 27  1  0  0  0  0
 26 28  1  0  0  0  0
 28 27  1  0  0  0  0
 28 24  2  0  0  0  0
 29 25  1  0  0  0  0
 29 26  2  0  0  0  0
 30 31  1  0  0  0  0
 30 29  1  0  0  0  0
M  END
>  <MODEL>
2

>  <REMARK>
 VINA RESULT:     -10.7      2.653      4.572
  Name = 
  2 active torsions:
  status: ('A' for Active; 'I' for Inactive)
    1  A    between atoms: O_1  and  C_24
    2  A    between atoms: C_3  and  C_9
                            x       y       z     vdW  Elec       q    Type
                         _______ _______ _______ _____ _____    ______ ____

>  <TORSDO>
F 2

$$$$
=
 OpenBabel11052413023D

 31 35  0  0  1  0  0  0  0  0999 V2000
  183.7590  179.2370  142.7070 C   0  0  1  0  0  3  0  0  0  0  0  0
  187.3210  178.0770  143.2010 C   0  0  0  0  0  0  0  0  0  0  0  0
  187.4720  177.9880  144.6160 C   0  0  0  0  0  0  0  0  0  0  0  0
  190.6390  177.3480  138.1650 O   0  0  0  0  0  0  0  0  0  0  0  0
  189.5410  177.6220  138.7170 C   0  0  0  0  0  0  0  0  0  0  0  0
  186.5910  178.1580  146.8870 C   0  0  0  0  0  3  0  0  0  0  0  0
  186.1030  178.4370  142.5690 C   0  0  0  0  0  0  0  0  0  0  0  0
  183.5500  178.6160  141.3340 C   0  0  0  0  0  2  0  0  0  0  0  0
  186.4150  178.2520  145.5050 C   0  0  0  0  0  3  0  0  0  0  0  0
  188.3320  177.8750  140.9780 C   0  0  0  0  0  0  0  0  0  0  0  0
  182.5670  178.9450  143.5940 C   0  0  0  0  0  1  0  0  0  0  0  0
  189.8100  177.3500  144.3350 C   0  0  0  0  0  3  0  0  0  0  0  0
  188.0530  177.6760  149.1410 Cl  0  0  0  0  0  0  0  0  0  0  0  0
  187.1420  178.2200  140.4220 N   0  0  0  0  0  0  0  0  0  0  0  0
  188.4460  177.7940  142.3770 C   0  0  0  0  0  0  0  0  0  0  0  0
  189.4730  177.5930  140.1490 N   0  0  0  0  0  2  0  0  0  0  0  0
  184.9430  178.7160  143.3090 O   0  0  0  0  0  0  0  0  0  0  0  0
  187.8320  177.7950  147.4090 C   0  0  0  0  0  0  0  0  0  0  0  0
  186.0420  178.4870  141.1650 C   0  0  0  0  0  0  0  0  0  0  0  0
  184.7750  178.8960  140.4700 C   0  0  0  0  0  2  0  0  0  0  0  0
  189.6700  177.4360  142.9540 C   0  0  0  0  0  3  0  0  0  0  0  0
  188.7290  177.6210  145.1660 C   0  0  0  0  0  0  0  0  0  0  0  0
  188.8980  177.5280  146.5500 C   0  0  0  0  0  3  0  0  0  0  0  0
  188.3600  177.9600  137.8970 C   0  0  0  0  0  3  0  0  0  0  0  0
  185.6590  175.8560  136.1880 C   0  0  0  0  0  2  0  0  0  0  0  0
  187.6170  175.6830  137.5260 N   0  0  0  0  0  0  0  0  0  0  0  0
  186.1130  177.6160  136.3920 S   0  0  0  0  0  0  0  0  0  0  0  0
  187.5040  177.0850  137.3670 C   0  0  0  0  0  0  0  0  0  0  0  0
  186.6730  175.0410  136.9230 C   0  0  0  0  0  0  0  0  0  0  0  0
  186.5920  173.6480  136.9500 O   0  0  0  0  0  0  0  0  0  0  0  0
  185.5590  172.9650  137.6450 C   0  0  0  0  0  1  0  0  0  0  0  0
  1 17  1  0  0  0  0
  1 11  1  1  0  0  0
  2  3  1  0  0  0  0
  3 22  2  0  0  0  0
  3  9  1  0  0  0  0
  4  5  2  0  0  0  0
  5 16  1  0  0  0  0
  6 18  1  0  0  0  0
  7  2  1  0  0  0  0
  7 17  1  0  0  0  0
  8  1  1  0  0  0  0
  9  6  2  0  0  0  0
 10 15  1  0  0  0  0
 12 22  1  0  0  0  0
 14 10  2  0  0  0  0
 14 19  1  0  0  0  0
 15 21  1  0  0  0  0
 15  2  2  0  0  0  0
 16 10  1  0  0  0  0
 18 13  1  0  0  0  0
 19  7  2  0  0  0  0
 20 19  1  0  0  0  0
 20  8  1  0  0  0  0
 21 12  2  0  0  0  0
 22 23  1  0  0  0  0
 23 18  2  0  0  0  0
 24  5  1  0  0  0  0
 25 27  1  0  0  0  0
 25 29  1  0  0  0  0
 27 28  1  0  0  0  0
 28 26  1  0  0  0  0
 28 24  2  0  0  0  0
 29 30  1  0  0  0  0
 29 26  2  0  0  0  0
 30 31  1  0  0  0  0
M  END
>  <MODEL>
3

>  <REMARK>
 VINA RESULT:     -10.6      3.042      5.545
  Name = 
  2 active torsions:
  status: ('A' for Active; 'I' for Inactive)
    1  A    between atoms: O_1  and  C_24
    2  A    between atoms: C_3  and  C_9
                            x       y       z     vdW  Elec       q    Type
                         _______ _______ _______ _____ _____    ______ ____

>  <TORSDO>
F 2

$$$$
=
 OpenBabel11052413023D

 31 35  0  0  1  0  0  0  0  0999 V2000
  190.4960  176.8670  141.7780 C   0  0  1  0  0  3  0  0  0  0  0  0
  187.2310  178.0810  143.2410 C   0  0  0  0  0  0  0  0  0  0  0  0
  187.4190  177.9930  144.6510 C   0  0  0  0  0  0  0  0  0  0  0  0
  182.8850  179.5660  139.2640 O   0  0  0  0  0  0  0  0  0  0  0  0
  184.0620  179.1840  139.5010 C   0  0  0  0  0  0  0  0  0  0  0  0
  188.7920  177.5020  146.6100 C   0  0  0  0  0  3  0  0  0  0  0  0
  188.2420  177.7610  142.2990 C   0  0  0  0  0  0  0  0  0  0  0  0
  190.4200  177.6510  140.4760 C   0  0  0  0  0  2  0  0  0  0  0  0
  188.6350  177.5800  145.2240 C   0  0  0  0  0  3  0  0  0  0  0  0
  185.7450  178.6020  141.3630 C   0  0  0  0  0  0  0  0  0  0  0  0
  191.8780  177.0000  142.3810 C   0  0  0  0  0  1  0  0  0  0  0  0
  185.1270  178.7450  145.0130 C   0  0  0  0  0  3  0  0  0  0  0  0
  187.9300  177.7440  149.1880 Cl  0  0  0  0  0  0  0  0  0  0  0  0
  186.7470  178.2880  140.5020 N   0  0  0  0  0  0  0  0  0  0  0  0
  185.9660  178.5060  142.7480 C   0  0  0  0  0  0  0  0  0  0  0  0
  184.4630  179.0270  140.8690 N   0  0  0  0  0  2  0  0  0  0  0  0
  189.5220  177.3480  142.7020 O   0  0  0  0  0  0  0  0  0  0  0  0
  187.7330  177.8400  147.4520 C   0  0  0  0  0  0  0  0  0  0  0  0
  187.9710  177.8890  140.9240 C   0  0  0  0  0  0  0  0  0  0  0  0
  189.0120  177.5270  139.9040 C   0  0  0  0  0  2  0  0  0  0  0  0
  184.9360  178.8310  143.6390 C   0  0  0  0  0  3  0  0  0  0  0  0
  186.3520  178.3320  145.5240 C   0  0  0  0  0  0  0  0  0  0  0  0
  186.5160  178.2530  146.9110 C   0  0  0  0  0  3  0  0  0  0  0  0
  184.9940  178.9120  138.3890 C   0  0  0  0  0  3  0  0  0  0  0  0
  185.6340  175.8470  136.1900 C   0  0  0  0  0  2  0  0  0  0  0  0
  184.2880  176.6270  137.9870 N   0  0  0  0  0  0  0  0  0  0  0  0
  186.2560  177.5540  136.3910 S   0  0  0  0  0  0  0  0  0  0  0  0
  185.0890  177.7640  137.7170 C   0  0  0  0  0  0  0  0  0  0  0  0
  184.5610  175.6360  137.2080 C   0  0  0  0  0  0  0  0  0  0  0  0
  183.8890  174.4160  137.3020 O   0  0  0  0  0  0  0  0  0  0  0  0
  184.5650  173.2020  137.5940 C   0  0  0  0  0  1  0  0  0  0  0  0
  1 11  1  1  0  0  0
  1 17  1  0  0  0  0
  2  3  1  0  0  0  0
  3  9  2  0  0  0  0
  3 22  1  0  0  0  0
  4  5  2  0  0  0  0
  5 16  1  0  0  0  0
  6 18  2  0  0  0  0
  7 17  1  0  0  0  0
  7  2  1  0  0  0  0
  8  1  1  0  0  0  0
  9  6  1  0  0  0  0
 10 15  1  0  0  0  0
 12 22  1  0  0  0  0
 14 19  1  0  0  0  0
 14 10  2  0  0  0  0
 15  2  2  0  0  0  0
 15 21  1  0  0  0  0
 16 10  1  0  0  0  0
 18 13  1  0  0  0  0
 19  7  2  0  0  0  0
 20  8  1  0  0  0  0
 20 19  1  0  0  0  0
 21 12  2  0  0  0  0
 22 23  2  0  0  0  0
 23 18  1  0  0  0  0
 24  5  1  0  0  0  0
 25 27  1  0  0  0  0
 25 29  1  0  0  0  0
 27 28  1  0  0  0  0
 28 26  1  0  0  0  0
 28 24  2  0  0  0  0
 29 30  1  0  0  0  0
 29 26  2  0  0  0  0
 30 31  1  0  0  0  0
M  END
>  <MODEL>
4

>  <REMARK>
 VINA RESULT:     -10.4      2.963      3.597
  Name = 
  2 active torsions:
  status: ('A' for Active; 'I' for Inactive)
    1  A    between atoms: O_1  and  C_24
    2  A    between atoms: C_3  and  C_9
                            x       y       z     vdW  Elec       q    Type
                         _______ _______ _______ _____ _____    ______ ____

>  <TORSDO>
F 2

$$$$
=
 OpenBabel11052413023D

 31 35  0  0  1  0  0  0  0  0999 V2000
  188.0280  177.6820  140.9160 C   0  0  1  0  0  3  0  0  0  0  0  0
  185.6270  178.3650  143.7520 C   0  0  0  0  0  0  0  0  0  0  0  0
  186.4220  178.2390  144.9290 C   0  0  0  0  0  0  0  0  0  0  0  0
  179.8500  179.4200  142.1960 O   0  0  0  0  0  0  0  0  0  0  0  0
  181.0440  179.1940  141.8660 C   0  0  0  0  0  0  0  0  0  0  0  0
  188.5570  177.8520  146.0490 C   0  0  0  0  0  3  0  0  0  0  0  0
  186.1500  178.2320  142.4410 C   0  0  0  0  0  0  0  0  0  0  0  0
  187.3080  178.5070  139.8600 C   0  0  0  0  0  2  0  0  0  0  0  0
  187.8020  177.9710  144.8800 C   0  0  0  0  0  3  0  0  0  0  0  0
  183.4230  178.7630  142.7570 C   0  0  0  0  0  0  0  0  0  0  0  0
  189.5120  177.9770  140.8790 C   0  0  0  0  0  1  0  0  0  0  0  0
  184.4550  178.6500  146.3130 C   0  0  0  0  0  3  0  0  0  0  0  0
  188.8920  177.8530  148.7580 Cl  0  0  0  0  0  0  0  0  0  0  0  0
  183.9740  178.6310  141.5220 N   0  0  0  0  0  0  0  0  0  0  0  0
  184.2370  178.6350  143.8960 C   0  0  0  0  0  0  0  0  0  0  0  0
  182.0180  179.0300  142.9060 N   0  0  0  0  0  2  0  0  0  0  0  0
  187.5130  177.9810  142.2120 O   0  0  0  0  0  0  0  0  0  0  0  0
  187.9450  178.0010  147.2930 C   0  0  0  0  0  0  0  0  0  0  0  0
  185.2930  178.3850  141.3360 C   0  0  0  0  0  0  0  0  0  0  0  0
  185.8130  178.2170  139.9370 C   0  0  0  0  0  2  0  0  0  0  0  0
  183.6740  178.7730  145.1700 C   0  0  0  0  0  3  0  0  0  0  0  0
  185.8160  178.3870  146.2050 C   0  0  0  0  0  0  0  0  0  0  0  0
  186.5780  178.2670  147.3710 C   0  0  0  0  0  3  0  0  0  0  0  0
  181.4180  179.1040  140.4410 C   0  0  0  0  0  3  0  0  0  0  0  0
  180.7740  181.3510  137.4110 C   0  0  0  0  0  2  0  0  0  0  0  0
  180.3560  181.1700  139.7440 N   0  0  0  0  0  0  0  0  0  0  0  0
  181.6140  179.7750  137.8060 S   0  0  0  0  0  0  0  0  0  0  0  0
  181.1050  179.9940  139.4970 C   0  0  0  0  0  0  0  0  0  0  0  0
  180.1790  181.8750  138.6780 C   0  0  0  0  0  0  0  0  0  0  0  0
  179.4680  183.0760  138.6950 O   0  0  0  0  0  0  0  0  0  0  0  0
  179.0560  183.7260  137.5030 C   0  0  0  0  0  1  0  0  0  0  0  0
  1 11  1  1  0  0  0
  1 17  1  0  0  0  0
  2 15  2  0  0  0  0
  2  3  1  0  0  0  0
  3 22  1  0  0  0  0
  5  4  2  0  0  0  0
  5 16  1  0  0  0  0
  6 18  2  0  0  0  0
  7  2  1  0  0  0  0
  8 20  1  0  0  0  0
  8  1  1  0  0  0  0
  9  3  2  0  0  0  0
  9  6  1  0  0  0  0
 10 16  1  0  0  0  0
 10 15  1  0  0  0  0
 14 10  2  0  0  0  0
 15 21  1  0  0  0  0
 17  7  1  0  0  0  0
 18 23  1  0  0  0  0
 18 13  1  0  0  0  0
 19 14  1  0  0  0  0
 19  7  2  0  0  0  0
 20 19  1  0  0  0  0
 21 12  2  0  0  0  0
 22 12  1  0  0  0  0
 22 23  2  0  0  0  0
 24  5  1  0  0  0  0
 25 27  1  0  0  0  0
 25 29  1  0  0  0  0
 27 28  1  0  0  0  0
 28 26  1  0  0  0  0
 28 24  2  0  0  0  0
 29 30  1  0  0  0  0
 29 26  2  0  0  0  0
 31 30  1  0  0  0  0
M  END
>  <MODEL>
5

>  <REMARK>
 VINA RESULT:      -9.9      2.537      3.522
  Name = 
  2 active torsions:
  status: ('A' for Active; 'I' for Inactive)
    1  A    between atoms: O_1  and  C_24
    2  A    between atoms: C_3  and  C_9
                            x       y       z     vdW  Elec       q    Type
                         _______ _______ _______ _____ _____    ______ ____

>  <TORSDO>
F 2

$$$$
=
 OpenBabel11052413023D

 31 35  0  0  1  0  0  0  0  0999 V2000
  188.3340  177.6110  140.9760 C   0  0  1  0  0  3  0  0  0  0  0  0
  185.8250  178.3220  143.7100 C   0  0  0  0  0  0  0  0  0  0  0  0
  186.5730  178.1980  144.9180 C   0  0  0  0  0  0  0  0  0  0  0  0
  180.1210  179.4010  141.9180 O   0  0  0  0  0  0  0  0  0  0  0  0
  181.3270  179.1660  141.6370 C   0  0  0  0  0  0  0  0  0  0  0  0
  188.6590  177.8060  146.1240 C   0  0  0  0  0  3  0  0  0  0  0  0
  186.4000  178.1790  142.4210 C   0  0  0  0  0  0  0  0  0  0  0  0
  187.6610  178.4340  139.8870 C   0  0  0  0  0  2  0  0  0  0  0  0
  187.9520  177.9230  144.9260 C   0  0  0  0  0  3  0  0  0  0  0  0
  183.6660  178.7270  142.6250 C   0  0  0  0  0  0  0  0  0  0  0  0
  189.8210  177.8970  140.9960 C   0  0  0  0  0  1  0  0  0  0  0  0
  184.5550  178.6280  146.2200 C   0  0  0  0  0  3  0  0  0  0  0  0
  188.8850  177.8200  148.8440 Cl  0  0  0  0  0  0  0  0  0  0  0  0
  184.2640  178.5850  141.4140 N   0  0  0  0  0  0  0  0  0  0  0  0
  184.4330  178.6000  143.7960 C   0  0  0  0  0  0  0  0  0  0  0  0
  182.2570  179.0030  142.7160 N   0  0  0  0  0  2  0  0  0  0  0  0
  187.7690  177.9200  142.2480 O   0  0  0  0  0  0  0  0  0  0  0  0
  187.9990  177.9650  147.3420 C   0  0  0  0  0  0  0  0  0  0  0  0
  185.5880  178.3310  141.2820 C   0  0  0  0  0  0  0  0  0  0  0  0
  186.1630  178.1530  139.9060 C   0  0  0  0  0  2  0  0  0  0  0  0
  183.8200  178.7490  145.0460 C   0  0  0  0  0  3  0  0  0  0  0  0
  185.9170  178.3560  146.1680 C   0  0  0  0  0  0  0  0  0  0  0  0
  186.6310  178.2390  147.3640 C   0  0  0  0  0  3  0  0  0  0  0  0
  181.7560  179.0660  140.2280 C   0  0  0  0  0  3  0  0  0  0  0  0
  181.5590  176.2800  137.6130 C   0  0  0  0  0  2  0  0  0  0  0  0
  181.0050  176.7900  139.8680 N   0  0  0  0  0  0  0  0  0  0  0  0
  182.1700  177.9980  137.7550 S   0  0  0  0  0  0  0  0  0  0  0  0
  181.6090  177.9980  139.4430 C   0  0  0  0  0  0  0  0  0  0  0  0
  180.9750  175.8990  138.9340 C   0  0  0  0  0  0  0  0  0  0  0  0
  180.4220  174.6330  139.1380 O   0  0  0  0  0  0  0  0  0  0  0  0
  179.1280  174.2900  138.6660 C   0  0  0  0  0  1  0  0  0  0  0  0
  1 11  1  1  0  0  0
  1 17  1  0  0  0  0
  2 15  2  0  0  0  0
  2  3  1  0  0  0  0
  3  9  2  0  0  0  0
  3 22  1  0  0  0  0
  5  4  2  0  0  0  0
  5 16  1  0  0  0  0
  6 18  2  0  0  0  0
  7  2  1  0  0  0  0
  8 20  1  0  0  0  0
  8  1  1  0  0  0  0
  9  6  1  0  0  0  0
 10 16  1  0  0  0  0
 10 15  1  0  0  0  0
 14 10  2  0  0  0  0
 15 21  1  0  0  0  0
 17  7  1  0  0  0  0
 18 23  1  0  0  0  0
 18 13  1  0  0  0  0
 19 14  1  0  0  0  0
 19  7  2  0  0  0  0
 20 19  1  0  0  0  0
 21 12  2  0  0  0  0
 22 12  1  0  0  0  0
 22 23  2  0  0  0  0
 24  5  1  0  0  0  0
 25 27  1  0  0  0  0
 25 29  1  0  0  0  0
 27 28  1  0  0  0  0
 28 26  1  0  0  0  0
 28 24  2  0  0  0  0
 29 30  1  0  0  0  0
 29 26  2  0  0  0  0
 31 30  1  0  0  0  0
M  END
>  <MODEL>
6

>  <REMARK>
 VINA RESULT:      -9.8      1.966      2.783
  Name = 
  2 active torsions:
  status: ('A' for Active; 'I' for Inactive)
    1  A    between atoms: O_1  and  C_24
    2  A    between atoms: C_3  and  C_9
                            x       y       z     vdW  Elec       q    Type
                         _______ _______ _______ _____ _____    ______ ____

>  <TORSDO>
F 2

$$$$
=
 OpenBabel11052413023D

 31 35  0  0  1  0  0  0  0  0999 V2000
  191.0340  176.3090  143.6340 C   0  0  1  0  0  3  0  0  0  0  0  0
  187.7970  177.8480  142.4410 C   0  0  0  0  0  0  0  0  0  0  0  0
  186.9970  177.9500  143.6180 C   0  0  0  0  0  0  0  0  0  0  0  0
  187.3690  178.9420  136.4800 O   0  0  0  0  0  0  0  0  0  0  0  0
  188.0400  178.5490  137.4720 C   0  0  0  0  0  0  0  0  0  0  0  0
  186.6680  177.6820  146.0220 C   0  0  0  0  0  3  0  0  0  0  0  0
  189.1280  177.3590  142.4440 C   0  0  0  0  0  0  0  0  0  0  0  0
  191.9310  176.9070  142.5590 C   0  0  0  0  0  2  0  0  0  0  0  0
  187.4730  177.5710  144.8860 C   0  0  0  0  0  3  0  0  0  0  0  0
  187.9930  178.1630  140.0190 C   0  0  0  0  0  0  0  0  0  0  0  0
  191.6810  176.4680  144.9940 C   0  0  0  0  0  1  0  0  0  0  0  0
  185.1490  178.8390  142.2960 C   0  0  0  0  0  3  0  0  0  0  0  0
  184.3610  178.3150  147.3350 Cl  0  0  0  0  0  0  0  0  0  0  0  0
  189.2650  177.6920  140.0760 N   0  0  0  0  0  0  0  0  0  0  0  0
  187.2340  178.2520  141.1990 C   0  0  0  0  0  0  0  0  0  0  0  0
  187.4180  178.5680  138.7640 N   0  0  0  0  0  2  0  0  0  0  0  0
  189.7620  176.9540  143.6300 O   0  0  0  0  0  0  0  0  0  0  0  0
  185.3690  178.1760  145.9120 C   0  0  0  0  0  0  0  0  0  0  0  0
  189.8470  177.3050  141.2360 C   0  0  0  0  0  0  0  0  0  0  0  0
  191.2470  176.7620  141.2050 C   0  0  0  0  0  2  0  0  0  0  0  0
  185.9230  178.7410  141.1450 C   0  0  0  0  0  3  0  0  0  0  0  0
  185.6720  178.4510  143.5240 C   0  0  0  0  0  0  0  0  0  0  0  0
  184.8720  178.5590  144.6660 C   0  0  0  0  0  3  0  0  0  0  0  0
  189.4300  178.0860  137.2930 C   0  0  0  0  0  3  0  0  0  0  0  0
  191.0050  174.6360  136.7820 C   0  0  0  0  0  2  0  0  0  0  0  0
  188.9150  175.7260  137.0920 N   0  0  0  0  0  0  0  0  0  0  0  0
  191.5260  176.3840  136.9180 S   0  0  0  0  0  0  0  0  0  0  0  0
  189.8130  176.8200  137.1240 C   0  0  0  0  0  0  0  0  0  0  0  0
  189.5170  174.5980  136.9170 C   0  0  0  0  0  0  0  0  0  0  0  0
  188.8200  173.3900  136.8540 O   0  0  0  0  0  0  0  0  0  0  0  0
  187.6610  173.2280  136.0520 C   0  0  0  0  0  1  0  0  0  0  0  0
  1 11  1  1  0  0  0
  2  7  1  0  0  0  0
  2  3  1  0  0  0  0
  3  9  1  0  0  0  0
  4  5  2  0  0  0  0
  5 16  1  0  0  0  0
  7 17  1  0  0  0  0
  8  1  1  0  0  0  0
  9  6  2  0  0  0  0
 10 14  2  0  0  0  0
 10 15  1  0  0  0  0
 12 22  1  0  0  0  0
 14 19  1  0  0  0  0
 15  2  2  0  0  0  0
 16 10  1  0  0  0  0
 17  1  1  0  0  0  0
 18  6  1  0  0  0  0
 18 13  1  0  0  0  0
 19  7  2  0  0  0  0
 20 19  1  0  0  0  0
 20  8  1  0  0  0  0
 21 15  1  0  0  0  0
 21 12  2  0  0  0  0
 22  3  2  0  0  0  0
 22 23  1  0  0  0  0
 23 18  2  0  0  0  0
 24  5  1  0  0  0  0
 25 29  1  0  0  0  0
 25 27  1  0  0  0  0
 26 28  1  0  0  0  0
 27 28  1  0  0  0  0
 28 24  2  0  0  0  0
 29 26  2  0  0  0  0
 30 29  1  0  0  0  0
 31 30  1  0  0  0  0
M  END
>  <MODEL>
7

>  <REMARK>
 VINA RESULT:      -9.8      4.135      6.396
  Name = 
  2 active torsions:
  status: ('A' for Active; 'I' for Inactive)
    1  A    between atoms: O_1  and  C_24
    2  A    between atoms: C_3  and  C_9
                            x       y       z     vdW  Elec       q    Type
                         _______ _______ _______ _____ _____    ______ ____

>  <TORSDO>
F 2

$$$$
=
 OpenBabel11052413023D

 31 35  0  0  1  0  0  0  0  0999 V2000
  187.9030  177.4670  144.5380 C   0  0  1  0  0  3  0  0  0  0  0  0
  185.5580  178.4480  141.7420 C   0  0  0  0  0  0  0  0  0  0  0  0
  184.2940  178.6120  142.3800 C   0  0  0  0  0  0  0  0  0  0  0  0
  187.9630  178.6860  136.1680 O   0  0  0  0  0  0  0  0  0  0  0  0
  188.0990  178.5090  137.4080 C   0  0  0  0  0  0  0  0  0  0  0  0
  182.8750  178.6270  144.3670 C   0  0  0  0  0  3  0  0  0  0  0  0
  186.7480  178.1210  142.4430 C   0  0  0  0  0  0  0  0  0  0  0  0
  189.1770  178.0170  143.9130 C   0  0  0  0  0  2  0  0  0  0  0  0
  184.1260  178.4620  143.7690 C   0  0  0  0  0  3  0  0  0  0  0  0
  186.8660  178.4600  139.6700 C   0  0  0  0  0  0  0  0  0  0  0  0
  187.8210  177.8790  145.9920 C   0  0  0  0  0  1  0  0  0  0  0  0
  183.2590  179.0970  140.2250 C   0  0  0  0  0  3  0  0  0  0  0  0
  180.1980  179.1570  144.3380 Cl  0  0  0  0  0  0  0  0  0  0  0  0
  187.9770  178.1520  140.3870 N   0  0  0  0  0  0  0  0  0  0  0  0
  185.6360  178.6170  140.3320 C   0  0  0  0  0  0  0  0  0  0  0  0
  186.9390  178.6260  138.2430 N   0  0  0  0  0  2  0  0  0  0  0  0
  186.7600  177.9540  143.8370 O   0  0  0  0  0  0  0  0  0  0  0  0
  181.7650  178.9490  143.5870 C   0  0  0  0  0  0  0  0  0  0  0  0
  187.9550  177.9920  141.7320 C   0  0  0  0  0  0  0  0  0  0  0  0
  189.2230  177.6160  142.4430 C   0  0  0  0  0  2  0  0  0  0  0  0
  184.4890  178.9380  139.5960 C   0  0  0  0  0  3  0  0  0  0  0  0
  183.1520  178.9380  141.6020 C   0  0  0  0  0  0  0  0  0  0  0  0
  181.9030  179.1030  142.2080 C   0  0  0  0  0  3  0  0  0  0  0  0
  189.4260  178.1910  137.9730 C   0  0  0  0  0  3  0  0  0  0  0  0
  191.5960  175.0390  137.9680 C   0  0  0  0  0  2  0  0  0  0  0  0
  189.5120  175.8920  137.2060 N   0  0  0  0  0  0  0  0  0  0  0  0
  191.6540  176.7530  138.6030 S   0  0  0  0  0  0  0  0  0  0  0  0
  190.0510  177.0160  137.8780 C   0  0  0  0  0  0  0  0  0  0  0  0
  190.2980  174.8700  137.2470 C   0  0  0  0  0  0  0  0  0  0  0  0
  189.9620  173.6550  136.6460 O   0  0  0  0  0  0  0  0  0  0  0  0
  188.6950  173.0450  136.8350 C   0  0  0  0  0  1  0  0  0  0  0  0
  1 11  1  1  0  0  0
  2  3  1  0  0  0  0
  2  7  1  0  0  0  0
  3  9  1  0  0  0  0
  4  5  2  0  0  0  0
  5 24  1  0  0  0  0
  5 16  1  0  0  0  0
  7 17  1  0  0  0  0
  8  1  1  0  0  0  0
  9  6  2  0  0  0  0
 10 15  1  0  0  0  0
 10 14  2  0  0  0  0
 12 22  1  0  0  0  0
 14 19  1  0  0  0  0
 15  2  2  0  0  0  0
 16 10  1  0  0  0  0
 17  1  1  0  0  0  0
 18 13  1  0  0  0  0
 18  6  1  0  0  0  0
 19 20  1  0  0  0  0
 19  7  2  0  0  0  0
 20  8  1  0  0  0  0
 21 12  2  0  0  0  0
 21 15  1  0  0  0  0
 22 23  1  0  0  0  0
 22  3  2  0  0  0  0
 23 18  2  0  0  0  0
 25 27  1  0  0  0  0
 26 29  2  0  0  0  0
 26 28  1  0  0  0  0
 28 24  2  0  0  0  0
 28 27  1  0  0  0  0
 29 25  1  0  0  0  0
 30 31  1  0  0  0  0
 30 29  1  0  0  0  0
M  END
>  <MODEL>
8

>  <REMARK>
 VINA RESULT:      -9.4      4.145      7.688
  Name = 
  2 active torsions:
  status: ('A' for Active; 'I' for Inactive)
    1  A    between atoms: O_1  and  C_24
    2  A    between atoms: C_3  and  C_9
                            x       y       z     vdW  Elec       q    Type
                         _______ _______ _______ _____ _____    ______ ____

>  <TORSDO>
F 2

$$$$
=
 OpenBabel11052413023D

 31 35  0  0  1  0  0  0  0  0999 V2000
  187.7290  177.3960  145.3300 C   0  0  1  0  0  3  0  0  0  0  0  0
  185.7500  178.3250  142.2490 C   0  0  0  0  0  0  0  0  0  0  0  0
  184.4220  178.5280  142.7280 C   0  0  0  0  0  0  0  0  0  0  0  0
  188.7990  178.3520  136.9940 O   0  0  0  0  0  0  0  0  0  0  0  0
  188.7840  178.2110  138.2460 C   0  0  0  0  0  0  0  0  0  0  0  0
  182.7800  178.6280  144.5320 C   0  0  0  0  0  3  0  0  0  0  0  0
  186.8420  178.0030  143.0940 C   0  0  0  0  0  0  0  0  0  0  0  0
  189.0780  177.9070  144.8450 C   0  0  0  0  0  2  0  0  0  0  0  0
  184.0890  178.4240  144.0900 C   0  0  0  0  0  3  0  0  0  0  0  0
  187.2930  178.2530  140.3460 C   0  0  0  0  0  0  0  0  0  0  0  0
  187.4840  177.8550  146.7520 C   0  0  0  0  0  1  0  0  0  0  0  0
  183.6580  178.9620  140.4510 C   0  0  0  0  0  3  0  0  0  0  0  0
  180.1350  179.1970  144.1700 Cl  0  0  0  0  0  0  0  0  0  0  0  0
  188.3060  177.9500  141.1980 N   0  0  0  0  0  0  0  0  0  0  0  0
  185.9960  178.4480  140.8530 C   0  0  0  0  0  0  0  0  0  0  0  0
  187.5370  178.3730  138.9340 N   0  0  0  0  0  2  0  0  0  0  0  0
  186.6870  177.8790  144.4840 O   0  0  0  0  0  0  0  0  0  0  0  0
  181.7750  178.9420  143.6160 C   0  0  0  0  0  0  0  0  0  0  0  0
  188.1220  177.8330  142.5360 C   0  0  0  0  0  0  0  0  0  0  0  0
  189.2900  177.4600  143.4020 C   0  0  0  0  0  2  0  0  0  0  0  0
  184.9500  178.7640  139.9780 C   0  0  0  0  0  3  0  0  0  0  0  0
  183.3860  178.8480  141.8100 C   0  0  0  0  0  0  0  0  0  0  0  0
  182.0780  179.0510  142.2590 C   0  0  0  0  0  3  0  0  0  0  0  0
  190.0290  177.8910  138.9730 C   0  0  0  0  0  3  0  0  0  0  0  0
  193.1750  175.9180  138.0510 C   0  0  0  0  0  2  0  0  0  0  0  0
  191.0710  176.6170  137.1930 N   0  0  0  0  0  0  0  0  0  0  0  0
  192.5010  176.8550  139.4690 S   0  0  0  0  0  0  0  0  0  0  0  0
  191.0480  177.1760  138.4940 C   0  0  0  0  0  0  0  0  0  0  0  0
  192.1610  175.9670  136.9550 C   0  0  0  0  0  0  0  0  0  0  0  0
  192.3920  175.3360  135.7320 O   0  0  0  0  0  0  0  0  0  0  0  0
  193.0150  176.0030  134.6440 C   0  0  0  0  0  1  0  0  0  0  0  0
  1 11  1  1  0  0  0
  2  3  1  0  0  0  0
  2  7  1  0  0  0  0
  3  9  1  0  0  0  0
  4  5  2  0  0  0  0
  5 16  1  0  0  0  0
  5 24  1  0  0  0  0
  7 17  1  0  0  0  0
  8  1  1  0  0  0  0
  9  6  2  0  0  0  0
 10 15  1  0  0  0  0
 10 14  2  0  0  0  0
 12 22  1  0  0  0  0
 14 19  1  0  0  0  0
 15  2  2  0  0  0  0
 16 10  1  0  0  0  0
 17  1  1  0  0  0  0
 18 13  1  0  0  0  0
 18  6  1  0  0  0  0
 19  7  2  0  0  0  0
 19 20  1  0  0  0  0
 20  8  1  0  0  0  0
 21 12  2  0  0  0  0
 21 15  1  0  0  0  0
 22 23  1  0  0  0  0
 22  3  2  0  0  0  0
 23 18  2  0  0  0  0
 25 27  1  0  0  0  0
 26 28  1  0  0  0  0
 28 24  2  0  0  0  0
 28 27  1  0  0  0  0
 29 26  2  0  0  0  0
 29 25  1  0  0  0  0
 30 29  1  0  0  0  0
 31 30  1  0  0  0  0
M  END
>  <MODEL>
9

>  <REMARK>
 VINA RESULT:      -9.2      4.166      8.251
  Name = 
  2 active torsions:
  status: ('A' for Active; 'I' for Inactive)
    1  A    between atoms: O_1  and  C_24
    2  A    between atoms: C_3  and  C_9
                            x       y       z     vdW  Elec       q    Type
                         _______ _______ _______ _____ _____    ______ ____

>  <TORSDO>
F 2

$$$$
