=
 OpenBabel11052415583D

 34 39  0  0  1  0  0  0  0  0999 V2000
  179.4280  178.0390  139.3770 C   0  0  1  0  0  3  0  0  0  0  0  0
  181.3090  175.7700  136.8590 C   0  0  0  0  0  2  0  0  0  0  0  0
  179.5380  177.6300  136.5360 C   0  0  0  0  0  2  0  0  0  0  0  0
  180.8690  179.1880  141.0140 N   0  0  0  0  0  0  0  0  0  0  0  0
  179.6720  178.3600  140.8560 C   0  0  0  0  0  2  0  0  0  0  0  0
  180.5260  180.3080  138.8560 C   0  0  2  0  0  3  0  0  0  0  0  0
  181.7930  179.8580  138.2990 N   0  0  0  0  0  1  0  0  0  0  0  0
  180.6590  180.4850  140.3660 C   0  0  0  0  0  2  0  0  0  0  0  0
  179.2990  179.0230  137.0540 C   0  0  0  0  0  0  0  0  0  0  0  0
  179.3810  179.3290  138.5300 C   0  0  1  0  0  3  0  0  0  0  0  0
  178.9940  179.9070  136.2700 O   0  0  0  0  0  0  0  0  0  0  0  0
  182.8130  176.0440  137.0290 C   0  0  0  0  0  2  0  0  0  0  0  0
  183.1840  176.9600  138.2090 C   0  0  1  0  0  3  0  0  0  0  0  0
  182.7340  176.3880  139.5640 C   0  0  0  0  0  2  0  0  0  0  0  0
  180.4240  176.8310  137.4580 C   0  0  0  0  0  0  0  0  0  0  0  0
  181.2250  176.1390  139.7000 C   0  0  0  0  0  2  0  0  0  0  0  0
  180.3770  177.0080  138.7990 C   0  0  0  0  0  0  0  0  0  0  0  0
  184.6860  177.2680  138.2150 C   0  0  0  0  0  3  0  0  0  0  0  0
  185.3020  176.9960  136.8540 C   0  0  0  0  0  1  0  0  0  0  0  0
  184.9400  178.7260  138.5610 C   0  0  0  0  0  1  0  0  0  0  0  0
  181.1700  179.3780  142.4400 C   0  0  0  0  0  2  0  0  0  0  0  0
  184.7540  178.2580  142.2150 N   0  0  0  0  0  0  0  0  0  0  0  0
  182.9400  178.9850  144.1390 N   0  0  0  0  0  0  0  0  0  0  0  0
  186.7960  177.8690  145.2400 C   0  0  0  0  0  0  0  0  0  0  0  0
  186.4240  177.8810  143.8870 C   0  0  0  0  0  3  0  0  0  0  0  0
  185.1290  178.2520  143.5200 C   0  0  0  0  0  0  0  0  0  0  0  0
  184.5700  178.6320  145.8550 C   0  0  0  0  0  3  0  0  0  0  0  0
  184.1970  178.6270  144.5090 C   0  0  0  0  0  0  0  0  0  0  0  0
  185.8680  178.2590  146.2180 C   0  0  0  0  0  3  0  0  0  0  0  0
  182.5680  178.9860  142.8300 C   0  0  0  0  0  0  0  0  0  0  0  0
  183.4950  178.6170  141.8490 C   0  0  0  0  0  3  0  0  0  0  0  0
  188.1970  177.5160  145.6330 C   0  0  1  0  0  3  0  0  0  0  0  0
  188.8760  176.8050  144.5500 C   0  0  0  0  0  2  0  0  0  0  0  0
  189.1550  178.2290  144.7710 N   0  0  0  0  0  2  0  0  0  0  0  0
  1  5  1  1  0  0  0
  2 12  1  0  0  0  0
  2 15  1  0  0  0  0
  3  9  1  0  0  0  0
  3 15  1  0  0  0  0
  4 21  1  0  0  0  0
  5  4  1  0  0  0  0
  6  7  1  1  0  0  0
  6  8  1  0  0  0  0
  8  4  1  0  0  0  0
 10  9  1  6  0  0  0
 10  6  1  0  0  0  0
 10  1  1  0  0  0  0
 11  9  2  0  0  0  0
 12 13  1  0  0  0  0
 13 18  1  1  0  0  0
 13 14  1  0  0  0  0
 14 16  1  0  0  0  0
 15 17  2  0  0  0  0
 17  1  1  0  0  0  0
 17 16  1  0  0  0  0
 18 20  1  0  0  0  0
 19 18  1  0  0  0  0
 21 30  1  0  0  0  0
 22 26  1  0  0  0  0
 23 28  1  0  0  0  0
 24 29  1  0  0  0  0
 25 24  2  0  0  0  0
 26 25  1  0  0  0  0
 26 28  2  0  0  0  0
 27 29  2  0  0  0  0
 28 27  1  0  0  0  0
 30 23  2  0  0  0  0
 31 22  2  0  0  0  0
 31 30  1  0  0  0  0
 32 24  1  6  0  0  0
 33 34  1  0  0  0  0
 33 32  1  0  0  0  0
 34 32  1  0  0  0  0
M  END
>  <MODEL>
1

>  <REMARK>
 VINA RESULT:      -7.8      0.000      0.000
  Name = 
  4 active torsions:
  status: ('A' for Active; 'I' for Inactive)
    1  A    between atoms: C_3  and  C_25
    2  A    between atoms: C_7  and  C_11
    3  A    between atoms: N_8  and  C_18
    4  A    between atoms: C_18  and  C_30
                            x       y       z     vdW  Elec       q    Type
                         _______ _______ _______ _____ _____    ______ ____

>  <TORSDO>
F 4

$$$$
=
 OpenBabel11052415583D

 34 39  0  0  1  0  0  0  0  0999 V2000
  179.3850  179.3840  137.3730 C   0  0  1  0  0  3  0  0  0  0  0  0
  181.9450  177.8280  134.9130 C   0  0  0  0  0  2  0  0  0  0  0  0
  180.7860  180.1420  134.9840 C   0  0  0  0  0  2  0  0  0  0  0  0
  179.9990  179.2110  139.7550 N   0  0  0  0  0  0  0  0  0  0  0  0
  178.9310  178.9790  138.7800 C   0  0  0  0  0  2  0  0  0  0  0  0
  180.8680  181.1470  138.5210 C   0  0  2  0  0  3  0  0  0  0  0  0
  182.1810  180.5570  138.3060 N   0  0  0  0  0  1  0  0  0  0  0  0
  180.2840  180.6460  139.8390 C   0  0  0  0  0  2  0  0  0  0  0  0
  180.5020  181.1990  136.0170 C   0  0  0  0  0  0  0  0  0  0  0  0
  179.9070  180.8370  137.3570 C   0  0  1  0  0  3  0  0  0  0  0  0
  180.7200  182.3700  135.7490 O   0  0  0  0  0  0  0  0  0  0  0  0
  183.2050  177.4810  135.7220 C   0  0  0  0  0  2  0  0  0  0  0  0
  183.0780  177.6580  137.2450 C   0  0  1  0  0  3  0  0  0  0  0  0
  181.9700  176.7800  137.8500 C   0  0  0  0  0  2  0  0  0  0  0  0
  181.0190  178.7900  135.6100 C   0  0  0  0  0  0  0  0  0  0  0  0
  180.5610  177.0280  137.2920 C   0  0  0  0  0  2  0  0  0  0  0  0
  180.3600  178.4170  136.7320 C   0  0  0  0  0  0  0  0  0  0  0  0
  184.4190  177.4060  137.9430 C   0  0  0  0  0  3  0  0  0  0  0  0
  185.4920  177.0240  136.9370 C   0  0  0  0  0  1  0  0  0  0  0  0
  184.8910  178.6470  138.6810 C   0  0  0  0  0  1  0  0  0  0  0  0
  179.6030  178.6960  141.0730 C   0  0  0  0  0  2  0  0  0  0  0  0
  181.3870  178.9760  144.3730 N   0  0  0  0  0  0  0  0  0  0  0  0
  181.9980  178.5910  141.7270 N   0  0  0  0  0  0  0  0  0  0  0  0
  185.0450  178.7430  144.5590 C   0  0  0  0  0  0  0  0  0  0  0  0
  183.7060  178.8800  144.9560 C   0  0  0  0  0  3  0  0  0  0  0  0
  182.6860  178.8340  144.0040 C   0  0  0  0  0  0  0  0  0  0  0  0
  184.3310  178.4800  142.2490 C   0  0  0  0  0  3  0  0  0  0  0  0
  183.0000  178.6350  142.6440 C   0  0  0  0  0  0  0  0  0  0  0  0
  185.3490  178.5280  143.2060 C   0  0  0  0  0  3  0  0  0  0  0  0
  180.6980  178.7380  142.1020 C   0  0  0  0  0  0  0  0  0  0  0  0
  180.3880  178.9330  143.4530 C   0  0  0  0  0  3  0  0  0  0  0  0
  186.1380  178.7470  145.5830 C   0  0  1  0  0  3  0  0  0  0  0  0
  185.5970  178.5080  146.9200 C   0  0  0  0  0  2  0  0  0  0  0  0
  186.2550  177.4130  146.1980 N   0  0  0  0  0  2  0  0  0  0  0  0
  1  5  1  1  0  0  0
  2 15  1  0  0  0  0
  2 12  1  0  0  0  0
  3 15  1  0  0  0  0
  3  9  1  0  0  0  0
  4  8  1  0  0  0  0
  4 21  1  0  0  0  0
  5  4  1  0  0  0  0
  6  7  1  6  0  0  0
  6  8  1  0  0  0  0
 10  9  1  6  0  0  0
 10  1  1  0  0  0  0
 10  6  1  0  0  0  0
 11  9  2  0  0  0  0
 12 13  1  0  0  0  0
 13 14  1  0  0  0  0
 13 18  1  1  0  0  0
 15 17  2  0  0  0  0
 16 14  1  0  0  0  0
 17 16  1  0  0  0  0
 17  1  1  0  0  0  0
 18 20  1  0  0  0  0
 19 18  1  0  0  0  0
 21 30  1  0  0  0  0
 23 30  2  0  0  0  0
 23 28  1  0  0  0  0
 24 25  1  0  0  0  0
 26 22  1  0  0  0  0
 26 25  2  0  0  0  0
 27 28  2  0  0  0  0
 27 29  1  0  0  0  0
 28 26  1  0  0  0  0
 29 24  2  0  0  0  0
 30 31  1  0  0  0  0
 31 22  2  0  0  0  0
 32 24  1  6  0  0  0
 32 34  1  0  0  0  0
 32 33  1  0  0  0  0
 34 33  1  0  0  0  0
M  END
>  <MODEL>
2

>  <REMARK>
 VINA RESULT:      -7.8      1.547      2.505
  Name = 
  4 active torsions:
  status: ('A' for Active; 'I' for Inactive)
    1  A    between atoms: C_3  and  C_25
    2  A    between atoms: C_7  and  C_11
    3  A    between atoms: N_8  and  C_18
    4  A    between atoms: C_18  and  C_30
                            x       y       z     vdW  Elec       q    Type
                         _______ _______ _______ _____ _____    ______ ____

>  <TORSDO>
F 4

$$$$
=
 OpenBabel11052415583D

 34 39  0  0  1  0  0  0  0  0999 V2000
  189.3630  178.2540  137.1860 C   0  0  1  0  0  3  0  0  0  0  0  0
  186.9840  176.6220  134.5960 C   0  0  0  0  0  2  0  0  0  0  0  0
  189.5590  176.5780  134.8620 C   0  0  0  0  0  2  0  0  0  0  0  0
  188.7460  177.8730  139.5430 N   0  0  0  0  0  0  0  0  0  0  0  0
  189.1110  178.8930  138.5570 C   0  0  0  0  0  2  0  0  0  0  0  0
  190.1430  176.1630  138.4690 C   0  0  2  0  0  3  0  0  0  0  0  0
  189.0280  175.2660  138.2010 N   0  0  0  0  0  1  0  0  0  0  0  0
  189.8730  176.9580  139.7440 C   0  0  0  0  0  2  0  0  0  0  0  0
  190.5460  176.3760  135.9800 C   0  0  0  0  0  0  0  0  0  0  0  0
  190.4030  177.1170  137.2870 C   0  0  1  0  0  3  0  0  0  0  0  0
  191.4980  175.6310  135.8080 O   0  0  0  0  0  0  0  0  0  0  0  0
  186.0310  175.6950  135.3690 C   0  0  0  0  0  2  0  0  0  0  0  0
  186.1330  175.7780  136.9020 C   0  0  1  0  0  3  0  0  0  0  0  0
  185.8280  177.1880  137.4370 C   0  0  0  0  0  2  0  0  0  0  0  0
  188.2110  177.0200  135.3730 C   0  0  0  0  0  0  0  0  0  0  0  0
  186.7430  178.3020  136.9060 C   0  0  0  0  0  2  0  0  0  0  0  0
  188.1040  177.8150  136.4630 C   0  0  0  0  0  0  0  0  0  0  0  0
  185.2350  174.7320  137.5720 C   0  0  0  0  0  3  0  0  0  0  0  0
  183.7750  174.9670  137.2240 C   0  0  0  0  0  1  0  0  0  0  0  0
  185.6040  173.3290  137.1190 C   0  0  0  0  0  1  0  0  0  0  0  0
  188.3780  178.5080  140.8160 C   0  0  0  0  0  2  0  0  0  0  0  0
  185.0750  178.0880  142.5670 N   0  0  0  0  0  0  0  0  0  0  0  0
  186.0260  178.9380  140.1390 N   0  0  0  0  0  0  0  0  0  0  0  0
  181.9290  178.9290  140.8750 C   0  0  0  0  0  0  0  0  0  0  0  0
  182.8250  178.5050  141.8680 C   0  0  0  0  0  3  0  0  0  0  0  0
  184.1980  178.5050  141.6180 C   0  0  0  0  0  0  0  0  0  0  0  0
  183.7980  179.3820  139.3860 C   0  0  0  0  0  3  0  0  0  0  0  0
  184.6870  178.9430  140.3700 C   0  0  0  0  0  0  0  0  0  0  0  0
  182.4230  179.3790  139.6410 C   0  0  0  0  0  3  0  0  0  0  0  0
  186.9000  178.5150  141.0920 C   0  0  0  0  0  0  0  0  0  0  0  0
  186.4130  178.0840  142.3310 C   0  0  0  0  0  3  0  0  0  0  0  0
  180.4580  178.9740  141.1560 C   0  0  1  0  0  3  0  0  0  0  0  0
  180.2050  178.9470  142.5960 C   0  0  0  0  0  2  0  0  0  0  0  0
  180.1210  180.2190  141.8670 N   0  0  0  0  0  2  0  0  0  0  0  0
  1 10  1  0  0  0  0
  1  5  1  1  0  0  0
  2 12  1  0  0  0  0
  2 15  1  0  0  0  0
  3 15  1  0  0  0  0
  3  9  1  0  0  0  0
  4  8  1  0  0  0  0
  4 21  1  0  0  0  0
  5  4  1  0  0  0  0
  6  7  1  6  0  0  0
  6  8  1  0  0  0  0
 10  9  1  6  0  0  0
 10  6  1  0  0  0  0
 11  9  2  0  0  0  0
 12 13  1  0  0  0  0
 13 14  1  0  0  0  0
 13 18  1  1  0  0  0
 15 17  2  0  0  0  0
 16 14  1  0  0  0  0
 17 16  1  0  0  0  0
 17  1  1  0  0  0  0
 19 18  1  0  0  0  0
 20 18  1  0  0  0  0
 21 30  1  0  0  0  0
 23 28  2  0  0  0  0
 23 30  1  0  0  0  0
 24 25  2  0  0  0  0
 26 25  1  0  0  0  0
 26 22  2  0  0  0  0
 27 29  2  0  0  0  0
 27 28  1  0  0  0  0
 28 26  1  0  0  0  0
 29 24  1  0  0  0  0
 30 31  2  0  0  0  0
 31 22  1  0  0  0  0
 32 24  1  1  0  0  0
 32 34  1  0  0  0  0
 32 33  1  0  0  0  0
 34 33  1  0  0  0  0
M  END
>  <MODEL>
3

>  <REMARK>
 VINA RESULT:      -7.4      3.894      7.551
  Name = 
  4 active torsions:
  status: ('A' for Active; 'I' for Inactive)
    1  A    between atoms: C_3  and  C_25
    2  A    between atoms: C_7  and  C_11
    3  A    between atoms: N_8  and  C_18
    4  A    between atoms: C_18  and  C_30
                            x       y       z     vdW  Elec       q    Type
                         _______ _______ _______ _____ _____    ______ ____

>  <TORSDO>
F 4

$$$$
=
 OpenBabel11052415583D

 34 39  0  0  1  0  0  0  0  0999 V2000
  181.8070  177.6470  137.2890 C   0  0  1  0  0  3  0  0  0  0  0  0
  180.5210  179.0800  140.6530 C   0  0  0  0  0  2  0  0  0  0  0  0
  179.7150  177.1100  139.1800 C   0  0  0  0  0  2  0  0  0  0  0  0
  184.2300  177.1900  137.2150 N   0  0  0  0  0  0  0  0  0  0  0  0
  183.1190  177.8440  136.5190 C   0  0  0  0  0  2  0  0  0  0  0  0
  182.7880  175.4070  138.0920 C   0  0  2  0  0  3  0  0  0  0  0  0
  183.0540  175.7280  139.4860 N   0  0  0  0  0  1  0  0  0  0  0  0
  184.0090  175.7420  137.2400 C   0  0  0  0  0  2  0  0  0  0  0  0
  180.3430  175.9510  138.4540 C   0  0  0  0  0  0  0  0  0  0  0  0
  181.5460  176.1510  137.5630 C   0  0  1  0  0  3  0  0  0  0  0  0
  179.8440  174.8410  138.5560 O   0  0  0  0  0  0  0  0  0  0  0  0
  181.6710  178.9720  141.6670 C   0  0  0  0  0  2  0  0  0  0  0  0
  183.0210  178.5180  141.0840 C   0  0  1  0  0  3  0  0  0  0  0  0
  183.5450  179.4730  139.9980 C   0  0  0  0  0  2  0  0  0  0  0  0
  180.7030  178.2210  139.4300 C   0  0  0  0  0  0  0  0  0  0  0  0
  182.6190  179.6570  138.7870 C   0  0  0  0  0  2  0  0  0  0  0  0
  181.6900  178.4890  138.5430 C   0  0  0  0  0  0  0  0  0  0  0  0
  184.0620  178.3240  142.1920 C   0  0  0  0  0  3  0  0  0  0  0  0
  185.2490  179.2510  141.9910 C   0  0  0  0  0  1  0  0  0  0  0  0
  183.4640  178.6180  143.5580 C   0  0  0  0  0  1  0  0  0  0  0  0
  185.5000  177.4970  136.5440 C   0  0  0  0  0  2  0  0  0  0  0  0
  188.8280  176.2890  137.8160 N   0  0  0  0  0  0  0  0  0  0  0  0
  186.8200  177.9900  138.5900 N   0  0  0  0  0  0  0  0  0  0  0  0
  190.1550  177.4720  141.0260 C   0  0  0  0  0  0  0  0  0  0  0  0
  190.0590  176.7850  139.8070 C   0  0  0  0  0  3  0  0  0  0  0  0
  188.9370  176.9570  138.9930 C   0  0  0  0  0  0  0  0  0  0  0  0
  188.0080  178.5300  140.5950 C   0  0  0  0  0  3  0  0  0  0  0  0
  187.9060  177.8320  139.3910 C   0  0  0  0  0  0  0  0  0  0  0  0
  189.1330  178.3540  141.4080 C   0  0  0  0  0  3  0  0  0  0  0  0
  186.7130  177.3160  137.4130 C   0  0  0  0  0  0  0  0  0  0  0  0
  187.7390  176.4500  137.0180 C   0  0  0  0  0  3  0  0  0  0  0  0
  191.3770  177.3250  141.8800 C   0  0  1  0  0  3  0  0  0  0  0  0
  191.1250  177.8130  143.2350 C   0  0  0  0  0  2  0  0  0  0  0  0
  191.1160  176.3700  142.9700 N   0  0  0  0  0  2  0  0  0  0  0  0
  1  5  1  1  0  0  0
  1 10  1  0  0  0  0
  1 17  1  0  0  0  0
  2 12  1  0  0  0  0
  3 15  1  0  0  0  0
  4  8  1  0  0  0  0
  5  4  1  0  0  0  0
  6  7  1  1  0  0  0
  8  6  1  0  0  0  0
  9 11  2  0  0  0  0
  9  3  1  0  0  0  0
 10  6  1  0  0  0  0
 10  9  1  1  0  0  0
 13 12  1  0  0  0  0
 13 18  1  1  0  0  0
 14 13  1  0  0  0  0
 15  2  1  0  0  0  0
 16 14  1  0  0  0  0
 17 16  1  0  0  0  0
 17 15  2  0  0  0  0
 18 20  1  0  0  0  0
 19 18  1  0  0  0  0
 21  4  1  0  0  0  0
 21 30  1  0  0  0  0
 22 26  1  0  0  0  0
 23 28  1  0  0  0  0
 24 29  1  0  0  0  0
 25 24  2  0  0  0  0
 26 28  2  0  0  0  0
 26 25  1  0  0  0  0
 27 29  2  0  0  0  0
 28 27  1  0  0  0  0
 30 23  2  0  0  0  0
 31 30  1  0  0  0  0
 31 22  2  0  0  0  0
 32 24  1  6  0  0  0
 32 34  1  0  0  0  0
 32 33  1  0  0  0  0
 34 33  1  0  0  0  0
M  END
>  <MODEL>
4

>  <REMARK>
 VINA RESULT:      -7.4      2.912      5.154
  Name = 
  4 active torsions:
  status: ('A' for Active; 'I' for Inactive)
    1  A    between atoms: C_3  and  C_25
    2  A    between atoms: C_7  and  C_11
    3  A    between atoms: N_8  and  C_18
    4  A    between atoms: C_18  and  C_30
                            x       y       z     vdW  Elec       q    Type
                         _______ _______ _______ _____ _____    ______ ____

>  <TORSDO>
F 4

$$$$
=
 OpenBabel11052415583D

 34 39  0  0  1  0  0  0  0  0999 V2000
  187.6270  177.4160  135.9620 C   0  0  1  0  0  3  0  0  0  0  0  0
  183.7570  177.5150  135.7580 C   0  0  0  0  0  2  0  0  0  0  0  0
  185.5220  176.0220  134.5940 C   0  0  0  0  0  2  0  0  0  0  0  0
  188.5430  177.3460  138.2510 N   0  0  0  0  0  0  0  0  0  0  0  0
  188.6220  178.0260  136.9560 C   0  0  0  0  0  2  0  0  0  0  0  0
  187.9610  175.1950  137.2200 C   0  0  2  0  0  3  0  0  0  0  0  0
  186.6800  175.0910  137.9020 N   0  0  0  0  0  1  0  0  0  0  0  0
  188.9560  175.9490  138.0980 C   0  0  0  0  0  2  0  0  0  0  0  0
  186.7510  175.2520  134.9970 C   0  0  0  0  0  0  0  0  0  0  0  0
  187.8220  175.8890  135.8500 C   0  0  1  0  0  3  0  0  0  0  0  0
  186.8990  174.1100  134.5940 O   0  0  0  0  0  0  0  0  0  0  0  0
  183.2160  177.2500  137.1730 C   0  0  0  0  0  2  0  0  0  0  0  0
  184.2800  177.1960  138.2840 C   0  0  1  0  0  3  0  0  0  0  0  0
  185.0720  178.5090  138.4060 C   0  0  0  0  0  2  0  0  0  0  0  0
  185.1990  177.1220  135.5730 C   0  0  0  0  0  0  0  0  0  0  0  0
  185.8260  178.9380  137.1390 C   0  0  0  0  0  2  0  0  0  0  0  0
  186.1810  177.7920  136.2200 C   0  0  0  0  0  0  0  0  0  0  0  0
  183.6540  176.8060  139.6280 C   0  0  0  0  0  3  0  0  0  0  0  0
  183.2010  178.0380  140.3940 C   0  0  0  0  0  1  0  0  0  0  0  0
  182.4440  175.9110  139.4250 C   0  0  0  0  0  1  0  0  0  0  0  0
  189.4010  178.0230  139.2330 C   0  0  0  0  0  2  0  0  0  0  0  0
  189.3490  177.3260  142.9290 N   0  0  0  0  0  0  0  0  0  0  0  0
  187.6440  178.2250  140.9780 N   0  0  0  0  0  0  0  0  0  0  0  0
  186.2980  177.8500  144.8990 C   0  0  0  0  0  0  0  0  0  0  0  0
  187.6230  177.5250  144.5750 C   0  0  0  0  0  3  0  0  0  0  0  0
  188.0710  177.6470  143.2580 C   0  0  0  0  0  0  0  0  0  0  0  0
  185.8800  178.4510  142.5800 C   0  0  0  0  0  3  0  0  0  0  0  0
  187.1950  178.1100  142.2560 C   0  0  0  0  0  0  0  0  0  0  0  0
  185.4350  178.3260  143.9000 C   0  0  0  0  0  3  0  0  0  0  0  0
  188.9240  177.8980  140.6530 C   0  0  0  0  0  0  0  0  0  0  0  0
  189.7940  177.4410  141.6500 C   0  0  0  0  0  3  0  0  0  0  0  0
  185.8260  177.7640  146.3190 C   0  0  1  0  0  3  0  0  0  0  0  0
  186.8510  178.2610  147.2360 C   0  0  0  0  0  2  0  0  0  0  0  0
  185.7090  179.1160  146.8910 N   0  0  0  0  0  2  0  0  0  0  0  0
  1 17  1  0  0  0  0
  1  5  1  1  0  0  0
  2 12  1  0  0  0  0
  3  9  1  0  0  0  0
  3 15  1  0  0  0  0
  4 21  1  0  0  0  0
  5  4  1  0  0  0  0
  6  7  1  1  0  0  0
  6  8  1  0  0  0  0
  8  4  1  0  0  0  0
 10  9  1  1  0  0  0
 10  1  1  0  0  0  0
 10  6  1  0  0  0  0
 11  9  2  0  0  0  0
 12 13  1  0  0  0  0
 13 14  1  0  0  0  0
 13 18  1  1  0  0  0
 15  2  1  0  0  0  0
 15 17  2  0  0  0  0
 16 14  1  0  0  0  0
 17 16  1  0  0  0  0
 18 19  1  0  0  0  0
 20 18  1  0  0  0  0
 21 30  1  0  0  0  0
 22 26  1  0  0  0  0
 23 28  1  0  0  0  0
 25 24  1  0  0  0  0
 26 25  2  0  0  0  0
 27 29  1  0  0  0  0
 28 27  2  0  0  0  0
 28 26  1  0  0  0  0
 29 24  2  0  0  0  0
 30 23  2  0  0  0  0
 30 31  1  0  0  0  0
 31 22  2  0  0  0  0
 32 24  1  6  0  0  0
 32 34  1  0  0  0  0
 32 33  1  0  0  0  0
 34 33  1  0  0  0  0
M  END
>  <MODEL>
5

>  <REMARK>
 VINA RESULT:      -7.3      3.349      6.044
  Name = 
  4 active torsions:
  status: ('A' for Active; 'I' for Inactive)
    1  A    between atoms: C_3  and  C_25
    2  A    between atoms: C_7  and  C_11
    3  A    between atoms: N_8  and  C_18
    4  A    between atoms: C_18  and  C_30
                            x       y       z     vdW  Elec       q    Type
                         _______ _______ _______ _____ _____    ______ ____

>  <TORSDO>
F 4

$$$$
=
 OpenBabel11052415583D

 34 39  0  0  1  0  0  0  0  0999 V2000
  185.1500  174.7980  134.6510 C   0  0  1  0  0  3  0  0  0  0  0  0
  181.4630  174.9350  135.8410 C   0  0  0  0  0  2  0  0  0  0  0  0
  182.9260  173.0030  134.9310 C   0  0  0  0  0  2  0  0  0  0  0  0
  186.7810  175.7860  136.2150 N   0  0  0  0  0  0  0  0  0  0  0  0
  186.3250  175.7680  134.8230 C   0  0  0  0  0  2  0  0  0  0  0  0
  186.1960  173.4270  136.5620 C   0  0  2  0  0  3  0  0  0  0  0  0
  185.2460  173.7070  137.6290 N   0  0  0  0  0  1  0  0  0  0  0  0
  187.3110  174.4680  136.5750 C   0  0  0  0  0  2  0  0  0  0  0  0
  184.3150  172.4710  135.1650 C   0  0  0  0  0  0  0  0  0  0  0  0
  185.5090  173.3940  135.1830 C   0  0  1  0  0  3  0  0  0  0  0  0
  184.4780  171.2690  135.3010 O   0  0  0  0  0  0  0  0  0  0  0  0
  181.4720  175.3930  137.3080 C   0  0  0  0  0  2  0  0  0  0  0  0
  182.8430  175.8310  137.8530 C   0  0  1  0  0  3  0  0  0  0  0  0
  183.4370  177.0150  137.0690 C   0  0  0  0  0  2  0  0  0  0  0  0
  182.7990  174.4470  135.3460 C   0  0  0  0  0  0  0  0  0  0  0  0
  183.6540  176.7630  135.5700 C   0  0  0  0  0  2  0  0  0  0  0  0
  183.8370  175.3060  135.2140 C   0  0  0  0  0  0  0  0  0  0  0  0
  182.7660  176.1490  139.3500 C   0  0  0  0  0  3  0  0  0  0  0  0
  183.4230  177.4840  139.6570 C   0  0  0  0  0  1  0  0  0  0  0  0
  181.3220  176.2190  139.8170 C   0  0  0  0  0  1  0  0  0  0  0  0
  187.8150  176.8140  136.3970 C   0  0  0  0  0  2  0  0  0  0  0  0
  187.3250  178.3290  139.8050 N   0  0  0  0  0  0  0  0  0  0  0  0
  189.1810  176.8110  138.4730 N   0  0  0  0  0  0  0  0  0  0  0  0
  189.8570  177.9140  142.4290 C   0  0  0  0  0  0  0  0  0  0  0  0
  188.6790  178.3110  141.7780 C   0  0  0  0  0  3  0  0  0  0  0  0
  188.4570  177.9430  140.4500 C   0  0  0  0  0  0  0  0  0  0  0  0
  190.5750  176.7510  140.4170 C   0  0  0  0  0  3  0  0  0  0  0  0
  189.4100  177.1620  139.7650 C   0  0  0  0  0  0  0  0  0  0  0  0
  190.7940  177.1220  141.7470 C   0  0  0  0  0  3  0  0  0  0  0  0
  188.0470  177.2040  137.8300 C   0  0  0  0  0  0  0  0  0  0  0  0
  187.1010  177.9770  138.5120 C   0  0  0  0  0  3  0  0  0  0  0  0
  190.0790  178.2680  143.8680 C   0  0  1  0  0  3  0  0  0  0  0  0
  191.4620  178.0020  144.2590 C   0  0  0  0  0  2  0  0  0  0  0  0
  191.0420  179.3780  143.9680 N   0  0  0  0  0  2  0  0  0  0  0  0
  1  5  1  1  0  0  0
  1 10  1  0  0  0  0
  1 17  1  0  0  0  0
  2 12  1  0  0  0  0
  3  9  1  0  0  0  0
  3 15  1  0  0  0  0
  4 21  1  0  0  0  0
  4  8  1  0  0  0  0
  5  4  1  0  0  0  0
  6  8  1  0  0  0  0
  6  7  1  1  0  0  0
  9 11  2  0  0  0  0
 10  9  1  1  0  0  0
 10  6  1  0  0  0  0
 12 13  1  0  0  0  0
 13 18  1  1  0  0  0
 14 13  1  0  0  0  0
 15  2  1  0  0  0  0
 16 14  1  0  0  0  0
 17 15  2  0  0  0  0
 17 16  1  0  0  0  0
 18 19  1  0  0  0  0
 18 20  1  0  0  0  0
 21 30  1  0  0  0  0
 22 26  1  0  0  0  0
 23 28  1  0  0  0  0
 25 24  1  0  0  0  0
 26 25  2  0  0  0  0
 27 29  1  0  0  0  0
 28 27  2  0  0  0  0
 28 26  1  0  0  0  0
 29 24  2  0  0  0  0
 30 23  2  0  0  0  0
 30 31  1  0  0  0  0
 31 22  2  0  0  0  0
 32 24  1  6  0  0  0
 32 34  1  0  0  0  0
 32 33  1  0  0  0  0
 34 33  1  0  0  0  0
M  END
>  <MODEL>
6

>  <REMARK>
 VINA RESULT:      -7.2      3.912      6.326
  Name = 
  4 active torsions:
  status: ('A' for Active; 'I' for Inactive)
    1  A    between atoms: C_3  and  C_25
    2  A    between atoms: C_7  and  C_11
    3  A    between atoms: N_8  and  C_18
    4  A    between atoms: C_18  and  C_30
                            x       y       z     vdW  Elec       q    Type
                         _______ _______ _______ _____ _____    ______ ____

>  <TORSDO>
F 4

$$$$
=
 OpenBabel11052415583D

 34 39  0  0  1  0  0  0  0  0999 V2000
  189.8860  177.8860  137.1790 C   0  0  1  0  0  3  0  0  0  0  0  0
  189.0350  175.1250  134.5940 C   0  0  0  0  0  2  0  0  0  0  0  0
  191.2880  176.0370  135.4860 C   0  0  0  0  0  2  0  0  0  0  0  0
  188.6920  177.6970  139.3280 N   0  0  0  0  0  0  0  0  0  0  0  0
  189.0380  178.6060  138.2340 C   0  0  0  0  0  2  0  0  0  0  0  0
  190.7910  176.4420  139.1080 C   0  0  2  0  0  3  0  0  0  0  0  0
  190.1310  175.1780  138.8150 N   0  0  0  0  0  1  0  0  0  0  0  0
  189.9120  177.2840  140.0280 C   0  0  0  0  0  2  0  0  0  0  0  0
  191.8830  176.3790  136.8260 C   0  0  0  0  0  0  0  0  0  0  0  0
  191.1230  177.2230  137.8220 C   0  0  1  0  0  3  0  0  0  0  0  0
  193.0130  176.0020  137.0910 O   0  0  0  0  0  0  0  0  0  0  0  0
  188.2000  174.0580  135.3210 C   0  0  0  0  0  2  0  0  0  0  0  0
  187.7800  174.4180  136.7570 C   0  0  1  0  0  3  0  0  0  0  0  0
  186.9250  175.6960  136.8190 C   0  0  0  0  0  2  0  0  0  0  0  0
  189.7800  176.0510  135.5190 C   0  0  0  0  0  0  0  0  0  0  0  0
  187.5970  176.9590  136.2620 C   0  0  0  0  0  2  0  0  0  0  0  0
  189.1070  176.9210  136.3070 C   0  0  0  0  0  0  0  0  0  0  0  0
  187.0610  173.2440  137.4320 C   0  0  0  0  0  3  0  0  0  0  0  0
  185.5790  173.2520  137.1010 C   0  0  0  0  0  1  0  0  0  0  0  0
  187.6370  171.9160  136.9690 C   0  0  0  0  0  1  0  0  0  0  0  0
  187.7710  178.3570  140.2630 C   0  0  0  0  0  2  0  0  0  0  0  0
  189.7290  177.8450  143.4350 N   0  0  0  0  0  0  0  0  0  0  0  0
  187.1110  178.0130  142.6340 N   0  0  0  0  0  0  0  0  0  0  0  0
  188.0170  177.3640  146.6450 C   0  0  0  0  0  0  0  0  0  0  0  0
  189.0470  177.5040  145.7030 C   0  0  0  0  0  3  0  0  0  0  0  0
  188.7410  177.7170  144.3580 C   0  0  0  0  0  0  0  0  0  0  0  0
  186.3690  177.6830  144.8850 C   0  0  0  0  0  3  0  0  0  0  0  0
  187.3960  177.8050  143.9460 C   0  0  0  0  0  0  0  0  0  0  0  0
  186.6800  177.4680  146.2310 C   0  0  0  0  0  3  0  0  0  0  0  0
  188.1050  178.1360  141.7120 C   0  0  0  0  0  0  0  0  0  0  0  0
  189.4400  178.0520  142.1230 C   0  0  0  0  0  3  0  0  0  0  0  0
  188.3420  177.1800  148.0950 C   0  0  1  0  0  3  0  0  0  0  0  0
  189.3530  178.1450  148.5260 C   0  0  0  0  0  2  0  0  0  0  0  0
  187.9410  178.3770  148.8540 N   0  0  0  0  0  2  0  0  0  0  0  0
  1 10  1  0  0  0  0
  1  5  1  1  0  0  0
  2 12  1  0  0  0  0
  2 15  1  0  0  0  0
  3 15  1  0  0  0  0
  3  9  1  0  0  0  0
  4  8  1  0  0  0  0
  4 21  1  0  0  0  0
  5  4  1  0  0  0  0
  6  7  1  6  0  0  0
  6  8  1  0  0  0  0
  9 11  2  0  0  0  0
 10  9  1  6  0  0  0
 10  6  1  0  0  0  0
 12 13  1  0  0  0  0
 13 14  1  0  0  0  0
 13 18  1  6  0  0  0
 15 17  2  0  0  0  0
 16 17  1  0  0  0  0
 16 14  1  0  0  0  0
 17  1  1  0  0  0  0
 19 18  1  0  0  0  0
 20 18  1  0  0  0  0
 21 30  1  0  0  0  0
 22 26  1  0  0  0  0
 23 28  1  0  0  0  0
 25 24  2  0  0  0  0
 26 25  1  0  0  0  0
 27 29  2  0  0  0  0
 28 26  2  0  0  0  0
 28 27  1  0  0  0  0
 29 24  1  0  0  0  0
 30 31  1  0  0  0  0
 30 23  2  0  0  0  0
 31 22  2  0  0  0  0
 32 24  1  6  0  0  0
 32 33  1  0  0  0  0
 32 34  1  0  0  0  0
 33 34  1  0  0  0  0
M  END
>  <MODEL>
7

>  <REMARK>
 VINA RESULT:      -6.9      5.665      7.621
  Name = 
  4 active torsions:
  status: ('A' for Active; 'I' for Inactive)
    1  A    between atoms: C_3  and  C_25
    2  A    between atoms: C_7  and  C_11
    3  A    between atoms: N_8  and  C_18
    4  A    between atoms: C_18  and  C_30
                            x       y       z     vdW  Elec       q    Type
                         _______ _______ _______ _____ _____    ______ ____

>  <TORSDO>
F 4

$$$$
=
 OpenBabel11052415583D

 34 39  0  0  1  0  0  0  0  0999 V2000
  183.1620  176.3320  135.4280 C   0  0  1  0  0  3  0  0  0  0  0  0
  179.8580  176.8680  137.3830 C   0  0  0  0  0  2  0  0  0  0  0  0
  180.8290  174.8160  136.1410 C   0  0  0  0  0  2  0  0  0  0  0  0
  185.2010  177.0310  136.6260 N   0  0  0  0  0  0  0  0  0  0  0  0
  184.4650  177.1380  135.3650 C   0  0  0  0  0  2  0  0  0  0  0  0
  184.3950  174.7490  137.0410 C   0  0  2  0  0  3  0  0  0  0  0  0
  183.7360  175.0930  138.2930 N   0  0  0  0  0  1  0  0  0  0  0  0
  185.6160  175.6410  136.8360 C   0  0  0  0  0  2  0  0  0  0  0  0
  182.1530  174.1040  136.0600 C   0  0  0  0  0  0  0  0  0  0  0  0
  183.4360  174.8690  135.8410 C   0  0  1  0  0  3  0  0  0  0  0  0
  182.1810  172.8860  136.1320 O   0  0  0  0  0  0  0  0  0  0  0  0
  180.2350  177.2490  138.8240 C   0  0  0  0  0  2  0  0  0  0  0  0
  181.7350  177.4860  139.0710 C   0  0  1  0  0  3  0  0  0  0  0  0
  182.3030  178.6240  138.2030 C   0  0  0  0  0  2  0  0  0  0  0  0
  180.9840  176.2430  136.6040 C   0  0  0  0  0  0  0  0  0  0  0  0
  182.1650  178.4200  136.6870 C   0  0  0  0  0  2  0  0  0  0  0  0
  182.0750  176.9700  136.2700 C   0  0  0  0  0  0  0  0  0  0  0  0
  182.0160  177.7380  140.5560 C   0  0  0  0  0  3  0  0  0  0  0  0
  183.4960  177.9890  140.7940 C   0  0  0  0  0  1  0  0  0  0  0  0
  181.2490  178.9500  141.0580 C   0  0  0  0  0  1  0  0  0  0  0  0
  186.3760  177.9120  136.6040 C   0  0  0  0  0  2  0  0  0  0  0  0
  189.3100  177.1080  138.8160 N   0  0  0  0  0  0  0  0  0  0  0  0
  186.8210  178.2400  139.0260 N   0  0  0  0  0  0  0  0  0  0  0  0
  189.2300  177.8840  142.4020 C   0  0  0  0  0  0  0  0  0  0  0  0
  189.6910  177.4330  141.1560 C   0  0  0  0  0  3  0  0  0  0  0  0
  188.8800  177.5500  140.0260 C   0  0  0  0  0  0  0  0  0  0  0  0
  187.1470  178.5980  141.3690 C   0  0  0  0  0  3  0  0  0  0  0  0
  187.6010  178.1330  140.1330 C   0  0  0  0  0  0  0  0  0  0  0  0
  187.9620  178.4780  142.4990 C   0  0  0  0  0  3  0  0  0  0  0  0
  187.2560  177.7920  137.8170 C   0  0  0  0  0  0  0  0  0  0  0  0
  188.5270  177.2170  137.7110 C   0  0  0  0  0  3  0  0  0  0  0  0
  190.1150  177.8020  143.6080 C   0  0  1  0  0  3  0  0  0  0  0  0
  191.5190  177.6980  143.2140 C   0  0  0  0  0  2  0  0  0  0  0  0
  190.9870  178.9870  143.6710 N   0  0  0  0  0  2  0  0  0  0  0  0
  1  5  1  1  0  0  0
  1 10  1  0  0  0  0
  1 17  1  0  0  0  0
  2 12  1  0  0  0  0
  3 15  1  0  0  0  0
  4  8  1  0  0  0  0
  5  4  1  0  0  0  0
  6  7  1  1  0  0  0
  8  6  1  0  0  0  0
  9 11  2  0  0  0  0
  9  3  1  0  0  0  0
 10  9  1  1  0  0  0
 10  6  1  0  0  0  0
 12 13  1  0  0  0  0
 13 18  1  1  0  0  0
 14 13  1  0  0  0  0
 15  2  1  0  0  0  0
 16 14  1  0  0  0  0
 17 15  2  0  0  0  0
 17 16  1  0  0  0  0
 18 19  1  0  0  0  0
 18 20  1  0  0  0  0
 21  4  1  0  0  0  0
 21 30  1  0  0  0  0
 22 26  1  0  0  0  0
 23 28  1  0  0  0  0
 24 29  1  0  0  0  0
 25 24  2  0  0  0  0
 26 28  2  0  0  0  0
 26 25  1  0  0  0  0
 27 29  2  0  0  0  0
 28 27  1  0  0  0  0
 30 23  2  0  0  0  0
 31 30  1  0  0  0  0
 31 22  2  0  0  0  0
 32 24  1  6  0  0  0
 32 34  1  0  0  0  0
 33 32  1  0  0  0  0
 33 34  1  0  0  0  0
M  END
>  <MODEL>
8

>  <REMARK>
 VINA RESULT:      -6.7      3.088      5.158
  Name = 
  4 active torsions:
  status: ('A' for Active; 'I' for Inactive)
    1  A    between atoms: C_3  and  C_25
    2  A    between atoms: C_7  and  C_11
    3  A    between atoms: N_8  and  C_18
    4  A    between atoms: C_18  and  C_30
                            x       y       z     vdW  Elec       q    Type
                         _______ _______ _______ _____ _____    ______ ____

>  <TORSDO>
F 4

$$$$
=
 OpenBabel11052415583D

 34 39  0  0  1  0  0  0  0  0999 V2000
  181.6290  178.0960  140.5350 C   0  0  1  0  0  3  0  0  0  0  0  0
  179.9690  175.2960  138.4290 C   0  0  0  0  0  2  0  0  0  0  0  0
  179.1230  177.6120  139.2190 C   0  0  0  0  0  2  0  0  0  0  0  0
  183.8780  178.7680  139.7780 N   0  0  0  0  0  0  0  0  0  0  0  0
  183.0860  178.3560  140.9390 C   0  0  0  0  0  2  0  0  0  0  0  0
  181.9670  179.8920  138.7220 C   0  0  2  0  0  3  0  0  0  0  0  0
  181.9930  179.0530  137.5320 N   0  0  0  0  0  1  0  0  0  0  0  0
  183.3810  180.0510  139.2740 C   0  0  0  0  0  2  0  0  0  0  0  0
  179.6530  179.0200  139.2620 C   0  0  0  0  0  0  0  0  0  0  0  0
  181.0310  179.3160  139.8030 C   0  0  1  0  0  3  0  0  0  0  0  0
  178.9390  179.9380  138.8920 O   0  0  0  0  0  0  0  0  0  0  0  0
  180.8380  175.0870  137.1780 C   0  0  0  0  0  2  0  0  0  0  0  0
  182.1670  175.8650  137.1630 C   0  0  1  0  0  3  0  0  0  0  0  0
  183.0810  175.4920  138.3430 C   0  0  0  0  0  2  0  0  0  0  0  0
  180.2340  176.5940  139.1460 C   0  0  0  0  0  0  0  0  0  0  0  0
  182.4830  175.7350  139.7360 C   0  0  0  0  0  2  0  0  0  0  0  0
  181.4170  176.8070  139.7670 C   0  0  0  0  0  0  0  0  0  0  0  0
  182.8950  175.6840  135.8270 C   0  0  0  0  0  3  0  0  0  0  0  0
  184.0920  176.6150  135.7300 C   0  0  0  0  0  1  0  0  0  0  0  0
  183.3970  174.2590  135.6690 C   0  0  0  0  0  1  0  0  0  0  0  0
  185.2950  178.8840  140.1470 C   0  0  0  0  0  2  0  0  0  0  0  0
  184.8830  178.8520  143.8860 N   0  0  0  0  0  0  0  0  0  0  0  0
  186.7400  178.1030  142.0110 N   0  0  0  0  0  0  0  0  0  0  0  0
  187.5290  177.5300  146.0580 C   0  0  0  0  0  0  0  0  0  0  0  0
  186.3130  178.0980  145.6500 C   0  0  0  0  0  3  0  0  0  0  0  0
  186.0520  178.2940  144.2930 C   0  0  0  0  0  0  0  0  0  0  0  0
  188.2100  177.3260  143.7320 C   0  0  0  0  0  3  0  0  0  0  0  0
  187.0060  177.9080  143.3290 C   0  0  0  0  0  0  0  0  0  0  0  0
  188.4670  177.1330  145.0930 C   0  0  0  0  0  3  0  0  0  0  0  0
  185.5680  178.6670  141.6090 C   0  0  0  0  0  0  0  0  0  0  0  0
  184.6210  179.0470  142.5660 C   0  0  0  0  0  3  0  0  0  0  0  0
  187.7930  177.2770  147.5110 C   0  0  1  0  0  3  0  0  0  0  0  0
  189.1740  176.8440  147.7180 C   0  0  0  0  0  2  0  0  0  0  0  0
  188.7970  178.2320  148.0110 N   0  0  0  0  0  2  0  0  0  0  0  0
  1  5  1  6  0  0  0
  2 15  1  0  0  0  0
  3  9  1  0  0  0  0
  4 21  1  0  0  0  0
  4  5  1  0  0  0  0
  6  7  1  6  0  0  0
  6  8  1  0  0  0  0
  6 10  1  0  0  0  0
  8  4  1  0  0  0  0
 10  9  1  6  0  0  0
 10  1  1  0  0  0  0
 11  9  2  0  0  0  0
 12  2  1  0  0  0  0
 13 18  1  6  0  0  0
 13 12  1  0  0  0  0
 13 14  1  0  0  0  0
 14 16  1  0  0  0  0
 15  3  1  0  0  0  0
 15 17  2  0  0  0  0
 16 17  1  0  0  0  0
 17  1  1  0  0  0  0
 19 18  1  0  0  0  0
 20 18  1  0  0  0  0
 21 30  1  0  0  0  0
 22 26  1  0  0  0  0
 23 28  1  0  0  0  0
 25 24  1  0  0  0  0
 26 25  2  0  0  0  0
 27 29  1  0  0  0  0
 28 27  2  0  0  0  0
 28 26  1  0  0  0  0
 29 24  2  0  0  0  0
 30 23  2  0  0  0  0
 30 31  1  0  0  0  0
 31 22  2  0  0  0  0
 32 24  1  6  0  0  0
 32 33  1  0  0  0  0
 32 34  1  0  0  0  0
 33 34  1  0  0  0  0
M  END
>  <MODEL>
9

>  <REMARK>
 VINA RESULT:      -6.6      1.694      2.756
  Name = 
  4 active torsions:
  status: ('A' for Active; 'I' for Inactive)
    1  A    between atoms: C_3  and  C_25
    2  A    between atoms: C_7  and  C_11
    3  A    between atoms: N_8  and  C_18
    4  A    between atoms: C_18  and  C_30
                            x       y       z     vdW  Elec       q    Type
                         _______ _______ _______ _____ _____    ______ ____

>  <TORSDO>
F 4

$$$$
