=
 OpenBabel11052413333D

 28 32  0  0  1  0  0  0  0  0999 V2000
  190.1150  177.3340  142.3430 C   0  0  0  0  0  0  0  0  0  0  0  0
  185.3040  177.6060  143.2070 C   0  0  0  0  0  3  0  0  0  0  0  0
  189.8440  177.7920  147.1620 C   0  0  0  0  0  2  0  0  0  0  0  0
  185.6640  178.8150  145.4340 C   0  0  1  0  0  3  0  0  0  0  0  0
  187.1730  176.8710  144.6930 C   0  0  1  0  0  3  0  0  0  0  0  0
  184.0650  179.6690  143.6500 C   0  0  2  0  0  3  0  0  0  0  0  0
  186.3130  178.0540  144.2340 C   0  0  1  0  0  3  0  0  0  0  0  0
  186.9870  177.4990  147.1230 C   0  0  0  0  0  2  0  0  0  0  0  0
  184.2820  179.4260  145.1420 C   0  0  0  0  0  2  0  0  0  0  0  0
  189.9870  177.6500  144.7400 C   0  0  0  0  0  0  0  0  0  0  0  0
  188.1380  176.3800  143.6060 C   0  0  0  0  0  2  0  0  0  0  0  0
  185.5860  177.9480  146.6920 C   0  0  0  0  0  2  0  0  0  0  0  0
  191.8930  178.4300  143.5500 C   0  0  0  0  0  3  0  0  0  0  0  0
  189.2390  177.5250  146.0060 C   0  0  0  0  0  0  0  0  0  0  0  0
  191.2040  178.2620  144.7100 N   0  0  0  0  0  0  0  0  0  0  0  0
  182.7750  180.1500  143.4340 O   0  0  0  0  0  1  0  0  0  0  0  0
  184.2500  178.3760  142.9170 C   0  0  0  0  0  3  0  0  0  0  0  0
  187.8390  177.1810  145.9690 N   0  0  0  0  0  0  0  0  0  0  0  0
  191.3580  177.9720  142.3460 C   0  0  0  0  0  3  0  0  0  0  0  0
  189.4120  177.1740  143.5520 C   0  0  0  0  0  0  0  0  0  0  0  0
  189.5480  176.8670  141.0420 C   0  0  0  0  0  2  0  0  0  0  0  0
  188.9100  178.0310  140.3040 C   0  0  1  0  0  3  0  0  0  0  0  0
  189.4500  178.0990  138.8940 C   0  0  0  0  0  2  0  0  0  0  0  0
  188.0820  177.4940  139.1520 C   0  0  2  0  0  3  0  0  0  0  0  0
  187.0330  178.4470  138.8150 N   0  0  0  0  0  0  0  0  0  0  0  0
  184.9450  179.3950  139.3960 N   0  0  0  0  0  2  0  0  0  0  0  0
  186.9950  178.9930  137.5760 O   0  0  0  0  0  1  0  0  0  0  0  0
  185.9370  178.6310  139.7130 C   0  0  0  0  0  3  0  0  0  0  0  0
  1 19  2  0  0  0  0
  1 20  1  0  0  0  0
  4  9  1  6  0  0  0
  4 12  1  0  0  0  0
  5 11  1  6  0  0  0
  5 18  1  0  0  0  0
  6 16  1  1  0  0  0
  6  9  1  0  0  0  0
  7  2  1  6  0  0  0
  7  5  1  0  0  0  0
  7  4  1  0  0  0  0
 10 14  1  0  0  0  0
 12  8  1  0  0  0  0
 13 15  2  0  0  0  0
 14  3  2  0  0  0  0
 15 10  1  0  0  0  0
 17  2  2  0  0  0  0
 17  6  1  0  0  0  0
 18 14  1  0  0  0  0
 18  8  1  0  0  0  0
 19 13  1  0  0  0  0
 20 11  1  0  0  0  0
 20 10  2  0  0  0  0
 21  1  1  0  0  0  0
 22 21  1  1  0  0  0
 23 24  1  0  0  0  0
 23 22  1  0  0  0  0
 24 25  1  6  0  0  0
 24 22  1  0  0  0  0
 25 28  1  0  0  0  0
 26 28  2  0  0  0  0
 27 25  1  0  0  0  0
M  END
>  <MODEL>
1

>  <REMARK>
 VINA RESULT:      -8.6      0.000      0.000
  Name = 
  3 active torsions:
  status: ('A' for Active; 'I' for Inactive)
    1  A    between atoms: C_1  and  C_2
    2  A    between atoms: C_2  and  C_3
    3  A    between atoms: N_6  and  C_11
                            x       y       z     vdW  Elec       q    Type
                         _______ _______ _______ _____ _____    ______ ____

>  <TORSDO>
F 3

$$$$
=
 OpenBabel11052413333D

 28 32  0  0  1  0  0  0  0  0999 V2000
  190.0370  177.7380  142.5450 C   0  0  0  0  0  0  0  0  0  0  0  0
  185.1700  177.7010  143.0630 C   0  0  0  0  0  3  0  0  0  0  0  0
  189.3980  177.9140  147.3480 C   0  0  0  0  0  2  0  0  0  0  0  0
  185.2990  178.8030  145.3690 C   0  0  1  0  0  3  0  0  0  0  0  0
  186.9680  176.9870  144.6430 C   0  0  1  0  0  3  0  0  0  0  0  0
  183.7850  179.6660  143.5180 C   0  0  2  0  0  3  0  0  0  0  0  0
  186.0750  178.1460  144.1830 C   0  0  1  0  0  3  0  0  0  0  0  0
  186.5720  177.4690  147.0820 C   0  0  0  0  0  2  0  0  0  0  0  0
  183.9090  179.3530  145.0070 C   0  0  0  0  0  2  0  0  0  0  0  0
  189.7210  177.9140  144.9390 C   0  0  0  0  0  0  0  0  0  0  0  0
  188.0340  176.6100  143.6080 C   0  0  0  0  0  2  0  0  0  0  0  0
  185.1820  177.8640  146.5720 C   0  0  0  0  0  2  0  0  0  0  0  0
  191.6580  178.8600  143.9350 C   0  0  0  0  0  3  0  0  0  0  0  0
  188.8930  177.6790  146.1380 C   0  0  0  0  0  0  0  0  0  0  0  0
  190.9000  178.5910  145.0300 N   0  0  0  0  0  0  0  0  0  0  0  0
  182.4880  180.0880  143.2310 O   0  0  0  0  0  1  0  0  0  0  0  0
  184.0960  178.4280  142.7350 C   0  0  0  0  0  3  0  0  0  0  0  0
  187.5210  177.2610  145.9790 N   0  0  0  0  0  0  0  0  0  0  0  0
  191.2380  178.4410  142.6730 C   0  0  0  0  0  3  0  0  0  0  0  0
  189.2610  177.4730  143.6880 C   0  0  0  0  0  0  0  0  0  0  0  0
  189.5920  177.3130  141.1830 C   0  0  0  0  0  2  0  0  0  0  0  0
  190.7070  176.5540  140.4850 C   0  0  1  0  0  3  0  0  0  0  0  0
  190.2990  176.2410  139.0630 C   0  0  0  0  0  2  0  0  0  0  0  0
  191.2400  177.3990  139.3420 C   0  0  2  0  0  3  0  0  0  0  0  0
  192.6150  177.0170  139.0500 N   0  0  0  0  0  0  0  0  0  0  0  0
  194.0810  175.7210  137.7200 N   0  0  0  0  0  2  0  0  0  0  0  0
  193.5950  177.3080  139.9390 O   0  0  0  0  0  1  0  0  0  0  0  0
  192.8860  176.1550  137.9430 C   0  0  0  0  0  3  0  0  0  0  0  0
  1 19  2  0  0  0  0
  1 20  1  0  0  0  0
  4  9  1  6  0  0  0
  4 12  1  0  0  0  0
  5 11  1  6  0  0  0
  5 18  1  0  0  0  0
  6 16  1  1  0  0  0
  6  9  1  0  0  0  0
  7  2  1  6  0  0  0
  7  5  1  0  0  0  0
  7  4  1  0  0  0  0
 10 15  1  0  0  0  0
 10 14  1  0  0  0  0
 11 20  1  0  0  0  0
 12  8  1  0  0  0  0
 13 15  2  0  0  0  0
 14  3  2  0  0  0  0
 17  2  2  0  0  0  0
 17  6  1  0  0  0  0
 18 14  1  0  0  0  0
 18  8  1  0  0  0  0
 19 13  1  0  0  0  0
 20 10  2  0  0  0  0
 21  1  1  0  0  0  0
 22 21  1  1  0  0  0
 23 24  1  0  0  0  0
 23 22  1  0  0  0  0
 24 25  1  6  0  0  0
 24 22  1  0  0  0  0
 25 27  1  0  0  0  0
 26 28  2  0  0  0  0
 28 25  1  0  0  0  0
M  END
>  <MODEL>
2

>  <REMARK>
 VINA RESULT:      -8.1      2.488      3.081
  Name = 
  3 active torsions:
  status: ('A' for Active; 'I' for Inactive)
    1  A    between atoms: C_1  and  C_2
    2  A    between atoms: C_2  and  C_3
    3  A    between atoms: N_6  and  C_11
                            x       y       z     vdW  Elec       q    Type
                         _______ _______ _______ _____ _____    ______ ____

>  <TORSDO>
F 3

$$$$
=
 OpenBabel11052413333D

 28 32  0  0  1  0  0  0  0  0999 V2000
  187.7560  177.1460  142.6960 C   0  0  0  0  0  0  0  0  0  0  0  0
  185.6620  178.0530  138.3650 C   0  0  0  0  0  3  0  0  0  0  0  0
  191.4840  177.1160  139.5970 C   0  0  0  0  0  2  0  0  0  0  0  0
  187.5890  176.9600  137.0840 C   0  0  1  0  0  3  0  0  0  0  0  0
  188.0040  178.4450  139.1410 C   0  0  1  0  0  3  0  0  0  0  0  0
  185.1510  176.3700  136.6650 C   0  0  2  0  0  3  0  0  0  0  0  0
  187.0450  177.4610  138.4600 C   0  0  1  0  0  3  0  0  0  0  0  0
  189.8250  178.0560  137.4470 C   0  0  0  0  0  2  0  0  0  0  0  0
  186.5080  176.6640  136.0300 C   0  0  0  0  0  2  0  0  0  0  0  0
  189.6070  177.0440  141.1390 C   0  0  0  0  0  0  0  0  0  0  0  0
  187.7150  178.6190  140.6370 C   0  0  0  0  0  2  0  0  0  0  0  0
  188.6330  177.9120  136.4950 C   0  0  0  0  0  2  0  0  0  0  0  0
  189.6800  175.7610  143.1410 C   0  0  0  0  0  3  0  0  0  0  0  0
  190.2150  177.4300  139.8510 C   0  0  0  0  0  0  0  0  0  0  0  0
  190.2380  176.1680  141.9700 N   0  0  0  0  0  0  0  0  0  0  0  0
  184.1940  176.1840  135.6680 O   0  0  0  0  0  1  0  0  0  0  0  0
  184.7600  177.5280  137.5300 C   0  0  0  0  0  3  0  0  0  0  0  0
  189.4020  178.0840  138.8540 N   0  0  0  0  0  0  0  0  0  0  0  0
  188.4270  176.2410  143.5210 C   0  0  0  0  0  3  0  0  0  0  0  0
  188.3450  177.5520  141.4840 C   0  0  0  0  0  0  0  0  0  0  0  0
  186.4050  177.6350  143.1100 C   0  0  0  0  0  2  0  0  0  0  0  0
  186.5320  178.5630  144.3050 C   0  0  1  0  0  3  0  0  0  0  0  0
  185.1610  179.0350  144.7330 C   0  0  0  0  0  2  0  0  0  0  0  0
  185.8520  177.9240  145.5030 C   0  0  2  0  0  3  0  0  0  0  0  0
  186.4340  178.4440  146.7320 N   0  0  0  0  0  0  0  0  0  0  0  0
  187.9720  178.1170  148.5000 N   0  0  0  0  0  2  0  0  0  0  0  0
  185.8310  179.4710  147.3780 O   0  0  0  0  0  1  0  0  0  0  0  0
  187.5040  177.7340  147.3590 C   0  0  0  0  0  3  0  0  0  0  0  0
  1 21  1  0  0  0  0
  1 19  1  0  0  0  0
  3 14  2  0  0  0  0
  4  9  1  6  0  0  0
  4  7  1  0  0  0  0
  5 11  1  1  0  0  0
  6 16  1  6  0  0  0
  6 17  1  0  0  0  0
  7  2  1  6  0  0  0
  7  5  1  0  0  0  0
  8 18  1  0  0  0  0
  9  6  1  0  0  0  0
 10 20  1  0  0  0  0
 10 15  2  0  0  0  0
 11 20  1  0  0  0  0
 12  4  1  0  0  0  0
 12  8  1  0  0  0  0
 13 19  2  0  0  0  0
 14 10  1  0  0  0  0
 15 13  1  0  0  0  0
 17  2  2  0  0  0  0
 18  5  1  0  0  0  0
 18 14  1  0  0  0  0
 20  1  2  0  0  0  0
 22 21  1  6  0  0  0
 22 23  1  0  0  0  0
 22 24  1  0  0  0  0
 23 24  1  0  0  0  0
 24 25  1  1  0  0  0
 25 28  1  0  0  0  0
 25 27  1  0  0  0  0
 28 26  2  0  0  0  0
M  END
>  <MODEL>
3

>  <REMARK>
 VINA RESULT:      -8.0      2.314      6.892
  Name = 
  3 active torsions:
  status: ('A' for Active; 'I' for Inactive)
    1  A    between atoms: C_1  and  C_2
    2  A    between atoms: C_2  and  C_3
    3  A    between atoms: N_6  and  C_11
                            x       y       z     vdW  Elec       q    Type
                         _______ _______ _______ _____ _____    ______ ____

>  <TORSDO>
F 3

$$$$
=
 OpenBabel11052413333D

 28 32  0  0  1  0  0  0  0  0999 V2000
  183.6180  178.4290  139.2220 C   0  0  0  0  0  0  0  0  0  0  0  0
  187.7960  178.2400  141.7670 C   0  0  0  0  0  3  0  0  0  0  0  0
  182.1610  178.7470  143.8340 C   0  0  0  0  0  2  0  0  0  0  0  0
  186.6010  177.4090  143.8720 C   0  0  1  0  0  3  0  0  0  0  0  0
  185.5810  179.2270  142.3680 C   0  0  1  0  0  3  0  0  0  0  0  0
  188.6590  176.2600  142.9170 C   0  0  2  0  0  3  0  0  0  0  0  0
  186.4640  177.9750  142.4220 C   0  0  1  0  0  3  0  0  0  0  0  0
  184.8660  178.9950  144.7700 C   0  0  0  0  0  2  0  0  0  0  0  0
  187.9520  176.7420  144.1820 C   0  0  0  0  0  2  0  0  0  0  0  0
  182.8810  178.5000  141.5270 C   0  0  0  0  0  0  0  0  0  0  0  0
  185.0910  179.5490  140.9510 C   0  0  0  0  0  2  0  0  0  0  0  0
  186.2950  178.4660  144.9350 C   0  0  0  0  0  2  0  0  0  0  0  0
  181.4610  177.5630  139.8650 C   0  0  0  0  0  3  0  0  0  0  0  0
  183.1480  178.8180  142.9430 C   0  0  0  0  0  0  0  0  0  0  0  0
  181.7120  177.9070  141.1560 N   0  0  0  0  0  0  0  0  0  0  0  0
  189.9070  175.7340  143.2450 O   0  0  0  0  0  1  0  0  0  0  0  0
  188.8290  177.4210  141.9860 C   0  0  0  0  0  3  0  0  0  0  0  0
  184.4930  179.1340  143.3550 N   0  0  0  0  0  0  0  0  0  0  0  0
  182.4120  177.8150  138.8770 C   0  0  0  0  0  3  0  0  0  0  0  0
  183.8650  178.7720  140.5640 C   0  0  0  0  0  0  0  0  0  0  0  0
  184.6340  178.6740  138.1530 C   0  0  0  0  0  2  0  0  0  0  0  0
  185.9040  177.8980  138.4550 C   0  0  1  0  0  3  0  0  0  0  0  0
  186.2020  176.9450  137.3200 C   0  0  0  0  0  2  0  0  0  0  0  0
  186.9600  178.2550  137.4250 C   0  0  2  0  0  3  0  0  0  0  0  0
  188.2860  178.0320  137.9830 N   0  0  0  0  0  0  0  0  0  0  0  0
  189.9140  176.4640  138.6810 N   0  0  0  0  0  2  0  0  0  0  0  0
  188.9470  179.0580  138.5720 O   0  0  0  0  0  1  0  0  0  0  0  0
  188.7850  176.6980  138.1000 C   0  0  0  0  0  3  0  0  0  0  0  0
  1 20  1  0  0  0  0
  2 17  2  0  0  0  0
  4  9  1  1  0  0  0
  4 12  1  0  0  0  0
  5 11  1  6  0  0  0
  5  7  1  0  0  0  0
  5 18  1  0  0  0  0
  6 16  1  1  0  0  0
  6  9  1  0  0  0  0
  7  2  1  1  0  0  0
  7  4  1  0  0  0  0
  8 12  1  0  0  0  0
 10 14  1  0  0  0  0
 13 15  2  0  0  0  0
 14 18  1  0  0  0  0
 14  3  2  0  0  0  0
 15 10  1  0  0  0  0
 17  6  1  0  0  0  0
 18  8  1  0  0  0  0
 19  1  2  0  0  0  0
 19 13  1  0  0  0  0
 20 11  1  0  0  0  0
 20 10  2  0  0  0  0
 21  1  1  0  0  0  0
 22 21  1  6  0  0  0
 23 24  1  0  0  0  0
 23 22  1  0  0  0  0
 24 25  1  1  0  0  0
 24 22  1  0  0  0  0
 25 28  1  0  0  0  0
 25 27  1  0  0  0  0
 28 26  2  0  0  0  0
M  END
>  <MODEL>
4

>  <REMARK>
 VINA RESULT:      -7.7      2.850      5.856
  Name = 
  3 active torsions:
  status: ('A' for Active; 'I' for Inactive)
    1  A    between atoms: C_1  and  C_2
    2  A    between atoms: C_2  and  C_3
    3  A    between atoms: N_6  and  C_11
                            x       y       z     vdW  Elec       q    Type
                         _______ _______ _______ _____ _____    ______ ____

>  <TORSDO>
F 3

$$$$
=
 OpenBabel11052413333D

 28 32  0  0  1  0  0  0  0  0999 V2000
  187.5850  177.8010  147.1720 C   0  0  0  0  0  0  0  0  0  0  0  0
  188.5210  176.6510  142.5060 C   0  0  0  0  0  3  0  0  0  0  0  0
  183.7580  179.5620  144.7720 C   0  0  0  0  0  2  0  0  0  0  0  0
  187.0060  178.5190  141.6300 C   0  0  1  0  0  3  0  0  0  0  0  0
  186.3470  177.0840  143.6590 C   0  0  1  0  0  3  0  0  0  0  0  0
  189.3960  178.1950  140.8210 C   0  0  2  0  0  3  0  0  0  0  0  0
  187.5040  177.7050  142.8670 C   0  0  1  0  0  3  0  0  0  0  0  0
  184.5970  178.3080  142.3270 C   0  0  0  0  0  2  0  0  0  0  0  0
  187.9550  178.5010  140.4190 C   0  0  0  0  0  2  0  0  0  0  0  0
  185.7160  178.7580  145.9660 C   0  0  0  0  0  0  0  0  0  0  0  0
  186.7570  176.6530  145.0720 C   0  0  0  0  0  2  0  0  0  0  0  0
  185.6030  178.0980  141.1900 C   0  0  0  0  0  2  0  0  0  0  0  0
  186.4330  179.7490  148.0060 C   0  0  0  0  0  3  0  0  0  0  0  0
  184.8290  178.7700  144.7870 C   0  0  0  0  0  0  0  0  0  0  0  0
  185.5990  179.7110  146.9330 N   0  0  0  0  0  0  0  0  0  0  0  0
  190.1970  178.1150  139.6840 O   0  0  0  0  0  1  0  0  0  0  0  0
  189.4270  176.8880  141.5520 C   0  0  0  0  0  3  0  0  0  0  0  0
  185.1730  177.9710  143.6360 N   0  0  0  0  0  0  0  0  0  0  0  0
  187.4420  178.7970  148.1420 C   0  0  0  0  0  3  0  0  0  0  0  0
  186.7180  177.7800  146.0640 C   0  0  0  0  0  0  0  0  0  0  0  0
  188.6850  176.8000  147.3220 C   0  0  0  0  0  2  0  0  0  0  0  0
  189.9570  177.3240  146.6790 C   0  0  1  0  0  3  0  0  0  0  0  0
  191.1280  176.4590  147.0850 C   0  0  0  0  0  2  0  0  0  0  0  0
  190.4930  176.2790  145.7180 C   0  0  2  0  0  3  0  0  0  0  0  0
  191.3020  176.9240  144.6940 N   0  0  0  0  0  0  0  0  0  0  0  0
  191.8130  178.9140  143.5220 N   0  0  0  0  0  2  0  0  0  0  0  0
  192.0000  176.1650  143.8140 O   0  0  0  0  0  1  0  0  0  0  0  0
  191.1830  178.3320  144.4870 C   0  0  0  0  0  3  0  0  0  0  0  0
  1 21  1  0  0  0  0
  1 19  1  0  0  0  0
  3 14  2  0  0  0  0
  4  9  1  6  0  0  0
  4  7  1  0  0  0  0
  5 11  1  1  0  0  0
  6 16  1  6  0  0  0
  6 17  1  0  0  0  0
  7  2  1  6  0  0  0
  7  5  1  0  0  0  0
  8 18  1  0  0  0  0
  9  6  1  0  0  0  0
 10 20  1  0  0  0  0
 10 15  2  0  0  0  0
 11 20  1  0  0  0  0
 12  4  1  0  0  0  0
 12  8  1  0  0  0  0
 13 19  2  0  0  0  0
 14 10  1  0  0  0  0
 15 13  1  0  0  0  0
 17  2  2  0  0  0  0
 18  5  1  0  0  0  0
 18 14  1  0  0  0  0
 20  1  2  0  0  0  0
 22 23  1  0  0  0  0
 22 21  1  1  0  0  0
 24 25  1  6  0  0  0
 24 22  1  0  0  0  0
 24 23  1  0  0  0  0
 26 28  2  0  0  0  0
 27 25  1  0  0  0  0
 28 25  1  0  0  0  0
M  END
>  <MODEL>
5

>  <REMARK>
 VINA RESULT:      -7.6      2.546      6.005
  Name = 
  3 active torsions:
  status: ('A' for Active; 'I' for Inactive)
    1  A    between atoms: C_1  and  C_2
    2  A    between atoms: C_2  and  C_3
    3  A    between atoms: N_6  and  C_11
                            x       y       z     vdW  Elec       q    Type
                         _______ _______ _______ _____ _____    ______ ____

>  <TORSDO>
F 3

$$$$
=
 OpenBabel11052413333D

 28 32  0  0  1  0  0  0  0  0999 V2000
  184.2120  178.0730  138.9100 C   0  0  0  0  0  0  0  0  0  0  0  0
  187.9970  178.2850  142.0070 C   0  0  0  0  0  3  0  0  0  0  0  0
  182.1090  178.5650  143.2500 C   0  0  0  0  0  2  0  0  0  0  0  0
  186.5650  177.5040  143.9790 C   0  0  1  0  0  3  0  0  0  0  0  0
  185.6710  179.1680  142.2350 C   0  0  1  0  0  3  0  0  0  0  0  0
  188.7940  176.4310  143.3890 C   0  0  2  0  0  3  0  0  0  0  0  0
  186.6030  177.9770  142.4900 C   0  0  1  0  0  3  0  0  0  0  0  0
  184.6410  179.0300  144.5270 C   0  0  0  0  0  2  0  0  0  0  0  0
  187.8930  176.9400  144.5120 C   0  0  0  0  0  2  0  0  0  0  0  0
  183.1570  178.2310  141.0830 C   0  0  0  0  0  0  0  0  0  0  0  0
  185.3680  179.3780  140.7460 C   0  0  0  0  0  2  0  0  0  0  0  0
  186.0580  178.6000  144.9200 C   0  0  0  0  0  2  0  0  0  0  0  0
  182.0340  177.1150  139.3080 C   0  0  0  0  0  3  0  0  0  0  0  0
  183.2060  178.6440  142.4990 C   0  0  0  0  0  0  0  0  0  0  0  0
  182.0840  177.5470  140.5960 N   0  0  0  0  0  0  0  0  0  0  0  0
  190.0100  176.0020  143.9180 O   0  0  0  0  0  1  0  0  0  0  0  0
  189.0310  177.5450  142.4170 C   0  0  0  0  0  3  0  0  0  0  0  0
  184.4630  179.0660  143.0690 N   0  0  0  0  0  0  0  0  0  0  0  0
  183.0990  177.3680  138.4440 C   0  0  0  0  0  3  0  0  0  0  0  0
  184.2510  178.5070  140.2480 C   0  0  0  0  0  0  0  0  0  0  0  0
  185.3530  178.3190  137.9760 C   0  0  0  0  0  2  0  0  0  0  0  0
  186.2110  177.0710  137.8650 C   0  0  1  0  0  3  0  0  0  0  0  0
  186.6100  176.8520  136.4230 C   0  0  0  0  0  2  0  0  0  0  0  0
  187.6000  177.4660  137.3960 C   0  0  2  0  0  3  0  0  0  0  0  0
  188.5670  176.4680  137.8330 N   0  0  0  0  0  0  0  0  0  0  0  0
  190.5150  176.0030  139.0920 N   0  0  0  0  0  2  0  0  0  0  0  0
  188.6210  175.2670  137.2090 O   0  0  0  0  0  1  0  0  0  0  0  0
  189.5870  176.8380  138.7630 C   0  0  0  0  0  3  0  0  0  0  0  0
  1 20  1  0  0  0  0
  2 17  2  0  0  0  0
  4  9  1  1  0  0  0
  4 12  1  0  0  0  0
  5 11  1  6  0  0  0
  5  7  1  0  0  0  0
  5 18  1  0  0  0  0
  6 16  1  1  0  0  0
  6  9  1  0  0  0  0
  7  2  1  1  0  0  0
  7  4  1  0  0  0  0
  8 12  1  0  0  0  0
 10 14  1  0  0  0  0
 13 15  2  0  0  0  0
 14 18  1  0  0  0  0
 14  3  2  0  0  0  0
 15 10  1  0  0  0  0
 17  6  1  0  0  0  0
 18  8  1  0  0  0  0
 19  1  2  0  0  0  0
 19 13  1  0  0  0  0
 20 11  1  0  0  0  0
 20 10  2  0  0  0  0
 21  1  1  0  0  0  0
 22 21  1  6  0  0  0
 23 24  1  0  0  0  0
 23 22  1  0  0  0  0
 24 25  1  1  0  0  0
 24 22  1  0  0  0  0
 25 28  1  0  0  0  0
 27 25  1  0  0  0  0
 28 26  2  0  0  0  0
M  END
>  <MODEL>
6

>  <REMARK>
 VINA RESULT:      -7.4      2.910      5.866
  Name = 
  3 active torsions:
  status: ('A' for Active; 'I' for Inactive)
    1  A    between atoms: C_1  and  C_2
    2  A    between atoms: C_2  and  C_3
    3  A    between atoms: N_6  and  C_11
                            x       y       z     vdW  Elec       q    Type
                         _______ _______ _______ _____ _____    ______ ____

>  <TORSDO>
F 3

$$$$
=
 OpenBabel11052413333D

 28 32  0  0  1  0  0  0  0  0999 V2000
  186.9210  177.8940  142.7410 C   0  0  0  0  0  0  0  0  0  0  0  0
  187.9400  177.3480  137.9840 C   0  0  0  0  0  3  0  0  0  0  0  0
  191.6740  176.9440  142.6940 C   0  0  0  0  0  2  0  0  0  0  0  0
  190.0160  175.9370  138.4810 C   0  0  1  0  0  3  0  0  0  0  0  0
  189.4180  178.0030  139.8890 C   0  0  1  0  0  3  0  0  0  0  0  0
  188.2190  175.2050  136.8380 C   0  0  2  0  0  3  0  0  0  0  0  0
  188.8750  176.8390  139.0520 C   0  0  1  0  0  3  0  0  0  0  0  0
  191.7770  177.1270  139.8280 C   0  0  0  0  0  2  0  0  0  0  0  0
  189.7180  175.3050  137.1110 C   0  0  0  0  0  2  0  0  0  0  0  0
  189.2760  177.3340  142.7270 C   0  0  0  0  0  0  0  0  0  0  0  0
  188.3500  178.6380  140.7880 C   0  0  0  0  0  2  0  0  0  0  0  0
  191.3580  176.6700  138.4270 C   0  0  0  0  0  2  0  0  0  0  0  0
  187.9390  176.7520  144.6060 C   0  0  0  0  0  3  0  0  0  0  0  0
  190.5770  177.3020  142.0300 C   0  0  0  0  0  0  0  0  0  0  0  0
  189.1360  176.7760  143.9620 N   0  0  0  0  0  0  0  0  0  0  0  0
  188.0050  174.6980  135.5580 O   0  0  0  0  0  1  0  0  0  0  0  0
  187.6150  176.5710  136.9470 C   0  0  0  0  0  3  0  0  0  0  0  0
  190.6290  177.5930  140.6190 N   0  0  0  0  0  0  0  0  0  0  0  0
  186.8100  177.3070  144.0050 C   0  0  0  0  0  3  0  0  0  0  0  0
  188.1660  177.9040  142.0860 C   0  0  0  0  0  0  0  0  0  0  0  0
  185.6970  178.4670  142.1030 C   0  0  0  0  0  2  0  0  0  0  0  0
  184.4940  178.2610  143.0060 C   0  0  1  0  0  3  0  0  0  0  0  0
  184.2940  179.4810  143.8760 C   0  0  0  0  0  2  0  0  0  0  0  0
  183.4250  179.2780  142.6480 C   0  0  2  0  0  3  0  0  0  0  0  0
  182.1160  178.7680  143.0300 N   0  0  0  0  0  0  0  0  0  0  0  0
  179.9000  178.2730  142.3640 N   0  0  0  0  0  2  0  0  0  0  0  0
  181.8070  178.6280  144.3430 O   0  0  0  0  0  1  0  0  0  0  0  0
  181.0980  178.6280  142.0370 C   0  0  0  0  0  3  0  0  0  0  0  0
  1 19  1  0  0  0  0
  4  9  1  6  0  0  0
  4  7  1  0  0  0  0
  5 18  1  0  0  0  0
  5 11  1  1  0  0  0
  6 16  1  6  0  0  0
  6 17  1  0  0  0  0
  6  9  1  0  0  0  0
  7  2  1  6  0  0  0
  7  5  1  0  0  0  0
  8 18  1  0  0  0  0
 10 15  2  0  0  0  0
 11 20  1  0  0  0  0
 12  4  1  0  0  0  0
 12  8  1  0  0  0  0
 14  3  2  0  0  0  0
 14 10  1  0  0  0  0
 15 13  1  0  0  0  0
 17  2  2  0  0  0  0
 18 14  1  0  0  0  0
 19 13  2  0  0  0  0
 20 10  1  0  0  0  0
 20  1  2  0  0  0  0
 21  1  1  0  0  0  0
 22 21  1  6  0  0  0
 22 23  1  0  0  0  0
 24 22  1  0  0  0  0
 24 25  1  1  0  0  0
 24 23  1  0  0  0  0
 25 27  1  0  0  0  0
 28 26  2  0  0  0  0
 28 25  1  0  0  0  0
M  END
>  <MODEL>
7

>  <REMARK>
 VINA RESULT:      -7.3      2.545      6.530
  Name = 
  3 active torsions:
  status: ('A' for Active; 'I' for Inactive)
    1  A    between atoms: C_1  and  C_2
    2  A    between atoms: C_2  and  C_3
    3  A    between atoms: N_6  and  C_11
                            x       y       z     vdW  Elec       q    Type
                         _______ _______ _______ _____ _____    ______ ____

>  <TORSDO>
F 3

$$$$
=
 OpenBabel11052413333D

 28 32  0  0  1  0  0  0  0  0999 V2000
  186.5820  178.2420  142.9010 C   0  0  0  0  0  0  0  0  0  0  0  0
  187.4550  177.8990  138.0970 C   0  0  0  0  0  3  0  0  0  0  0  0
  191.1920  176.7600  142.6820 C   0  0  0  0  0  2  0  0  0  0  0  0
  189.3620  176.2300  138.4540 C   0  0  1  0  0  3  0  0  0  0  0  0
  189.0300  178.2530  140.0030 C   0  0  1  0  0  3  0  0  0  0  0  0
  187.4660  175.8180  136.8100 C   0  0  2  0  0  3  0  0  0  0  0  0
  188.3420  177.2170  139.1070 C   0  0  1  0  0  3  0  0  0  0  0  0
  191.2700  177.1190  139.8320 C   0  0  0  0  0  2  0  0  0  0  0  0
  188.9700  175.7280  137.0530 C   0  0  0  0  0  2  0  0  0  0  0  0
  188.8560  177.4180  142.7960 C   0  0  0  0  0  0  0  0  0  0  0  0
  188.0570  178.9450  140.9670 C   0  0  0  0  0  2  0  0  0  0  0  0
  190.7790  176.8060  138.4150 C   0  0  0  0  0  2  0  0  0  0  0  0
  187.4900  176.8710  144.6650 C   0  0  0  0  0  3  0  0  0  0  0  0
  190.1330  177.2840  142.0680 C   0  0  0  0  0  0  0  0  0  0  0  0
  188.6720  176.8010  143.9960 N   0  0  0  0  0  0  0  0  0  0  0  0
  187.1740  175.4240  135.5050 O   0  0  0  0  0  1  0  0  0  0  0  0
  187.0260  177.2340  137.0190 C   0  0  0  0  0  3  0  0  0  0  0  0
  190.1960  177.6600  140.6770 N   0  0  0  0  0  0  0  0  0  0  0  0
  186.4240  177.5900  144.1270 C   0  0  0  0  0  3  0  0  0  0  0  0
  187.8090  178.1530  142.2180 C   0  0  0  0  0  0  0  0  0  0  0  0
  185.4220  178.9930  142.3290 C   0  0  0  0  0  2  0  0  0  0  0  0
  184.3490  178.0210  141.8720 C   0  0  1  0  0  3  0  0  0  0  0  0
  182.9820  178.6280  142.0940 C   0  0  0  0  0  2  0  0  0  0  0  0
  183.5940  178.6300  140.7040 C   0  0  2  0  0  3  0  0  0  0  0  0
  183.0110  177.5720  139.8910 N   0  0  0  0  0  0  0  0  0  0  0  0
  183.0790  176.3530  137.8650 N   0  0  0  0  0  2  0  0  0  0  0  0
  181.7890  177.0790  140.2070 O   0  0  0  0  0  1  0  0  0  0  0  0
  183.6280  177.2170  138.6520 C   0  0  0  0  0  3  0  0  0  0  0  0
  1 19  1  0  0  0  0
  4  9  1  6  0  0  0
  4  7  1  0  0  0  0
  5 18  1  0  0  0  0
  5 11  1  1  0  0  0
  6 16  1  6  0  0  0
  6 17  1  0  0  0  0
  6  9  1  0  0  0  0
  7  2  1  6  0  0  0
  7  5  1  0  0  0  0
  8 18  1  0  0  0  0
 10 15  2  0  0  0  0
 11 20  1  0  0  0  0
 12  4  1  0  0  0  0
 12  8  1  0  0  0  0
 14  3  2  0  0  0  0
 14 10  1  0  0  0  0
 15 13  1  0  0  0  0
 17  2  2  0  0  0  0
 18 14  1  0  0  0  0
 19 13  2  0  0  0  0
 20 10  1  0  0  0  0
 20  1  2  0  0  0  0
 21  1  1  0  0  0  0
 22 23  1  0  0  0  0
 22 21  1  1  0  0  0
 24 25  1  6  0  0  0
 24 22  1  0  0  0  0
 24 23  1  0  0  0  0
 25 27  1  0  0  0  0
 26 28  2  0  0  0  0
 28 25  1  0  0  0  0
M  END
>  <MODEL>
8

>  <REMARK>
 VINA RESULT:      -7.3      2.298      6.041
  Name = 
  3 active torsions:
  status: ('A' for Active; 'I' for Inactive)
    1  A    between atoms: C_1  and  C_2
    2  A    between atoms: C_2  and  C_3
    3  A    between atoms: N_6  and  C_11
                            x       y       z     vdW  Elec       q    Type
                         _______ _______ _______ _____ _____    ______ ____

>  <TORSDO>
F 3

$$$$
=
 OpenBabel11052413333D

 28 32  0  0  1  0  0  0  0  0999 V2000
  187.7500  177.8480  142.2010 C   0  0  0  0  0  0  0  0  0  0  0  0
  187.5090  176.4980  137.5010 C   0  0  0  0  0  3  0  0  0  0  0  0
  192.3950  177.2810  140.9360 C   0  0  0  0  0  2  0  0  0  0  0  0
  189.8060  175.3720  137.5960 C   0  0  1  0  0  3  0  0  0  0  0  0
  189.3500  177.6130  138.7690 C   0  0  1  0  0  3  0  0  0  0  0  0
  187.7410  174.2050  136.6790 C   0  0  2  0  0  3  0  0  0  0  0  0
  188.7550  176.2740  138.3200 C   0  0  1  0  0  3  0  0  0  0  0  0
  191.6970  176.9290  138.1720 C   0  0  0  0  0  2  0  0  0  0  0  0
  189.2320  174.4720  136.4880 C   0  0  0  0  0  2  0  0  0  0  0  0
  190.0660  177.4810  141.5970 C   0  0  0  0  0  0  0  0  0  0  0  0
  188.4920  178.3200  139.8260 C   0  0  0  0  0  2  0  0  0  0  0  0
  190.9780  176.1850  137.0410 C   0  0  0  0  0  2  0  0  0  0  0  0
  189.3710  177.1610  143.8500 C   0  0  0  0  0  3  0  0  0  0  0  0
  191.1230  177.4200  140.5690 C   0  0  0  0  0  0  0  0  0  0  0  0
  190.3360  177.1570  142.8930 N   0  0  0  0  0  0  0  0  0  0  0  0
  187.2560  173.4510  135.6110 O   0  0  0  0  0  1  0  0  0  0  0  0
  187.0180  175.5160  136.7380 C   0  0  0  0  0  3  0  0  0  0  0  0
  190.7550  177.4440  139.1750 N   0  0  0  0  0  0  0  0  0  0  0  0
  188.0600  177.5030  143.5190 C   0  0  0  0  0  3  0  0  0  0  0  0
  188.7600  177.8320  141.2210 C   0  0  0  0  0  0  0  0  0  0  0  0
  186.3360  178.1920  141.8590 C   0  0  0  0  0  2  0  0  0  0  0  0
  185.7380  179.0690  142.9460 C   0  0  1  0  0  3  0  0  0  0  0  0
  184.2550  179.2400  142.7050 C   0  0  0  0  0  2  0  0  0  0  0  0
  184.7430  178.2520  143.7500 C   0  0  2  0  0  3  0  0  0  0  0  0
  184.6090  178.8170  145.0850 N   0  0  0  0  0  0  0  0  0  0  0  0
  185.5070  179.0040  147.2660 N   0  0  0  0  0  2  0  0  0  0  0  0
  183.4290  179.3630  145.4680 O   0  0  0  0  0  1  0  0  0  0  0  0
  185.6430  178.6000  146.0470 C   0  0  0  0  0  3  0  0  0  0  0  0
  1 19  1  0  0  0  0
  4  9  1  6  0  0  0
  4  7  1  0  0  0  0
  5 18  1  0  0  0  0
  5 11  1  1  0  0  0
  6 16  1  6  0  0  0
  6 17  1  0  0  0  0
  7  2  1  6  0  0  0
  7  5  1  0  0  0  0
  8 18  1  0  0  0  0
  9  6  1  0  0  0  0
 10 15  2  0  0  0  0
 11 20  1  0  0  0  0
 12  4  1  0  0  0  0
 12  8  1  0  0  0  0
 14  3  2  0  0  0  0
 14 10  1  0  0  0  0
 15 13  1  0  0  0  0
 17  2  2  0  0  0  0
 18 14  1  0  0  0  0
 19 13  2  0  0  0  0
 20 10  1  0  0  0  0
 20  1  2  0  0  0  0
 21  1  1  0  0  0  0
 22 21  1  6  0  0  0
 22 24  1  0  0  0  0
 23 22  1  0  0  0  0
 23 24  1  0  0  0  0
 24 25  1  1  0  0  0
 25 27  1  0  0  0  0
 25 28  1  0  0  0  0
 28 26  2  0  0  0  0
M  END
>  <MODEL>
9

>  <REMARK>
 VINA RESULT:      -7.2      2.566      6.986
  Name = 
  3 active torsions:
  status: ('A' for Active; 'I' for Inactive)
    1  A    between atoms: C_1  and  C_2
    2  A    between atoms: C_2  and  C_3
    3  A    between atoms: N_6  and  C_11
                            x       y       z     vdW  Elec       q    Type
                         _______ _______ _______ _____ _____    ______ ____

>  <TORSDO>
F 3

$$$$
