=
 OpenBabel11052416053D

 43 48  0  0  1  0  0  0  0  0999 V2000
  191.0970  176.5820  146.5340 C   0  0  0  0  0  0  0  0  0  0  0  0
  189.4620  177.9060  141.9800 C   0  0  0  0  0  0  0  0  0  0  0  0
  186.6950  178.3590  142.1460 C   0  0  0  0  0  0  0  0  0  0  0  0
  190.9290  177.1450  144.2300 C   0  0  0  0  0  0  0  0  0  0  0  0
  189.7230  176.7790  146.7060 C   0  0  0  0  0  3  0  0  0  0  0  0
  191.9380  176.1670  147.6900 C   0  0  0  0  0  1  0  0  0  0  0  0
  189.5390  177.3620  144.3530 C   0  0  0  0  0  0  0  0  0  0  0  0
  191.6670  176.7680  145.3120 N   0  0  0  0  0  0  0  0  0  0  0  0
  188.9430  177.1710  145.6120 C   0  0  0  0  0  3  0  0  0  0  0  0
  187.4110  177.9800  143.2900 C   0  0  0  0  0  3  0  0  0  0  0  0
  188.7940  177.7520  143.2190 C   0  0  0  0  0  0  0  0  0  0  0  0
  190.8060  177.6870  141.9040 N   0  0  0  0  0  0  0  0  0  0  0  0
  188.7430  178.2750  140.8290 C   0  0  0  0  0  0  0  0  0  0  0  0
  187.3600  178.4960  140.9270 C   0  0  0  0  0  3  0  0  0  0  0  0
  191.5410  177.3170  142.9890 C   0  0  0  0  0  3  0  0  0  0  0  0
  185.2200  178.6000  142.1960 C   0  0  1  0  0  3  0  0  0  0  0  0
  184.8470  179.4090  143.4310 C   0  0  0  0  0  1  0  0  0  0  0  0
  184.7710  179.2770  140.9870 N   0  0  0  0  0  2  0  0  0  0  0  0
  183.5020  179.0010  140.3860 C   0  0  0  0  0  0  0  0  0  0  0  0
  182.7270  178.1440  140.8900 O   0  0  0  0  0  0  0  0  0  0  0  0
  183.1030  179.7070  139.1350 C   0  0  0  0  0  2  0  0  0  0  0  0
  181.7240  179.2500  138.6770 C   0  0  2  0  0  3  0  0  0  0  0  0
  180.8620  180.0560  136.5620 C   0  0  0  0  0  2  0  0  0  0  0  0
  180.0980  182.6500  137.9970 N   0  0  0  0  0  0  0  0  0  0  0  0
  180.4000  181.4070  138.6620 C   0  0  0  0  0  0  0  0  0  0  0  0
  181.8560  178.1250  137.6690 C   0  0  0  0  0  2  0  0  0  0  0  0
  181.0610  180.3330  137.9710 N   0  0  0  0  0  0  0  0  0  0  0  0
  179.4570  184.9560  138.1640 N   0  0  0  0  0  2  0  0  0  0  0  0
  179.9930  183.9540  135.9300 C   0  0  0  0  0  2  0  0  0  0  0  0
  179.2480  185.0510  136.7120 C   0  0  0  0  0  2  0  0  0  0  0  0
  180.8610  183.0730  136.8280 C   0  0  0  0  0  2  0  0  0  0  0  0
  179.1660  183.5970  138.6200 C   0  0  0  0  0  2  0  0  0  0  0  0
  180.0820  181.2600  139.8760 O   0  0  0  0  0  0  0  0  0  0  0  0
  181.5430  178.7240  136.3010 C   0  0  0  0  0  2  0  0  0  0  0  0
  189.4310  178.3770  139.6080 O   0  0  0  0  0  0  0  0  0  0  0  0
  188.4540  177.8720  136.0350 C   0  0  0  0  0  3  0  0  0  0  0  0
  188.4490  176.4760  135.9740 C   0  0  0  0  0  0  0  0  0  0  0  0
  189.0880  176.3770  138.3080 C   0  0  0  0  0  3  0  0  0  0  0  0
  188.7750  178.5200  137.2330 C   0  0  0  0  0  3  0  0  0  0  0  0
  189.0910  177.7750  138.3820 C   0  0  0  0  0  0  0  0  0  0  0  0
  188.7620  175.7300  137.1140 C   0  0  0  0  0  3  0  0  0  0  0  0
  186.6380  175.6900  134.5940 N   0  0  0  0  0  1  0  0  0  0  0  0
  188.0840  175.7820  134.7050 C   0  0  0  0  0  2  0  0  0  0  0  0
  1  5  1  0  0  0  0
  1  6  1  0  0  0  0
  2 11  1  0  0  0  0
  3 16  1  0  0  0  0
  3 10  1  0  0  0  0
  4  7  2  0  0  0  0
  4  8  1  0  0  0  0
  7  9  1  0  0  0  0
  8  1  2  0  0  0  0
  9  5  2  0  0  0  0
 11 10  2  0  0  0  0
 11  7  1  0  0  0  0
 12  2  1  0  0  0  0
 12 15  2  0  0  0  0
 13 14  1  0  0  0  0
 13  2  2  0  0  0  0
 14  3  2  0  0  0  0
 15  4  1  0  0  0  0
 16 17  1  1  0  0  0
 18 16  1  0  0  0  0
 19 20  2  0  0  0  0
 19 18  1  0  0  0  0
 21 19  1  0  0  0  0
 22 21  1  6  0  0  0
 23 27  1  0  0  0  0
 24 32  1  0  0  0  0
 24 25  1  0  0  0  0
 25 33  2  0  0  0  0
 26 22  1  0  0  0  0
 27 25  1  0  0  0  0
 27 22  1  0  0  0  0
 28 32  1  0  0  0  0
 29 30  1  0  0  0  0
 29 31  1  0  0  0  0
 30 28  1  0  0  0  0
 31 24  1  0  0  0  0
 34 23  1  0  0  0  0
 34 26  1  0  0  0  0
 35 13  1  0  0  0  0
 36 39  1  0  0  0  0
 37 36  2  0  0  0  0
 37 41  1  0  0  0  0
 38 40  1  0  0  0  0
 39 40  2  0  0  0  0
 40 35  1  0  0  0  0
 41 38  2  0  0  0  0
 42 43  1  0  0  0  0
 43 37  1  0  0  0  0
M  END
>  <MODEL>
1

>  <REMARK>
 VINA RESULT:     -10.0      0.000      0.000
  Name = 
  7 active torsions:
  status: ('A' for Active; 'I' for Inactive)
    1  A    between atoms: O_1  and  C_34
    2  A    between atoms: O_1  and  C_35
    3  A    between atoms: C_2  and  N_6
    4  A    between atoms: C_2  and  C_13
    5  A    between atoms: C_3  and  C_4
    6  A    between atoms: C_3  and  C_12
    7  A    between atoms: C_19  and  C_37
                            x       y       z     vdW  Elec       q    Type
                         _______ _______ _______ _____ _____    ______ ____

>  <TORSDO>
F 7

$$$$
=
 OpenBabel11052416053D

 43 48  0  0  1  0  0  0  0  0999 V2000
  190.7330  176.7490  146.3910 C   0  0  0  0  0  0  0  0  0  0  0  0
  188.2920  178.1080  142.2250 C   0  0  0  0  0  0  0  0  0  0  0  0
  185.5660  178.3560  142.8540 C   0  0  0  0  0  0  0  0  0  0  0  0
  190.1540  177.3780  144.1730 C   0  0  0  0  0  0  0  0  0  0  0  0
  189.3960  176.8420  146.7910 C   0  0  0  0  0  3  0  0  0  0  0  0
  191.7780  176.3560  147.3770 C   0  0  0  0  0  1  0  0  0  0  0  0
  188.7920  177.4900  144.5270 C   0  0  0  0  0  0  0  0  0  0  0  0
  191.0820  177.0170  145.1030 N   0  0  0  0  0  0  0  0  0  0  0  0
  188.4240  177.2140  145.8550 C   0  0  0  0  0  3  0  0  0  0  0  0
  186.4830  177.9900  143.8490 C   0  0  0  0  0  3  0  0  0  0  0  0
  187.8480  177.8650  143.5470 C   0  0  0  0  0  0  0  0  0  0  0  0
  189.6170  177.9890  141.9240 N   0  0  0  0  0  0  0  0  0  0  0  0
  187.3730  178.4640  141.2230 C   0  0  0  0  0  0  0  0  0  0  0  0
  186.0130  178.5820  141.5510 C   0  0  0  0  0  3  0  0  0  0  0  0
  190.5430  177.6350  142.8590 C   0  0  0  0  0  3  0  0  0  0  0  0
  184.1080  178.4880  143.1510 C   0  0  1  0  0  3  0  0  0  0  0  0
  183.8600  179.6120  144.1490 C   0  0  0  0  0  1  0  0  0  0  0  0
  183.3540  178.7180  141.9260 N   0  0  0  0  0  2  0  0  0  0  0  0
  181.9240  178.7400  141.9030 C   0  0  0  0  0  0  0  0  0  0  0  0
  181.2630  178.5520  142.9600 O   0  0  0  0  0  0  0  0  0  0  0  0
  181.2050  178.9580  140.6150 C   0  0  0  0  0  2  0  0  0  0  0  0
  182.1930  179.2160  139.4850 C   0  0  2  0  0  3  0  0  0  0  0  0
  181.4680  178.9050  137.1960 C   0  0  0  0  0  2  0  0  0  0  0  0
  181.9060  175.9010  137.5900 N   0  0  0  0  0  0  0  0  0  0  0  0
  182.4560  176.9250  138.4420 C   0  0  0  0  0  0  0  0  0  0  0  0
  181.9560  180.5900  138.8880 C   0  0  0  0  0  2  0  0  0  0  0  0
  181.9570  178.2740  138.4060 N   0  0  0  0  0  0  0  0  0  0  0  0
  181.6830  173.5670  137.0790 N   0  0  0  0  0  2  0  0  0  0  0  0
  180.4440  175.2780  135.7300 C   0  0  0  0  0  2  0  0  0  0  0  0
  181.0490  173.8630  135.7870 C   0  0  0  0  0  2  0  0  0  0  0  0
  180.5520  176.0210  137.0620 C   0  0  0  0  0  2  0  0  0  0  0  0
  182.6250  174.6310  137.4260 C   0  0  0  0  0  2  0  0  0  0  0  0
  183.3930  176.6330  139.2390 O   0  0  0  0  0  0  0  0  0  0  0  0
  181.2700  180.3700  137.5440 C   0  0  0  0  0  2  0  0  0  0  0  0
  187.8440  178.6560  139.9120 O   0  0  0  0  0  0  0  0  0  0  0  0
  188.0040  176.0790  137.2070 C   0  0  0  0  0  3  0  0  0  0  0  0
  186.8410  176.3910  136.4990 C   0  0  0  0  0  0  0  0  0  0  0  0
  186.3780  178.1860  138.0580 C   0  0  0  0  0  3  0  0  0  0  0  0
  188.3540  176.8210  138.3420 C   0  0  0  0  0  3  0  0  0  0  0  0
  187.5440  177.8850  138.7740 C   0  0  0  0  0  0  0  0  0  0  0  0
  186.0320  177.4490  136.9240 C   0  0  0  0  0  3  0  0  0  0  0  0
  185.1600  176.0220  134.8130 N   0  0  0  0  0  1  0  0  0  0  0  0
  186.4770  175.6170  135.2770 C   0  0  0  0  0  2  0  0  0  0  0  0
  1  5  1  0  0  0  0
  1  6  1  0  0  0  0
  2 11  1  0  0  0  0
  3 16  1  0  0  0  0
  3 10  1  0  0  0  0
  4  7  2  0  0  0  0
  4  8  1  0  0  0  0
  7  9  1  0  0  0  0
  8  1  2  0  0  0  0
  9  5  2  0  0  0  0
 11 10  2  0  0  0  0
 11  7  1  0  0  0  0
 12  2  1  0  0  0  0
 12 15  2  0  0  0  0
 13 14  1  0  0  0  0
 13  2  2  0  0  0  0
 14  3  2  0  0  0  0
 15  4  1  0  0  0  0
 16 17  1  1  0  0  0
 18 16  1  0  0  0  0
 19 18  1  0  0  0  0
 19 20  2  0  0  0  0
 21 19  1  0  0  0  0
 22 21  1  1  0  0  0
 23 34  1  0  0  0  0
 23 27  1  0  0  0  0
 24 25  1  0  0  0  0
 25 33  2  0  0  0  0
 26 22  1  0  0  0  0
 27 25  1  0  0  0  0
 27 22  1  0  0  0  0
 28 32  1  0  0  0  0
 29 30  1  0  0  0  0
 29 31  1  0  0  0  0
 30 28  1  0  0  0  0
 31 24  1  0  0  0  0
 32 24  1  0  0  0  0
 34 26  1  0  0  0  0
 35 13  1  0  0  0  0
 36 39  1  0  0  0  0
 37 41  1  0  0  0  0
 37 36  2  0  0  0  0
 38 40  1  0  0  0  0
 39 40  2  0  0  0  0
 40 35  1  0  0  0  0
 41 38  2  0  0  0  0
 42 43  1  0  0  0  0
 43 37  1  0  0  0  0
M  END
>  <MODEL>
2

>  <REMARK>
 VINA RESULT:      -9.8      2.257      4.016
  Name = 
  7 active torsions:
  status: ('A' for Active; 'I' for Inactive)
    1  A    between atoms: O_1  and  C_34
    2  A    between atoms: O_1  and  C_35
    3  A    between atoms: C_2  and  N_6
    4  A    between atoms: C_2  and  C_13
    5  A    between atoms: C_3  and  C_4
    6  A    between atoms: C_3  and  C_12
    7  A    between atoms: C_19  and  C_37
                            x       y       z     vdW  Elec       q    Type
                         _______ _______ _______ _____ _____    ______ ____

>  <TORSDO>
F 7

$$$$
=
 OpenBabel11052416053D

 43 48  0  0  1  0  0  0  0  0999 V2000
  191.2450  176.4280  146.6540 C   0  0  0  0  0  0  0  0  0  0  0  0
  187.2040  177.9700  144.1110 C   0  0  0  0  0  0  0  0  0  0  0  0
  187.9130  178.1940  141.4030 C   0  0  0  0  0  0  0  0  0  0  0  0
  189.0660  177.1340  146.0170 C   0  0  0  0  0  0  0  0  0  0  0  0
  191.6860  176.5180  145.3290 C   0  0  0  0  0  3  0  0  0  0  0  0
  192.1870  175.9970  147.7220 C   0  0  0  0  0  1  0  0  0  0  0  0
  189.4600  177.2360  144.6650 C   0  0  0  0  0  0  0  0  0  0  0  0
  189.9560  176.7340  146.9680 N   0  0  0  0  0  0  0  0  0  0  0  0
  190.7900  176.9230  144.3330 C   0  0  0  0  0  3  0  0  0  0  0  0
  188.8640  177.7700  142.3410 C   0  0  0  0  0  3  0  0  0  0  0  0
  188.5210  177.6530  143.6970 C   0  0  0  0  0  0  0  0  0  0  0  0
  186.8640  177.8580  145.4270 N   0  0  0  0  0  0  0  0  0  0  0  0
  186.2530  178.4070  143.1730 C   0  0  0  0  0  0  0  0  0  0  0  0
  186.6220  178.5160  141.8230 C   0  0  0  0  0  3  0  0  0  0  0  0
  187.7550  177.4510  146.3730 C   0  0  0  0  0  3  0  0  0  0  0  0
  188.2580  178.3330  139.9550 C   0  0  1  0  0  3  0  0  0  0  0  0
  189.6130  177.7020  139.6600 C   0  0  0  0  0  1  0  0  0  0  0  0
  187.2230  177.7350  139.1220 N   0  0  0  0  0  2  0  0  0  0  0  0
  186.9260  178.2200  137.8100 C   0  0  0  0  0  0  0  0  0  0  0  0
  187.5570  179.2000  137.3300 O   0  0  0  0  0  0  0  0  0  0  0  0
  185.8400  177.5840  137.0100 C   0  0  0  0  0  2  0  0  0  0  0  0
  185.8740  176.0690  137.1690 C   0  0  2  0  0  3  0  0  0  0  0  0
  184.8640  174.6860  135.4570 C   0  0  0  0  0  2  0  0  0  0  0  0
  182.1520  175.2790  136.7450 N   0  0  0  0  0  0  0  0  0  0  0  0
  183.4240  175.4770  137.3930 C   0  0  0  0  0  0  0  0  0  0  0  0
  186.9950  175.4830  136.3320 C   0  0  0  0  0  2  0  0  0  0  0  0
  184.6490  175.4960  136.6400 N   0  0  0  0  0  0  0  0  0  0  0  0
  179.7580  175.3990  136.8590 N   0  0  0  0  0  2  0  0  0  0  0  0
  180.8860  174.7120  134.7300 C   0  0  0  0  0  2  0  0  0  0  0  0
  179.6140  174.6630  135.5960 C   0  0  0  0  0  2  0  0  0  0  0  0
  181.9780  175.5960  135.3330 C   0  0  0  0  0  2  0  0  0  0  0  0
  180.9680  174.9620  137.5550 C   0  0  0  0  0  2  0  0  0  0  0  0
  183.4640  175.6420  138.6460 O   0  0  0  0  0  0  0  0  0  0  0  0
  186.3390  174.8240  135.1230 C   0  0  0  0  0  2  0  0  0  0  0  0
  184.9680  178.7540  143.6260 O   0  0  0  0  0  0  0  0  0  0  0  0
  182.4680  178.2230  140.8980 C   0  0  0  0  0  3  0  0  0  0  0  0
  181.2900  178.5570  141.5730 C   0  0  0  0  0  0  0  0  0  0  0  0
  182.5730  179.0120  143.5760 C   0  0  0  0  0  3  0  0  0  0  0  0
  183.6980  178.2850  141.5630 C   0  0  0  0  0  3  0  0  0  0  0  0
  183.7600  178.6850  142.9090 C   0  0  0  0  0  0  0  0  0  0  0  0
  181.3460  178.9560  142.9110 C   0  0  0  0  0  3  0  0  0  0  0  0
  179.1060  177.5440  141.4980 N   0  0  0  0  0  1  0  0  0  0  0  0
  179.9810  178.5150  140.8600 C   0  0  0  0  0  2  0  0  0  0  0  0
  1  8  1  0  0  0  0
  1  6  1  0  0  0  0
  2 12  1  0  0  0  0
  3 14  2  0  0  0  0
  3 10  1  0  0  0  0
  4 15  1  0  0  0  0
  4  8  2  0  0  0  0
  5  1  2  0  0  0  0
  7  4  1  0  0  0  0
  9  7  2  0  0  0  0
  9  5  1  0  0  0  0
 10 11  2  0  0  0  0
 11  2  1  0  0  0  0
 11  7  1  0  0  0  0
 12 15  2  0  0  0  0
 13 35  1  0  0  0  0
 13  2  2  0  0  0  0
 14 13  1  0  0  0  0
 16 17  1  1  0  0  0
 16  3  1  0  0  0  0
 18 16  1  0  0  0  0
 19 18  1  0  0  0  0
 20 19  2  0  0  0  0
 21 19  1  0  0  0  0
 22 21  1  6  0  0  0
 23 27  1  0  0  0  0
 24 25  1  0  0  0  0
 24 32  1  0  0  0  0
 25 33  2  0  0  0  0
 26 22  1  0  0  0  0
 27 22  1  0  0  0  0
 27 25  1  0  0  0  0
 28 32  1  0  0  0  0
 29 31  1  0  0  0  0
 29 30  1  0  0  0  0
 30 28  1  0  0  0  0
 31 24  1  0  0  0  0
 34 23  1  0  0  0  0
 34 26  1  0  0  0  0
 36 39  2  0  0  0  0
 36 37  1  0  0  0  0
 37 41  2  0  0  0  0
 39 40  1  0  0  0  0
 40 38  2  0  0  0  0
 40 35  1  0  0  0  0
 41 38  1  0  0  0  0
 43 42  1  0  0  0  0
 43 37  1  0  0  0  0
M  END
>  <MODEL>
3

>  <REMARK>
 VINA RESULT:      -9.5      3.518      6.257
  Name = 
  7 active torsions:
  status: ('A' for Active; 'I' for Inactive)
    1  A    between atoms: O_1  and  C_34
    2  A    between atoms: O_1  and  C_35
    3  A    between atoms: C_2  and  N_6
    4  A    between atoms: C_2  and  C_13
    5  A    between atoms: C_3  and  C_4
    6  A    between atoms: C_3  and  C_12
    7  A    between atoms: C_19  and  C_37
                            x       y       z     vdW  Elec       q    Type
                         _______ _______ _______ _____ _____    ______ ____

>  <TORSDO>
F 7

$$$$
=
 OpenBabel11052416053D

 43 48  0  0  1  0  0  0  0  0999 V2000
  187.9060  177.5870  147.3420 C   0  0  0  0  0  0  0  0  0  0  0  0
  186.5210  178.4590  142.6000 C   0  0  0  0  0  0  0  0  0  0  0  0
  188.6970  177.8510  140.9320 C   0  0  0  0  0  0  0  0  0  0  0  0
  186.7070  178.1530  145.3690 C   0  0  0  0  0  0  0  0  0  0  0  0
  189.0410  177.2680  146.5890 C   0  0  0  0  0  3  0  0  0  0  0  0
  187.9380  177.4550  148.8250 C   0  0  0  0  0  1  0  0  0  0  0  0
  187.8230  177.8390  144.5640 C   0  0  0  0  0  0  0  0  0  0  0  0
  186.7730  178.0180  146.7240 N   0  0  0  0  0  0  0  0  0  0  0  0
  188.9970  177.3940  145.1960 C   0  0  0  0  0  3  0  0  0  0  0  0
  188.8130  177.6880  142.3190 C   0  0  0  0  0  3  0  0  0  0  0  0
  187.7320  177.9870  143.1620 C   0  0  0  0  0  0  0  0  0  0  0  0
  185.4660  178.7510  143.4140 N   0  0  0  0  0  0  0  0  0  0  0  0
  186.4070  178.6350  141.2100 C   0  0  0  0  0  0  0  0  0  0  0  0
  187.5040  178.3300  140.3890 C   0  0  0  0  0  3  0  0  0  0  0  0
  185.5340  178.6080  144.7670 C   0  0  0  0  0  3  0  0  0  0  0  0
  189.8380  177.5470  140.0150 C   0  0  1  0  0  3  0  0  0  0  0  0
  191.0620  177.1020  140.8060 C   0  0  0  0  0  1  0  0  0  0  0  0
  189.4580  176.5270  139.0460 N   0  0  0  0  0  2  0  0  0  0  0  0
  190.1380  176.3710  137.7970 C   0  0  0  0  0  0  0  0  0  0  0  0
  191.0980  177.1280  137.4920 O   0  0  0  0  0  0  0  0  0  0  0  0
  189.6910  175.3250  136.8330 C   0  0  0  0  0  2  0  0  0  0  0  0
  188.7650  175.9240  135.7820 C   0  0  2  0  0  3  0  0  0  0  0  0
  186.4830  176.4550  136.3930 C   0  0  0  0  0  2  0  0  0  0  0  0
  185.8210  173.4880  136.0340 N   0  0  0  0  0  0  0  0  0  0  0  0
  186.9990  174.1310  135.5090 C   0  0  0  0  0  0  0  0  0  0  0  0
  188.6760  177.4270  135.9620 C   0  0  0  0  0  2  0  0  0  0  0  0
  187.4150  175.4250  135.9800 N   0  0  0  0  0  0  0  0  0  0  0  0
  184.5190  171.4870  136.2750 N   0  0  0  0  0  2  0  0  0  0  0  0
  183.8010  173.6030  137.4080 C   0  0  0  0  0  2  0  0  0  0  0  0
  183.3860  172.2360  136.8350 C   0  0  0  0  0  2  0  0  0  0  0  0
  185.3120  173.8330  137.3560 C   0  0  0  0  0  2  0  0  0  0  0  0
  185.2550  172.3290  135.3320 C   0  0  0  0  0  2  0  0  0  0  0  0
  187.6830  173.5460  134.6210 O   0  0  0  0  0  0  0  0  0  0  0  0
  187.3110  177.7130  136.5810 C   0  0  0  0  0  2  0  0  0  0  0  0
  185.2050  179.1460  140.6910 O   0  0  0  0  0  0  0  0  0  0  0  0
  183.2260  177.8760  137.7840 C   0  0  0  0  0  3  0  0  0  0  0  0
  182.3210  177.0420  138.4450 C   0  0  0  0  0  0  0  0  0  0  0  0
  183.3420  177.6230  140.5640 C   0  0  0  0  0  3  0  0  0  0  0  0
  184.1890  178.5840  138.5130 C   0  0  0  0  0  3  0  0  0  0  0  0
  184.2510  178.4650  139.9120 C   0  0  0  0  0  0  0  0  0  0  0  0
  182.3780  176.9210  139.8360 C   0  0  0  0  0  3  0  0  0  0  0  0
  180.6580  175.3010  138.5230 N   0  0  0  0  0  1  0  0  0  0  0  0
  181.2800  176.3040  137.6740 C   0  0  0  0  0  2  0  0  0  0  0  0
  1  6  1  0  0  0  0
  2 11  1  0  0  0  0
  2 12  1  0  0  0  0
  3 10  1  0  0  0  0
  4  8  2  0  0  0  0
  5  1  2  0  0  0  0
  7  9  2  0  0  0  0
  7  4  1  0  0  0  0
  8  1  1  0  0  0  0
  9  5  1  0  0  0  0
 10 11  2  0  0  0  0
 11  7  1  0  0  0  0
 12 15  2  0  0  0  0
 13  2  2  0  0  0  0
 14  3  2  0  0  0  0
 14 13  1  0  0  0  0
 15  4  1  0  0  0  0
 16 17  1  1  0  0  0
 16  3  1  0  0  0  0
 18 16  1  0  0  0  0
 19 18  1  0  0  0  0
 20 19  2  0  0  0  0
 21 19  1  0  0  0  0
 22 26  1  0  0  0  0
 22 27  1  0  0  0  0
 22 21  1  1  0  0  0
 23 34  1  0  0  0  0
 24 31  1  0  0  0  0
 25 27  1  0  0  0  0
 25 24  1  0  0  0  0
 26 34  1  0  0  0  0
 27 23  1  0  0  0  0
 28 30  1  0  0  0  0
 30 29  1  0  0  0  0
 31 29  1  0  0  0  0
 32 24  1  0  0  0  0
 32 28  1  0  0  0  0
 33 25  2  0  0  0  0
 35 13  1  0  0  0  0
 36 37  2  0  0  0  0
 36 39  1  0  0  0  0
 37 41  1  0  0  0  0
 39 40  2  0  0  0  0
 40 38  1  0  0  0  0
 40 35  1  0  0  0  0
 41 38  2  0  0  0  0
 43 37  1  0  0  0  0
 43 42  1  0  0  0  0
M  END
>  <MODEL>
4

>  <REMARK>
 VINA RESULT:      -9.1      3.635      7.271
  Name = 
  7 active torsions:
  status: ('A' for Active; 'I' for Inactive)
    1  A    between atoms: O_1  and  C_34
    2  A    between atoms: O_1  and  C_35
    3  A    between atoms: C_2  and  N_6
    4  A    between atoms: C_2  and  C_13
    5  A    between atoms: C_3  and  C_4
    6  A    between atoms: C_3  and  C_12
    7  A    between atoms: C_19  and  C_37
                            x       y       z     vdW  Elec       q    Type
                         _______ _______ _______ _____ _____    ______ ____

>  <TORSDO>
F 7

$$$$
=
 OpenBabel11052416053D

 43 48  0  0  1  0  0  0  0  0999 V2000
  187.9170  177.5200  146.8950 C   0  0  0  0  0  0  0  0  0  0  0  0
  187.9340  178.2990  141.9390 C   0  0  0  0  0  0  0  0  0  0  0  0
  185.2690  178.5450  141.0880 C   0  0  0  0  0  0  0  0  0  0  0  0
  188.5460  177.8600  144.6280 C   0  0  0  0  0  0  0  0  0  0  0  0
  186.5630  177.6220  146.5580 C   0  0  0  0  0  3  0  0  0  0  0  0
  188.3140  177.2780  148.3090 C   0  0  0  0  0  1  0  0  0  0  0  0
  187.1940  177.9760  144.2380 C   0  0  0  0  0  0  0  0  0  0  0  0
  188.8720  177.6400  145.9320 N   0  0  0  0  0  0  0  0  0  0  0  0
  186.2020  177.8520  145.2260 C   0  0  0  0  0  3  0  0  0  0  0  0
  185.5520  178.3270  142.4420 C   0  0  0  0  0  3  0  0  0  0  0  0
  186.8800  178.2040  142.8800 C   0  0  0  0  0  0  0  0  0  0  0  0
  189.2260  178.1810  142.3580 N   0  0  0  0  0  0  0  0  0  0  0  0
  187.6510  178.5060  140.5780 C   0  0  0  0  0  0  0  0  0  0  0  0
  186.3140  178.6240  140.1660 C   0  0  0  0  0  3  0  0  0  0  0  0
  189.5480  177.9680  143.6640 C   0  0  0  0  0  3  0  0  0  0  0  0
  183.8620  178.6710  140.5980 C   0  0  1  0  0  3  0  0  0  0  0  0
  183.7750  179.6800  139.4600 C   0  0  0  0  0  1  0  0  0  0  0  0
  183.3500  177.3750  140.1700 N   0  0  0  0  0  2  0  0  0  0  0  0
  181.9570  177.0540  140.2120 C   0  0  0  0  0  0  0  0  0  0  0  0
  181.1180  177.8960  140.6330 O   0  0  0  0  0  0  0  0  0  0  0  0
  181.4920  175.7040  139.7840 C   0  0  0  0  0  2  0  0  0  0  0  0
  181.0680  175.7210  138.3210 C   0  0  2  0  0  3  0  0  0  0  0  0
  181.1570  173.6630  137.0480 C   0  0  0  0  0  2  0  0  0  0  0  0
  184.1640  174.1340  136.7210 N   0  0  0  0  0  0  0  0  0  0  0  0
  183.2170  175.1470  137.1120 C   0  0  0  0  0  0  0  0  0  0  0  0
  179.6490  175.2050  138.1830 C   0  0  0  0  0  2  0  0  0  0  0  0
  181.8960  174.8000  137.5630 N   0  0  0  0  0  0  0  0  0  0  0  0
  186.4350  173.5400  136.2250 N   0  0  0  0  0  2  0  0  0  0  0  0
  184.6430  171.7890  136.2160 C   0  0  0  0  0  2  0  0  0  0  0  0
  186.0270  172.2270  135.7050 C   0  0  0  0  0  2  0  0  0  0  0  0
  184.0460  172.7710  137.2250 C   0  0  0  0  0  2  0  0  0  0  0  0
  185.3760  174.5200  135.9870 C   0  0  0  0  0  2  0  0  0  0  0  0
  183.5540  176.3650  137.0630 O   0  0  0  0  0  0  0  0  0  0  0  0
  179.7500  173.7990  137.6010 C   0  0  0  0  0  2  0  0  0  0  0  0
  188.7200  178.5510  139.6660 O   0  0  0  0  0  0  0  0  0  0  0  0
  189.2180  175.7920  137.1920 C   0  0  0  0  0  3  0  0  0  0  0  0
  190.4930  175.3560  137.5610 C   0  0  0  0  0  0  0  0  0  0  0  0
  190.5580  177.0350  139.3050 C   0  0  0  0  0  3  0  0  0  0  0  0
  188.6120  176.8500  137.8810 C   0  0  0  0  0  3  0  0  0  0  0  0
  189.2780  177.4780  138.9480 C   0  0  0  0  0  0  0  0  0  0  0  0
  191.1590  175.9770  138.6210 C   0  0  0  0  0  3  0  0  0  0  0  0
  190.1040  173.3350  136.3090 N   0  0  0  0  0  1  0  0  0  0  0  0
  191.1310  174.2150  136.8440 C   0  0  0  0  0  2  0  0  0  0  0  0
  1  6  1  0  0  0  0
  2 12  1  0  0  0  0
  2 11  1  0  0  0  0
  3 10  1  0  0  0  0
  4  8  1  0  0  0  0
  5  1  1  0  0  0  0
  7  4  2  0  0  0  0
  7  9  1  0  0  0  0
  8  1  2  0  0  0  0
  9  5  2  0  0  0  0
 10 11  2  0  0  0  0
 11  7  1  0  0  0  0
 12 15  2  0  0  0  0
 13  2  2  0  0  0  0
 14 13  1  0  0  0  0
 14  3  2  0  0  0  0
 15  4  1  0  0  0  0
 16 17  1  6  0  0  0
 16  3  1  0  0  0  0
 18 19  1  0  0  0  0
 18 16  1  0  0  0  0
 19 20  2  0  0  0  0
 21 19  1  0  0  0  0
 22 21  1  1  0  0  0
 23 27  1  0  0  0  0
 23 34  1  0  0  0  0
 24 25  1  0  0  0  0
 24 31  1  0  0  0  0
 25 27  1  0  0  0  0
 26 22  1  0  0  0  0
 27 22  1  0  0  0  0
 29 31  1  0  0  0  0
 30 29  1  0  0  0  0
 30 28  1  0  0  0  0
 32 28  1  0  0  0  0
 32 24  1  0  0  0  0
 33 25  2  0  0  0  0
 34 26  1  0  0  0  0
 35 13  1  0  0  0  0
 36 37  2  0  0  0  0
 36 39  1  0  0  0  0
 37 41  1  0  0  0  0
 39 40  2  0  0  0  0
 40 38  1  0  0  0  0
 40 35  1  0  0  0  0
 41 38  2  0  0  0  0
 42 43  1  0  0  0  0
 43 37  1  0  0  0  0
M  END
>  <MODEL>
5

>  <REMARK>
 VINA RESULT:      -9.0      3.314      5.570
  Name = 
  7 active torsions:
  status: ('A' for Active; 'I' for Inactive)
    1  A    between atoms: O_1  and  C_34
    2  A    between atoms: O_1  and  C_35
    3  A    between atoms: C_2  and  N_6
    4  A    between atoms: C_2  and  C_13
    5  A    between atoms: C_3  and  C_4
    6  A    between atoms: C_3  and  C_12
    7  A    between atoms: C_19  and  C_37
                            x       y       z     vdW  Elec       q    Type
                         _______ _______ _______ _____ _____    ______ ____

>  <TORSDO>
F 7

$$$$
=
 OpenBabel11052416053D

 43 48  0  0  1  0  0  0  0  0999 V2000
  188.3750  177.3200  146.5710 C   0  0  0  0  0  0  0  0  0  0  0  0
  189.9300  177.5600  141.8080 C   0  0  0  0  0  0  0  0  0  0  0  0
  187.7310  178.2620  140.2080 C   0  0  0  0  0  0  0  0  0  0  0  0
  189.6630  177.2850  144.5730 C   0  0  0  0  0  0  0  0  0  0  0  0
  187.2260  177.6650  145.8510 C   0  0  0  0  0  3  0  0  0  0  0  0
  188.3020  177.1490  148.0480 C   0  0  0  0  0  1  0  0  0  0  0  0
  188.5340  177.6370  143.8020 C   0  0  0  0  0  0  0  0  0  0  0  0
  189.5590  177.1390  145.9240 N   0  0  0  0  0  0  0  0  0  0  0  0
  187.3080  177.8240  144.4630 C   0  0  0  0  0  3  0  0  0  0  0  0
  187.5740  178.1310  141.5940 C   0  0  0  0  0  3  0  0  0  0  0  0
  188.6660  177.7830  142.4040 C   0  0  0  0  0  0  0  0  0  0  0  0
  190.9960  177.2210  142.5890 N   0  0  0  0  0  0  0  0  0  0  0  0
  190.0870  177.6780  140.4150 C   0  0  0  0  0  0  0  0  0  0  0  0
  188.9790  178.0270  139.6280 C   0  0  0  0  0  3  0  0  0  0  0  0
  190.8890  177.0830  143.9390 C   0  0  0  0  0  3  0  0  0  0  0  0
  186.5800  178.6240  139.3250 C   0  0  1  0  0  3  0  0  0  0  0  0
  186.6730  177.8950  137.9910 C   0  0  0  0  0  1  0  0  0  0  0  0
  185.3150  178.3260  139.9840 N   0  0  0  0  0  2  0  0  0  0  0  0
  184.1580  179.1500  139.8200 C   0  0  0  0  0  0  0  0  0  0  0  0
  184.2010  180.1790  139.0940 O   0  0  0  0  0  0  0  0  0  0  0  0
  182.8950  178.8090  140.5370 C   0  0  0  0  0  2  0  0  0  0  0  0
  181.6830  179.1390  139.6760 C   0  0  2  0  0  3  0  0  0  0  0  0
  179.6440  177.8690  139.9820 C   0  0  0  0  0  2  0  0  0  0  0  0
  180.9040  175.6600  138.2780 N   0  0  0  0  0  0  0  0  0  0  0  0
  181.3700  177.0230  138.3220 C   0  0  0  0  0  0  0  0  0  0  0  0
  180.7130  180.0080  140.4530 C   0  0  0  0  0  2  0  0  0  0  0  0
  180.9570  177.9190  139.3690 N   0  0  0  0  0  0  0  0  0  0  0  0
  181.1400  173.4460  137.3830 N   0  0  0  0  0  2  0  0  0  0  0  0
  179.4130  173.9210  139.1360 C   0  0  0  0  0  2  0  0  0  0  0  0
  179.8590  173.0230  137.9680 C   0  0  0  0  0  2  0  0  0  0  0  0
  180.4470  174.9900  139.4900 C   0  0  0  0  0  2  0  0  0  0  0  0
  181.0900  174.8700  137.0540 C   0  0  0  0  0  2  0  0  0  0  0  0
  182.1600  177.4390  137.4270 O   0  0  0  0  0  0  0  0  0  0  0  0
  179.5420  179.1130  140.8470 C   0  0  0  0  0  2  0  0  0  0  0  0
  191.3470  177.4070  139.8540 O   0  0  0  0  0  0  0  0  0  0  0  0
  191.0470  174.7630  137.2270 C   0  0  0  0  0  3  0  0  0  0  0  0
  192.3140  174.8490  136.6430 C   0  0  0  0  0  0  0  0  0  0  0  0
  192.9030  176.6130  138.1940 C   0  0  0  0  0  3  0  0  0  0  0  0
  190.7090  175.6020  138.2940 C   0  0  0  0  0  3  0  0  0  0  0  0
  191.6390  176.5330  138.7900 C   0  0  0  0  0  0  0  0  0  0  0  0
  193.2420  175.7720  137.1320 C   0  0  0  0  0  3  0  0  0  0  0  0
  192.5300  172.5560  135.9370 N   0  0  0  0  0  1  0  0  0  0  0  0
  192.6850  173.9400  135.5200 C   0  0  0  0  0  2  0  0  0  0  0  0
  1  6  1  0  0  0  0
  2 11  1  0  0  0  0
  2 12  1  0  0  0  0
  3 10  1  0  0  0  0
  4  8  2  0  0  0  0
  5  1  2  0  0  0  0
  7  9  2  0  0  0  0
  7  4  1  0  0  0  0
  8  1  1  0  0  0  0
  9  5  1  0  0  0  0
 10 11  2  0  0  0  0
 11  7  1  0  0  0  0
 12 15  2  0  0  0  0
 13  2  2  0  0  0  0
 14  3  2  0  0  0  0
 14 13  1  0  0  0  0
 15  4  1  0  0  0  0
 16 17  1  6  0  0  0
 16 18  1  0  0  0  0
 16  3  1  0  0  0  0
 19 18  1  0  0  0  0
 19 21  1  0  0  0  0
 20 19  2  0  0  0  0
 22 26  1  0  0  0  0
 22 21  1  1  0  0  0
 23 34  1  0  0  0  0
 24 25  1  0  0  0  0
 24 31  1  0  0  0  0
 25 27  1  0  0  0  0
 26 34  1  0  0  0  0
 27 22  1  0  0  0  0
 27 23  1  0  0  0  0
 28 30  1  0  0  0  0
 29 31  1  0  0  0  0
 30 29  1  0  0  0  0
 32 28  1  0  0  0  0
 32 24  1  0  0  0  0
 33 25  2  0  0  0  0
 35 13  1  0  0  0  0
 36 39  1  0  0  0  0
 37 41  1  0  0  0  0
 37 36  2  0  0  0  0
 38 40  1  0  0  0  0
 39 40  2  0  0  0  0
 40 35  1  0  0  0  0
 41 38  2  0  0  0  0
 43 42  1  0  0  0  0
 43 37  1  0  0  0  0
M  END
>  <MODEL>
6

>  <REMARK>
 VINA RESULT:      -8.9      3.077      4.815
  Name = 
  7 active torsions:
  status: ('A' for Active; 'I' for Inactive)
    1  A    between atoms: O_1  and  C_34
    2  A    between atoms: O_1  and  C_35
    3  A    between atoms: C_2  and  N_6
    4  A    between atoms: C_2  and  C_13
    5  A    between atoms: C_3  and  C_4
    6  A    between atoms: C_3  and  C_12
    7  A    between atoms: C_19  and  C_37
                            x       y       z     vdW  Elec       q    Type
                         _______ _______ _______ _____ _____    ______ ____

>  <TORSDO>
F 7

$$$$
=
 OpenBabel11052416053D

 43 48  0  0  1  0  0  0  0  0999 V2000
  189.5300  177.2800  146.0090 C   0  0  0  0  0  0  0  0  0  0  0  0
  190.4050  177.5080  141.0740 C   0  0  0  0  0  0  0  0  0  0  0  0
  187.9920  178.1530  139.7910 C   0  0  0  0  0  0  0  0  0  0  0  0
  190.5300  177.2530  143.8520 C   0  0  0  0  0  0  0  0  0  0  0  0
  188.2860  177.5960  145.4530 C   0  0  0  0  0  3  0  0  0  0  0  0
  189.6670  177.1210  147.4830 C   0  0  0  0  0  1  0  0  0  0  0  0
  189.2980  177.5760  143.2430 C   0  0  0  0  0  0  0  0  0  0  0  0
  190.6170  177.1170  145.2050 N   0  0  0  0  0  0  0  0  0  0  0  0
  188.1710  177.7450  144.0660 C   0  0  0  0  0  3  0  0  0  0  0  0
  188.0310  178.0320  141.1870 C   0  0  0  0  0  3  0  0  0  0  0  0
  189.2310  177.7120  141.8390 C   0  0  0  0  0  0  0  0  0  0  0  0
  191.5750  177.1970  141.7020 N   0  0  0  0  0  0  0  0  0  0  0  0
  190.3650  177.6170  139.6730 C   0  0  0  0  0  0  0  0  0  0  0  0
  189.1520  177.9370  139.0450 C   0  0  0  0  0  3  0  0  0  0  0  0
  191.6590  177.0690  143.0550 C   0  0  0  0  0  3  0  0  0  0  0  0
  186.7230  178.4860  139.0740 C   0  0  1  0  0  3  0  0  0  0  0  0
  186.5750  177.6380  137.8180 C   0  0  0  0  0  1  0  0  0  0  0  0
  185.5750  178.3020  139.9530 N   0  0  0  0  0  2  0  0  0  0  0  0
  184.4680  179.2080  139.9610 C   0  0  0  0  0  0  0  0  0  0  0  0
  184.4560  180.2120  139.1990 O   0  0  0  0  0  0  0  0  0  0  0  0
  183.3300  178.9830  140.8980 C   0  0  0  0  0  2  0  0  0  0  0  0
  182.1870  178.2640  140.1910 C   0  0  2  0  0  3  0  0  0  0  0  0
  181.7320  178.7790  137.8700 C   0  0  0  0  0  2  0  0  0  0  0  0
  180.2530  181.2780  138.8370 N   0  0  0  0  0  0  0  0  0  0  0  0
  180.5820  180.1500  139.6710 C   0  0  0  0  0  0  0  0  0  0  0  0
  182.7280  177.1210  139.3530 C   0  0  0  0  0  2  0  0  0  0  0  0
  181.5480  179.1690  139.2530 N   0  0  0  0  0  0  0  0  0  0  0  0
  179.2360  183.4420  138.6300 N   0  0  0  0  0  2  0  0  0  0  0  0
  180.4340  182.4200  136.6810 C   0  0  0  0  0  2  0  0  0  0  0  0
  179.3630  183.4130  137.1660 C   0  0  0  0  0  2  0  0  0  0  0  0
  181.1940  181.7590  137.8320 C   0  0  0  0  0  2  0  0  0  0  0  0
  179.0630  182.0820  139.1410 C   0  0  0  0  0  2  0  0  0  0  0  0
  180.0130  180.0200  140.7930 O   0  0  0  0  0  0  0  0  0  0  0  0
  182.6560  177.5740  137.8990 C   0  0  0  0  0  2  0  0  0  0  0  0
  191.5400  177.3650  138.9440 O   0  0  0  0  0  0  0  0  0  0  0  0
  191.2950  174.1440  137.0610 C   0  0  0  0  0  3  0  0  0  0  0  0
  192.6480  173.8950  136.8180 C   0  0  0  0  0  0  0  0  0  0  0  0
  193.2280  175.9360  137.9860 C   0  0  0  0  0  3  0  0  0  0  0  0
  190.9080  175.2890  137.7660 C   0  0  0  0  0  3  0  0  0  0  0  0
  191.8750  176.1940  138.2390 C   0  0  0  0  0  0  0  0  0  0  0  0
  193.6140  174.7900  137.2870 C   0  0  0  0  0  3  0  0  0  0  0  0
  194.5130  172.5380  136.1210 N   0  0  0  0  0  1  0  0  0  0  0  0
  193.0650  172.6630  136.0870 C   0  0  0  0  0  2  0  0  0  0  0  0
  1  6  1  0  0  0  0
  2 12  1  0  0  0  0
  2 11  1  0  0  0  0
  3 10  1  0  0  0  0
  4  8  1  0  0  0  0
  5  1  1  0  0  0  0
  7  4  2  0  0  0  0
  7  9  1  0  0  0  0
  8  1  2  0  0  0  0
  9  5  2  0  0  0  0
 10 11  2  0  0  0  0
 11  7  1  0  0  0  0
 12 15  2  0  0  0  0
 13  2  2  0  0  0  0
 14 13  1  0  0  0  0
 14  3  2  0  0  0  0
 15  4  1  0  0  0  0
 16 17  1  6  0  0  0
 16  3  1  0  0  0  0
 16 18  1  0  0  0  0
 18 19  1  0  0  0  0
 19 21  1  0  0  0  0
 20 19  2  0  0  0  0
 22 21  1  6  0  0  0
 23 34  1  0  0  0  0
 23 27  1  0  0  0  0
 24 32  1  0  0  0  0
 24 25  1  0  0  0  0
 25 33  2  0  0  0  0
 26 22  1  0  0  0  0
 27 25  1  0  0  0  0
 27 22  1  0  0  0  0
 28 32  1  0  0  0  0
 29 30  1  0  0  0  0
 29 31  1  0  0  0  0
 30 28  1  0  0  0  0
 31 24  1  0  0  0  0
 34 26  1  0  0  0  0
 35 13  1  0  0  0  0
 36 39  1  0  0  0  0
 37 36  2  0  0  0  0
 37 41  1  0  0  0  0
 38 40  1  0  0  0  0
 39 40  2  0  0  0  0
 40 35  1  0  0  0  0
 41 38  2  0  0  0  0
 43 42  1  0  0  0  0
 43 37  1  0  0  0  0
M  END
>  <MODEL>
7

>  <REMARK>
 VINA RESULT:      -8.7      2.438      3.011
  Name = 
  7 active torsions:
  status: ('A' for Active; 'I' for Inactive)
    1  A    between atoms: O_1  and  C_34
    2  A    between atoms: O_1  and  C_35
    3  A    between atoms: C_2  and  N_6
    4  A    between atoms: C_2  and  C_13
    5  A    between atoms: C_3  and  C_4
    6  A    between atoms: C_3  and  C_12
    7  A    between atoms: C_19  and  C_37
                            x       y       z     vdW  Elec       q    Type
                         _______ _______ _______ _____ _____    ______ ____

>  <TORSDO>
F 7

$$$$
=
 OpenBabel11052416053D

 43 48  0  0  1  0  0  0  0  0999 V2000
  185.5880  177.1240  135.3420 C   0  0  0  0  0  0  0  0  0  0  0  0
  190.3960  176.4430  136.5990 C   0  0  0  0  0  0  0  0  0  0  0  0
  190.5900  176.5600  139.3980 C   0  0  0  0  0  0  0  0  0  0  0  0
  187.9350  176.7480  135.3160 C   0  0  0  0  0  0  0  0  0  0  0  0
  185.5930  177.2030  136.7390 C   0  0  0  0  0  3  0  0  0  0  0  0
  184.3110  177.2860  134.5940 C   0  0  0  0  0  1  0  0  0  0  0  0
  187.9920  176.8150  136.7260 C   0  0  0  0  0  0  0  0  0  0  0  0
  186.7480  176.8990  134.6650 N   0  0  0  0  0  0  0  0  0  0  0  0
  186.7990  177.0480  137.4310 C   0  0  0  0  0  3  0  0  0  0  0  0
  189.3430  176.7130  138.7760 C   0  0  0  0  0  3  0  0  0  0  0  0
  189.2340  176.6560  137.3790 C   0  0  0  0  0  0  0  0  0  0  0  0
  190.2980  176.3850  135.2400 N   0  0  0  0  0  0  0  0  0  0  0  0
  191.6500  176.3000  137.2200 C   0  0  0  0  0  0  0  0  0  0  0  0
  191.7310  176.3630  138.6200 C   0  0  0  0  0  3  0  0  0  0  0  0
  189.1070  176.5300  134.5940 C   0  0  0  0  0  3  0  0  0  0  0  0
  190.7310  176.6250  140.8850 C   0  0  1  0  0  3  0  0  0  0  0  0
  191.6440  177.7760  141.2900 C   0  0  0  0  0  1  0  0  0  0  0  0
  189.4250  176.7620  141.5180 N   0  0  0  0  0  2  0  0  0  0  0  0
  189.1390  176.2030  142.8030 C   0  0  0  0  0  0  0  0  0  0  0  0
  190.0210  175.5600  143.4330 O   0  0  0  0  0  0  0  0  0  0  0  0
  187.7780  176.3550  143.3920 C   0  0  0  0  0  2  0  0  0  0  0  0
  187.5160  177.8070  143.7720 C   0  0  2  0  0  3  0  0  0  0  0  0
  185.2450  178.5090  144.2320 C   0  0  0  0  0  2  0  0  0  0  0  0
  184.8100  178.6780  141.2070 N   0  0  0  0  0  0  0  0  0  0  0  0
  186.1010  178.6380  141.8450 C   0  0  0  0  0  0  0  0  0  0  0  0
  187.3710  177.9340  145.2760 C   0  0  0  0  0  2  0  0  0  0  0  0
  186.2430  178.2330  143.2180 N   0  0  0  0  0  0  0  0  0  0  0  0
  183.5330  178.8080  139.1790 N   0  0  0  0  0  2  0  0  0  0  0  0
  182.3740  178.5340  141.3840 C   0  0  0  0  0  2  0  0  0  0  0  0
  182.2830  179.0140  139.9240 C   0  0  0  0  0  2  0  0  0  0  0  0
  183.7090  177.8600  141.7030 C   0  0  0  0  0  2  0  0  0  0  0  0
  184.6560  179.3770  139.9250 C   0  0  0  0  0  2  0  0  0  0  0  0
  187.1300  178.9620  141.1860 O   0  0  0  0  0  0  0  0  0  0  0  0
  185.8850  178.1330  145.5570 C   0  0  0  0  0  2  0  0  0  0  0  0
  192.7880  176.1340  136.4120 O   0  0  0  0  0  0  0  0  0  0  0  0
  194.3150  172.7330  136.7020 C   0  0  0  0  0  3  0  0  0  0  0  0
  195.6600  173.0470  136.4940 C   0  0  0  0  0  0  0  0  0  0  0  0
  195.0710  175.3830  136.2420 C   0  0  0  0  0  3  0  0  0  0  0  0
  193.3480  173.7450  136.6800 C   0  0  0  0  0  3  0  0  0  0  0  0
  193.7200  175.0810  136.4540 C   0  0  0  0  0  0  0  0  0  0  0  0
  196.0370  174.3740  136.2690 C   0  0  0  0  0  3  0  0  0  0  0  0
  196.3560  171.0070  137.5690 N   0  0  0  0  0  1  0  0  0  0  0  0
  196.6960  171.9750  136.5390 C   0  0  0  0  0  2  0  0  0  0  0  0
  1  5  1  0  0  0  0
  2 13  2  0  0  0  0
  2 11  1  0  0  0  0
  3 16  1  0  0  0  0
  4  7  2  0  0  0  0
  5  9  2  0  0  0  0
  6  1  1  0  0  0  0
  7 11  1  0  0  0  0
  7  9  1  0  0  0  0
  8  4  1  0  0  0  0
  8  1  2  0  0  0  0
 10  3  1  0  0  0  0
 11 10  2  0  0  0  0
 12  2  1  0  0  0  0
 13 14  1  0  0  0  0
 14  3  2  0  0  0  0
 15 12  2  0  0  0  0
 15  4  1  0  0  0  0
 16 17  1  6  0  0  0
 16 18  1  0  0  0  0
 18 19  1  0  0  0  0
 19 21  1  0  0  0  0
 19 20  2  0  0  0  0
 22 21  1  1  0  0  0
 22 26  1  0  0  0  0
 23 34  1  0  0  0  0
 24 31  1  0  0  0  0
 24 25  1  0  0  0  0
 25 27  1  0  0  0  0
 26 34  1  0  0  0  0
 27 22  1  0  0  0  0
 27 23  1  0  0  0  0
 28 30  1  0  0  0  0
 28 32  1  0  0  0  0
 29 31  1  0  0  0  0
 30 29  1  0  0  0  0
 32 24  1  0  0  0  0
 33 25  2  0  0  0  0
 35 40  1  0  0  0  0
 35 13  1  0  0  0  0
 37 43  1  0  0  0  0
 37 36  2  0  0  0  0
 38 41  2  0  0  0  0
 38 40  1  0  0  0  0
 39 36  1  0  0  0  0
 40 39  2  0  0  0  0
 41 37  1  0  0  0  0
 43 42  1  0  0  0  0
M  END
>  <MODEL>
8

>  <REMARK>
 VINA RESULT:      -8.5      3.735      8.092
  Name = 
  7 active torsions:
  status: ('A' for Active; 'I' for Inactive)
    1  A    between atoms: O_1  and  C_34
    2  A    between atoms: O_1  and  C_35
    3  A    between atoms: C_2  and  N_6
    4  A    between atoms: C_2  and  C_13
    5  A    between atoms: C_3  and  C_4
    6  A    between atoms: C_3  and  C_12
    7  A    between atoms: C_19  and  C_37
                            x       y       z     vdW  Elec       q    Type
                         _______ _______ _______ _____ _____    ______ ____

>  <TORSDO>
F 7

$$$$
=
 OpenBabel11052416053D

 43 48  0  0  1  0  0  0  0  0999 V2000
  194.6020  174.9440  135.8190 C   0  0  0  0  0  0  0  0  0  0  0  0
  190.1790  176.7470  137.3520 C   0  0  0  0  0  0  0  0  0  0  0  0
  190.1840  176.7950  140.1600 C   0  0  0  0  0  0  0  0  0  0  0  0
  192.4030  175.8400  135.9280 C   0  0  0  0  0  0  0  0  0  0  0  0
  194.6890  174.9260  137.2150 C   0  0  0  0  0  3  0  0  0  0  0  0
  195.7480  174.4660  134.9970 C   0  0  0  0  0  1  0  0  0  0  0  0
  192.4420  175.8470  137.3390 C   0  0  0  0  0  0  0  0  0  0  0  0
  193.4720  175.3960  135.2090 N   0  0  0  0  0  0  0  0  0  0  0  0
  193.6050  175.3800  137.9760 C   0  0  0  0  0  3  0  0  0  0  0  0
  191.3120  176.3370  139.4660 C   0  0  0  0  0  3  0  0  0  0  0  0
  191.3220  176.3100  138.0630 C   0  0  0  0  0  0  0  0  0  0  0  0
  190.1820  176.7240  135.9880 N   0  0  0  0  0  0  0  0  0  0  0  0
  189.0410  177.1950  138.0450 C   0  0  0  0  0  0  0  0  0  0  0  0
  189.0570  177.2110  139.4490 C   0  0  0  0  0  3  0  0  0  0  0  0
  191.2550  176.2860  135.2730 C   0  0  0  0  0  3  0  0  0  0  0  0
  190.1490  176.8250  141.6540 C   0  0  1  0  0  3  0  0  0  0  0  0
  190.9960  177.9720  142.1900 C   0  0  0  0  0  1  0  0  0  0  0  0
  188.7760  176.9380  142.1310 N   0  0  0  0  0  2  0  0  0  0  0  0
  188.4230  176.7030  143.4970 C   0  0  0  0  0  0  0  0  0  0  0  0
  189.3030  176.3800  144.3400 O   0  0  0  0  0  0  0  0  0  0  0  0
  186.9980  176.8110  143.9250 C   0  0  0  0  0  2  0  0  0  0  0  0
  186.6070  178.2690  144.1280 C   0  0  2  0  0  3  0  0  0  0  0  0
  184.2620  178.8690  144.1120 C   0  0  0  0  0  2  0  0  0  0  0  0
  184.3820  178.7860  141.0550 N   0  0  0  0  0  0  0  0  0  0  0  0
  185.5350  178.8700  141.9150 C   0  0  0  0  0  0  0  0  0  0  0  0
  186.1840  178.5000  145.5660 C   0  0  0  0  0  2  0  0  0  0  0  0
  185.4410  178.5780  143.3210 N   0  0  0  0  0  0  0  0  0  0  0  0
  183.4950  178.6880  138.8270 N   0  0  0  0  0  2  0  0  0  0  0  0
  181.9640  178.5120  140.8040 C   0  0  0  0  0  2  0  0  0  0  0  0
  182.1220  178.8760  139.3160 C   0  0  0  0  0  2  0  0  0  0  0  0
  183.2460  177.9440  141.4130 C   0  0  0  0  0  2  0  0  0  0  0  0
  184.4360  179.3760  139.7120 C   0  0  0  0  0  2  0  0  0  0  0  0
  186.6520  179.2030  141.4260 O   0  0  0  0  0  0  0  0  0  0  0  0
  184.6640  178.6320  145.5570 C   0  0  0  0  0  2  0  0  0  0  0  0
  187.9090  177.5800  137.3070 O   0  0  0  0  0  0  0  0  0  0  0  0
  185.6770  174.6310  136.7610 C   0  0  0  0  0  3  0  0  0  0  0  0
  184.5890  175.2540  136.1450 C   0  0  0  0  0  0  0  0  0  0  0  0
  185.7230  177.3870  136.3110 C   0  0  0  0  0  3  0  0  0  0  0  0
  186.7880  175.3860  137.1520 C   0  0  0  0  0  3  0  0  0  0  0  0
  186.8220  176.7730  136.9250 C   0  0  0  0  0  0  0  0  0  0  0  0
  184.6170  176.6320  135.9160 C   0  0  0  0  0  3  0  0  0  0  0  0
  183.2330  173.3160  136.6010 N   0  0  0  0  0  1  0  0  0  0  0  0
  183.4130  174.4480  135.7070 C   0  0  0  0  0  2  0  0  0  0  0  0
  1  5  1  0  0  0  0
  2 13  2  0  0  0  0
  2 11  1  0  0  0  0
  3 16  1  0  0  0  0
  4  7  2  0  0  0  0
  5  9  2  0  0  0  0
  6  1  1  0  0  0  0
  7  9  1  0  0  0  0
  7 11  1  0  0  0  0
  8  1  2  0  0  0  0
  8  4  1  0  0  0  0
 10  3  1  0  0  0  0
 11 10  2  0  0  0  0
 12  2  1  0  0  0  0
 13 14  1  0  0  0  0
 14  3  2  0  0  0  0
 15  4  1  0  0  0  0
 15 12  2  0  0  0  0
 16 18  1  0  0  0  0
 16 17  1  6  0  0  0
 18 19  1  0  0  0  0
 19 21  1  0  0  0  0
 19 20  2  0  0  0  0
 22 21  1  1  0  0  0
 22 26  1  0  0  0  0
 23 34  1  0  0  0  0
 24 31  1  0  0  0  0
 24 25  1  0  0  0  0
 25 27  1  0  0  0  0
 27 23  1  0  0  0  0
 27 22  1  0  0  0  0
 28 30  1  0  0  0  0
 28 32  1  0  0  0  0
 29 31  1  0  0  0  0
 30 29  1  0  0  0  0
 32 24  1  0  0  0  0
 33 25  2  0  0  0  0
 34 26  1  0  0  0  0
 35 13  1  0  0  0  0
 36 39  1  0  0  0  0
 37 36  2  0  0  0  0
 38 40  1  0  0  0  0
 40 39  2  0  0  0  0
 40 35  1  0  0  0  0
 41 37  1  0  0  0  0
 41 38  2  0  0  0  0
 43 37  1  0  0  0  0
 43 42  1  0  0  0  0
M  END
>  <MODEL>
9

>  <REMARK>
 VINA RESULT:      -8.4      3.431      7.003
  Name = 
  7 active torsions:
  status: ('A' for Active; 'I' for Inactive)
    1  A    between atoms: O_1  and  C_34
    2  A    between atoms: O_1  and  C_35
    3  A    between atoms: C_2  and  N_6
    4  A    between atoms: C_2  and  C_13
    5  A    between atoms: C_3  and  C_4
    6  A    between atoms: C_3  and  C_12
    7  A    between atoms: C_19  and  C_37
                            x       y       z     vdW  Elec       q    Type
                         _______ _______ _______ _____ _____    ______ ____

>  <TORSDO>
F 7

$$$$
