=
 OpenBabel11052416143D

 43 48  0  0  1  0  0  0  0  0999 V2000
  189.0370  178.0800  140.3880 C   0  0  0  0  0  2  0  0  0  0  0  0
  189.6420  177.6860  141.7360 C   0  0  1  0  0  3  0  0  0  0  0  0
  187.8790  179.0540  140.5950 C   0  0  0  0  0  2  0  0  0  0  0  0
  188.5870  177.0720  142.6540 C   0  0  0  0  0  2  0  0  0  0  0  0
  187.4120  178.0260  142.8330 C   0  0  1  0  0  3  0  0  0  0  0  0
  186.8100  178.4260  141.4830 C   0  0  0  0  0  2  0  0  0  0  0  0
  187.9830  178.0040  147.8160 C   0  0  0  0  0  0  0  0  0  0  0  0
  184.9370  177.9950  143.7140 C   0  0  1  0  0  3  0  0  0  0  0  0
  186.3360  178.6000  146.1360 C   0  0  0  0  0  0  0  0  0  0  0  0
  188.5420  177.0680  146.9430 C   0  0  0  0  0  3  0  0  0  0  0  0
  188.5290  178.1780  149.1170 N   0  0  0  0  0  1  0  0  0  0  0  0
  186.9000  177.6480  145.2530 C   0  0  0  0  0  0  0  0  0  0  0  0
  186.8780  178.7590  147.4150 C   0  0  0  0  0  3  0  0  0  0  0  0
  188.0040  176.8930  145.6660 C   0  0  0  0  0  3  0  0  0  0  0  0
  186.3870  177.4780  143.8470 C   0  0  2  0  0  3  0  0  0  0  0  0
  184.7990  179.3960  144.2920 C   0  0  0  0  0  2  0  0  0  0  0  0
  185.0850  179.3620  145.7920 C   0  0  0  0  0  2  0  0  0  0  0  0
  184.3640  177.9130  142.3070 C   0  0  0  0  0  2  0  0  0  0  0  0
  183.0030  178.5950  142.2500 C   0  0  0  0  0  2  0  0  0  0  0  0
  183.4490  179.9880  138.8250 C   0  0  0  0  0  2  0  0  0  0  0  0
  182.0050  180.2290  138.3350 C   0  0  1  0  0  3  0  0  0  0  0  0
  181.3250  179.2350  140.5650 C   0  0  0  0  0  3  0  0  0  0  0  0
  183.5700  178.7520  139.7200 C   0  0  0  0  0  2  0  0  0  0  0  0
  182.5810  178.8650  140.8420 C   0  0  0  0  0  0  0  0  0  0  0  0
  180.9180  179.4850  139.1380 C   0  0  0  0  0  2  0  0  0  0  0  0
  180.8010  181.7760  137.3060 C   0  0  0  0  0  1  0  0  0  0  0  0
  181.7360  181.5990  138.3280 O   0  0  0  0  0  0  0  0  0  0  0  0
  190.8260  176.7410  141.5660 C   0  0  0  0  0  2  0  0  0  0  0  0
  191.9230  177.2390  140.1980 S   0  0  0  0  0  0  0  0  0  0  0  0
  191.1330  176.0600  139.0620 C   0  0  0  0  0  2  0  0  0  0  0  0
  191.6240  176.2430  137.6980 N   0  0  0  0  0  0  0  0  0  0  0  0
  190.6980  176.4270  136.6020 C   0  0  0  0  0  0  0  0  0  0  0  0
  191.0490  176.1020  135.4350 O   0  0  0  0  0  0  0  0  0  0  0  0
  189.3410  176.9910  136.7980 C   0  0  0  0  0  0  0  0  0  0  0  0
  186.9690  176.6420  137.2150 C   0  0  0  0  0  3  0  0  0  0  0  0
  187.8090  178.8800  136.8490 C   0  0  0  0  0  3  0  0  0  0  0  0
  186.7440  178.0170  137.1150 C   0  0  0  0  0  3  0  0  0  0  0  0
  189.1000  178.3690  136.6880 C   0  0  0  0  0  3  0  0  0  0  0  0
  188.2610  176.1320  137.0550 C   0  0  0  0  0  3  0  0  0  0  0  0
  193.6200  176.1560  136.2060 C   0  0  0  0  0  2  0  0  0  0  0  0
  193.2810  174.0180  137.3400 C   0  0  0  0  0  1  0  0  0  0  0  0
  193.0440  176.5930  137.5430 C   0  0  2  0  0  3  0  0  0  0  0  0
  193.9710  175.3680  137.4460 C   0  0  2  0  0  3  0  0  0  0  0  0
  1  3  1  0  0  0  0
  1  2  1  0  0  0  0
  2 28  1  6  0  0  0
  2  4  1  0  0  0  0
  3  6  1  0  0  0  0
  4  5  1  0  0  0  0
  5  6  1  6  0  0  0
  5 15  1  0  0  0  0
  7 11  1  0  0  0  0
  8 18  1  6  0  0  0
  8 15  1  0  0  0  0
  8 16  1  0  0  0  0
  9 13  2  0  0  0  0
 10  7  2  0  0  0  0
 12 14  2  0  0  0  0
 12  9  1  0  0  0  0
 13  7  1  0  0  0  0
 14 10  1  0  0  0  0
 15 12  1  1  0  0  0
 16 17  1  0  0  0  0
 17  9  1  0  0  0  0
 19 18  1  0  0  0  0
 20 23  1  0  0  0  0
 21 27  1  1  0  0  0
 21 20  1  0  0  0  0
 21 25  1  0  0  0  0
 22 24  2  0  0  0  0
 23 24  1  0  0  0  0
 24 19  1  0  0  0  0
 25 22  1  0  0  0  0
 26 27  1  0  0  0  0
 29 28  1  0  0  0  0
 30 29  1  0  0  0  0
 31 30  1  0  0  0  0
 32 34  1  0  0  0  0
 32 31  1  0  0  0  0
 33 32  2  0  0  0  0
 34 39  1  0  0  0  0
 36 37  2  0  0  0  0
 37 35  1  0  0  0  0
 38 34  2  0  0  0  0
 38 36  1  0  0  0  0
 39 35  2  0  0  0  0
 40 43  1  0  0  0  0
 40 42  1  0  0  0  0
 42 31  1  6  0  0  0
 43 41  1  6  0  0  0
 43 42  1  0  0  0  0
M  END
>  <MODEL>
1

>  <REMARK>
 VINA RESULT:      -8.5      0.000      0.000
  Name = 
  11 active torsions:
  status: ('A' for Active; 'I' for Inactive)
    1  A    between atoms: C_1  and  C_34
    2  A    between atoms: C_1  and  C_35
    3  A    between atoms: C_3  and  N_4
    4  A    between atoms: C_3  and  S_12
    5  A    between atoms: N_4  and  C_22
    6  A    between atoms: C_6  and  C_17
    7  A    between atoms: C_8  and  C_34
    8  A    between atoms: C_11  and  C_14
    9  A    between atoms: S_12  and  C_17
   10  A    between atoms: C_19  and  O_37
   11  A    between atoms: C_27  and  C_30
                            x       y       z     vdW  Elec       q    Type
                         _______ _______ _______ _____ _____    ______ ____

>  <TORSDO>
F 11

$$$$
=
 OpenBabel11052416143D

 43 48  0  0  1  0  0  0  0  0999 V2000
  188.3170  177.9120  140.7070 C   0  0  0  0  0  2  0  0  0  0  0  0
  189.2340  177.6820  141.9100 C   0  0  1  0  0  3  0  0  0  0  0  0
  187.1660  178.8380  141.0910 C   0  0  0  0  0  2  0  0  0  0  0  0
  188.4570  177.1050  143.0910 C   0  0  0  0  0  2  0  0  0  0  0  0
  187.2830  178.0070  143.4540 C   0  0  1  0  0  3  0  0  0  0  0  0
  186.3690  178.2420  142.2480 C   0  0  0  0  0  2  0  0  0  0  0  0
  189.2130  177.9100  148.0820 C   0  0  0  0  0  0  0  0  0  0  0  0
  185.1520  178.1000  144.9870 C   0  0  1  0  0  3  0  0  0  0  0  0
  187.1990  178.6080  146.9220 C   0  0  0  0  0  0  0  0  0  0  0  0
  189.4570  176.9540  147.0940 C   0  0  0  0  0  3  0  0  0  0  0  0
  190.1080  178.0430  149.1800 N   0  0  0  0  0  1  0  0  0  0  0  0
  187.4440  177.6360  145.9230 C   0  0  0  0  0  0  0  0  0  0  0  0
  188.0820  178.7270  147.9990 C   0  0  0  0  0  3  0  0  0  0  0  0
  188.5770  176.8180  146.0170 C   0  0  0  0  0  3  0  0  0  0  0  0
  186.5520  177.5050  144.7150 C   0  0  2  0  0  3  0  0  0  0  0  0
  185.2550  179.5010  145.5720 C   0  0  0  0  0  2  0  0  0  0  0  0
  185.9440  179.4380  146.9340 C   0  0  0  0  0  2  0  0  0  0  0  0
  184.2080  178.0610  143.7950 C   0  0  0  0  0  2  0  0  0  0  0  0
  183.0640  179.0470  143.9950 C   0  0  0  0  0  2  0  0  0  0  0  0
  179.7790  178.2670  142.4240 C   0  0  0  0  0  2  0  0  0  0  0  0
  180.1240  178.0540  140.9340 C   0  0  1  0  0  3  0  0  0  0  0  0
  182.4900  178.6320  141.6360 C   0  0  0  0  0  3  0  0  0  0  0  0
  180.6490  179.3390  143.0850 C   0  0  0  0  0  2  0  0  0  0  0  0
  182.0920  179.0000  142.8600 C   0  0  0  0  0  0  0  0  0  0  0  0
  181.4980  178.6080  140.5050 C   0  0  0  0  0  2  0  0  0  0  0  0
  180.3410  176.6190  139.2630 C   0  0  0  0  0  1  0  0  0  0  0  0
  180.0430  176.6940  140.6250 O   0  0  0  0  0  0  0  0  0  0  0  0
  190.4160  176.7910  141.5520 C   0  0  0  0  0  2  0  0  0  0  0  0
  191.4130  177.4690  140.1840 S   0  0  0  0  0  0  0  0  0  0  0  0
  191.0410  176.0350  139.1300 C   0  0  0  0  0  2  0  0  0  0  0  0
  191.5510  176.2400  137.7760 N   0  0  0  0  0  0  0  0  0  0  0  0
  190.6420  176.4570  136.6730 C   0  0  0  0  0  0  0  0  0  0  0  0
  191.0040  176.1510  135.5040 O   0  0  0  0  0  0  0  0  0  0  0  0
  189.2890  177.0340  136.8630 C   0  0  0  0  0  0  0  0  0  0  0  0
  186.8930  176.7080  137.1310 C   0  0  0  0  0  3  0  0  0  0  0  0
  187.7980  178.9480  137.0390 C   0  0  0  0  0  3  0  0  0  0  0  0
  186.7030  178.0910  137.1640 C   0  0  0  0  0  3  0  0  0  0  0  0
  189.0840  178.4220  136.8860 C   0  0  0  0  0  3  0  0  0  0  0  0
  188.1790  176.1820  136.9790 C   0  0  0  0  0  3  0  0  0  0  0  0
  193.5620  176.1710  136.3020 C   0  0  0  0  0  2  0  0  0  0  0  0
  193.1830  174.0040  137.3670 C   0  0  0  0  0  1  0  0  0  0  0  0
  192.9770  176.5750  137.6460 C   0  0  2  0  0  3  0  0  0  0  0  0
  193.8890  175.3410  137.5210 C   0  0  2  0  0  3  0  0  0  0  0  0
  1  3  1  0  0  0  0
  1  2  1  0  0  0  0
  2 28  1  6  0  0  0
  2  4  1  0  0  0  0
  3  6  1  0  0  0  0
  4  5  1  0  0  0  0
  5  6  1  6  0  0  0
  5 15  1  0  0  0  0
  7 11  1  0  0  0  0
  8 18  1  6  0  0  0
  8 16  1  0  0  0  0
  9 17  1  0  0  0  0
  9 13  2  0  0  0  0
 10  7  2  0  0  0  0
 12 14  2  0  0  0  0
 12  9  1  0  0  0  0
 13  7  1  0  0  0  0
 14 10  1  0  0  0  0
 15  8  1  0  0  0  0
 15 12  1  1  0  0  0
 16 17  1  0  0  0  0
 18 19  1  0  0  0  0
 20 23  1  0  0  0  0
 21 27  1  1  0  0  0
 21 20  1  0  0  0  0
 22 24  2  0  0  0  0
 24 23  1  0  0  0  0
 24 19  1  0  0  0  0
 25 21  1  0  0  0  0
 25 22  1  0  0  0  0
 26 27  1  0  0  0  0
 29 28  1  0  0  0  0
 30 29  1  0  0  0  0
 31 30  1  0  0  0  0
 32 34  1  0  0  0  0
 32 31  1  0  0  0  0
 33 32  2  0  0  0  0
 34 38  2  0  0  0  0
 34 39  1  0  0  0  0
 35 37  1  0  0  0  0
 36 37  2  0  0  0  0
 38 36  1  0  0  0  0
 39 35  2  0  0  0  0
 40 43  1  0  0  0  0
 40 42  1  0  0  0  0
 42 31  1  6  0  0  0
 43 41  1  6  0  0  0
 43 42  1  0  0  0  0
M  END
>  <MODEL>
2

>  <REMARK>
 VINA RESULT:      -8.4      1.480      1.945
  Name = 
  11 active torsions:
  status: ('A' for Active; 'I' for Inactive)
    1  A    between atoms: C_1  and  C_34
    2  A    between atoms: C_1  and  C_35
    3  A    between atoms: C_3  and  N_4
    4  A    between atoms: C_3  and  S_12
    5  A    between atoms: N_4  and  C_22
    6  A    between atoms: C_6  and  C_17
    7  A    between atoms: C_8  and  C_34
    8  A    between atoms: C_11  and  C_14
    9  A    between atoms: S_12  and  C_17
   10  A    between atoms: C_19  and  O_37
   11  A    between atoms: C_27  and  C_30
                            x       y       z     vdW  Elec       q    Type
                         _______ _______ _______ _____ _____    ______ ____

>  <TORSDO>
F 11

$$$$
=
 OpenBabel11052416143D

 43 48  0  0  1  0  0  0  0  0999 V2000
  189.0580  178.9040  138.3910 C   0  0  0  0  0  2  0  0  0  0  0  0
  188.5710  177.5590  138.9310 C   0  0  1  0  0  3  0  0  0  0  0  0
  188.3810  179.2140  137.0580 C   0  0  0  0  0  2  0  0  0  0  0  0
  188.8310  176.4380  137.9280 C   0  0  0  0  0  2  0  0  0  0  0  0
  188.1880  176.7600  136.5840 C   0  0  1  0  0  3  0  0  0  0  0  0
  188.6710  178.1100  136.0460 C   0  0  0  0  0  2  0  0  0  0  0  0
  192.3390  174.0220  135.9310 C   0  0  0  0  0  0  0  0  0  0  0  0
  187.2590  174.4870  135.6500 C   0  0  1  0  0  3  0  0  0  0  0  0
  189.9520  173.7310  136.2550 C   0  0  0  0  0  0  0  0  0  0  0  0
  192.1150  175.2800  135.3670 C   0  0  0  0  0  3  0  0  0  0  0  0
  193.6660  173.5230  136.0510 N   0  0  0  0  0  1  0  0  0  0  0  0
  189.7240  175.0040  135.6790 C   0  0  0  0  0  0  0  0  0  0  0  0
  191.2600  173.2480  136.3630 C   0  0  0  0  0  3  0  0  0  0  0  0
  190.8120  175.7700  135.2440 C   0  0  0  0  0  3  0  0  0  0  0  0
  188.3390  175.5900  135.5890 C   0  0  2  0  0  3  0  0  0  0  0  0
  187.4950  173.5510  136.8270 C   0  0  0  0  0  2  0  0  0  0  0  0
  188.8210  172.8170  136.6390 C   0  0  0  0  0  2  0  0  0  0  0  0
  185.8280  175.0030  135.6250 C   0  0  0  0  0  2  0  0  0  0  0  0
  185.1560  174.7590  136.9700 C   0  0  0  0  0  2  0  0  0  0  0  0
  184.9340  178.2460  138.2600 C   0  0  0  0  0  2  0  0  0  0  0  0
  183.6090  178.2620  139.0520 C   0  0  1  0  0  3  0  0  0  0  0  0
  183.3830  175.8590  138.2790 C   0  0  0  0  0  3  0  0  0  0  0  0
  184.8740  177.3410  137.0270 C   0  0  0  0  0  2  0  0  0  0  0  0
  184.4270  175.9730  137.4490 C   0  0  0  0  0  0  0  0  0  0  0  0
  182.6540  177.0930  138.7350 C   0  0  0  0  0  2  0  0  0  0  0  0
  185.1350  178.9040  140.5220 C   0  0  0  0  0  1  0  0  0  0  0  0
  183.8840  178.2920  140.4210 O   0  0  0  0  0  0  0  0  0  0  0  0
  189.1990  177.2350  140.2800 C   0  0  0  0  0  2  0  0  0  0  0  0
  188.6210  178.3470  141.6050 S   0  0  0  0  0  0  0  0  0  0  0  0
  188.2870  176.9430  142.7110 C   0  0  0  0  0  2  0  0  0  0  0  0
  189.1190  177.0180  143.9100 N   0  0  0  0  0  0  0  0  0  0  0  0
  188.6880  177.7860  145.0570 C   0  0  0  0  0  0  0  0  0  0  0  0
  189.5520  178.2500  145.8510 O   0  0  0  0  0  0  0  0  0  0  0  0
  187.2570  178.0500  145.3420 C   0  0  0  0  0  0  0  0  0  0  0  0
  185.4720  178.3890  146.9600 C   0  0  0  0  0  3  0  0  0  0  0  0
  184.9620  178.3610  144.5960 C   0  0  0  0  0  3  0  0  0  0  0  0
  184.5420  178.4880  145.9220 C   0  0  0  0  0  3  0  0  0  0  0  0
  186.3120  178.1390  144.3080 C   0  0  0  0  0  3  0  0  0  0  0  0
  186.8220  178.1680  146.6710 C   0  0  0  0  0  3  0  0  0  0  0  0
  191.3050  176.4620  144.9740 C   0  0  0  0  0  2  0  0  0  0  0  0
  191.6160  177.9550  143.0640 C   0  0  0  0  0  1  0  0  0  0  0  0
  190.1910  176.0190  144.0400 C   0  0  2  0  0  3  0  0  0  0  0  0
  191.5450  176.4960  143.4830 C   0  0  2  0  0  3  0  0  0  0  0  0
  1  2  1  0  0  0  0
  2 28  1  1  0  0  0
  3  1  1  0  0  0  0
  4  2  1  0  0  0  0
  5  6  1  6  0  0  0
  5  4  1  0  0  0  0
  6  3  1  0  0  0  0
  7 11  1  0  0  0  0
  7 13  1  0  0  0  0
  8 18  1  1  0  0  0
  8 16  1  0  0  0  0
  9 13  2  0  0  0  0
  9 17  1  0  0  0  0
 10  7  2  0  0  0  0
 12  9  1  0  0  0  0
 14 10  1  0  0  0  0
 14 12  2  0  0  0  0
 15  8  1  0  0  0  0
 15 12  1  1  0  0  0
 15  5  1  0  0  0  0
 17 16  1  0  0  0  0
 18 19  1  0  0  0  0
 19 24  1  0  0  0  0
 20 21  1  0  0  0  0
 21 27  1  1  0  0  0
 22 25  1  0  0  0  0
 23 24  1  0  0  0  0
 23 20  1  0  0  0  0
 24 22  2  0  0  0  0
 25 21  1  0  0  0  0
 27 26  1  0  0  0  0
 28 29  1  0  0  0  0
 29 30  1  0  0  0  0
 30 31  1  0  0  0  0
 31 32  1  0  0  0  0
 32 34  1  0  0  0  0
 32 33  2  0  0  0  0
 34 39  1  0  0  0  0
 36 37  2  0  0  0  0
 37 35  1  0  0  0  0
 38 36  1  0  0  0  0
 38 34  2  0  0  0  0
 39 35  2  0  0  0  0
 42 31  1  6  0  0  0
 42 40  1  0  0  0  0
 43 41  1  6  0  0  0
 43 42  1  0  0  0  0
 43 40  1  0  0  0  0
M  END
>  <MODEL>
3

>  <REMARK>
 VINA RESULT:      -8.3      2.792      8.116
  Name = 
  11 active torsions:
  status: ('A' for Active; 'I' for Inactive)
    1  A    between atoms: C_1  and  C_34
    2  A    between atoms: C_1  and  C_35
    3  A    between atoms: C_3  and  N_4
    4  A    between atoms: C_3  and  S_12
    5  A    between atoms: N_4  and  C_22
    6  A    between atoms: C_6  and  C_17
    7  A    between atoms: C_8  and  C_34
    8  A    between atoms: C_11  and  C_14
    9  A    between atoms: S_12  and  C_17
   10  A    between atoms: C_19  and  O_37
   11  A    between atoms: C_27  and  C_30
                            x       y       z     vdW  Elec       q    Type
                         _______ _______ _______ _____ _____    ______ ____

>  <TORSDO>
F 11

$$$$
=
 OpenBabel11052416143D

 43 48  0  0  1  0  0  0  0  0999 V2000
  187.0780  178.4010  137.2110 C   0  0  0  0  0  2  0  0  0  0  0  0
  187.1060  176.8980  136.9270 C   0  0  1  0  0  3  0  0  0  0  0  0
  188.4960  178.9680  137.1850 C   0  0  0  0  0  2  0  0  0  0  0  0
  187.9910  176.1650  137.9330 C   0  0  0  0  0  2  0  0  0  0  0  0
  189.3980  176.7530  137.9380 C   0  0  1  0  0  3  0  0  0  0  0  0
  189.3690  178.2590  138.2150 C   0  0  0  0  0  2  0  0  0  0  0  0
  193.6370  174.4910  136.5030 C   0  0  0  0  0  0  0  0  0  0  0  0
  190.8020  176.6620  140.1560 C   0  0  1  0  0  3  0  0  0  0  0  0
  192.8150  175.9660  138.2450 C   0  0  0  0  0  0  0  0  0  0  0  0
  192.3540  173.9640  136.3360 C   0  0  0  0  0  3  0  0  0  0  0  0
  194.7130  174.0080  135.7070 N   0  0  0  0  0  1  0  0  0  0  0  0
  191.5160  175.4290  138.0790 C   0  0  0  0  0  0  0  0  0  0  0  0
  193.8660  175.4810  137.4610 C   0  0  0  0  0  3  0  0  0  0  0  0
  191.2970  174.4330  137.1200 C   0  0  0  0  0  3  0  0  0  0  0  0
  190.3410  175.9560  138.8620 C   0  0  2  0  0  3  0  0  0  0  0  0
  191.8990  177.6770  139.8670 C   0  0  0  0  0  2  0  0  0  0  0  0
  193.1350  176.9560  139.3320 C   0  0  0  0  0  2  0  0  0  0  0  0
  189.6760  177.2760  140.9750 C   0  0  0  0  0  2  0  0  0  0  0  0
  189.2800  176.3410  142.1100 C   0  0  0  0  0  2  0  0  0  0  0  0
  191.2680  177.4170  145.0700 C   0  0  0  0  0  2  0  0  0  0  0  0
  190.2320  177.4590  146.2140 C   0  0  1  0  0  3  0  0  0  0  0  0
  188.5640  176.8060  144.4210 C   0  0  0  0  0  3  0  0  0  0  0  0
  190.6750  177.8270  143.7200 C   0  0  0  0  0  2  0  0  0  0  0  0
  189.4630  176.9870  143.4460 C   0  0  0  0  0  0  0  0  0  0  0  0
  188.7610  177.4800  145.7510 C   0  0  0  0  0  2  0  0  0  0  0  0
  191.8320  176.2690  147.1760 C   0  0  0  0  0  1  0  0  0  0  0  0
  190.4430  176.3810  147.0760 O   0  0  0  0  0  0  0  0  0  0  0  0
  185.7030  176.3040  136.9080 C   0  0  0  0  0  2  0  0  0  0  0  0
  184.4110  177.5740  136.7010 S   0  0  0  0  0  0  0  0  0  0  0  0
  183.6280  177.1110  138.2750 C   0  0  0  0  0  2  0  0  0  0  0  0
  182.6720  178.1320  138.7000 N   0  0  0  0  0  0  0  0  0  0  0  0
  182.6860  178.6310  140.0570 C   0  0  0  0  0  0  0  0  0  0  0  0
  181.6260  179.1030  140.5530 O   0  0  0  0  0  0  0  0  0  0  0  0
  183.9080  178.6130  140.8960 C   0  0  0  0  0  0  0  0  0  0  0  0
  186.3170  178.8990  141.0920 C   0  0  0  0  0  3  0  0  0  0  0  0
  185.0290  178.1960  143.0150 C   0  0  0  0  0  3  0  0  0  0  0  0
  186.2560  178.5300  142.4380 C   0  0  0  0  0  3  0  0  0  0  0  0
  183.8620  178.2330  142.2460 C   0  0  0  0  0  3  0  0  0  0  0  0
  185.1490  178.9370  140.3250 C   0  0  0  0  0  3  0  0  0  0  0  0
  180.6240  179.4140  138.0850 C   0  0  0  0  0  2  0  0  0  0  0  0
  180.2050  177.0080  138.0110 C   0  0  0  0  0  1  0  0  0  0  0  0
  181.9720  178.8700  137.6390 C   0  0  2  0  0  3  0  0  0  0  0  0
  180.6610  178.2000  137.1870 C   0  0  2  0  0  3  0  0  0  0  0  0
  2 28  1  1  0  0  0
  2  1  1  0  0  0  0
  2  4  1  0  0  0  0
  3  1  1  0  0  0  0
  3  6  1  0  0  0  0
  5  4  1  1  0  0  0
  5  6  1  0  0  0  0
  5 15  1  0  0  0  0
  7 13  1  0  0  0  0
  8 18  1  6  0  0  0
  9 17  1  0  0  0  0
 10  7  2  0  0  0  0
 10 14  1  0  0  0  0
 11  7  1  0  0  0  0
 12  9  1  0  0  0  0
 13  9  2  0  0  0  0
 14 12  2  0  0  0  0
 15 12  1  6  0  0  0
 15  8  1  0  0  0  0
 16  8  1  0  0  0  0
 17 16  1  0  0  0  0
 18 19  1  0  0  0  0
 19 24  1  0  0  0  0
 20 21  1  0  0  0  0
 21 27  1  1  0  0  0
 22 25  1  0  0  0  0
 23 20  1  0  0  0  0
 24 23  1  0  0  0  0
 24 22  2  0  0  0  0
 25 21  1  0  0  0  0
 27 26  1  0  0  0  0
 29 28  1  0  0  0  0
 29 30  1  0  0  0  0
 30 31  1  0  0  0  0
 31 32  1  0  0  0  0
 32 33  2  0  0  0  0
 32 34  1  0  0  0  0
 34 38  1  0  0  0  0
 35 37  2  0  0  0  0
 37 36  1  0  0  0  0
 38 36  2  0  0  0  0
 39 34  2  0  0  0  0
 39 35  1  0  0  0  0
 42 40  1  0  0  0  0
 42 31  1  1  0  0  0
 43 42  1  0  0  0  0
 43 41  1  1  0  0  0
 43 40  1  0  0  0  0
M  END
>  <MODEL>
4

>  <REMARK>
 VINA RESULT:      -8.2      3.234      9.417
  Name = 
  11 active torsions:
  status: ('A' for Active; 'I' for Inactive)
    1  A    between atoms: C_1  and  C_34
    2  A    between atoms: C_1  and  C_35
    3  A    between atoms: C_3  and  N_4
    4  A    between atoms: C_3  and  S_12
    5  A    between atoms: N_4  and  C_22
    6  A    between atoms: C_6  and  C_17
    7  A    between atoms: C_8  and  C_34
    8  A    between atoms: C_11  and  C_14
    9  A    between atoms: S_12  and  C_17
   10  A    between atoms: C_19  and  O_37
   11  A    between atoms: C_27  and  C_30
                            x       y       z     vdW  Elec       q    Type
                         _______ _______ _______ _____ _____    ______ ____

>  <TORSDO>
F 11

$$$$
=
 OpenBabel11052416143D

 43 48  0  0  1  0  0  0  0  0999 V2000
  189.2430  176.9350  142.2190 C   0  0  0  0  0  2  0  0  0  0  0  0
  188.6500  177.5210  140.9360 C   0  0  1  0  0  3  0  0  0  0  0  0
  188.1280  176.4240  143.1280 C   0  0  0  0  0  2  0  0  0  0  0  0
  187.6630  178.6430  141.2500 C   0  0  0  0  0  2  0  0  0  0  0  0
  186.5680  178.1470  142.1880 C   0  0  1  0  0  3  0  0  0  0  0  0
  187.1610  177.5540  143.4690 C   0  0  0  0  0  2  0  0  0  0  0  0
  182.3710  178.7180  139.5040 C   0  0  0  0  0  0  0  0  0  0  0  0
  184.9490  179.3540  143.8680 C   0  0  1  0  0  3  0  0  0  0  0  0
  183.0980  178.6100  141.8160 C   0  0  0  0  0  0  0  0  0  0  0  0
  183.6320  179.1800  139.1230 C   0  0  0  0  0  3  0  0  0  0  0  0
  181.3530  178.5390  138.5260 N   0  0  0  0  0  1  0  0  0  0  0  0
  184.3750  179.0840  141.4300 C   0  0  0  0  0  0  0  0  0  0  0  0
  182.1040  178.4440  140.8470 C   0  0  0  0  0  3  0  0  0  0  0  0
  184.6310  179.3600  140.0820 C   0  0  0  0  0  3  0  0  0  0  0  0
  185.4950  179.2290  142.4280 C   0  0  2  0  0  3  0  0  0  0  0  0
  183.9440  178.2530  144.1720 C   0  0  0  0  0  2  0  0  0  0  0  0
  182.7290  178.4010  143.2590 C   0  0  0  0  0  2  0  0  0  0  0  0
  186.0210  179.4450  144.9440 C   0  0  0  0  0  2  0  0  0  0  0  0
  185.5320  178.7970  146.2320 C   0  0  0  0  0  2  0  0  0  0  0  0
  188.7490  178.8450  148.1080 C   0  0  0  0  0  2  0  0  0  0  0  0
  189.3270  177.4310  147.8840 C   0  0  1  0  0  3  0  0  0  0  0  0
  187.1870  177.0090  146.5930 C   0  0  0  0  0  3  0  0  0  0  0  0
  187.2210  178.8500  148.2050 C   0  0  0  0  0  2  0  0  0  0  0  0
  186.6550  178.1700  146.9940 C   0  0  0  0  0  0  0  0  0  0  0  0
  188.3050  176.3880  147.3850 C   0  0  0  0  0  2  0  0  0  0  0  0
  191.1840  176.3800  147.2950 C   0  0  0  0  0  1  0  0  0  0  0  0
  190.4050  177.5010  146.9990 O   0  0  0  0  0  0  0  0  0  0  0  0
  189.7380  178.0080  139.9870 C   0  0  0  0  0  2  0  0  0  0  0  0
  191.3170  177.1280  140.2250 S   0  0  0  0  0  0  0  0  0  0  0  0
  190.8540  175.8580  139.0090 C   0  0  0  0  0  2  0  0  0  0  0  0
  191.4300  176.1580  137.6990 N   0  0  0  0  0  0  0  0  0  0  0  0
  190.5760  176.4690  136.5750 C   0  0  0  0  0  0  0  0  0  0  0  0
  190.9910  176.2480  135.4040 O   0  0  0  0  0  0  0  0  0  0  0  0
  189.2210  177.0470  136.7450 C   0  0  0  0  0  0  0  0  0  0  0  0
  187.7760  179.0020  136.8430 C   0  0  0  0  0  3  0  0  0  0  0  0
  186.8480  176.8000  137.2210 C   0  0  0  0  0  3  0  0  0  0  0  0
  186.6790  178.1830  137.1220 C   0  0  0  0  0  3  0  0  0  0  0  0
  188.1140  176.2360  137.0380 C   0  0  0  0  0  3  0  0  0  0  0  0
  189.0410  178.4360  136.6580 C   0  0  0  0  0  3  0  0  0  0  0  0
  193.5120  176.1600  136.3260 C   0  0  0  0  0  2  0  0  0  0  0  0
  193.0620  173.9340  137.2290 C   0  0  0  0  0  1  0  0  0  0  0  0
  192.8630  176.4840  137.6630 C   0  0  2  0  0  3  0  0  0  0  0  0
  193.7700  175.2500  137.5030 C   0  0  2  0  0  3  0  0  0  0  0  0
  1  3  1  0  0  0  0
  2 28  1  6  0  0  0
  2  4  1  0  0  0  0
  2  1  1  0  0  0  0
  3  6  1  0  0  0  0
  5  4  1  6  0  0  0
  5 15  1  0  0  0  0
  5  6  1  0  0  0  0
  7 13  1  0  0  0  0
  8 16  1  0  0  0  0
  8 18  1  1  0  0  0
  9 17  1  0  0  0  0
 10  7  2  0  0  0  0
 10 14  1  0  0  0  0
 11  7  1  0  0  0  0
 12  9  1  0  0  0  0
 13  9  2  0  0  0  0
 14 12  2  0  0  0  0
 15 12  1  6  0  0  0
 15  8  1  0  0  0  0
 17 16  1  0  0  0  0
 18 19  1  0  0  0  0
 19 24  1  0  0  0  0
 20 23  1  0  0  0  0
 21 27  1  6  0  0  0
 21 20  1  0  0  0  0
 22 24  2  0  0  0  0
 22 25  1  0  0  0  0
 24 23  1  0  0  0  0
 25 21  1  0  0  0  0
 27 26  1  0  0  0  0
 28 29  1  0  0  0  0
 30 29  1  0  0  0  0
 31 30  1  0  0  0  0
 32 34  1  0  0  0  0
 32 31  1  0  0  0  0
 33 32  2  0  0  0  0
 34 38  1  0  0  0  0
 35 37  2  0  0  0  0
 37 36  1  0  0  0  0
 38 36  2  0  0  0  0
 39 34  2  0  0  0  0
 39 35  1  0  0  0  0
 40 43  1  0  0  0  0
 40 42  1  0  0  0  0
 42 31  1  6  0  0  0
 43 41  1  6  0  0  0
 43 42  1  0  0  0  0
M  END
>  <MODEL>
5

>  <REMARK>
 VINA RESULT:      -8.1      2.696      6.212
  Name = 
  11 active torsions:
  status: ('A' for Active; 'I' for Inactive)
    1  A    between atoms: C_1  and  C_34
    2  A    between atoms: C_1  and  C_35
    3  A    between atoms: C_3  and  N_4
    4  A    between atoms: C_3  and  S_12
    5  A    between atoms: N_4  and  C_22
    6  A    between atoms: C_6  and  C_17
    7  A    between atoms: C_8  and  C_34
    8  A    between atoms: C_11  and  C_14
    9  A    between atoms: S_12  and  C_17
   10  A    between atoms: C_19  and  O_37
   11  A    between atoms: C_27  and  C_30
                            x       y       z     vdW  Elec       q    Type
                         _______ _______ _______ _____ _____    ______ ____

>  <TORSDO>
F 11

$$$$
=
 OpenBabel11052416143D

 43 48  0  0  1  0  0  0  0  0999 V2000
  190.0730  178.7890  142.2990 C   0  0  0  0  0  2  0  0  0  0  0  0
  189.9120  177.2690  142.2400 C   0  0  1  0  0  3  0  0  0  0  0  0
  190.9580  179.1800  143.4800 C   0  0  0  0  0  2  0  0  0  0  0  0
  189.3300  176.7270  143.5430 C   0  0  0  0  0  2  0  0  0  0  0  0
  190.1900  177.1460  144.7300 C   0  0  1  0  0  3  0  0  0  0  0  0
  190.3570  178.6680  144.7860 C   0  0  0  0  0  2  0  0  0  0  0  0
  192.7990  176.8730  149.0040 C   0  0  0  0  0  0  0  0  0  0  0  0
  188.3130  176.9980  146.5630 C   0  0  1  0  0  3  0  0  0  0  0  0
  190.5970  177.5110  148.2080 C   0  0  0  0  0  0  0  0  0  0  0  0
  192.9440  176.0020  147.9230 C   0  0  0  0  0  3  0  0  0  0  0  0
  193.8400  176.9930  149.9660 N   0  0  0  0  0  1  0  0  0  0  0  0
  190.7420  176.6250  147.1140 C   0  0  0  0  0  0  0  0  0  0  0  0
  191.6250  177.6170  149.1500 C   0  0  0  0  0  3  0  0  0  0  0  0
  191.9200  175.8800  146.9800 C   0  0  0  0  0  3  0  0  0  0  0  0
  189.6870  176.5150  146.0440 C   0  0  2  0  0  3  0  0  0  0  0  0
  188.4260  178.3610  147.2290 C   0  0  0  0  0  2  0  0  0  0  0  0
  189.3150  178.2550  148.4660 C   0  0  0  0  0  2  0  0  0  0  0  0
  187.2030  176.9750  145.5220 C   0  0  0  0  0  2  0  0  0  0  0  0
  186.2340  178.1260  145.7590 C   0  0  0  0  0  2  0  0  0  0  0  0
  183.4010  178.6950  143.4100 C   0  0  0  0  0  2  0  0  0  0  0  0
  184.0690  178.6910  142.0180 C   0  0  1  0  0  3  0  0  0  0  0  0
  186.2280  178.3830  143.3090 C   0  0  0  0  0  3  0  0  0  0  0  0
  184.2950  179.3030  144.4940 C   0  0  0  0  0  2  0  0  0  0  0  0
  185.6200  178.6000  144.4810 C   0  0  0  0  0  0  0  0  0  0  0  0
  185.6000  178.8830  142.0380 C   0  0  0  0  0  2  0  0  0  0  0  0
  182.7750  177.8780  140.4170 C   0  0  0  0  0  1  0  0  0  0  0  0
  183.7480  177.5090  141.3490 O   0  0  0  0  0  0  0  0  0  0  0  0
  189.0640  176.8400  141.0490 C   0  0  0  0  0  2  0  0  0  0  0  0
  188.6820  178.2280  139.9290 S   0  0  0  0  0  0  0  0  0  0  0  0
  187.8010  177.1280  138.7800 C   0  0  0  0  0  2  0  0  0  0  0  0
  187.9190  177.6120  137.4050 N   0  0  0  0  0  0  0  0  0  0  0  0
  189.1600  177.4640  136.6780 C   0  0  0  0  0  0  0  0  0  0  0  0
  189.4280  178.2660  135.7430 O   0  0  0  0  0  0  0  0  0  0  0  0
  190.1390  176.3940  136.9900 C   0  0  0  0  0  0  0  0  0  0  0  0
  192.2610  175.7190  137.9700 C   0  0  0  0  0  3  0  0  0  0  0  0
  190.8840  174.0830  136.8400 C   0  0  0  0  0  3  0  0  0  0  0  0
  192.0450  174.4050  137.5470 C   0  0  0  0  0  3  0  0  0  0  0  0
  189.9390  175.0730  136.5600 C   0  0  0  0  0  3  0  0  0  0  0  0
  191.3140  176.7080  137.6910 C   0  0  0  0  0  3  0  0  0  0  0  0
  185.4360  177.3890  137.4220 C   0  0  0  0  0  2  0  0  0  0  0  0
  186.4950  175.3140  136.6830 C   0  0  0  0  0  1  0  0  0  0  0  0
  186.6660  177.9030  136.6930 C   0  0  2  0  0  3  0  0  0  0  0  0
  185.9290  176.6420  136.2060 C   0  0  2  0  0  3  0  0  0  0  0  0
  1  3  1  0  0  0  0
  2 28  1  6  0  0  0
  2  1  1  0  0  0  0
  2  4  1  0  0  0  0
  3  6  1  0  0  0  0
  5  4  1  6  0  0  0
  5  6  1  0  0  0  0
  5 15  1  0  0  0  0
  7 13  1  0  0  0  0
  7 11  1  0  0  0  0
  8 18  1  6  0  0  0
  8 16  1  0  0  0  0
  9 17  1  0  0  0  0
  9 13  2  0  0  0  0
 10  7  2  0  0  0  0
 12  9  1  0  0  0  0
 14 12  2  0  0  0  0
 14 10  1  0  0  0  0
 15  8  1  0  0  0  0
 15 12  1  1  0  0  0
 16 17  1  0  0  0  0
 18 19  1  0  0  0  0
 20 23  1  0  0  0  0
 21 27  1  1  0  0  0
 21 25  1  0  0  0  0
 21 20  1  0  0  0  0
 22 24  2  0  0  0  0
 24 23  1  0  0  0  0
 24 19  1  0  0  0  0
 25 22  1  0  0  0  0
 26 27  1  0  0  0  0
 29 28  1  0  0  0  0
 30 29  1  0  0  0  0
 31 30  1  0  0  0  0
 32 34  1  0  0  0  0
 32 31  1  0  0  0  0
 33 32  2  0  0  0  0
 34 39  1  0  0  0  0
 36 37  2  0  0  0  0
 37 35  1  0  0  0  0
 38 36  1  0  0  0  0
 38 34  2  0  0  0  0
 39 35  2  0  0  0  0
 42 31  1  1  0  0  0
 42 40  1  0  0  0  0
 43 41  1  1  0  0  0
 43 42  1  0  0  0  0
 43 40  1  0  0  0  0
M  END
>  <MODEL>
6

>  <REMARK>
 VINA RESULT:      -8.1      2.379      4.760
  Name = 
  11 active torsions:
  status: ('A' for Active; 'I' for Inactive)
    1  A    between atoms: C_1  and  C_34
    2  A    between atoms: C_1  and  C_35
    3  A    between atoms: C_3  and  N_4
    4  A    between atoms: C_3  and  S_12
    5  A    between atoms: N_4  and  C_22
    6  A    between atoms: C_6  and  C_17
    7  A    between atoms: C_8  and  C_34
    8  A    between atoms: C_11  and  C_14
    9  A    between atoms: S_12  and  C_17
   10  A    between atoms: C_19  and  O_37
   11  A    between atoms: C_27  and  C_30
                            x       y       z     vdW  Elec       q    Type
                         _______ _______ _______ _____ _____    ______ ____

>  <TORSDO>
F 11

$$$$
=
 OpenBabel11052416143D

 43 48  0  0  1  0  0  0  0  0999 V2000
  183.8150  179.3130  143.7820 C   0  0  0  0  0  2  0  0  0  0  0  0
  184.6650  178.3310  142.9740 C   0  0  1  0  0  3  0  0  0  0  0  0
  182.3310  179.0030  143.5950 C   0  0  0  0  0  2  0  0  0  0  0  0
  184.2940  178.3720  141.4930 C   0  0  0  0  0  2  0  0  0  0  0  0
  182.8060  178.1010  141.3040 C   0  0  1  0  0  3  0  0  0  0  0  0
  181.9550  179.0800  142.1190 C   0  0  0  0  0  2  0  0  0  0  0  0
  186.0590  177.6990  137.5080 C   0  0  0  0  0  0  0  0  0  0  0  0
  181.3770  176.9640  139.4160 C   0  0  1  0  0  3  0  0  0  0  0  0
  184.0010  176.6920  138.3080 C   0  0  0  0  0  0  0  0  0  0  0  0
  185.7350  178.8910  138.1610 C   0  0  0  0  0  3  0  0  0  0  0  0
  187.2670  177.6010  136.7640 N   0  0  0  0  0  1  0  0  0  0  0  0
  183.6710  177.9010  138.9650 C   0  0  0  0  0  0  0  0  0  0  0  0
  185.1890  176.6080  137.5750 C   0  0  0  0  0  3  0  0  0  0  0  0
  184.5470  178.9910  138.8880 C   0  0  0  0  0  3  0  0  0  0  0  0
  182.4300  178.0240  139.8110 C   0  0  2  0  0  3  0  0  0  0  0  0
  181.9920  175.5730  139.3600 C   0  0  0  0  0  2  0  0  0  0  0  0
  183.0520  175.5260  138.2610 C   0  0  0  0  0  2  0  0  0  0  0  0
  180.1140  176.9830  140.2650 C   0  0  0  0  0  2  0  0  0  0  0  0
  178.9310  177.4690  139.4390 C   0  0  0  0  0  2  0  0  0  0  0  0
  180.4500  180.0560  137.2330 C   0  0  0  0  0  2  0  0  0  0  0  0
  180.4090  181.3410  138.0880 C   0  0  1  0  0  3  0  0  0  0  0  0
  179.2570  179.8820  139.8120 C   0  0  0  0  0  3  0  0  0  0  0  0
  179.2460  179.1440  137.4790 C   0  0  0  0  0  2  0  0  0  0  0  0
  179.1380  178.8660  138.9480 C   0  0  0  0  0  0  0  0  0  0  0  0
  179.4490  181.2820  139.2950 C   0  0  0  0  0  2  0  0  0  0  0  0
  181.9450  182.9330  138.0200 C   0  0  0  0  0  1  0  0  0  0  0  0
  181.6980  181.6540  138.5230 O   0  0  0  0  0  0  0  0  0  0  0  0
  186.1540  178.5870  143.1660 C   0  0  0  0  0  2  0  0  0  0  0  0
  186.8380  177.6860  144.5970 S   0  0  0  0  0  0  0  0  0  0  0  0
  188.1580  176.9610  143.5780 C   0  0  0  0  0  2  0  0  0  0  0  0
  189.1730  177.9620  143.2540 N   0  0  0  0  0  0  0  0  0  0  0  0
  190.1360  178.3800  144.2470 C   0  0  0  0  0  0  0  0  0  0  0  0
  190.6600  179.5240  144.1570 O   0  0  0  0  0  0  0  0  0  0  0  0
  190.5390  177.5080  145.3760 C   0  0  0  0  0  0  0  0  0  0  0  0
  190.1840  176.7370  147.6570 C   0  0  0  0  0  3  0  0  0  0  0  0
  192.0540  175.8890  146.3790 C   0  0  0  0  0  3  0  0  0  0  0  0
  191.3090  175.9130  147.5590 C   0  0  0  0  0  3  0  0  0  0  0  0
  191.6740  176.6850  145.2950 C   0  0  0  0  0  3  0  0  0  0  0  0
  189.8040  177.5320  146.5710 C   0  0  0  0  0  3  0  0  0  0  0  0
  188.8950  177.1300  140.9190 C   0  0  0  0  0  2  0  0  0  0  0  0
  190.8100  176.0680  142.0050 C   0  0  0  0  0  1  0  0  0  0  0  0
  189.4010  178.2390  141.8280 C   0  0  2  0  0  3  0  0  0  0  0  0
  190.3810  177.2560  141.1610 C   0  0  2  0  0  3  0  0  0  0  0  0
  2 28  1  6  0  0  0
  2  1  1  0  0  0  0
  3  1  1  0  0  0  0
  4  2  1  0  0  0  0
  5  4  1  6  0  0  0
  5  6  1  0  0  0  0
  6  3  1  0  0  0  0
  7 13  2  0  0  0  0
  7 10  1  0  0  0  0
  8 15  1  0  0  0  0
  8 18  1  1  0  0  0
  9 12  2  0  0  0  0
 10 14  2  0  0  0  0
 11  7  1  0  0  0  0
 13  9  1  0  0  0  0
 14 12  1  0  0  0  0
 15 12  1  6  0  0  0
 15  5  1  0  0  0  0
 16  8  1  0  0  0  0
 17  9  1  0  0  0  0
 17 16  1  0  0  0  0
 19 18  1  0  0  0  0
 20 23  1  0  0  0  0
 20 21  1  0  0  0  0
 21 27  1  1  0  0  0
 21 25  1  0  0  0  0
 23 24  1  0  0  0  0
 24 19  1  0  0  0  0
 24 22  2  0  0  0  0
 25 22  1  0  0  0  0
 26 27  1  0  0  0  0
 28 29  1  0  0  0  0
 30 29  1  0  0  0  0
 31 30  1  0  0  0  0
 31 32  1  0  0  0  0
 32 34  1  0  0  0  0
 33 32  2  0  0  0  0
 34 39  1  0  0  0  0
 36 37  2  0  0  0  0
 37 35  1  0  0  0  0
 38 34  2  0  0  0  0
 38 36  1  0  0  0  0
 39 35  2  0  0  0  0
 40 43  1  0  0  0  0
 40 42  1  0  0  0  0
 42 31  1  1  0  0  0
 43 42  1  0  0  0  0
 43 41  1  1  0  0  0
M  END
>  <MODEL>
7

>  <REMARK>
 VINA RESULT:      -7.9      3.234      7.123
  Name = 
  11 active torsions:
  status: ('A' for Active; 'I' for Inactive)
    1  A    between atoms: C_1  and  C_34
    2  A    between atoms: C_1  and  C_35
    3  A    between atoms: C_3  and  N_4
    4  A    between atoms: C_3  and  S_12
    5  A    between atoms: N_4  and  C_22
    6  A    between atoms: C_6  and  C_17
    7  A    between atoms: C_8  and  C_34
    8  A    between atoms: C_11  and  C_14
    9  A    between atoms: S_12  and  C_17
   10  A    between atoms: C_19  and  O_37
   11  A    between atoms: C_27  and  C_30
                            x       y       z     vdW  Elec       q    Type
                         _______ _______ _______ _____ _____    ______ ____

>  <TORSDO>
F 11

$$$$
=
 OpenBabel11052416143D

 43 48  0  0  1  0  0  0  0  0999 V2000
  188.9730  178.3520  140.1180 C   0  0  0  0  0  2  0  0  0  0  0  0
  189.6140  176.9660  140.2120 C   0  0  1  0  0  3  0  0  0  0  0  0
  188.2240  178.4980  138.7960 C   0  0  0  0  0  2  0  0  0  0  0  0
  190.5550  176.7160  139.0360 C   0  0  0  0  0  2  0  0  0  0  0  0
  189.8210  176.8970  137.7120 C   0  0  1  0  0  3  0  0  0  0  0  0
  189.1740  178.2820  137.6220 C   0  0  0  0  0  2  0  0  0  0  0  0
  194.1010  174.2970  137.9690 C   0  0  0  0  0  0  0  0  0  0  0  0
  190.0290  175.8590  135.3080 C   0  0  1  0  0  3  0  0  0  0  0  0
  192.0400  174.3640  136.6890 C   0  0  0  0  0  0  0  0  0  0  0  0
  193.9750  175.6580  138.2530 C   0  0  0  0  0  3  0  0  0  0  0  0
  195.2150  173.5660  138.4680 N   0  0  0  0  0  1  0  0  0  0  0  0
  191.9150  175.7440  136.9740 C   0  0  0  0  0  0  0  0  0  0  0  0
  193.1420  173.6560  137.1810 C   0  0  0  0  0  3  0  0  0  0  0  0
  192.8850  176.3790  137.7590 C   0  0  0  0  0  3  0  0  0  0  0  0
  190.7200  176.5380  136.5120 C   0  0  2  0  0  3  0  0  0  0  0  0
  189.7650  174.3860  135.5860 C   0  0  0  0  0  2  0  0  0  0  0  0
  191.0930  173.6520  135.7620 C   0  0  0  0  0  2  0  0  0  0  0  0
  188.7750  176.5680  134.8190 C   0  0  0  0  0  2  0  0  0  0  0  0
  187.5870  175.6160  134.8430 C   0  0  0  0  0  2  0  0  0  0  0  0
  184.8170  174.8740  137.2190 C   0  0  0  0  0  2  0  0  0  0  0  0
  184.2010  176.2590  137.5120 C   0  0  1  0  0  3  0  0  0  0  0  0
  186.0340  177.1390  135.9990 C   0  0  0  0  0  3  0  0  0  0  0  0
  186.3320  174.9320  137.0120 C   0  0  0  0  0  2  0  0  0  0  0  0
  186.6400  175.9470  135.9520 C   0  0  0  0  0  0  0  0  0  0  0  0
  185.0970  177.4560  137.1330 C   0  0  0  0  0  2  0  0  0  0  0  0
  182.7850  175.1390  136.2320 C   0  0  0  0  0  1  0  0  0  0  0  0
  182.9660  176.3680  136.8690 O   0  0  0  0  0  0  0  0  0  0  0  0
  190.3400  176.7710  141.5370 C   0  0  0  0  0  2  0  0  0  0  0  0
  189.2810  176.0000  142.8060 S   0  0  0  0  0  0  0  0  0  0  0  0
  189.0290  177.5950  143.6420 C   0  0  0  0  0  2  0  0  0  0  0  0
  188.9560  177.4150  145.0910 N   0  0  0  0  0  0  0  0  0  0  0  0
  187.8490  177.9630  145.8440 C   0  0  0  0  0  0  0  0  0  0  0  0
  188.0090  178.2420  147.0630 O   0  0  0  0  0  0  0  0  0  0  0  0
  186.5200  178.2080  145.2340 C   0  0  0  0  0  0  0  0  0  0  0  0
  184.2100  178.9340  145.4700 C   0  0  0  0  0  3  0  0  0  0  0  0
  184.9980  178.1080  143.3380 C   0  0  0  0  0  3  0  0  0  0  0  0
  183.9710  178.6290  144.1280 C   0  0  0  0  0  3  0  0  0  0  0  0
  186.2640  177.8940  143.8900 C   0  0  0  0  0  3  0  0  0  0  0  0
  185.4770  178.7220  146.0210 C   0  0  0  0  0  3  0  0  0  0  0  0
  190.5940  176.8700  146.8900 C   0  0  0  0  0  2  0  0  0  0  0  0
  191.6700  178.0930  145.0670 C   0  0  0  0  0  1  0  0  0  0  0  0
  189.8190  176.3800  145.6770 C   0  0  2  0  0  3  0  0  0  0  0  0
  191.3210  176.7040  145.5770 C   0  0  2  0  0  3  0  0  0  0  0  0
  1  2  1  0  0  0  0
  2 28  1  1  0  0  0
  3  1  1  0  0  0  0
  4  2  1  0  0  0  0
  5  6  1  6  0  0  0
  5  4  1  0  0  0  0
  6  3  1  0  0  0  0
  7 10  1  0  0  0  0
  7 11  1  0  0  0  0
  8 18  1  1  0  0  0
  8 16  1  0  0  0  0
  8 15  1  0  0  0  0
  9 12  2  0  0  0  0
  9 13  1  0  0  0  0
 12 14  1  0  0  0  0
 13  7  2  0  0  0  0
 14 10  2  0  0  0  0
 15 12  1  1  0  0  0
 15  5  1  0  0  0  0
 16 17  1  0  0  0  0
 17  9  1  0  0  0  0
 18 19  1  0  0  0  0
 19 24  1  0  0  0  0
 20 21  1  0  0  0  0
 21 27  1  6  0  0  0
 22 25  1  0  0  0  0
 23 20  1  0  0  0  0
 24 22  2  0  0  0  0
 24 23  1  0  0  0  0
 25 21  1  0  0  0  0
 26 27  1  0  0  0  0
 28 29  1  0  0  0  0
 29 30  1  0  0  0  0
 30 31  1  0  0  0  0
 31 32  1  0  0  0  0
 32 33  2  0  0  0  0
 34 32  1  0  0  0  0
 34 39  1  0  0  0  0
 35 39  2  0  0  0  0
 36 38  1  0  0  0  0
 36 37  2  0  0  0  0
 37 35  1  0  0  0  0
 38 34  2  0  0  0  0
 42 31  1  6  0  0  0
 42 40  1  0  0  0  0
 43 41  1  6  0  0  0
 43 42  1  0  0  0  0
 43 40  1  0  0  0  0
M  END
>  <MODEL>
8

>  <REMARK>
 VINA RESULT:      -7.8      2.808      8.423
  Name = 
  11 active torsions:
  status: ('A' for Active; 'I' for Inactive)
    1  A    between atoms: C_1  and  C_34
    2  A    between atoms: C_1  and  C_35
    3  A    between atoms: C_3  and  N_4
    4  A    between atoms: C_3  and  S_12
    5  A    between atoms: N_4  and  C_22
    6  A    between atoms: C_6  and  C_17
    7  A    between atoms: C_8  and  C_34
    8  A    between atoms: C_11  and  C_14
    9  A    between atoms: S_12  and  C_17
   10  A    between atoms: C_19  and  O_37
   11  A    between atoms: C_27  and  C_30
                            x       y       z     vdW  Elec       q    Type
                         _______ _______ _______ _____ _____    ______ ____

>  <TORSDO>
F 11

$$$$
=
 OpenBabel11052416143D

 43 48  0  0  1  0  0  0  0  0999 V2000
  185.1600  178.8340  144.2580 C   0  0  0  0  0  2  0  0  0  0  0  0
  185.5530  177.8950  143.1160 C   0  0  1  0  0  3  0  0  0  0  0  0
  183.6510  178.7840  144.4840 C   0  0  0  0  0  2  0  0  0  0  0  0
  184.8100  178.2510  141.8310 C   0  0  0  0  0  2  0  0  0  0  0  0
  183.3030  178.2400  142.0620 C   0  0  1  0  0  3  0  0  0  0  0  0
  182.9100  179.1750  143.2090 C   0  0  0  0  0  2  0  0  0  0  0  0
  185.1070  177.4980  137.4420 C   0  0  0  0  0  0  0  0  0  0  0  0
  181.1350  177.8240  140.6380 C   0  0  1  0  0  3  0  0  0  0  0  0
  183.1410  176.9970  138.7720 C   0  0  0  0  0  0  0  0  0  0  0  0
  185.3560  178.6270  138.2250 C   0  0  0  0  0  3  0  0  0  0  0  0
  185.9750  177.1760  136.3620 N   0  0  0  0  0  1  0  0  0  0  0  0
  183.3900  178.1440  139.5630 C   0  0  0  0  0  0  0  0  0  0  0  0
  183.9970  176.6930  137.7100 C   0  0  0  0  0  3  0  0  0  0  0  0
  184.5020  178.9480  139.2830 C   0  0  0  0  0  3  0  0  0  0  0  0
  182.5280  178.4830  140.7510 C   0  0  2  0  0  3  0  0  0  0  0  0
  181.2540  176.3400  140.3230 C   0  0  0  0  0  2  0  0  0  0  0  0
  181.9050  176.1580  138.9530 C   0  0  0  0  0  2  0  0  0  0  0  0
  180.2220  178.0700  141.8300 C   0  0  0  0  0  2  0  0  0  0  0  0
  178.9310  178.7380  141.3760 C   0  0  0  0  0  2  0  0  0  0  0  0
  180.3670  179.8770  138.1330 C   0  0  0  0  0  2  0  0  0  0  0  0
  180.5150  181.4030  138.3120 C   0  0  1  0  0  3  0  0  0  0  0  0
  179.4680  181.0090  140.5860 C   0  0  0  0  0  3  0  0  0  0  0  0
  179.1370  179.3150  138.8510 C   0  0  0  0  0  2  0  0  0  0  0  0
  179.1790  179.7360  140.2900 C   0  0  0  0  0  0  0  0  0  0  0  0
  179.6980  181.9990  139.4770 C   0  0  0  0  0  2  0  0  0  0  0  0
  181.9780  183.0290  137.9720 C   0  0  0  0  0  1  0  0  0  0  0  0
  181.8650  181.7270  138.4650 O   0  0  0  0  0  0  0  0  0  0  0  0
  187.0590  177.8900  142.8870 C   0  0  0  0  0  2  0  0  0  0  0  0
  187.9640  177.0160  144.2070 S   0  0  0  0  0  0  0  0  0  0  0  0
  189.1880  176.3810  143.0230 C   0  0  0  0  0  2  0  0  0  0  0  0
  190.3690  177.2420  142.9850 N   0  0  0  0  0  0  0  0  0  0  0  0
  191.0730  177.4690  141.7430 C   0  0  0  0  0  0  0  0  0  0  0  0
  192.2970  177.7720  141.7730 O   0  0  0  0  0  0  0  0  0  0  0  0
  190.4060  177.3620  140.4230 C   0  0  0  0  0  0  0  0  0  0  0  0
  188.6830  178.1190  138.8810 C   0  0  0  0  0  3  0  0  0  0  0  0
  190.1270  176.2800  138.2620 C   0  0  0  0  0  3  0  0  0  0  0  0
  189.0770  177.1490  137.9560 C   0  0  0  0  0  3  0  0  0  0  0  0
  190.7850  176.3840  139.4910 C   0  0  0  0  0  3  0  0  0  0  0  0
  189.3430  178.2230  140.1090 C   0  0  0  0  0  3  0  0  0  0  0  0
  192.0530  178.4030  144.4120 C   0  0  0  0  0  2  0  0  0  0  0  0
  191.8470  176.0500  145.0400 C   0  0  0  0  0  1  0  0  0  0  0  0
  190.5830  178.1290  144.1390 C   0  0  2  0  0  3  0  0  0  0  0  0
  191.3100  177.4460  145.3120 C   0  0  2  0  0  3  0  0  0  0  0  0
  1  3  1  0  0  0  0
  2 28  1  6  0  0  0
  2  1  1  0  0  0  0
  4  2  1  0  0  0  0
  5  4  1  6  0  0  0
  5  6  1  0  0  0  0
  6  3  1  0  0  0  0
  7 13  2  0  0  0  0
  7 10  1  0  0  0  0
  8 15  1  0  0  0  0
  8 18  1  1  0  0  0
  9 17  1  0  0  0  0
  9 12  2  0  0  0  0
 10 14  2  0  0  0  0
 11  7  1  0  0  0  0
 13  9  1  0  0  0  0
 14 12  1  0  0  0  0
 15 12  1  6  0  0  0
 15  5  1  0  0  0  0
 16  8  1  0  0  0  0
 17 16  1  0  0  0  0
 19 18  1  0  0  0  0
 20 21  1  0  0  0  0
 20 23  1  0  0  0  0
 21 27  1  1  0  0  0
 21 25  1  0  0  0  0
 23 24  1  0  0  0  0
 24 22  2  0  0  0  0
 24 19  1  0  0  0  0
 25 22  1  0  0  0  0
 26 27  1  0  0  0  0
 28 29  1  0  0  0  0
 30 29  1  0  0  0  0
 31 30  1  0  0  0  0
 32 33  2  0  0  0  0
 32 31  1  0  0  0  0
 34 32  1  0  0  0  0
 35 39  2  0  0  0  0
 36 38  1  0  0  0  0
 37 36  2  0  0  0  0
 37 35  1  0  0  0  0
 38 34  2  0  0  0  0
 39 34  1  0  0  0  0
 40 43  1  0  0  0  0
 42 31  1  6  0  0  0
 42 40  1  0  0  0  0
 42 43  1  0  0  0  0
 43 41  1  6  0  0  0
M  END
>  <MODEL>
9

>  <REMARK>
 VINA RESULT:      -7.7      2.706      6.003
  Name = 
  11 active torsions:
  status: ('A' for Active; 'I' for Inactive)
    1  A    between atoms: C_1  and  C_34
    2  A    between atoms: C_1  and  C_35
    3  A    between atoms: C_3  and  N_4
    4  A    between atoms: C_3  and  S_12
    5  A    between atoms: N_4  and  C_22
    6  A    between atoms: C_6  and  C_17
    7  A    between atoms: C_8  and  C_34
    8  A    between atoms: C_11  and  C_14
    9  A    between atoms: S_12  and  C_17
   10  A    between atoms: C_19  and  O_37
   11  A    between atoms: C_27  and  C_30
                            x       y       z     vdW  Elec       q    Type
                         _______ _______ _______ _____ _____    ______ ____

>  <TORSDO>
F 11

$$$$
