=
 OpenBabel11052413343D

 28 32  0  0  1  0  0  0  0  0999 V2000
  184.5320  178.5350  143.1820 N   0  0  0  0  0  0  0  0  0  0  0  0
  189.2770  177.7000  141.0830 C   0  0  0  0  0  2  0  0  0  0  0  0
  187.3810  177.8110  147.0380 C   0  0  0  0  0  2  0  0  0  0  0  0
  190.7040  177.5880  143.1550 C   0  0  0  0  0  0  0  0  0  0  0  0
  188.2520  177.8760  143.4010 C   0  0  1  0  0  3  0  0  0  0  0  0
  191.7650  177.6640  140.8930 C   0  0  1  0  0  3  0  0  0  0  0  0
  189.3560  177.2580  142.5440 C   0  0  1  0  0  3  0  0  0  0  0  0
  189.7830  177.7010  145.3660 C   0  0  0  0  0  3  0  0  0  0  0  0
  191.8010  177.7000  142.3990 C   0  0  0  0  0  3  0  0  0  0  0  0
  185.9840  178.2480  145.0940 C   0  0  0  0  0  0  0  0  0  0  0  0
  186.8640  177.5030  142.8960 C   0  0  0  0  0  2  0  0  0  0  0  0
  190.8150  177.7590  144.5750 N   0  0  0  0  0  0  0  0  0  0  0  0
  183.5610  178.8870  145.3870 C   0  0  0  0  0  2  0  0  0  0  0  0
  187.2910  177.9070  145.7140 C   0  0  0  0  0  0  0  0  0  0  0  0
  184.9150  178.7450  145.9120 N   0  0  0  0  0  2  0  0  0  0  0  0
  192.9430  176.8730  140.3630 C   0  0  0  0  0  1  0  0  0  0  0  0
  190.4580  177.0990  140.3340 C   0  0  0  0  0  2  0  0  0  0  0  0
  188.4060  177.3760  144.8420 C   0  0  1  0  0  3  0  0  0  0  0  0
  183.6310  179.3880  143.9540 C   0  0  0  0  0  2  0  0  0  0  0  0
  185.7970  178.1300  143.7590 C   0  0  0  0  0  0  0  0  0  0  0  0
  184.0830  178.1250  141.8540 C   0  0  1  0  0  3  0  0  0  0  0  0
  182.5490  178.1080  141.7470 C   0  0  0  0  0  2  0  0  0  0  0  0
  182.4360  179.0280  139.3780 C   0  0  1  0  0  3  0  0  0  0  0  0
  184.9680  179.0370  140.5270 S   0  0  0  0  0  0  0  0  0  0  0  0
  180.6100  179.2200  140.9150 O   0  0  0  0  0  1  0  0  0  0  0  0
  182.0020  179.2040  140.8370 C   0  0  1  0  0  3  0  0  0  0  0  0
  182.3470  180.3570  138.6550 C   0  0  0  0  0  1  0  0  0  0  0  0
  183.8440  178.4460  139.2200 C   0  0  0  0  0  2  0  0  0  0  0  0
  1 20  1  0  0  0  0
  1 19  1  0  0  0  0
  4 12  1  0  0  0  0
  5 11  1  6  0  0  0
  5 18  1  0  0  0  0
  6 16  1  1  0  0  0
  6  9  1  0  0  0  0
  7  2  1  6  0  0  0
  7  4  1  0  0  0  0
  7  5  1  0  0  0  0
  9  4  2  0  0  0  0
 10 14  1  0  0  0  0
 10 15  1  0  0  0  0
 11 20  1  0  0  0  0
 12  8  2  0  0  0  0
 13 15  1  0  0  0  0
 14  3  2  0  0  0  0
 17  6  1  0  0  0  0
 17  2  1  0  0  0  0
 18  8  1  1  0  0  0
 18 14  1  0  0  0  0
 19 13  1  0  0  0  0
 20 10  2  0  0  0  0
 21 22  1  1  0  0  0
 21  1  1  0  0  0  0
 23 27  1  1  0  0  0
 23 26  1  0  0  0  0
 24 21  1  0  0  0  0
 26 25  1  6  0  0  0
 26 22  1  0  0  0  0
 28 23  1  0  0  0  0
 28 24  1  0  0  0  0
M  END
>  <MODEL>
1

>  <REMARK>
 VINA RESULT:      -9.5      0.000      0.000
  Name = 
  1 active torsions:
  status: ('A' for Active; 'I' for Inactive)
    1  A    between atoms: N_1  and  C_2
                            x       y       z     vdW  Elec       q    Type
                         _______ _______ _______ _____ _____    ______ ____

>  <TORSDO>
F 1

$$$$
=
 OpenBabel11052413343D

 28 32  0  0  1  0  0  0  0  0999 V2000
  190.0550  177.2520  143.4390 N   0  0  0  0  0  0  0  0  0  0  0  0
  184.9830  178.5080  142.8780 C   0  0  0  0  0  2  0  0  0  0  0  0
  188.5060  177.8310  147.9970 C   0  0  0  0  0  2  0  0  0  0  0  0
  184.2280  178.5380  145.2800 C   0  0  0  0  0  0  0  0  0  0  0  0
  186.6170  178.0960  144.7780 C   0  0  1  0  0  3  0  0  0  0  0  0
  182.5560  178.6960  143.4300 C   0  0  1  0  0  3  0  0  0  0  0  0
  185.3620  178.8390  144.3200 C   0  0  1  0  0  3  0  0  0  0  0  0
  185.7380  178.2030  147.1130 C   0  0  0  0  0  3  0  0  0  0  0  0
  182.9540  178.5450  144.8750 C   0  0  0  0  0  3  0  0  0  0  0  0
  189.2430  177.4700  145.7060 C   0  0  0  0  0  0  0  0  0  0  0  0
  187.8240  178.4300  143.9110 C   0  0  0  0  0  2  0  0  0  0  0  0
  184.5200  178.2630  146.6580 N   0  0  0  0  0  0  0  0  0  0  0  0
  191.5920  176.6780  145.2370 C   0  0  0  0  0  2  0  0  0  0  0  0
  188.2010  177.8340  146.7010 C   0  0  0  0  0  0  0  0  0  0  0  0
  190.4630  176.8530  146.1440 N   0  0  0  0  0  2  0  0  0  0  0  0
  181.3380  179.5890  143.3160 C   0  0  0  0  0  1  0  0  0  0  0  0
  183.6840  179.2300  142.5450 C   0  0  0  0  0  2  0  0  0  0  0  0
  186.9250  178.4910  146.2270 C   0  0  1  0  0  3  0  0  0  0  0  0
  191.0730  176.2940  143.8610 C   0  0  0  0  0  2  0  0  0  0  0  0
  189.0450  177.6810  144.3840 C   0  0  0  0  0  0  0  0  0  0  0  0
  190.1300  177.7390  142.0630 C   0  0  1  0  0  3  0  0  0  0  0  0
  191.5830  177.9640  141.6130 C   0  0  0  0  0  2  0  0  0  0  0  0
  191.2640  177.1030  139.2410 C   0  0  1  0  0  3  0  0  0  0  0  0
  189.0870  176.7360  140.9310 S   0  0  0  0  0  0  0  0  0  0  0  0
  193.4040  177.1350  140.3150 O   0  0  0  0  0  1  0  0  0  0  0  0
  192.0420  176.9650  140.5550 C   0  0  1  0  0  3  0  0  0  0  0  0
  191.3540  175.8090  138.4570 C   0  0  0  0  0  1  0  0  0  0  0  0
  189.7950  177.4920  139.4320 C   0  0  0  0  0  2  0  0  0  0  0  0
  1 19  1  0  0  0  0
  1 20  1  0  0  0  0
  4 12  1  0  0  0  0
  5 11  1  6  0  0  0
  5 18  1  0  0  0  0
  6 16  1  1  0  0  0
  6  9  1  0  0  0  0
  7  2  1  6  0  0  0
  7  5  1  0  0  0  0
  7  4  1  0  0  0  0
  9  4  2  0  0  0  0
 10 15  1  0  0  0  0
 10 14  1  0  0  0  0
 11 20  1  0  0  0  0
 12  8  2  0  0  0  0
 13 15  1  0  0  0  0
 14  3  2  0  0  0  0
 17  2  1  0  0  0  0
 17  6  1  0  0  0  0
 18 14  1  0  0  0  0
 18  8  1  1  0  0  0
 19 13  1  0  0  0  0
 20 10  2  0  0  0  0
 21 22  1  6  0  0  0
 21  1  1  0  0  0  0
 23 27  1  1  0  0  0
 23 28  1  0  0  0  0
 23 26  1  0  0  0  0
 24 21  1  0  0  0  0
 26 25  1  6  0  0  0
 26 22  1  0  0  0  0
 28 24  1  0  0  0  0
M  END
>  <MODEL>
2

>  <REMARK>
 VINA RESULT:      -9.3      3.143      7.107
  Name = 
  1 active torsions:
  status: ('A' for Active; 'I' for Inactive)
    1  A    between atoms: N_1  and  C_2
                            x       y       z     vdW  Elec       q    Type
                         _______ _______ _______ _____ _____    ______ ____

>  <TORSDO>
F 1

$$$$
=
 OpenBabel11052413343D

 28 32  0  0  1  0  0  0  0  0999 V2000
  190.0060  177.2310  139.0360 N   0  0  0  0  0  0  0  0  0  0  0  0
  191.6170  176.1870  143.9280 C   0  0  0  0  0  2  0  0  0  0  0  0
  186.2530  178.5820  141.7920 C   0  0  0  0  0  2  0  0  0  0  0  0
  189.7180  177.1480  145.2730 C   0  0  0  0  0  0  0  0  0  0  0  0
  189.5820  177.2030  142.7970 C   0  0  1  0  0  3  0  0  0  0  0  0
  191.8100  176.3870  146.4080 C   0  0  1  0  0  3  0  0  0  0  0  0
  190.1090  176.4230  144.0010 C   0  0  1  0  0  3  0  0  0  0  0  0
  187.7530  178.0750  144.2560 C   0  0  0  0  0  3  0  0  0  0  0  0
  190.4650  177.0650  146.3790 C   0  0  0  0  0  3  0  0  0  0  0  0
  188.1770  177.9700  140.4340 C   0  0  0  0  0  0  0  0  0  0  0  0
  189.8580  176.4790  141.4850 C   0  0  0  0  0  2  0  0  0  0  0  0
  188.5080  177.9200  145.3050 N   0  0  0  0  0  0  0  0  0  0  0  0
  188.1490  178.3630  137.9420 C   0  0  0  0  0  2  0  0  0  0  0  0
  187.4900  178.0930  141.7460 C   0  0  0  0  0  0  0  0  0  0  0  0
  187.6340  178.6300  139.2800 N   0  0  0  0  0  2  0  0  0  0  0  0
  191.9690  175.6020  147.6930 C   0  0  0  0  0  1  0  0  0  0  0  0
  192.0550  175.4790  145.2030 C   0  0  0  0  0  2  0  0  0  0  0  0
  188.0680  177.3870  142.9510 C   0  0  1  0  0  3  0  0  0  0  0  0
  189.6590  178.2100  138.0090 C   0  0  0  0  0  2  0  0  0  0  0  0
  189.3300  177.2730  140.3160 C   0  0  0  0  0  0  0  0  0  0  0  0
  191.0250  176.2420  138.6940 C   0  0  1  0  0  3  0  0  0  0  0  0
  190.6980  175.5120  137.3810 C   0  0  0  0  0  2  0  0  0  0  0  0
  193.0910  175.4240  136.5210 C   0  0  1  0  0  3  0  0  0  0  0  0
  192.7200  176.9420  138.8210 S   0  0  0  0  0  0  0  0  0  0  0  0
  191.1990  175.2960  135.0580 O   0  0  0  0  0  1  0  0  0  0  0  0
  191.6510  175.8720  136.2440 C   0  0  1  0  0  3  0  0  0  0  0  0
  194.0510  176.2420  135.6810 C   0  0  0  0  0  1  0  0  0  0  0  0
  193.4900  175.5110  137.9970 C   0  0  0  0  0  2  0  0  0  0  0  0
  1 20  1  0  0  0  0
  2 17  1  0  0  0  0
  4 12  1  0  0  0  0
  4  9  2  0  0  0  0
  5 11  1  6  0  0  0
  5 18  1  0  0  0  0
  5  7  1  0  0  0  0
  6 16  1  1  0  0  0
  7  2  1  6  0  0  0
  7  4  1  0  0  0  0
  8 12  2  0  0  0  0
  9  6  1  0  0  0  0
 10 14  1  0  0  0  0
 13 19  1  0  0  0  0
 13 15  1  0  0  0  0
 14  3  2  0  0  0  0
 14 18  1  0  0  0  0
 15 10  1  0  0  0  0
 17  6  1  0  0  0  0
 18  8  1  1  0  0  0
 19  1  1  0  0  0  0
 20 10  2  0  0  0  0
 20 11  1  0  0  0  0
 21 22  1  6  0  0  0
 21 24  1  0  0  0  0
 21  1  1  0  0  0  0
 23 27  1  6  0  0  0
 23 28  1  0  0  0  0
 26 25  1  6  0  0  0
 26 23  1  0  0  0  0
 26 22  1  0  0  0  0
 28 24  1  0  0  0  0
M  END
>  <MODEL>
3

>  <REMARK>
 VINA RESULT:      -9.3      3.982      7.186
  Name = 
  1 active torsions:
  status: ('A' for Active; 'I' for Inactive)
    1  A    between atoms: N_1  and  C_2
                            x       y       z     vdW  Elec       q    Type
                         _______ _______ _______ _____ _____    ______ ____

>  <TORSDO>
F 1

$$$$
=
 OpenBabel11052413343D

 28 32  0  0  1  0  0  0  0  0999 V2000
  185.2060  178.4590  139.5110 N   0  0  0  0  0  0  0  0  0  0  0  0
  186.2710  178.0500  144.6410 C   0  0  0  0  0  2  0  0  0  0  0  0
  190.0150  177.8520  139.6390 C   0  0  0  0  0  2  0  0  0  0  0  0
  188.7260  177.4930  144.5770 C   0  0  0  0  0  0  0  0  0  0  0  0
  187.5400  177.9340  142.4430 C   0  0  1  0  0  3  0  0  0  0  0  0
  187.4550  177.3530  146.7250 C   0  0  1  0  0  3  0  0  0  0  0  0
  187.6040  178.2810  143.9300 C   0  0  1  0  0  3  0  0  0  0  0  0
  189.9820  177.4170  142.5350 C   0  0  0  0  0  3  0  0  0  0  0  0
  188.6750  177.1400  145.8660 C   0  0  0  0  0  3  0  0  0  0  0  0
  187.5920  178.0790  139.5930 C   0  0  0  0  0  0  0  0  0  0  0  0
  186.4930  178.7630  141.7100 C   0  0  0  0  0  2  0  0  0  0  0  0
  189.8810  177.1390  143.8020 N   0  0  0  0  0  0  0  0  0  0  0  0
  186.3670  178.1730  137.3900 C   0  0  0  0  0  2  0  0  0  0  0  0
  188.8770  177.9370  140.3250 C   0  0  0  0  0  0  0  0  0  0  0  0
  187.5470  177.8400  138.1780 N   0  0  0  0  0  2  0  0  0  0  0  0
  187.8680  177.8050  148.1100 C   0  0  0  0  0  1  0  0  0  0  0  0
  186.4590  178.3460  146.1230 C   0  0  0  0  0  2  0  0  0  0  0  0
  188.9120  178.2000  141.8130 C   0  0  1  0  0  3  0  0  0  0  0  0
  185.1200  177.8380  138.1920 C   0  0  0  0  0  2  0  0  0  0  0  0
  186.4510  178.3960  140.2470 C   0  0  0  0  0  0  0  0  0  0  0  0
  184.0080  179.1320  140.0090 C   0  0  1  0  0  3  0  0  0  0  0  0
  183.3560  180.0130  138.9310 C   0  0  0  0  0  2  0  0  0  0  0  0
  180.9520  179.4630  139.5550 C   0  0  1  0  0  3  0  0  0  0  0  0
  182.8860  177.9640  140.8760 S   0  0  0  0  0  0  0  0  0  0  0  0
  181.5630  180.2340  137.3720 O   0  0  0  0  0  1  0  0  0  0  0  0
  182.0130  179.4710  138.4490 C   0  0  1  0  0  3  0  0  0  0  0  0
  179.8670  178.4610  139.2140 C   0  0  0  0  0  1  0  0  0  0  0  0
  181.5150  179.1630  140.9470 C   0  0  0  0  0  2  0  0  0  0  0  0
  1 21  1  0  0  0  0
  1 20  1  0  0  0  0
  2 17  1  0  0  0  0
  3 14  2  0  0  0  0
  4  9  2  0  0  0  0
  5 11  1  6  0  0  0
  5  7  1  0  0  0  0
  6 16  1  1  0  0  0
  7  4  1  0  0  0  0
  7  2  1  1  0  0  0
  8 12  2  0  0  0  0
  9  6  1  0  0  0  0
 10 20  2  0  0  0  0
 10 14  1  0  0  0  0
 12  4  1  0  0  0  0
 13 15  1  0  0  0  0
 13 19  1  0  0  0  0
 14 18  1  0  0  0  0
 15 10  1  0  0  0  0
 17  6  1  0  0  0  0
 18  5  1  0  0  0  0
 18  8  1  1  0  0  0
 19  1  1  0  0  0  0
 20 11  1  0  0  0  0
 21 22  1  6  0  0  0
 21 24  1  0  0  0  0
 23 27  1  6  0  0  0
 23 28  1  0  0  0  0
 24 28  1  0  0  0  0
 26 25  1  6  0  0  0
 26 22  1  0  0  0  0
 26 23  1  0  0  0  0
M  END
>  <MODEL>
4

>  <REMARK>
 VINA RESULT:      -9.2      2.105      4.875
  Name = 
  1 active torsions:
  status: ('A' for Active; 'I' for Inactive)
    1  A    between atoms: N_1  and  C_2
                            x       y       z     vdW  Elec       q    Type
                         _______ _______ _______ _____ _____    ______ ____

>  <TORSDO>
F 1

$$$$
=
 OpenBabel11052413343D

 28 32  0  0  1  0  0  0  0  0999 V2000
  189.2730  177.3190  141.6440 N   0  0  0  0  0  0  0  0  0  0  0  0
  184.4650  178.7250  140.0550 C   0  0  0  0  0  2  0  0  0  0  0  0
  186.8180  177.8900  145.7860 C   0  0  0  0  0  2  0  0  0  0  0  0
  183.2240  178.7480  142.2460 C   0  0  0  0  0  0  0  0  0  0  0  0
  185.6530  178.2450  142.2480 C   0  0  1  0  0  3  0  0  0  0  0  0
  181.9820  178.9750  140.0900 C   0  0  1  0  0  3  0  0  0  0  0  0
  184.5420  179.0280  141.5510 C   0  0  1  0  0  3  0  0  0  0  0  0
  184.3070  178.3500  144.3490 C   0  0  0  0  0  3  0  0  0  0  0  0
  182.0640  178.7960  141.5840 C   0  0  0  0  0  3  0  0  0  0  0  0
  188.0100  177.5340  143.6940 C   0  0  0  0  0  0  0  0  0  0  0  0
  187.0240  178.5540  141.6580 C   0  0  0  0  0  2  0  0  0  0  0  0
  183.2140  178.4500  143.6500 N   0  0  0  0  0  0  0  0  0  0  0  0
  190.3840  176.6800  143.7140 C   0  0  0  0  0  2  0  0  0  0  0  0
  186.7920  177.9160  144.4550 C   0  0  0  0  0  0  0  0  0  0  0  0
  189.0950  176.8770  144.3670 N   0  0  0  0  0  2  0  0  0  0  0  0
  180.8380  179.9040  139.7390 C   0  0  0  0  0  1  0  0  0  0  0  0
  183.2830  179.4860  139.4710 C   0  0  0  0  0  2  0  0  0  0  0  0
  185.6610  178.6140  143.7360 C   0  0  1  0  0  3  0  0  0  0  0  0
  190.1550  176.3270  142.2540 C   0  0  0  0  0  2  0  0  0  0  0  0
  188.0980  177.7650  142.3640 C   0  0  0  0  0  0  0  0  0  0  0  0
  189.6470  177.8180  140.3230 C   0  0  1  0  0  3  0  0  0  0  0  0
  191.0840  177.4220  139.9460 C   0  0  0  0  0  2  0  0  0  0  0  0
  190.5970  176.9500  137.4940 C   0  0  1  0  0  3  0  0  0  0  0  0
  188.3580  177.4470  139.0670 S   0  0  0  0  0  0  0  0  0  0  0  0
  192.4620  175.9780  138.6390 O   0  0  0  0  0  1  0  0  0  0  0  0
  191.1450  176.3990  138.8160 C   0  0  1  0  0  3  0  0  0  0  0  0
  190.1790  175.8030  136.5970 C   0  0  0  0  0  1  0  0  0  0  0  0
  189.4270  177.9230  137.6700 C   0  0  0  0  0  2  0  0  0  0  0  0
  1 19  1  0  0  0  0
  1 20  1  0  0  0  0
  4 12  1  0  0  0  0
  5 11  1  6  0  0  0
  5 18  1  0  0  0  0
  6 16  1  1  0  0  0
  6  9  1  0  0  0  0
  7  2  1  6  0  0  0
  7  4  1  0  0  0  0
  7  5  1  0  0  0  0
  9  4  2  0  0  0  0
 10 15  1  0  0  0  0
 10 14  1  0  0  0  0
 11 20  1  0  0  0  0
 12  8  2  0  0  0  0
 13 15  1  0  0  0  0
 14  3  2  0  0  0  0
 17  2  1  0  0  0  0
 17  6  1  0  0  0  0
 18  8  1  1  0  0  0
 18 14  1  0  0  0  0
 19 13  1  0  0  0  0
 20 10  2  0  0  0  0
 21 22  1  6  0  0  0
 21  1  1  0  0  0  0
 23 27  1  6  0  0  0
 23 28  1  0  0  0  0
 23 26  1  0  0  0  0
 24 21  1  0  0  0  0
 26 25  1  6  0  0  0
 26 22  1  0  0  0  0
 28 24  1  0  0  0  0
M  END
>  <MODEL>
5

>  <REMARK>
 VINA RESULT:      -8.9      2.975      7.020
  Name = 
  1 active torsions:
  status: ('A' for Active; 'I' for Inactive)
    1  A    between atoms: N_1  and  C_2
                            x       y       z     vdW  Elec       q    Type
                         _______ _______ _______ _____ _____    ______ ____

>  <TORSDO>
F 1

$$$$
=
 OpenBabel11052413343D

 28 32  0  0  1  0  0  0  0  0999 V2000
  184.8830  178.5660  139.8250 N   0  0  1  0  0  0  0  0  0  0  0  0
  187.5250  177.8090  144.3040 C   0  0  0  0  0  2  0  0  0  0  0  0
  181.5200  179.1980  143.2600 C   0  0  0  0  0  2  0  0  0  0  0  0
  185.7640  178.4020  146.0040 C   0  0  0  0  0  0  0  0  0  0  0  0
  185.1690  178.4420  143.5960 C   0  0  1  0  0  3  0  0  0  0  0  0
  188.1310  178.0300  146.7150 C   0  0  1  0  0  3  0  0  0  0  0  0
  186.0380  177.7660  144.6560 C   0  0  1  0  0  3  0  0  0  0  0  0
  183.5130  178.9600  145.3930 C   0  0  0  0  0  3  0  0  0  0  0  0
  186.7040  178.4520  146.9540 C   0  0  0  0  0  3  0  0  0  0  0  0
  183.2390  178.9530  141.5550 C   0  0  0  0  0  0  0  0  0  0  0  0
  185.3240  177.7870  142.2290 C   0  0  0  0  0  2  0  0  0  0  0  0
  184.4640  178.9410  146.2820 N   0  0  0  0  0  0  0  0  0  0  0  0
  182.6850  179.3450  139.1260 C   0  0  0  0  0  2  0  0  0  0  0  0
  182.7950  178.9420  142.9730 C   0  0  0  0  0  0  0  0  0  0  0  0
  182.3850  179.5080  140.5430 N   0  0  0  0  0  0  0  0  0  0  0  0
  188.6600  177.2800  147.9200 C   0  0  0  0  0  1  0  0  0  0  0  0
  188.3080  177.1860  145.4510 C   0  0  0  0  0  2  0  0  0  0  0  0
  183.7000  178.3480  144.0270 C   0  0  1  0  0  3  0  0  0  0  0  0
  184.1850  179.4700  138.9140 C   0  0  0  0  0  2  0  0  0  0  0  0
  184.4570  178.4780  141.2060 C   0  0  1  0  0  3  0  0  0  0  0  0
  185.9820  177.7800  139.2670 C   0  0  1  0  0  3  0  0  0  0  0  0
  185.8270  177.5720  137.7520 C   0  0  0  0  0  2  0  0  0  0  0  0
  188.2950  177.8300  137.1940 C   0  0  1  0  0  3  0  0  0  0  0  0
  187.6160  178.4060  139.8280 S   0  0  0  0  0  0  0  0  0  0  0  0
  186.5700  178.2180  135.5790 O   0  0  0  0  0  1  0  0  0  0  0  0
  186.8700  178.3310  136.9350 C   0  0  1  0  0  3  0  0  0  0  0  0
  189.2910  178.9090  136.8180 C   0  0  0  0  0  1  0  0  0  0  0  0
  188.5390  177.3810  138.6370 C   0  0  0  0  0  2  0  0  0  0  0  0
  1 19  1  6  0  0  0
  1 20  1  0  0  0  0
  2 17  1  0  0  0  0
  4 12  1  0  0  0  0
  4  9  2  0  0  0  0
  5 11  1  6  0  0  0
  5 18  1  0  0  0  0
  5  7  1  0  0  0  0
  6  9  1  0  0  0  0
  6 16  1  1  0  0  0
  7  2  1  6  0  0  0
  7  4  1  0  0  0  0
  8 12  2  0  0  0  0
 10 14  1  0  0  0  0
 13 15  1  0  0  0  0
 14  3  2  0  0  0  0
 14 18  1  0  0  0  0
 15 10  2  0  0  0  0
 17  6  1  0  0  0  0
 18  8  1  1  0  0  0
 19 13  1  0  0  0  0
 20 10  1  0  0  0  0
 20 11  1  6  0  0  0
 21 22  1  6  0  0  0
 21  1  1  0  0  0  0
 21 24  1  0  0  0  0
 23 27  1  1  0  0  0
 23 28  1  0  0  0  0
 26 25  1  6  0  0  0
 26 23  1  0  0  0  0
 26 22  1  0  0  0  0
 28 24  1  0  0  0  0
M  END
>  <MODEL>
6

>  <REMARK>
 VINA RESULT:      -8.8      2.909      5.589
  Name = 
  1 active torsions:
  status: ('A' for Active; 'I' for Inactive)
    1  A    between atoms: N_1  and  C_2
                            x       y       z     vdW  Elec       q    Type
                         _______ _______ _______ _____ _____    ______ ____

>  <TORSDO>
F 1

$$$$
=
 OpenBabel11052413343D

 28 32  0  0  1  0  0  0  0  0999 V2000
  186.6020  178.3260  141.7170 N   0  0  0  0  0  0  0  0  0  0  0  0
  190.5140  176.8180  144.8850 C   0  0  0  0  0  2  0  0  0  0  0  0
  184.6230  178.4900  146.1400 C   0  0  0  0  0  2  0  0  0  0  0  0
  189.4650  177.1770  147.1460 C   0  0  0  0  0  0  0  0  0  0  0  0
  188.1100  177.6080  145.1130 C   0  0  1  0  0  3  0  0  0  0  0  0
  191.8990  176.6440  146.9540 C   0  0  1  0  0  3  0  0  0  0  0  0
  189.2290  176.7540  145.7100 C   0  0  1  0  0  3  0  0  0  0  0  0
  187.1860  177.8750  147.4170 C   0  0  0  0  0  3  0  0  0  0  0  0
  190.6670  177.0560  147.7190 C   0  0  0  0  0  3  0  0  0  0  0  0
  185.6580  178.4750  143.9380 C   0  0  0  0  0  0  0  0  0  0  0  0
  187.7550  177.1710  143.6970 C   0  0  0  0  0  2  0  0  0  0  0  0
  188.3730  177.6950  147.9200 N   0  0  0  0  0  0  0  0  0  0  0  0
  184.3610  179.2560  141.9200 C   0  0  0  0  0  2  0  0  0  0  0  0
  185.7080  178.2530  145.4060 C   0  0  0  0  0  0  0  0  0  0  0  0
  184.5600  179.2010  143.3630 N   0  0  0  0  0  2  0  0  0  0  0  0
  192.7400  175.7030  147.7920 C   0  0  0  0  0  1  0  0  0  0  0  0
  191.5850  176.0060  145.6010 C   0  0  0  0  0  2  0  0  0  0  0  0
  186.8650  177.4800  145.9970 C   0  0  1  0  0  3  0  0  0  0  0  0
  185.7110  179.3780  141.2330 C   0  0  0  0  0  2  0  0  0  0  0  0
  186.6530  178.0330  143.1340 C   0  0  0  0  0  0  0  0  0  0  0  0
  187.3930  177.6130  140.7170 C   0  0  1  0  0  3  0  0  0  0  0  0
  186.6420  177.4780  139.3820 C   0  0  0  0  0  2  0  0  0  0  0  0
  188.6710  177.8570  137.8950 C   0  0  1  0  0  3  0  0  0  0  0  0
  189.1050  178.2700  140.6110 S   0  0  0  0  0  0  0  0  0  0  0  0
  186.4360  178.2630  137.1390 O   0  0  0  0  0  1  0  0  0  0  0  0
  187.2560  178.3170  138.2640 C   0  0  1  0  0  3  0  0  0  0  0  0
  189.4150  178.9910  137.2190 C   0  0  0  0  0  1  0  0  0  0  0  0
  189.4830  177.3430  139.0880 C   0  0  0  0  0  2  0  0  0  0  0  0
  1 20  1  0  0  0  0
  2 17  1  0  0  0  0
  4  9  2  0  0  0  0
  4 12  1  0  0  0  0
  5 11  1  6  0  0  0
  5  7  1  0  0  0  0
  5 18  1  0  0  0  0
  6  9  1  0  0  0  0
  6 16  1  1  0  0  0
  7  2  1  6  0  0  0
  7  4  1  0  0  0  0
  8 12  2  0  0  0  0
 10 14  1  0  0  0  0
 13 15  1  0  0  0  0
 14 18  1  0  0  0  0
 14  3  2  0  0  0  0
 15 10  1  0  0  0  0
 17  6  1  0  0  0  0
 18  8  1  1  0  0  0
 19  1  1  0  0  0  0
 19 13  1  0  0  0  0
 20 11  1  0  0  0  0
 20 10  2  0  0  0  0
 21 22  1  6  0  0  0
 21  1  1  0  0  0  0
 23 27  1  1  0  0  0
 23 26  1  0  0  0  0
 23 28  1  0  0  0  0
 24 21  1  0  0  0  0
 26 25  1  6  0  0  0
 26 22  1  0  0  0  0
 28 24  1  0  0  0  0
M  END
>  <MODEL>
7

>  <REMARK>
 VINA RESULT:      -8.8      2.664      4.449
  Name = 
  1 active torsions:
  status: ('A' for Active; 'I' for Inactive)
    1  A    between atoms: N_1  and  C_2
                            x       y       z     vdW  Elec       q    Type
                         _______ _______ _______ _____ _____    ______ ____

>  <TORSDO>
F 1

$$$$
=
 OpenBabel11052413343D

 28 32  0  0  1  0  0  0  0  0999 V2000
  187.7620  177.7250  144.0470 N   0  0  0  0  0  0  0  0  0  0  0  0
  189.1540  177.3740  138.9910 C   0  0  0  0  0  2  0  0  0  0  0  0
  183.7420  179.0070  141.6590 C   0  0  0  0  0  2  0  0  0  0  0  0
  186.9490  177.8110  137.8560 C   0  0  0  0  0  0  0  0  0  0  0  0
  187.0660  177.9200  140.3320 C   0  0  1  0  0  3  0  0  0  0  0  0
  188.9180  177.0320  136.5300 C   0  0  1  0  0  3  0  0  0  0  0  0
  187.8390  178.1530  139.0340 C   0  0  1  0  0  3  0  0  0  0  0  0
  184.9590  178.3780  139.0710 C   0  0  0  0  0  3  0  0  0  0  0  0
  187.4600  177.3690  136.7020 C   0  0  0  0  0  3  0  0  0  0  0  0
  185.7460  178.2870  142.8360 C   0  0  0  0  0  0  0  0  0  0  0  0
  187.8710  178.3350  141.5570 C   0  0  0  0  0  2  0  0  0  0  0  0
  185.5290  177.9870  137.9670 N   0  0  0  0  0  0  0  0  0  0  0  0
  185.7340  178.0670  145.3490 C   0  0  0  0  0  2  0  0  0  0  0  0
  185.0060  178.5960  141.5860 C   0  0  0  0  0  0  0  0  0  0  0  0
  185.0310  178.1550  144.0740 N   0  0  0  0  0  2  0  0  0  0  0  0
  189.4040  177.5030  135.1750 C   0  0  0  0  0  1  0  0  0  0  0  0
  189.8060  177.6070  137.6350 C   0  0  0  0  0  2  0  0  0  0  0  0
  185.7710  178.7400  140.2900 C   0  0  1  0  0  3  0  0  0  0  0  0
  186.9830  177.2190  145.1740 C   0  0  0  0  0  2  0  0  0  0  0  0
  187.0850  178.0910  142.8200 C   0  0  0  0  0  0  0  0  0  0  0  0
  189.2060  177.8450  144.2380 C   0  0  1  0  0  3  0  0  0  0  0  0
  189.5620  178.2430  145.6790 C   0  0  0  0  0  2  0  0  0  0  0  0
  191.6150  176.7530  145.8670 C   0  0  1  0  0  3  0  0  0  0  0  0
  190.1030  176.3910  143.5620 S   0  0  0  0  0  0  0  0  0  0  0  0
  190.3980  177.5030  147.7880 O   0  0  0  0  0  1  0  0  0  0  0  0
  190.2490  177.1220  146.4550 C   0  0  1  0  0  3  0  0  0  0  0  0
  191.9920  175.3480  146.2940 C   0  0  0  0  0  1  0  0  0  0  0  0
  191.6810  176.8650  144.3410 C   0  0  0  0  0  2  0  0  0  0  0  0
  1 19  1  0  0  0  0
  4 12  1  0  0  0  0
  4  7  1  0  0  0  0
  5 11  1  1  0  0  0
  6 16  1  6  0  0  0
  6  9  1  0  0  0  0
  6 17  1  0  0  0  0
  7  2  1  1  0  0  0
  7  5  1  0  0  0  0
  9  4  2  0  0  0  0
 10 15  1  0  0  0  0
 11 20  1  0  0  0  0
 12  8  2  0  0  0  0
 14  3  2  0  0  0  0
 14 10  1  0  0  0  0
 15 13  1  0  0  0  0
 17  2  1  0  0  0  0
 18  8  1  6  0  0  0
 18  5  1  0  0  0  0
 18 14  1  0  0  0  0
 19 13  1  0  0  0  0
 20 10  2  0  0  0  0
 20  1  1  0  0  0  0
 21  1  1  1  0  0  0
 21 22  1  0  0  0  0
 22 26  1  0  0  0  0
 23 27  1  6  0  0  0
 23 26  1  0  0  0  0
 24 21  1  0  0  0  0
 24 28  1  0  0  0  0
 26 25  1  1  0  0  0
 28 23  1  0  0  0  0
M  END
>  <MODEL>
8

>  <REMARK>
 VINA RESULT:      -8.7      3.605      6.728
  Name = 
  1 active torsions:
  status: ('A' for Active; 'I' for Inactive)
    1  A    between atoms: N_1  and  C_2
                            x       y       z     vdW  Elec       q    Type
                         _______ _______ _______ _____ _____    ______ ____

>  <TORSDO>
F 1

$$$$
=
 OpenBabel11052413343D

 28 32  0  0  1  0  0  0  0  0999 V2000
  187.6450  177.9370  139.4550 N   0  0  0  0  0  0  0  0  0  0  0  0
  187.4090  177.8630  144.7040 C   0  0  0  0  0  2  0  0  0  0  0  0
  192.2700  177.3860  140.8030 C   0  0  0  0  0  2  0  0  0  0  0  0
  189.8000  177.3260  145.2840 C   0  0  0  0  0  0  0  0  0  0  0  0
  189.1800  177.6200  142.9000 C   0  0  1  0  0  3  0  0  0  0  0  0
  188.0380  177.3100  147.0560 C   0  0  1  0  0  3  0  0  0  0  0  0
  188.8770  178.0610  144.3310 C   0  0  1  0  0  3  0  0  0  0  0  0
  191.5200  177.1340  143.6230 C   0  0  0  0  0  3  0  0  0  0  0  0
  189.4300  177.0540  146.5400 C   0  0  0  0  0  3  0  0  0  0  0  0
  189.9350  177.5850  140.1470 C   0  0  0  0  0  0  0  0  0  0  0  0
  188.3520  178.3910  141.8790 C   0  0  0  0  0  2  0  0  0  0  0  0
  191.1080  176.9350  144.8420 N   0  0  0  0  0  0  0  0  0  0  0  0
  189.2920  177.5290  137.7080 C   0  0  0  0  0  2  0  0  0  0  0  0
  190.9990  177.5030  141.1810 C   0  0  0  0  0  0  0  0  0  0  0  0
  190.2390  177.2570  138.7830 N   0  0  0  0  0  2  0  0  0  0  0  0
  188.0980  177.8520  148.4680 C   0  0  0  0  0  1  0  0  0  0  0  0
  187.2270  178.2520  146.1650 C   0  0  0  0  0  2  0  0  0  0  0  0
  190.6670  177.8590  142.6120 C   0  0  1  0  0  3  0  0  0  0  0  0
  187.8830  177.2330  138.1970 C   0  0  0  0  0  2  0  0  0  0  0  0
  188.6700  177.9320  140.4780 C   0  0  0  0  0  0  0  0  0  0  0  0
  186.3660  178.6280  139.5980 C   0  0  1  0  0  3  0  0  0  0  0  0
  185.4850  178.4690  138.3470 C   0  0  0  0  0  2  0  0  0  0  0  0
  183.2860  178.2180  139.6000 C   0  0  1  0  0  3  0  0  0  0  0  0
  185.5580  178.2360  141.2010 S   0  0  0  0  0  0  0  0  0  0  0  0
  183.5990  177.3740  137.3800 O   0  0  0  0  0  1  0  0  0  0  0  0
  184.2560  177.5960  138.5890 C   0  0  1  0  0  3  0  0  0  0  0  0
  182.4120  177.1340  140.2000 C   0  0  0  0  0  1  0  0  0  0  0  0
  183.9780  179.0030  140.7180 C   0  0  0  0  0  2  0  0  0  0  0  0
  1 21  1  0  0  0  0
  1 20  1  0  0  0  0
  2 17  1  0  0  0  0
  3 14  2  0  0  0  0
  4  9  2  0  0  0  0
  5 11  1  6  0  0  0
  5  7  1  0  0  0  0
  6 16  1  1  0  0  0
  7  2  1  1  0  0  0
  7  4  1  0  0  0  0
  8 12  2  0  0  0  0
  9  6  1  0  0  0  0
 10 20  2  0  0  0  0
 10 14  1  0  0  0  0
 12  4  1  0  0  0  0
 13 19  1  0  0  0  0
 13 15  1  0  0  0  0
 14 18  1  0  0  0  0
 15 10  1  0  0  0  0
 17  6  1  0  0  0  0
 18  5  1  0  0  0  0
 18  8  1  1  0  0  0
 19  1  1  0  0  0  0
 20 11  1  0  0  0  0
 21 22  1  6  0  0  0
 21 24  1  0  0  0  0
 22 26  1  0  0  0  0
 23 27  1  1  0  0  0
 23 28  1  0  0  0  0
 26 25  1  6  0  0  0
 26 23  1  0  0  0  0
 28 24  1  0  0  0  0
M  END
>  <MODEL>
9

>  <REMARK>
 VINA RESULT:      -8.6      2.347      5.204
  Name = 
  1 active torsions:
  status: ('A' for Active; 'I' for Inactive)
    1  A    between atoms: N_1  and  C_2
                            x       y       z     vdW  Elec       q    Type
                         _______ _______ _______ _____ _____    ______ ____

>  <TORSDO>
F 1

$$$$
