=
 OpenBabel11052415323D

 37 42  0  0  1  0  0  0  0  0999 V2000
  181.7140  180.8740  138.8200 C   0  0  0  0  0  1  0  0  0  0  0  0
  179.1550  178.6190  141.7170 C   0  0  0  0  0  1  0  0  0  0  0  0
  184.2060  177.5860  140.8110 O   0  0  0  0  0  0  0  0  0  0  0  0
  181.2170  179.0130  140.3820 C   0  0  0  0  0  0  0  0  0  0  0  0
  183.4410  178.7700  140.7560 C   0  0  1  0  0  0  0  0  0  0  0  0
  181.9850  179.4170  139.1620 C   0  0  0  0  0  0  0  0  0  0  0  0
  182.1210  178.5890  141.4590 C   0  0  0  0  0  2  0  0  0  0  0  0
  181.6020  178.5420  137.9790 C   0  0  0  0  0  1  0  0  0  0  0  0
  184.7600  178.7250  141.4330 C   0  0  1  0  0  0  0  0  0  0  0  0
  179.8800  179.0340  140.4780 C   0  0  0  0  0  3  0  0  0  0  0  0
  183.3620  179.2530  139.4350 O   0  0  0  0  0  0  0  0  0  0  0  0
  183.8520  179.3960  143.6720 C   0  0  0  0  0  3  0  0  0  0  0  0
  184.7670  178.6430  142.9310 C   0  0  0  0  0  0  0  0  0  0  0  0
  185.6850  177.8210  143.5970 C   0  0  0  0  0  3  0  0  0  0  0  0
  184.7610  178.4850  145.7240 C   0  0  0  0  0  3  0  0  0  0  0  0
  183.8440  179.3120  145.0660 C   0  0  0  0  0  3  0  0  0  0  0  0
  185.6960  177.7440  144.9980 C   0  0  0  0  0  0  0  0  0  0  0  0
  186.6020  176.9360  145.7030 O   0  0  0  0  0  0  0  0  0  0  0  0
  187.3020  178.1150  147.7510 C   0  0  0  0  0  3  0  0  0  0  0  0
  187.5960  177.3710  146.5970 C   0  0  0  0  0  0  0  0  0  0  0  0
  188.9240  177.0090  146.3430 C   0  0  0  0  0  3  0  0  0  0  0  0
  191.2260  177.0250  146.9670 F   0  0  0  0  0  0  0  0  0  0  0  0
  189.6420  178.1220  148.3690 C   0  0  0  0  0  3  0  0  0  0  0  0
  189.9440  177.3830  147.2230 C   0  0  0  0  0  0  0  0  0  0  0  0
  188.3200  178.4890  148.6330 C   0  0  0  0  0  3  0  0  0  0  0  0
  185.9690  179.2690  140.6800 C   0  0  0  0  0  2  0  0  0  0  0  0
  186.9620  178.1670  140.3460 C   0  0  0  0  0  2  0  0  0  0  0  0
  187.8240  178.5850  139.2530 N   0  0  0  0  0  0  0  0  0  0  0  0
  187.8830  178.6160  136.8240 C   0  0  0  0  0  1  0  0  0  0  0  0
  187.3170  177.9410  138.0520 C   0  0  0  0  0  2  0  0  0  0  0  0
  189.1330  178.0050  139.5130 C   0  0  0  0  0  2  0  0  0  0  0  0
  190.4660  177.5640  141.5250 C   0  0  2  0  0  3  0  0  0  0  0  0
  189.1470  177.3720  140.8900 C   0  0  2  0  0  3  0  0  0  0  0  0
  190.1070  176.3450  140.9210 O   0  0  0  0  0  0  0  0  0  0  0  0
  191.4100  178.2380  143.6970 C   0  0  0  0  0  2  0  0  0  0  0  0
  191.5320  176.7380  143.6030 C   0  0  0  0  0  2  0  0  0  0  0  0
  190.3170  177.4330  143.0270 C   0  0  0  0  0  3  0  0  0  0  0  0
  1  6  1  0  0  0  0
  3  9  1  0  0  0  0
  4 10  2  0  0  0  0
  4  7  1  0  0  0  0
  5  3  1  0  0  0  0
  5  9  1  0  0  0  0
  5  7  1  1  0  0  0
  6 11  1  0  0  0  0
  6  4  1  0  0  0  0
  8  6  1  0  0  0  0
  9 26  1  6  0  0  0
  9 13  1  0  0  0  0
 10  2  1  0  0  0  0
 11  5  1  0  0  0  0
 12 16  1  0  0  0  0
 13 14  1  0  0  0  0
 13 12  2  0  0  0  0
 14 17  2  0  0  0  0
 16 15  2  0  0  0  0
 17 18  1  0  0  0  0
 17 15  1  0  0  0  0
 18 20  1  0  0  0  0
 19 25  1  0  0  0  0
 20 19  2  0  0  0  0
 21 20  1  0  0  0  0
 21 24  2  0  0  0  0
 22 24  1  0  0  0  0
 23 25  2  0  0  0  0
 24 23  1  0  0  0  0
 27 26  1  0  0  0  0
 28 31  1  0  0  0  0
 28 27  1  0  0  0  0
 29 30  1  0  0  0  0
 30 28  1  0  0  0  0
 32 37  1  1  0  0  0
 33 31  1  6  0  0  0
 33 34  1  0  0  0  0
 33 32  1  0  0  0  0
 34 32  1  0  0  0  0
 36 35  1  0  0  0  0
 37 36  1  0  0  0  0
 37 35  1  0  0  0  0
M  END
>  <MODEL>
1

>  <REMARK>
 VINA RESULT:      -8.4      0.000      0.000
  Name = 
  10 active torsions:
  status: ('A' for Active; 'I' for Inactive)
    1  A    between atoms: C_1  and  N_5
    2  A    between atoms: C_1  and  C_36
    3  A    between atoms: N_5  and  C_17
    4  A    between atoms: N_5  and  C_23
    5  A    between atoms: C_6  and  O_37
    6  A    between atoms: C_10  and  C_29
    7  A    between atoms: C_11  and  C_33
    8  A    between atoms: C_17  and  C_26
    9  A    between atoms: C_29  and  C_36
   10  A    between atoms: C_31  and  O_37
                            x       y       z     vdW  Elec       q    Type
                         _______ _______ _______ _____ _____    ______ ____

>  <TORSDO>
F 10

$$$$
=
 OpenBabel11052415323D

 37 42  0  0  1  0  0  0  0  0999 V2000
  186.8680  176.2520  137.3720 C   0  0  0  0  0  1  0  0  0  0  0  0
  190.1520  177.9780  139.8740 C   0  0  0  0  0  1  0  0  0  0  0  0
  185.2070  179.6980  139.8930 O   0  0  0  0  0  0  0  0  0  0  0  0
  187.8630  177.9330  138.8990 C   0  0  0  0  0  0  0  0  0  0  0  0
  185.7850  178.4320  139.6590 C   0  0  1  0  0  0  0  0  0  0  0  0
  186.8570  177.7070  137.8140 C   0  0  0  0  0  0  0  0  0  0  0  0
  187.2150  178.4000  140.1310 C   0  0  0  0  0  2  0  0  0  0  0  0
  187.1540  178.6000  136.6180 C   0  0  0  0  0  1  0  0  0  0  0  0
  184.6150  178.6010  140.5540 C   0  0  1  0  0  0  0  0  0  0  0  0
  189.1830  177.7370  138.7620 C   0  0  0  0  0  3  0  0  0  0  0  0
  185.5790  178.0270  138.3260 O   0  0  0  0  0  0  0  0  0  0  0  0
  184.0520  179.3400  142.8830 C   0  0  0  0  0  3  0  0  0  0  0  0
  184.8670  178.5890  142.0330 C   0  0  0  0  0  0  0  0  0  0  0  0
  185.9160  177.8330  142.5720 C   0  0  0  0  0  3  0  0  0  0  0  0
  185.3180  178.5590  144.7940 C   0  0  0  0  0  3  0  0  0  0  0  0
  184.2720  179.3200  144.2620 C   0  0  0  0  0  3  0  0  0  0  0  0
  186.1560  177.8200  143.9540 C   0  0  0  0  0  0  0  0  0  0  0  0
  187.1990  177.0800  144.5330 O   0  0  0  0  0  0  0  0  0  0  0  0
  188.9590  175.9460  143.2330 C   0  0  0  0  0  3  0  0  0  0  0  0
  188.5220  176.9870  144.0700 C   0  0  0  0  0  0  0  0  0  0  0  0
  189.4250  177.9960  144.4250 C   0  0  0  0  0  3  0  0  0  0  0  0
  191.6060  178.9540  144.3080 F   0  0  0  0  0  0  0  0  0  0  0  0
  191.1670  176.9330  143.1250 C   0  0  0  0  0  3  0  0  0  0  0  0
  190.7420  177.9700  143.9580 C   0  0  0  0  0  0  0  0  0  0  0  0
  190.2750  175.9190  142.7640 C   0  0  0  0  0  3  0  0  0  0  0  0
  183.2360  178.2630  139.9980 C   0  0  0  0  0  2  0  0  0  0  0  0
  182.5730  179.4790  139.3710 C   0  0  0  0  0  2  0  0  0  0  0  0
  181.4050  179.8660  140.1440 N   0  0  0  0  0  0  0  0  0  0  0  0
  180.1210  178.6890  141.8380 C   0  0  0  0  0  1  0  0  0  0  0  0
  180.6700  178.6450  140.4300 C   0  0  0  0  0  2  0  0  0  0  0  0
  180.5650  180.6570  139.2570 C   0  0  0  0  0  2  0  0  0  0  0  0
  180.6080  182.6010  137.7610 C   0  0  2  0  0  3  0  0  0  0  0  0
  181.4330  181.5540  138.3970 C   0  0  2  0  0  3  0  0  0  0  0  0
  181.0200  181.4540  137.0560 O   0  0  0  0  0  0  0  0  0  0  0  0
  180.6760  185.0360  137.4020 C   0  0  0  0  0  2  0  0  0  0  0  0
  180.9980  184.3810  136.0830 C   0  0  0  0  0  2  0  0  0  0  0  0
  181.4970  183.7650  137.3720 C   0  0  0  0  0  3  0  0  0  0  0  0
  1  6  1  0  0  0  0
  3  9  1  0  0  0  0
  4  7  1  0  0  0  0
  5  3  1  0  0  0  0
  5  7  1  1  0  0  0
  5  9  1  0  0  0  0
  6 11  1  0  0  0  0
  6  4  1  0  0  0  0
  8  6  1  0  0  0  0
  9 26  1  6  0  0  0
  9 13  1  0  0  0  0
 10  4  2  0  0  0  0
 10  2  1  0  0  0  0
 11  5  1  0  0  0  0
 12 16  1  0  0  0  0
 13 14  1  0  0  0  0
 13 12  2  0  0  0  0
 14 17  2  0  0  0  0
 16 15  2  0  0  0  0
 17 18  1  0  0  0  0
 17 15  1  0  0  0  0
 19 20  1  0  0  0  0
 20 21  2  0  0  0  0
 20 18  1  0  0  0  0
 23 24  2  0  0  0  0
 24 22  1  0  0  0  0
 24 21  1  0  0  0  0
 25 23  1  0  0  0  0
 25 19  2  0  0  0  0
 27 26  1  0  0  0  0
 27 28  1  0  0  0  0
 28 30  1  0  0  0  0
 30 29  1  0  0  0  0
 31 28  1  0  0  0  0
 32 37  1  6  0  0  0
 32 33  1  0  0  0  0
 33 31  1  1  0  0  0
 34 32  1  0  0  0  0
 34 33  1  0  0  0  0
 36 37  1  0  0  0  0
 36 35  1  0  0  0  0
 37 35  1  0  0  0  0
M  END
>  <MODEL>
2

>  <REMARK>
 VINA RESULT:      -8.2      2.229      6.939
  Name = 
  10 active torsions:
  status: ('A' for Active; 'I' for Inactive)
    1  A    between atoms: C_1  and  N_5
    2  A    between atoms: C_1  and  C_36
    3  A    between atoms: N_5  and  C_17
    4  A    between atoms: N_5  and  C_23
    5  A    between atoms: C_6  and  O_37
    6  A    between atoms: C_10  and  C_29
    7  A    between atoms: C_11  and  C_33
    8  A    between atoms: C_17  and  C_26
    9  A    between atoms: C_29  and  C_36
   10  A    between atoms: C_31  and  O_37
                            x       y       z     vdW  Elec       q    Type
                         _______ _______ _______ _____ _____    ______ ____

>  <TORSDO>
F 10

$$$$
=
 OpenBabel11052415323D

 37 42  0  0  1  0  0  0  0  0999 V2000
  187.9240  174.7720  136.8510 C   0  0  0  0  0  1  0  0  0  0  0  0
  192.3300  174.4670  137.5680 C   0  0  0  0  0  1  0  0  0  0  0  0
  189.3490  178.4680  139.1520 O   0  0  0  0  0  0  0  0  0  0  0  0
  190.1360  175.6400  137.5590 C   0  0  0  0  0  0  0  0  0  0  0  0
  189.0890  177.0960  138.9480 C   0  0  1  0  0  0  0  0  0  0  0  0
  188.7980  176.0070  136.9960 C   0  0  0  0  0  0  0  0  0  0  0  0
  190.3750  176.3180  138.8400 C   0  0  0  0  0  2  0  0  0  0  0  0
  188.9570  176.6740  135.6380 C   0  0  0  0  0  1  0  0  0  0  0  0
  188.6410  177.8000  140.1740 C   0  0  1  0  0  0  0  0  0  0  0  0
  191.0030  174.8040  136.9690 C   0  0  0  0  0  3  0  0  0  0  0  0
  188.1800  176.9120  137.8880 O   0  0  0  0  0  0  0  0  0  0  0  0
  190.8000  177.9400  141.4410 C   0  0  0  0  0  3  0  0  0  0  0  0
  189.4470  177.5960  141.4230 C   0  0  0  0  0  0  0  0  0  0  0  0
  188.8550  177.0580  142.5740 C   0  0  0  0  0  3  0  0  0  0  0  0
  190.9530  177.2340  143.7530 C   0  0  0  0  0  3  0  0  0  0  0  0
  191.5510  177.7660  142.6060 C   0  0  0  0  0  3  0  0  0  0  0  0
  189.6050  176.8640  143.7430 C   0  0  0  0  0  0  0  0  0  0  0  0
  189.0520  176.3250  144.9150 O   0  0  0  0  0  0  0  0  0  0  0  0
  189.5280  177.2580  147.1460 C   0  0  0  0  0  3  0  0  0  0  0  0
  188.6610  177.0330  146.0640 C   0  0  0  0  0  0  0  0  0  0  0  0
  187.3680  177.5700  146.1070 C   0  0  0  0  0  3  0  0  0  0  0  0
  185.6910  178.8310  147.2400 F   0  0  0  0  0  0  0  0  0  0  0  0
  187.8130  178.5360  148.2810 C   0  0  0  0  0  3  0  0  0  0  0  0
  186.9440  178.3160  147.2100 C   0  0  0  0  0  0  0  0  0  0  0  0
  189.1060  178.0050  148.2490 C   0  0  0  0  0  3  0  0  0  0  0  0
  187.1830  178.2380  140.2530 C   0  0  0  0  0  2  0  0  0  0  0  0
  186.9450  179.1780  141.4240 C   0  0  0  0  0  2  0  0  0  0  0  0
  185.5190  179.3390  141.6540 N   0  0  0  0  0  0  0  0  0  0  0  0
  184.6440  179.5460  143.9120 C   0  0  0  0  0  1  0  0  0  0  0  0
  185.2060  178.6060  142.8700 C   0  0  0  0  0  2  0  0  0  0  0  0
  184.8440  178.6450  140.5670 C   0  0  0  0  0  2  0  0  0  0  0  0
  183.3270  179.1160  138.6970 C   0  0  2  0  0  3  0  0  0  0  0  0
  183.6610  179.4650  140.0930 C   0  0  2  0  0  3  0  0  0  0  0  0
  184.0580  180.2760  139.0150 O   0  0  0  0  0  0  0  0  0  0  0  0
  181.1220  178.2590  138.0130 C   0  0  0  0  0  2  0  0  0  0  0  0
  181.5620  179.2480  136.9640 C   0  0  0  0  0  2  0  0  0  0  0  0
  181.8880  179.5000  138.4210 C   0  0  0  0  0  3  0  0  0  0  0  0
  1  6  1  0  0  0  0
  3  9  1  0  0  0  0
  4  7  1  0  0  0  0
  5  7  1  1  0  0  0
  5  3  1  0  0  0  0
  5  9  1  0  0  0  0
  6  4  1  0  0  0  0
  6 11  1  0  0  0  0
  8  6  1  0  0  0  0
  9 26  1  1  0  0  0
  9 13  1  0  0  0  0
 10  4  2  0  0  0  0
 10  2  1  0  0  0  0
 11  5  1  0  0  0  0
 12 16  1  0  0  0  0
 13 12  2  0  0  0  0
 13 14  1  0  0  0  0
 14 17  2  0  0  0  0
 16 15  2  0  0  0  0
 17 15  1  0  0  0  0
 17 18  1  0  0  0  0
 18 20  1  0  0  0  0
 19 25  1  0  0  0  0
 20 21  1  0  0  0  0
 20 19  2  0  0  0  0
 21 24  2  0  0  0  0
 24 22  1  0  0  0  0
 24 23  1  0  0  0  0
 25 23  2  0  0  0  0
 26 27  1  0  0  0  0
 27 28  1  0  0  0  0
 28 30  1  0  0  0  0
 30 29  1  0  0  0  0
 31 28  1  0  0  0  0
 32 37  1  1  0  0  0
 32 34  1  0  0  0  0
 32 33  1  0  0  0  0
 33 31  1  6  0  0  0
 34 33  1  0  0  0  0
 35 37  1  0  0  0  0
 36 35  1  0  0  0  0
 36 37  1  0  0  0  0
M  END
>  <MODEL>
3

>  <REMARK>
 VINA RESULT:      -8.1      2.218      7.000
  Name = 
  10 active torsions:
  status: ('A' for Active; 'I' for Inactive)
    1  A    between atoms: C_1  and  N_5
    2  A    between atoms: C_1  and  C_36
    3  A    between atoms: N_5  and  C_17
    4  A    between atoms: N_5  and  C_23
    5  A    between atoms: C_6  and  O_37
    6  A    between atoms: C_10  and  C_29
    7  A    between atoms: C_11  and  C_33
    8  A    between atoms: C_17  and  C_26
    9  A    between atoms: C_29  and  C_36
   10  A    between atoms: C_31  and  O_37
                            x       y       z     vdW  Elec       q    Type
                         _______ _______ _______ _____ _____    ______ ____

>  <TORSDO>
F 10

$$$$
=
 OpenBabel11052415323D

 37 42  0  0  1  0  0  0  0  0999 V2000
  189.3780  178.6900  148.0900 C   0  0  0  0  0  1  0  0  0  0  0  0
  192.4700  175.5930  147.1580 C   0  0  0  0  0  1  0  0  0  0  0  0
  188.1910  176.4590  144.2690 O   0  0  0  0  0  0  0  0  0  0  0  0
  190.2790  176.7330  146.8620 C   0  0  0  0  0  0  0  0  0  0  0  0
  188.9890  177.2930  145.0820 C   0  0  1  0  0  0  0  0  0  0  0  0
  189.0340  177.4180  147.3320 C   0  0  0  0  0  0  0  0  0  0  0  0
  190.3060  176.6320  145.3970 C   0  0  0  0  0  2  0  0  0  0  0  0
  188.2270  176.4960  148.2340 C   0  0  0  0  0  1  0  0  0  0  0  0
  188.5670  177.7040  143.7210 C   0  0  1  0  0  0  0  0  0  0  0  0
  191.2420  176.2720  147.6730 C   0  0  0  0  0  3  0  0  0  0  0  0
  188.2600  177.7510  146.1960 O   0  0  0  0  0  0  0  0  0  0  0  0
  190.8920  178.0100  142.8350 C   0  0  0  0  0  3  0  0  0  0  0  0
  189.5780  177.5900  142.6180 C   0  0  0  0  0  0  0  0  0  0  0  0
  189.2150  177.0690  141.3690 C   0  0  0  0  0  3  0  0  0  0  0  0
  191.4740  177.3660  140.5740 C   0  0  0  0  0  3  0  0  0  0  0  0
  191.8410  177.8920  141.8170 C   0  0  0  0  0  3  0  0  0  0  0  0
  190.1580  176.9630  140.3350 C   0  0  0  0  0  0  0  0  0  0  0  0
  189.8350  176.4520  139.0680 O   0  0  0  0  0  0  0  0  0  0  0  0
  188.9500  178.3590  137.7830 C   0  0  0  0  0  3  0  0  0  0  0  0
  188.9290  177.0020  138.1450 C   0  0  0  0  0  0  0  0  0  0  0  0
  188.0000  176.1510  137.5340 C   0  0  0  0  0  3  0  0  0  0  0  0
  186.2100  175.8080  135.9970 F   0  0  0  0  0  0  0  0  0  0  0  0
  187.1330  177.9930  136.2260 C   0  0  0  0  0  3  0  0  0  0  0  0
  187.1040  176.6420  136.5810 C   0  0  0  0  0  0  0  0  0  0  0  0
  188.0560  178.8520  136.8280 C   0  0  0  0  0  3  0  0  0  0  0  0
  187.3890  178.6640  143.5980 C   0  0  0  0  0  2  0  0  0  0  0  0
  186.1650  177.9750  143.0160 C   0  0  0  0  0  2  0  0  0  0  0  0
  185.2600  178.9610  142.4470 N   0  0  0  0  0  0  0  0  0  0  0  0
  183.2070  178.9180  143.7460 C   0  0  0  0  0  1  0  0  0  0  0  0
  183.9230  178.3940  142.5230 C   0  0  0  0  0  2  0  0  0  0  0  0
  185.5900  179.0570  141.0330 C   0  0  0  0  0  2  0  0  0  0  0  0
  184.5800  178.5180  138.8640 C   0  0  2  0  0  3  0  0  0  0  0  0
  184.3180  179.0630  140.2110 C   0  0  2  0  0  3  0  0  0  0  0  0
  184.4870  179.9020  139.0950 O   0  0  0  0  0  0  0  0  0  0  0  0
  183.4310  176.5710  137.8870 C   0  0  0  0  0  2  0  0  0  0  0  0
  183.4960  177.6330  136.8190 C   0  0  0  0  0  2  0  0  0  0  0  0
  183.2770  178.0290  138.2640 C   0  0  0  0  0  3  0  0  0  0  0  0
  2 10  1  0  0  0  0
  3  5  1  0  0  0  0
  4  6  1  0  0  0  0
  4 10  2  0  0  0  0
  5  7  1  1  0  0  0
  5 11  1  0  0  0  0
  6  1  1  0  0  0  0
  6  8  1  0  0  0  0
  7  4  1  0  0  0  0
  9 26  1  6  0  0  0
  9  3  1  0  0  0  0
  9  5  1  0  0  0  0
 11  6  1  0  0  0  0
 13 12  1  0  0  0  0
 13  9  1  0  0  0  0
 14 13  2  0  0  0  0
 15 16  1  0  0  0  0
 16 12  2  0  0  0  0
 17 15  2  0  0  0  0
 17 14  1  0  0  0  0
 18 17  1  0  0  0  0
 19 20  1  0  0  0  0
 20 18  1  0  0  0  0
 21 20  2  0  0  0  0
 22 24  1  0  0  0  0
 23 24  2  0  0  0  0
 23 25  1  0  0  0  0
 24 21  1  0  0  0  0
 25 19  2  0  0  0  0
 27 26  1  0  0  0  0
 28 30  1  0  0  0  0
 28 27  1  0  0  0  0
 30 29  1  0  0  0  0
 31 28  1  0  0  0  0
 32 37  1  6  0  0  0
 32 34  1  0  0  0  0
 32 33  1  0  0  0  0
 33 31  1  1  0  0  0
 34 33  1  0  0  0  0
 35 37  1  0  0  0  0
 36 35  1  0  0  0  0
 36 37  1  0  0  0  0
M  END
>  <MODEL>
4

>  <REMARK>
 VINA RESULT:      -8.0      2.823      8.897
  Name = 
  10 active torsions:
  status: ('A' for Active; 'I' for Inactive)
    1  A    between atoms: C_1  and  N_5
    2  A    between atoms: C_1  and  C_36
    3  A    between atoms: N_5  and  C_17
    4  A    between atoms: N_5  and  C_23
    5  A    between atoms: C_6  and  O_37
    6  A    between atoms: C_10  and  C_29
    7  A    between atoms: C_11  and  C_33
    8  A    between atoms: C_17  and  C_26
    9  A    between atoms: C_29  and  C_36
   10  A    between atoms: C_31  and  O_37
                            x       y       z     vdW  Elec       q    Type
                         _______ _______ _______ _____ _____    ______ ____

>  <TORSDO>
F 10

$$$$
=
 OpenBabel11052415323D

 37 42  0  0  1  0  0  0  0  0999 V2000
  180.6020  180.8780  139.8290 C   0  0  0  0  0  1  0  0  0  0  0  0
  179.2350  178.7020  143.4910 C   0  0  0  0  0  1  0  0  0  0  0  0
  183.6150  177.5830  140.8530 O   0  0  0  0  0  0  0  0  0  0  0  0
  180.6830  179.0470  141.4990 C   0  0  0  0  0  0  0  0  0  0  0  0
  182.8910  178.7780  141.0540 C   0  0  1  0  0  0  0  0  0  0  0  0
  180.9650  179.4230  140.0770 C   0  0  0  0  0  0  0  0  0  0  0  0
  181.9100  178.6250  142.1870 C   0  0  0  0  0  2  0  0  0  0  0  0
  180.1760  178.5360  139.1260 C   0  0  0  0  0  1  0  0  0  0  0  0
  184.3650  178.7230  141.2140 C   0  0  1  0  0  0  0  0  0  0  0  0
  179.4700  179.0890  142.0670 C   0  0  0  0  0  3  0  0  0  0  0  0
  182.3470  179.2430  139.8410 O   0  0  0  0  0  0  0  0  0  0  0  0
  184.3410  179.4550  143.6120 C   0  0  0  0  0  3  0  0  0  0  0  0
  184.9080  178.6620  142.6110 C   0  0  0  0  0  0  0  0  0  0  0  0
  185.9840  177.8210  142.9230 C   0  0  0  0  0  3  0  0  0  0  0  0
  185.9040  178.5440  145.2230 C   0  0  0  0  0  3  0  0  0  0  0  0
  184.8330  179.3910  144.9170 C   0  0  0  0  0  3  0  0  0  0  0  0
  186.4960  177.7630  144.2280 C   0  0  0  0  0  0  0  0  0  0  0  0
  187.5750  176.9370  144.5800 O   0  0  0  0  0  0  0  0  0  0  0  0
  189.5150  176.0270  143.3620 C   0  0  0  0  0  3  0  0  0  0  0  0
  188.8970  177.0380  144.1170 C   0  0  0  0  0  0  0  0  0  0  0  0
  189.6090  178.2140  144.3870 C   0  0  0  0  0  3  0  0  0  0  0  0
  191.5920  179.5220  144.1830 F   0  0  0  0  0  0  0  0  0  0  0  0
  191.5190  177.3700  143.1640 C   0  0  0  0  0  3  0  0  0  0  0  0
  190.9140  178.3800  143.9150 C   0  0  0  0  0  0  0  0  0  0  0  0
  190.8190  176.1920  142.8880 C   0  0  0  0  0  3  0  0  0  0  0  0
  185.2270  179.2390  140.0670 C   0  0  0  0  0  2  0  0  0  0  0  0
  185.8810  178.0990  139.3030 C   0  0  0  0  0  2  0  0  0  0  0  0
  185.7200  178.2990  137.8720 N   0  0  0  0  0  0  0  0  0  0  0  0
  183.5360  177.4480  137.2310 C   0  0  0  0  0  1  0  0  0  0  0  0
  185.0090  177.1370  137.3650 C   0  0  0  0  0  2  0  0  0  0  0  0
  187.0560  178.2520  137.2960 C   0  0  0  0  0  2  0  0  0  0  0  0
  189.2610  177.4350  137.9930 C   0  0  2  0  0  3  0  0  0  0  0  0
  187.8290  177.0920  137.8900 C   0  0  2  0  0  3  0  0  0  0  0  0
  188.7670  176.6280  136.9520 O   0  0  0  0  0  0  0  0  0  0  0  0
  191.2140  177.1850  139.4720 C   0  0  0  0  0  2  0  0  0  0  0  0
  191.2270  176.0210  138.5150 C   0  0  0  0  0  2  0  0  0  0  0  0
  189.9100  176.5510  139.0390 C   0  0  0  0  0  3  0  0  0  0  0  0
  1  6  1  0  0  0  0
  3  5  1  0  0  0  0
  3  9  1  0  0  0  0
  4 10  2  0  0  0  0
  4  7  1  0  0  0  0
  5  9  1  0  0  0  0
  5  7  1  1  0  0  0
  6  4  1  0  0  0  0
  8  6  1  0  0  0  0
  9 26  1  6  0  0  0
  9 13  1  0  0  0  0
 10  2  1  0  0  0  0
 11  6  1  0  0  0  0
 11  5  1  0  0  0  0
 12 16  1  0  0  0  0
 13 14  1  0  0  0  0
 13 12  2  0  0  0  0
 14 17  2  0  0  0  0
 16 15  2  0  0  0  0
 17 18  1  0  0  0  0
 17 15  1  0  0  0  0
 19 20  1  0  0  0  0
 20 21  2  0  0  0  0
 20 18  1  0  0  0  0
 23 24  2  0  0  0  0
 24 22  1  0  0  0  0
 24 21  1  0  0  0  0
 25 23  1  0  0  0  0
 25 19  2  0  0  0  0
 27 26  1  0  0  0  0
 28 27  1  0  0  0  0
 29 30  1  0  0  0  0
 30 28  1  0  0  0  0
 31 28  1  0  0  0  0
 32 37  1  1  0  0  0
 33 31  1  6  0  0  0
 33 32  1  0  0  0  0
 34 33  1  0  0  0  0
 34 32  1  0  0  0  0
 36 37  1  0  0  0  0
 36 35  1  0  0  0  0
 37 35  1  0  0  0  0
M  END
>  <MODEL>
5

>  <REMARK>
 VINA RESULT:      -8.0      1.926      2.941
  Name = 
  10 active torsions:
  status: ('A' for Active; 'I' for Inactive)
    1  A    between atoms: C_1  and  N_5
    2  A    between atoms: C_1  and  C_36
    3  A    between atoms: N_5  and  C_17
    4  A    between atoms: N_5  and  C_23
    5  A    between atoms: C_6  and  O_37
    6  A    between atoms: C_10  and  C_29
    7  A    between atoms: C_11  and  C_33
    8  A    between atoms: C_17  and  C_26
    9  A    between atoms: C_29  and  C_36
   10  A    between atoms: C_31  and  O_37
                            x       y       z     vdW  Elec       q    Type
                         _______ _______ _______ _____ _____    ______ ____

>  <TORSDO>
F 10

$$$$
=
 OpenBabel11052415323D

 37 42  0  0  1  0  0  0  0  0999 V2000
  186.8800  176.5640  137.4070 C   0  0  0  0  0  1  0  0  0  0  0  0
  190.3600  177.5560  140.0390 C   0  0  0  0  0  1  0  0  0  0  0  0
  185.6360  179.7790  140.4240 O   0  0  0  0  0  0  0  0  0  0  0  0
  188.0710  177.8960  139.1270 C   0  0  0  0  0  0  0  0  0  0  0  0
  186.0680  178.5030  140.0020 C   0  0  1  0  0  0  0  0  0  0  0  0
  187.0350  177.9350  138.0470 C   0  0  0  0  0  0  0  0  0  0  0  0
  187.4910  178.2520  140.4290 C   0  0  0  0  0  2  0  0  0  0  0  0
  187.4160  178.9490  136.9800 C   0  0  0  0  0  1  0  0  0  0  0  0
  184.9330  178.6700  140.9420 C   0  0  1  0  0  0  0  0  0  0  0  0
  189.3590  177.5800  138.9300 C   0  0  0  0  0  3  0  0  0  0  0  0
  185.8050  178.3140  138.6320 O   0  0  0  0  0  0  0  0  0  0  0  0
  184.2900  178.8800  143.3560 C   0  0  0  0  0  3  0  0  0  0  0  0
  185.1970  178.4220  142.3980 C   0  0  0  0  0  0  0  0  0  0  0  0
  186.3490  177.7380  142.8080 C   0  0  0  0  0  3  0  0  0  0  0  0
  185.6730  177.9510  145.1140 C   0  0  0  0  0  3  0  0  0  0  0  0
  184.5240  178.6390  144.7120 C   0  0  0  0  0  3  0  0  0  0  0  0
  186.6010  177.5060  144.1680 C   0  0  0  0  0  0  0  0  0  0  0  0
  187.7440  176.8290  144.6210 O   0  0  0  0  0  0  0  0  0  0  0  0
  189.9130  176.0830  143.7190 C   0  0  0  0  0  3  0  0  0  0  0  0
  189.0740  177.0800  144.2440 C   0  0  0  0  0  0  0  0  0  0  0  0
  189.5630  178.3870  144.3600 C   0  0  0  0  0  3  0  0  0  0  0  0
  191.3280  179.9660  144.0780 F   0  0  0  0  0  0  0  0  0  0  0  0
  191.6940  177.6990  143.4400 C   0  0  0  0  0  3  0  0  0  0  0  0
  190.8670  178.6970  143.9610 C   0  0  0  0  0  0  0  0  0  0  0  0
  191.2170  176.3910  143.3200 C   0  0  0  0  0  3  0  0  0  0  0  0
  183.5200  178.5640  140.3800 C   0  0  0  0  0  2  0  0  0  0  0  0
  183.0650  177.1170  140.2820 C   0  0  0  0  0  2  0  0  0  0  0  0
  182.1410  176.9580  139.1700 N   0  0  0  0  0  0  0  0  0  0  0  0
  180.0470  176.4620  140.3000 C   0  0  0  0  0  1  0  0  0  0  0  0
  181.2230  175.8930  139.5390 C   0  0  0  0  0  2  0  0  0  0  0  0
  182.9250  176.4600  138.0500 C   0  0  0  0  0  2  0  0  0  0  0  0
  184.0790  174.4660  137.2100 C   0  0  2  0  0  3  0  0  0  0  0  0
  183.0360  174.9520  138.1340 C   0  0  2  0  0  3  0  0  0  0  0  0
  182.7120  174.3900  136.8860 O   0  0  0  0  0  0  0  0  0  0  0  0
  186.0110  172.9400  137.2900 C   0  0  0  0  0  2  0  0  0  0  0  0
  184.9420  172.2650  136.4700 C   0  0  0  0  0  2  0  0  0  0  0  0
  184.5550  173.1030  137.6690 C   0  0  0  0  0  3  0  0  0  0  0  0
  1  6  1  0  0  0  0
  3  9  1  0  0  0  0
  4  7  1  0  0  0  0
  5  3  1  0  0  0  0
  5  7  1  1  0  0  0
  5  9  1  0  0  0  0
  6 11  1  0  0  0  0
  6  4  1  0  0  0  0
  8  6  1  0  0  0  0
  9 26  1  6  0  0  0
  9 13  1  0  0  0  0
 10  4  2  0  0  0  0
 10  2  1  0  0  0  0
 11  5  1  0  0  0  0
 12 16  1  0  0  0  0
 13 14  1  0  0  0  0
 13 12  2  0  0  0  0
 14 17  2  0  0  0  0
 16 15  2  0  0  0  0
 17 18  1  0  0  0  0
 17 15  1  0  0  0  0
 19 20  1  0  0  0  0
 20 21  2  0  0  0  0
 20 18  1  0  0  0  0
 23 24  2  0  0  0  0
 24 22  1  0  0  0  0
 24 21  1  0  0  0  0
 25 23  1  0  0  0  0
 25 19  2  0  0  0  0
 27 26  1  0  0  0  0
 28 30  1  0  0  0  0
 28 27  1  0  0  0  0
 30 29  1  0  0  0  0
 31 28  1  0  0  0  0
 32 37  1  1  0  0  0
 32 33  1  0  0  0  0
 33 31  1  6  0  0  0
 34 32  1  0  0  0  0
 34 33  1  0  0  0  0
 35 37  1  0  0  0  0
 36 35  1  0  0  0  0
 36 37  1  0  0  0  0
M  END
>  <MODEL>
6

>  <REMARK>
 VINA RESULT:      -7.9      2.760      5.922
  Name = 
  10 active torsions:
  status: ('A' for Active; 'I' for Inactive)
    1  A    between atoms: C_1  and  N_5
    2  A    between atoms: C_1  and  C_36
    3  A    between atoms: N_5  and  C_17
    4  A    between atoms: N_5  and  C_23
    5  A    between atoms: C_6  and  O_37
    6  A    between atoms: C_10  and  C_29
    7  A    between atoms: C_11  and  C_33
    8  A    between atoms: C_17  and  C_26
    9  A    between atoms: C_29  and  C_36
   10  A    between atoms: C_31  and  O_37
                            x       y       z     vdW  Elec       q    Type
                         _______ _______ _______ _____ _____    ______ ____

>  <TORSDO>
F 10

$$$$
=
 OpenBabel11052415323D

 37 42  0  0  1  0  0  0  0  0999 V2000
  186.8090  176.2620  137.5740 C   0  0  0  0  0  1  0  0  0  0  0  0
  190.2260  177.8890  139.9610 C   0  0  0  0  0  1  0  0  0  0  0  0
  185.3060  179.6520  140.2650 O   0  0  0  0  0  0  0  0  0  0  0  0
  187.8930  177.8910  139.0970 C   0  0  0  0  0  0  0  0  0  0  0  0
  185.8590  178.3870  139.9700 C   0  0  1  0  0  0  0  0  0  0  0  0
  186.8340  177.7040  138.0550 C   0  0  0  0  0  0  0  0  0  0  0  0
  187.3100  178.3300  140.3710 C   0  0  0  0  0  2  0  0  0  0  0  0
  187.0830  178.6270  136.8720 C   0  0  0  0  0  1  0  0  0  0  0  0
  184.7350  178.5430  140.9240 C   0  0  1  0  0  0  0  0  0  0  0  0
  189.2020  177.6870  138.8910 C   0  0  0  0  0  3  0  0  0  0  0  0
  185.5850  178.0210  138.6370 O   0  0  0  0  0  0  0  0  0  0  0  0
  184.2540  179.1720  143.3030 C   0  0  0  0  0  3  0  0  0  0  0  0
  185.0570  178.4870  142.3880 C   0  0  0  0  0  0  0  0  0  0  0  0
  186.1610  177.7570  142.8490 C   0  0  0  0  0  3  0  0  0  0  0  0
  185.6400  178.3760  145.1220 C   0  0  0  0  0  3  0  0  0  0  0  0
  184.5400  179.1110  144.6680 C   0  0  0  0  0  3  0  0  0  0  0  0
  186.4660  177.7040  144.2170 C   0  0  0  0  0  0  0  0  0  0  0  0
  187.5640  176.9880  144.7190 O   0  0  0  0  0  0  0  0  0  0  0  0
  189.3840  178.2700  143.6620 C   0  0  0  0  0  3  0  0  0  0  0  0
  188.9200  177.3400  144.6070 C   0  0  0  0  0  0  0  0  0  0  0  0
  189.8330  176.7690  145.5020 C   0  0  0  0  0  3  0  0  0  0  0  0
  192.0590  176.5580  146.3290 F   0  0  0  0  0  0  0  0  0  0  0  0
  191.6380  178.0430  144.5150 C   0  0  0  0  0  3  0  0  0  0  0  0
  191.1860  177.1170  145.4570 C   0  0  0  0  0  0  0  0  0  0  0  0
  190.7370  178.6200  143.6160 C   0  0  0  0  0  3  0  0  0  0  0  0
  183.3270  178.2320  140.4260 C   0  0  0  0  0  2  0  0  0  0  0  0
  182.6580  179.4650  139.8400 C   0  0  0  0  0  2  0  0  0  0  0  0
  181.5410  179.0730  138.9960 N   0  0  0  0  0  0  0  0  0  0  0  0
  181.5290  178.6730  136.5990 C   0  0  0  0  0  1  0  0  0  0  0  0
  181.7650  179.6860  137.6960 C   0  0  0  0  0  2  0  0  0  0  0  0
  180.3570  179.7080  139.5550 C   0  0  0  0  0  2  0  0  0  0  0  0
  179.7840  179.2850  141.9020 C   0  0  2  0  0  3  0  0  0  0  0  0
  180.6180  180.0980  140.9950 C   0  0  2  0  0  3  0  0  0  0  0  0
  179.4360  180.6050  141.5620 O   0  0  0  0  0  0  0  0  0  0  0  0
  180.0600  177.9780  143.9710 C   0  0  0  0  0  2  0  0  0  0  0  0
  179.3250  179.2430  144.3360 C   0  0  0  0  0  2  0  0  0  0  0  0
  180.4110  179.2790  143.2820 C   0  0  0  0  0  3  0  0  0  0  0  0
  1  6  1  0  0  0  0
  3  9  1  0  0  0  0
  4  7  1  0  0  0  0
  5  3  1  0  0  0  0
  5  7  1  1  0  0  0
  5  9  1  0  0  0  0
  6 11  1  0  0  0  0
  6  4  1  0  0  0  0
  8  6  1  0  0  0  0
  9 26  1  6  0  0  0
  9 13  1  0  0  0  0
 10  4  2  0  0  0  0
 10  2  1  0  0  0  0
 11  5  1  0  0  0  0
 12 16  1  0  0  0  0
 13 14  1  0  0  0  0
 13 12  2  0  0  0  0
 14 17  2  0  0  0  0
 16 15  2  0  0  0  0
 17 18  1  0  0  0  0
 17 15  1  0  0  0  0
 19 20  1  0  0  0  0
 20 18  1  0  0  0  0
 20 21  2  0  0  0  0
 23 24  2  0  0  0  0
 24 21  1  0  0  0  0
 24 22  1  0  0  0  0
 25 19  2  0  0  0  0
 25 23  1  0  0  0  0
 27 26  1  0  0  0  0
 28 31  1  0  0  0  0
 28 27  1  0  0  0  0
 29 30  1  0  0  0  0
 30 28  1  0  0  0  0
 32 37  1  1  0  0  0
 33 31  1  6  0  0  0
 33 34  1  0  0  0  0
 33 32  1  0  0  0  0
 34 32  1  0  0  0  0
 35 36  1  0  0  0  0
 37 35  1  0  0  0  0
 37 36  1  0  0  0  0
M  END
>  <MODEL>
7

>  <REMARK>
 VINA RESULT:      -7.7      2.010      6.261
  Name = 
  10 active torsions:
  status: ('A' for Active; 'I' for Inactive)
    1  A    between atoms: C_1  and  N_5
    2  A    between atoms: C_1  and  C_36
    3  A    between atoms: N_5  and  C_17
    4  A    between atoms: N_5  and  C_23
    5  A    between atoms: C_6  and  O_37
    6  A    between atoms: C_10  and  C_29
    7  A    between atoms: C_11  and  C_33
    8  A    between atoms: C_17  and  C_26
    9  A    between atoms: C_29  and  C_36
   10  A    between atoms: C_31  and  O_37
                            x       y       z     vdW  Elec       q    Type
                         _______ _______ _______ _____ _____    ______ ____

>  <TORSDO>
F 10

$$$$
=
 OpenBabel11052415323D

 37 42  0  0  1  0  0  0  0  0999 V2000
  183.7480  178.0180  140.4320 C   0  0  0  0  0  1  0  0  0  0  0  0
  182.2200  176.7970  136.4080 C   0  0  0  0  0  1  0  0  0  0  0  0
  186.9060  178.9730  137.2540 O   0  0  0  0  0  0  0  0  0  0  0  0
  183.8190  177.9100  137.9560 C   0  0  0  0  0  0  0  0  0  0  0  0
  186.0730  178.1460  138.0370 C   0  0  1  0  0  0  0  0  0  0  0  0
  184.2020  178.7140  139.1590 C   0  0  0  0  0  0  0  0  0  0  0  0
  185.0050  177.5050  137.1900 C   0  0  0  0  0  2  0  0  0  0  0  0
  183.5800  180.1000  139.0930 C   0  0  0  0  0  1  0  0  0  0  0  0
  187.5240  177.8780  137.8930 C   0  0  1  0  0  0  0  0  0  0  0  0
  182.5570  177.6020  137.6210 C   0  0  0  0  0  3  0  0  0  0  0  0
  185.6100  178.8370  139.1740 O   0  0  0  0  0  0  0  0  0  0  0  0
  188.6050  177.1120  135.7640 C   0  0  0  0  0  3  0  0  0  0  0  0
  187.9360  176.7890  136.9470 C   0  0  0  0  0  0  0  0  0  0  0  0
  187.6540  175.4470  137.2370 C   0  0  0  0  0  3  0  0  0  0  0  0
  188.7240  174.7630  135.1850 C   0  0  0  0  0  3  0  0  0  0  0  0
  189.0040  176.1010  134.8880 C   0  0  0  0  0  3  0  0  0  0  0  0
  188.0360  174.4260  136.3540 C   0  0  0  0  0  0  0  0  0  0  0  0
  187.7680  173.0710  136.6040 O   0  0  0  0  0  0  0  0  0  0  0  0
  186.5520  171.3690  135.3010 C   0  0  0  0  0  3  0  0  0  0  0  0
  186.5920  172.3730  136.2820 C   0  0  0  0  0  0  0  0  0  0  0  0
  185.4260  172.6660  137.0000 C   0  0  0  0  0  3  0  0  0  0  0  0
  183.1180  172.2650  137.4470 F   0  0  0  0  0  0  0  0  0  0  0  0
  184.2100  170.9750  135.7680 C   0  0  0  0  0  3  0  0  0  0  0  0
  184.2390  171.9720  136.7450 C   0  0  0  0  0  0  0  0  0  0  0  0
  185.3670  170.6730  135.0440 C   0  0  0  0  0  3  0  0  0  0  0  0
  188.4470  178.3120  139.0270 C   0  0  0  0  0  2  0  0  0  0  0  0
  189.1130  177.1190  139.6930 C   0  0  0  0  0  2  0  0  0  0  0  0
  190.2830  177.5520  140.4400 N   0  0  0  0  0  0  0  0  0  0  0  0
  191.0610  176.0230  138.7180 C   0  0  0  0  0  1  0  0  0  0  0  0
  191.4450  177.1280  139.6760 C   0  0  0  0  0  2  0  0  0  0  0  0
  190.2940  176.7810  141.6740 C   0  0  0  0  0  2  0  0  0  0  0  0
  189.6550  176.8840  144.0400 C   0  0  2  0  0  3  0  0  0  0  0  0
  189.3940  177.4420  142.6980 C   0  0  2  0  0  3  0  0  0  0  0  0
  188.5510  176.4740  143.2710 O   0  0  0  0  0  0  0  0  0  0  0  0
  189.3970  177.2670  146.4590 C   0  0  0  0  0  2  0  0  0  0  0  0
  188.0170  177.2930  145.8530 C   0  0  0  0  0  2  0  0  0  0  0  0
  189.1870  177.8740  145.0880 C   0  0  0  0  0  3  0  0  0  0  0  0
  2 10  1  0  0  0  0
  3  9  1  0  0  0  0
  3  5  1  0  0  0  0
  4  6  1  0  0  0  0
  5  7  1  6  0  0  0
  5 11  1  0  0  0  0
  6 11  1  0  0  0  0
  6  1  1  0  0  0  0
  7  4  1  0  0  0  0
  8  6  1  0  0  0  0
  9  5  1  0  0  0  0
  9 26  1  1  0  0  0
 10  4  2  0  0  0  0
 12 13  1  0  0  0  0
 13 14  2  0  0  0  0
 13  9  1  0  0  0  0
 15 17  2  0  0  0  0
 16 15  1  0  0  0  0
 16 12  2  0  0  0  0
 17 18  1  0  0  0  0
 17 14  1  0  0  0  0
 19 20  1  0  0  0  0
 20 18  1  0  0  0  0
 20 21  2  0  0  0  0
 23 24  2  0  0  0  0
 24 21  1  0  0  0  0
 24 22  1  0  0  0  0
 25 19  2  0  0  0  0
 25 23  1  0  0  0  0
 26 27  1  0  0  0  0
 27 28  1  0  0  0  0
 28 31  1  0  0  0  0
 29 30  1  0  0  0  0
 30 28  1  0  0  0  0
 32 37  1  1  0  0  0
 33 31  1  6  0  0  0
 33 34  1  0  0  0  0
 33 32  1  0  0  0  0
 34 32  1  0  0  0  0
 36 35  1  0  0  0  0
 37 36  1  0  0  0  0
 37 35  1  0  0  0  0
M  END
>  <MODEL>
8

>  <REMARK>
 VINA RESULT:      -7.3      4.210      7.842
  Name = 
  10 active torsions:
  status: ('A' for Active; 'I' for Inactive)
    1  A    between atoms: C_1  and  N_5
    2  A    between atoms: C_1  and  C_36
    3  A    between atoms: N_5  and  C_17
    4  A    between atoms: N_5  and  C_23
    5  A    between atoms: C_6  and  O_37
    6  A    between atoms: C_10  and  C_29
    7  A    between atoms: C_11  and  C_33
    8  A    between atoms: C_17  and  C_26
    9  A    between atoms: C_29  and  C_36
   10  A    between atoms: C_31  and  O_37
                            x       y       z     vdW  Elec       q    Type
                         _______ _______ _______ _____ _____    ______ ____

>  <TORSDO>
F 10

$$$$
=
 OpenBabel11052415323D

 37 42  0  0  1  0  0  0  0  0999 V2000
  185.8750  180.0000  146.8960 C   0  0  0  0  0  1  0  0  0  0  0  0
  188.8120  176.7000  147.6020 C   0  0  0  0  0  1  0  0  0  0  0  0
  185.9130  177.1990  143.2720 O   0  0  0  0  0  0  0  0  0  0  0  0
  186.9740  177.8400  146.3730 C   0  0  0  0  0  0  0  0  0  0  0  0
  186.4450  178.1320  144.1870 C   0  0  1  0  0  0  0  0  0  0  0  0
  185.7080  178.6310  146.2580 C   0  0  0  0  0  0  0  0  0  0  0  0
  187.5040  177.4950  145.0480 C   0  0  0  0  0  2  0  0  0  0  0  0
  184.5590  177.8960  146.9320 C   0  0  0  0  0  1  0  0  0  0  0  0
  186.5650  178.3230  142.7210 C   0  0  1  0  0  0  0  0  0  0  0  0
  187.5470  177.4930  147.5350 C   0  0  0  0  0  3  0  0  0  0  0  0
  185.4140  178.7920  144.8850 O   0  0  0  0  0  0  0  0  0  0  0  0
  187.9590  177.7840  140.7080 C   0  0  0  0  0  3  0  0  0  0  0  0
  187.8850  177.9960  142.0860 C   0  0  0  0  0  0  0  0  0  0  0  0
  189.0460  177.8970  142.8640 C   0  0  0  0  0  3  0  0  0  0  0  0
  190.3430  177.4030  140.8910 C   0  0  0  0  0  3  0  0  0  0  0  0
  189.1870  177.4950  140.1100 C   0  0  0  0  0  3  0  0  0  0  0  0
  190.2810  177.5910  142.2740 C   0  0  0  0  0  0  0  0  0  0  0  0
  191.4670  177.4780  143.0180 O   0  0  0  0  0  0  0  0  0  0  0  0
  191.9270  175.2880  144.0500 C   0  0  0  0  0  3  0  0  0  0  0  0
  191.6770  176.6670  144.1460 C   0  0  0  0  0  0  0  0  0  0  0  0
  191.6790  177.2710  145.4090 C   0  0  0  0  0  3  0  0  0  0  0  0
  191.9230  177.1100  147.7760 F   0  0  0  0  0  0  0  0  0  0  0  0
  192.1720  175.1440  146.4540 C   0  0  0  0  0  3  0  0  0  0  0  0
  191.9230  176.5140  146.5590 C   0  0  0  0  0  0  0  0  0  0  0  0
  192.1730  174.5300  145.1990 C   0  0  0  0  0  3  0  0  0  0  0  0
  185.5940  179.2840  142.0440 C   0  0  0  0  0  2  0  0  0  0  0  0
  184.1970  178.6930  141.9500 C   0  0  0  0  0  2  0  0  0  0  0  0
  184.0070  178.0610  140.6550 N   0  0  0  0  0  0  0  0  0  0  0  0
  185.0620  178.2560  138.4740 C   0  0  0  0  0  1  0  0  0  0  0  0
  184.4890  179.0030  139.6570 C   0  0  0  0  0  2  0  0  0  0  0  0
  182.5700  177.9470  140.4570 C   0  0  0  0  0  2  0  0  0  0  0  0
  180.7820  178.4320  142.0650 C   0  0  2  0  0  3  0  0  0  0  0  0
  181.8580  179.0260  141.2460 C   0  0  2  0  0  3  0  0  0  0  0  0
  180.5110  179.0830  140.8470 O   0  0  0  0  0  0  0  0  0  0  0  0
  179.5650  178.6420  144.1950 C   0  0  0  0  0  2  0  0  0  0  0  0
  178.9650  179.6410  143.2380 C   0  0  0  0  0  2  0  0  0  0  0  0
  180.4540  179.3690  143.2100 C   0  0  0  0  0  3  0  0  0  0  0  0
  3  5  1  0  0  0  0
  4 10  2  0  0  0  0
  5 11  1  0  0  0  0
  5  7  1  1  0  0  0
  6  4  1  0  0  0  0
  6  1  1  0  0  0  0
  6  8  1  0  0  0  0
  7  4  1  0  0  0  0
  9 26  1  6  0  0  0
  9  3  1  0  0  0  0
  9  5  1  0  0  0  0
 10  2  1  0  0  0  0
 11  6  1  0  0  0  0
 12 13  1  0  0  0  0
 13  9  1  0  0  0  0
 13 14  2  0  0  0  0
 15 17  2  0  0  0  0
 16 12  2  0  0  0  0
 16 15  1  0  0  0  0
 17 14  1  0  0  0  0
 17 18  1  0  0  0  0
 18 20  1  0  0  0  0
 19 20  2  0  0  0  0
 19 25  1  0  0  0  0
 20 21  1  0  0  0  0
 21 24  2  0  0  0  0
 23 24  1  0  0  0  0
 24 22  1  0  0  0  0
 25 23  2  0  0  0  0
 27 26  1  0  0  0  0
 28 27  1  0  0  0  0
 29 30  1  0  0  0  0
 30 28  1  0  0  0  0
 31 28  1  0  0  0  0
 32 37  1  1  0  0  0
 33 31  1  6  0  0  0
 33 32  1  0  0  0  0
 34 33  1  0  0  0  0
 34 32  1  0  0  0  0
 36 35  1  0  0  0  0
 37 36  1  0  0  0  0
 37 35  1  0  0  0  0
M  END
>  <MODEL>
9

>  <REMARK>
 VINA RESULT:      -7.2      1.880      6.941
  Name = 
  10 active torsions:
  status: ('A' for Active; 'I' for Inactive)
    1  A    between atoms: C_1  and  N_5
    2  A    between atoms: C_1  and  C_36
    3  A    between atoms: N_5  and  C_17
    4  A    between atoms: N_5  and  C_23
    5  A    between atoms: C_6  and  O_37
    6  A    between atoms: C_10  and  C_29
    7  A    between atoms: C_11  and  C_33
    8  A    between atoms: C_17  and  C_26
    9  A    between atoms: C_29  and  C_36
   10  A    between atoms: C_31  and  O_37
                            x       y       z     vdW  Elec       q    Type
                         _______ _______ _______ _____ _____    ______ ____

>  <TORSDO>
F 10

$$$$
