=
 OpenBabel11052414263D

 34 39  0  0  1  0  0  0  0  0999 V2000
  190.5430  177.0090  146.4590 C   0  0  0  0  0  0  0  0  0  0  0  0
  191.6900  175.7190  144.7750 C   0  0  0  0  0  0  0  0  0  0  0  0
  189.9990  177.6030  144.0910 C   0  0  2  0  0  3  0  0  0  0  0  0
  188.9250  177.1680  141.8470 C   0  0  0  0  0  0  0  0  0  0  0  0
  191.2920  176.3910  147.4060 N   0  0  0  0  0  0  0  0  0  0  0  0
  192.4220  175.1450  145.7660 N   0  0  0  0  0  2  0  0  0  0  0  0
  191.3720  177.5360  142.0000 C   0  0  0  0  0  2  0  0  0  0  0  0
  190.7430  176.7180  145.0900 C   0  0  0  0  0  0  0  0  0  0  0  0
  191.4260  176.8370  140.6450 C   0  0  0  0  0  2  0  0  0  0  0  0
  189.0550  176.7530  140.4100 C   0  0  0  0  0  2  0  0  0  0  0  0
  192.2350  175.4770  147.0680 C   0  0  0  0  0  3  0  0  0  0  0  0
  188.5960  177.8980  144.5800 C   0  0  0  0  0  0  0  0  0  0  0  0
  189.4220  177.8780  146.8790 C   0  0  0  0  0  3  0  0  0  0  0  0
  191.8590  175.3210  143.5930 O   0  0  0  0  0  0  0  0  0  0  0  0
  187.7190  177.4300  142.3480 C   0  0  0  0  0  3  0  0  0  0  0  0
  187.5240  177.8260  143.7560 C   0  0  0  0  0  0  0  0  0  0  0  0
  190.2940  177.2920  139.8360 N   0  0  2  0  0  0  0  0  0  0  0  0
  190.1030  177.2460  142.6700 N   0  0  0  0  0  0  0  0  0  0  0  0
  188.4910  178.2790  146.0060 C   0  0  0  0  0  3  0  0  0  0  0  0
  184.5200  178.2920  146.0200 C   0  0  0  0  0  0  0  0  0  0  0  0
  183.5210  178.6280  145.1030 C   0  0  0  0  0  3  0  0  0  0  0  0
  186.1260  178.0600  144.2050 C   0  0  0  0  0  0  0  0  0  0  0  0
  183.8180  178.6910  143.7410 C   0  0  0  0  0  3  0  0  0  0  0  0
  185.8160  178.0150  145.5750 C   0  0  0  0  0  3  0  0  0  0  0  0
  185.1160  178.4170  143.2970 C   0  0  0  0  0  3  0  0  0  0  0  0
  184.2330  178.2530  147.3460 F   0  0  0  0  0  0  0  0  0  0  0  0
  190.4480  176.7810  138.4710 C   0  0  1  0  0  0  0  0  0  0  0  0
  189.1980  175.8480  136.5480 O   0  0  0  0  0  1  0  0  0  0  0  0
  190.2590  177.8640  137.4140 C   0  0  0  0  0  2  0  0  0  0  0  0
  191.7980  175.5980  138.0990 S   0  0  0  0  0  1  0  0  0  0  0  0
  189.2080  176.7790  137.5910 C   0  0  2  0  0  0  0  0  0  0  0  0
  187.5340  178.6270  137.7890 C   0  0  0  0  0  1  0  0  0  0  0  0
  187.8760  177.2070  138.1980 C   0  0  1  0  0  3  0  0  0  0  0  0
  186.8660  176.3470  137.7580 O   0  0  0  0  0  1  0  0  0  0  0  0
  1 13  1  0  0  0  0
  1  5  1  0  0  0  0
  2  8  1  0  0  0  0
  2  6  1  0  0  0  0
  3 12  1  1  0  0  0
  3  8  1  0  0  0  0
  4 15  2  0  0  0  0
  4 18  1  0  0  0  0
  6 11  1  0  0  0  0
  7 18  1  0  0  0  0
  8  1  2  0  0  0  0
  9  7  1  0  0  0  0
 10  4  1  0  0  0  0
 11  5  2  0  0  0  0
 12 19  1  0  0  0  0
 14  2  2  0  0  0  0
 15 16  1  0  0  0  0
 16 22  1  0  0  0  0
 16 12  2  0  0  0  0
 17 10  1  1  0  0  0
 17  9  1  0  0  0  0
 18  3  1  0  0  0  0
 19 13  2  0  0  0  0
 20 26  1  0  0  0  0
 21 20  2  0  0  0  0
 22 24  2  0  0  0  0
 23 21  1  0  0  0  0
 24 20  1  0  0  0  0
 25 23  2  0  0  0  0
 25 22  1  0  0  0  0
 27 30  1  6  0  0  0
 27 17  1  0  0  0  0
 29 31  1  0  0  0  0
 29 27  1  0  0  0  0
 31 28  1  6  0  0  0
 31 33  1  0  0  0  0
 31 27  1  0  0  0  0
 33 32  1  6  0  0  0
 34 33  1  0  0  0  0
M  END
>  <MODEL>
1

>  <REMARK>
 VINA RESULT:      -9.7      0.000      0.000
  Name = 
  3 active torsions:
  status: ('A' for Active; 'I' for Inactive)
    1  A    between atoms: C_3  and  N_29
    2  A    between atoms: C_12  and  C_28
    3  A    between atoms: C_20  and  C_33
                            x       y       z     vdW  Elec       q    Type
                         _______ _______ _______ _____ _____    ______ ____

>  <TORSDO>
F 3

$$$$
=
 OpenBabel11052414263D

 34 39  0  0  1  0  0  0  0  0999 V2000
  189.0940  177.9170  139.7700 C   0  0  0  0  0  0  0  0  0  0  0  0
  187.3400  177.2890  138.2390 C   0  0  0  0  0  0  0  0  0  0  0  0
  186.7920  178.6570  140.4070 C   0  0  2  0  0  3  0  0  0  0  0  0
  184.4410  178.2500  141.2360 C   0  0  0  0  0  0  0  0  0  0  0  0
  190.0030  177.4230  138.8930 N   0  0  0  0  0  0  0  0  0  0  0  0
  188.2970  176.8240  137.3920 N   0  0  0  0  0  2  0  0  0  0  0  0
  184.8090  179.3080  139.0250 C   0  0  0  0  0  2  0  0  0  0  0  0
  187.7170  177.9010  139.4540 C   0  0  0  0  0  0  0  0  0  0  0  0
  183.3820  178.8610  138.7240 C   0  0  0  0  0  2  0  0  0  0  0  0
  182.9750  178.1050  140.9470 C   0  0  0  0  0  2  0  0  0  0  0  0
  189.6150  176.8920  137.7060 C   0  0  0  0  0  3  0  0  0  0  0  0
  187.2160  178.4440  141.8450 C   0  0  0  0  0  0  0  0  0  0  0  0
  189.5450  178.3400  141.1130 C   0  0  0  0  0  3  0  0  0  0  0  0
  186.1320  177.1340  137.9250 O   0  0  0  0  0  0  0  0  0  0  0  0
  184.8870  178.0630  142.4770 C   0  0  0  0  0  3  0  0  0  0  0  0
  186.3180  178.1740  142.8210 C   0  0  0  0  0  0  0  0  0  0  0  0
  182.5620  179.0670  139.9190 N   0  0  2  0  0  0  0  0  0  0  0  0
  185.3460  178.5570  140.1620 N   0  0  0  0  0  0  0  0  0  0  0  0
  188.6690  178.5660  142.0990 C   0  0  0  0  0  3  0  0  0  0  0  0
  188.3630  177.1970  145.8590 C   0  0  0  0  0  0  0  0  0  0  0  0
  187.4950  177.5240  146.9050 C   0  0  0  0  0  3  0  0  0  0  0  0
  186.6960  177.9100  144.2350 C   0  0  0  0  0  0  0  0  0  0  0  0
  186.2340  178.0520  146.6240 C   0  0  0  0  0  3  0  0  0  0  0  0
  187.9680  177.3940  144.5320 C   0  0  0  0  0  3  0  0  0  0  0  0
  185.8420  178.2510  145.2970 C   0  0  0  0  0  3  0  0  0  0  0  0
  189.5970  176.7050  146.1360 F   0  0  0  0  0  0  0  0  0  0  0  0
  181.1570  178.8280  139.5790 C   0  0  1  0  0  0  0  0  0  0  0  0
  178.9310  178.3630  140.5570 O   0  0  0  0  0  1  0  0  0  0  0  0
  180.3270  180.1080  139.5850 C   0  0  0  0  0  2  0  0  0  0  0  0
  180.7430  177.6720  138.2190 S   0  0  0  0  0  1  0  0  0  0  0  0
  180.1320  179.0670  140.6780 C   0  0  2  0  0  0  0  0  0  0  0  0
  179.8130  180.5900  142.6360 C   0  0  0  0  0  1  0  0  0  0  0  0
  180.6230  179.4370  142.0730 C   0  0  1  0  0  3  0  0  0  0  0  0
  180.4980  178.3330  142.9190 O   0  0  0  0  0  1  0  0  0  0  0  0
  1 13  1  0  0  0  0
  2  8  1  0  0  0  0
  3  8  1  6  0  0  0
  3 12  1  0  0  0  0
  4 15  2  0  0  0  0
  5  1  1  0  0  0  0
  6 11  1  0  0  0  0
  6  2  1  0  0  0  0
  7 18  1  0  0  0  0
  8  1  2  0  0  0  0
  9  7  1  0  0  0  0
 10  4  1  0  0  0  0
 11  5  2  0  0  0  0
 12 19  1  0  0  0  0
 12 16  2  0  0  0  0
 13 19  2  0  0  0  0
 14  2  2  0  0  0  0
 15 16  1  0  0  0  0
 16 22  1  0  0  0  0
 17  9  1  6  0  0  0
 17 10  1  0  0  0  0
 18  3  1  0  0  0  0
 18  4  1  0  0  0  0
 20 26  1  0  0  0  0
 20 21  1  0  0  0  0
 22 24  1  0  0  0  0
 22 25  2  0  0  0  0
 23 21  2  0  0  0  0
 24 20  2  0  0  0  0
 25 23  1  0  0  0  0
 27 30  1  6  0  0  0
 27 29  1  0  0  0  0
 27 17  1  0  0  0  0
 27 31  1  0  0  0  0
 29 31  1  0  0  0  0
 31 28  1  6  0  0  0
 31 33  1  0  0  0  0
 33 32  1  1  0  0  0
 33 34  1  0  0  0  0
M  END
>  <MODEL>
2

>  <REMARK>
 VINA RESULT:      -9.3      4.152      7.148
  Name = 
  3 active torsions:
  status: ('A' for Active; 'I' for Inactive)
    1  A    between atoms: C_3  and  N_29
    2  A    between atoms: C_12  and  C_28
    3  A    between atoms: C_20  and  C_33
                            x       y       z     vdW  Elec       q    Type
                         _______ _______ _______ _____ _____    ______ ____

>  <TORSDO>
F 3

$$$$
=
 OpenBabel11052414263D

 34 39  0  0  1  0  0  0  0  0999 V2000
  186.6840  177.7190  145.2250 C   0  0  0  0  0  0  0  0  0  0  0  0
  184.7800  179.1400  144.8150 C   0  0  0  0  0  0  0  0  0  0  0  0
  185.7810  177.6620  142.8940 C   0  0  2  0  0  3  0  0  0  0  0  0
  185.3810  178.6550  140.6060 C   0  0  0  0  0  0  0  0  0  0  0  0
  186.6090  178.0390  146.5410 N   0  0  0  0  0  0  0  0  0  0  0  0
  184.7430  179.4120  146.1470 N   0  0  0  0  0  2  0  0  0  0  0  0
  183.4600  177.9420  142.0000 C   0  0  0  0  0  2  0  0  0  0  0  0
  185.7390  178.2350  144.3110 C   0  0  0  0  0  0  0  0  0  0  0  0
  182.6420  178.8710  141.1100 C   0  0  0  0  0  2  0  0  0  0  0  0
  184.4540  179.3140  139.6270 C   0  0  0  0  0  2  0  0  0  0  0  0
  185.6400  178.8670  147.0070 C   0  0  0  0  0  3  0  0  0  0  0  0
  187.2120  177.4700  142.4380 C   0  0  0  0  0  0  0  0  0  0  0  0
  187.8460  176.9430  144.7380 C   0  0  0  0  0  3  0  0  0  0  0  0
  183.9670  179.7290  144.0570 O   0  0  0  0  0  0  0  0  0  0  0  0
  186.6580  178.4650  140.2760 C   0  0  0  0  0  3  0  0  0  0  0  0
  187.6220  177.8390  141.2010 C   0  0  0  0  0  0  0  0  0  0  0  0
  183.1100  178.7330  139.7300 N   0  0  2  0  0  0  0  0  0  0  0  0
  184.8840  178.2660  141.8990 N   0  0  0  0  0  0  0  0  0  0  0  0
  188.1120  176.8430  143.4300 C   0  0  0  0  0  3  0  0  0  0  0  0
  191.3880  177.4110  141.2410 C   0  0  0  0  0  0  0  0  0  0  0  0
  191.6810  177.3390  139.8760 C   0  0  0  0  0  3  0  0  0  0  0  0
  189.0270  177.7130  140.7300 C   0  0  0  0  0  0  0  0  0  0  0  0
  190.6550  177.4420  138.9370 C   0  0  0  0  0  3  0  0  0  0  0  0
  190.0680  177.5920  141.6660 C   0  0  0  0  0  3  0  0  0  0  0  0
  189.3350  177.6200  139.3630 C   0  0  0  0  0  3  0  0  0  0  0  0
  192.3850  177.2880  142.1520 F   0  0  0  0  0  0  0  0  0  0  0  0
  182.2040  179.4700  138.8430 C   0  0  1  0  0  0  0  0  0  0  0  0
  181.3390  179.5660  136.5260 O   0  0  0  0  0  1  0  0  0  0  0  0
  180.8060  178.8610  138.7970 C   0  0  0  0  0  2  0  0  0  0  0  0
  182.2240  181.3020  138.8560 S   0  0  0  0  0  1  0  0  0  0  0  0
  181.7280  178.7490  137.5920 C   0  0  2  0  0  0  0  0  0  0  0  0
  181.2830  176.5480  136.4910 C   0  0  0  0  0  1  0  0  0  0  0  0
  182.2870  177.3650  137.2820 C   0  0  1  0  0  3  0  0  0  0  0  0
  183.4620  177.4930  136.5380 O   0  0  0  0  0  1  0  0  0  0  0  0
  1  5  1  0  0  0  0
  2  6  1  0  0  0  0
  3 12  1  6  0  0  0
  3  8  1  0  0  0  0
  4 18  1  0  0  0  0
  5 11  2  0  0  0  0
  6 11  1  0  0  0  0
  8  2  1  0  0  0  0
  8  1  2  0  0  0  0
  9  7  1  0  0  0  0
 10  4  1  0  0  0  0
 12 19  1  0  0  0  0
 13  1  1  0  0  0  0
 14  2  2  0  0  0  0
 15  4  2  0  0  0  0
 15 16  1  0  0  0  0
 16 12  2  0  0  0  0
 17 10  1  1  0  0  0
 17  9  1  0  0  0  0
 18  7  1  0  0  0  0
 18  3  1  0  0  0  0
 19 13  2  0  0  0  0
 20 24  1  0  0  0  0
 20 26  1  0  0  0  0
 21 20  2  0  0  0  0
 22 16  1  0  0  0  0
 22 24  2  0  0  0  0
 23 25  2  0  0  0  0
 23 21  1  0  0  0  0
 25 22  1  0  0  0  0
 27 30  1  6  0  0  0
 27 17  1  0  0  0  0
 29 27  1  0  0  0  0
 31 28  1  6  0  0  0
 31 29  1  0  0  0  0
 31 27  1  0  0  0  0
 33 32  1  6  0  0  0
 33 31  1  0  0  0  0
 34 33  1  0  0  0  0
M  END
>  <MODEL>
3

>  <REMARK>
 VINA RESULT:      -8.9      4.587      6.883
  Name = 
  3 active torsions:
  status: ('A' for Active; 'I' for Inactive)
    1  A    between atoms: C_3  and  N_29
    2  A    between atoms: C_12  and  C_28
    3  A    between atoms: C_20  and  C_33
                            x       y       z     vdW  Elec       q    Type
                         _______ _______ _______ _____ _____    ______ ____

>  <TORSDO>
F 3

$$$$
=
 OpenBabel11052414263D

 34 39  0  0  1  0  0  0  0  0999 V2000
  180.4350  179.8110  142.0970 C   0  0  0  0  0  0  0  0  0  0  0  0
  180.9980  180.4240  139.8330 C   0  0  0  0  0  0  0  0  0  0  0  0
  182.3290  178.5370  141.0750 C   0  0  2  0  0  3  0  0  0  0  0  0
  184.6980  178.3110  140.2290 C   0  0  0  0  0  0  0  0  0  0  0  0
  179.3670  180.6450  142.0310 N   0  0  0  0  0  0  0  0  0  0  0  0
  179.9050  181.2320  139.8190 N   0  0  0  0  0  2  0  0  0  0  0  0
  182.7920  177.8490  138.7140 C   0  0  0  0  0  2  0  0  0  0  0  0
  181.2770  179.6420  140.9750 C   0  0  0  0  0  0  0  0  0  0  0  0
  183.8010  178.0790  137.5930 C   0  0  0  0  0  2  0  0  0  0  0  0
  185.6590  178.2410  139.0780 C   0  0  0  0  0  2  0  0  0  0  0  0
  179.0900  181.3420  140.9000 C   0  0  0  0  0  3  0  0  0  0  0  0
  182.9390  178.5050  142.4610 C   0  0  0  0  0  0  0  0  0  0  0  0
  180.7890  179.1950  143.3940 C   0  0  0  0  0  3  0  0  0  0  0  0
  181.7540  180.4170  138.8280 O   0  0  0  0  0  0  0  0  0  0  0  0
  185.1660  178.3010  141.4760 C   0  0  0  0  0  3  0  0  0  0  0  0
  184.2740  178.3830  142.6500 C   0  0  0  0  0  0  0  0  0  0  0  0
  185.0750  177.4680  137.9750 N   0  0  2  0  0  0  0  0  0  0  0  0
  183.2880  178.4190  139.9680 N   0  0  0  0  0  0  0  0  0  0  0  0
  181.9740  178.6010  143.5780 C   0  0  0  0  0  3  0  0  0  0  0  0
  186.8610  177.9370  145.3840 C   0  0  0  0  0  0  0  0  0  0  0  0
  186.2220  178.5250  146.4790 C   0  0  0  0  0  3  0  0  0  0  0  0
  184.9190  178.3960  143.9890 C   0  0  0  0  0  0  0  0  0  0  0  0
  184.9410  179.0580  146.3350 C   0  0  0  0  0  3  0  0  0  0  0  0
  186.2150  177.8770  144.1450 C   0  0  0  0  0  3  0  0  0  0  0  0
  184.2980  179.0010  145.0940 C   0  0  0  0  0  3  0  0  0  0  0  0
  188.1150  177.4390  145.5220 F   0  0  0  0  0  0  0  0  0  0  0  0
  185.9870  177.5110  136.8290 C   0  0  1  0  0  0  0  0  0  0  0  0
  187.5280  176.1350  135.4650 O   0  0  0  0  0  1  0  0  0  0  0  0
  185.3030  177.1270  135.5210 C   0  0  0  0  0  2  0  0  0  0  0  0
  187.1740  178.8990  136.6740 S   0  0  0  0  0  1  0  0  0  0  0  0
  186.3150  176.1860  136.1580 C   0  0  2  0  0  0  0  0  0  0  0  0
  184.9700  174.1200  135.7370 C   0  0  0  0  0  1  0  0  0  0  0  0
  185.7670  174.9000  136.7650 C   0  0  1  0  0  3  0  0  0  0  0  0
  186.8270  174.1110  137.2180 O   0  0  0  0  0  1  0  0  0  0  0  0
  1 13  1  0  0  0  0
  2  8  1  0  0  0  0
  3  8  1  6  0  0  0
  3 12  1  0  0  0  0
  4 15  2  0  0  0  0
  5  1  1  0  0  0  0
  6  2  1  0  0  0  0
  6 11  1  0  0  0  0
  7 18  1  0  0  0  0
  8  1  2  0  0  0  0
  9  7  1  0  0  0  0
 10  4  1  0  0  0  0
 11  5  2  0  0  0  0
 12 16  2  0  0  0  0
 12 19  1  0  0  0  0
 13 19  2  0  0  0  0
 14  2  2  0  0  0  0
 15 16  1  0  0  0  0
 16 22  1  0  0  0  0
 17  9  1  6  0  0  0
 17 10  1  0  0  0  0
 18  4  1  0  0  0  0
 18  3  1  0  0  0  0
 20 26  1  0  0  0  0
 20 21  1  0  0  0  0
 22 24  1  0  0  0  0
 22 25  2  0  0  0  0
 23 21  2  0  0  0  0
 24 20  2  0  0  0  0
 25 23  1  0  0  0  0
 27 30  1  6  0  0  0
 27 17  1  0  0  0  0
 29 31  1  0  0  0  0
 29 27  1  0  0  0  0
 31 28  1  6  0  0  0
 31 33  1  0  0  0  0
 31 27  1  0  0  0  0
 33 32  1  6  0  0  0
 33 34  1  0  0  0  0
M  END
>  <MODEL>
4

>  <REMARK>
 VINA RESULT:      -8.6      4.696      7.589
  Name = 
  3 active torsions:
  status: ('A' for Active; 'I' for Inactive)
    1  A    between atoms: C_3  and  N_29
    2  A    between atoms: C_12  and  C_28
    3  A    between atoms: C_20  and  C_33
                            x       y       z     vdW  Elec       q    Type
                         _______ _______ _______ _____ _____    ______ ____

>  <TORSDO>
F 3

$$$$
=
 OpenBabel11052414263D

 34 39  0  0  1  0  0  0  0  0999 V2000
  186.9660  178.2740  146.5580 C   0  0  0  0  0  0  0  0  0  0  0  0
  188.7130  177.0230  145.4630 C   0  0  0  0  0  0  0  0  0  0  0  0
  187.1760  178.6480  144.0950 C   0  0  2  0  0  3  0  0  0  0  0  0
  186.9410  177.9470  141.6790 C   0  0  0  0  0  0  0  0  0  0  0  0
  187.4160  177.8100  147.7510 N   0  0  0  0  0  0  0  0  0  0  0  0
  189.1300  176.6030  146.6880 N   0  0  0  0  0  2  0  0  0  0  0  0
  189.1580  178.6090  142.5670 C   0  0  0  0  0  2  0  0  0  0  0  0
  187.6290  177.9210  145.3610 C   0  0  0  0  0  0  0  0  0  0  0  0
  189.7160  177.8360  141.3760 C   0  0  0  0  0  2  0  0  0  0  0  0
  187.5710  177.4590  140.4080 C   0  0  0  0  0  2  0  0  0  0  0  0
  188.4970  176.9930  147.8240 C   0  0  0  0  0  3  0  0  0  0  0  0
  185.6700  178.8060  144.0790 C   0  0  0  0  0  0  0  0  0  0  0  0
  185.6960  179.0300  146.5120 C   0  0  0  0  0  3  0  0  0  0  0  0
  189.2950  176.5730  144.4430 O   0  0  0  0  0  0  0  0  0  0  0  0
  185.6190  178.0970  141.7420 C   0  0  0  0  0  3  0  0  0  0  0  0
  184.9380  178.5560  142.9680 C   0  0  0  0  0  0  0  0  0  0  0  0
  188.8750  178.1020  140.2080 N   0  0  2  0  0  0  0  0  0  0  0  0
  187.7710  178.2150  142.8230 N   0  0  0  0  0  0  0  0  0  0  0  0
  185.0700  179.2620  145.3520 C   0  0  0  0  0  3  0  0  0  0  0  0
  181.3930  178.6260  141.6290 C   0  0  0  0  0  0  0  0  0  0  0  0
  180.6450  178.6960  142.8080 C   0  0  0  0  0  3  0  0  0  0  0  0
  183.4550  178.6520  142.9230 C   0  0  0  0  0  0  0  0  0  0  0  0
  181.2920  178.7350  144.0430 C   0  0  0  0  0  3  0  0  0  0  0  0
  182.7900  178.5990  141.6860 C   0  0  0  0  0  3  0  0  0  0  0  0
  182.6890  178.7040  144.0990 C   0  0  0  0  0  3  0  0  0  0  0  0
  180.7600  178.5670  140.4310 F   0  0  0  0  0  0  0  0  0  0  0  0
  189.5130  177.5250  139.0200 C   0  0  1  0  0  0  0  0  0  0  0  0
  189.0510  176.3400  136.8970 O   0  0  0  0  0  1  0  0  0  0  0  0
  189.5910  178.5120  137.8600 C   0  0  0  0  0  2  0  0  0  0  0  0
  191.0060  176.4810  139.2180 S   0  0  0  0  0  1  0  0  0  0  0  0
  188.6360  177.3300  137.7940 C   0  0  2  0  0  0  0  0  0  0  0  0
  186.7970  178.8520  137.0480 C   0  0  0  0  0  1  0  0  0  0  0  0
  187.1480  177.6430  137.8950 C   0  0  1  0  0  3  0  0  0  0  0  0
  186.4090  176.5440  137.4550 O   0  0  0  0  0  1  0  0  0  0  0  0
  1  5  1  0  0  0  0
  2  6  1  0  0  0  0
  3 12  1  6  0  0  0
  3  8  1  0  0  0  0
  4 15  2  0  0  0  0
  4 18  1  0  0  0  0
  5 11  2  0  0  0  0
  6 11  1  0  0  0  0
  7 18  1  0  0  0  0
  8  2  1  0  0  0  0
  8  1  2  0  0  0  0
  9  7  1  0  0  0  0
 10  4  1  0  0  0  0
 12 19  1  0  0  0  0
 13  1  1  0  0  0  0
 14  2  2  0  0  0  0
 15 16  1  0  0  0  0
 16 12  2  0  0  0  0
 17 10  1  1  0  0  0
 17  9  1  0  0  0  0
 18  3  1  0  0  0  0
 19 13  2  0  0  0  0
 20 24  2  0  0  0  0
 20 21  1  0  0  0  0
 21 23  2  0  0  0  0
 22 16  1  0  0  0  0
 22 25  2  0  0  0  0
 23 25  1  0  0  0  0
 24 22  1  0  0  0  0
 26 20  1  0  0  0  0
 27 30  1  1  0  0  0
 27 17  1  0  0  0  0
 29 27  1  0  0  0  0
 31 28  1  6  0  0  0
 31 29  1  0  0  0  0
 31 33  1  0  0  0  0
 31 27  1  0  0  0  0
 33 32  1  6  0  0  0
 34 33  1  0  0  0  0
M  END
>  <MODEL>
5

>  <REMARK>
 VINA RESULT:      -8.4      2.252      3.158
  Name = 
  3 active torsions:
  status: ('A' for Active; 'I' for Inactive)
    1  A    between atoms: C_3  and  N_29
    2  A    between atoms: C_12  and  C_28
    3  A    between atoms: C_20  and  C_33
                            x       y       z     vdW  Elec       q    Type
                         _______ _______ _______ _____ _____    ______ ____

>  <TORSDO>
F 3

$$$$
=
 OpenBabel11052414263D

 34 39  0  0  1  0  0  0  0  0999 V2000
  186.0370  178.0810  143.8680 C   0  0  0  0  0  0  0  0  0  0  0  0
  186.4940  178.8680  141.6350 C   0  0  0  0  0  0  0  0  0  0  0  0
  187.9680  176.9870  142.7160 C   0  0  2  0  0  3  0  0  0  0  0  0
  190.3190  176.9550  141.7930 C   0  0  0  0  0  0  0  0  0  0  0  0
  184.9220  178.8530  143.8860 N   0  0  0  0  0  0  0  0  0  0  0  0
  185.3560  179.6090  141.7040 N   0  0  0  0  0  2  0  0  0  0  0  0
  188.3970  176.4790  140.3030 C   0  0  0  0  0  2  0  0  0  0  0  0
  186.8520  178.0320  142.7150 C   0  0  0  0  0  0  0  0  0  0  0  0
  189.3560  176.8380  139.1730 C   0  0  0  0  0  2  0  0  0  0  0  0
  191.2460  177.0150  140.6140 C   0  0  0  0  0  2  0  0  0  0  0  0
  184.5710  179.6020  142.8100 C   0  0  0  0  0  3  0  0  0  0  0  0
  188.6220  176.9040  144.0790 C   0  0  0  0  0  0  0  0  0  0  0  0
  186.4650  177.4060  145.1130 C   0  0  0  0  0  3  0  0  0  0  0  0
  187.2180  178.9690  140.6120 O   0  0  0  0  0  0  0  0  0  0  0  0
  190.8250  176.8940  143.0240 C   0  0  0  0  0  3  0  0  0  0  0  0
  189.9670  176.8500  144.2230 C   0  0  0  0  0  0  0  0  0  0  0  0
  190.6740  176.2800  139.4790 N   0  0  2  0  0  0  0  0  0  0  0  0
  188.8970  176.9970  141.5780 N   0  0  0  0  0  0  0  0  0  0  0  0
  187.6880  176.8730  145.2260 C   0  0  0  0  0  3  0  0  0  0  0  0
  190.7250  177.4890  147.8820 C   0  0  0  0  0  0  0  0  0  0  0  0
  191.8400  176.6720  148.0890 C   0  0  0  0  0  3  0  0  0  0  0  0
  190.6510  176.8160  145.5430 C   0  0  0  0  0  0  0  0  0  0  0  0
  192.3570  175.9200  147.0340 C   0  0  0  0  0  3  0  0  0  0  0  0
  190.1300  177.5570  146.6180 C   0  0  0  0  0  3  0  0  0  0  0  0
  191.7600  175.9860  145.7720 C   0  0  0  0  0  3  0  0  0  0  0  0
  190.2100  178.2030  148.9140 F   0  0  0  0  0  0  0  0  0  0  0  0
  191.5460  176.4500  138.3140 C   0  0  1  0  0  0  0  0  0  0  0  0
  192.2680  175.3770  136.2030 O   0  0  0  0  0  1  0  0  0  0  0  0
  190.8320  177.1090  137.1380 C   0  0  0  0  0  2  0  0  0  0  0  0
  193.2720  177.0150  138.5550 S   0  0  0  0  0  1  0  0  0  0  0  0
  191.2060  175.6360  137.0750 C   0  0  2  0  0  0  0  0  0  0  0  0
  189.1570  174.7680  135.9330 C   0  0  0  0  0  1  0  0  0  0  0  0
  190.0600  174.6330  137.1450 C   0  0  1  0  0  3  0  0  0  0  0  0
  190.5770  173.3370  137.1900 O   0  0  0  0  0  1  0  0  0  0  0  0
  1  5  1  0  0  0  0
  1 13  1  0  0  0  0
  2  6  1  0  0  0  0
  2  8  1  0  0  0  0
  3  8  1  1  0  0  0
  3 12  1  0  0  0  0
  4 15  2  0  0  0  0
  6 11  1  0  0  0  0
  7 18  1  0  0  0  0
  8  1  2  0  0  0  0
  9  7  1  0  0  0  0
 10  4  1  0  0  0  0
 11  5  2  0  0  0  0
 12 16  2  0  0  0  0
 12 19  1  0  0  0  0
 13 19  2  0  0  0  0
 14  2  2  0  0  0  0
 15 16  1  0  0  0  0
 16 22  1  0  0  0  0
 17  9  1  6  0  0  0
 17 10  1  0  0  0  0
 18  4  1  0  0  0  0
 18  3  1  0  0  0  0
 20 21  1  0  0  0  0
 20 26  1  0  0  0  0
 22 25  2  0  0  0  0
 22 24  1  0  0  0  0
 23 21  2  0  0  0  0
 24 20  2  0  0  0  0
 25 23  1  0  0  0  0
 27 30  1  1  0  0  0
 27 17  1  0  0  0  0
 29 27  1  0  0  0  0
 31 28  1  6  0  0  0
 31 29  1  0  0  0  0
 31 33  1  0  0  0  0
 31 27  1  0  0  0  0
 33 32  1  6  0  0  0
 33 34  1  0  0  0  0
M  END
>  <MODEL>
6

>  <REMARK>
 VINA RESULT:      -8.1      2.629      5.099
  Name = 
  3 active torsions:
  status: ('A' for Active; 'I' for Inactive)
    1  A    between atoms: C_3  and  N_29
    2  A    between atoms: C_12  and  C_28
    3  A    between atoms: C_20  and  C_33
                            x       y       z     vdW  Elec       q    Type
                         _______ _______ _______ _____ _____    ______ ____

>  <TORSDO>
F 3

$$$$
=
 OpenBabel11052414263D

 34 39  0  0  1  0  0  0  0  0999 V2000
  190.6020  176.9630  146.6000 C   0  0  0  0  0  0  0  0  0  0  0  0
  191.7060  175.6930  144.8730 C   0  0  0  0  0  0  0  0  0  0  0  0
  190.0940  177.6670  144.2550 C   0  0  2  0  0  3  0  0  0  0  0  0
  189.0160  177.3590  141.9910 C   0  0  0  0  0  0  0  0  0  0  0  0
  191.3210  176.2820  147.5270 N   0  0  0  0  0  0  0  0  0  0  0  0
  192.4110  175.0540  145.8440 N   0  0  0  0  0  2  0  0  0  0  0  0
  191.4740  177.6240  142.1670 C   0  0  0  0  0  2  0  0  0  0  0  0
  190.7980  176.7160  145.2220 C   0  0  0  0  0  0  0  0  0  0  0  0
  191.5080  176.9740  140.7870 C   0  0  0  0  0  2  0  0  0  0  0  0
  189.1380  176.9930  140.5410 C   0  0  0  0  0  2  0  0  0  0  0  0
  192.2300  175.3440  147.1580 C   0  0  0  0  0  3  0  0  0  0  0  0
  188.7020  177.9980  144.7490 C   0  0  0  0  0  0  0  0  0  0  0  0
  189.5140  177.8600  147.0490 C   0  0  0  0  0  3  0  0  0  0  0  0
  191.8650  175.3330  143.6780 O   0  0  0  0  0  0  0  0  0  0  0  0
  187.8190  177.6500  142.4970 C   0  0  0  0  0  3  0  0  0  0  0  0
  187.6320  178.0000  143.9190 C   0  0  0  0  0  0  0  0  0  0  0  0
  190.4000  177.5040  139.9910 N   0  0  2  0  0  0  0  0  0  0  0  0
  190.1910  177.3590  142.8210 N   0  0  0  0  0  0  0  0  0  0  0  0
  188.6050  178.3300  146.1870 C   0  0  0  0  0  3  0  0  0  0  0  0
  183.8970  178.6360  143.8300 C   0  0  0  0  0  0  0  0  0  0  0  0
  183.5780  178.6540  145.1910 C   0  0  0  0  0  3  0  0  0  0  0  0
  186.2420  178.2720  144.3710 C   0  0  0  0  0  0  0  0  0  0  0  0
  184.5810  178.4720  146.1430 C   0  0  0  0  0  3  0  0  0  0  0  0
  185.2200  178.4410  143.4220 C   0  0  0  0  0  3  0  0  0  0  0  0
  185.9030  178.2740  145.7340 C   0  0  0  0  0  3  0  0  0  0  0  0
  182.9160  178.7920  142.9050 F   0  0  0  0  0  0  0  0  0  0  0  0
  190.5400  177.0370  138.6090 C   0  0  1  0  0  0  0  0  0  0  0  0
  192.1930  176.6200  136.8140 O   0  0  0  0  0  1  0  0  0  0  0  0
  190.8290  175.5420  138.5210 C   0  0  0  0  0  2  0  0  0  0  0  0
  189.3830  177.6540  137.3290 S   0  0  0  0  0  1  0  0  0  0  0  0
  191.9160  176.5510  138.1820 C   0  0  2  0  0  0  0  0  0  0  0  0
  194.1240  175.6070  138.8840 C   0  0  0  0  0  1  0  0  0  0  0  0
  193.0750  176.6670  139.1660 C   0  0  1  0  0  3  0  0  0  0  0  0
  193.6580  177.9310  139.0530 O   0  0  0  0  0  1  0  0  0  0  0  0
  1 13  1  0  0  0  0
  1  5  1  0  0  0  0
  2  8  1  0  0  0  0
  2  6  1  0  0  0  0
  3 12  1  1  0  0  0
  3  8  1  0  0  0  0
  4 15  2  0  0  0  0
  4 18  1  0  0  0  0
  6 11  1  0  0  0  0
  7 18  1  0  0  0  0
  8  1  2  0  0  0  0
  9  7  1  0  0  0  0
 10  4  1  0  0  0  0
 11  5  2  0  0  0  0
 12 19  1  0  0  0  0
 14  2  2  0  0  0  0
 15 16  1  0  0  0  0
 16 22  1  0  0  0  0
 16 12  2  0  0  0  0
 17 10  1  1  0  0  0
 17  9  1  0  0  0  0
 18  3  1  0  0  0  0
 19 13  2  0  0  0  0
 20 21  1  0  0  0  0
 21 23  2  0  0  0  0
 22 25  2  0  0  0  0
 24 20  2  0  0  0  0
 24 22  1  0  0  0  0
 25 23  1  0  0  0  0
 26 20  1  0  0  0  0
 27 30  1  6  0  0  0
 27 17  1  0  0  0  0
 29 27  1  0  0  0  0
 31 28  1  6  0  0  0
 31 29  1  0  0  0  0
 31 27  1  0  0  0  0
 31 33  1  0  0  0  0
 33 32  1  6  0  0  0
 34 33  1  0  0  0  0
M  END
>  <MODEL>
7

>  <REMARK>
 VINA RESULT:      -7.8      1.689      2.506
  Name = 
  3 active torsions:
  status: ('A' for Active; 'I' for Inactive)
    1  A    between atoms: C_3  and  N_29
    2  A    between atoms: C_12  and  C_28
    3  A    between atoms: C_20  and  C_33
                            x       y       z     vdW  Elec       q    Type
                         _______ _______ _______ _____ _____    ______ ____

>  <TORSDO>
F 3

$$$$
=
 OpenBabel11052414263D

 34 39  0  0  1  0  0  0  0  0999 V2000
  183.2930  175.1120  136.6780 C   0  0  0  0  0  0  0  0  0  0  0  0
  181.0300  175.8790  137.0050 C   0  0  0  0  0  0  0  0  0  0  0  0
  183.0280  177.5780  137.0040 C   0  0  2  0  0  3  0  0  0  0  0  0
  182.5510  179.6300  138.3970 C   0  0  0  0  0  0  0  0  0  0  0  0
  182.8100  173.8690  136.4330 N   0  0  0  0  0  2  0  0  0  0  0  0
  180.6030  174.6170  136.7350 N   0  0  0  0  0  0  0  0  0  0  0  0
  181.1810  179.1500  136.3870 C   0  0  0  0  0  2  0  0  0  0  0  0
  182.4080  176.1820  136.9400 C   0  0  0  0  0  0  0  0  0  0  0  0
  180.1540  180.0750  137.0320 C   0  0  0  0  0  2  0  0  0  0  0  0
  181.6090  180.7250  138.8040 C   0  0  0  0  0  2  0  0  0  0  0  0
  181.4760  173.6190  136.4460 C   0  0  0  0  0  3  0  0  0  0  0  0
  184.3610  177.5370  137.7220 C   0  0  0  0  0  0  0  0  0  0  0  0
  184.7540  175.3050  136.8100 C   0  0  0  0  0  3  0  0  0  0  0  0
  180.1800  176.7450  137.3350 O   0  0  0  0  0  0  0  0  0  0  0  0
  183.7350  179.5260  138.9960 C   0  0  0  0  0  3  0  0  0  0  0  0
  184.6980  178.4610  138.6530 C   0  0  0  0  0  0  0  0  0  0  0  0
  180.8550  181.2070  137.6390 N   0  0  2  0  0  0  0  0  0  0  0  0
  182.1460  178.6880  137.3870 N   0  0  0  0  0  0  0  0  0  0  0  0
  185.2600  176.4330  137.3220 C   0  0  0  0  0  3  0  0  0  0  0  0
  188.4040  178.2880  139.4270 C   0  0  0  0  0  0  0  0  0  0  0  0
  188.4170  178.5020  140.8080 C   0  0  0  0  0  3  0  0  0  0  0  0
  185.9740  178.4310  139.4150 C   0  0  0  0  0  0  0  0  0  0  0  0
  187.2170  178.6900  141.4950 C   0  0  0  0  0  3  0  0  0  0  0  0
  187.1900  178.2580  138.7340 C   0  0  0  0  0  3  0  0  0  0  0  0
  186.0040  178.6630  140.8000 C   0  0  0  0  0  3  0  0  0  0  0  0
  189.5730  178.1280  138.7590 F   0  0  0  0  0  0  0  0  0  0  0  0
  179.8690  182.1950  138.0860 C   0  0  1  0  0  0  0  0  0  0  0  0
  179.4990  184.6210  138.4130 O   0  0  0  0  0  1  0  0  0  0  0  0
  179.0250  182.7390  136.9380 C   0  0  0  0  0  2  0  0  0  0  0  0
  178.9310  181.8960  139.6310 S   0  0  0  0  0  1  0  0  0  0  0  0
  180.0640  183.6260  137.6090 C   0  0  2  0  0  0  0  0  0  0  0  0
  180.9310  184.7770  135.5650 C   0  0  0  0  0  1  0  0  0  0  0  0
  181.3050  183.9670  136.7920 C   0  0  1  0  0  3  0  0  0  0  0  0
  182.1910  184.7070  137.5780 O   0  0  0  0  0  1  0  0  0  0  0  0
  1 13  1  0  0  0  0
  1  8  2  0  0  0  0
  2 14  2  0  0  0  0
  3  8  1  1  0  0  0
  3 18  1  0  0  0  0
  3 12  1  0  0  0  0
  4 10  1  0  0  0  0
  4 15  2  0  0  0  0
  5 11  1  0  0  0  0
  5  1  1  0  0  0  0
  6  2  1  0  0  0  0
  7  9  1  0  0  0  0
  7 18  1  0  0  0  0
  8  2  1  0  0  0  0
 11  6  2  0  0  0  0
 12 16  2  0  0  0  0
 13 19  2  0  0  0  0
 16 15  1  0  0  0  0
 16 22  1  0  0  0  0
 17  9  1  1  0  0  0
 17 27  1  0  0  0  0
 17 10  1  0  0  0  0
 18  4  1  0  0  0  0
 19 12  1  0  0  0  0
 20 21  1  0  0  0  0
 21 23  2  0  0  0  0
 22 25  2  0  0  0  0
 24 22  1  0  0  0  0
 24 20  2  0  0  0  0
 25 23  1  0  0  0  0
 26 20  1  0  0  0  0
 27 30  1  1  0  0  0
 29 31  1  0  0  0  0
 29 27  1  0  0  0  0
 31 27  1  0  0  0  0
 31 28  1  1  0  0  0
 33 32  1  6  0  0  0
 33 34  1  0  0  0  0
 33 31  1  0  0  0  0
M  END
>  <MODEL>
8

>  <REMARK>
 VINA RESULT:      -7.8      7.175     10.483
  Name = 
  3 active torsions:
  status: ('A' for Active; 'I' for Inactive)
    1  A    between atoms: C_3  and  N_29
    2  A    between atoms: C_12  and  C_28
    3  A    between atoms: C_20  and  C_33
                            x       y       z     vdW  Elec       q    Type
                         _______ _______ _______ _____ _____    ______ ____

>  <TORSDO>
F 3

$$$$
=
 OpenBabel11052414263D

 34 39  0  0  1  0  0  0  0  0999 V2000
  184.3160  178.8790  144.9680 C   0  0  0  0  0  0  0  0  0  0  0  0
  186.4670  177.9060  144.4780 C   0  0  0  0  0  0  0  0  0  0  0  0
  185.0840  179.1020  142.5990 C   0  0  2  0  0  3  0  0  0  0  0  0
  185.5940  178.1920  140.2980 C   0  0  0  0  0  0  0  0  0  0  0  0
  184.5160  178.6000  146.2800 N   0  0  0  0  0  0  0  0  0  0  0  0
  186.6200  177.6650  145.8080 N   0  0  0  0  0  2  0  0  0  0  0  0
  187.3690  179.3280  141.6030 C   0  0  0  0  0  2  0  0  0  0  0  0
  185.3120  178.5710  144.0140 C   0  0  0  0  0  0  0  0  0  0  0  0
  188.3330  178.5890  140.6800 C   0  0  0  0  0  2  0  0  0  0  0  0
  186.6010  177.7400  139.2810 C   0  0  0  0  0  2  0  0  0  0  0  0
  185.6620  178.0110  146.7050 C   0  0  0  0  0  3  0  0  0  0  0  0
  183.6280  178.9700  142.2060 C   0  0  0  0  0  0  0  0  0  0  0  0
  182.9920  179.3750  144.5310 C   0  0  0  0  0  3  0  0  0  0  0  0
  187.3570  177.5000  143.6870 O   0  0  0  0  0  0  0  0  0  0  0  0
  184.2940  178.0920  140.0260 C   0  0  0  0  0  3  0  0  0  0  0  0
  183.2560  178.5040  140.9900 C   0  0  0  0  0  0  0  0  0  0  0  0
  187.7880  178.6030  139.3220 N   0  0  2  0  0  0  0  0  0  0  0  0
  186.0480  178.6980  141.5660 N   0  0  0  0  0  0  0  0  0  0  0  0
  182.6550  179.3970  143.2360 C   0  0  0  0  0  3  0  0  0  0  0  0
  179.9170  176.8420  140.3140 C   0  0  0  0  0  0  0  0  0  0  0  0
  179.1250  177.9330  139.9450 C   0  0  0  0  0  3  0  0  0  0  0  0
  181.8390  178.3120  140.5820 C   0  0  0  0  0  0  0  0  0  0  0  0
  179.6790  179.2130  139.9030 C   0  0  0  0  0  3  0  0  0  0  0  0
  181.2650  177.0310  140.6360 C   0  0  0  0  0  3  0  0  0  0  0  0
  181.0260  179.4010  140.2280 C   0  0  0  0  0  3  0  0  0  0  0  0
  179.3710  175.6020  140.3760 F   0  0  0  0  0  0  0  0  0  0  0  0
  188.7950  178.0720  138.3990 C   0  0  1  0  0  0  0  0  0  0  0  0
  189.0870  176.7300  136.3390 O   0  0  0  0  0  1  0  0  0  0  0  0
  189.0560  179.0030  137.2190 C   0  0  0  0  0  2  0  0  0  0  0  0
  190.3000  177.2720  139.0710 S   0  0  0  0  0  1  0  0  0  0  0  0
  188.3190  177.6890  137.0060 C   0  0  2  0  0  0  0  0  0  0  0  0
  186.6030  178.6280  135.4470 C   0  0  0  0  0  1  0  0  0  0  0  0
  186.8310  177.7820  136.6860 C   0  0  1  0  0  3  0  0  0  0  0  0
  186.3210  176.5000  136.4670 O   0  0  0  0  0  1  0  0  0  0  0  0
  1  5  1  0  0  0  0
  2  6  1  0  0  0  0
  3 12  1  6  0  0  0
  3  8  1  0  0  0  0
  4 18  1  0  0  0  0
  5 11  2  0  0  0  0
  6 11  1  0  0  0  0
  8  2  1  0  0  0  0
  8  1  2  0  0  0  0
  9  7  1  0  0  0  0
 10  4  1  0  0  0  0
 12 19  1  0  0  0  0
 13  1  1  0  0  0  0
 14  2  2  0  0  0  0
 15  4  2  0  0  0  0
 15 16  1  0  0  0  0
 16 12  2  0  0  0  0
 17 10  1  1  0  0  0
 17  9  1  0  0  0  0
 18  7  1  0  0  0  0
 18  3  1  0  0  0  0
 19 13  2  0  0  0  0
 20 26  1  0  0  0  0
 20 24  1  0  0  0  0
 21 20  2  0  0  0  0
 22 24  2  0  0  0  0
 22 16  1  0  0  0  0
 23 21  1  0  0  0  0
 23 25  2  0  0  0  0
 25 22  1  0  0  0  0
 27 30  1  1  0  0  0
 27 17  1  0  0  0  0
 29 27  1  0  0  0  0
 31 28  1  6  0  0  0
 31 29  1  0  0  0  0
 31 27  1  0  0  0  0
 33 32  1  6  0  0  0
 33 31  1  0  0  0  0
 34 33  1  0  0  0  0
M  END
>  <MODEL>
9

>  <REMARK>
 VINA RESULT:      -7.8      3.543      5.153
  Name = 
  3 active torsions:
  status: ('A' for Active; 'I' for Inactive)
    1  A    between atoms: C_3  and  N_29
    2  A    between atoms: C_12  and  C_28
    3  A    between atoms: C_20  and  C_33
                            x       y       z     vdW  Elec       q    Type
                         _______ _______ _______ _____ _____    ______ ____

>  <TORSDO>
F 3

$$$$
