=
 OpenBabel11052415423D

 34 37  0  0  1  0  0  0  0  0999 V2000
  189.6990  176.3230  142.3700 C   0  0  1  0  0  3  0  0  0  0  0  0
  190.9570  176.2570  139.5070 N   0  0  0  0  0  1  0  0  0  0  0  0
  187.3290  178.1870  142.2430 C   0  0  0  0  0  2  0  0  0  0  0  0
  188.5620  176.2950  143.3990 C   0  0  0  0  0  2  0  0  0  0  0  0
  188.2420  177.9370  141.1320 N   0  0  0  0  0  0  0  0  0  0  0  0
  188.1470  178.4580  139.8930 C   0  0  0  0  0  3  0  0  0  0  0  0
  187.9290  177.6840  143.5640 C   0  0  2  0  0  3  0  0  0  0  0  0
  189.8360  177.0420  139.8980 C   0  0  0  0  0  0  0  0  0  0  0  0
  189.2520  177.0540  141.1380 C   0  0  0  0  0  0  0  0  0  0  0  0
  189.1460  177.9210  139.0830 C   0  0  0  0  0  3  0  0  0  0  0  0
  186.9100  177.7180  144.7050 C   0  0  0  0  0  2  0  0  0  0  0  0
  183.3970  179.1630  144.7810 C   0  0  0  0  0  3  0  0  0  0  0  0
  185.1220  177.9150  142.9560 C   0  0  0  0  0  3  0  0  0  0  0  0
  181.2800  179.0950  141.8030 C   0  0  0  0  0  0  0  0  0  0  0  0
  181.7290  179.3070  143.0740 N   0  0  0  0  0  0  0  0  0  0  0  0
  182.9740  178.9330  143.4690 C   0  0  0  0  0  0  0  0  0  0  0  0
  183.4100  178.0830  141.2470 C   0  0  0  0  0  3  0  0  0  0  0  0
  183.8440  178.3050  142.5530 C   0  0  0  0  0  0  0  0  0  0  0  0
  182.1270  178.4780  140.8680 C   0  0  0  0  0  3  0  0  0  0  0  0
  185.5430  178.1470  144.2710 C   0  0  0  0  0  0  0  0  0  0  0  0
  184.6790  178.7700  145.1810 C   0  0  0  0  0  3  0  0  0  0  0  0
  179.9520  179.5020  141.4320 N   0  0  0  0  0  0  0  0  0  0  0  0
  179.1300  178.6930  140.5430 C   0  0  0  0  0  1  0  0  0  0  0  0
  179.3950  180.7520  141.9260 C   0  0  0  0  0  1  0  0  0  0  0  0
  190.8140  176.9620  142.9180 O   0  0  0  0  0  0  0  0  0  0  0  0
  191.6950  175.9310  143.2450 C   0  0  0  0  0  2  0  0  0  0  0  0
  191.7120  175.7380  144.7490 C   0  0  0  0  0  2  0  0  0  0  0  0
  191.6200  177.0790  145.4600 C   0  0  0  0  0  2  0  0  0  0  0  0
  191.3300  176.9010  146.9440 C   0  0  2  0  0  3  0  0  0  0  0  0
  191.9750  175.6330  147.4810 C   0  0  0  0  0  1  0  0  0  0  0  0
  189.8280  176.8780  147.2000 C   0  0  0  0  0  2  0  0  0  0  0  0
  189.4690  177.8210  148.1680 O   0  0  0  0  0  0  0  0  0  0  0  0
  187.2190  178.5770  148.0780 C   0  0  0  0  0  1  0  0  0  0  0  0
  188.1650  177.4820  148.5260 C   0  0  0  0  0  2  0  0  0  0  0  0
  1 25  1  1  0  0  0
  1  4  1  0  0  0  0
  2  8  1  0  0  0  0
  3  7  1  0  0  0  0
  4  7  1  0  0  0  0
  5  9  1  0  0  0  0
  5  3  1  0  0  0  0
  6  5  1  0  0  0  0
  7 11  1  1  0  0  0
  8  9  2  0  0  0  0
  9  1  1  0  0  0  0
 10  6  2  0  0  0  0
 10  8  1  0  0  0  0
 12 21  1  0  0  0  0
 13 20  1  0  0  0  0
 14 15  2  0  0  0  0
 15 16  1  0  0  0  0
 16 12  2  0  0  0  0
 17 18  1  0  0  0  0
 18 13  2  0  0  0  0
 18 16  1  0  0  0  0
 19 17  2  0  0  0  0
 19 14  1  0  0  0  0
 20 11  1  0  0  0  0
 20 21  2  0  0  0  0
 22 14  1  0  0  0  0
 22 24  1  0  0  0  0
 23 22  1  0  0  0  0
 25 26  1  0  0  0  0
 26 27  1  0  0  0  0
 27 28  1  0  0  0  0
 28 29  1  0  0  0  0
 29 31  1  0  0  0  0
 29 30  1  6  0  0  0
 31 32  1  0  0  0  0
 32 34  1  0  0  0  0
 33 34  1  0  0  0  0
M  END
>  <MODEL>
1

>  <REMARK>
 VINA RESULT:      -8.9      0.000      0.000
  Name = 
  11 active torsions:
  status: ('A' for Active; 'I' for Inactive)
    1  A    between atoms: C_1  and  O_34
    2  A    between atoms: C_2  and  C_23
    3  A    between atoms: C_2  and  C_32
    4  A    between atoms: O_3  and  C_24
    5  A    between atoms: O_3  and  C_27
    6  A    between atoms: C_7  and  N_11
    7  A    between atoms: C_17  and  C_18
    8  A    between atoms: C_18  and  C_30
    9  A    between atoms: C_23  and  C_25
   10  A    between atoms: C_25  and  C_27
   11  A    between atoms: C_32  and  O_34
                            x       y       z     vdW  Elec       q    Type
                         _______ _______ _______ _____ _____    ______ ____

>  <TORSDO>
F 11

$$$$
=
 OpenBabel11052415423D

 34 37  0  0  1  0  0  0  0  0999 V2000
  185.3370  178.8990  142.9900 C   0  0  1  0  0  3  0  0  0  0  0  0
  183.7830  178.9380  145.7050 N   0  0  0  0  0  1  0  0  0  0  0  0
  183.2660  178.8350  140.7960 C   0  0  0  0  0  2  0  0  0  0  0  0
  185.6410  179.3180  141.5460 C   0  0  0  0  0  2  0  0  0  0  0  0
  182.9590  178.7820  142.2220 N   0  0  0  0  0  0  0  0  0  0  0  0
  181.7280  178.7370  142.7690 C   0  0  0  0  0  3  0  0  0  0  0  0
  184.7560  178.5560  140.5500 C   0  0  2  0  0  3  0  0  0  0  0  0
  183.1880  178.8720  144.4140 C   0  0  0  0  0  0  0  0  0  0  0  0
  183.8530  178.8900  143.2160 C   0  0  0  0  0  0  0  0  0  0  0  0
  181.8320  178.7840  144.1580 C   0  0  0  0  0  3  0  0  0  0  0  0
  185.1570  178.8310  139.0990 C   0  0  0  0  0  2  0  0  0  0  0  0
  187.5350  176.6630  137.0790 C   0  0  0  0  0  3  0  0  0  0  0  0
  187.5380  178.1300  139.4690 C   0  0  0  0  0  3  0  0  0  0  0  0
  190.9370  176.0240  138.2480 C   0  0  0  0  0  0  0  0  0  0  0  0
  189.7990  176.0170  137.4960 N   0  0  0  0  0  0  0  0  0  0  0  0
  188.6840  176.6960  137.8740 C   0  0  0  0  0  0  0  0  0  0  0  0
  189.8360  177.4620  139.8580 C   0  0  0  0  0  3  0  0  0  0  0  0
  188.6830  177.4350  139.0750 C   0  0  0  0  0  0  0  0  0  0  0  0
  190.9670  176.7560  139.4460 C   0  0  0  0  0  3  0  0  0  0  0  0
  186.3880  178.0940  138.6700 C   0  0  0  0  0  0  0  0  0  0  0  0
  186.3890  177.3600  137.4770 C   0  0  0  0  0  3  0  0  0  0  0  0
  192.0910  175.2850  137.8120 N   0  0  0  0  0  0  0  0  0  0  0  0
  193.4400  175.8040  137.9950 C   0  0  0  0  0  1  0  0  0  0  0  0
  191.9400  173.9950  137.1580 C   0  0  0  0  0  1  0  0  0  0  0  0
  185.8570  177.6250  143.2300 O   0  0  0  0  0  0  0  0  0  0  0  0
  187.2420  177.7910  143.2070 C   0  0  0  0  0  2  0  0  0  0  0  0
  187.9160  176.4340  143.2800 C   0  0  0  0  0  2  0  0  0  0  0  0
  189.4090  176.5920  143.5240 C   0  0  0  0  0  2  0  0  0  0  0  0
  189.6970  177.7600  144.4570 C   0  0  2  0  0  3  0  0  0  0  0  0
  190.6630  178.7460  143.8200 C   0  0  0  0  0  1  0  0  0  0  0  0
  190.2510  177.2630  145.7860 C   0  0  0  0  0  2  0  0  0  0  0  0
  189.2290  176.7710  146.6040 O   0  0  0  0  0  0  0  0  0  0  0  0
  188.0910  177.8580  148.3830 C   0  0  0  0  0  1  0  0  0  0  0  0
  188.4530  177.8880  146.9130 C   0  0  0  0  0  2  0  0  0  0  0  0
  1  9  1  0  0  0  0
  1 25  1  6  0  0  0
  3  5  1  0  0  0  0
  4  1  1  0  0  0  0
  5  6  1  0  0  0  0
  5  9  1  0  0  0  0
  6 10  2  0  0  0  0
  7 11  1  6  0  0  0
  7  3  1  0  0  0  0
  7  4  1  0  0  0  0
  8  2  1  0  0  0  0
  9  8  2  0  0  0  0
 10  8  1  0  0  0  0
 12 21  2  0  0  0  0
 12 16  1  0  0  0  0
 14 19  1  0  0  0  0
 15 16  1  0  0  0  0
 15 14  2  0  0  0  0
 16 18  2  0  0  0  0
 18 13  1  0  0  0  0
 18 17  1  0  0  0  0
 19 17  2  0  0  0  0
 20 11  1  0  0  0  0
 20 13  2  0  0  0  0
 21 20  1  0  0  0  0
 22 23  1  0  0  0  0
 22 14  1  0  0  0  0
 24 22  1  0  0  0  0
 26 25  1  0  0  0  0
 26 27  1  0  0  0  0
 27 28  1  0  0  0  0
 28 29  1  0  0  0  0
 29 30  1  6  0  0  0
 29 31  1  0  0  0  0
 31 32  1  0  0  0  0
 32 34  1  0  0  0  0
 34 33  1  0  0  0  0
M  END
>  <MODEL>
2

>  <REMARK>
 VINA RESULT:      -8.8      2.200      7.430
  Name = 
  11 active torsions:
  status: ('A' for Active; 'I' for Inactive)
    1  A    between atoms: C_1  and  O_34
    2  A    between atoms: C_2  and  C_23
    3  A    between atoms: C_2  and  C_32
    4  A    between atoms: O_3  and  C_24
    5  A    between atoms: O_3  and  C_27
    6  A    between atoms: C_7  and  N_11
    7  A    between atoms: C_17  and  C_18
    8  A    between atoms: C_18  and  C_30
    9  A    between atoms: C_23  and  C_25
   10  A    between atoms: C_25  and  C_27
   11  A    between atoms: C_32  and  O_34
                            x       y       z     vdW  Elec       q    Type
                         _______ _______ _______ _____ _____    ______ ____

>  <TORSDO>
F 11

$$$$
=
 OpenBabel11052415423D

 34 37  0  0  1  0  0  0  0  0999 V2000
  184.1900  178.2970  141.5560 C   0  0  1  0  0  3  0  0  0  0  0  0
  182.6090  178.3270  138.8560 N   0  0  0  0  0  1  0  0  0  0  0  0
  182.2370  179.0650  143.7240 C   0  0  0  0  0  2  0  0  0  0  0  0
  184.4220  177.9750  143.0370 C   0  0  0  0  0  2  0  0  0  0  0  0
  181.9180  179.0360  142.3000 N   0  0  0  0  0  0  0  0  0  0  0  0
  180.7180  179.3030  141.7480 C   0  0  0  0  0  3  0  0  0  0  0  0
  183.7560  179.0200  143.9430 C   0  0  2  0  0  3  0  0  0  0  0  0
  182.0730  178.6640  140.1310 C   0  0  0  0  0  0  0  0  0  0  0  0
  182.7430  178.6210  141.3260 C   0  0  0  0  0  0  0  0  0  0  0  0
  180.7780  179.0870  140.3720 C   0  0  0  0  0  3  0  0  0  0  0  0
  184.1160  178.8150  145.4160 C   0  0  0  0  0  2  0  0  0  0  0  0
  187.5700  177.3670  144.7770 C   0  0  0  0  0  3  0  0  0  0  0  0
  186.1290  178.5260  146.8850 C   0  0  0  0  0  3  0  0  0  0  0  0
  190.0670  177.2350  147.4420 C   0  0  0  0  0  0  0  0  0  0  0  0
  189.4490  177.1050  146.2330 N   0  0  0  0  0  0  0  0  0  0  0  0
  188.1710  177.5190  146.0300 C   0  0  0  0  0  0  0  0  0  0  0  0
  188.0550  178.2520  148.3320 C   0  0  0  0  0  3  0  0  0  0  0  0
  187.4440  178.1040  147.0880 C   0  0  0  0  0  0  0  0  0  0  0  0
  189.3690  177.8190  148.5130 C   0  0  0  0  0  3  0  0  0  0  0  0
  185.5300  178.3710  145.6290 C   0  0  0  0  0  0  0  0  0  0  0  0
  186.2510  177.7910  144.5770 C   0  0  0  0  0  3  0  0  0  0  0  0
  191.4190  176.7760  147.6120 N   0  0  0  0  0  0  0  0  0  0  0  0
  192.1980  177.1280  148.7900 C   0  0  0  0  0  1  0  0  0  0  0  0
  192.0540  175.9530  146.5950 C   0  0  0  0  0  1  0  0  0  0  0  0
  184.9820  179.3860  141.1810 O   0  0  0  0  0  0  0  0  0  0  0  0
  186.0510  178.8290  140.4790 C   0  0  0  0  0  2  0  0  0  0  0  0
  187.2980  178.8710  141.3420 C   0  0  0  0  0  2  0  0  0  0  0  0
  188.0930  177.5830  141.1940 C   0  0  0  0  0  2  0  0  0  0  0  0
  189.4450  177.8380  140.5410 C   0  0  2  0  0  3  0  0  0  0  0  0
  189.3770  177.6280  139.0370 C   0  0  0  0  0  1  0  0  0  0  0  0
  190.5140  176.9390  141.1510 C   0  0  0  0  0  2  0  0  0  0  0  0
  191.3440  177.6610  142.0150 O   0  0  0  0  0  0  0  0  0  0  0  0
  190.5790  175.7260  143.1600 C   0  0  0  0  0  1  0  0  0  0  0  0
  191.6800  176.7570  143.0210 C   0  0  0  0  0  2  0  0  0  0  0  0
  1 25  1  1  0  0  0
  1  4  1  0  0  0  0
  2  8  1  0  0  0  0
  3  7  1  0  0  0  0
  4  7  1  0  0  0  0
  5  3  1  0  0  0  0
  6  5  1  0  0  0  0
  7 11  1  1  0  0  0
  8 10  1  0  0  0  0
  8  9  2  0  0  0  0
  9  1  1  0  0  0  0
  9  5  1  0  0  0  0
 10  6  2  0  0  0  0
 11 20  1  0  0  0  0
 12 16  1  0  0  0  0
 13 18  1  0  0  0  0
 14 22  1  0  0  0  0
 14 19  1  0  0  0  0
 15 14  2  0  0  0  0
 16 15  1  0  0  0  0
 16 18  2  0  0  0  0
 17 19  2  0  0  0  0
 18 17  1  0  0  0  0
 20 13  2  0  0  0  0
 21 12  2  0  0  0  0
 21 20  1  0  0  0  0
 22 23  1  0  0  0  0
 24 22  1  0  0  0  0
 26 25  1  0  0  0  0
 26 27  1  0  0  0  0
 28 27  1  0  0  0  0
 29 30  1  6  0  0  0
 29 31  1  0  0  0  0
 29 28  1  0  0  0  0
 31 32  1  0  0  0  0
 32 34  1  0  0  0  0
 34 33  1  0  0  0  0
M  END
>  <MODEL>
3

>  <REMARK>
 VINA RESULT:      -8.8      2.289      7.729
  Name = 
  11 active torsions:
  status: ('A' for Active; 'I' for Inactive)
    1  A    between atoms: C_1  and  O_34
    2  A    between atoms: C_2  and  C_23
    3  A    between atoms: C_2  and  C_32
    4  A    between atoms: O_3  and  C_24
    5  A    between atoms: O_3  and  C_27
    6  A    between atoms: C_7  and  N_11
    7  A    between atoms: C_17  and  C_18
    8  A    between atoms: C_18  and  C_30
    9  A    between atoms: C_23  and  C_25
   10  A    between atoms: C_25  and  C_27
   11  A    between atoms: C_32  and  O_34
                            x       y       z     vdW  Elec       q    Type
                         _______ _______ _______ _____ _____    ______ ____

>  <TORSDO>
F 11

$$$$
=
 OpenBabel11052415423D

 34 37  0  0  1  0  0  0  0  0999 V2000
  188.9790  177.5130  144.4190 C   0  0  1  0  0  3  0  0  0  0  0  0
  191.9530  176.5500  144.5600 N   0  0  0  0  0  1  0  0  0  0  0  0
  187.9840  177.7010  147.2620 C   0  0  0  0  0  2  0  0  0  0  0  0
  187.7610  178.3530  144.8200 C   0  0  0  0  0  2  0  0  0  0  0  0
  189.3060  177.2110  146.8820 N   0  0  0  0  0  0  0  0  0  0  0  0
  190.2790  176.8130  147.7240 C   0  0  0  0  0  3  0  0  0  0  0  0
  187.0520  177.7540  146.0430 C   0  0  2  0  0  3  0  0  0  0  0  0
  191.0920  176.7390  145.6770 C   0  0  0  0  0  0  0  0  0  0  0  0
  189.8000  177.1940  145.6350 C   0  0  0  0  0  0  0  0  0  0  0  0
  191.4250  176.4980  146.9980 C   0  0  0  0  0  3  0  0  0  0  0  0
  185.7400  178.4760  146.3570 C   0  0  0  0  0  2  0  0  0  0  0  0
  182.5970  178.9030  144.2660 C   0  0  0  0  0  3  0  0  0  0  0  0
  185.3430  178.4850  143.8790 C   0  0  0  0  0  3  0  0  0  0  0  0
  182.7450  178.7820  140.6170 C   0  0  0  0  0  0  0  0  0  0  0  0
  182.2810  178.8860  141.8960 N   0  0  0  0  0  0  0  0  0  0  0  0
  183.1090  178.7940  142.9700 C   0  0  0  0  0  0  0  0  0  0  0  0
  184.9880  178.4800  141.4810 C   0  0  0  0  0  3  0  0  0  0  0  0
  184.4900  178.5850  142.7780 C   0  0  0  0  0  0  0  0  0  0  0  0
  184.1170  178.5790  140.3960 C   0  0  0  0  0  3  0  0  0  0  0  0
  184.8260  178.5940  145.1770 C   0  0  0  0  0  0  0  0  0  0  0  0
  183.4540  178.8020  145.3670 C   0  0  0  0  0  3  0  0  0  0  0  0
  181.8310  178.8780  139.5110 N   0  0  0  0  0  0  0  0  0  0  0  0
  181.9450  179.9400  138.5210 C   0  0  0  0  0  1  0  0  0  0  0  0
  180.7490  177.9180  139.3590 C   0  0  0  0  0  1  0  0  0  0  0  0
  188.5550  176.3270  143.8140 O   0  0  0  0  0  0  0  0  0  0  0  0
  188.1290  176.7060  142.5400 C   0  0  0  0  0  2  0  0  0  0  0  0
  189.2520  177.4380  141.8290 C   0  0  0  0  0  2  0  0  0  0  0  0
  188.7150  178.2040  140.6310 C   0  0  0  0  0  2  0  0  0  0  0  0
  189.1340  177.5490  139.3210 C   0  0  2  0  0  3  0  0  0  0  0  0
  190.5280  176.9520  139.4270 C   0  0  0  0  0  1  0  0  0  0  0  0
  189.0750  178.5520  138.1760 C   0  0  0  0  0  2  0  0  0  0  0  0
  187.7560  178.9290  137.9060 O   0  0  0  0  0  0  0  0  0  0  0  0
  185.9350  177.5180  137.3300 C   0  0  0  0  0  1  0  0  0  0  0  0
  187.3140  178.0150  136.9500 C   0  0  0  0  0  2  0  0  0  0  0  0
  1 25  1  1  0  0  0
  1  4  1  0  0  0  0
  1  9  1  0  0  0  0
  2  8  1  0  0  0  0
  4  7  1  0  0  0  0
  5  3  1  0  0  0  0
  5  6  1  0  0  0  0
  7 11  1  1  0  0  0
  7  3  1  0  0  0  0
  8 10  1  0  0  0  0
  9  8  2  0  0  0  0
  9  5  1  0  0  0  0
 10  6  2  0  0  0  0
 12 21  1  0  0  0  0
 13 20  1  0  0  0  0
 14 15  2  0  0  0  0
 15 16  1  0  0  0  0
 16 12  2  0  0  0  0
 17 18  1  0  0  0  0
 18 16  1  0  0  0  0
 18 13  2  0  0  0  0
 19 14  1  0  0  0  0
 19 17  2  0  0  0  0
 20 21  2  0  0  0  0
 20 11  1  0  0  0  0
 22 14  1  0  0  0  0
 23 22  1  0  0  0  0
 24 22  1  0  0  0  0
 26 25  1  0  0  0  0
 27 26  1  0  0  0  0
 28 27  1  0  0  0  0
 29 30  1  1  0  0  0
 29 28  1  0  0  0  0
 31 29  1  0  0  0  0
 32 31  1  0  0  0  0
 34 33  1  0  0  0  0
 34 32  1  0  0  0  0
M  END
>  <MODEL>
4

>  <REMARK>
 VINA RESULT:      -8.8      2.252      5.457
  Name = 
  11 active torsions:
  status: ('A' for Active; 'I' for Inactive)
    1  A    between atoms: C_1  and  O_34
    2  A    between atoms: C_2  and  C_23
    3  A    between atoms: C_2  and  C_32
    4  A    between atoms: O_3  and  C_24
    5  A    between atoms: O_3  and  C_27
    6  A    between atoms: C_7  and  N_11
    7  A    between atoms: C_17  and  C_18
    8  A    between atoms: C_18  and  C_30
    9  A    between atoms: C_23  and  C_25
   10  A    between atoms: C_25  and  C_27
   11  A    between atoms: C_32  and  O_34
                            x       y       z     vdW  Elec       q    Type
                         _______ _______ _______ _____ _____    ______ ____

>  <TORSDO>
F 11

$$$$
=
 OpenBabel11052415423D

 34 37  0  0  1  0  0  0  0  0999 V2000
  184.2090  178.2380  141.3320 C   0  0  1  0  0  3  0  0  0  0  0  0
  183.0360  178.1240  138.4340 N   0  0  0  0  0  1  0  0  0  0  0  0
  181.9840  179.1740  143.1420 C   0  0  0  0  0  2  0  0  0  0  0  0
  184.2170  178.0060  142.8480 C   0  0  0  0  0  2  0  0  0  0  0  0
  181.8740  179.0610  141.6910 N   0  0  0  0  0  0  0  0  0  0  0  0
  180.7740  179.3120  140.9550 C   0  0  0  0  0  3  0  0  0  0  0  0
  183.4540  179.1180  143.5820 C   0  0  2  0  0  3  0  0  0  0  0  0
  182.3310  178.5500  139.5940 C   0  0  0  0  0  0  0  0  0  0  0  0
  182.8190  178.5710  140.8740 C   0  0  0  0  0  0  0  0  0  0  0  0
  181.0260  179.0080  139.6190 C   0  0  0  0  0  3  0  0  0  0  0  0
  183.5920  179.0010  145.1010 C   0  0  0  0  0  2  0  0  0  0  0  0
  186.5820  178.2420  147.3200 C   0  0  0  0  0  3  0  0  0  0  0  0
  185.8950  178.1400  144.6020 C   0  0  0  0  0  3  0  0  0  0  0  0
  189.7080  177.0050  145.8880 C   0  0  0  0  0  0  0  0  0  0  0  0
  188.7660  177.4340  146.7770 N   0  0  0  0  0  0  0  0  0  0  0  0
  187.5200  177.8050  146.3800 C   0  0  0  0  0  0  0  0  0  0  0  0
  188.1160  177.3150  144.0880 C   0  0  0  0  0  3  0  0  0  0  0  0
  187.1720  177.7540  145.0140 C   0  0  0  0  0  0  0  0  0  0  0  0
  189.3880  176.9380  144.5220 C   0  0  0  0  0  3  0  0  0  0  0  0
  184.9570  178.5770  145.5460 C   0  0  0  0  0  0  0  0  0  0  0  0
  185.3030  178.6280  146.9030 C   0  0  0  0  0  3  0  0  0  0  0  0
  191.0160  176.6280  146.3530 N   0  0  0  0  0  0  0  0  0  0  0  0
  191.4380  176.8830  147.7230 C   0  0  0  0  0  1  0  0  0  0  0  0
  191.9660  175.9910  145.4540 C   0  0  0  0  0  1  0  0  0  0  0  0
  185.0740  179.2880  141.0120 O   0  0  0  0  0  0  0  0  0  0  0  0
  186.1080  178.6940  140.2860 C   0  0  0  0  0  2  0  0  0  0  0  0
  187.3700  178.6750  141.1280 C   0  0  0  0  0  2  0  0  0  0  0  0
  188.6020  178.6110  140.2390 C   0  0  0  0  0  2  0  0  0  0  0  0
  189.2670  177.2430  140.3120 C   0  0  2  0  0  3  0  0  0  0  0  0
  190.5170  177.2840  141.1760 C   0  0  0  0  0  1  0  0  0  0  0  0
  189.6080  176.7360  138.9150 C   0  0  0  0  0  2  0  0  0  0  0  0
  190.6420  175.7950  138.9610 O   0  0  0  0  0  0  0  0  0  0  0  0
  192.8130  176.4640  138.2690 C   0  0  0  0  0  1  0  0  0  0  0  0
  191.4180  176.0670  137.8340 C   0  0  0  0  0  2  0  0  0  0  0  0
  1 25  1  1  0  0  0
  1  4  1  0  0  0  0
  2  8  1  0  0  0  0
  3  7  1  0  0  0  0
  4  7  1  0  0  0  0
  5  3  1  0  0  0  0
  6  5  1  0  0  0  0
  7 11  1  1  0  0  0
  8 10  1  0  0  0  0
  8  9  2  0  0  0  0
  9  1  1  0  0  0  0
  9  5  1  0  0  0  0
 10  6  2  0  0  0  0
 11 20  1  0  0  0  0
 13 18  2  0  0  0  0
 13 20  1  0  0  0  0
 14 22  1  0  0  0  0
 14 15  2  0  0  0  0
 16 15  1  0  0  0  0
 16 12  2  0  0  0  0
 17 19  2  0  0  0  0
 17 18  1  0  0  0  0
 18 16  1  0  0  0  0
 19 14  1  0  0  0  0
 20 21  2  0  0  0  0
 21 12  1  0  0  0  0
 22 23  1  0  0  0  0
 24 22  1  0  0  0  0
 26 25  1  0  0  0  0
 26 27  1  0  0  0  0
 28 29  1  0  0  0  0
 28 27  1  0  0  0  0
 29 30  1  1  0  0  0
 31 32  1  0  0  0  0
 31 29  1  0  0  0  0
 34 33  1  0  0  0  0
 34 32  1  0  0  0  0
M  END
>  <MODEL>
5

>  <REMARK>
 VINA RESULT:      -8.8      2.511      7.716
  Name = 
  11 active torsions:
  status: ('A' for Active; 'I' for Inactive)
    1  A    between atoms: C_1  and  O_34
    2  A    between atoms: C_2  and  C_23
    3  A    between atoms: C_2  and  C_32
    4  A    between atoms: O_3  and  C_24
    5  A    between atoms: O_3  and  C_27
    6  A    between atoms: C_7  and  N_11
    7  A    between atoms: C_17  and  C_18
    8  A    between atoms: C_18  and  C_30
    9  A    between atoms: C_23  and  C_25
   10  A    between atoms: C_25  and  C_27
   11  A    between atoms: C_32  and  O_34
                            x       y       z     vdW  Elec       q    Type
                         _______ _______ _______ _____ _____    ______ ____

>  <TORSDO>
F 11

$$$$
=
 OpenBabel11052415423D

 34 37  0  0  1  0  0  0  0  0999 V2000
  183.3040  178.4430  140.6940 C   0  0  1  0  0  3  0  0  0  0  0  0
  181.5670  178.7830  138.1140 N   0  0  0  0  0  1  0  0  0  0  0  0
  181.6070  179.3500  143.0190 C   0  0  0  0  0  2  0  0  0  0  0  0
  183.5900  178.0310  142.1430 C   0  0  0  0  0  2  0  0  0  0  0  0
  181.1960  179.4220  141.6200 N   0  0  0  0  0  0  0  0  0  0  0  0
  180.0050  179.8570  141.1630 C   0  0  0  0  0  3  0  0  0  0  0  0
  183.1200  179.1100  143.1290 C   0  0  2  0  0  3  0  0  0  0  0  0
  181.1610  179.1280  139.4340 C   0  0  0  0  0  0  0  0  0  0  0  0
  181.8970  178.9510  140.5770 C   0  0  0  0  0  0  0  0  0  0  0  0
  179.9480  179.6950  139.7800 C   0  0  0  0  0  3  0  0  0  0  0  0
  183.5470  178.8000  144.5650 C   0  0  0  0  0  2  0  0  0  0  0  0
  187.0730  177.7190  143.6520 C   0  0  0  0  0  3  0  0  0  0  0  0
  185.5780  178.3030  145.9520 C   0  0  0  0  0  3  0  0  0  0  0  0
  189.5830  177.1380  146.2450 C   0  0  0  0  0  0  0  0  0  0  0  0
  188.9690  177.2450  145.0310 N   0  0  0  0  0  0  0  0  0  0  0  0
  187.6690  177.6230  144.9130 C   0  0  0  0  0  0  0  0  0  0  0  0
  187.5210  177.8210  147.3190 C   0  0  0  0  0  3  0  0  0  0  0  0
  186.9150  177.9190  146.0680 C   0  0  0  0  0  0  0  0  0  0  0  0
  188.8580  177.4310  147.4110 C   0  0  0  0  0  3  0  0  0  0  0  0
  184.9840  178.3970  144.6870 C   0  0  0  0  0  0  0  0  0  0  0  0
  185.7330  178.1040  143.5400 C   0  0  0  0  0  3  0  0  0  0  0  0
  190.9590  176.7260  146.3210 N   0  0  0  0  0  0  0  0  0  0  0  0
  191.7310  176.4300  145.1220 C   0  0  0  0  0  1  0  0  0  0  0  0
  191.6170  176.5790  147.6100 C   0  0  0  0  0  1  0  0  0  0  0  0
  184.1990  179.4420  140.3030 O   0  0  0  0  0  0  0  0  0  0  0  0
  185.3390  178.7580  139.8780 C   0  0  0  0  0  2  0  0  0  0  0  0
  185.2540  178.5150  138.3830 C   0  0  0  0  0  2  0  0  0  0  0  0
  186.4870  177.7710  137.8930 C   0  0  0  0  0  2  0  0  0  0  0  0
  187.2840  178.6100  136.9030 C   0  0  2  0  0  3  0  0  0  0  0  0
  187.3470  177.9400  135.5410 C   0  0  0  0  0  1  0  0  0  0  0  0
  188.6900  178.8700  137.4290 C   0  0  0  0  0  2  0  0  0  0  0  0
  188.7090  178.8880  138.8270 O   0  0  0  0  0  0  0  0  0  0  0  0
  189.4510  177.5110  140.6140 C   0  0  0  0  0  1  0  0  0  0  0  0
  189.6730  177.9440  139.1800 C   0  0  0  0  0  2  0  0  0  0  0  0
  1 25  1  1  0  0  0
  1  4  1  0  0  0  0
  2  8  1  0  0  0  0
  3  7  1  0  0  0  0
  4  7  1  0  0  0  0
  5  3  1  0  0  0  0
  6  5  1  0  0  0  0
  7 11  1  1  0  0  0
  8 10  1  0  0  0  0
  8  9  2  0  0  0  0
  9  1  1  0  0  0  0
  9  5  1  0  0  0  0
 10  6  2  0  0  0  0
 11 20  1  0  0  0  0
 12 16  1  0  0  0  0
 13 18  1  0  0  0  0
 14 22  1  0  0  0  0
 14 19  1  0  0  0  0
 15 14  2  0  0  0  0
 16 15  1  0  0  0  0
 16 18  2  0  0  0  0
 17 19  2  0  0  0  0
 18 17  1  0  0  0  0
 20 13  2  0  0  0  0
 21 12  2  0  0  0  0
 21 20  1  0  0  0  0
 22 24  1  0  0  0  0
 23 22  1  0  0  0  0
 26 25  1  0  0  0  0
 27 26  1  0  0  0  0
 28 27  1  0  0  0  0
 29 30  1  6  0  0  0
 29 31  1  0  0  0  0
 29 28  1  0  0  0  0
 31 32  1  0  0  0  0
 32 34  1  0  0  0  0
 34 33  1  0  0  0  0
M  END
>  <MODEL>
6

>  <REMARK>
 VINA RESULT:      -8.7      2.565      8.450
  Name = 
  11 active torsions:
  status: ('A' for Active; 'I' for Inactive)
    1  A    between atoms: C_1  and  O_34
    2  A    between atoms: C_2  and  C_23
    3  A    between atoms: C_2  and  C_32
    4  A    between atoms: O_3  and  C_24
    5  A    between atoms: O_3  and  C_27
    6  A    between atoms: C_7  and  N_11
    7  A    between atoms: C_17  and  C_18
    8  A    between atoms: C_18  and  C_30
    9  A    between atoms: C_23  and  C_25
   10  A    between atoms: C_25  and  C_27
   11  A    between atoms: C_32  and  O_34
                            x       y       z     vdW  Elec       q    Type
                         _______ _______ _______ _____ _____    ______ ____

>  <TORSDO>
F 11

$$$$
=
 OpenBabel11052415423D

 34 37  0  0  1  0  0  0  0  0999 V2000
  186.2040  177.7920  137.3970 C   0  0  1  0  0  3  0  0  0  0  0  0
  183.9240  176.3980  135.7690 N   0  0  0  0  0  1  0  0  0  0  0  0
  188.4990  175.8370  137.5400 C   0  0  0  0  0  2  0  0  0  0  0  0
  187.6450  178.2210  137.7000 C   0  0  0  0  0  2  0  0  0  0  0  0
  187.2040  175.5460  136.9320 N   0  0  0  0  0  0  0  0  0  0  0  0
  186.8540  174.3990  136.3170 C   0  0  0  0  0  3  0  0  0  0  0  0
  188.4190  177.1010  138.4090 C   0  0  2  0  0  3  0  0  0  0  0  0
  185.1770  175.8120  136.1030 C   0  0  0  0  0  0  0  0  0  0  0  0
  186.1990  176.4220  136.7830 C   0  0  0  0  0  0  0  0  0  0  0  0
  185.5730  174.5250  135.7860 C   0  0  0  0  0  3  0  0  0  0  0  0
  189.8020  177.5650  138.8710 C   0  0  0  0  0  2  0  0  0  0  0  0
  191.4730  177.3650  142.2770 C   0  0  0  0  0  3  0  0  0  0  0  0
  188.8840  177.3970  141.2010 C   0  0  0  0  0  3  0  0  0  0  0  0
  189.4790  177.1100  145.3290 C   0  0  0  0  0  0  0  0  0  0  0  0
  190.5360  177.1920  144.4710 N   0  0  0  0  0  0  0  0  0  0  0  0
  190.3650  177.2870  143.1260 C   0  0  0  0  0  0  0  0  0  0  0  0
  187.9680  177.2280  143.4380 C   0  0  0  0  0  3  0  0  0  0  0  0
  189.0640  177.3050  142.5820 C   0  0  0  0  0  0  0  0  0  0  0  0
  188.1720  177.1310  144.8160 C   0  0  0  0  0  3  0  0  0  0  0  0
  189.9970  177.4750  140.3530 C   0  0  0  0  0  0  0  0  0  0  0  0
  191.2890  177.4590  140.8940 C   0  0  0  0  0  3  0  0  0  0  0  0
  189.7080  177.0040  146.7450 N   0  0  0  0  0  0  0  0  0  0  0  0
  190.9860  176.5490  147.2750 C   0  0  0  0  0  1  0  0  0  0  0  0
  188.6550  177.3340  147.6920 C   0  0  0  0  0  1  0  0  0  0  0  0
  185.4580  177.7810  138.5780 O   0  0  0  0  0  0  0  0  0  0  0  0
  184.5890  178.8670  138.4660 C   0  0  0  0  0  2  0  0  0  0  0  0
  184.3720  179.4840  139.8340 C   0  0  0  0  0  2  0  0  0  0  0  0
  185.1820  178.7450  140.8880 C   0  0  0  0  0  2  0  0  0  0  0  0
  184.3210  178.3700  142.0870 C   0  0  2  0  0  3  0  0  0  0  0  0
  182.8420  178.4930  141.7610 C   0  0  0  0  0  1  0  0  0  0  0  0
  184.6700  179.2370  143.2910 C   0  0  0  0  0  2  0  0  0  0  0  0
  184.4200  178.5590  144.4880 O   0  0  0  0  0  0  0  0  0  0  0  0
  185.1870  178.4050  146.7300 C   0  0  0  0  0  1  0  0  0  0  0  0
  185.2720  179.1540  145.4170 C   0  0  0  0  0  2  0  0  0  0  0  0
  1  4  1  0  0  0  0
  1 25  1  1  0  0  0
  2  8  1  0  0  0  0
  3  7  1  0  0  0  0
  4  7  1  0  0  0  0
  5  3  1  0  0  0  0
  6  5  1  0  0  0  0
  7 11  1  6  0  0  0
  8  9  2  0  0  0  0
  9  5  1  0  0  0  0
  9  1  1  0  0  0  0
 10  8  1  0  0  0  0
 10  6  2  0  0  0  0
 11 20  1  0  0  0  0
 12 16  1  0  0  0  0
 13 18  1  0  0  0  0
 14 22  1  0  0  0  0
 15 14  2  0  0  0  0
 16 15  1  0  0  0  0
 17 19  2  0  0  0  0
 18 16  2  0  0  0  0
 18 17  1  0  0  0  0
 19 14  1  0  0  0  0
 20 21  1  0  0  0  0
 20 13  2  0  0  0  0
 21 12  2  0  0  0  0
 22 23  1  0  0  0  0
 22 24  1  0  0  0  0
 26 25  1  0  0  0  0
 26 27  1  0  0  0  0
 27 28  1  0  0  0  0
 28 29  1  0  0  0  0
 29 30  1  6  0  0  0
 29 31  1  0  0  0  0
 31 32  1  0  0  0  0
 32 34  1  0  0  0  0
 34 33  1  0  0  0  0
M  END
>  <MODEL>
7

>  <REMARK>
 VINA RESULT:      -8.7      3.354      7.615
  Name = 
  11 active torsions:
  status: ('A' for Active; 'I' for Inactive)
    1  A    between atoms: C_1  and  O_34
    2  A    between atoms: C_2  and  C_23
    3  A    between atoms: C_2  and  C_32
    4  A    between atoms: O_3  and  C_24
    5  A    between atoms: O_3  and  C_27
    6  A    between atoms: C_7  and  N_11
    7  A    between atoms: C_17  and  C_18
    8  A    between atoms: C_18  and  C_30
    9  A    between atoms: C_23  and  C_25
   10  A    between atoms: C_25  and  C_27
   11  A    between atoms: C_32  and  O_34
                            x       y       z     vdW  Elec       q    Type
                         _______ _______ _______ _____ _____    ______ ____

>  <TORSDO>
F 11

$$$$
=
 OpenBabel11052415423D

 34 37  0  0  1  0  0  0  0  0999 V2000
  188.7140  177.4400  144.3290 C   0  0  1  0  0  3  0  0  0  0  0  0
  191.6800  176.4950  144.6390 N   0  0  0  0  0  1  0  0  0  0  0  0
  187.6370  177.8770  147.1140 C   0  0  0  0  0  2  0  0  0  0  0  0
  187.4860  178.3120  144.6190 C   0  0  0  0  0  2  0  0  0  0  0  0
  188.9680  177.3560  146.8160 N   0  0  0  0  0  0  0  0  0  0  0  0
  189.9160  177.0340  147.7180 C   0  0  0  0  0  3  0  0  0  0  0  0
  186.7410  177.8220  145.8690 C   0  0  2  0  0  3  0  0  0  0  0  0
  190.7880  176.7800  145.7100 C   0  0  0  0  0  0  0  0  0  0  0  0
  189.4990  177.2290  145.5900 C   0  0  0  0  0  0  0  0  0  0  0  0
  191.0830  176.6560  147.0560 C   0  0  0  0  0  3  0  0  0  0  0  0
  185.4220  178.5690  146.0800 C   0  0  0  0  0  2  0  0  0  0  0  0
  182.4450  178.9970  143.7590 C   0  0  0  0  0  3  0  0  0  0  0  0
  185.2160  178.6020  143.5800 C   0  0  0  0  0  3  0  0  0  0  0  0
  182.8730  178.9170  140.1310 C   0  0  0  0  0  0  0  0  0  0  0  0
  182.3120  179.0050  141.3710 N   0  0  0  0  0  0  0  0  0  0  0  0
  183.0560  178.9060  142.5050 C   0  0  0  0  0  0  0  0  0  0  0  0
  185.0460  178.6210  141.1610 C   0  0  0  0  0  3  0  0  0  0  0  0
  184.4490  178.7080  142.4170 C   0  0  0  0  0  0  0  0  0  0  0  0
  184.2600  178.7260  140.0130 C   0  0  0  0  0  3  0  0  0  0  0  0
  184.6010  178.6930  144.8350 C   0  0  0  0  0  0  0  0  0  0  0  0
  183.2160  178.8900  144.9220 C   0  0  0  0  0  3  0  0  0  0  0  0
  182.0460  179.0200  138.9590 N   0  0  0  0  0  0  0  0  0  0  0  0
  180.8450  179.8430  138.9460 C   0  0  0  0  0  1  0  0  0  0  0  0
  182.3820  178.2850  137.7500 C   0  0  0  0  0  1  0  0  0  0  0  0
  188.3040  176.2060  143.8180 O   0  0  0  0  0  0  0  0  0  0  0  0
  189.0940  176.0050  142.6850 C   0  0  0  0  0  2  0  0  0  0  0  0
  188.8870  177.1520  141.7150 C   0  0  0  0  0  2  0  0  0  0  0  0
  190.1210  177.3480  140.8490 C   0  0  0  0  0  2  0  0  0  0  0  0
  189.7450  177.7570  139.4310 C   0  0  2  0  0  3  0  0  0  0  0  0
  188.3110  178.2540  139.3650 C   0  0  0  0  0  1  0  0  0  0  0  0
  189.9460  176.5950  138.4660 C   0  0  0  0  0  2  0  0  0  0  0  0
  190.8350  175.6530  138.9910 O   0  0  0  0  0  0  0  0  0  0  0  0
  192.8510  176.3860  137.9700 C   0  0  0  0  0  1  0  0  0  0  0  0
  191.7190  175.3790  137.9480 C   0  0  0  0  0  2  0  0  0  0  0  0
  1 25  1  1  0  0  0
  1  4  1  0  0  0  0
  1  9  1  0  0  0  0
  2  8  1  0  0  0  0
  4  7  1  0  0  0  0
  5  3  1  0  0  0  0
  5  6  1  0  0  0  0
  7 11  1  1  0  0  0
  7  3  1  0  0  0  0
  8 10  1  0  0  0  0
  9  8  2  0  0  0  0
  9  5  1  0  0  0  0
 10  6  2  0  0  0  0
 12 21  1  0  0  0  0
 13 20  1  0  0  0  0
 14 15  2  0  0  0  0
 15 16  1  0  0  0  0
 16 12  2  0  0  0  0
 17 18  1  0  0  0  0
 18 16  1  0  0  0  0
 18 13  2  0  0  0  0
 19 14  1  0  0  0  0
 19 17  2  0  0  0  0
 20 21  2  0  0  0  0
 20 11  1  0  0  0  0
 22 14  1  0  0  0  0
 23 22  1  0  0  0  0
 24 22  1  0  0  0  0
 26 25  1  0  0  0  0
 27 26  1  0  0  0  0
 28 27  1  0  0  0  0
 29 30  1  1  0  0  0
 29 28  1  0  0  0  0
 31 32  1  0  0  0  0
 31 29  1  0  0  0  0
 34 33  1  0  0  0  0
 34 32  1  0  0  0  0
M  END
>  <MODEL>
8

>  <REMARK>
 VINA RESULT:      -8.6      2.194      5.455
  Name = 
  11 active torsions:
  status: ('A' for Active; 'I' for Inactive)
    1  A    between atoms: C_1  and  O_34
    2  A    between atoms: C_2  and  C_23
    3  A    between atoms: C_2  and  C_32
    4  A    between atoms: O_3  and  C_24
    5  A    between atoms: O_3  and  C_27
    6  A    between atoms: C_7  and  N_11
    7  A    between atoms: C_17  and  C_18
    8  A    between atoms: C_18  and  C_30
    9  A    between atoms: C_23  and  C_25
   10  A    between atoms: C_25  and  C_27
   11  A    between atoms: C_32  and  O_34
                            x       y       z     vdW  Elec       q    Type
                         _______ _______ _______ _____ _____    ______ ____

>  <TORSDO>
F 11

$$$$
=
 OpenBabel11052415423D

 34 37  0  0  1  0  0  0  0  0999 V2000
  188.9560  177.5430  144.2950 C   0  0  1  0  0  3  0  0  0  0  0  0
  191.8550  176.5000  144.8410 N   0  0  0  0  0  1  0  0  0  0  0  0
  187.6120  177.8450  146.9810 C   0  0  0  0  0  2  0  0  0  0  0  0
  187.7240  178.4290  144.5140 C   0  0  0  0  0  2  0  0  0  0  0  0
  188.9550  177.3060  146.7860 N   0  0  0  0  0  0  0  0  0  0  0  0
  189.8000  176.9060  147.7570 C   0  0  0  0  0  3  0  0  0  0  0  0
  186.8460  177.8870  145.6510 C   0  0  2  0  0  3  0  0  0  0  0  0
  190.8650  176.7470  145.8340 C   0  0  0  0  0  0  0  0  0  0  0  0
  189.6040  177.2370  145.6140 C   0  0  0  0  0  0  0  0  0  0  0  0
  191.0190  176.5360  147.1920 C   0  0  0  0  0  3  0  0  0  0  0  0
  185.5290  178.6560  145.7750 C   0  0  0  0  0  2  0  0  0  0  0  0
  184.5240  178.2570  142.1320 C   0  0  0  0  0  3  0  0  0  0  0  0
  183.3550  179.0020  144.5710 C   0  0  0  0  0  3  0  0  0  0  0  0
  181.1090  178.9710  141.0440 C   0  0  0  0  0  0  0  0  0  0  0  0
  182.4270  178.6190  141.0410 N   0  0  0  0  0  0  0  0  0  0  0  0
  183.1740  178.6210  142.1760 C   0  0  0  0  0  0  0  0  0  0  0  0
  181.2430  179.3530  143.4330 C   0  0  0  0  0  3  0  0  0  0  0  0
  182.5890  178.9940  143.4030 C   0  0  0  0  0  0  0  0  0  0  0  0
  180.4980  179.3410  142.2530 C   0  0  0  0  0  3  0  0  0  0  0  0
  184.7060  178.6370  144.5240 C   0  0  0  0  0  0  0  0  0  0  0  0
  185.2880  178.2660  143.3050 C   0  0  0  0  0  3  0  0  0  0  0  0
  180.3590  178.9610  139.8170 N   0  0  0  0  0  0  0  0  0  0  0  0
  179.2270  178.0650  139.6260 C   0  0  0  0  0  1  0  0  0  0  0  0
  180.7250  179.8420  138.7190 C   0  0  0  0  0  1  0  0  0  0  0  0
  188.5740  176.3520  143.6710 O   0  0  0  0  0  0  0  0  0  0  0  0
  188.6800  176.6110  142.3050 C   0  0  0  0  0  2  0  0  0  0  0  0
  190.1420  176.7620  141.9310 C   0  0  0  0  0  2  0  0  0  0  0  0
  190.2810  177.4940  140.6060 C   0  0  0  0  0  2  0  0  0  0  0  0
  189.4990  176.7960  139.5020 C   0  0  2  0  0  3  0  0  0  0  0  0
  190.4280  176.2490  138.4310 C   0  0  0  0  0  1  0  0  0  0  0  0
  188.4810  177.7450  138.8820 C   0  0  0  0  0  2  0  0  0  0  0  0
  189.0500  178.9970  138.6280 O   0  0  0  0  0  0  0  0  0  0  0  0
  187.5210  178.6080  136.8530 C   0  0  0  0  0  1  0  0  0  0  0  0
  188.8490  179.2080  137.2640 C   0  0  0  0  0  2  0  0  0  0  0  0
  1 25  1  1  0  0  0
  1  4  1  0  0  0  0
  1  9  1  0  0  0  0
  2  8  1  0  0  0  0
  4  7  1  0  0  0  0
  5  3  1  0  0  0  0
  5  6  1  0  0  0  0
  7 11  1  1  0  0  0
  7  3  1  0  0  0  0
  8 10  1  0  0  0  0
  9  8  2  0  0  0  0
  9  5  1  0  0  0  0
 10  6  2  0  0  0  0
 12 16  2  0  0  0  0
 12 21  1  0  0  0  0
 14 19  1  0  0  0  0
 15 14  2  0  0  0  0
 15 16  1  0  0  0  0
 16 18  1  0  0  0  0
 18 17  1  0  0  0  0
 18 13  2  0  0  0  0
 19 17  2  0  0  0  0
 20 13  1  0  0  0  0
 20 11  1  0  0  0  0
 21 20  2  0  0  0  0
 22 14  1  0  0  0  0
 23 22  1  0  0  0  0
 24 22  1  0  0  0  0
 26 25  1  0  0  0  0
 27 26  1  0  0  0  0
 28 27  1  0  0  0  0
 29 30  1  6  0  0  0
 29 28  1  0  0  0  0
 31 29  1  0  0  0  0
 32 31  1  0  0  0  0
 33 34  1  0  0  0  0
 34 32  1  0  0  0  0
M  END
>  <MODEL>
9

>  <REMARK>
 VINA RESULT:      -8.5      2.080      5.379
  Name = 
  11 active torsions:
  status: ('A' for Active; 'I' for Inactive)
    1  A    between atoms: C_1  and  O_34
    2  A    between atoms: C_2  and  C_23
    3  A    between atoms: C_2  and  C_32
    4  A    between atoms: O_3  and  C_24
    5  A    between atoms: O_3  and  C_27
    6  A    between atoms: C_7  and  N_11
    7  A    between atoms: C_17  and  C_18
    8  A    between atoms: C_18  and  C_30
    9  A    between atoms: C_23  and  C_25
   10  A    between atoms: C_25  and  C_27
   11  A    between atoms: C_32  and  O_34
                            x       y       z     vdW  Elec       q    Type
                         _______ _______ _______ _____ _____    ______ ____

>  <TORSDO>
F 11

$$$$
