=
 OpenBabel11052416573D

 32 37  0  0  1  0  0  0  0  0999 V2000
  190.3600  176.2280  143.2760 C   0  0  0  0  0  0  0  0  0  0  0  0
  187.1440  177.2230  144.4510 O   0  0  0  0  0  0  0  0  0  0  0  0
  184.4190  178.7670  140.5540 C   0  0  0  0  0  0  0  0  0  0  0  0
  179.9770  178.8370  142.6350 C   0  0  0  0  0  3  0  0  0  0  0  0
  179.3800  178.8470  141.3730 C   0  0  0  0  0  3  0  0  0  0  0  0
  186.4240  178.6890  141.8260 C   0  0  0  0  0  0  0  0  0  0  0  0
  184.2940  178.5040  142.9480 C   0  0  0  0  0  3  0  0  0  0  0  0
  189.3020  176.3810  144.2010 N   0  0  0  0  0  0  0  0  0  0  0  0
  186.3700  178.4160  144.3370 C   0  0  0  0  0  2  0  0  0  0  0  0
  181.3660  178.7470  142.7520 C   0  0  0  0  0  3  0  0  0  0  0  0
  183.6450  178.6230  141.7150 C   0  0  0  0  0  0  0  0  0  0  0  0
  182.1700  178.6600  141.6060 C   0  0  0  0  0  0  0  0  0  0  0  0
  182.3850  178.4810  139.0780 C   0  0  1  0  0  3  0  0  0  0  0  0
  190.1070  176.9900  141.6890 S   0  0  0  0  0  0  0  0  0  0  0  0
  188.3720  177.2550  142.1970 C   0  0  2  0  0  3  0  0  0  0  0  0
  191.4000  175.5800  143.5600 O   0  0  0  0  0  0  0  0  0  0  0  0
  185.6880  178.5230  143.0100 C   0  0  0  0  0  0  0  0  0  0  0  0
  187.9160  178.6590  141.8470 C   0  0  0  0  0  2  0  0  0  0  0  0
  188.2800  176.9620  143.6740 C   0  0  0  0  0  0  0  0  0  0  0  0
  180.1700  178.7560  140.2250 C   0  0  0  0  0  3  0  0  0  0  0  0
  181.5630  178.6630  140.3300 C   0  0  0  0  0  0  0  0  0  0  0  0
  185.7760  178.8000  140.6360 N   0  0  0  0  0  0  0  0  0  0  0  0
  183.7750  178.8890  139.2830 N   0  0  0  0  0  2  0  0  0  0  0  0
  183.6920  174.9390  136.9880 C   0  0  2  0  0  3  0  0  0  0  0  0
  182.5590  175.0120  135.9640 C   0  0  0  0  0  2  0  0  0  0  0  0
  181.0250  176.4830  137.3200 C   0  0  0  0  0  2  0  0  0  0  0  0
  180.1880  174.9330  135.7190 O   0  0  0  0  0  1  0  0  0  0  0  0
  181.2010  175.1210  136.6570 C   0  0  1  0  0  3  0  0  0  0  0  0
  183.8810  176.2740  137.7000 C   0  0  0  0  0  2  0  0  0  0  0  0
  184.8660  174.5980  136.3460 F   0  0  0  0  0  0  0  0  0  0  0  0
  182.1140  175.8320  139.7320 O   0  0  0  0  0  0  0  0  0  0  0  0
  182.3420  176.7400  138.5430 P   0  0  1  0  0  0  0  0  0  0  0  0
  1 16  2  0  0  0  0
  1  8  1  0  0  0  0
  3 22  2  0  0  0  0
  3 11  1  0  0  0  0
  4 10  1  0  0  0  0
  5  4  2  0  0  0  0
  6 18  1  0  0  0  0
  6 17  2  0  0  0  0
  7 17  1  0  0  0  0
  9  2  1  0  0  0  0
 11  7  2  0  0  0  0
 12 11  1  0  0  0  0
 12 10  2  0  0  0  0
 13 23  1  1  0  0  0
 13 21  1  0  0  0  0
 14 15  1  0  0  0  0
 14  1  1  0  0  0  0
 15 18  1  1  0  0  0
 15 19  1  0  0  0  0
 17  9  1  0  0  0  0
 19  8  2  0  0  0  0
 19  2  1  0  0  0  0
 20 21  2  0  0  0  0
 20  5  1  0  0  0  0
 21 12  1  0  0  0  0
 22  6  1  0  0  0  0
 23  3  1  0  0  0  0
 24 30  1  6  0  0  0
 24 29  1  0  0  0  0
 25 28  1  0  0  0  0
 25 24  1  0  0  0  0
 26 32  1  0  0  0  0
 28 27  1  6  0  0  0
 28 26  1  0  0  0  0
 29 32  1  0  0  0  0
 32 13  1  0  0  0  0
 32 31  2  1  0  0  0
M  END
>  <MODEL>
1

>  <REMARK>
 VINA RESULT:      -8.3      0.000      0.000
  Name = 
  1 active torsions:
  status: ('A' for Active; 'I' for Inactive)
    1  A    between atoms: C_16  and  P_32
                            x       y       z     vdW  Elec       q    Type
                         _______ _______ _______ _____ _____    ______ ____

>  <TORSDO>
F 1

$$$$
=
 OpenBabel11052416573D

 32 37  0  0  1  0  0  0  0  0999 V2000
  190.1660  176.1800  142.9090 C   0  0  0  0  0  0  0  0  0  0  0  0
  186.8040  176.8340  143.9030 O   0  0  0  0  0  0  0  0  0  0  0  0
  184.4570  179.1920  140.1710 C   0  0  0  0  0  0  0  0  0  0  0  0
  179.8170  178.7200  141.6920 C   0  0  0  0  0  3  0  0  0  0  0  0
  179.3610  179.0110  140.4050 C   0  0  0  0  0  3  0  0  0  0  0  0
  186.3150  178.8520  141.6140 C   0  0  0  0  0  0  0  0  0  0  0  0
  184.0850  178.3840  142.4140 C   0  0  0  0  0  3  0  0  0  0  0  0
  189.0080  176.1020  143.7170 N   0  0  0  0  0  0  0  0  0  0  0  0
  186.0000  178.0100  143.9740 C   0  0  0  0  0  2  0  0  0  0  0  0
  181.1880  178.6250  141.9440 C   0  0  0  0  0  3  0  0  0  0  0  0
  183.5690  178.7750  141.1730 C   0  0  0  0  0  0  0  0  0  0  0  0
  182.1150  178.8150  140.9070 C   0  0  0  0  0  0  0  0  0  0  0  0
  182.6090  179.2240  138.4460 C   0  0  1  0  0  3  0  0  0  0  0  0
  190.0560  177.2830  141.5180 S   0  0  0  0  0  0  0  0  0  0  0  0
  188.2670  177.3990  141.8710 C   0  0  2  0  0  3  0  0  0  0  0  0
  191.1940  175.4990  143.1560 O   0  0  0  0  0  0  0  0  0  0  0  0
  185.4620  178.4090  142.6370 C   0  0  0  0  0  0  0  0  0  0  0  0
  187.7960  178.8400  141.7980 C   0  0  0  0  0  2  0  0  0  0  0  0
  188.0270  176.7730  143.2220 C   0  0  0  0  0  0  0  0  0  0  0  0
  180.2730  179.1980  139.3640 C   0  0  0  0  0  3  0  0  0  0  0  0
  181.6490  179.1020  139.6040 C   0  0  0  0  0  0  0  0  0  0  0  0
  185.7950  179.2250  140.4140 N   0  0  0  0  0  0  0  0  0  0  0  0
  183.9510  179.5940  138.8960 N   0  0  0  0  0  2  0  0  0  0  0  0
  182.0290  175.0060  137.7430 C   0  0  2  0  0  3  0  0  0  0  0  0
  183.5100  174.6760  137.9310 C   0  0  0  0  0  2  0  0  0  0  0  0
  184.3890  177.0050  137.5300 C   0  0  0  0  0  2  0  0  0  0  0  0
  185.6900  175.0710  137.0470 O   0  0  0  0  0  1  0  0  0  0  0  0
  184.3850  175.5600  137.0430 C   0  0  1  0  0  3  0  0  0  0  0  0
  181.6870  176.3700  138.3320 C   0  0  0  0  0  2  0  0  0  0  0  0
  181.2630  174.0390  138.3630 F   0  0  0  0  0  0  0  0  0  0  0  0
  182.2260  177.8520  136.1040 O   0  0  0  0  0  0  0  0  0  0  0  0
  182.6930  177.6520  137.5300 P   0  0  1  0  0  0  0  0  0  0  0  0
  1 16  2  0  0  0  0
  1  8  1  0  0  0  0
  2  9  1  0  0  0  0
  3 22  2  0  0  0  0
  3 11  1  0  0  0  0
  4 10  1  0  0  0  0
  5  4  2  0  0  0  0
  6 18  1  0  0  0  0
  6 17  2  0  0  0  0
  7 17  1  0  0  0  0
 11  7  2  0  0  0  0
 12 11  1  0  0  0  0
 12 10  2  0  0  0  0
 13 23  1  1  0  0  0
 13 21  1  0  0  0  0
 14 15  1  0  0  0  0
 14  1  1  0  0  0  0
 15 18  1  1  0  0  0
 15 19  1  0  0  0  0
 17  9  1  0  0  0  0
 19  8  2  0  0  0  0
 19  2  1  0  0  0  0
 20 21  2  0  0  0  0
 20  5  1  0  0  0  0
 21 12  1  0  0  0  0
 22  6  1  0  0  0  0
 23  3  1  0  0  0  0
 24 25  1  0  0  0  0
 24 29  1  0  0  0  0
 24 30  1  1  0  0  0
 28 27  1  1  0  0  0
 28 26  1  0  0  0  0
 28 25  1  0  0  0  0
 32 31  2  6  0  0  0
 32 26  1  0  0  0  0
 32 29  1  0  0  0  0
 32 13  1  0  0  0  0
M  END
>  <MODEL>
2

>  <REMARK>
 VINA RESULT:      -8.3      1.461      1.892
  Name = 
  1 active torsions:
  status: ('A' for Active; 'I' for Inactive)
    1  A    between atoms: C_16  and  P_32
                            x       y       z     vdW  Elec       q    Type
                         _______ _______ _______ _____ _____    ______ ____

>  <TORSDO>
F 1

$$$$
=
 OpenBabel11052416573D

 32 37  0  0  1  0  0  0  0  0999 V2000
  180.9710  176.9270  139.3270 C   0  0  0  0  0  0  0  0  0  0  0  0
  183.8030  175.7600  137.5030 O   0  0  0  0  0  0  0  0  0  0  0  0
  187.8720  178.1480  139.1560 C   0  0  0  0  0  0  0  0  0  0  0  0
  191.3500  175.3280  137.1500 C   0  0  0  0  0  3  0  0  0  0  0  0
  192.2940  175.8550  138.0340 C   0  0  0  0  0  3  0  0  0  0  0  0
  185.6080  178.0890  138.4370 C   0  0  0  0  0  0  0  0  0  0  0  0
  187.1880  176.5060  137.5270 C   0  0  0  0  0  3  0  0  0  0  0  0
  181.6970  176.1010  138.4390 N   0  0  0  0  0  0  0  0  0  0  0  0
  184.8210  176.3980  136.7340 C   0  0  0  0  0  2  0  0  0  0  0  0
  190.0100  175.7100  137.2480 C   0  0  0  0  0  3  0  0  0  0  0  0
  188.1960  177.0760  138.3120 C   0  0  0  0  0  0  0  0  0  0  0  0
  189.6010  176.6190  138.2360 C   0  0  0  0  0  0  0  0  0  0  0  0
  190.1440  178.0550  140.2630 C   0  0  1  0  0  3  0  0  0  0  0  0
  181.8660  178.3140  139.9900 S   0  0  0  0  0  0  0  0  0  0  0  0
  183.3720  177.5620  139.2790 C   0  0  2  0  0  3  0  0  0  0  0  0
  179.7760  176.6810  139.6350 O   0  0  0  0  0  0  0  0  0  0  0  0
  185.8860  177.0010  137.5940 C   0  0  0  0  0  0  0  0  0  0  0  0
  184.2160  178.6090  138.5760 C   0  0  0  0  0  2  0  0  0  0  0  0
  182.9340  176.4500  138.3580 C   0  0  0  0  0  0  0  0  0  0  0  0
  191.8980  176.7580  139.0240 C   0  0  0  0  0  3  0  0  0  0  0  0
  190.5580  177.1460  139.1330 C   0  0  0  0  0  0  0  0  0  0  0  0
  186.6000  178.6280  139.1950 N   0  0  0  0  0  0  0  0  0  0  0  0
  188.8870  178.7440  139.9680 N   0  0  0  0  0  2  0  0  0  0  0  0
  188.3060  176.8160  143.9660 C   0  0  2  0  0  3  0  0  0  0  0  0
  189.3560  177.5140  144.8290 C   0  0  0  0  0  2  0  0  0  0  0  0
  191.1410  177.6780  143.0560 C   0  0  0  0  0  2  0  0  0  0  0  0
  191.6790  177.5480  145.3710 O   0  0  0  0  0  1  0  0  0  0  0  0
  190.7680  177.0990  144.4160 C   0  0  1  0  0  3  0  0  0  0  0  0
  188.3170  177.3530  142.5390 C   0  0  0  0  0  2  0  0  0  0  0  0
  187.0550  177.0170  144.5160 F   0  0  0  0  0  0  0  0  0  0  0  0
  190.1800  175.6280  141.5380 O   0  0  0  0  0  0  0  0  0  0  0  0
  189.9590  177.1010  141.8040 P   0  0  1  0  0  0  0  0  0  0  0  0
  1 16  2  0  0  0  0
  1 14  1  0  0  0  0
  2 19  1  0  0  0  0
  3 22  2  0  0  0  0
  3 23  1  0  0  0  0
  4 10  2  0  0  0  0
  4  5  1  0  0  0  0
  5 20  2  0  0  0  0
  6 18  1  0  0  0  0
  6 22  1  0  0  0  0
  7 17  1  0  0  0  0
  7 11  2  0  0  0  0
  8  1  1  0  0  0  0
  9  2  1  0  0  0  0
  9 17  1  0  0  0  0
 10 12  1  0  0  0  0
 11  3  1  0  0  0  0
 12 11  1  0  0  0  0
 12 21  2  0  0  0  0
 13 21  1  6  0  0  0
 13 32  1  0  0  0  0
 15 18  1  6  0  0  0
 15 14  1  0  0  0  0
 17  6  2  0  0  0  0
 19  8  2  0  0  0  0
 19 15  1  0  0  0  0
 20 21  1  0  0  0  0
 23 13  1  0  0  0  0
 24 30  1  1  0  0  0
 24 25  1  0  0  0  0
 26 28  1  0  0  0  0
 28 25  1  0  0  0  0
 28 27  1  1  0  0  0
 29 24  1  0  0  0  0
 32 31  2  6  0  0  0
 32 29  1  0  0  0  0
 32 26  1  0  0  0  0
M  END
>  <MODEL>
3

>  <REMARK>
 VINA RESULT:      -8.1      3.936      9.093
  Name = 
  1 active torsions:
  status: ('A' for Active; 'I' for Inactive)
    1  A    between atoms: C_16  and  P_32
                            x       y       z     vdW  Elec       q    Type
                         _______ _______ _______ _____ _____    ______ ____

>  <TORSDO>
F 1

$$$$
=
 OpenBabel11052416573D

 32 37  0  0  1  0  0  0  0  0999 V2000
  191.1290  175.9540  138.3130 C   0  0  0  0  0  0  0  0  0  0  0  0
  189.3440  176.9570  141.2330 O   0  0  0  0  0  0  0  0  0  0  0  0
  184.8990  178.7770  139.8490 C   0  0  0  0  0  0  0  0  0  0  0  0
  182.6440  178.8350  144.2060 C   0  0  0  0  0  3  0  0  0  0  0  0
  181.4050  178.9280  143.5690 C   0  0  0  0  0  3  0  0  0  0  0  0
  187.2570  178.5820  139.6340 C   0  0  0  0  0  0  0  0  0  0  0  0
  186.2400  178.3840  141.8150 C   0  0  0  0  0  3  0  0  0  0  0  0
  190.8600  176.0800  139.6950 N   0  0  0  0  0  0  0  0  0  0  0  0
  188.7240  178.1720  141.6490 C   0  0  0  0  0  2  0  0  0  0  0  0
  183.8120  178.7060  143.4500 C   0  0  0  0  0  3  0  0  0  0  0  0
  184.9820  178.5870  141.2360 C   0  0  0  0  0  0  0  0  0  0  0  0
  183.7490  178.6640  142.0480 C   0  0  0  0  0  0  0  0  0  0  0  0
  182.3750  178.6210  139.9090 C   0  0  1  0  0  3  0  0  0  0  0  0
  190.0050  176.8100  137.2320 S   0  0  0  0  0  0  0  0  0  0  0  0
  188.9520  177.0850  138.6990 C   0  0  2  0  0  3  0  0  0  0  0  0
  192.0930  175.2680  137.8850 O   0  0  0  0  0  0  0  0  0  0  0  0
  187.3830  178.3680  141.0160 C   0  0  0  0  0  0  0  0  0  0  0  0
  188.4510  178.5170  138.7410 C   0  0  0  0  0  2  0  0  0  0  0  0
  189.7600  176.7130  139.9170 C   0  0  0  0  0  0  0  0  0  0  0  0
  181.3290  178.8830  142.1750 C   0  0  0  0  0  3  0  0  0  0  0  0
  182.4930  178.7520  141.4070 C   0  0  0  0  0  0  0  0  0  0  0  0
  186.0260  178.7750  139.0890 N   0  0  0  0  0  0  0  0  0  0  0  0
  183.6230  178.9850  139.2370 N   0  0  0  0  0  2  0  0  0  0  0  0
  180.6540  175.4740  137.5110 C   0  0  2  0  0  3  0  0  0  0  0  0
  179.4860  175.2530  138.4710 C   0  0  0  0  0  2  0  0  0  0  0  0
  180.5510  176.3260  140.4890 C   0  0  0  0  0  2  0  0  0  0  0  0
  178.9310  174.5950  140.6960 O   0  0  0  0  0  1  0  0  0  0  0  0
  179.9850  175.0390  139.9000 C   0  0  1  0  0  3  0  0  0  0  0  0
  181.3190  176.8250  137.7490 C   0  0  0  0  0  2  0  0  0  0  0  0
  180.1920  175.4190  136.2100 F   0  0  0  0  0  0  0  0  0  0  0  0
  183.1160  175.9970  139.6290 O   0  0  0  0  0  0  0  0  0  0  0  0
  181.9250  176.9140  139.4590 P   0  0  1  0  0  0  0  0  0  0  0  0
  1  8  1  0  0  0  0
  2  9  1  0  0  0  0
  3 11  1  0  0  0  0
  5  4  1  0  0  0  0
  6 17  2  0  0  0  0
  8 19  2  0  0  0  0
 10  4  2  0  0  0  0
 11  7  2  0  0  0  0
 11 12  1  0  0  0  0
 12 10  1  0  0  0  0
 13 23  1  6  0  0  0
 13 21  1  0  0  0  0
 14  1  1  0  0  0  0
 14 15  1  0  0  0  0
 15 18  1  1  0  0  0
 15 19  1  0  0  0  0
 16  1  2  0  0  0  0
 17  9  1  0  0  0  0
 17  7  1  0  0  0  0
 18  6  1  0  0  0  0
 19  2  1  0  0  0  0
 20  5  2  0  0  0  0
 21 12  2  0  0  0  0
 21 20  1  0  0  0  0
 22  6  1  0  0  0  0
 22  3  2  0  0  0  0
 23  3  1  0  0  0  0
 24 30  1  6  0  0  0
 24 29  1  0  0  0  0
 24 25  1  0  0  0  0
 25 28  1  0  0  0  0
 28 26  1  0  0  0  0
 28 27  1  1  0  0  0
 29 32  1  0  0  0  0
 32 31  2  1  0  0  0
 32 13  1  0  0  0  0
 32 26  1  0  0  0  0
M  END
>  <MODEL>
4

>  <REMARK>
 VINA RESULT:      -8.0      2.617      3.221
  Name = 
  1 active torsions:
  status: ('A' for Active; 'I' for Inactive)
    1  A    between atoms: C_16  and  P_32
                            x       y       z     vdW  Elec       q    Type
                         _______ _______ _______ _____ _____    ______ ____

>  <TORSDO>
F 1

$$$$
=
 OpenBabel11052416573D

 32 37  0  0  1  0  0  0  0  0999 V2000
  181.9980  174.9320  137.0940 C   0  0  0  0  0  0  0  0  0  0  0  0
  185.4480  174.5640  136.2680 O   0  0  0  0  0  0  0  0  0  0  0  0
  188.1000  177.8370  138.9590 C   0  0  0  0  0  0  0  0  0  0  0  0
  192.6060  176.0360  138.2330 C   0  0  0  0  0  3  0  0  0  0  0  0
  193.0750  176.7530  139.3350 C   0  0  0  0  0  3  0  0  0  0  0  0
  186.2500  177.2390  137.5930 C   0  0  0  0  0  0  0  0  0  0  0  0
  188.3710  176.1280  137.2790 C   0  0  0  0  0  3  0  0  0  0  0  0
  183.1410  174.3410  136.5070 N   0  0  0  0  0  0  0  0  0  0  0  0
  186.4610  175.4590  135.8140 C   0  0  0  0  0  2  0  0  0  0  0  0
  191.2480  176.0680  137.9030 C   0  0  0  0  0  3  0  0  0  0  0  0
  188.9190  176.9060  138.3040 C   0  0  0  0  0  0  0  0  0  0  0  0
  190.3480  176.8160  138.6780 C   0  0  0  0  0  0  0  0  0  0  0  0
  189.8770  178.2780  140.7040 C   0  0  1  0  0  3  0  0  0  0  0  0
  182.2790  176.4770  137.9300 S   0  0  0  0  0  0  0  0  0  0  0  0
  184.0660  176.1450  137.7440 C   0  0  2  0  0  3  0  0  0  0  0  0
  180.8660  174.3870  137.0380 O   0  0  0  0  0  0  0  0  0  0  0  0
  187.0300  176.2810  136.9260 C   0  0  0  0  0  0  0  0  0  0  0  0
  184.7990  177.3910  137.2810 C   0  0  0  0  0  2  0  0  0  0  0  0
  184.2180  174.9890  136.7880 C   0  0  0  0  0  0  0  0  0  0  0  0
  192.1880  177.4970  140.1160 C   0  0  0  0  0  3  0  0  0  0  0  0
  190.8250  177.5360  139.7960 C   0  0  0  0  0  0  0  0  0  0  0  0
  186.8000  177.9830  138.5900 N   0  0  0  0  0  0  0  0  0  0  0  0
  188.6410  178.6410  140.0110 N   0  0  0  0  0  2  0  0  0  0  0  0
  187.5450  176.9200  144.0720 C   0  0  2  0  0  3  0  0  0  0  0  0
  188.4870  177.5510  145.0980 C   0  0  0  0  0  2  0  0  0  0  0  0
  190.4910  177.7500  143.5810 C   0  0  0  0  0  2  0  0  0  0  0  0
  190.7190  177.5020  145.9380 O   0  0  0  0  0  1  0  0  0  0  0  0
  189.9320  177.1200  144.8530 C   0  0  1  0  0  3  0  0  0  0  0  0
  187.7540  177.5200  142.6860 C   0  0  0  0  0  2  0  0  0  0  0  0
  186.2370  177.1280  144.4640 F   0  0  0  0  0  0  0  0  0  0  0  0
  189.6990  175.7960  141.8550 O   0  0  0  0  0  0  0  0  0  0  0  0
  189.4730  177.2600  142.1610 P   0  0  1  0  0  0  0  0  0  0  0  0
  1 14  1  0  0  0  0
  2 19  1  0  0  0  0
  3 23  1  0  0  0  0
  4  5  1  0  0  0  0
  5 20  2  0  0  0  0
  6 22  1  0  0  0  0
  7 11  2  0  0  0  0
  8 19  2  0  0  0  0
  8  1  1  0  0  0  0
  9  2  1  0  0  0  0
  9 17  1  0  0  0  0
 10  4  2  0  0  0  0
 10 12  1  0  0  0  0
 11 12  1  0  0  0  0
 11  3  1  0  0  0  0
 12 21  2  0  0  0  0
 13 21  1  6  0  0  0
 13 32  1  0  0  0  0
 15 18  1  6  0  0  0
 15 14  1  0  0  0  0
 16  1  2  0  0  0  0
 17  7  1  0  0  0  0
 17  6  2  0  0  0  0
 18  6  1  0  0  0  0
 19 15  1  0  0  0  0
 21 20  1  0  0  0  0
 22  3  2  0  0  0  0
 23 13  1  0  0  0  0
 24 30  1  1  0  0  0
 24 25  1  0  0  0  0
 26 28  1  0  0  0  0
 28 25  1  0  0  0  0
 28 27  1  1  0  0  0
 29 24  1  0  0  0  0
 32 31  2  6  0  0  0
 32 29  1  0  0  0  0
 32 26  1  0  0  0  0
M  END
>  <MODEL>
5

>  <REMARK>
 VINA RESULT:      -7.9      4.210      9.296
  Name = 
  1 active torsions:
  status: ('A' for Active; 'I' for Inactive)
    1  A    between atoms: C_16  and  P_32
                            x       y       z     vdW  Elec       q    Type
                         _______ _______ _______ _____ _____    ______ ____

>  <TORSDO>
F 1

$$$$
=
 OpenBabel11052416573D

 32 37  0  0  1  0  0  0  0  0999 V2000
  189.2670  177.2210  144.4550 C   0  0  0  0  0  0  0  0  0  0  0  0
  185.7730  177.9170  144.5900 O   0  0  0  0  0  0  0  0  0  0  0  0
  184.0950  178.6220  139.9330 C   0  0  0  0  0  0  0  0  0  0  0  0
  179.2660  178.3540  140.7520 C   0  0  0  0  0  3  0  0  0  0  0  0
  179.0420  178.1370  139.3910 C   0  0  0  0  0  3  0  0  0  0  0  0
  185.6700  178.9570  141.6810 C   0  0  0  0  0  0  0  0  0  0  0  0
  183.3410  178.6280  142.2240 C   0  0  0  0  0  3  0  0  0  0  0  0
  187.9850  177.3410  145.0390 N   0  0  0  0  0  0  0  0  0  0  0  0
  184.9510  178.9770  144.1020 C   0  0  0  0  0  2  0  0  0  0  0  0
  180.5710  178.4610  141.2390 C   0  0  0  0  0  3  0  0  0  0  0  0
  183.0490  178.5150  140.8610 C   0  0  0  0  0  0  0  0  0  0  0  0
  181.6650  178.3460  140.3670 C   0  0  0  0  0  0  0  0  0  0  0  0
  182.5840  177.9010  138.0380 C   0  0  1  0  0  3  0  0  0  0  0  0
  189.3910  177.7520  142.7620 S   0  0  0  0  0  0  0  0  0  0  0  0
  187.5660  177.8440  142.7550 C   0  0  2  0  0  3  0  0  0  0  0  0
  190.2450  176.7530  145.0920 O   0  0  0  0  0  0  0  0  0  0  0  0
  184.6550  178.8370  142.6430 C   0  0  0  0  0  0  0  0  0  0  0  0
  187.0950  179.1260  142.0940 C   0  0  0  0  0  2  0  0  0  0  0  0
  187.0990  177.7180  144.1840 C   0  0  0  0  0  0  0  0  0  0  0  0
  180.1230  178.0160  138.5150 C   0  0  0  0  0  3  0  0  0  0  0  0
  181.4350  178.1190  138.9910 C   0  0  0  0  0  0  0  0  0  0  0  0
  185.3680  178.8430  140.3600 N   0  0  0  0  0  0  0  0  0  0  0  0
  183.8190  178.5090  138.5350 N   0  0  0  0  0  2  0  0  0  0  0  0
  184.6510  174.3570  136.7010 C   0  0  2  0  0  3  0  0  0  0  0  0
  183.6850  174.1180  135.5410 C   0  0  0  0  0  2  0  0  0  0  0  0
  181.7820  175.5020  136.4460 C   0  0  0  0  0  2  0  0  0  0  0  0
  181.4090  173.6430  135.0070 O   0  0  0  0  0  1  0  0  0  0  0  0
  182.2360  174.1080  136.0280 C   0  0  1  0  0  3  0  0  0  0  0  0
  184.5510  175.7870  137.2190 C   0  0  0  0  0  2  0  0  0  0  0  0
  185.9430  174.1180  136.2760 F   0  0  0  0  0  0  0  0  0  0  0  0
  182.5750  175.3530  139.0490 O   0  0  0  0  0  0  0  0  0  0  0  0
  182.8540  176.1190  137.7750 P   0  0  1  0  0  0  0  0  0  0  0  0
  1  8  1  0  0  0  0
  1 16  2  0  0  0  0
  3 22  2  0  0  0  0
  3 11  1  0  0  0  0
  4 10  1  0  0  0  0
  5  4  2  0  0  0  0
  6 18  1  0  0  0  0
  6 17  2  0  0  0  0
  7 17  1  0  0  0  0
  9  2  1  0  0  0  0
 11  7  2  0  0  0  0
 12 11  1  0  0  0  0
 12 10  2  0  0  0  0
 13 23  1  1  0  0  0
 13 21  1  0  0  0  0
 14  1  1  0  0  0  0
 15 18  1  1  0  0  0
 15 14  1  0  0  0  0
 15 19  1  0  0  0  0
 17  9  1  0  0  0  0
 19  2  1  0  0  0  0
 19  8  2  0  0  0  0
 20 21  2  0  0  0  0
 20  5  1  0  0  0  0
 21 12  1  0  0  0  0
 22  6  1  0  0  0  0
 23  3  1  0  0  0  0
 24 30  1  6  0  0  0
 24 29  1  0  0  0  0
 25 28  1  0  0  0  0
 25 24  1  0  0  0  0
 26 32  1  0  0  0  0
 28 27  1  6  0  0  0
 28 26  1  0  0  0  0
 29 32  1  0  0  0  0
 32 13  1  0  0  0  0
 32 31  2  1  0  0  0
M  END
>  <MODEL>
6

>  <REMARK>
 VINA RESULT:      -7.4      1.234      1.444
  Name = 
  1 active torsions:
  status: ('A' for Active; 'I' for Inactive)
    1  A    between atoms: C_16  and  P_32
                            x       y       z     vdW  Elec       q    Type
                         _______ _______ _______ _____ _____    ______ ____

>  <TORSDO>
F 1

$$$$
=
 OpenBabel11052416573D

 32 37  0  0  1  0  0  0  0  0999 V2000
  181.0210  177.4480  140.3110 C   0  0  0  0  0  0  0  0  0  0  0  0
  183.9870  176.6540  138.4990 O   0  0  0  0  0  0  0  0  0  0  0  0
  187.8870  178.7850  140.7890 C   0  0  0  0  0  0  0  0  0  0  0  0
  191.5500  176.4030  138.5580 C   0  0  0  0  0  3  0  0  0  0  0  0
  192.4250  176.7850  139.5770 C   0  0  0  0  0  3  0  0  0  0  0  0
  185.6720  178.8150  139.9280 C   0  0  0  0  0  0  0  0  0  0  0  0
  187.3440  177.4360  138.8640 C   0  0  0  0  0  3  0  0  0  0  0  0
  181.8200  176.7980  139.3430 N   0  0  0  0  0  0  0  0  0  0  0  0
  185.0330  177.4290  137.9160 C   0  0  0  0  0  2  0  0  0  0  0  0
  190.1970  176.7420  138.6340 C   0  0  0  0  0  3  0  0  0  0  0  0
  188.2880  177.8780  139.7980 C   0  0  0  0  0  0  0  0  0  0  0  0
  189.7060  177.4630  139.7340 C   0  0  0  0  0  0  0  0  0  0  0  0
  190.0890  178.5370  142.0070 C   0  0  1  0  0  3  0  0  0  0  0  0
  181.8390  178.7140  141.2560 S   0  0  0  0  0  0  0  0  0  0  0  0
  183.4030  178.1180  140.5240 C   0  0  2  0  0  3  0  0  0  0  0  0
  179.8170  177.1350  140.4960 O   0  0  0  0  0  0  0  0  0  0  0  0
  186.0280  177.8920  138.9320 C   0  0  0  0  0  0  0  0  0  0  0  0
  184.2610  179.2830  140.0650 C   0  0  0  0  0  2  0  0  0  0  0  0
  183.0510  177.1740  139.4020 C   0  0  0  0  0  0  0  0  0  0  0  0
  191.9480  177.4980  140.6790 C   0  0  0  0  0  3  0  0  0  0  0  0
  190.5930  177.8420  140.7670 C   0  0  0  0  0  0  0  0  0  0  0  0
  186.6020  179.2310  140.8290 N   0  0  0  0  0  0  0  0  0  0  0  0
  188.8350  179.2480  141.7540 N   0  0  0  0  0  2  0  0  0  0  0  0
  188.4440  176.9700  145.6760 C   0  0  2  0  0  3  0  0  0  0  0  0
  189.7430  177.1740  146.4550 C   0  0  0  0  0  2  0  0  0  0  0  0
  191.2750  177.3000  144.4560 C   0  0  0  0  0  2  0  0  0  0  0  0
  192.0330  176.5170  146.5720 O   0  0  0  0  0  1  0  0  0  0  0  0
  190.9250  176.5340  145.7270 C   0  0  1  0  0  3  0  0  0  0  0  0
  188.4300  177.8000  144.3970 C   0  0  0  0  0  2  0  0  0  0  0  0
  187.3740  177.3390  146.4670 F   0  0  0  0  0  0  0  0  0  0  0  0
  189.6090  175.9500  142.7740 O   0  0  0  0  0  0  0  0  0  0  0  0
  189.8370  177.3310  143.3480 P   0  0  1  0  0  0  0  0  0  0  0  0
  1 16  2  0  0  0  0
  1 14  1  0  0  0  0
  2 19  1  0  0  0  0
  3 22  2  0  0  0  0
  3 23  1  0  0  0  0
  4 10  2  0  0  0  0
  4  5  1  0  0  0  0
  5 20  2  0  0  0  0
  6 18  1  0  0  0  0
  6 22  1  0  0  0  0
  7 17  1  0  0  0  0
  7 11  2  0  0  0  0
  8 19  2  0  0  0  0
  8  1  1  0  0  0  0
  9  2  1  0  0  0  0
  9 17  1  0  0  0  0
 10 12  1  0  0  0  0
 11  3  1  0  0  0  0
 12 11  1  0  0  0  0
 12 21  2  0  0  0  0
 13 21  1  6  0  0  0
 13 32  1  0  0  0  0
 15 18  1  6  0  0  0
 15 14  1  0  0  0  0
 17  6  2  0  0  0  0
 19 15  1  0  0  0  0
 20 21  1  0  0  0  0
 23 13  1  0  0  0  0
 24 25  1  0  0  0  0
 24 30  1  1  0  0  0
 26 28  1  0  0  0  0
 28 25  1  0  0  0  0
 28 27  1  1  0  0  0
 29 24  1  0  0  0  0
 32 31  2  6  0  0  0
 32 29  1  0  0  0  0
 32 26  1  0  0  0  0
M  END
>  <MODEL>
7

>  <REMARK>
 VINA RESULT:      -7.2      3.801      9.141
  Name = 
  1 active torsions:
  status: ('A' for Active; 'I' for Inactive)
    1  A    between atoms: C_16  and  P_32
                            x       y       z     vdW  Elec       q    Type
                         _______ _______ _______ _____ _____    ______ ____

>  <TORSDO>
F 1

$$$$
=
 OpenBabel11052416573D

 32 37  0  0  1  0  0  0  0  0999 V2000
  189.2010  177.0340  146.0590 C   0  0  0  0  0  0  0  0  0  0  0  0
  186.8320  177.6010  143.4550 O   0  0  0  0  0  0  0  0  0  0  0  0
  189.2700  177.8670  139.0980 C   0  0  0  0  0  0  0  0  0  0  0  0
  185.4780  177.4760  136.0110 C   0  0  0  0  0  3  0  0  0  0  0  0
  186.3500  177.1420  134.9730 C   0  0  0  0  0  3  0  0  0  0  0  0
  188.9950  178.4020  141.3970 C   0  0  0  0  0  0  0  0  0  0  0  0
  187.0470  178.0250  140.0210 C   0  0  0  0  0  3  0  0  0  0  0  0
  187.9240  177.1500  145.4630 N   0  0  0  0  0  0  0  0  0  0  0  0
  186.6980  178.5850  142.4310 C   0  0  0  0  0  2  0  0  0  0  0  0
  185.9690  177.6720  137.3040 C   0  0  0  0  0  3  0  0  0  0  0  0
  187.8810  177.7930  138.9220 C   0  0  0  0  0  0  0  0  0  0  0  0
  187.3400  177.5310  137.5700 C   0  0  0  0  0  0  0  0  0  0  0  0
  189.6840  176.9390  136.7830 C   0  0  1  0  0  3  0  0  0  0  0  0
  190.5780  177.4330  145.0060 S   0  0  0  0  0  0  0  0  0  0  0  0
  189.3890  177.4530  143.6180 C   0  0  2  0  0  3  0  0  0  0  0  0
  189.3450  176.6570  147.2500 O   0  0  0  0  0  0  0  0  0  0  0  0
  187.6000  178.3180  141.2680 C   0  0  0  0  0  0  0  0  0  0  0  0
  189.6240  178.6590  142.7260 C   0  0  0  0  0  2  0  0  0  0  0  0
  188.0010  177.4220  144.2060 C   0  0  0  0  0  0  0  0  0  0  0  0
  187.7160  176.9950  135.2270 C   0  0  0  0  0  3  0  0  0  0  0  0
  188.2200  177.1870  136.5190 C   0  0  0  0  0  0  0  0  0  0  0  0
  189.7900  178.1700  140.3180 N   0  0  0  0  0  0  0  0  0  0  0  0
  190.1400  177.6320  137.9880 N   0  0  0  0  0  2  0  0  0  0  0  0
  191.0480  173.0150  135.6140 C   0  0  2  0  0  3  0  0  0  0  0  0
  189.6310  172.4810  135.4080 C   0  0  0  0  0  2  0  0  0  0  0  0
  188.4510  174.2160  136.8070 C   0  0  0  0  0  2  0  0  0  0  0  0
  187.5730  172.0220  136.5240 O   0  0  0  0  0  1  0  0  0  0  0  0
  188.7660  172.7330  136.6420 C   0  0  1  0  0  3  0  0  0  0  0  0
  191.0690  174.5390  135.6270 C   0  0  0  0  0  2  0  0  0  0  0  0
  191.8600  172.5600  134.5940 F   0  0  0  0  0  0  0  0  0  0  0  0
  190.6360  174.8650  138.3020 O   0  0  0  0  0  0  0  0  0  0  0  0
  189.9990  175.1530  136.9600 P   0  0  1  0  0  0  0  0  0  0  0  0
  1 16  2  0  0  0  0
  2 19  1  0  0  0  0
  3 22  2  0  0  0  0
  4 10  1  0  0  0  0
  5 20  1  0  0  0  0
  5  4  2  0  0  0  0
  6 18  1  0  0  0  0
  7 17  1  0  0  0  0
  8  1  1  0  0  0  0
  9  2  1  0  0  0  0
 10 12  2  0  0  0  0
 11  3  1  0  0  0  0
 11  7  2  0  0  0  0
 12 11  1  0  0  0  0
 13 21  1  1  0  0  0
 13 32  1  0  0  0  0
 13 23  1  0  0  0  0
 14  1  1  0  0  0  0
 15 18  1  1  0  0  0
 15 19  1  0  0  0  0
 15 14  1  0  0  0  0
 17  6  2  0  0  0  0
 17  9  1  0  0  0  0
 19  8  2  0  0  0  0
 20 21  2  0  0  0  0
 21 12  1  0  0  0  0
 22  6  1  0  0  0  0
 23  3  1  0  0  0  0
 24 30  1  6  0  0  0
 24 29  1  0  0  0  0
 25 24  1  0  0  0  0
 25 28  1  0  0  0  0
 26 32  1  0  0  0  0
 28 27  1  6  0  0  0
 28 26  1  0  0  0  0
 29 32  1  0  0  0  0
 32 31  2  1  0  0  0
M  END
>  <MODEL>
8

>  <REMARK>
 VINA RESULT:      -7.2      4.561      6.198
  Name = 
  1 active torsions:
  status: ('A' for Active; 'I' for Inactive)
    1  A    between atoms: C_16  and  P_32
                            x       y       z     vdW  Elec       q    Type
                         _______ _______ _______ _____ _____    ______ ____

>  <TORSDO>
F 1

$$$$
=
 OpenBabel11052416573D

 32 37  0  0  1  0  0  0  0  0999 V2000
  188.9100  177.1750  144.4100 C   0  0  0  0  0  0  0  0  0  0  0  0
  185.6700  177.8380  143.0770 O   0  0  0  0  0  0  0  0  0  0  0  0
  186.0110  178.1150  138.0970 C   0  0  0  0  0  0  0  0  0  0  0  0
  181.2520  177.8600  136.9330 C   0  0  0  0  0  3  0  0  0  0  0  0
  181.5860  177.5230  135.6200 C   0  0  0  0  0  3  0  0  0  0  0  0
  186.7640  178.6200  140.2930 C   0  0  0  0  0  0  0  0  0  0  0  0
  184.4040  178.3110  139.8850 C   0  0  0  0  0  3  0  0  0  0  0  0
  187.5050  177.3300  144.4200 N   0  0  0  0  0  0  0  0  0  0  0  0
  185.1370  178.8410  142.2140 C   0  0  0  0  0  2  0  0  0  0  0  0
  182.2560  178.0250  137.8910 C   0  0  0  0  0  3  0  0  0  0  0  0
  184.6790  178.0770  138.5330 C   0  0  0  0  0  0  0  0  0  0  0  0
  183.6040  177.8480  137.5430 C   0  0  0  0  0  0  0  0  0  0  0  0
  185.3670  177.2140  135.8230 C   0  0  1  0  0  3  0  0  0  0  0  0
  189.7130  177.5590  142.8700 S   0  0  0  0  0  0  0  0  0  0  0  0
  188.0450  177.6280  142.1260 C   0  0  2  0  0  3  0  0  0  0  0  0
  189.5410  176.7760  145.4230 O   0  0  0  0  0  0  0  0  0  0  0  0
  185.4460  178.5710  140.7750 C   0  0  0  0  0  0  0  0  0  0  0  0
  187.9080  178.8420  141.2260 C   0  0  0  0  0  2  0  0  0  0  0  0
  187.0430  177.6200  143.2530 C   0  0  0  0  0  0  0  0  0  0  0  0
  182.9240  177.3400  135.2630 C   0  0  0  0  0  3  0  0  0  0  0  0
  183.9390  177.5000  136.2150 C   0  0  0  0  0  0  0  0  0  0  0  0
  187.0120  178.3880  138.9770 N   0  0  0  0  0  0  0  0  0  0  0  0
  186.3140  177.8780  136.7190 N   0  0  0  0  0  2  0  0  0  0  0  0
  185.5050  173.2290  137.4720 C   0  0  2  0  0  3  0  0  0  0  0  0
  187.0290  173.2310  137.5950 C   0  0  0  0  0  2  0  0  0  0  0  0
  187.4590  175.0830  135.9380 C   0  0  0  0  0  2  0  0  0  0  0  0
  189.0540  173.3620  136.3410 O   0  0  0  0  0  1  0  0  0  0  0  0
  187.6850  173.6110  136.2670 C   0  0  1  0  0  3  0  0  0  0  0  0
  184.9600  174.6440  137.3190 C   0  0  0  0  0  2  0  0  0  0  0  0
  184.9570  172.6510  138.6000 F   0  0  0  0  0  0  0  0  0  0  0  0
  185.1060  174.7760  134.5970 O   0  0  0  0  0  0  0  0  0  0  0  0
  185.6780  175.4190  135.8420 P   0  0  1  0  0  0  0  0  0  0  0  0
  1  8  1  0  0  0  0
  1 16  2  0  0  0  0
  2 19  1  0  0  0  0
  3 11  1  0  0  0  0
  3 22  2  0  0  0  0
  4 10  1  0  0  0  0
  5  4  2  0  0  0  0
  6 17  2  0  0  0  0
  6 18  1  0  0  0  0
  7 17  1  0  0  0  0
  9  2  1  0  0  0  0
 11  7  2  0  0  0  0
 12 10  2  0  0  0  0
 12 11  1  0  0  0  0
 13 32  1  0  0  0  0
 13 21  1  1  0  0  0
 13 23  1  0  0  0  0
 14  1  1  0  0  0  0
 15 18  1  1  0  0  0
 15 14  1  0  0  0  0
 15 19  1  0  0  0  0
 17  9  1  0  0  0  0
 19  8  2  0  0  0  0
 20  5  1  0  0  0  0
 20 21  2  0  0  0  0
 21 12  1  0  0  0  0
 22  6  1  0  0  0  0
 23  3  1  0  0  0  0
 24 25  1  0  0  0  0
 24 30  1  1  0  0  0
 26 28  1  0  0  0  0
 28 27  1  1  0  0  0
 28 25  1  0  0  0  0
 29 24  1  0  0  0  0
 32 31  2  6  0  0  0
 32 26  1  0  0  0  0
 32 29  1  0  0  0  0
M  END
>  <MODEL>
9

>  <REMARK>
 VINA RESULT:      -7.1      2.839      4.180
  Name = 
  1 active torsions:
  status: ('A' for Active; 'I' for Inactive)
    1  A    between atoms: C_16  and  P_32
                            x       y       z     vdW  Elec       q    Type
                         _______ _______ _______ _____ _____    ______ ____

>  <TORSDO>
F 1

$$$$
