=
 OpenBabel11052412523D

 25 28  0  0  1  0  0  0  0  0999 V2000
  187.8500  177.7180  145.4990 C   0  0  0  0  0  0  0  0  0  0  0  0
  187.0440  177.9280  144.3740 C   0  0  0  0  0  0  0  0  0  0  0  0
  186.1240  178.4960  146.9700 C   0  0  0  0  0  3  0  0  0  0  0  0
  189.2100  177.2240  145.6160 C   0  0  0  0  0  0  0  0  0  0  0  0
  187.2930  178.6700  141.9840 C   0  0  2  0  0  3  0  0  0  0  0  0
  191.7310  176.3600  146.3910 C   0  0  0  0  0  3  0  0  0  0  0  0
  185.3260  178.6970  145.8850 N   0  0  0  0  0  0  0  0  0  0  0  0
  189.5540  177.2120  146.9550 C   0  0  0  0  0  0  0  0  0  0  0  0
  190.8150  176.7830  147.3690 C   0  0  0  0  0  3  0  0  0  0  0  0
  184.7790  178.7600  143.4650 C   0  0  2  0  0  3  0  0  0  0  0  0
  183.3230  178.6350  143.8830 C   0  0  0  0  0  1  0  0  0  0  0  0
  187.5750  177.5760  143.0100 C   0  0  0  0  0  2  0  0  0  0  0  0
  191.3780  176.3750  145.0280 C   0  0  0  0  0  3  0  0  0  0  0  0
  187.4030  177.9950  146.7740 C   0  0  2  0  0  3  0  0  0  0  0  0
  188.4340  177.7020  147.8200 C   0  0  0  0  0  3  0  0  0  0  0  0
  185.0000  177.9440  142.3500 O   0  0  0  0  0  0  0  0  0  0  0  0
  190.1050  176.8100  144.6280 C   0  0  0  0  0  3  0  0  0  0  0  0
  185.8390  178.6740  141.4950 C   0  0  0  0  0  2  0  0  0  0  0  0
  185.7210  178.4130  144.6040 C   0  0  0  0  0  0  0  0  0  0  0  0
  188.2970  178.6870  140.8230 C   0  0  0  0  0  2  0  0  0  0  0  0
  188.2150  177.2330  138.8900 F   0  0  0  0  0  0  0  0  0  0  0  0
  188.6450  177.3260  140.2020 C   0  0  1  0  0  3  0  0  0  0  0  0
  190.0900  176.9720  140.3280 C   0  0  0  0  0  0  0  0  0  0  0  0
  190.6690  176.0620  139.4510 O   0  0  0  0  0  0  0  0  0  0  0  0
  190.7950  177.5190  141.2160 O   0  0  0  0  0  1  0  0  0  0  0  0
  1  4  2  0  0  0  0
  1 14  1  0  0  0  0
  2 19  2  0  0  0  0
  2  1  1  0  0  0  0
  4  8  1  0  0  0  0
  5 20  1  6  0  0  0
  5 12  1  0  0  0  0
  6  9  2  0  0  0  0
  7  3  2  0  0  0  0
  8  9  1  0  0  0  0
  8 15  2  0  0  0  0
 10 11  1  1  0  0  0
 10 19  1  0  0  0  0
 12  2  1  0  0  0  0
 13  6  1  0  0  0  0
 14  3  1  6  0  0  0
 14 15  1  0  0  0  0
 16 10  1  0  0  0  0
 17 13  2  0  0  0  0
 17  4  1  0  0  0  0
 18  5  1  0  0  0  0
 18 16  1  0  0  0  0
 19  7  1  0  0  0  0
 22 21  1  6  0  0  0
 22 23  1  0  0  0  0
 22 20  1  0  0  0  0
 23 25  1  0  0  0  0
 24 23  2  0  0  0  0
M  END
>  <MODEL>
1

>  <REMARK>
 VINA RESULT:     -10.4      0.000      0.000
  Name = 
  3 active torsions:
  status: ('A' for Active; 'I' for Inactive)
    1  A    between atoms: C_2  and  C_25
    2  A    between atoms: C_6  and  C_15
    3  A    between atoms: C_15  and  C_25
                            x       y       z     vdW  Elec       q    Type
                         _______ _______ _______ _____ _____    ______ ____

>  <TORSDO>
F 3

$$$$
=
 OpenBabel11052412523D

 25 28  0  0  1  0  0  0  0  0999 V2000
  186.7210  178.1950  142.8640 C   0  0  0  0  0  0  0  0  0  0  0  0
  187.9770  177.8220  142.3690 C   0  0  0  0  0  0  0  0  0  0  0  0
  185.9700  178.8290  140.6770 C   0  0  0  0  0  3  0  0  0  0  0  0
  186.1860  178.1750  144.2140 C   0  0  2  0  0  3  0  0  0  0  0  0
  190.3830  177.8720  143.0970 C   0  0  2  0  0  3  0  0  0  0  0  0
  184.7000  178.3490  146.5510 C   0  0  0  0  0  3  0  0  0  0  0  0
  187.1840  178.4630  140.1820 N   0  0  0  0  0  0  0  0  0  0  0  0
  184.8900  178.6550  144.1730 C   0  0  0  0  0  0  0  0  0  0  0  0
  184.1240  178.7530  145.3350 C   0  0  0  0  0  3  0  0  0  0  0  0
  189.5250  177.6540  140.3150 C   0  0  2  0  0  3  0  0  0  0  0  0
  189.3690  177.2380  138.8620 C   0  0  0  0  0  1  0  0  0  0  0  0
  189.0030  177.2580  143.3150 C   0  0  0  0  0  2  0  0  0  0  0  0
  186.0200  177.8620  146.5880 C   0  0  0  0  0  3  0  0  0  0  0  0
  185.7340  178.6890  142.0370 C   0  0  0  0  0  0  0  0  0  0  0  0
  184.4790  179.0290  142.7820 C   0  0  0  0  0  3  0  0  0  0  0  0
  190.2180  176.6490  141.0000 O   0  0  0  0  0  0  0  0  0  0  0  0
  186.7780  177.7700  145.4110 C   0  0  0  0  0  3  0  0  0  0  0  0
  191.1040  177.3090  141.8660 C   0  0  0  0  0  2  0  0  0  0  0  0
  188.1840  177.9460  140.9630 C   0  0  0  0  0  0  0  0  0  0  0  0
  191.2660  177.8400  144.3520 C   0  0  0  0  0  2  0  0  0  0  0  0
  192.1280  175.6820  145.0280 F   0  0  0  0  0  0  0  0  0  0  0  0
  191.1240  176.6070  145.2560 C   0  0  1  0  0  3  0  0  0  0  0  0
  191.0160  176.9470  146.7060 C   0  0  0  0  0  0  0  0  0  0  0  0
  189.8120  177.3980  147.2340 O   0  0  0  0  0  0  0  0  0  0  0  0
  192.0130  176.7990  147.4610 O   0  0  0  0  0  1  0  0  0  0  0  0
  1  4  1  0  0  0  0
  2  1  1  0  0  0  0
  2 12  1  0  0  0  0
  3 14  1  0  0  0  0
  4 17  1  1  0  0  0
  5 12  1  0  0  0  0
  5 20  1  1  0  0  0
  6 13  1  0  0  0  0
  7  3  2  0  0  0  0
  7 19  1  0  0  0  0
  8  4  1  0  0  0  0
  8  9  1  0  0  0  0
  9  6  2  0  0  0  0
 10 11  1  6  0  0  0
 10 19  1  0  0  0  0
 10 16  1  0  0  0  0
 14 15  1  0  0  0  0
 14  1  2  0  0  0  0
 15  8  2  0  0  0  0
 16 18  1  0  0  0  0
 17 13  2  0  0  0  0
 18  5  1  0  0  0  0
 19  2  2  0  0  0  0
 20 22  1  0  0  0  0
 22 21  1  1  0  0  0
 22 23  1  0  0  0  0
 23 24  2  0  0  0  0
 23 25  1  0  0  0  0
M  END
>  <MODEL>
2

>  <REMARK>
 VINA RESULT:     -10.3      2.814      5.655
  Name = 
  3 active torsions:
  status: ('A' for Active; 'I' for Inactive)
    1  A    between atoms: C_2  and  C_25
    2  A    between atoms: C_6  and  C_15
    3  A    between atoms: C_15  and  C_25
                            x       y       z     vdW  Elec       q    Type
                         _______ _______ _______ _____ _____    ______ ____

>  <TORSDO>
F 3

$$$$
=
 OpenBabel11052412523D

 25 28  0  0  1  0  0  0  0  0999 V2000
  187.3420  177.9100  145.6910 C   0  0  0  0  0  0  0  0  0  0  0  0
  188.6840  177.5570  145.5000 C   0  0  0  0  0  0  0  0  0  0  0  0
  187.5280  177.6080  148.0630 C   0  0  0  0  0  3  0  0  0  0  0  0
  186.3120  178.2870  144.7400 C   0  0  2  0  0  3  0  0  0  0  0  0
  190.0910  176.3330  143.8140 C   0  0  2  0  0  3  0  0  0  0  0  0
  184.0170  179.0460  143.3790 C   0  0  0  0  0  3  0  0  0  0  0  0
  188.8360  177.2710  147.8920 N   0  0  0  0  0  0  0  0  0  0  0  0
  185.1450  178.5340  145.4390 C   0  0  0  0  0  0  0  0  0  0  0  0
  183.9780  178.9160  144.7770 C   0  0  0  0  0  3  0  0  0  0  0  0
  190.8880  176.7790  146.5870 C   0  0  2  0  0  3  0  0  0  0  0  0
  191.6630  177.1220  147.8480 C   0  0  0  0  0  1  0  0  0  0  0  0
  189.2600  177.5780  144.1090 C   0  0  0  0  0  2  0  0  0  0  0  0
  185.2060  178.7930  142.6700 C   0  0  0  0  0  3  0  0  0  0  0  0
  186.7720  177.9370  146.9470 C   0  0  0  0  0  0  0  0  0  0  0  0
  185.3270  178.3340  146.9120 C   0  0  0  0  0  3  0  0  0  0  0  0
  191.5510  177.3310  145.4850 O   0  0  0  0  0  0  0  0  0  0  0  0
  186.3710  178.4090  143.3510 C   0  0  0  0  0  3  0  0  0  0  0  0
  191.4790  176.3690  144.4660 C   0  0  0  0  0  2  0  0  0  0  0  0
  189.4490  177.2550  146.6660 C   0  0  0  0  0  0  0  0  0  0  0  0
  190.1610  175.9900  142.3190 C   0  0  0  0  0  2  0  0  0  0  0  0
  191.8220  177.4970  141.4100 F   0  0  0  0  0  0  0  0  0  0  0  0
  190.4830  177.1510  141.3670 C   0  0  1  0  0  3  0  0  0  0  0  0
  190.0280  176.9090  139.9660 C   0  0  0  0  0  0  0  0  0  0  0  0
  190.6450  175.9390  139.1840 O   0  0  0  0  0  0  0  0  0  0  0  0
  189.0620  177.5670  139.4970 O   0  0  0  0  0  1  0  0  0  0  0  0
  1 14  1  0  0  0  0
  2  1  2  0  0  0  0
  2 19  1  0  0  0  0
  4 17  1  6  0  0  0
  4  8  1  0  0  0  0
  4  1  1  0  0  0  0
  5 20  1  6  0  0  0
  5 12  1  0  0  0  0
  5 18  1  0  0  0  0
  6  9  2  0  0  0  0
  7  3  1  0  0  0  0
  8 15  2  0  0  0  0
  9  8  1  0  0  0  0
 10 19  1  0  0  0  0
 10 11  1  1  0  0  0
 12  2  1  0  0  0  0
 13 17  2  0  0  0  0
 13  6  1  0  0  0  0
 14  3  2  0  0  0  0
 15 14  1  0  0  0  0
 16 10  1  0  0  0  0
 18 16  1  0  0  0  0
 19  7  2  0  0  0  0
 22 21  1  6  0  0  0
 22 20  1  0  0  0  0
 23 22  1  0  0  0  0
 24 23  2  0  0  0  0
 25 23  1  0  0  0  0
M  END
>  <MODEL>
3

>  <REMARK>
 VINA RESULT:     -10.2      1.929      4.876
  Name = 
  3 active torsions:
  status: ('A' for Active; 'I' for Inactive)
    1  A    between atoms: C_2  and  C_25
    2  A    between atoms: C_6  and  C_15
    3  A    between atoms: C_15  and  C_25
                            x       y       z     vdW  Elec       q    Type
                         _______ _______ _______ _____ _____    ______ ____

>  <TORSDO>
F 3

$$$$
=
 OpenBabel11052412523D

 25 28  0  0  1  0  0  0  0  0999 V2000
  186.0300  178.2130  144.9190 C   0  0  0  0  0  0  0  0  0  0  0  0
  185.7660  178.2340  143.5440 C   0  0  0  0  0  0  0  0  0  0  0  0
  183.8240  179.0030  145.4270 C   0  0  0  0  0  3  0  0  0  0  0  0
  187.2280  177.8450  145.6520 C   0  0  0  0  0  0  0  0  0  0  0  0
  186.9760  178.7320  141.3970 C   0  0  2  0  0  3  0  0  0  0  0  0
  189.2120  177.2760  147.5060 C   0  0  0  0  0  3  0  0  0  0  0  0
  183.5510  179.0210  144.0930 N   0  0  0  0  0  0  0  0  0  0  0  0
  186.9770  178.0050  147.0020 C   0  0  0  0  0  0  0  0  0  0  0  0
  187.9590  177.7260  147.9530 C   0  0  0  0  0  3  0  0  0  0  0  0
  184.0700  178.7780  141.6800 C   0  0  2  0  0  3  0  0  0  0  0  0
  182.5780  178.5820  141.4700 C   0  0  0  0  0  1  0  0  0  0  0  0
  186.8310  177.7820  142.5820 C   0  0  0  0  0  2  0  0  0  0  0  0
  189.4650  177.1150  146.1310 C   0  0  0  0  0  3  0  0  0  0  0  0
  185.0800  178.5880  145.8460 C   0  0  2  0  0  3  0  0  0  0  0  0
  185.5840  178.4940  147.2540 C   0  0  0  0  0  3  0  0  0  0  0  0
  184.7620  177.8670  140.8730 O   0  0  0  0  0  0  0  0  0  0  0  0
  188.4670  177.4010  145.1870 C   0  0  0  0  0  3  0  0  0  0  0  0
  185.8630  178.5660  140.3540 C   0  0  0  0  0  2  0  0  0  0  0  0
  184.4560  178.6330  143.1400 C   0  0  0  0  0  0  0  0  0  0  0  0
  188.3730  178.7040  140.7630 C   0  0  0  0  0  2  0  0  0  0  0  0
  188.9760  177.2350  138.9370 F   0  0  0  0  0  0  0  0  0  0  0  0
  188.8920  177.3300  140.3150 C   0  0  1  0  0  3  0  0  0  0  0  0
  190.1790  176.9440  140.9670 C   0  0  0  0  0  0  0  0  0  0  0  0
  190.1950  175.9940  141.9820 O   0  0  0  0  0  1  0  0  0  0  0  0
  191.2590  177.4600  140.5780 O   0  0  0  0  0  0  0  0  0  0  0  0
  1  4  2  0  0  0  0
  1 14  1  0  0  0  0
  2  1  1  0  0  0  0
  4  8  1  0  0  0  0
  5 20  1  6  0  0  0
  5 12  1  0  0  0  0
  6  9  2  0  0  0  0
  7  3  2  0  0  0  0
  8 15  2  0  0  0  0
  8  9  1  0  0  0  0
 10 11  1  1  0  0  0
 10 19  1  0  0  0  0
 12  2  1  0  0  0  0
 13  6  1  0  0  0  0
 14  3  1  6  0  0  0
 14 15  1  0  0  0  0
 16 10  1  0  0  0  0
 17  4  1  0  0  0  0
 17 13  2  0  0  0  0
 18 16  1  0  0  0  0
 18  5  1  0  0  0  0
 19  2  2  0  0  0  0
 19  7  1  0  0  0  0
 22 21  1  6  0  0  0
 22 20  1  0  0  0  0
 22 23  1  0  0  0  0
 23 24  1  0  0  0  0
 25 23  2  0  0  0  0
M  END
>  <MODEL>
4

>  <REMARK>
 VINA RESULT:     -10.0      1.250      2.015
  Name = 
  3 active torsions:
  status: ('A' for Active; 'I' for Inactive)
    1  A    between atoms: C_2  and  C_25
    2  A    between atoms: C_6  and  C_15
    3  A    between atoms: C_15  and  C_25
                            x       y       z     vdW  Elec       q    Type
                         _______ _______ _______ _____ _____    ______ ____

>  <TORSDO>
F 3

$$$$
=
 OpenBabel11052412523D

 25 28  0  0  1  0  0  0  0  0999 V2000
  186.8630  178.1200  142.9500 C   0  0  0  0  0  0  0  0  0  0  0  0
  188.1740  177.6280  142.9300 C   0  0  0  0  0  0  0  0  0  0  0  0
  186.9070  178.5360  140.5890 C   0  0  0  0  0  3  0  0  0  0  0  0
  185.9250  178.2840  144.0460 C   0  0  2  0  0  3  0  0  0  0  0  0
  190.2170  177.6380  144.3960 C   0  0  2  0  0  3  0  0  0  0  0  0
  183.7920  178.8030  145.7430 C   0  0  0  0  0  3  0  0  0  0  0  0
  188.1800  178.0530  140.5540 N   0  0  0  0  0  0  0  0  0  0  0  0
  184.7570  178.8230  143.5410 C   0  0  0  0  0  0  0  0  0  0  0  0
  183.6710  179.0930  144.3740 C   0  0  0  0  0  3  0  0  0  0  0  0
  190.2770  177.1440  141.5190 C   0  0  2  0  0  3  0  0  0  0  0  0
  190.5580  176.5720  140.1400 C   0  0  0  0  0  1  0  0  0  0  0  0
  188.7920  177.1240  144.2070 C   0  0  0  0  0  2  0  0  0  0  0  0
  184.9830  178.2550  146.2550 C   0  0  0  0  0  3  0  0  0  0  0  0
  186.2380  178.5660  141.8050 C   0  0  0  0  0  0  0  0  0  0  0  0
  184.8450  179.0540  142.0630 C   0  0  0  0  0  3  0  0  0  0  0  0
  190.6250  176.1900  142.4830 O   0  0  0  0  0  0  0  0  0  0  0  0
  186.0670  177.9900  145.4030 C   0  0  0  0  0  3  0  0  0  0  0  0
  191.2410  176.8990  143.5250 C   0  0  0  0  0  2  0  0  0  0  0  0
  188.8290  177.5780  141.6630 C   0  0  0  0  0  0  0  0  0  0  0  0
  190.6470  177.7050  145.8680 C   0  0  0  0  0  2  0  0  0  0  0  0
  190.9220  175.8640  147.4140 F   0  0  0  0  0  0  0  0  0  0  0  0
  189.9890  176.6940  146.8180 C   0  0  1  0  0  3  0  0  0  0  0  0
  189.1000  177.3310  147.8350 C   0  0  0  0  0  0  0  0  0  0  0  0
  189.5080  178.4780  148.5060 O   0  0  0  0  0  1  0  0  0  0  0  0
  187.9630  176.8430  148.0670 O   0  0  0  0  0  0  0  0  0  0  0  0
  1  4  1  0  0  0  0
  2  1  1  0  0  0  0
  2 12  1  0  0  0  0
  3 14  1  0  0  0  0
  4 17  1  1  0  0  0
  5 20  1  1  0  0  0
  6 13  1  0  0  0  0
  7  3  2  0  0  0  0
  7 19  1  0  0  0  0
  8  4  1  0  0  0  0
  8  9  1  0  0  0  0
  9  6  2  0  0  0  0
 10 11  1  6  0  0  0
 10 19  1  0  0  0  0
 10 16  1  0  0  0  0
 12  5  1  0  0  0  0
 14 15  1  0  0  0  0
 14  1  2  0  0  0  0
 15  8  2  0  0  0  0
 16 18  1  0  0  0  0
 17 13  2  0  0  0  0
 18  5  1  0  0  0  0
 19  2  2  0  0  0  0
 20 22  1  0  0  0  0
 22 21  1  1  0  0  0
 22 23  1  0  0  0  0
 23 25  2  0  0  0  0
 23 24  1  0  0  0  0
M  END
>  <MODEL>
5

>  <REMARK>
 VINA RESULT:      -9.8      3.135      6.299
  Name = 
  3 active torsions:
  status: ('A' for Active; 'I' for Inactive)
    1  A    between atoms: C_2  and  C_25
    2  A    between atoms: C_6  and  C_15
    3  A    between atoms: C_15  and  C_25
                            x       y       z     vdW  Elec       q    Type
                         _______ _______ _______ _____ _____    ______ ____

>  <TORSDO>
F 3

$$$$
=
 OpenBabel11052412523D

 25 28  0  0  1  0  0  0  0  0999 V2000
  186.9620  177.9080  144.5930 C   0  0  0  0  0  0  0  0  0  0  0  0
  188.2540  177.7130  144.0870 C   0  0  0  0  0  0  0  0  0  0  0  0
  187.6600  177.2950  146.8040 C   0  0  0  0  0  3  0  0  0  0  0  0
  185.7340  178.3160  143.9350 C   0  0  2  0  0  3  0  0  0  0  0  0
  189.3510  176.8750  141.9860 C   0  0  2  0  0  3  0  0  0  0  0  0
  183.1610  179.0390  143.1910 C   0  0  0  0  0  3  0  0  0  0  0  0
  188.9220  177.1090  146.3270 N   0  0  0  0  0  0  0  0  0  0  0  0
  184.7260  178.3510  144.8810 C   0  0  0  0  0  0  0  0  0  0  0  0
  183.4250  178.7110  144.5310 C   0  0  0  0  0  3  0  0  0  0  0  0
  190.6810  177.0000  144.5810 C   0  0  2  0  0  3  0  0  0  0  0  0
  191.6810  177.2340  145.7020 C   0  0  0  0  0  1  0  0  0  0  0  0
  188.5230  177.9820  142.6310 C   0  0  0  0  0  2  0  0  0  0  0  0
  184.1890  179.0020  142.2300 C   0  0  0  0  0  3  0  0  0  0  0  0
  186.6670  177.7040  145.9250 C   0  0  0  0  0  0  0  0  0  0  0  0
  185.2260  177.9650  146.2390 C   0  0  0  0  0  3  0  0  0  0  0  0
  191.0630  177.7620  143.4700 O   0  0  0  0  0  0  0  0  0  0  0  0
  185.4930  178.6360  142.5990 C   0  0  0  0  0  3  0  0  0  0  0  0
  190.8390  176.9490  142.3480 C   0  0  0  0  0  2  0  0  0  0  0  0
  189.2640  177.3230  145.0170 C   0  0  0  0  0  0  0  0  0  0  0  0
  189.1270  176.7530  140.4720 C   0  0  0  0  0  2  0  0  0  0  0  0
  189.8080  178.5550  139.0070 F   0  0  0  0  0  0  0  0  0  0  0  0
  188.7460  178.0440  139.7320 C   0  0  1  0  0  3  0  0  0  0  0  0
  187.5260  177.9000  138.8840 C   0  0  0  0  0  0  0  0  0  0  0  0
  186.3780  178.6280  139.1750 O   0  0  0  0  0  1  0  0  0  0  0  0
  187.5440  177.1360  137.8840 O   0  0  0  0  0  0  0  0  0  0  0  0
  1 14  1  0  0  0  0
  2  1  2  0  0  0  0
  2 19  1  0  0  0  0
  4 17  1  6  0  0  0
  4  1  1  0  0  0  0
  4  8  1  0  0  0  0
  5 20  1  6  0  0  0
  5 18  1  0  0  0  0
  5 12  1  0  0  0  0
  6  9  2  0  0  0  0
  7  3  1  0  0  0  0
  8 15  2  0  0  0  0
  9  8  1  0  0  0  0
 10 19  1  0  0  0  0
 10 11  1  1  0  0  0
 12  2  1  0  0  0  0
 13 17  2  0  0  0  0
 13  6  1  0  0  0  0
 14 15  1  0  0  0  0
 14  3  2  0  0  0  0
 16 10  1  0  0  0  0
 18 16  1  0  0  0  0
 19  7  2  0  0  0  0
 22 21  1  6  0  0  0
 22 20  1  0  0  0  0
 23 24  1  0  0  0  0
 23 22  1  0  0  0  0
 25 23  2  0  0  0  0
M  END
>  <MODEL>
6

>  <REMARK>
 VINA RESULT:      -9.3      1.764      4.915
  Name = 
  3 active torsions:
  status: ('A' for Active; 'I' for Inactive)
    1  A    between atoms: C_2  and  C_25
    2  A    between atoms: C_6  and  C_15
    3  A    between atoms: C_15  and  C_25
                            x       y       z     vdW  Elec       q    Type
                         _______ _______ _______ _____ _____    ______ ____

>  <TORSDO>
F 3

$$$$
=
 OpenBabel11052412523D

 25 28  0  0  1  0  0  0  0  0999 V2000
  185.2740  178.4000  144.5990 C   0  0  0  0  0  0  0  0  0  0  0  0
  186.5880  178.1030  144.9810 C   0  0  0  0  0  0  0  0  0  0  0  0
  184.5630  178.5260  146.8860 C   0  0  0  0  0  3  0  0  0  0  0  0
  184.6740  178.5420  143.2850 C   0  0  0  0  0  0  0  0  0  0  0  0
  188.5120  176.6940  144.1850 C   0  0  2  0  0  3  0  0  0  0  0  0
  183.0550  178.9120  141.0620 C   0  0  0  0  0  3  0  0  0  0  0  0
  185.8380  178.2450  147.2710 N   0  0  0  0  0  0  0  0  0  0  0  0
  183.3330  178.8350  143.4490 C   0  0  0  0  0  0  0  0  0  0  0  0
  182.4990  179.0230  142.3470 C   0  0  0  0  0  2  0  0  0  0  0  0
  188.2240  177.6620  146.9240 C   0  0  2  0  0  3  0  0  0  0  0  0
  188.4780  178.2650  148.2950 C   0  0  0  0  0  1  0  0  0  0  0  0
  187.6400  177.9180  143.9200 C   0  0  0  0  0  2  0  0  0  0  0  0
  184.4210  178.6130  140.8980 C   0  0  0  0  0  3  0  0  0  0  0  0
  184.2780  178.6090  145.5300 C   0  0  0  0  0  0  0  0  0  0  0  0
  182.9530  178.9050  144.8960 C   0  0  0  0  0  3  0  0  0  0  0  0
  189.2540  178.0550  146.0610 O   0  0  0  0  0  0  0  0  0  0  0  0
  185.2460  178.4250  142.0170 C   0  0  0  0  0  3  0  0  0  0  0  0
  189.5580  176.9280  145.2820 C   0  0  0  0  0  2  0  0  0  0  0  0
  186.8620  178.0550  146.3810 C   0  0  0  0  0  0  0  0  0  0  0  0
  189.1300  176.1020  142.9100 C   0  0  0  0  0  2  0  0  0  0  0  0
  191.2980  175.0630  143.1850 F   0  0  0  0  0  0  0  0  0  0  0  0
  190.6550  176.2170  142.7740 C   0  0  1  0  0  3  0  0  0  0  0  0
  191.0960  176.6290  141.4080 C   0  0  0  0  0  0  0  0  0  0  0  0
  192.1260  177.5500  141.2510 O   0  0  0  0  0  1  0  0  0  0  0  0
  190.5520  176.1210  140.3930 O   0  0  0  0  0  0  0  0  0  0  0  0
  1  2  2  0  0  0  0
  1 14  1  0  0  0  0
  2 19  1  0  0  0  0
  3  7  1  0  0  0  0
  4  8  1  0  0  0  0
  4  1  1  0  0  0  0
  5 20  1  6  0  0  0
  5 18  1  0  0  0  0
  6  9  1  0  0  0  0
  8 15  2  0  0  0  0
  9  8  1  0  0  0  0
 10 11  1  1  0  0  0
 12  5  1  0  0  0  0
 12  2  1  0  0  0  0
 13  6  2  0  0  0  0
 13 17  1  0  0  0  0
 14  3  2  0  0  0  0
 15 14  1  0  0  0  0
 16 10  1  0  0  0  0
 17  4  2  0  0  0  0
 18 16  1  0  0  0  0
 19 10  1  0  0  0  0
 19  7  2  0  0  0  0
 22 20  1  0  0  0  0
 22 21  1  6  0  0  0
 23 22  1  0  0  0  0
 24 23  1  0  0  0  0
 25 23  2  0  0  0  0
M  END
>  <MODEL>
7

>  <REMARK>
 VINA RESULT:      -9.2      2.194      5.209
  Name = 
  3 active torsions:
  status: ('A' for Active; 'I' for Inactive)
    1  A    between atoms: C_2  and  C_25
    2  A    between atoms: C_6  and  C_15
    3  A    between atoms: C_15  and  C_25
                            x       y       z     vdW  Elec       q    Type
                         _______ _______ _______ _____ _____    ______ ____

>  <TORSDO>
F 3

$$$$
=
 OpenBabel11052412523D

 25 28  0  0  1  0  0  0  0  0999 V2000
  189.4020  177.5160  143.6880 C   0  0  0  0  0  0  0  0  0  0  0  0
  188.3470  177.6430  144.6010 C   0  0  0  0  0  0  0  0  0  0  0  0
  191.0100  177.3650  145.4610 C   0  0  0  0  0  3  0  0  0  0  0  0
  189.4080  177.5070  142.2370 C   0  0  0  0  0  0  0  0  0  0  0  0
  186.1540  178.8580  144.7940 C   0  0  2  0  0  3  0  0  0  0  0  0
  189.9770  177.4310  139.5220 C   0  0  0  0  0  3  0  0  0  0  0  0
  189.9930  177.4800  146.3590 N   0  0  0  0  0  0  0  0  0  0  0  0
  190.7150  177.3630  141.8090 C   0  0  0  0  0  0  0  0  0  0  0  0
  191.0260  177.3230  140.4500 C   0  0  0  0  0  2  0  0  0  0  0  0
  187.6390  177.8010  147.0750 C   0  0  2  0  0  3  0  0  0  0  0  0
  188.0330  177.1080  148.3690 C   0  0  0  0  0  1  0  0  0  0  0  0
  186.9370  177.7560  144.0860 C   0  0  0  0  0  2  0  0  0  0  0  0
  188.6470  177.5780  139.9610 C   0  0  0  0  0  3  0  0  0  0  0  0
  190.7090  177.3800  144.1060 C   0  0  0  0  0  0  0  0  0  0  0  0
  191.6680  177.2690  142.9610 C   0  0  0  0  0  3  0  0  0  0  0  0
  186.3810  177.3330  146.6780 O   0  0  0  0  0  0  0  0  0  0  0  0
  188.3510  177.6170  141.3320 C   0  0  0  0  0  3  0  0  0  0  0  0
  185.6850  178.4540  146.1980 C   0  0  0  0  0  2  0  0  0  0  0  0
  188.6780  177.5930  145.9880 C   0  0  0  0  0  0  0  0  0  0  0  0
  185.0130  179.4340  143.9450 C   0  0  0  0  0  2  0  0  0  0  0  0
  182.8280  178.4650  143.5660 F   0  0  0  0  0  0  0  0  0  0  0  0
  184.1540  178.4190  143.1760 C   0  0  1  0  0  3  0  0  0  0  0  0
  184.2900  178.5330  141.6930 C   0  0  0  0  0  0  0  0  0  0  0  0
  185.1590  179.4640  141.1370 O   0  0  0  0  0  1  0  0  0  0  0  0
  183.6350  177.7640  140.9420 O   0  0  0  0  0  0  0  0  0  0  0  0
  1 14  1  0  0  0  0
  1  2  2  0  0  0  0
  2 19  1  0  0  0  0
  3  7  1  0  0  0  0
  4  1  1  0  0  0  0
  5 20  1  6  0  0  0
  5 18  1  0  0  0  0
  6 13  2  0  0  0  0
  6  9  1  0  0  0  0
  8  4  1  0  0  0  0
  8 15  2  0  0  0  0
  9  8  1  0  0  0  0
 10 11  1  1  0  0  0
 12  2  1  0  0  0  0
 12  5  1  0  0  0  0
 13 17  1  0  0  0  0
 14  3  2  0  0  0  0
 15 14  1  0  0  0  0
 16 10  1  0  0  0  0
 17  4  2  0  0  0  0
 18 16  1  0  0  0  0
 19  7  2  0  0  0  0
 19 10  1  0  0  0  0
 22 21  1  6  0  0  0
 22 20  1  0  0  0  0
 23 22  1  0  0  0  0
 24 23  1  0  0  0  0
 25 23  2  0  0  0  0
M  END
>  <MODEL>
8

>  <REMARK>
 VINA RESULT:      -9.2      2.723      5.174
  Name = 
  3 active torsions:
  status: ('A' for Active; 'I' for Inactive)
    1  A    between atoms: C_2  and  C_25
    2  A    between atoms: C_6  and  C_15
    3  A    between atoms: C_15  and  C_25
                            x       y       z     vdW  Elec       q    Type
                         _______ _______ _______ _____ _____    ______ ____

>  <TORSDO>
F 3

$$$$
=
 OpenBabel11052412523D

 25 28  0  0  1  0  0  0  0  0999 V2000
  189.5740  177.3400  143.8870 C   0  0  0  0  0  0  0  0  0  0  0  0
  188.7820  177.7770  142.8180 C   0  0  0  0  0  0  0  0  0  0  0  0
  191.2440  176.4870  142.3930 C   0  0  0  0  0  3  0  0  0  0  0  0
  189.3610  177.4150  145.3220 C   0  0  2  0  0  3  0  0  0  0  0  0
  186.3440  177.9760  142.2330 C   0  0  2  0  0  3  0  0  0  0  0  0
  189.4520  177.2920  148.0920 C   0  0  0  0  0  3  0  0  0  0  0  0
  190.4870  176.9140  141.3450 N   0  0  0  0  0  0  0  0  0  0  0  0
  190.4440  176.8290  145.9520 C   0  0  0  0  0  0  0  0  0  0  0  0
  190.5110  176.7550  147.3430 C   0  0  0  0  0  3  0  0  0  0  0  0
  188.4950  177.9190  140.2600 C   0  0  2  0  0  3  0  0  0  0  0  0
  189.4000  178.2130  139.0760 C   0  0  0  0  0  1  0  0  0  0  0  0
  187.4870  178.4900  143.1040 C   0  0  0  0  0  2  0  0  0  0  0  0
  188.3510  177.8870  147.4480 C   0  0  0  0  0  3  0  0  0  0  0  0
  190.7820  176.7080  143.6830 C   0  0  0  0  0  0  0  0  0  0  0  0
  191.4520  176.3230  144.9670 C   0  0  0  0  0  3  0  0  0  0  0  0
  187.6650  179.0250  140.4790 O   0  0  0  0  0  0  0  0  0  0  0  0
  188.2980  177.9530  146.0470 C   0  0  0  0  0  3  0  0  0  0  0  0
  186.4010  178.5040  140.7940 C   0  0  0  0  0  2  0  0  0  0  0  0
  189.2930  177.5670  141.5020 C   0  0  0  0  0  0  0  0  0  0  0  0
  184.9610  178.1720  142.8690 C   0  0  0  0  0  2  0  0  0  0  0  0
  184.9310  180.4810  143.5930 F   0  0  0  0  0  0  0  0  0  0  0  0
  184.8800  179.1700  144.0330 C   0  0  1  0  0  3  0  0  0  0  0  0
  183.7060  178.9410  144.9270 C   0  0  0  0  0  0  0  0  0  0  0  0
  182.4350  178.7770  144.3900 O   0  0  0  0  0  0  0  0  0  0  0  0
  183.8710  178.8690  146.1730 O   0  0  0  0  0  1  0  0  0  0  0  0
  1  4  1  0  0  0  0
  2 12  1  0  0  0  0
  2  1  1  0  0  0  0
  3 14  1  0  0  0  0
  4  8  1  0  0  0  0
  4 17  1  6  0  0  0
  5 20  1  1  0  0  0
  5 12  1  0  0  0  0
  7 19  1  0  0  0  0
  7  3  2  0  0  0  0
  8  9  1  0  0  0  0
  9  6  2  0  0  0  0
 10 11  1  6  0  0  0
 10 16  1  0  0  0  0
 10 19  1  0  0  0  0
 13  6  1  0  0  0  0
 14  1  2  0  0  0  0
 14 15  1  0  0  0  0
 15  8  2  0  0  0  0
 16 18  1  0  0  0  0
 17 13  2  0  0  0  0
 18  5  1  0  0  0  0
 19  2  2  0  0  0  0
 20 22  1  0  0  0  0
 22 21  1  6  0  0  0
 22 23  1  0  0  0  0
 23 25  1  0  0  0  0
 24 23  2  0  0  0  0
M  END
>  <MODEL>
9

>  <REMARK>
 VINA RESULT:      -9.1      2.541      5.074
  Name = 
  3 active torsions:
  status: ('A' for Active; 'I' for Inactive)
    1  A    between atoms: C_2  and  C_25
    2  A    between atoms: C_6  and  C_15
    3  A    between atoms: C_15  and  C_25
                            x       y       z     vdW  Elec       q    Type
                         _______ _______ _______ _____ _____    ______ ____

>  <TORSDO>
F 3

$$$$
