=
 OpenBabel11052412173D

 30 36  0  0  1  0  0  0  0  0999 V2000
  186.8180  178.4970  142.1710 C   0  0  2  0  0  3  0  0  0  0  0  0
  188.3330  177.9110  140.1300 C   0  0  0  0  0  0  0  0  0  0  0  0
  191.2090  177.0100  143.9660 N   0  0  0  0  0  2  0  0  0  0  0  0
  186.7210  177.7380  143.4900 C   0  0  2  0  0  3  0  0  0  0  0  0
  185.4420  178.5700  141.6010 C   0  0  0  0  0  3  0  0  0  0  0  0
  183.2220  178.7470  144.8130 S   0  0  0  0  0  0  0  0  0  0  0  0
  187.0030  177.2150  146.4660 C   0  0  1  0  0  3  0  0  0  0  0  0
  184.7330  179.2730  143.9190 C   0  0  2  0  0  3  0  0  0  0  0  0
  183.1100  178.8940  142.0870 N   0  0  0  0  0  2  0  0  0  0  0  0
  188.4960  177.3250  146.1730 C   0  0  2  0  0  3  0  0  0  0  0  0
  190.4060  177.9830  144.6610 C   0  0  0  0  0  0  0  0  0  0  0  0
  184.4770  178.9650  142.4470 C   0  0  0  0  0  0  0  0  0  0  0  0
  186.0840  178.7140  144.4810 C   0  0  1  0  0  3  0  0  0  0  0  0
  189.5150  177.3250  139.7700 N   0  0  0  0  0  0  0  0  0  0  0  0
  189.0120  178.0370  147.3750 C   0  0  0  0  0  2  0  0  0  0  0  0
  186.8710  177.0610  147.8600 O   0  0  0  0  0  0  0  0  0  0  0  0
  181.0750  179.0150  143.2280 O   0  0  0  0  0  0  0  0  0  0  0  0
  187.5810  178.6510  139.1750 N   0  0  0  0  0  1  0  0  0  0  0  0
  190.7330  175.9560  143.0760 C   0  0  0  0  0  2  0  0  0  0  0  0
  190.2970  176.6600  140.6740 C   0  0  0  0  0  3  0  0  0  0  0  0
  182.3250  178.8900  143.2680 C   0  0  0  0  0  0  0  0  0  0  0  0
  187.8990  177.7900  141.4530 C   0  0  0  0  0  0  0  0  0  0  0  0
  188.1080  177.1420  143.7410 C   0  0  2  0  0  3  0  0  0  0  0  0
  190.9970  178.9500  145.2080 O   0  0  0  0  0  0  0  0  0  0  0  0
  188.8920  177.9130  144.8140 C   0  0  1  0  0  3  0  0  0  0  0  0
  188.0620  177.5480  148.4490 C   0  0  0  0  0  2  0  0  0  0  0  0
  186.2820  179.6530  146.7830 C   0  0  0  0  0  1  0  0  0  0  0  0
  189.8860  176.5570  142.0110 C   0  0  0  0  0  0  0  0  0  0  0  0
  188.6880  177.1440  142.3730 C   0  0  0  0  0  0  0  0  0  0  0  0
  186.0890  178.3750  145.9820 C   0  0  2  0  0  3  0  0  0  0  0  0
  1  5  1  6  0  0  0
  1  4  1  0  0  0  0
  2 22  1  0  0  0  0
  3 11  1  0  0  0  0
  4 23  1  0  0  0  0
  4 13  1  0  0  0  0
  5 12  2  0  0  0  0
  7 16  1  0  0  0  0
  8 13  1  0  0  0  0
  8  6  1  0  0  0  0
  9 12  1  0  0  0  0
  9 21  1  0  0  0  0
 10  7  1  0  0  0  0
 10 15  1  0  0  0  0
 11 25  1  0  0  0  0
 11 24  2  0  0  0  0
 12  8  1  0  0  0  0
 13 30  1  0  0  0  0
 14  2  2  0  0  0  0
 14 20  1  0  0  0  0
 15 26  1  0  0  0  0
 16 26  1  0  0  0  0
 17 21  2  0  0  0  0
 18  2  1  0  0  0  0
 19  3  1  0  0  0  0
 20 28  2  0  0  0  0
 21  6  1  0  0  0  0
 22  1  1  0  0  0  0
 22 29  2  0  0  0  0
 23 25  1  0  0  0  0
 25 10  1  0  0  0  0
 28 29  1  0  0  0  0
 28 19  1  0  0  0  0
 29 23  1  0  0  0  0
 30  7  1  0  0  0  0
 30 27  1  0  0  0  0
M  END
>  <MODEL>
1

>  <REMARK>
 VINA RESULT:     -10.8      0.000      0.000
  Name = 
  0 active torsions:
  status: ('A' for Active; 'I' for Inactive)
                            x       y       z     vdW  Elec       q    Type
                         _______ _______ _______ _____ _____    ______ ____

>  <TORSDO>
F 0

$$$$
=
 OpenBabel11052412173D

 30 36  0  0  1  0  0  0  0  0999 V2000
  187.8470  178.2180  145.6770 C   0  0  2  0  0  3  0  0  0  0  0  0
  185.4120  178.8410  146.3750 C   0  0  0  0  0  0  0  0  0  0  0  0
  185.1980  178.7460  141.5020 N   0  0  0  0  0  2  0  0  0  0  0  0
  188.2670  177.2740  144.5550 C   0  0  2  0  0  3  0  0  0  0  0  0
  188.4750  177.7190  146.9330 C   0  0  0  0  0  3  0  0  0  0  0  0
  191.8250  176.1840  145.6300 S   0  0  0  0  0  0  0  0  0  0  0  0
  189.4790  176.4040  141.9130 C   0  0  1  0  0  3  0  0  0  0  0  0
  190.5900  177.5360  145.5670 C   0  0  2  0  0  3  0  0  0  0  0  0
  190.4520  176.7690  147.9180 N   0  0  0  0  0  2  0  0  0  0  0  0
  188.3820  177.2790  141.3140 C   0  0  2  0  0  3  0  0  0  0  0  0
  186.6040  179.0550  141.5430 C   0  0  0  0  0  0  0  0  0  0  0  0
  189.7840  177.4270  146.8580 C   0  0  0  0  0  0  0  0  0  0  0  0
  189.7300  177.6100  144.2600 C   0  0  1  0  0  3  0  0  0  0  0  0
  184.1360  178.9840  145.9060 N   0  0  0  0  0  0  0  0  0  0  0  0
  189.0680  177.9110  140.1530 C   0  0  0  0  0  2  0  0  0  0  0  0
  190.2670  175.9450  140.8390 O   0  0  0  0  0  0  0  0  0  0  0  0
  192.4960  175.6670  148.1750 O   0  0  0  0  0  0  0  0  0  0  0  0
  185.7470  179.2860  147.6850 N   0  0  0  0  0  1  0  0  0  0  0  0
  184.4890  177.7850  142.3390 C   0  0  0  0  0  2  0  0  0  0  0  0
  183.7900  178.6260  144.6320 C   0  0  0  0  0  3  0  0  0  0  0  0
  191.6280  176.1610  147.4110 C   0  0  0  0  0  0  0  0  0  0  0  0
  186.3760  178.2770  145.5360 C   0  0  0  0  0  0  0  0  0  0  0  0
  187.1900  177.3940  143.4730 C   0  0  2  0  0  3  0  0  0  0  0  0
  187.0020  180.0640  140.9050 O   0  0  0  0  0  0  0  0  0  0  0  0
  187.6570  178.2300  142.2720 C   0  0  1  0  0  3  0  0  0  0  0  0
  190.0520  176.8290  139.7540 C   0  0  0  0  0  2  0  0  0  0  0  0
  191.3540  178.0730  142.4250 C   0  0  0  0  0  1  0  0  0  0  0  0
  184.7550  178.0860  143.7710 C   0  0  0  0  0  0  0  0  0  0  0  0
  186.0450  177.9360  144.2480 C   0  0  0  0  0  0  0  0  0  0  0  0
  190.3940  177.0400  142.9950 C   0  0  2  0  0  3  0  0  0  0  0  0
  1  5  1  1  0  0  0
  2 18  1  0  0  0  0
  3 11  1  0  0  0  0
  3 19  1  0  0  0  0
  4  1  1  0  0  0  0
  6 21  1  0  0  0  0
  7 30  1  0  0  0  0
  8  6  1  0  0  0  0
  8 12  1  0  0  0  0
 10  7  1  0  0  0  0
 10 25  1  0  0  0  0
 11 25  1  0  0  0  0
 12  5  2  0  0  0  0
 12  9  1  0  0  0  0
 13  4  1  0  0  0  0
 13  8  1  0  0  0  0
 14  2  1  0  0  0  0
 15 10  1  0  0  0  0
 16  7  1  0  0  0  0
 19 28  1  0  0  0  0
 20 14  2  0  0  0  0
 21  9  1  0  0  0  0
 21 17  2  0  0  0  0
 22  1  1  0  0  0  0
 22  2  2  0  0  0  0
 23 29  1  0  0  0  0
 23  4  1  0  0  0  0
 24 11  2  0  0  0  0
 25 23  1  0  0  0  0
 26 15  1  0  0  0  0
 26 16  1  0  0  0  0
 27 30  1  0  0  0  0
 28 29  2  0  0  0  0
 28 20  1  0  0  0  0
 29 22  1  0  0  0  0
 30 13  1  0  0  0  0
M  END
>  <MODEL>
2

>  <REMARK>
 VINA RESULT:     -10.5      3.028      6.853
  Name = 
  0 active torsions:
  status: ('A' for Active; 'I' for Inactive)
                            x       y       z     vdW  Elec       q    Type
                         _______ _______ _______ _____ _____    ______ ____

>  <TORSDO>
F 0

$$$$
=
 OpenBabel11052412173D

 30 36  0  0  1  0  0  0  0  0999 V2000
  187.9250  177.4340  142.0930 C   0  0  2  0  0  3  0  0  0  0  0  0
  190.3910  177.0090  141.3540 C   0  0  0  0  0  0  0  0  0  0  0  0
  188.0500  177.7010  137.1290 N   0  0  0  0  0  2  0  0  0  0  0  0
  186.9530  178.4510  141.5040 C   0  0  2  0  0  3  0  0  0  0  0  0
  188.0200  177.7080  143.5550 C   0  0  0  0  0  3  0  0  0  0  0  0
  184.4280  179.0030  144.3890 S   0  0  0  0  0  0  0  0  0  0  0  0
  184.5200  179.4860  140.0150 C   0  0  1  0  0  3  0  0  0  0  0  0
  185.4990  177.8150  143.4960 C   0  0  2  0  0  3  0  0  0  0  0  0
  186.8060  178.3090  145.5410 N   0  0  0  0  0  2  0  0  0  0  0  0
  185.1780  178.8160  138.8140 C   0  0  2  0  0  3  0  0  0  0  0  0
  186.8790  177.2350  137.8260 C   0  0  0  0  0  0  0  0  0  0  0  0
  186.8520  177.8600  144.2000 C   0  0  0  0  0  0  0  0  0  0  0  0
  185.5610  177.9910  141.9410 C   0  0  1  0  0  3  0  0  0  0  0  0
  191.2440  177.0660  140.2870 N   0  0  0  0  0  0  0  0  0  0  0  0
  184.0130  178.2530  138.0770 C   0  0  0  0  0  2  0  0  0  0  0  0
  183.2740  179.9780  139.5770 O   0  0  0  0  0  0  0  0  0  0  0  0
  185.1520  179.1380  146.9680 O   0  0  0  0  0  0  0  0  0  0  0  0
  190.7970  176.3780  142.5630 N   0  0  0  0  0  1  0  0  0  0  0  0
  189.0550  178.6300  137.6320 C   0  0  0  0  0  2  0  0  0  0  0  0
  190.8690  177.6080  139.0890 C   0  0  0  0  0  3  0  0  0  0  0  0
  185.5170  178.8370  145.8030 C   0  0  0  0  0  0  0  0  0  0  0  0
  189.1120  177.5570  141.2200 C   0  0  0  0  0  0  0  0  0  0  0  0
  187.3180  178.5810  140.0230 C   0  0  2  0  0  3  0  0  0  0  0  0
  186.2440  176.2700  137.3270 O   0  0  0  0  0  0  0  0  0  0  0  0
  186.3280  177.8450  139.1080 C   0  0  1  0  0  3  0  0  0  0  0  0
  182.9290  179.2580  138.4080 C   0  0  0  0  0  2  0  0  0  0  0  0
  183.2390  177.5700  141.1340 C   0  0  0  0  0  1  0  0  0  0  0  0
  189.5790  178.1350  138.9340 C   0  0  0  0  0  0  0  0  0  0  0  0
  188.7180  178.0830  140.0140 C   0  0  0  0  0  0  0  0  0  0  0  0
  184.3190  178.6290  141.2950 C   0  0  2  0  0  3  0  0  0  0  0  0
  1  5  1  1  0  0  0
  2 18  1  0  0  0  0
  3 19  1  0  0  0  0
  3 11  1  0  0  0  0
  4 13  1  0  0  0  0
  4  1  1  0  0  0  0
  5 12  2  0  0  0  0
  6 21  1  0  0  0  0
  7 30  1  0  0  0  0
  8 12  1  0  0  0  0
  8  6  1  0  0  0  0
  9 21  1  0  0  0  0
 10 25  1  0  0  0  0
 10  7  1  0  0  0  0
 11 25  1  0  0  0  0
 12  9  1  0  0  0  0
 13  8  1  0  0  0  0
 14  2  2  0  0  0  0
 15 26  1  0  0  0  0
 15 10  1  0  0  0  0
 16  7  1  0  0  0  0
 19 28  1  0  0  0  0
 20 14  1  0  0  0  0
 21 17  2  0  0  0  0
 22  2  1  0  0  0  0
 22  1  1  0  0  0  0
 23  4  1  0  0  0  0
 24 11  2  0  0  0  0
 25 23  1  0  0  0  0
 26 16  1  0  0  0  0
 27 30  1  0  0  0  0
 28 20  2  0  0  0  0
 28 29  1  0  0  0  0
 29 23  1  0  0  0  0
 29 22  2  0  0  0  0
 30 13  1  0  0  0  0
M  END
>  <MODEL>
3

>  <REMARK>
 VINA RESULT:      -8.8      2.697      5.775
  Name = 
  0 active torsions:
  status: ('A' for Active; 'I' for Inactive)
                            x       y       z     vdW  Elec       q    Type
                         _______ _______ _______ _____ _____    ______ ____

>  <TORSDO>
F 0

$$$$
=
 OpenBabel11052412173D

 30 36  0  0  1  0  0  0  0  0999 V2000
  189.3480  177.8300  143.5950 C   0  0  2  0  0  3  0  0  0  0  0  0
  190.6210  177.3490  145.8210 C   0  0  0  0  0  0  0  0  0  0  0  0
  186.0820  178.3400  147.3100 N   0  0  0  0  0  2  0  0  0  0  0  0
  187.9310  177.3950  143.2360 C   0  0  2  0  0  3  0  0  0  0  0  0
  190.2530  177.3090  142.5320 C   0  0  0  0  0  3  0  0  0  0  0  0
  187.9690  177.4390  139.3630 S   0  0  0  0  0  0  0  0  0  0  0  0
  184.9800  177.6720  142.5860 C   0  0  1  0  0  3  0  0  0  0  0  0
  188.5510  178.2290  140.9100 C   0  0  2  0  0  3  0  0  0  0  0  0
  190.5280  176.9310  140.1730 N   0  0  0  0  0  2  0  0  0  0  0  0
  184.8880  178.2080  144.0100 C   0  0  2  0  0  3  0  0  0  0  0  0
  185.9710  179.1160  146.1010 C   0  0  0  0  0  0  0  0  0  0  0  0
  189.8630  177.5340  141.2670 C   0  0  0  0  0  0  0  0  0  0  0  0
  187.5060  178.2950  142.0750 C   0  0  1  0  0  3  0  0  0  0  0  0
  190.4520  177.1300  147.1590 N   0  0  0  0  0  0  0  0  0  0  0  0
  183.8840  179.3000  143.8830 C   0  0  0  0  0  2  0  0  0  0  0  0
  183.6960  177.7950  142.0190 O   0  0  0  0  0  0  0  0  0  0  0  0
  190.0640  176.6120  137.9060 O   0  0  0  0  0  0  0  0  0  0  0  0
  191.9250  177.5620  145.2890 N   0  0  0  0  0  1  0  0  0  0  0  0
  186.6840  177.0190  147.4490 C   0  0  0  0  0  2  0  0  0  0  0  0
  189.2110  176.9840  147.7160 C   0  0  0  0  0  3  0  0  0  0  0  0
  189.6580  176.9260  139.0530 C   0  0  0  0  0  0  0  0  0  0  0  0
  189.4920  177.3860  144.9980 C   0  0  0  0  0  0  0  0  0  0  0  0
  187.1470  177.3710  144.5510 C   0  0  2  0  0  3  0  0  0  0  0  0
  185.6240  180.3210  146.2070 O   0  0  0  0  0  0  0  0  0  0  0  0
  186.2090  178.5780  144.6960 C   0  0  1  0  0  3  0  0  0  0  0  0
  183.0000  178.7720  142.7710 C   0  0  0  0  0  2  0  0  0  0  0  0
  185.6550  179.7320  141.2210 C   0  0  0  0  0  1  0  0  0  0  0  0
  188.0690  177.0480  146.9050 C   0  0  0  0  0  0  0  0  0  0  0  0
  188.2410  177.2640  145.5510 C   0  0  0  0  0  0  0  0  0  0  0  0
  186.0300  178.3190  141.6410 C   0  0  2  0  0  3  0  0  0  0  0  0
  1  5  1  6  0  0  0
  1 22  1  0  0  0  0
  2 14  1  0  0  0  0
  3 19  1  0  0  0  0
  4  1  1  0  0  0  0
  4 23  1  0  0  0  0
  6  8  1  0  0  0  0
  7 10  1  0  0  0  0
  8 12  1  0  0  0  0
  8 13  1  0  0  0  0
  9 12  1  0  0  0  0
 10 25  1  0  0  0  0
 11 24  2  0  0  0  0
 11  3  1  0  0  0  0
 12  5  2  0  0  0  0
 13  4  1  0  0  0  0
 14 20  2  0  0  0  0
 15 10  1  0  0  0  0
 16  7  1  0  0  0  0
 16 26  1  0  0  0  0
 17 21  2  0  0  0  0
 18  2  1  0  0  0  0
 21  6  1  0  0  0  0
 21  9  1  0  0  0  0
 22 29  1  0  0  0  0
 22  2  2  0  0  0  0
 23 25  1  0  0  0  0
 23 29  1  0  0  0  0
 25 11  1  0  0  0  0
 26 15  1  0  0  0  0
 27 30  1  0  0  0  0
 28 19  1  0  0  0  0
 28 20  1  0  0  0  0
 29 28  2  0  0  0  0
 30 13  1  0  0  0  0
 30  7  1  0  0  0  0
M  END
>  <MODEL>
4

>  <REMARK>
 VINA RESULT:      -8.6      2.664      5.874
  Name = 
  0 active torsions:
  status: ('A' for Active; 'I' for Inactive)
                            x       y       z     vdW  Elec       q    Type
                         _______ _______ _______ _____ _____    ______ ____

>  <TORSDO>
F 0

$$$$
=
 OpenBabel11052412173D

 30 36  0  0  1  0  0  0  0  0999 V2000
  185.8610  178.1020  141.3250 C   0  0  2  0  0  3  0  0  0  0  0  0
  183.4310  178.6580  142.0930 C   0  0  0  0  0  0  0  0  0  0  0  0
  185.8600  178.1820  146.2960 N   0  0  0  0  0  2  0  0  0  0  0  0
  187.1580  178.6230  141.9350 C   0  0  2  0  0  3  0  0  0  0  0  0
  185.8810  178.4540  139.8770 C   0  0  0  0  0  3  0  0  0  0  0  0
  189.6900  178.2530  139.0270 S   0  0  0  0  0  0  0  0  0  0  0  0
  189.8040  178.5440  143.4170 C   0  0  1  0  0  3  0  0  0  0  0  0
  188.2370  177.5490  139.8930 C   0  0  2  0  0  3  0  0  0  0  0  0
  187.2310  178.6090  137.8930 N   0  0  0  0  0  2  0  0  0  0  0  0
  188.9360  178.1380  144.6040 C   0  0  2  0  0  3  0  0  0  0  0  0
  186.7490  177.3200  145.5600 C   0  0  0  0  0  0  0  0  0  0  0  0
  187.0120  178.1580  139.2160 C   0  0  0  0  0  0  0  0  0  0  0  0
  188.2520  177.6690  141.4540 C   0  0  1  0  0  3  0  0  0  0  0  0
  182.6710  179.0030  143.1760 N   0  0  0  0  0  0  0  0  0  0  0  0
  189.7830  177.1280  145.2970 C   0  0  0  0  0  2  0  0  0  0  0  0
  191.1430  178.4820  143.8510 O   0  0  0  0  0  0  0  0  0  0  0  0
  189.0750  178.7750  136.4690 O   0  0  0  0  0  0  0  0  0  0  0  0
  182.8050  178.2920  140.8670 N   0  0  0  0  0  1  0  0  0  0  0  0
  185.3050  179.4550  145.8490 C   0  0  0  0  0  2  0  0  0  0  0  0
  183.2330  179.2990  144.3880 C   0  0  0  0  0  3  0  0  0  0  0  0
  188.6230  178.5940  137.6280 C   0  0  0  0  0  0  0  0  0  0  0  0
  184.8220  178.6480  142.2240 C   0  0  0  0  0  0  0  0  0  0  0  0
  186.8770  178.8240  143.4260 C   0  0  2  0  0  3  0  0  0  0  0  0
  186.9490  176.1620  146.0100 O   0  0  0  0  0  0  0  0  0  0  0  0
  187.4950  177.7170  144.2930 C   0  0  1  0  0  3  0  0  0  0  0  0
  191.1770  177.6340  144.9840 C   0  0  0  0  0  2  0  0  0  0  0  0
  190.2170  176.3270  142.2010 C   0  0  0  0  0  1  0  0  0  0  0  0
  184.6260  179.2640  144.5390 C   0  0  0  0  0  0  0  0  0  0  0  0
  185.3940  178.9210  143.4420 C   0  0  0  0  0  0  0  0  0  0  0  0
  189.6470  177.7330  142.1010 C   0  0  2  0  0  3  0  0  0  0  0  0
  1  5  1  6  0  0  0
  1  4  1  0  0  0  0
  1 22  1  0  0  0  0
  2 22  2  0  0  0  0
  2 14  1  0  0  0  0
  4 23  1  0  0  0  0
  6  8  1  0  0  0  0
  7 16  1  0  0  0  0
  7 10  1  0  0  0  0
  8 13  1  0  0  0  0
  9 12  1  0  0  0  0
 10 15  1  0  0  0  0
 11 24  2  0  0  0  0
 11  3  1  0  0  0  0
 12  5  2  0  0  0  0
 12  8  1  0  0  0  0
 13  4  1  0  0  0  0
 13 30  1  0  0  0  0
 14 20  2  0  0  0  0
 16 26  1  0  0  0  0
 17 21  2  0  0  0  0
 18  2  1  0  0  0  0
 19  3  1  0  0  0  0
 20 28  1  0  0  0  0
 21  9  1  0  0  0  0
 21  6  1  0  0  0  0
 22 29  1  0  0  0  0
 23 29  1  0  0  0  0
 23 25  1  0  0  0  0
 25 10  1  0  0  0  0
 25 11  1  0  0  0  0
 26 15  1  0  0  0  0
 28 19  1  0  0  0  0
 29 28  2  0  0  0  0
 30 27  1  0  0  0  0
 30  7  1  0  0  0  0
M  END
>  <MODEL>
5

>  <REMARK>
 VINA RESULT:      -8.2      2.724      5.507
  Name = 
  0 active torsions:
  status: ('A' for Active; 'I' for Inactive)
                            x       y       z     vdW  Elec       q    Type
                         _______ _______ _______ _____ _____    ______ ____

>  <TORSDO>
F 0

$$$$
=
 OpenBabel11052412173D

 30 36  0  0  1  0  0  0  0  0999 V2000
  188.2990  178.4590  141.7120 C   0  0  2  0  0  3  0  0  0  0  0  0
  189.7760  178.2530  143.8520 C   0  0  0  0  0  0  0  0  0  0  0  0
  185.2570  178.6900  145.6380 N   0  0  0  0  0  2  0  0  0  0  0  0
  186.9330  177.8220  141.4740 C   0  0  2  0  0  3  0  0  0  0  0  0
  189.1910  178.0180  140.6030 C   0  0  0  0  0  3  0  0  0  0  0  0
  186.6980  177.6990  137.6090 S   0  0  0  0  0  0  0  0  0  0  0  0
  183.9350  177.6710  141.0350 C   0  0  1  0  0  3  0  0  0  0  0  0
  187.2720  178.6280  139.0810 C   0  0  2  0  0  3  0  0  0  0  0  0
  189.3520  177.5760  138.2450 N   0  0  0  0  0  2  0  0  0  0  0  0
  183.8680  178.2530  142.4430 C   0  0  2  0  0  3  0  0  0  0  0  0
  184.9580  179.3890  144.4150 C   0  0  0  0  0  0  0  0  0  0  0  0
  188.6880  178.1320  139.3630 C   0  0  0  0  0  0  0  0  0  0  0  0
  186.3100  178.6040  140.3170 C   0  0  1  0  0  3  0  0  0  0  0  0
  189.7310  178.0720  145.2060 N   0  0  0  0  0  0  0  0  0  0  0  0
  182.7170  179.1930  142.3530 C   0  0  0  0  0  2  0  0  0  0  0  0
  182.6100  177.5960  140.5610 O   0  0  0  0  0  0  0  0  0  0  0  0
  188.7820  177.0980  136.0300 O   0  0  0  0  0  0  0  0  0  0  0  0
  190.9980  178.6150  143.2190 N   0  0  0  0  0  1  0  0  0  0  0  0
  186.0430  177.4690  145.7790 C   0  0  0  0  0  2  0  0  0  0  0  0
  188.5630  177.7850  145.8580 C   0  0  0  0  0  3  0  0  0  0  0  0
  188.4170  177.4050  137.1930 C   0  0  0  0  0  0  0  0  0  0  0  0
  188.5990  178.1010  143.1150 C   0  0  0  0  0  0  0  0  0  0  0  0
  186.2530  177.7510  142.8440 C   0  0  2  0  0  3  0  0  0  0  0  0
  184.4560  180.5400  144.5050 O   0  0  0  0  0  0  0  0  0  0  0  0
  185.1690  178.8270  143.0160 C   0  0  1  0  0  3  0  0  0  0  0  0
  181.8400  178.5020  141.3290 C   0  0  0  0  0  2  0  0  0  0  0  0
  184.2250  179.7410  139.5530 C   0  0  0  0  0  1  0  0  0  0  0  0
  187.3700  177.6590  145.1330 C   0  0  0  0  0  0  0  0  0  0  0  0
  187.4170  177.8370  143.7620 C   0  0  0  0  0  0  0  0  0  0  0  0
  184.8180  178.4110  139.9930 C   0  0  2  0  0  3  0  0  0  0  0  0
  1  5  1  6  0  0  0
  1 22  1  0  0  0  0
  2 14  1  0  0  0  0
  3 19  1  0  0  0  0
  4  1  1  0  0  0  0
  4 23  1  0  0  0  0
  6  8  1  0  0  0  0
  7 10  1  0  0  0  0
  8 12  1  0  0  0  0
  8 13  1  0  0  0  0
  9 12  1  0  0  0  0
 10 25  1  0  0  0  0
 11 24  2  0  0  0  0
 11  3  1  0  0  0  0
 12  5  2  0  0  0  0
 13  4  1  0  0  0  0
 14 20  2  0  0  0  0
 15 10  1  0  0  0  0
 16  7  1  0  0  0  0
 16 26  1  0  0  0  0
 17 21  2  0  0  0  0
 18  2  1  0  0  0  0
 21  6  1  0  0  0  0
 21  9  1  0  0  0  0
 22 29  1  0  0  0  0
 22  2  2  0  0  0  0
 23 25  1  0  0  0  0
 23 29  1  0  0  0  0
 25 11  1  0  0  0  0
 26 15  1  0  0  0  0
 27 30  1  0  0  0  0
 28 19  1  0  0  0  0
 28 20  1  0  0  0  0
 29 28  2  0  0  0  0
 30 13  1  0  0  0  0
 30  7  1  0  0  0  0
M  END
>  <MODEL>
6

>  <REMARK>
 VINA RESULT:      -8.2      2.929      6.081
  Name = 
  0 active torsions:
  status: ('A' for Active; 'I' for Inactive)
                            x       y       z     vdW  Elec       q    Type
                         _______ _______ _______ _____ _____    ______ ____

>  <TORSDO>
F 0

$$$$
=
 OpenBabel11052412173D

 30 36  0  0  1  0  0  0  0  0999 V2000
  188.5000  177.1550  139.4210 C   0  0  2  0  0  3  0  0  0  0  0  0
  186.1430  177.7990  138.5080 C   0  0  0  0  0  0  0  0  0  0  0  0
  185.7340  178.5450  143.3120 N   0  0  0  0  0  2  0  0  0  0  0  0
  189.2870  177.8690  140.5150 C   0  0  2  0  0  3  0  0  0  0  0  0
  189.3670  177.1120  138.2090 C   0  0  0  0  0  3  0  0  0  0  0  0
  192.9450  176.8430  139.7580 S   0  0  0  0  0  0  0  0  0  0  0  0
  190.6230  178.2870  143.2070 C   0  0  1  0  0  3  0  0  0  0  0  0
  191.1840  176.3370  139.7790 C   0  0  2  0  0  3  0  0  0  0  0  0
  191.6010  176.7910  137.3800 N   0  0  0  0  0  2  0  0  0  0  0  0
  189.1990  178.1750  143.7420 C   0  0  2  0  0  3  0  0  0  0  0  0
  186.7720  177.5540  143.4440 C   0  0  0  0  0  0  0  0  0  0  0  0
  190.6290  176.6970  138.4040 C   0  0  0  0  0  0  0  0  0  0  0  0
  190.3400  176.8650  140.9870 C   0  0  1  0  0  3  0  0  0  0  0  0
  184.9560  178.3870  138.8450 N   0  0  0  0  0  0  0  0  0  0  0  0
  189.3870  177.4180  145.0110 C   0  0  0  0  0  2  0  0  0  0  0  0
  191.4730  178.3940  144.3260 O   0  0  0  0  0  0  0  0  0  0  0  0
  193.9310  176.6470  137.2710 O   0  0  0  0  0  0  0  0  0  0  0  0
  186.2700  177.0980  137.2750 N   0  0  0  0  0  1  0  0  0  0  0  0
  185.6810  179.6320  142.3400 C   0  0  0  0  0  2  0  0  0  0  0  0
  184.7760  179.0140  140.0480 C   0  0  0  0  0  3  0  0  0  0  0  0
  192.8910  176.7600  137.9680 C   0  0  0  0  0  0  0  0  0  0  0  0
  187.2110  177.8780  139.4060 C   0  0  0  0  0  0  0  0  0  0  0  0
  188.2480  178.4450  141.4800 C   0  0  2  0  0  3  0  0  0  0  0  0
  186.5470  176.5650  144.1890 O   0  0  0  0  0  0  0  0  0  0  0  0
  188.1390  177.6310  142.7780 C   0  0  1  0  0  3  0  0  0  0  0  0
  190.7660  177.8780  145.4380 C   0  0  0  0  0  2  0  0  0  0  0  0
  191.3750  175.8460  143.0150 C   0  0  0  0  0  1  0  0  0  0  0  0
  185.8310  179.0750  140.9680 C   0  0  0  0  0  0  0  0  0  0  0  0
  187.0340  178.4850  140.6240 C   0  0  0  0  0  0  0  0  0  0  0  0
  191.1310  177.1520  142.2750 C   0  0  2  0  0  3  0  0  0  0  0  0
  1  5  1  6  0  0  0
  1  4  1  0  0  0  0
  2 14  2  0  0  0  0
  2 22  1  0  0  0  0
  3 11  1  0  0  0  0
  4 13  1  0  0  0  0
  4 23  1  0  0  0  0
  5 12  2  0  0  0  0
  6  8  1  0  0  0  0
  7 10  1  0  0  0  0
  7 16  1  0  0  0  0
  8 13  1  0  0  0  0
  9 21  1  0  0  0  0
  9 12  1  0  0  0  0
 10 15  1  0  0  0  0
 11 24  2  0  0  0  0
 12  8  1  0  0  0  0
 13 30  1  0  0  0  0
 14 20  1  0  0  0  0
 15 26  1  0  0  0  0
 16 26  1  0  0  0  0
 17 21  2  0  0  0  0
 18  2  1  0  0  0  0
 19  3  1  0  0  0  0
 20 28  2  0  0  0  0
 21  6  1  0  0  0  0
 22  1  1  0  0  0  0
 22 29  2  0  0  0  0
 23 25  1  0  0  0  0
 25 11  1  0  0  0  0
 25 10  1  0  0  0  0
 28 19  1  0  0  0  0
 29 28  1  0  0  0  0
 29 23  1  0  0  0  0
 30 27  1  0  0  0  0
 30  7  1  0  0  0  0
M  END
>  <MODEL>
7

>  <REMARK>
 VINA RESULT:      -8.0      3.258      6.354
  Name = 
  0 active torsions:
  status: ('A' for Active; 'I' for Inactive)
                            x       y       z     vdW  Elec       q    Type
                         _______ _______ _______ _____ _____    ______ ____

>  <TORSDO>
F 0

$$$$
=
 OpenBabel11052412173D

 30 36  0  0  1  0  0  0  0  0999 V2000
  187.1410  177.5420  143.5590 C   0  0  2  0  0  3  0  0  0  0  0  0
  184.8510  178.4420  144.4250 C   0  0  0  0  0  0  0  0  0  0  0  0
  187.3260  177.5210  148.5270 N   0  0  0  0  0  2  0  0  0  0  0  0
  188.5230  177.8500  144.1270 C   0  0  2  0  0  3  0  0  0  0  0  0
  187.1630  177.9160  142.1160 C   0  0  0  0  0  3  0  0  0  0  0  0
  190.8660  177.1610  141.1200 S   0  0  0  0  0  0  0  0  0  0  0  0
  191.1770  177.3430  145.5070 C   0  0  1  0  0  3  0  0  0  0  0  0
  189.3540  176.6670  142.0300 C   0  0  2  0  0  3  0  0  0  0  0  0
  188.4500  177.9060  140.0850 N   0  0  0  0  0  2  0  0  0  0  0  0
  190.2990  177.0490  146.7190 C   0  0  2  0  0  3  0  0  0  0  0  0
  188.0480  176.5510  147.7460 C   0  0  0  0  0  0  0  0  0  0  0  0
  188.2120  177.4670  141.4090 C   0  0  0  0  0  0  0  0  0  0  0  0
  189.4420  176.7520  143.5910 C   0  0  1  0  0  3  0  0  0  0  0  0
  184.1910  178.8750  145.5410 N   0  0  0  0  0  0  0  0  0  0  0  0
  191.0080  175.9100  147.3650 C   0  0  0  0  0  2  0  0  0  0  0  0
  192.5050  177.0720  145.8890 O   0  0  0  0  0  0  0  0  0  0  0  0
  190.2480  177.8220  138.5950 O   0  0  0  0  0  0  0  0  0  0  0  0
  184.1350  178.1990  143.2190 N   0  0  0  0  0  1  0  0  0  0  0  0
  186.9550  178.8720  148.1200 C   0  0  0  0  0  2  0  0  0  0  0  0
  184.8330  179.0590  146.7350 C   0  0  0  0  0  3  0  0  0  0  0  0
  189.8140  177.6870  139.7680 C   0  0  0  0  0  0  0  0  0  0  0  0
  186.2280  178.2200  144.5040 C   0  0  0  0  0  0  0  0  0  0  0  0
  188.3270  178.0600  145.6310 C   0  0  2  0  0  3  0  0  0  0  0  0
  188.0870  175.3670  148.1710 O   0  0  0  0  0  0  0  0  0  0  0  0
  188.8010  176.8560  146.4570 C   0  0  1  0  0  3  0  0  0  0  0  0
  192.4500  176.2060  147.0080 C   0  0  0  0  0  2  0  0  0  0  0  0
  191.2070  175.1140  144.2440 C   0  0  0  0  0  1  0  0  0  0  0  0
  186.2090  178.8120  146.8340 C   0  0  0  0  0  0  0  0  0  0  0  0
  186.8780  178.3800  145.7030 C   0  0  0  0  0  0  0  0  0  0  0  0
  190.8520  176.5930  144.1860 C   0  0  2  0  0  3  0  0  0  0  0  0
  1  5  1  6  0  0  0
  1  4  1  0  0  0  0
  1 22  1  0  0  0  0
  2 22  2  0  0  0  0
  2 14  1  0  0  0  0
  4 23  1  0  0  0  0
  6  8  1  0  0  0  0
  7 16  1  0  0  0  0
  7 10  1  0  0  0  0
  8 13  1  0  0  0  0
  9 12  1  0  0  0  0
 10 15  1  0  0  0  0
 11 24  2  0  0  0  0
 11  3  1  0  0  0  0
 12  8  1  0  0  0  0
 12  5  2  0  0  0  0
 13  4  1  0  0  0  0
 13 30  1  0  0  0  0
 14 20  2  0  0  0  0
 16 26  1  0  0  0  0
 17 21  2  0  0  0  0
 18  2  1  0  0  0  0
 19  3  1  0  0  0  0
 20 28  1  0  0  0  0
 21  9  1  0  0  0  0
 21  6  1  0  0  0  0
 22 29  1  0  0  0  0
 23 29  1  0  0  0  0
 23 25  1  0  0  0  0
 25 10  1  0  0  0  0
 25 11  1  0  0  0  0
 26 15  1  0  0  0  0
 28 19  1  0  0  0  0
 29 28  2  0  0  0  0
 30 27  1  0  0  0  0
 30  7  1  0  0  0  0
M  END
>  <MODEL>
8

>  <REMARK>
 VINA RESULT:      -8.0      2.814      5.584
  Name = 
  0 active torsions:
  status: ('A' for Active; 'I' for Inactive)
                            x       y       z     vdW  Elec       q    Type
                         _______ _______ _______ _____ _____    ______ ____

>  <TORSDO>
F 0

$$$$
