=
 OpenBabel11052413093D

 31 35  0  0  1  0  0  0  0  0999 V2000
  184.3480  178.6970  144.9190 C   0  0  0  0  0  0  0  0  0  0  0  0
  187.9960  177.5360  144.7280 C   0  0  0  0  0  0  0  0  0  0  0  0
  188.4830  177.4840  145.9990 C   0  0  1  0  0  3  0  0  0  0  0  0
  188.2880  178.0520  148.3760 C   0  0  0  0  0  0  0  0  0  0  0  0
  186.5980  177.9390  144.3670 C   0  0  0  0  0  0  0  0  0  0  0  0
  183.9850  178.6260  143.5740 C   0  0  0  0  0  3  0  0  0  0  0  0
  187.7030  177.9050  147.1840 C   0  0  0  0  0  3  0  0  0  0  0  0
  188.4730  177.1730  142.3310 C   0  0  0  0  0  0  0  0  0  0  0  0
  183.4430  179.0950  145.8450 F   0  0  0  0  0  0  0  0  0  0  0  0
  190.7920  176.8800  145.1290 C   0  0  0  0  0  3  0  0  0  0  0  0
  187.5510  178.4600  149.4360 F   0  0  0  0  0  0  0  0  0  0  0  0
  187.1360  177.4730  142.0400 O   0  0  0  0  0  0  0  0  0  0  0  0
  188.9180  177.1970  143.6010 C   0  0  0  0  0  0  0  0  0  0  0  0
  185.6430  178.3530  145.3110 C   0  0  0  0  0  3  0  0  0  0  0  0
  189.7430  177.8620  148.5300 C   0  0  0  0  0  3  0  0  0  0  0  0
  186.2180  177.8740  143.0130 C   0  0  2  0  0  3  0  0  0  0  0  0
  184.9200  178.2160  142.6230 C   0  0  0  0  0  3  0  0  0  0  0  0
  190.3530  176.9940  143.8810 C   0  0  0  0  0  3  0  0  0  0  0  0
  189.8360  176.8440  146.2790 C   0  0  1  0  0  3  0  0  0  0  0  0
  190.4780  177.3410  147.5440 C   0  0  0  0  0  3  0  0  0  0  0  0
  188.8040  178.6040  139.8350 O   0  0  0  0  0  0  0  0  0  0  0  0
  189.5140  177.5830  140.0390 C   0  0  0  0  0  0  0  0  0  0  0  0
  189.3760  176.8490  141.2640 N   0  0  0  0  0  2  0  0  0  0  0  0
  192.2450  176.2350  137.0010 C   0  0  0  0  0  0  0  0  0  0  0  0
  190.0090  176.7390  137.7630 C   0  0  0  0  0  3  0  0  0  0  0  0
  192.5190  177.4410  140.5580 C   0  0  0  0  0  1  0  0  0  0  0  0
  193.1060  175.7970  136.0040 O   0  0  0  0  0  1  0  0  0  0  0  0
  190.8730  176.2980  136.7600 C   0  0  0  0  0  3  0  0  0  0  0  0
  191.8950  177.0560  139.2580 C   0  0  0  0  0  0  0  0  0  0  0  0
  190.4960  177.1250  139.0230 C   0  0  0  0  0  0  0  0  0  0  0  0
  192.7510  176.6130  138.2450 C   0  0  0  0  0  3  0  0  0  0  0  0
  1 14  2  0  0  0  0
  1  9  1  0  0  0  0
  2  3  1  0  0  0  0
  3 19  1  0  0  0  0
  3  7  1  1  0  0  0
  4 15  1  0  0  0  0
  4 11  1  0  0  0  0
  5  2  2  0  0  0  0
  5 14  1  0  0  0  0
  6  1  1  0  0  0  0
  7  4  2  0  0  0  0
  8 13  2  0  0  0  0
 12  8  1  0  0  0  0
 12 16  1  0  0  0  0
 13 18  1  0  0  0  0
 13  2  1  0  0  0  0
 16 17  1  6  0  0  0
 16  5  1  0  0  0  0
 17  6  2  0  0  0  0
 18 10  2  0  0  0  0
 19 10  1  6  0  0  0
 19 20  1  0  0  0  0
 20 15  2  0  0  0  0
 21 22  2  0  0  0  0
 22 23  1  0  0  0  0
 23  8  1  0  0  0  0
 24 31  1  0  0  0  0
 25 30  2  0  0  0  0
 27 24  1  0  0  0  0
 28 24  2  0  0  0  0
 28 25  1  0  0  0  0
 29 26  1  0  0  0  0
 30 29  1  0  0  0  0
 30 22  1  0  0  0  0
 31 29  2  0  0  0  0
M  END
>  <MODEL>
1

>  <REMARK>
 VINA RESULT:     -11.7      0.000      0.000
  Name = 
  2 active torsions:
  status: ('A' for Active; 'I' for Inactive)
    1  A    between atoms: C_9  and  C_22
    2  A    between atoms: C_15  and  N_23
                            x       y       z     vdW  Elec       q    Type
                         _______ _______ _______ _____ _____    ______ ____

>  <TORSDO>
F 2

$$$$
=
 OpenBabel11052413093D

 31 35  0  0  1  0  0  0  0  0999 V2000
  191.6730  177.2690  141.3190 C   0  0  0  0  0  0  0  0  0  0  0  0
  188.8200  177.4700  143.8710 C   0  0  0  0  0  0  0  0  0  0  0  0
  189.3640  177.3460  145.1140 C   0  0  1  0  0  3  0  0  0  0  0  0
  191.2550  176.7550  146.5590 C   0  0  0  0  0  0  0  0  0  0  0  0
  189.6010  177.4500  142.5930 C   0  0  0  0  0  0  0  0  0  0  0  0
  190.9710  177.4820  140.1320 C   0  0  0  0  0  3  0  0  0  0  0  0
  190.8030  177.0920  145.3470 C   0  0  0  0  0  3  0  0  0  0  0  0
  186.7510  177.7920  142.5600 C   0  0  0  0  0  0  0  0  0  0  0  0
  193.0140  177.0790  141.2890 F   0  0  0  0  0  0  0  0  0  0  0  0
  187.0540  177.3760  146.1700 C   0  0  0  0  0  3  0  0  0  0  0  0
  192.5740  176.5080  146.7350 F   0  0  0  0  0  0  0  0  0  0  0  0
  187.5230  177.8530  141.3930 O   0  0  0  0  0  0  0  0  0  0  0  0
  187.3360  177.6070  143.7580 C   0  0  0  0  0  0  0  0  0  0  0  0
  190.9930  177.2570  142.5380 C   0  0  0  0  0  3  0  0  0  0  0  0
  190.3210  176.5620  147.6840 C   0  0  0  0  0  3  0  0  0  0  0  0
  188.9070  177.6620  141.3870 C   0  0  2  0  0  3  0  0  0  0  0  0
  189.5900  177.6780  140.1670 C   0  0  0  0  0  3  0  0  0  0  0  0
  186.5020  177.4260  144.9630 C   0  0  0  0  0  3  0  0  0  0  0  0
  188.5200  177.6100  146.3540 C   0  0  1  0  0  3  0  0  0  0  0  0
  189.0370  176.9170  147.5830 C   0  0  0  0  0  3  0  0  0  0  0  0
  185.2620  179.6580  140.9200 O   0  0  0  0  0  0  0  0  0  0  0  0
  184.6190  178.8540  141.6480 C   0  0  0  0  0  0  0  0  0  0  0  0
  185.3240  177.9160  142.4730 N   0  0  0  0  0  2  0  0  0  0  0  0
  180.3190  178.8800  141.5400 C   0  0  0  0  0  0  0  0  0  0  0  0
  182.4630  178.8390  140.4280 C   0  0  0  0  0  3  0  0  0  0  0  0
  182.9690  178.9280  144.2150 C   0  0  0  0  0  1  0  0  0  0  0  0
  178.9320  178.8880  141.4790 O   0  0  0  0  0  1  0  0  0  0  0  0
  181.0690  178.8470  140.3650 C   0  0  0  0  0  3  0  0  0  0  0  0
  182.3610  178.8990  142.8530 C   0  0  0  0  0  0  0  0  0  0  0  0
  183.1340  178.8640  141.6620 C   0  0  0  0  0  0  0  0  0  0  0  0
  180.9640  178.9060  142.7760 C   0  0  0  0  0  3  0  0  0  0  0  0
  1 14  2  0  0  0  0
  2  3  1  0  0  0  0
  3  7  1  6  0  0  0
  3 19  1  0  0  0  0
  4 11  1  0  0  0  0
  4 15  1  0  0  0  0
  5  2  2  0  0  0  0
  6 17  2  0  0  0  0
  6  1  1  0  0  0  0
  7  4  2  0  0  0  0
  8 13  2  0  0  0  0
  9  1  1  0  0  0  0
 12  8  1  0  0  0  0
 13  2  1  0  0  0  0
 13 18  1  0  0  0  0
 14  5  1  0  0  0  0
 16 17  1  6  0  0  0
 16 12  1  0  0  0  0
 16  5  1  0  0  0  0
 18 10  2  0  0  0  0
 19 10  1  6  0  0  0
 19 20  1  0  0  0  0
 20 15  2  0  0  0  0
 21 22  2  0  0  0  0
 22 30  1  0  0  0  0
 22 23  1  0  0  0  0
 23  8  1  0  0  0  0
 24 31  1  0  0  0  0
 25 30  2  0  0  0  0
 27 24  1  0  0  0  0
 28 25  1  0  0  0  0
 28 24  2  0  0  0  0
 29 26  1  0  0  0  0
 30 29  1  0  0  0  0
 31 29  2  0  0  0  0
M  END
>  <MODEL>
2

>  <REMARK>
 VINA RESULT:     -11.4      3.214      7.063
  Name = 
  2 active torsions:
  status: ('A' for Active; 'I' for Inactive)
    1  A    between atoms: C_9  and  C_22
    2  A    between atoms: C_15  and  N_23
                            x       y       z     vdW  Elec       q    Type
                         _______ _______ _______ _____ _____    ______ ____

>  <TORSDO>
F 2

$$$$
=
 OpenBabel11052413093D

 31 35  0  0  1  0  0  0  0  0999 V2000
  183.4950  178.9050  138.8130 C   0  0  0  0  0  0  0  0  0  0  0  0
  187.2330  178.2800  139.3830 C   0  0  0  0  0  0  0  0  0  0  0  0
  187.8240  178.1490  138.1630 C   0  0  1  0  0  3  0  0  0  0  0  0
  187.6500  177.8130  135.7400 C   0  0  0  0  0  0  0  0  0  0  0  0
  185.7740  178.5410  139.6000 C   0  0  0  0  0  0  0  0  0  0  0  0
  183.0620  179.0860  140.1260 C   0  0  0  0  0  3  0  0  0  0  0  0
  187.0690  178.1680  136.8900 C   0  0  0  0  0  3  0  0  0  0  0  0
  187.5660  178.3040  141.8310 C   0  0  0  0  0  0  0  0  0  0  0  0
  182.6120  178.9920  137.7890 F   0  0  0  0  0  0  0  0  0  0  0  0
  190.0530  177.6110  139.2570 C   0  0  0  0  0  3  0  0  0  0  0  0
  186.9260  177.8200  134.5960 F   0  0  0  0  0  0  0  0  0  0  0  0
  186.2130  178.6330  141.9910 O   0  0  0  0  0  0  0  0  0  0  0  0
  188.0850  178.1260  140.6020 C   0  0  0  0  0  0  0  0  0  0  0  0
  184.8410  178.6380  138.5530 C   0  0  0  0  0  2  0  0  0  0  0  0
  189.0430  177.3280  135.7170 C   0  0  0  0  0  3  0  0  0  0  0  0
  185.3220  178.7250  140.9200 C   0  0  0  0  0  0  0  0  0  0  0  0
  183.9740  178.9950  141.1780 C   0  0  0  0  0  3  0  0  0  0  0  0
  189.4800  177.6650  140.4540 C   0  0  0  0  0  3  0  0  0  0  0  0
  189.3420  178.1160  138.0410 C   0  0  1  0  0  3  0  0  0  0  0  0
  189.8240  177.4250  136.7960 C   0  0  0  0  0  3  0  0  0  0  0  0
  187.9220  175.9010  143.4070 O   0  0  0  0  0  0  0  0  0  0  0  0
  188.5520  176.9390  143.7470 C   0  0  0  0  0  0  0  0  0  0  0  0
  188.3990  178.1470  142.9880 N   0  0  0  0  0  2  0  0  0  0  0  0
  191.2820  176.8700  147.0700 C   0  0  0  0  0  0  0  0  0  0  0  0
  190.8080  176.6120  144.7150 C   0  0  0  0  0  3  0  0  0  0  0  0
  187.6130  177.5660  146.5830 C   0  0  0  0  0  1  0  0  0  0  0  0
  192.1820  176.8410  148.1260 O   0  0  0  0  0  1  0  0  0  0  0  0
  191.7140  176.5820  145.7760 C   0  0  0  0  0  3  0  0  0  0  0  0
  189.0250  177.2190  146.2470 C   0  0  0  0  0  0  0  0  0  0  0  0
  189.4550  176.9280  144.9250 C   0  0  0  0  0  0  0  0  0  0  0  0
  189.9430  177.1860  147.3010 C   0  0  0  0  0  3  0  0  0  0  0  0
  1  6  2  0  0  0  0
  2  5  2  0  0  0  0
  2 13  1  0  0  0  0
  3  7  1  6  0  0  0
  3  2  1  0  0  0  0
  4  7  2  0  0  0  0
  5 16  1  0  0  0  0
  6 17  1  0  0  0  0
  8 12  1  0  0  0  0
  8 23  1  0  0  0  0
  9  1  1  0  0  0  0
 10 18  2  0  0  0  0
 11  4  1  0  0  0  0
 13  8  2  0  0  0  0
 14  1  1  0  0  0  0
 14  5  1  0  0  0  0
 15  4  1  0  0  0  0
 15 20  2  0  0  0  0
 16 17  2  0  0  0  0
 16 12  1  0  0  0  0
 18 13  1  0  0  0  0
 19 20  1  6  0  0  0
 19  3  1  0  0  0  0
 19 10  1  0  0  0  0
 21 22  2  0  0  0  0
 22 30  1  0  0  0  0
 23 22  1  0  0  0  0
 24 31  1  0  0  0  0
 24 27  1  0  0  0  0
 25 30  2  0  0  0  0
 25 28  1  0  0  0  0
 28 24  2  0  0  0  0
 29 26  1  0  0  0  0
 29 31  2  0  0  0  0
 30 29  1  0  0  0  0
M  END
>  <MODEL>
3

>  <REMARK>
 VINA RESULT:     -10.6      3.640      7.742
  Name = 
  2 active torsions:
  status: ('A' for Active; 'I' for Inactive)
    1  A    between atoms: C_9  and  C_22
    2  A    between atoms: C_15  and  N_23
                            x       y       z     vdW  Elec       q    Type
                         _______ _______ _______ _____ _____    ______ ____

>  <TORSDO>
F 2

$$$$
=
 OpenBabel11052413093D

 31 35  0  0  1  0  0  0  0  0999 V2000
  190.2310  177.1330  147.3280 C   0  0  0  0  0  0  0  0  0  0  0  0
  188.0620  177.6510  144.2110 C   0  0  0  0  0  0  0  0  0  0  0  0
  186.8560  178.1360  144.6190 C   0  0  1  0  0  3  0  0  0  0  0  0
  185.2360  178.5790  146.4060 C   0  0  0  0  0  0  0  0  0  0  0  0
  189.2010  177.3200  145.1260 C   0  0  0  0  0  0  0  0  0  0  0  0
  191.4260  176.7150  146.7420 C   0  0  0  0  0  3  0  0  0  0  0  0
  186.4950  178.3190  146.0430 C   0  0  0  0  0  3  0  0  0  0  0  0
  189.4560  176.9780  142.2870 C   0  0  0  0  0  0  0  0  0  0  0  0
  190.1410  177.2500  148.6740 F   0  0  0  0  0  0  0  0  0  0  0  0
  185.9720  178.0510  142.2390 C   0  0  0  0  0  3  0  0  0  0  0  0
  184.9350  178.7190  147.7190 F   0  0  0  0  0  0  0  0  0  0  0  0
  190.5270  176.7600  143.1640 O   0  0  0  0  0  0  0  0  0  0  0  0
  188.2660  177.4000  142.7520 C   0  0  0  0  0  0  0  0  0  0  0  0
  189.1300  177.4360  146.5250 C   0  0  0  0  0  3  0  0  0  0  0  0
  184.1570  178.6280  145.4020 C   0  0  0  0  0  3  0  0  0  0  0  0
  190.4130  176.8940  144.5490 C   0  0  2  0  0  3  0  0  0  0  0  0
  191.5160  176.5950  145.3540 C   0  0  0  0  0  3  0  0  0  0  0  0
  187.1160  177.5120  141.8330 C   0  0  0  0  0  3  0  0  0  0  0  0
  185.8510  178.6580  143.6010 C   0  0  1  0  0  3  0  0  0  0  0  0
  184.4320  178.6210  144.0950 C   0  0  0  0  0  3  0  0  0  0  0  0
  191.7050  177.7830  140.6480 O   0  0  0  0  0  0  0  0  0  0  0  0
  190.7600  177.1530  140.1010 C   0  0  0  0  0  0  0  0  0  0  0  0
  189.6310  176.7380  140.8820 N   0  0  0  0  0  2  0  0  0  0  0  0
  190.9810  176.1130  135.9330 C   0  0  0  0  0  0  0  0  0  0  0  0
  191.6710  175.8110  138.2280 C   0  0  0  0  0  3  0  0  0  0  0  0
  189.0550  178.5890  138.0160 C   0  0  0  0  0  1  0  0  0  0  0  0
  191.0700  175.7590  134.5940 O   0  0  0  0  0  1  0  0  0  0  0  0
  191.7620  175.4550  136.8820 C   0  0  0  0  0  3  0  0  0  0  0  0
  190.0110  177.4950  137.6770 C   0  0  0  0  0  0  0  0  0  0  0  0
  190.8010  176.8300  138.6520 C   0  0  0  0  0  0  0  0  0  0  0  0
  190.1110  177.1280  136.3310 C   0  0  0  0  0  3  0  0  0  0  0  0
  1  9  1  0  0  0  0
  2  3  1  0  0  0  0
  2  5  2  0  0  0  0
  3  7  1  1  0  0  0
  4 11  1  0  0  0  0
  5 14  1  0  0  0  0
  6  1  1  0  0  0  0
  7  4  2  0  0  0  0
  8 13  2  0  0  0  0
  8 12  1  0  0  0  0
 12 16  1  0  0  0  0
 13  2  1  0  0  0  0
 14  1  2  0  0  0  0
 15  4  1  0  0  0  0
 16  5  1  0  0  0  0
 16 17  1  1  0  0  0
 17  6  2  0  0  0  0
 18 10  2  0  0  0  0
 18 13  1  0  0  0  0
 19 10  1  6  0  0  0
 19 20  1  0  0  0  0
 19  3  1  0  0  0  0
 20 15  2  0  0  0  0
 22 21  2  0  0  0  0
 22 23  1  0  0  0  0
 23  8  1  0  0  0  0
 24 31  2  0  0  0  0
 24 28  1  0  0  0  0
 25 30  1  0  0  0  0
 27 24  1  0  0  0  0
 28 25  2  0  0  0  0
 29 26  1  0  0  0  0
 29 30  2  0  0  0  0
 30 22  1  0  0  0  0
 31 29  1  0  0  0  0
M  END
>  <MODEL>
4

>  <REMARK>
 VINA RESULT:     -10.6      1.535      4.178
  Name = 
  2 active torsions:
  status: ('A' for Active; 'I' for Inactive)
    1  A    between atoms: C_9  and  C_22
    2  A    between atoms: C_15  and  N_23
                            x       y       z     vdW  Elec       q    Type
                         _______ _______ _______ _____ _____    ______ ____

>  <TORSDO>
F 2

$$$$
=
 OpenBabel11052413093D

 31 35  0  0  1  0  0  0  0  0999 V2000
  187.3160  178.3430  136.2940 C   0  0  0  0  0  0  0  0  0  0  0  0
  186.1140  178.3260  139.9340 C   0  0  0  0  0  0  0  0  0  0  0  0
  184.7570  178.4520  139.9250 C   0  0  1  0  0  3  0  0  0  0  0  0
  182.6790  178.9910  138.7390 C   0  0  0  0  0  0  0  0  0  0  0  0
  186.9740  178.2830  138.7080 C   0  0  0  0  0  0  0  0  0  0  0  0
  188.6830  178.1350  136.4750 C   0  0  0  0  0  3  0  0  0  0  0  0
  183.9690  178.6470  138.6870 C   0  0  0  0  0  3  0  0  0  0  0  0
  188.1400  178.0680  141.3230 C   0  0  0  0  0  0  0  0  0  0  0  0
  186.8090  178.4730  135.0450 F   0  0  0  0  0  0  0  0  0  0  0  0
  184.7110  178.5480  142.4630 C   0  0  0  0  0  3  0  0  0  0  0  0
  181.9920  179.1830  137.5890 F   0  0  0  0  0  0  0  0  0  0  0  0
  188.9020  177.9460  140.1530 O   0  0  0  0  0  0  0  0  0  0  0  0
  186.8090  178.2520  141.2550 C   0  0  0  0  0  0  0  0  0  0  0  0
  186.4690  178.4130  137.4020 C   0  0  0  0  0  2  0  0  0  0  0  0
  182.0200  179.2500  140.0340 C   0  0  0  0  0  3  0  0  0  0  0  0
  188.3560  178.0750  138.8740 C   0  0  0  0  0  0  0  0  0  0  0  0
  189.2020  178.0020  137.7630 C   0  0  0  0  0  3  0  0  0  0  0  0
  186.0380  178.4960  142.4900 C   0  0  0  0  0  3  0  0  0  0  0  0
  183.9560  178.2540  141.2040 C   0  0  1  0  0  3  0  0  0  0  0  0
  182.6250  178.9500  141.1860 C   0  0  0  0  0  3  0  0  0  0  0  0
  188.3070  175.7710  143.0800 O   0  0  0  0  0  0  0  0  0  0  0  0
  188.8520  176.8470  143.4460 C   0  0  0  0  0  0  0  0  0  0  0  0
  188.7890  178.0050  142.6010 N   0  0  0  0  0  2  0  0  0  0  0  0
  191.0400  177.0630  147.1430 C   0  0  0  0  0  0  0  0  0  0  0  0
  190.9470  176.6900  144.7590 C   0  0  0  0  0  3  0  0  0  0  0  0
  187.4590  177.5260  146.0760 C   0  0  0  0  0  1  0  0  0  0  0  0
  191.7680  177.1280  148.3240 O   0  0  0  0  0  1  0  0  0  0  0  0
  191.6810  176.7530  145.9440 C   0  0  0  0  0  3  0  0  0  0  0  0
  188.9210  177.2490  145.9740 C   0  0  0  0  0  0  0  0  0  0  0  0
  189.5630  176.9340  144.7470 C   0  0  0  0  0  0  0  0  0  0  0  0
  189.6670  177.3100  147.1550 C   0  0  0  0  0  3  0  0  0  0  0  0
  1  6  2  0  0  0  0
  1 14  1  0  0  0  0
  2 13  1  0  0  0  0
  3  7  1  6  0  0  0
  3  2  1  0  0  0  0
  3 19  1  0  0  0  0
  4 15  1  0  0  0  0
  5 16  1  0  0  0  0
  5  2  2  0  0  0  0
  6 17  1  0  0  0  0
  7  4  2  0  0  0  0
  8 23  1  0  0  0  0
  9  1  1  0  0  0  0
 10 18  2  0  0  0  0
 11  4  1  0  0  0  0
 12  8  1  0  0  0  0
 13  8  2  0  0  0  0
 13 18  1  0  0  0  0
 14  5  1  0  0  0  0
 15 20  2  0  0  0  0
 16 12  1  0  0  0  0
 17 16  2  0  0  0  0
 19 20  1  6  0  0  0
 19 10  1  0  0  0  0
 21 22  2  0  0  0  0
 22 30  1  0  0  0  0
 23 22  1  0  0  0  0
 24 31  1  0  0  0  0
 24 27  1  0  0  0  0
 25 28  1  0  0  0  0
 28 24  2  0  0  0  0
 29 26  1  0  0  0  0
 29 31  2  0  0  0  0
 30 25  2  0  0  0  0
 30 29  1  0  0  0  0
M  END
>  <MODEL>
5

>  <REMARK>
 VINA RESULT:     -10.5      3.628      7.951
  Name = 
  2 active torsions:
  status: ('A' for Active; 'I' for Inactive)
    1  A    between atoms: C_9  and  C_22
    2  A    between atoms: C_15  and  N_23
                            x       y       z     vdW  Elec       q    Type
                         _______ _______ _______ _____ _____    ______ ____

>  <TORSDO>
F 2

$$$$
=
 OpenBabel11052413093D

 31 35  0  0  1  0  0  0  0  0999 V2000
  191.1430  177.0480  142.5660 C   0  0  0  0  0  0  0  0  0  0  0  0
  187.8270  177.8510  144.3120 C   0  0  0  0  0  0  0  0  0  0  0  0
  188.0630  177.8980  145.6530 C   0  0  1  0  0  3  0  0  0  0  0  0
  189.5120  177.4300  147.5750 C   0  0  0  0  0  0  0  0  0  0  0  0
  188.8680  177.5710  143.2720 C   0  0  0  0  0  0  0  0  0  0  0  0
  190.7500  177.1090  141.2290 C   0  0  0  0  0  3  0  0  0  0  0  0
  189.3800  177.5920  146.2550 C   0  0  0  0  0  3  0  0  0  0  0  0
  186.1470  178.0880  142.5160 C   0  0  0  0  0  0  0  0  0  0  0  0
  192.4300  176.7680  142.8830 F   0  0  0  0  0  0  0  0  0  0  0  0
  185.5900  178.2520  146.1150 C   0  0  0  0  0  3  0  0  0  0  0  0
  190.7270  177.1300  148.0930 F   0  0  0  0  0  0  0  0  0  0  0  0
  187.1640  177.9060  141.5690 O   0  0  0  0  0  0  0  0  0  0  0  0
  186.4270  178.0640  143.8320 C   0  0  0  0  0  0  0  0  0  0  0  0
  190.2100  177.2800  143.5780 C   0  0  0  0  0  3  0  0  0  0  0  0
  188.3350  177.4860  148.4630 C   0  0  0  0  0  3  0  0  0  0  0  0
  188.4860  177.6260  141.9180 C   0  0  2  0  0  3  0  0  0  0  0  0
  189.4230  177.3970  140.9060 C   0  0  0  0  0  3  0  0  0  0  0  0
  185.3310  178.1390  144.8180 C   0  0  0  0  0  3  0  0  0  0  0  0
  186.9940  178.4170  146.6060 C   0  0  1  0  0  3  0  0  0  0  0  0
  187.1500  177.9030  148.0100 C   0  0  0  0  0  3  0  0  0  0  0  0
  185.2870  179.3240  140.0420 O   0  0  0  0  0  0  0  0  0  0  0  0
  184.4060  178.9070  140.8410 C   0  0  0  0  0  0  0  0  0  0  0  0
  184.7960  178.2890  142.0760 N   0  0  0  0  0  2  0  0  0  0  0  0
  180.2610  179.3190  139.7680 C   0  0  0  0  0  0  0  0  0  0  0  0
  182.5990  179.1920  139.1720 C   0  0  0  0  0  3  0  0  0  0  0  0
  182.2100  178.8890  142.9610 C   0  0  0  0  0  1  0  0  0  0  0  0
  178.9310  179.4530  139.3960 O   0  0  0  0  0  1  0  0  0  0  0  0
  181.2620  179.3280  138.7960 C   0  0  0  0  0  3  0  0  0  0  0  0
  181.9360  179.0380  141.5020 C   0  0  0  0  0  0  0  0  0  0  0  0
  182.9630  179.0450  140.5210 C   0  0  0  0  0  0  0  0  0  0  0  0
  180.6000  179.1750  141.1130 C   0  0  0  0  0  3  0  0  0  0  0  0
  1  9  1  0  0  0  0
  1 14  2  0  0  0  0
  2  3  1  0  0  0  0
  3  7  1  6  0  0  0
  3 19  1  0  0  0  0
  4 11  1  0  0  0  0
  4 15  1  0  0  0  0
  5 14  1  0  0  0  0
  5  2  2  0  0  0  0
  6  1  1  0  0  0  0
  7  4  2  0  0  0  0
  8 13  2  0  0  0  0
 12 16  1  0  0  0  0
 12  8  1  0  0  0  0
 13  2  1  0  0  0  0
 13 18  1  0  0  0  0
 16 17  1  1  0  0  0
 16  5  1  0  0  0  0
 17  6  2  0  0  0  0
 18 10  2  0  0  0  0
 19 10  1  6  0  0  0
 19 20  1  0  0  0  0
 20 15  2  0  0  0  0
 21 22  2  0  0  0  0
 22 23  1  0  0  0  0
 23  8  1  0  0  0  0
 24 31  1  0  0  0  0
 25 30  2  0  0  0  0
 27 24  1  0  0  0  0
 28 25  1  0  0  0  0
 28 24  2  0  0  0  0
 29 26  1  0  0  0  0
 30 22  1  0  0  0  0
 30 29  1  0  0  0  0
 31 29  2  0  0  0  0
M  END
>  <MODEL>
6

>  <REMARK>
 VINA RESULT:     -10.4      3.260      6.836
  Name = 
  2 active torsions:
  status: ('A' for Active; 'I' for Inactive)
    1  A    between atoms: C_9  and  C_22
    2  A    between atoms: C_15  and  N_23
                            x       y       z     vdW  Elec       q    Type
                         _______ _______ _______ _____ _____    ______ ____

>  <TORSDO>
F 2

$$$$
=
 OpenBabel11052413093D

 31 35  0  0  1  0  0  0  0  0999 V2000
  191.1630  177.2770  141.7560 C   0  0  0  0  0  0  0  0  0  0  0  0
  187.7490  177.9850  143.3460 C   0  0  0  0  0  0  0  0  0  0  0  0
  187.8870  177.8730  144.6960 C   0  0  1  0  0  3  0  0  0  0  0  0
  189.1790  177.1430  146.6490 C   0  0  0  0  0  0  0  0  0  0  0  0
  188.8570  177.7910  142.3560 C   0  0  0  0  0  0  0  0  0  0  0  0
  190.8720  177.5020  140.4110 C   0  0  0  0  0  3  0  0  0  0  0  0
  189.1480  177.4580  145.3510 C   0  0  0  0  0  3  0  0  0  0  0  0
  186.2120  178.4790  141.4760 C   0  0  0  0  0  0  0  0  0  0  0  0
  192.4170  176.9210  142.1280 F   0  0  0  0  0  0  0  0  0  0  0  0
  185.3960  178.2530  145.0220 C   0  0  0  0  0  3  0  0  0  0  0  0
  190.3440  176.7460  147.2120 F   0  0  0  0  0  0  0  0  0  0  0  0
  187.2910  178.3720  140.5870 O   0  0  0  0  0  0  0  0  0  0  0  0
  186.3940  178.2970  142.7970 C   0  0  0  0  0  0  0  0  0  0  0  0
  190.1640  177.4240  142.7200 C   0  0  0  0  0  3  0  0  0  0  0  0
  187.9420  177.1370  147.4520 C   0  0  0  0  0  3  0  0  0  0  0  0
  188.5770  178.0120  140.9950 C   0  0  2  0  0  3  0  0  0  0  0  0
  189.5800  177.8680  140.0310 C   0  0  0  0  0  3  0  0  0  0  0  0
  185.2300  178.2960  143.7050 C   0  0  0  0  0  3  0  0  0  0  0  0
  186.7640  178.3150  145.6250 C   0  0  1  0  0  3  0  0  0  0  0  0
  186.8030  177.6400  146.9680 C   0  0  0  0  0  3  0  0  0  0  0  0
  185.4810  178.9540  138.7140 O   0  0  0  0  0  0  0  0  0  0  0  0
  184.5760  179.0030  139.5900 C   0  0  0  0  0  0  0  0  0  0  0  0
  184.9020  178.7730  140.9680 N   0  0  0  0  0  2  0  0  0  0  0  0
  180.5440  179.9920  138.4640 C   0  0  0  0  0  0  0  0  0  0  0  0
  182.8740  180.5770  138.7200 C   0  0  0  0  0  3  0  0  0  0  0  0
  182.3140  176.9680  139.8430 C   0  0  0  0  0  1  0  0  0  0  0  0
  179.2510  180.3350  138.0940 O   0  0  0  0  0  1  0  0  0  0  0  0
  181.5740  180.9240  138.3470 C   0  0  0  0  0  3  0  0  0  0  0  0
  182.1130  178.3550  139.3310 C   0  0  0  0  0  0  0  0  0  0  0  0
  183.1690  179.2960  139.2150 C   0  0  0  0  0  0  0  0  0  0  0  0
  180.8150  178.7140  138.9540 C   0  0  0  0  0  3  0  0  0  0  0  0
  1  9  1  0  0  0  0
  1 14  2  0  0  0  0
  2  3  1  0  0  0  0
  3  7  1  1  0  0  0
  3 19  1  0  0  0  0
  4 11  1  0  0  0  0
  4 15  1  0  0  0  0
  5 14  1  0  0  0  0
  5  2  2  0  0  0  0
  6  1  1  0  0  0  0
  7  4  2  0  0  0  0
  8 13  2  0  0  0  0
 12 16  1  0  0  0  0
 12  8  1  0  0  0  0
 13  2  1  0  0  0  0
 13 18  1  0  0  0  0
 16 17  1  6  0  0  0
 16  5  1  0  0  0  0
 17  6  2  0  0  0  0
 18 10  2  0  0  0  0
 19 10  1  6  0  0  0
 19 20  1  0  0  0  0
 20 15  2  0  0  0  0
 21 22  2  0  0  0  0
 22 23  1  0  0  0  0
 23  8  1  0  0  0  0
 24 31  1  0  0  0  0
 25 30  2  0  0  0  0
 27 24  1  0  0  0  0
 28 24  2  0  0  0  0
 28 25  1  0  0  0  0
 29 26  1  0  0  0  0
 30 29  1  0  0  0  0
 30 22  1  0  0  0  0
 31 29  2  0  0  0  0
M  END
>  <MODEL>
7

>  <REMARK>
 VINA RESULT:     -10.3      3.739      6.836
  Name = 
  2 active torsions:
  status: ('A' for Active; 'I' for Inactive)
    1  A    between atoms: C_9  and  C_22
    2  A    between atoms: C_15  and  N_23
                            x       y       z     vdW  Elec       q    Type
                         _______ _______ _______ _____ _____    ______ ____

>  <TORSDO>
F 2

$$$$
=
 OpenBabel11052413093D

 31 35  0  0  1  0  0  0  0  0999 V2000
  185.7330  178.1200  146.5830 C   0  0  0  0  0  0  0  0  0  0  0  0
  185.7990  178.4490  142.7650 C   0  0  0  0  0  0  0  0  0  0  0  0
  184.5360  178.7460  142.3510 C   0  0  1  0  0  3  0  0  0  0  0  0
  182.1300  178.8930  142.7990 C   0  0  0  0  0  0  0  0  0  0  0  0
  186.2020  178.2440  144.1930 C   0  0  0  0  0  0  0  0  0  0  0  0
  187.0840  177.8930  146.8450 C   0  0  0  0  0  3  0  0  0  0  0  0
  183.3780  178.8230  143.2690 C   0  0  0  0  0  3  0  0  0  0  0  0
  188.1400  178.0480  142.0840 C   0  0  0  0  0  0  0  0  0  0  0  0
  184.8440  178.1720  147.6040 F   0  0  0  0  0  0  0  0  0  0  0  0
  185.2650  178.6290  139.9200 C   0  0  0  0  0  3  0  0  0  0  0  0
  181.0910  178.9410  143.6660 F   0  0  0  0  0  0  0  0  0  0  0  0
  188.4950  177.9480  143.4360 O   0  0  0  0  0  0  0  0  0  0  0  0
  186.8640  178.2830  141.7280 C   0  0  0  0  0  0  0  0  0  0  0  0
  185.2970  178.2970  145.2680 C   0  0  0  0  0  3  0  0  0  0  0  0
  181.8660  178.8290  141.3490 C   0  0  0  0  0  3  0  0  0  0  0  0
  187.5620  178.0130  144.4730 C   0  0  2  0  0  3  0  0  0  0  0  0
  187.9970  177.8390  145.7910 C   0  0  0  0  0  3  0  0  0  0  0  0
  186.4850  178.2690  140.3020 C   0  0  0  0  0  3  0  0  0  0  0  0
  184.2760  179.1610  140.9090 C   0  0  1  0  0  3  0  0  0  0  0  0
  182.8630  178.9100  140.4630 C   0  0  0  0  0  3  0  0  0  0  0  0
  190.1240  175.9440  141.9200 O   0  0  0  0  0  0  0  0  0  0  0  0
  190.1150  176.8310  141.0230 C   0  0  0  0  0  0  0  0  0  0  0  0
  189.1460  177.8870  141.0740 N   0  0  0  0  0  2  0  0  0  0  0  0
  193.0670  176.7690  137.8960 C   0  0  0  0  0  0  0  0  0  0  0  0
  192.4360  177.1040  140.2030 C   0  0  0  0  0  3  0  0  0  0  0  0
  189.3650  176.1270  138.1490 C   0  0  0  0  0  1  0  0  0  0  0  0
  194.0380  176.7560  136.9040 O   0  0  0  0  0  1  0  0  0  0  0  0
  193.4140  177.0920  139.2080 C   0  0  0  0  0  3  0  0  0  0  0  0
  190.7550  176.4700  138.5710 C   0  0  0  0  0  0  0  0  0  0  0  0
  191.0970  176.7960  139.9100 C   0  0  0  0  0  0  0  0  0  0  0  0
  191.7440  176.4600  137.5820 C   0  0  0  0  0  3  0  0  0  0  0  0
  1  6  1  0  0  0  0
  1  9  1  0  0  0  0
  2  5  2  0  0  0  0
  3  2  1  0  0  0  0
  3  7  1  1  0  0  0
  4  7  2  0  0  0  0
  4 11  1  0  0  0  0
  5 16  1  0  0  0  0
  5 14  1  0  0  0  0
  8 12  1  0  0  0  0
 10 18  2  0  0  0  0
 12 16  1  0  0  0  0
 13  8  2  0  0  0  0
 13  2  1  0  0  0  0
 14  1  2  0  0  0  0
 15  4  1  0  0  0  0
 16 17  1  6  0  0  0
 17  6  2  0  0  0  0
 18 13  1  0  0  0  0
 19 10  1  6  0  0  0
 19  3  1  0  0  0  0
 20 19  1  0  0  0  0
 20 15  2  0  0  0  0
 22 23  1  0  0  0  0
 22 21  2  0  0  0  0
 23  8  1  0  0  0  0
 24 28  1  0  0  0  0
 26 29  1  0  0  0  0
 27 24  1  0  0  0  0
 28 25  2  0  0  0  0
 29 30  2  0  0  0  0
 30 25  1  0  0  0  0
 30 22  1  0  0  0  0
 31 24  2  0  0  0  0
 31 29  1  0  0  0  0
M  END
>  <MODEL>
8

>  <REMARK>
 VINA RESULT:     -10.2      1.786      4.879
  Name = 
  2 active torsions:
  status: ('A' for Active; 'I' for Inactive)
    1  A    between atoms: C_9  and  C_22
    2  A    between atoms: C_15  and  N_23
                            x       y       z     vdW  Elec       q    Type
                         _______ _______ _______ _____ _____    ______ ____

>  <TORSDO>
F 2

$$$$
=
 OpenBabel11052413093D

 31 35  0  0  1  0  0  0  0  0999 V2000
  186.6500  178.0410  146.9800 C   0  0  0  0  0  0  0  0  0  0  0  0
  187.3740  177.9110  143.2190 C   0  0  0  0  0  0  0  0  0  0  0  0
  188.6580  177.4850  143.0560 C   0  0  1  0  0  3  0  0  0  0  0  0
  190.8810  177.0310  143.9850 C   0  0  0  0  0  0  0  0  0  0  0  0
  186.6970  178.0910  144.5430 C   0  0  0  0  0  0  0  0  0  0  0  0
  185.3060  178.4130  146.9700 C   0  0  0  0  0  3  0  0  0  0  0  0
  189.5750  177.2260  144.1890 C   0  0  0  0  0  3  0  0  0  0  0  0
  185.2920  178.6210  142.0960 C   0  0  0  0  0  0  0  0  0  0  0  0
  187.2860  177.8320  148.1570 F   0  0  0  0  0  0  0  0  0  0  0  0
  188.4880  177.8090  140.5420 C   0  0  0  0  0  3  0  0  0  0  0  0
  191.6970  176.8170  145.0450 F   0  0  0  0  0  0  0  0  0  0  0  0
  184.6660  178.6960  143.3470 O   0  0  0  0  0  0  0  0  0  0  0  0
  186.5820  178.2530  141.9980 C   0  0  0  0  0  0  0  0  0  0  0  0
  187.3370  177.8780  145.7760 C   0  0  0  0  0  3  0  0  0  0  0  0
  191.4570  177.1340  142.6310 C   0  0  0  0  0  3  0  0  0  0  0  0
  185.3410  178.4690  144.5480 C   0  0  2  0  0  3  0  0  0  0  0  0
  184.6530  178.6280  145.7550 C   0  0  0  0  0  3  0  0  0  0  0  0
  187.2600  178.2920  140.6870 C   0  0  0  0  0  3  0  0  0  0  0  0
  189.1780  177.1140  141.6740 C   0  0  1  0  0  3  0  0  0  0  0  0
  190.6720  177.2170  141.5540 C   0  0  0  0  0  3  0  0  0  0  0  0
  183.0890  177.1300  140.9500 O   0  0  0  0  0  0  0  0  0  0  0  0
  183.4620  178.1870  140.3720 C   0  0  0  0  0  0  0  0  0  0  0  0
  184.5500  178.9500  140.9120 N   0  0  0  0  0  2  0  0  0  0  0  0
  181.4600  179.6640  136.8640 C   0  0  0  0  0  0  0  0  0  0  0  0
  182.0750  179.8650  139.1900 C   0  0  0  0  0  3  0  0  0  0  0  0
  183.5500  176.6550  137.7330 C   0  0  0  0  0  1  0  0  0  0  0  0
  180.8050  180.1610  135.7450 O   0  0  0  0  0  1  0  0  0  0  0  0
  181.4170  180.3660  138.0670 C   0  0  0  0  0  3  0  0  0  0  0  0
  182.8240  177.9470  137.9040 C   0  0  0  0  0  0  0  0  0  0  0  0
  182.7880  178.6550  139.1350 C   0  0  0  0  0  0  0  0  0  0  0  0
  182.1610  178.4600  136.7850 C   0  0  0  0  0  3  0  0  0  0  0  0
  1  9  1  0  0  0  0
  2  5  2  0  0  0  0
  3  2  1  0  0  0  0
  3  7  1  1  0  0  0
  4  7  2  0  0  0  0
  4 11  1  0  0  0  0
  5 16  1  0  0  0  0
  5 14  1  0  0  0  0
  6  1  1  0  0  0  0
  8 12  1  0  0  0  0
 10 18  2  0  0  0  0
 12 16  1  0  0  0  0
 13  8  2  0  0  0  0
 13  2  1  0  0  0  0
 14  1  2  0  0  0  0
 15  4  1  0  0  0  0
 16 17  1  1  0  0  0
 17  6  2  0  0  0  0
 18 13  1  0  0  0  0
 19 10  1  6  0  0  0
 19  3  1  0  0  0  0
 20 19  1  0  0  0  0
 20 15  2  0  0  0  0
 22 23  1  0  0  0  0
 22 21  2  0  0  0  0
 23  8  1  0  0  0  0
 24 28  1  0  0  0  0
 26 29  1  0  0  0  0
 27 24  1  0  0  0  0
 28 25  2  0  0  0  0
 29 30  2  0  0  0  0
 30 25  1  0  0  0  0
 30 22  1  0  0  0  0
 31 24  2  0  0  0  0
 31 29  1  0  0  0  0
M  END
>  <MODEL>
9

>  <REMARK>
 VINA RESULT:     -10.1      3.740      6.384
  Name = 
  2 active torsions:
  status: ('A' for Active; 'I' for Inactive)
    1  A    between atoms: C_9  and  C_22
    2  A    between atoms: C_15  and  N_23
                            x       y       z     vdW  Elec       q    Type
                         _______ _______ _______ _____ _____    ______ ____

>  <TORSDO>
F 2

$$$$
