=
 OpenBabel11052413453D

 27 31  0  0  1  0  0  0  0  0999 V2000
  190.2120  178.6540  143.3320 C   0  0  0  0  0  2  0  0  0  0  0  0
  188.1180  178.1580  142.0930 C   0  0  0  0  0  0  0  0  0  0  0  0
  187.6160  177.8520  144.5510 N   0  0  0  0  0  2  0  0  0  0  0  0
  183.7980  178.9810  141.5940 S   0  0  0  0  0  0  0  0  0  0  0  0
  182.2870  179.0030  143.9690 C   0  0  0  0  0  1  0  0  0  0  0  0
  187.6070  178.3720  140.7960 C   0  0  0  0  0  3  0  0  0  0  0  0
  184.8150  178.5660  143.8680 C   0  0  0  0  0  0  0  0  0  0  0  0
  190.0490  176.4080  146.9670 C   0  0  0  0  0  3  0  0  0  0  0  0
  184.9600  178.4000  145.2770 N   0  0  0  0  0  1  0  0  0  0  0  0
  191.2760  176.7490  146.3970 C   0  0  0  0  0  0  0  0  0  0  0  0
  185.8750  178.4770  142.9490 C   0  0  0  0  0  0  0  0  0  0  0  0
  189.5290  177.9600  142.2600 N   0  0  0  0  0  0  0  0  0  0  0  0
  183.5900  178.8460  143.2650 C   0  0  0  0  0  0  0  0  0  0  0  0
  185.4490  178.6860  141.6470 C   0  0  0  0  0  0  0  0  0  0  0  0
  190.1220  177.8470  144.5700 C   0  0  0  0  0  0  0  0  0  0  0  0
  187.2310  178.1970  143.2060 C   0  0  0  0  0  0  0  0  0  0  0  0
  188.8590  176.7820  146.3370 C   0  0  0  0  0  3  0  0  0  0  0  0
  186.2880  178.6280  140.5880 N   0  0  0  0  0  0  0  0  0  0  0  0
  192.4300  176.3880  147.0060 F   0  0  0  0  0  0  0  0  0  0  0  0
  191.3100  177.4730  145.2040 C   0  0  0  0  0  3  0  0  0  0  0  0
  188.8800  177.4880  145.1280 C   0  0  0  0  0  0  0  0  0  0  0  0
  191.9670  176.5960  139.1270 C   0  0  0  0  0  3  0  0  0  0  0  0
  190.3290  177.1370  141.3540 C   0  0  1  0  0  3  0  0  0  0  0  0
  189.6930  177.0590  139.9600 C   0  0  0  0  0  2  0  0  0  0  0  0
  190.6500  176.4240  138.9900 C   0  0  0  0  0  3  0  0  0  0  0  0
  192.4880  177.3430  140.2860 C   0  0  0  0  0  3  0  0  0  0  0  0
  191.7130  177.6220  141.2910 N   0  0  0  0  0  0  0  0  0  0  0  0
  1 15  1  0  0  0  0
  2 12  1  0  0  0  0
  2 16  1  0  0  0  0
  3 21  1  0  0  0  0
  4 14  1  0  0  0  0
  4 13  1  0  0  0  0
  6  2  2  0  0  0  0
  7  9  1  0  0  0  0
 10  8  1  0  0  0  0
 10 19  1  0  0  0  0
 11 16  2  0  0  0  0
 11  7  1  0  0  0  0
 12  1  1  0  0  0  0
 13  7  2  0  0  0  0
 13  5  1  0  0  0  0
 14 11  1  0  0  0  0
 15 21  2  0  0  0  0
 15 20  1  0  0  0  0
 16  3  1  0  0  0  0
 17  8  2  0  0  0  0
 18  6  1  0  0  0  0
 18 14  2  0  0  0  0
 20 10  2  0  0  0  0
 21 17  1  0  0  0  0
 22 26  1  0  0  0  0
 23 24  1  6  0  0  0
 23 12  1  0  0  0  0
 25 22  2  0  0  0  0
 25 24  1  0  0  0  0
 26 27  2  0  0  0  0
 27 23  1  0  0  0  0
M  END
>  <MODEL>
1

>  <REMARK>
 VINA RESULT:      -9.7      0.000      0.000
  Name = 
  1 active torsions:
  status: ('A' for Active; 'I' for Inactive)
    1  A    between atoms: C_9  and  N_15
                            x       y       z     vdW  Elec       q    Type
                         _______ _______ _______ _____ _____    ______ ____

>  <TORSDO>
F 1

$$$$
=
 OpenBabel11052413453D

 27 31  0  0  1  0  0  0  0  0999 V2000
  187.8160  176.4990  143.9270 C   0  0  0  0  0  2  0  0  0  0  0  0
  185.8880  178.0020  144.3590 C   0  0  0  0  0  0  0  0  0  0  0  0
  186.3740  178.1130  141.8810 N   0  0  0  0  0  2  0  0  0  0  0  0
  181.7380  179.1350  143.3150 S   0  0  0  0  0  0  0  0  0  0  0  0
  181.2060  179.3830  140.5620 C   0  0  0  0  0  1  0  0  0  0  0  0
  184.9560  178.2200  145.3950 C   0  0  0  0  0  3  0  0  0  0  0  0
  183.4910  178.7390  141.5400 C   0  0  0  0  0  0  0  0  0  0  0  0
  189.8160  178.0290  140.4710 C   0  0  0  0  0  3  0  0  0  0  0  0
  184.1290  178.6140  140.2710 N   0  0  0  0  0  1  0  0  0  0  0  0
  190.5160  177.3010  141.4320 C   0  0  0  0  0  0  0  0  0  0  0  0
  184.1320  178.5180  142.7720 C   0  0  0  0  0  0  0  0  0  0  0  0
  187.2130  177.5680  144.6950 N   0  0  0  0  0  0  0  0  0  0  0  0
  182.1480  179.0890  141.6770 C   0  0  0  0  0  0  0  0  0  0  0  0
  183.2720  178.7050  143.8420 C   0  0  0  0  0  0  0  0  0  0  0  0
  188.4870  177.0720  142.7380 C   0  0  0  0  0  0  0  0  0  0  0  0
  185.4750  178.1670  143.0060 C   0  0  0  0  0  0  0  0  0  0  0  0
  188.4530  178.2850  140.6450 C   0  0  0  0  0  3  0  0  0  0  0  0
  183.6690  178.5700  145.1280 N   0  0  0  0  0  0  0  0  0  0  0  0
  191.8370  177.0520  141.2670 F   0  0  0  0  0  0  0  0  0  0  0  0
  189.8500  176.8180  142.5600 C   0  0  0  0  0  3  0  0  0  0  0  0
  187.7780  177.8260  141.7820 C   0  0  0  0  0  0  0  0  0  0  0  0
  189.2840  178.0530  148.3140 C   0  0  0  0  0  3  0  0  0  0  0  0
  187.9640  178.1110  145.8260 C   0  0  1  0  0  3  0  0  0  0  0  0
  187.1300  178.0890  147.1140 C   0  0  0  0  0  2  0  0  0  0  0  0
  187.9990  178.4140  148.2970 C   0  0  0  0  0  3  0  0  0  0  0  0
  189.8750  177.4070  147.1290 C   0  0  0  0  0  3  0  0  0  0  0  0
  189.2390  177.4050  145.9940 N   0  0  0  0  0  0  0  0  0  0  0  0
  1 12  1  0  0  0  0
  2 12  1  0  0  0  0
  2  6  1  0  0  0  0
  3 16  1  0  0  0  0
  4 14  1  0  0  0  0
  5 13  1  0  0  0  0
  7 13  2  0  0  0  0
  7 11  1  0  0  0  0
  8 17  2  0  0  0  0
  8 10  1  0  0  0  0
  9  7  1  0  0  0  0
 10 20  2  0  0  0  0
 11 16  1  0  0  0  0
 11 14  2  0  0  0  0
 13  4  1  0  0  0  0
 14 18  1  0  0  0  0
 15  1  1  0  0  0  0
 16  2  2  0  0  0  0
 17 21  1  0  0  0  0
 18  6  2  0  0  0  0
 19 10  1  0  0  0  0
 20 15  1  0  0  0  0
 21  3  1  0  0  0  0
 21 15  2  0  0  0  0
 23 12  1  6  0  0  0
 23 27  1  0  0  0  0
 23 24  1  0  0  0  0
 24 25  1  0  0  0  0
 25 22  2  0  0  0  0
 26 22  1  0  0  0  0
 27 26  2  0  0  0  0
M  END
>  <MODEL>
2

>  <REMARK>
 VINA RESULT:      -9.7      2.234      5.079
  Name = 
  1 active torsions:
  status: ('A' for Active; 'I' for Inactive)
    1  A    between atoms: C_9  and  N_15
                            x       y       z     vdW  Elec       q    Type
                         _______ _______ _______ _____ _____    ______ ____

>  <TORSDO>
F 1

$$$$
=
 OpenBabel11052413453D

 27 31  0  0  1  0  0  0  0  0999 V2000
  186.8040  176.6690  144.5230 C   0  0  0  0  0  2  0  0  0  0  0  0
  187.6060  177.7800  142.4530 C   0  0  0  0  0  0  0  0  0  0  0  0
  189.6080  177.5090  143.9720 N   0  0  0  0  0  2  0  0  0  0  0  0
  190.4960  177.7770  139.1000 S   0  0  0  0  0  0  0  0  0  0  0  0
  193.1850  177.3670  139.8200 C   0  0  0  0  0  1  0  0  0  0  0  0
  187.1320  177.9910  141.1410 C   0  0  0  0  0  3  0  0  0  0  0  0
  191.2360  177.4280  141.4890 C   0  0  0  0  0  0  0  0  0  0  0  0
  189.4310  177.8900  147.6690 C   0  0  0  0  0  3  0  0  0  0  0  0
  192.0560  177.1980  142.6330 N   0  0  0  0  0  1  0  0  0  0  0  0
  188.1130  177.5280  147.9450 C   0  0  0  0  0  0  0  0  0  0  0  0
  189.8400  177.5920  141.5370 C   0  0  0  0  0  0  0  0  0  0  0  0
  186.6600  177.7120  143.5300 N   0  0  0  0  0  0  0  0  0  0  0  0
  191.7510  177.5030  140.1960 C   0  0  0  0  0  0  0  0  0  0  0  0
  189.3000  177.7950  140.2780 C   0  0  0  0  0  0  0  0  0  0  0  0
  187.7280  177.1300  145.5850 C   0  0  0  0  0  0  0  0  0  0  0  0
  189.0000  177.5880  142.6680 C   0  0  0  0  0  0  0  0  0  0  0  0
  189.8970  177.8780  146.3510 C   0  0  0  0  0  3  0  0  0  0  0  0
  187.9790  178.0000  140.0760 N   0  0  0  0  0  0  0  0  0  0  0  0
  187.6580  177.5400  149.2200 F   0  0  0  0  0  0  0  0  0  0  0  0
  187.2660  177.1430  146.9040 C   0  0  0  0  0  3  0  0  0  0  0  0
  189.0510  177.5150  145.2960 C   0  0  0  0  0  0  0  0  0  0  0  0
  182.8450  179.3380  144.1740 C   0  0  0  0  0  3  0  0  0  0  0  0
  185.5130  178.6120  143.6380 C   0  0  1  0  0  3  0  0  0  0  0  0
  184.4220  178.2530  142.6210 C   0  0  0  0  0  2  0  0  0  0  0  0
  183.1650  179.0230  142.9180 C   0  0  0  0  0  3  0  0  0  0  0  0
  183.7720  179.0030  145.2700 C   0  0  0  0  0  3  0  0  0  0  0  0
  184.9910  178.6300  145.0090 N   0  0  0  0  0  0  0  0  0  0  0  0
  1 15  1  0  0  0  0
  2 16  1  0  0  0  0
  2 12  1  0  0  0  0
  3 21  1  0  0  0  0
  4 13  1  0  0  0  0
  4 14  1  0  0  0  0
  5 13  1  0  0  0  0
  6  2  2  0  0  0  0
  7 11  1  0  0  0  0
  7  9  1  0  0  0  0
  8 10  1  0  0  0  0
 10 19  1  0  0  0  0
 11 16  2  0  0  0  0
 12 23  1  0  0  0  0
 12  1  1  0  0  0  0
 13  7  2  0  0  0  0
 14 11  1  0  0  0  0
 15 20  1  0  0  0  0
 16  3  1  0  0  0  0
 17  8  2  0  0  0  0
 18 14  2  0  0  0  0
 18  6  1  0  0  0  0
 20 10  2  0  0  0  0
 21 15  2  0  0  0  0
 21 17  1  0  0  0  0
 22 26  1  0  0  0  0
 23 24  1  6  0  0  0
 23 27  1  0  0  0  0
 24 25  1  0  0  0  0
 25 22  2  0  0  0  0
 27 26  2  0  0  0  0
M  END
>  <MODEL>
3

>  <REMARK>
 VINA RESULT:      -9.6      2.129      5.933
  Name = 
  1 active torsions:
  status: ('A' for Active; 'I' for Inactive)
    1  A    between atoms: C_9  and  N_15
                            x       y       z     vdW  Elec       q    Type
                         _______ _______ _______ _____ _____    ______ ____

>  <TORSDO>
F 1

$$$$
=
 OpenBabel11052413453D

 27 31  0  0  1  0  0  0  0  0999 V2000
  187.6600  179.1850  141.4690 C   0  0  0  0  0  2  0  0  0  0  0  0
  187.4000  178.0240  143.6480 C   0  0  0  0  0  0  0  0  0  0  0  0
  189.6050  177.2730  142.6660 N   0  0  0  0  0  2  0  0  0  0  0  0
  189.1540  177.0790  147.6010 S   0  0  0  0  0  0  0  0  0  0  0  0
  191.8360  176.2270  147.5630 C   0  0  0  0  0  1  0  0  0  0  0  0
  186.5980  178.1540  144.8010 C   0  0  0  0  0  3  0  0  0  0  0  0
  190.4930  176.8640  145.4710 C   0  0  0  0  0  0  0  0  0  0  0  0
  190.1230  176.6810  139.0290 C   0  0  0  0  0  3  0  0  0  0  0  0
  191.5660  176.6170  144.5650 N   0  0  0  0  0  1  0  0  0  0  0  0
  189.1980  177.5490  138.4500 C   0  0  0  0  0  0  0  0  0  0  0  0
  189.2180  177.3130  145.0820 C   0  0  0  0  0  0  0  0  0  0  0  0
  186.8520  178.3970  142.3760 N   0  0  0  0  0  0  0  0  0  0  0  0
  190.6150  176.6890  146.8480 C   0  0  0  0  0  0  0  0  0  0  0  0
  188.3740  177.4730  146.1680 C   0  0  0  0  0  0  0  0  0  0  0  0
  188.5020  178.2800  140.6540 C   0  0  0  0  0  0  0  0  0  0  0  0
  188.7460  177.5780  143.7820 C   0  0  0  0  0  0  0  0  0  0  0  0
  190.2340  176.6080  140.4210 C   0  0  0  0  0  3  0  0  0  0  0  0
  187.0890  177.8760  146.0390 N   0  0  0  0  0  0  0  0  0  0  0  0
  189.0870  177.6220  137.1020 F   0  0  0  0  0  0  0  0  0  0  0  0
  188.3940  178.3510  139.2620 C   0  0  0  0  0  3  0  0  0  0  0  0
  189.4180  177.3910  141.2470 C   0  0  0  0  0  0  0  0  0  0  0  0
  182.8690  178.5940  141.0670 C   0  0  0  0  0  3  0  0  0  0  0  0
  185.4850  178.0720  141.9730 C   0  0  1  0  0  3  0  0  0  0  0  0
  184.4590  178.6630  142.9500 C   0  0  0  0  0  2  0  0  0  0  0  0
  183.0720  178.5320  142.3850 C   0  0  0  0  0  3  0  0  0  0  0  0
  184.0220  178.7080  140.1560 C   0  0  0  0  0  3  0  0  0  0  0  0
  185.2290  178.5040  140.5950 N   0  0  0  0  0  0  0  0  0  0  0  0
  1 12  1  0  0  0  0
  2 16  2  0  0  0  0
  2  6  1  0  0  0  0
  3 16  1  0  0  0  0
  6 18  2  0  0  0  0
  7 13  2  0  0  0  0
  8 17  1  0  0  0  0
  9  7  1  0  0  0  0
 10  8  2  0  0  0  0
 10 20  1  0  0  0  0
 11  7  1  0  0  0  0
 11 14  2  0  0  0  0
 12  2  1  0  0  0  0
 13  5  1  0  0  0  0
 13  4  1  0  0  0  0
 14  4  1  0  0  0  0
 15 21  1  0  0  0  0
 15  1  1  0  0  0  0
 16 11  1  0  0  0  0
 17 21  2  0  0  0  0
 18 14  1  0  0  0  0
 19 10  1  0  0  0  0
 20 15  2  0  0  0  0
 21  3  1  0  0  0  0
 22 25  2  0  0  0  0
 23 12  1  1  0  0  0
 23 24  1  0  0  0  0
 25 24  1  0  0  0  0
 26 27  2  0  0  0  0
 26 22  1  0  0  0  0
 27 23  1  0  0  0  0
M  END
>  <MODEL>
4

>  <REMARK>
 VINA RESULT:      -9.3      2.915      6.556
  Name = 
  1 active torsions:
  status: ('A' for Active; 'I' for Inactive)
    1  A    between atoms: C_9  and  N_15
                            x       y       z     vdW  Elec       q    Type
                         _______ _______ _______ _____ _____    ______ ____

>  <TORSDO>
F 1

$$$$
=
 OpenBabel11052413453D

 27 31  0  0  1  0  0  0  0  0999 V2000
  190.1650  178.6980  144.5330 C   0  0  0  0  0  2  0  0  0  0  0  0
  190.4960  177.6470  142.3090 C   0  0  0  0  0  0  0  0  0  0  0  0
  188.0060  177.9470  142.6240 N   0  0  0  0  0  2  0  0  0  0  0  0
  189.6840  177.7900  137.9600 S   0  0  0  0  0  0  0  0  0  0  0  0
  187.0040  178.2630  137.2430 C   0  0  0  0  0  1  0  0  0  0  0  0
  191.5610  177.4470  141.4070 C   0  0  0  0  0  3  0  0  0  0  0  0
  187.8480  178.1170  139.6630 C   0  0  0  0  0  0  0  0  0  0  0  0
  186.2940  177.4950  145.8960 C   0  0  0  0  0  3  0  0  0  0  0  0
  186.5680  178.3490  140.2470 N   0  0  0  0  0  1  0  0  0  0  0  0
  187.3000  177.8150  146.8080 C   0  0  0  0  0  0  0  0  0  0  0  0
  189.0280  177.9140  140.4010 C   0  0  0  0  0  0  0  0  0  0  0  0
  190.7720  177.6690  143.7160 N   0  0  0  0  0  0  0  0  0  0  0  0
  188.0520  178.0800  138.2840 C   0  0  0  0  0  0  0  0  0  0  0  0
  190.1250  177.7180  139.5780 C   0  0  0  0  0  0  0  0  0  0  0  0
  188.8260  178.2440  144.9730 C   0  0  0  0  0  0  0  0  0  0  0  0
  189.1860  177.8740  141.8000 C   0  0  0  0  0  0  0  0  0  0  0  0
  186.5540  177.5440  144.5240 C   0  0  0  0  0  3  0  0  0  0  0  0
  191.3650  177.4810  140.0610 N   0  0  0  0  0  0  0  0  0  0  0  0
  187.0510  177.7680  148.1380 F   0  0  0  0  0  0  0  0  0  0  0  0
  188.5610  178.1950  146.3450 C   0  0  0  0  0  3  0  0  0  0  0  0
  187.8210  177.9020  144.0480 C   0  0  0  0  0  0  0  0  0  0  0  0
  192.4510  174.4610  145.8390 C   0  0  0  0  0  3  0  0  0  0  0  0
  191.6960  176.7360  144.3600 C   0  0  1  0  0  3  0  0  0  0  0  0
  191.5310  176.7480  145.8860 C   0  0  0  0  0  2  0  0  0  0  0  0
  192.3040  175.6130  146.4980 C   0  0  0  0  0  3  0  0  0  0  0  0
  191.9240  174.3320  144.4690 C   0  0  0  0  0  3  0  0  0  0  0  0
  191.5410  175.3850  143.8090 N   0  0  0  0  0  0  0  0  0  0  0  0
  1 15  1  0  0  0  0
  2 12  1  0  0  0  0
  3 21  1  0  0  0  0
  4 13  1  0  0  0  0
  4 14  1  0  0  0  0
  5 13  1  0  0  0  0
  6  2  2  0  0  0  0
  7  9  1  0  0  0  0
  7 11  1  0  0  0  0
  8 10  1  0  0  0  0
 10 19  1  0  0  0  0
 11 16  2  0  0  0  0
 12  1  1  0  0  0  0
 13  7  2  0  0  0  0
 14 18  2  0  0  0  0
 14 11  1  0  0  0  0
 15 20  1  0  0  0  0
 16  2  1  0  0  0  0
 16  3  1  0  0  0  0
 17  8  2  0  0  0  0
 18  6  1  0  0  0  0
 20 10  2  0  0  0  0
 21 17  1  0  0  0  0
 21 15  2  0  0  0  0
 22 25  2  0  0  0  0
 23 12  1  6  0  0  0
 23 24  1  0  0  0  0
 24 25  1  0  0  0  0
 26 22  1  0  0  0  0
 27 23  1  0  0  0  0
 27 26  2  0  0  0  0
M  END
>  <MODEL>
5

>  <REMARK>
 VINA RESULT:      -9.2      2.597      4.764
  Name = 
  1 active torsions:
  status: ('A' for Active; 'I' for Inactive)
    1  A    between atoms: C_9  and  N_15
                            x       y       z     vdW  Elec       q    Type
                         _______ _______ _______ _____ _____    ______ ____

>  <TORSDO>
F 1

$$$$
=
 OpenBabel11052413453D

 27 31  0  0  1  0  0  0  0  0999 V2000
  186.4630  179.3490  141.7490 C   0  0  0  0  0  2  0  0  0  0  0  0
  186.4460  178.1470  143.9210 C   0  0  0  0  0  0  0  0  0  0  0  0
  188.6060  177.5420  142.7550 N   0  0  0  0  0  2  0  0  0  0  0  0
  188.5620  177.2600  147.7070 S   0  0  0  0  0  0  0  0  0  0  0  0
  191.2780  176.5710  147.4430 C   0  0  0  0  0  1  0  0  0  0  0  0
  185.7330  178.2150  145.1360 C   0  0  0  0  0  3  0  0  0  0  0  0
  189.7370  177.1520  145.4740 C   0  0  0  0  0  0  0  0  0  0  0  0
  188.8670  177.0270  139.0800 C   0  0  0  0  0  3  0  0  0  0  0  0
  190.7470  176.9810  144.4820 N   0  0  0  0  0  1  0  0  0  0  0  0
  187.8490  177.8450  138.5900 C   0  0  0  0  0  0  0  0  0  0  0  0
  188.4110  177.5290  145.1940 C   0  0  0  0  0  0  0  0  0  0  0  0
  185.7780  178.5020  142.7020 N   0  0  0  0  0  0  0  0  0  0  0  0
  189.9790  176.9670  146.8340 C   0  0  0  0  0  0  0  0  0  0  0  0
  187.6480  177.6250  146.3470 C   0  0  0  0  0  0  0  0  0  0  0  0
  187.2890  178.5060  140.8540 C   0  0  0  0  0  0  0  0  0  0  0  0
  187.8220  177.7810  143.9410 C   0  0  0  0  0  0  0  0  0  0  0  0
  189.0920  176.9430  140.4560 C   0  0  0  0  0  3  0  0  0  0  0  0
  186.3360  177.9510  146.3260 N   0  0  0  0  0  0  0  0  0  0  0  0
  187.6270  177.9280  137.2560 F   0  0  0  0  0  0  0  0  0  0  0  0
  187.0670  178.5880  139.4760 C   0  0  0  0  0  3  0  0  0  0  0  0
  188.3010  177.6660  141.3570 C   0  0  0  0  0  0  0  0  0  0  0  0
  181.7840  178.4070  141.4140 C   0  0  0  0  0  3  0  0  0  0  0  0
  184.4040  178.1020  142.4040 C   0  0  1  0  0  3  0  0  0  0  0  0
  183.3920  178.9280  143.2080 C   0  0  0  0  0  2  0  0  0  0  0  0
  181.9990  178.6740  142.7040 C   0  0  0  0  0  3  0  0  0  0  0  0
  182.9290  178.2770  140.4950 C   0  0  0  0  0  3  0  0  0  0  0  0
  184.1390  178.1770  140.9620 N   0  0  0  0  0  0  0  0  0  0  0  0
  1 12  1  0  0  0  0
  2 16  2  0  0  0  0
  2  6  1  0  0  0  0
  3 16  1  0  0  0  0
  6 18  2  0  0  0  0
  7 13  2  0  0  0  0
  8 17  1  0  0  0  0
  9  7  1  0  0  0  0
 10  8  2  0  0  0  0
 10 20  1  0  0  0  0
 11  7  1  0  0  0  0
 11 14  2  0  0  0  0
 12  2  1  0  0  0  0
 13  5  1  0  0  0  0
 13  4  1  0  0  0  0
 14  4  1  0  0  0  0
 15 21  1  0  0  0  0
 15  1  1  0  0  0  0
 16 11  1  0  0  0  0
 17 21  2  0  0  0  0
 18 14  1  0  0  0  0
 19 10  1  0  0  0  0
 20 15  2  0  0  0  0
 21  3  1  0  0  0  0
 22 25  2  0  0  0  0
 23 12  1  6  0  0  0
 23 24  1  0  0  0  0
 25 24  1  0  0  0  0
 26 27  2  0  0  0  0
 26 22  1  0  0  0  0
 27 23  1  0  0  0  0
M  END
>  <MODEL>
6

>  <REMARK>
 VINA RESULT:      -9.2      3.103      6.809
  Name = 
  1 active torsions:
  status: ('A' for Active; 'I' for Inactive)
    1  A    between atoms: C_9  and  N_15
                            x       y       z     vdW  Elec       q    Type
                         _______ _______ _______ _____ _____    ______ ____

>  <TORSDO>
F 1

$$$$
=
 OpenBabel11052413453D

 27 31  0  0  1  0  0  0  0  0999 V2000
  187.6140  176.6500  143.6520 C   0  0  0  0  0  2  0  0  0  0  0  0
  186.9160  178.0130  141.6980 C   0  0  0  0  0  0  0  0  0  0  0  0
  189.4270  177.7540  141.5620 N   0  0  0  0  0  2  0  0  0  0  0  0
  187.0110  178.5560  137.3060 S   0  0  0  0  0  0  0  0  0  0  0  0
  189.5430  178.2890  136.1080 C   0  0  0  0  0  1  0  0  0  0  0  0
  185.7160  178.3110  141.0200 C   0  0  0  0  0  3  0  0  0  0  0  0
  189.1020  178.0380  138.6240 C   0  0  0  0  0  0  0  0  0  0  0  0
  191.6440  177.7650  144.5500 C   0  0  0  0  0  3  0  0  0  0  0  0
  190.4620  177.7640  138.9530 N   0  0  0  0  0  1  0  0  0  0  0  0
  190.8030  177.2770  145.5500 C   0  0  0  0  0  0  0  0  0  0  0  0
  188.0560  178.0870  139.5630 C   0  0  0  0  0  0  0  0  0  0  0  0
  186.8730  177.7690  143.1120 N   0  0  0  0  0  0  0  0  0  0  0  0
  188.6760  178.2760  137.3180 C   0  0  0  0  0  0  0  0  0  0  0  0
  186.8380  178.3680  138.9650 C   0  0  0  0  0  0  0  0  0  0  0  0
  189.0030  177.0780  143.9380 C   0  0  0  0  0  0  0  0  0  0  0  0
  188.1280  177.9100  140.9580 C   0  0  0  0  0  0  0  0  0  0  0  0
  191.1650  177.9150  143.2460 C   0  0  0  0  0  3  0  0  0  0  0  0
  185.6910  178.4880  139.6710 N   0  0  0  0  0  0  0  0  0  0  0  0
  191.2650  177.1310  146.8140 F   0  0  0  0  0  0  0  0  0  0  0  0
  189.4870  176.9280  145.2410 C   0  0  0  0  0  3  0  0  0  0  0  0
  189.8400  177.5900  142.9280 C   0  0  0  0  0  0  0  0  0  0  0  0
  184.2200  179.0140  146.1170 C   0  0  0  0  0  3  0  0  0  0  0  0
  186.0580  178.5630  144.0300 C   0  0  1  0  0  3  0  0  0  0  0  0
  184.5600  178.3650  143.7630 C   0  0  0  0  0  2  0  0  0  0  0  0
  183.7510  178.9860  144.8670 C   0  0  0  0  0  3  0  0  0  0  0  0
  185.5750  178.5070  146.3990 C   0  0  0  0  0  3  0  0  0  0  0  0
  186.4020  178.2640  145.4250 N   0  0  0  0  0  0  0  0  0  0  0  0
  1 15  1  0  0  0  0
  2 12  1  0  0  0  0
  3 21  1  0  0  0  0
  4 13  1  0  0  0  0
  4 14  1  0  0  0  0
  5 13  1  0  0  0  0
  6  2  1  0  0  0  0
  7  9  1  0  0  0  0
  7 11  1  0  0  0  0
  8 10  1  0  0  0  0
 10 19  1  0  0  0  0
 11 16  1  0  0  0  0
 12  1  1  0  0  0  0
 13  7  2  0  0  0  0
 14 11  2  0  0  0  0
 14 18  1  0  0  0  0
 15 20  1  0  0  0  0
 16  3  1  0  0  0  0
 16  2  2  0  0  0  0
 17  8  2  0  0  0  0
 18  6  2  0  0  0  0
 20 10  2  0  0  0  0
 21 17  1  0  0  0  0
 21 15  2  0  0  0  0
 22 26  1  0  0  0  0
 23 12  1  6  0  0  0
 23 27  1  0  0  0  0
 24 23  1  0  0  0  0
 24 25  1  0  0  0  0
 25 22  2  0  0  0  0
 27 26  2  0  0  0  0
M  END
>  <MODEL>
7

>  <REMARK>
 VINA RESULT:      -9.0      1.958      5.571
  Name = 
  1 active torsions:
  status: ('A' for Active; 'I' for Inactive)
    1  A    between atoms: C_9  and  N_15
                            x       y       z     vdW  Elec       q    Type
                         _______ _______ _______ _____ _____    ______ ____

>  <TORSDO>
F 1

$$$$
=
 OpenBabel11052413453D

 27 31  0  0  1  0  0  0  0  0999 V2000
  188.6850  179.1140  141.5870 C   0  0  0  0  0  2  0  0  0  0  0  0
  186.4400  178.4430  140.7690 C   0  0  0  0  0  0  0  0  0  0  0  0
  186.4350  178.1400  143.2780 N   0  0  0  0  0  2  0  0  0  0  0  0
  182.0530  178.9320  141.0970 S   0  0  0  0  0  0  0  0  0  0  0  0
  181.0210  178.8800  143.7140 C   0  0  0  0  0  1  0  0  0  0  0  0
  185.6780  178.5960  139.5910 C   0  0  0  0  0  3  0  0  0  0  0  0
  183.5100  178.6320  143.1380 C   0  0  0  0  0  0  0  0  0  0  0  0
  189.3840  176.9220  145.1920 C   0  0  0  0  0  3  0  0  0  0  0  0
  183.9300  178.5000  144.4930 N   0  0  0  0  0  1  0  0  0  0  0  0
  190.4510  177.3440  144.3990 C   0  0  0  0  0  0  0  0  0  0  0  0
  184.3810  178.6080  142.0340 C   0  0  0  0  0  0  0  0  0  0  0  0
  187.8680  178.3540  140.6660 N   0  0  0  0  0  0  0  0  0  0  0  0
  182.1750  178.8100  142.7770 C   0  0  0  0  0  0  0  0  0  0  0  0
  183.7020  178.7630  140.8360 C   0  0  0  0  0  0  0  0  0  0  0  0
  188.8930  178.3230  142.8220 C   0  0  0  0  0  0  0  0  0  0  0  0
  185.7780  178.4330  142.0300 C   0  0  0  0  0  0  0  0  0  0  0  0
  188.0720  177.1950  144.7980 C   0  0  0  0  0  3  0  0  0  0  0  0
  184.3270  178.7500  139.6380 N   0  0  0  0  0  0  0  0  0  0  0  0
  191.7250  177.0800  144.7780 F   0  0  0  0  0  0  0  0  0  0  0  0
  190.2040  178.0490  143.2200 C   0  0  0  0  0  3  0  0  0  0  0  0
  187.8100  177.8810  143.6060 C   0  0  0  0  0  0  0  0  0  0  0  0
  190.6820  176.7970  137.9680 C   0  0  0  0  0  3  0  0  0  0  0  0
  188.5430  177.5780  139.6260 C   0  0  1  0  0  3  0  0  0  0  0  0
  188.9180  178.4570  138.4260 C   0  0  0  0  0  2  0  0  0  0  0  0
  189.8220  177.7010  137.4930 C   0  0  0  0  0  3  0  0  0  0  0  0
  190.6860  176.4800  139.4080 C   0  0  0  0  0  3  0  0  0  0  0  0
  189.7120  176.8800  140.1720 N   0  0  0  0  0  0  0  0  0  0  0  0
  1 15  1  0  0  0  0
  2 16  1  0  0  0  0
  3 21  1  0  0  0  0
  4 13  1  0  0  0  0
  6 18  1  0  0  0  0
  6  2  2  0  0  0  0
  7  9  1  0  0  0  0
 10 19  1  0  0  0  0
 10  8  2  0  0  0  0
 11  7  1  0  0  0  0
 12  2  1  0  0  0  0
 12  1  1  0  0  0  0
 13  7  2  0  0  0  0
 13  5  1  0  0  0  0
 14  4  1  0  0  0  0
 14 11  1  0  0  0  0
 15 20  2  0  0  0  0
 15 21  1  0  0  0  0
 16 11  2  0  0  0  0
 16  3  1  0  0  0  0
 17  8  1  0  0  0  0
 18 14  2  0  0  0  0
 20 10  1  0  0  0  0
 21 17  2  0  0  0  0
 22 26  1  0  0  0  0
 23 24  1  6  0  0  0
 23 27  1  0  0  0  0
 23 12  1  0  0  0  0
 25 22  2  0  0  0  0
 25 24  1  0  0  0  0
 26 27  2  0  0  0  0
M  END
>  <MODEL>
8

>  <REMARK>
 VINA RESULT:      -8.9      1.513      2.033
  Name = 
  1 active torsions:
  status: ('A' for Active; 'I' for Inactive)
    1  A    between atoms: C_9  and  N_15
                            x       y       z     vdW  Elec       q    Type
                         _______ _______ _______ _____ _____    ______ ____

>  <TORSDO>
F 1

$$$$
=
 OpenBabel11052413453D

 27 31  0  0  1  0  0  0  0  0999 V2000
  188.5450  176.4520  142.5260 C   0  0  0  0  0  2  0  0  0  0  0  0
  186.9000  177.8660  143.7340 C   0  0  0  0  0  0  0  0  0  0  0  0
  186.4610  178.1640  141.2630 N   0  0  0  0  0  2  0  0  0  0  0  0
  182.6530  178.9530  144.3410 S   0  0  0  0  0  0  0  0  0  0  0  0
  181.1640  179.3780  141.9910 C   0  0  0  0  0  1  0  0  0  0  0  0
  186.4050  177.9840  145.0500 C   0  0  0  0  0  3  0  0  0  0  0  0
  183.6480  178.7320  142.0300 C   0  0  0  0  0  0  0  0  0  0  0  0
  189.1630  178.2770  138.7080 C   0  0  0  0  0  3  0  0  0  0  0  0
  183.7860  178.7140  140.6110 N   0  0  0  0  0  1  0  0  0  0  0  0
  190.1630  177.5030  139.2950 C   0  0  0  0  0  0  0  0  0  0  0  0
  184.6900  178.4420  142.9290 C   0  0  0  0  0  0  0  0  0  0  0  0
  188.2590  177.4470  143.5380 N   0  0  0  0  0  0  0  0  0  0  0  0
  182.4450  179.0330  142.6670 C   0  0  0  0  0  0  0  0  0  0  0  0
  184.2740  178.5300  144.2480 C   0  0  0  0  0  0  0  0  0  0  0  0
  188.7410  177.1260  141.2220 C   0  0  0  0  0  0  0  0  0  0  0  0
  186.0280  178.1140  142.6370 C   0  0  0  0  0  0  0  0  0  0  0  0
  187.9540  178.4810  139.3790 C   0  0  0  0  0  3  0  0  0  0  0  0
  185.1080  178.3160  145.2900 N   0  0  0  0  0  0  0  0  0  0  0  0
  191.3360  177.3030  138.6480 F   0  0  0  0  0  0  0  0  0  0  0  0
  189.9490  176.9230  140.5470 C   0  0  0  0  0  3  0  0  0  0  0  0
  187.7350  177.9240  140.6450 C   0  0  0  0  0  0  0  0  0  0  0  0
  192.0550  178.4410  145.0250 C   0  0  0  0  0  3  0  0  0  0  0  0
  189.3660  177.9300  144.3610 C   0  0  1  0  0  3  0  0  0  0  0  0
  190.2490  176.7730  144.8470 C   0  0  0  0  0  2  0  0  0  0  0  0
  191.5070  177.3090  145.4720 C   0  0  0  0  0  3  0  0  0  0  0  0
  191.3780  179.2130  143.9680 C   0  0  0  0  0  3  0  0  0  0  0  0
  190.1480  178.9420  143.6420 N   0  0  0  0  0  0  0  0  0  0  0  0
  1 12  1  0  0  0  0
  2  6  1  0  0  0  0
  3 16  1  0  0  0  0
  5 13  1  0  0  0  0
  6 18  2  0  0  0  0
  7 13  2  0  0  0  0
  7 11  1  0  0  0  0
  8 10  2  0  0  0  0
  8 17  1  0  0  0  0
  9  7  1  0  0  0  0
 10 20  1  0  0  0  0
 11 14  2  0  0  0  0
 12  2  1  0  0  0  0
 13  4  1  0  0  0  0
 14  4  1  0  0  0  0
 14 18  1  0  0  0  0
 15  1  1  0  0  0  0
 16 11  1  0  0  0  0
 16  2  2  0  0  0  0
 17 21  2  0  0  0  0
 19 10  1  0  0  0  0
 20 15  2  0  0  0  0
 21 15  1  0  0  0  0
 21  3  1  0  0  0  0
 22 25  2  0  0  0  0
 23 12  1  6  0  0  0
 23 24  1  0  0  0  0
 24 25  1  0  0  0  0
 26 22  1  0  0  0  0
 27 26  2  0  0  0  0
 27 23  1  0  0  0  0
M  END
>  <MODEL>
9

>  <REMARK>
 VINA RESULT:      -8.6      2.209      4.632
  Name = 
  1 active torsions:
  status: ('A' for Active; 'I' for Inactive)
    1  A    between atoms: C_9  and  N_15
                            x       y       z     vdW  Elec       q    Type
                         _______ _______ _______ _____ _____    ______ ____

>  <TORSDO>
F 1

$$$$
