=
 OpenBabel11052416233D

 43 47  0  0  1  0  0  0  0  0999 V2000
  191.2770  175.7060  147.2200 C   0  0  1  0  0  3  0  0  0  0  0  0
  187.3220  177.8780  144.9010 C   0  0  0  0  0  0  0  0  0  0  0  0
  188.1710  178.3880  142.3240 C   0  0  2  0  0  3  0  0  0  0  0  0
  189.3450  177.1440  146.7980 C   0  0  0  0  0  0  0  0  0  0  0  0
  192.0220  176.3520  146.0430 C   0  0  0  0  0  2  0  0  0  0  0  0
  192.1570  175.4550  148.2540 F   0  0  0  0  0  0  0  0  0  0  0  0
  189.6040  176.9130  145.3250 C   0  0  2  0  0  3  0  0  0  0  0  0
  190.1610  176.5880  147.6980 C   0  0  0  0  0  3  0  0  0  0  0  0
  191.1030  177.0500  145.0180 C   0  0  0  0  0  2  0  0  0  0  0  0
  188.8940  177.4580  143.0930 O   0  0  0  0  0  0  0  0  0  0  0  0
  188.7770  177.8570  144.4420 C   0  0  1  0  0  3  0  0  0  0  0  0
  187.0110  177.8950  146.3790 C   0  0  0  0  0  2  0  0  0  0  0  0
  186.3420  178.0310  143.9870 C   0  0  0  0  0  0  0  0  0  0  0  0
  186.6740  178.1620  142.5280 C   0  0  0  0  0  2  0  0  0  0  0  0
  188.2570  178.0720  147.2450 C   0  0  0  0  0  2  0  0  0  0  0  0
  188.5120  178.2550  140.8450 C   0  0  2  0  0  3  0  0  0  0  0  0
  187.3590  178.3620  140.0610 O   0  0  0  0  0  1  0  0  0  0  0  0
  189.1610  177.0120  140.6010 O   0  0  0  0  0  0  0  0  0  0  0  0
  190.5270  176.9300  140.3060 C   0  0  0  0  0  0  0  0  0  0  0  0
  191.3680  177.5660  140.9960 O   0  0  0  0  0  0  0  0  0  0  0  0
  190.9780  176.1360  139.2530 O   0  0  0  0  0  0  0  0  0  0  0  0
  190.9630  176.5800  137.9020 C   0  0  1  0  0  3  0  0  0  0  0  0
  192.2470  176.4820  137.3530 O   0  0  0  0  0  0  0  0  0  0  0  0
  193.7830  174.9770  137.4330 C   0  0  0  0  0  1  0  0  0  0  0  0
  192.9320  175.7570  138.2160 O   0  0  0  0  0  0  0  0  0  0  0  0
  189.9790  175.7460  137.0790 C   0  0  2  0  0  3  0  0  0  0  0  0
  188.6580  176.4380  136.9480 C   0  0  0  0  0  0  0  0  0  0  0  0
  187.4060  178.4640  136.4830 C   0  0  0  0  0  3  0  0  0  0  0  0
  186.2330  176.4330  137.0870 C   0  0  0  0  0  3  0  0  0  0  0  0
  186.2090  177.7830  136.7290 C   0  0  0  0  0  3  0  0  0  0  0  0
  187.4540  175.7610  137.1990 C   0  0  0  0  0  3  0  0  0  0  0  0
  188.6270  177.7920  136.5950 C   0  0  0  0  0  3  0  0  0  0  0  0
  189.8230  174.4670  137.6280 O   0  0  0  0  0  0  0  0  0  0  0  0
  190.3740  173.6020  136.6820 C   0  0  0  0  0  1  0  0  0  0  0  0
  184.9570  178.0850  144.3600 N   0  0  0  0  0  2  0  0  0  0  0  0
  182.9590  178.6280  141.2360 C   0  0  0  0  0  3  0  0  0  0  0  0
  181.7410  179.0670  141.7750 C   0  0  0  0  0  0  0  0  0  0  0  0
  182.6630  178.8440  144.0070 C   0  0  0  0  0  3  0  0  0  0  0  0
  184.0220  178.2970  142.0810 C   0  0  0  0  0  3  0  0  0  0  0  0
  183.8750  178.3930  143.4730 C   0  0  0  0  0  0  0  0  0  0  0  0
  181.6000  179.1750  143.1630 C   0  0  0  0  0  3  0  0  0  0  0  0
  180.6680  179.3990  140.9510 O   0  0  0  0  0  0  0  0  0  0  0  0
  180.3060  180.6760  140.7640 O   0  0  0  0  0  1  0  0  0  0  0  0
  1  8  1  0  0  0  0
  1  6  1  1  0  0  0
  2 12  1  0  0  0  0
  3 16  1  6  0  0  0
  3 14  1  0  0  0  0
  3 10  1  0  0  0  0
  4 15  1  0  0  0  0
  4  8  2  0  0  0  0
  5  1  1  0  0  0  0
  7  9  1  1  0  0  0
  7  4  1  0  0  0  0
  9  5  1  0  0  0  0
 11 10  1  6  0  0  0
 11  2  1  0  0  0  0
 11  7  1  0  0  0  0
 12 15  1  0  0  0  0
 13 35  1  0  0  0  0
 13  2  2  0  0  0  0
 14 13  1  0  0  0  0
 16 17  1  6  0  0  0
 18 16  1  0  0  0  0
 19 18  1  0  0  0  0
 19 20  2  0  0  0  0
 21 19  1  0  0  0  0
 22 23  1  6  0  0  0
 22 21  1  0  0  0  0
 23 25  1  0  0  0  0
 24 25  1  0  0  0  0
 26 33  1  1  0  0  0
 26 22  1  0  0  0  0
 27 26  1  0  0  0  0
 27 31  1  0  0  0  0
 28 32  1  0  0  0  0
 28 30  2  0  0  0  0
 29 31  2  0  0  0  0
 30 29  1  0  0  0  0
 32 27  2  0  0  0  0
 34 33  1  0  0  0  0
 36 37  2  0  0  0  0
 36 39  1  0  0  0  0
 37 41  1  0  0  0  0
 39 40  2  0  0  0  0
 40 38  1  0  0  0  0
 40 35  1  0  0  0  0
 41 38  2  0  0  0  0
 42 37  1  0  0  0  0
 43 42  1  0  0  0  0
M  END
>  <MODEL>
1

>  <REMARK>
 VINA RESULT:      -9.0      0.000      0.000
  Name = 
  13 active torsions:
  status: ('A' for Active; 'I' for Inactive)
    1  A    between atoms: N_1  and  C_34
    2  A    between atoms: N_1  and  C_35
    3  A    between atoms: C_2  and  O_6
    4  A    between atoms: C_2  and  C_13
    5  A    between atoms: O_3  and  C_4
    6  A    between atoms: O_3  and  C_12
    7  A    between atoms: C_4  and  O_15
    8  A    between atoms: C_4  and  C_22
    9  A    between atoms: O_6  and  C_12
   10  A    between atoms: C_11  and  C_22
   11  A    between atoms: O_14  and  C_22
   12  A    between atoms: O_15  and  O_42
   13  A    between atoms: C_19  and  O_25
                            x       y       z     vdW  Elec       q    Type
                         _______ _______ _______ _____ _____    ______ ____

>  <TORSDO>
F 13

$$$$
=
 OpenBabel11052416233D

 43 47  0  0  1  0  0  0  0  0999 V2000
  187.9750  176.9730  147.3520 C   0  0  1  0  0  3  0  0  0  0  0  0
  185.5920  178.5020  143.1420 C   0  0  0  0  0  0  0  0  0  0  0  0
  187.5640  178.7350  141.2250 C   0  0  2  0  0  3  0  0  0  0  0  0
  186.4680  178.1850  145.8550 C   0  0  0  0  0  0  0  0  0  0  0  0
  189.1860  177.5160  146.5810 C   0  0  0  0  0  2  0  0  0  0  0  0
  188.2550  176.9300  148.7030 F   0  0  0  0  0  0  0  0  0  0  0  0
  187.4010  177.7850  144.7330 C   0  0  2  0  0  3  0  0  0  0  0  0
  186.7590  177.8180  147.1060 C   0  0  0  0  0  3  0  0  0  0  0  0
  188.8630  177.9980  145.1510 C   0  0  0  0  0  2  0  0  0  0  0  0
  187.8390  177.9750  142.3760 O   0  0  0  0  0  0  0  0  0  0  0  0
  187.0890  178.5360  143.4310 C   0  0  1  0  0  3  0  0  0  0  0  0
  184.6120  178.6870  144.2770 C   0  0  0  0  0  2  0  0  0  0  0  0
  185.1650  178.4550  141.8630 C   0  0  0  0  0  0  0  0  0  0  0  0
  186.1530  178.4200  140.7310 C   0  0  0  0  0  2  0  0  0  0  0  0
  185.2920  179.0740  145.5900 C   0  0  0  0  0  2  0  0  0  0  0  0
  188.5720  178.4370  140.1210 C   0  0  2  0  0  3  0  0  0  0  0  0
  188.0120  178.6830  138.8630 O   0  0  0  0  0  1  0  0  0  0  0  0
  189.0120  177.0870  140.2110 O   0  0  0  0  0  0  0  0  0  0  0  0
  190.3550  176.7290  140.0460 C   0  0  0  0  0  0  0  0  0  0  0  0
  191.2300  177.1420  140.8540 O   0  0  0  0  0  0  0  0  0  0  0  0
  190.7450  175.9030  138.9930 O   0  0  0  0  0  0  0  0  0  0  0  0
  190.7250  176.3350  137.6370 C   0  0  1  0  0  3  0  0  0  0  0  0
  192.0220  176.3030  137.1090 O   0  0  0  0  0  0  0  0  0  0  0  0
  193.4390  174.6850  137.1660 C   0  0  0  0  0  1  0  0  0  0  0  0
  192.7190  175.5770  137.9610 O   0  0  0  0  0  0  0  0  0  0  0  0
  189.8010  175.4410  136.8080 C   0  0  2  0  0  3  0  0  0  0  0  0
  188.4670  176.0880  136.5960 C   0  0  0  0  0  0  0  0  0  0  0  0
  187.1290  177.7890  135.5010 C   0  0  0  0  0  3  0  0  0  0  0  0
  186.0990  176.2870  137.0970 C   0  0  0  0  0  3  0  0  0  0  0  0
  185.9990  177.3520  136.1990 C   0  0  0  0  0  3  0  0  0  0  0  0
  187.3310  175.6570  137.2990 C   0  0  0  0  0  3  0  0  0  0  0  0
  188.3610  177.1590  135.7020 C   0  0  0  0  0  3  0  0  0  0  0  0
  189.6590  174.1800  137.3990 O   0  0  0  0  0  0  0  0  0  0  0  0
  190.0660  173.2760  136.4170 C   0  0  0  0  0  1  0  0  0  0  0  0
  183.7700  178.4470  141.5260 N   0  0  0  0  0  2  0  0  0  0  0  0
  182.5380  176.5290  138.5520 C   0  0  0  0  0  3  0  0  0  0  0  0
  182.2390  177.5760  137.6690 C   0  0  0  0  0  0  0  0  0  0  0  0
  182.9480  179.1780  139.3460 C   0  0  0  0  0  3  0  0  0  0  0  0
  183.0380  176.8080  139.8270 C   0  0  0  0  0  3  0  0  0  0  0  0
  183.2350  178.1360  140.2350 C   0  0  0  0  0  0  0  0  0  0  0  0
  182.4490  178.9000  138.0710 C   0  0  0  0  0  3  0  0  0  0  0  0
  181.7380  177.3210  136.3940 O   0  0  0  0  0  0  0  0  0  0  0  0
  182.3720  176.4950  135.5510 O   0  0  0  0  0  1  0  0  0  0  0  0
  1  6  1  1  0  0  0
  2 11  1  0  0  0  0
  2 12  1  0  0  0  0
  3 16  1  6  0  0  0
  3 10  1  0  0  0  0
  4  8  2  0  0  0  0
  5  1  1  0  0  0  0
  7  9  1  1  0  0  0
  7  4  1  0  0  0  0
  8  1  1  0  0  0  0
  9  5  1  0  0  0  0
 11 10  1  6  0  0  0
 11  7  1  0  0  0  0
 12 15  1  0  0  0  0
 13  2  2  0  0  0  0
 14  3  1  0  0  0  0
 14 13  1  0  0  0  0
 15  4  1  0  0  0  0
 16 17  1  6  0  0  0
 16 18  1  0  0  0  0
 19 18  1  0  0  0  0
 19 20  2  0  0  0  0
 21 19  1  0  0  0  0
 22 23  1  6  0  0  0
 22 21  1  0  0  0  0
 23 25  1  0  0  0  0
 24 25  1  0  0  0  0
 26 33  1  1  0  0  0
 26 22  1  0  0  0  0
 27 26  1  0  0  0  0
 27 31  1  0  0  0  0
 28 32  1  0  0  0  0
 28 30  2  0  0  0  0
 29 31  2  0  0  0  0
 30 29  1  0  0  0  0
 32 27  2  0  0  0  0
 34 33  1  0  0  0  0
 35 13  1  0  0  0  0
 36 39  1  0  0  0  0
 37 41  1  0  0  0  0
 37 36  2  0  0  0  0
 38 40  1  0  0  0  0
 39 40  2  0  0  0  0
 40 35  1  0  0  0  0
 41 38  2  0  0  0  0
 42 37  1  0  0  0  0
 43 42  1  0  0  0  0
M  END
>  <MODEL>
2

>  <REMARK>
 VINA RESULT:      -8.8      1.984      2.706
  Name = 
  13 active torsions:
  status: ('A' for Active; 'I' for Inactive)
    1  A    between atoms: N_1  and  C_34
    2  A    between atoms: N_1  and  C_35
    3  A    between atoms: C_2  and  O_6
    4  A    between atoms: C_2  and  C_13
    5  A    between atoms: O_3  and  C_4
    6  A    between atoms: O_3  and  C_12
    7  A    between atoms: C_4  and  O_15
    8  A    between atoms: C_4  and  C_22
    9  A    between atoms: O_6  and  C_12
   10  A    between atoms: C_11  and  C_22
   11  A    between atoms: O_14  and  C_22
   12  A    between atoms: O_15  and  O_42
   13  A    between atoms: C_19  and  O_25
                            x       y       z     vdW  Elec       q    Type
                         _______ _______ _______ _____ _____    ______ ____

>  <TORSDO>
F 13

$$$$
=
 OpenBabel11052416233D

 43 47  0  0  1  0  0  0  0  0999 V2000
  191.0180  175.8710  147.0300 C   0  0  1  0  0  3  0  0  0  0  0  0
  187.0290  177.9690  144.7010 C   0  0  0  0  0  0  0  0  0  0  0  0
  187.8730  178.4900  142.1240 C   0  0  2  0  0  3  0  0  0  0  0  0
  189.0610  177.2730  146.6020 C   0  0  0  0  0  0  0  0  0  0  0  0
  191.7530  176.5280  145.8530 C   0  0  0  0  0  2  0  0  0  0  0  0
  191.9000  175.6370  148.0660 F   0  0  0  0  0  0  0  0  0  0  0  0
  189.3270  177.0450  145.1300 C   0  0  2  0  0  3  0  0  0  0  0  0
  189.8850  176.7330  147.5050 C   0  0  0  0  0  3  0  0  0  0  0  0
  190.8240  177.2080  144.8260 C   0  0  0  0  0  2  0  0  0  0  0  0
  188.6120  177.5740  142.8960 O   0  0  0  0  0  0  0  0  0  0  0  0
  188.4850  177.9720  144.2440 C   0  0  1  0  0  3  0  0  0  0  0  0
  186.7140  177.9820  146.1780 C   0  0  0  0  0  2  0  0  0  0  0  0
  186.0480  178.1020  143.7850 C   0  0  0  0  0  0  0  0  0  0  0  0
  186.3800  178.2370  142.3250 C   0  0  0  0  0  2  0  0  0  0  0  0
  187.9560  178.1830  147.0460 C   0  0  0  0  0  2  0  0  0  0  0  0
  188.2200  178.3600  140.6460 C   0  0  2  0  0  3  0  0  0  0  0  0
  187.0780  178.5250  139.8550 O   0  0  0  0  0  1  0  0  0  0  0  0
  188.8190  177.0950  140.3910 O   0  0  0  0  0  0  0  0  0  0  0  0
  189.7830  176.9140  139.3930 C   0  0  0  0  0  0  0  0  0  0  0  0
  190.8420  177.5980  139.3980 O   0  0  0  0  0  0  0  0  0  0  0  0
  189.5930  175.9700  138.3860 O   0  0  0  0  0  0  0  0  0  0  0  0
  188.7240  176.1960  137.2820 C   0  0  1  0  0  3  0  0  0  0  0  0
  189.3670  176.9910  136.3250 O   0  0  0  0  0  0  0  0  0  0  0  0
  188.3130  178.8460  136.6020 C   0  0  0  0  0  1  0  0  0  0  0  0
  188.4070  177.7190  135.7870 O   0  0  0  0  0  0  0  0  0  0  0  0
  188.3020  174.8650  136.6570 C   0  0  2  0  0  3  0  0  0  0  0  0
  186.8810  174.5330  136.9960 C   0  0  0  0  0  0  0  0  0  0  0  0
  184.5760  175.2500  137.2380 C   0  0  0  0  0  3  0  0  0  0  0  0
  185.1890  172.9640  137.7520 C   0  0  0  0  0  3  0  0  0  0  0  0
  184.2190  173.9650  137.6590 C   0  0  0  0  0  3  0  0  0  0  0  0
  186.5190  173.2470  137.4240 C   0  0  0  0  0  3  0  0  0  0  0  0
  185.9060  175.5330  136.9100 C   0  0  0  0  0  3  0  0  0  0  0  0
  189.1640  173.8330  137.0430 O   0  0  0  0  0  0  0  0  0  0  0  0
  189.8380  173.4730  135.8750 C   0  0  0  0  0  1  0  0  0  0  0  0
  184.6610  178.1320  144.1540 N   0  0  0  0  0  2  0  0  0  0  0  0
  182.6470  178.6190  141.0320 C   0  0  0  0  0  3  0  0  0  0  0  0
  181.4400  179.0890  141.5680 C   0  0  0  0  0  0  0  0  0  0  0  0
  182.3750  178.9130  143.7990 C   0  0  0  0  0  3  0  0  0  0  0  0
  183.7120  178.2970  141.8780 C   0  0  0  0  0  3  0  0  0  0  0  0
  183.5770  178.4310  143.2680 C   0  0  0  0  0  0  0  0  0  0  0  0
  181.3110  179.2360  142.9540 C   0  0  0  0  0  3  0  0  0  0  0  0
  180.3640  179.4140  140.7430 O   0  0  0  0  0  0  0  0  0  0  0  0
  179.9200  180.6750  140.6470 O   0  0  0  0  0  1  0  0  0  0  0  0
  1  8  1  0  0  0  0
  1  6  1  1  0  0  0
  2 12  1  0  0  0  0
  3 16  1  6  0  0  0
  3 14  1  0  0  0  0
  3 10  1  0  0  0  0
  4 15  1  0  0  0  0
  4  8  2  0  0  0  0
  5  1  1  0  0  0  0
  7  9  1  1  0  0  0
  7  4  1  0  0  0  0
  9  5  1  0  0  0  0
 11 10  1  6  0  0  0
 11  2  1  0  0  0  0
 11  7  1  0  0  0  0
 12 15  1  0  0  0  0
 13 35  1  0  0  0  0
 13  2  2  0  0  0  0
 14 13  1  0  0  0  0
 16 17  1  6  0  0  0
 18 16  1  0  0  0  0
 19 20  2  0  0  0  0
 19 18  1  0  0  0  0
 21 19  1  0  0  0  0
 22 23  1  6  0  0  0
 22 21  1  0  0  0  0
 25 23  1  0  0  0  0
 25 24  1  0  0  0  0
 26 27  1  0  0  0  0
 26 33  1  1  0  0  0
 26 22  1  0  0  0  0
 27 31  1  0  0  0  0
 28 30  2  0  0  0  0
 30 29  1  0  0  0  0
 31 29  2  0  0  0  0
 32 27  2  0  0  0  0
 32 28  1  0  0  0  0
 34 33  1  0  0  0  0
 36 37  2  0  0  0  0
 36 39  1  0  0  0  0
 37 41  1  0  0  0  0
 39 40  2  0  0  0  0
 40 38  1  0  0  0  0
 40 35  1  0  0  0  0
 41 38  2  0  0  0  0
 42 37  1  0  0  0  0
 43 42  1  0  0  0  0
M  END
>  <MODEL>
3

>  <REMARK>
 VINA RESULT:      -8.6      1.341      2.080
  Name = 
  13 active torsions:
  status: ('A' for Active; 'I' for Inactive)
    1  A    between atoms: N_1  and  C_34
    2  A    between atoms: N_1  and  C_35
    3  A    between atoms: C_2  and  O_6
    4  A    between atoms: C_2  and  C_13
    5  A    between atoms: O_3  and  C_4
    6  A    between atoms: O_3  and  C_12
    7  A    between atoms: C_4  and  O_15
    8  A    between atoms: C_4  and  C_22
    9  A    between atoms: O_6  and  C_12
   10  A    between atoms: C_11  and  C_22
   11  A    between atoms: O_14  and  C_22
   12  A    between atoms: O_15  and  O_42
   13  A    between atoms: C_19  and  O_25
                            x       y       z     vdW  Elec       q    Type
                         _______ _______ _______ _____ _____    ______ ____

>  <TORSDO>
F 13

$$$$
=
 OpenBabel11052416233D

 43 47  0  0  1  0  0  0  0  0999 V2000
  189.8340  176.7530  135.9690 C   0  0  1  0  0  3  0  0  0  0  0  0
  189.0000  177.2750  140.9450 C   0  0  0  0  0  0  0  0  0  0  0  0
  186.7490  178.8600  141.1500 C   0  0  2  0  0  3  0  0  0  0  0  0
  190.2240  177.1100  138.3560 C   0  0  0  0  0  0  0  0  0  0  0  0
  188.9280  177.9910  135.9250 C   0  0  0  0  0  2  0  0  0  0  0  0
  190.5850  176.6760  134.8120 F   0  0  0  0  0  0  0  0  0  0  0  0
  188.7580  177.4770  138.4520 C   0  0  2  0  0  3  0  0  0  0  0  0
  190.7390  176.7910  137.1660 C   0  0  0  0  0  3  0  0  0  0  0  0
  188.3660  178.4130  137.2990 C   0  0  0  0  0  2  0  0  0  0  0  0
  187.0090  178.2270  139.9220 O   0  0  0  0  0  0  0  0  0  0  0  0
  188.4110  178.1040  139.8080 C   0  0  1  0  0  3  0  0  0  0  0  0
  190.3920  176.7050  140.8050 C   0  0  0  0  0  2  0  0  0  0  0  0
  188.3320  177.1860  142.1140 C   0  0  0  0  0  0  0  0  0  0  0  0
  187.0130  177.8820  142.2930 C   0  0  0  0  0  2  0  0  0  0  0  0
  191.1150  177.2090  139.5560 C   0  0  0  0  0  2  0  0  0  0  0  0
  185.3070  179.3490  141.2170 C   0  0  2  0  0  3  0  0  0  0  0  0
  184.4710  178.3510  141.7280 O   0  0  0  0  0  1  0  0  0  0  0  0
  184.8660  179.7510  139.9250 O   0  0  0  0  0  0  0  0  0  0  0  0
  183.6410  179.3310  139.3920 C   0  0  0  0  0  0  0  0  0  0  0  0
  182.5570  179.7790  139.8540 O   0  0  0  0  0  0  0  0  0  0  0  0
  183.6020  178.4200  138.3380 O   0  0  0  0  0  0  0  0  0  0  0  0
  183.7390  177.0180  138.5370 C   0  0  1  0  0  3  0  0  0  0  0  0
  182.6820  176.5420  139.3210 O   0  0  0  0  0  0  0  0  0  0  0  0
  180.7000  175.8460  138.8570 C   0  0  0  0  0  1  0  0  0  0  0  0
  181.5890  176.9050  138.6770 O   0  0  0  0  0  0  0  0  0  0  0  0
  183.7590  176.2900  137.1910 C   0  0  2  0  0  3  0  0  0  0  0  0
  184.7780  175.1930  137.1820 C   0  0  0  0  0  0  0  0  0  0  0  0
  185.3370  172.8680  137.5940 C   0  0  0  0  0  3  0  0  0  0  0  0
  187.0470  174.4030  136.8270 C   0  0  0  0  0  3  0  0  0  0  0  0
  186.6610  173.1180  137.2180 C   0  0  0  0  0  3  0  0  0  0  0  0
  186.1090  175.4400  136.8110 C   0  0  0  0  0  3  0  0  0  0  0  0
  184.3990  173.9050  137.5780 C   0  0  0  0  0  3  0  0  0  0  0  0
  183.9790  177.1870  136.1380 O   0  0  0  0  0  0  0  0  0  0  0  0
  183.0300  176.8470  135.1740 C   0  0  0  0  0  1  0  0  0  0  0  0
  188.8470  176.4430  143.2290 N   0  0  0  0  0  2  0  0  0  0  0  0
  190.1950  177.3860  146.5960 C   0  0  0  0  0  3  0  0  0  0  0  0
  189.0260  177.8270  147.2340 C   0  0  0  0  0  0  0  0  0  0  0  0
  187.7630  177.3540  145.2180 C   0  0  0  0  0  3  0  0  0  0  0  0
  190.1450  176.9340  145.2750 C   0  0  0  0  0  3  0  0  0  0  0  0
  188.9290  176.9260  144.5750 C   0  0  0  0  0  0  0  0  0  0  0  0
  187.8120  177.8060  146.5400 C   0  0  0  0  0  3  0  0  0  0  0  0
  189.0530  178.2840  148.5500 O   0  0  0  0  0  0  0  0  0  0  0  0
  187.9660  178.2180  149.3300 O   0  0  0  0  0  1  0  0  0  0  0  0
  1  6  1  6  0  0  0
  1  8  1  0  0  0  0
  2 13  2  0  0  0  0
  3 16  1  6  0  0  0
  3 14  1  0  0  0  0
  4  7  1  0  0  0  0
  4 15  1  0  0  0  0
  5  1  1  0  0  0  0
  5  9  1  0  0  0  0
  7  9  1  6  0  0  0
  7 11  1  0  0  0  0
  8  4  2  0  0  0  0
 10  3  1  0  0  0  0
 11 10  1  1  0  0  0
 11  2  1  0  0  0  0
 12  2  1  0  0  0  0
 13 14  1  0  0  0  0
 13 35  1  0  0  0  0
 15 12  1  0  0  0  0
 16 17  1  6  0  0  0
 18 16  1  0  0  0  0
 19 20  2  0  0  0  0
 19 18  1  0  0  0  0
 21 19  1  0  0  0  0
 22 21  1  6  0  0  0
 22 23  1  0  0  0  0
 25 24  1  0  0  0  0
 25 23  1  0  0  0  0
 26 33  1  6  0  0  0
 26 22  1  0  0  0  0
 27 26  1  0  0  0  0
 27 32  1  0  0  0  0
 29 30  2  0  0  0  0
 30 28  1  0  0  0  0
 31 29  1  0  0  0  0
 31 27  2  0  0  0  0
 32 28  2  0  0  0  0
 34 33  1  0  0  0  0
 35 40  1  0  0  0  0
 36 37  1  0  0  0  0
 37 42  1  0  0  0  0
 38 41  1  0  0  0  0
 39 36  2  0  0  0  0
 40 38  2  0  0  0  0
 40 39  1  0  0  0  0
 41 37  2  0  0  0  0
 42 43  1  0  0  0  0
M  END
>  <MODEL>
4

>  <REMARK>
 VINA RESULT:      -8.6      3.425      7.606
  Name = 
  13 active torsions:
  status: ('A' for Active; 'I' for Inactive)
    1  A    between atoms: N_1  and  C_34
    2  A    between atoms: N_1  and  C_35
    3  A    between atoms: C_2  and  O_6
    4  A    between atoms: C_2  and  C_13
    5  A    between atoms: O_3  and  C_4
    6  A    between atoms: O_3  and  C_12
    7  A    between atoms: C_4  and  O_15
    8  A    between atoms: C_4  and  C_22
    9  A    between atoms: O_6  and  C_12
   10  A    between atoms: C_11  and  C_22
   11  A    between atoms: O_14  and  C_22
   12  A    between atoms: O_15  and  O_42
   13  A    between atoms: C_19  and  O_25
                            x       y       z     vdW  Elec       q    Type
                         _______ _______ _______ _____ _____    ______ ____

>  <TORSDO>
F 13

$$$$
=
 OpenBabel11052416233D

 43 47  0  0  1  0  0  0  0  0999 V2000
  186.9210  177.2300  146.3990 C   0  0  1  0  0  3  0  0  0  0  0  0
  184.0070  178.7190  142.5230 C   0  0  0  0  0  0  0  0  0  0  0  0
  185.7110  178.9300  140.3610 C   0  0  2  0  0  3  0  0  0  0  0  0
  185.2320  178.4290  145.1010 C   0  0  0  0  0  0  0  0  0  0  0  0
  188.0210  177.7630  145.4700 C   0  0  0  0  0  2  0  0  0  0  0  0
  187.3770  177.2000  147.7020 F   0  0  0  0  0  0  0  0  0  0  0  0
  186.0090  178.0160  143.8690 C   0  0  2  0  0  3  0  0  0  0  0  0
  185.6840  178.0740  146.3070 C   0  0  0  0  0  3  0  0  0  0  0  0
  187.5130  178.2310  144.0910 C   0  0  0  0  0  2  0  0  0  0  0  0
  186.1340  178.1810  141.4740 O   0  0  0  0  0  0  0  0  0  0  0  0
  185.5290  178.7540  142.6130 C   0  0  1  0  0  3  0  0  0  0  0  0
  183.1840  178.9180  143.7740 C   0  0  0  0  0  2  0  0  0  0  0  0
  183.4160  178.6600  141.3110 C   0  0  0  0  0  0  0  0  0  0  0  0
  184.2470  178.6120  140.0600 C   0  0  0  0  0  2  0  0  0  0  0  0
  184.0310  179.3180  144.9820 C   0  0  0  0  0  2  0  0  0  0  0  0
  186.5640  178.6190  139.1380 C   0  0  2  0  0  3  0  0  0  0  0  0
  185.9270  177.6830  138.3170 O   0  0  0  0  0  1  0  0  0  0  0  0
  187.8410  178.1360  139.5400 O   0  0  0  0  0  0  0  0  0  0  0  0
  189.0280  178.5790  138.9450 C   0  0  0  0  0  0  0  0  0  0  0  0
  189.0080  179.5240  138.1100 O   0  0  0  0  0  0  0  0  0  0  0  0
  190.2480  177.9920  139.2740 O   0  0  0  0  0  0  0  0  0  0  0  0
  190.3480  176.8880  140.1660 C   0  0  1  0  0  3  0  0  0  0  0  0
  190.1820  175.6890  139.4620 O   0  0  0  0  0  0  0  0  0  0  0  0
  190.5200  174.7600  137.5510 C   0  0  0  0  0  1  0  0  0  0  0  0
  190.8670  175.8520  138.3470 O   0  0  0  0  0  0  0  0  0  0  0  0
  191.7060  176.8970  140.8710 C   0  0  2  0  0  3  0  0  0  0  0  0
  191.5510  177.1150  142.3450 C   0  0  0  0  0  0  0  0  0  0  0  0
  191.3760  178.6500  144.2150 C   0  0  0  0  0  3  0  0  0  0  0  0
  191.3560  176.2610  144.6100 C   0  0  0  0  0  3  0  0  0  0  0  0
  191.3020  177.5680  145.0990 C   0  0  0  0  0  3  0  0  0  0  0  0
  191.4830  176.0330  143.2360 C   0  0  0  0  0  3  0  0  0  0  0  0
  191.5030  178.4220  142.8410 C   0  0  0  0  0  3  0  0  0  0  0  0
  192.5580  177.8550  140.3090 O   0  0  0  0  0  0  0  0  0  0  0  0
  193.6700  177.1340  139.8740 C   0  0  0  0  0  1  0  0  0  0  0  0
  181.9890  178.6510  141.1600 N   0  0  0  0  0  2  0  0  0  0  0  0
  179.1370  176.2800  140.6290 C   0  0  0  0  0  3  0  0  0  0  0  0
  179.7540  175.2980  139.8410 C   0  0  0  0  0  0  0  0  0  0  0  0
  181.8300  176.5480  139.9310 C   0  0  0  0  0  3  0  0  0  0  0  0
  179.8650  177.3900  141.0640 C   0  0  0  0  0  3  0  0  0  0  0  0
  181.2140  177.5360  140.7070 C   0  0  0  0  0  0  0  0  0  0  0  0
  181.1030  175.4360  139.4970 C   0  0  0  0  0  3  0  0  0  0  0  0
  179.0460  174.1830  139.3960 O   0  0  0  0  0  0  0  0  0  0  0  0
  179.5940  173.3090  138.5410 O   0  0  0  0  0  1  0  0  0  0  0  0
  1  6  1  1  0  0  0
  2 11  1  0  0  0  0
  2 12  1  0  0  0  0
  3 16  1  6  0  0  0
  3 10  1  0  0  0  0
  4  8  2  0  0  0  0
  5  1  1  0  0  0  0
  7  9  1  1  0  0  0
  7  4  1  0  0  0  0
  8  1  1  0  0  0  0
  9  5  1  0  0  0  0
 11 10  1  6  0  0  0
 11  7  1  0  0  0  0
 12 15  1  0  0  0  0
 13  2  2  0  0  0  0
 14  3  1  0  0  0  0
 14 13  1  0  0  0  0
 15  4  1  0  0  0  0
 16 17  1  6  0  0  0
 16 18  1  0  0  0  0
 19 21  1  0  0  0  0
 19 18  1  0  0  0  0
 20 19  2  0  0  0  0
 22 21  1  6  0  0  0
 22 26  1  0  0  0  0
 23 22  1  0  0  0  0
 24 25  1  0  0  0  0
 25 23  1  0  0  0  0
 26 33  1  6  0  0  0
 26 27  1  0  0  0  0
 27 32  2  0  0  0  0
 27 31  1  0  0  0  0
 28 30  2  0  0  0  0
 29 30  1  0  0  0  0
 31 29  2  0  0  0  0
 32 28  1  0  0  0  0
 34 33  1  0  0  0  0
 35 13  1  0  0  0  0
 36 39  1  0  0  0  0
 37 36  2  0  0  0  0
 38 40  1  0  0  0  0
 40 39  2  0  0  0  0
 40 35  1  0  0  0  0
 41 37  1  0  0  0  0
 41 38  2  0  0  0  0
 42 37  1  0  0  0  0
 43 42  1  0  0  0  0
M  END
>  <MODEL>
5

>  <REMARK>
 VINA RESULT:      -8.5      2.578      4.957
  Name = 
  13 active torsions:
  status: ('A' for Active; 'I' for Inactive)
    1  A    between atoms: N_1  and  C_34
    2  A    between atoms: N_1  and  C_35
    3  A    between atoms: C_2  and  O_6
    4  A    between atoms: C_2  and  C_13
    5  A    between atoms: O_3  and  C_4
    6  A    between atoms: O_3  and  C_12
    7  A    between atoms: C_4  and  O_15
    8  A    between atoms: C_4  and  C_22
    9  A    between atoms: O_6  and  C_12
   10  A    between atoms: C_11  and  C_22
   11  A    between atoms: O_14  and  C_22
   12  A    between atoms: O_15  and  O_42
   13  A    between atoms: C_19  and  O_25
                            x       y       z     vdW  Elec       q    Type
                         _______ _______ _______ _____ _____    ______ ____

>  <TORSDO>
F 13

$$$$
=
 OpenBabel11052416233D

 43 47  0  0  1  0  0  0  0  0999 V2000
  191.2700  177.1150  147.1680 C   0  0  1  0  0  3  0  0  0  0  0  0
  189.6010  177.3170  142.3820 C   0  0  0  0  0  0  0  0  0  0  0  0
  186.9060  177.8890  142.5670 C   0  0  2  0  0  3  0  0  0  0  0  0
  190.9230  176.5600  144.8120 C   0  0  0  0  0  0  0  0  0  0  0  0
  189.7690  176.9390  147.4360 C   0  0  0  0  0  2  0  0  0  0  0  0
  192.0000  176.6290  148.2350 F   0  0  0  0  0  0  0  0  0  0  0  0
  189.6570  177.3850  144.8930 C   0  0  2  0  0  3  0  0  0  0  0  0
  191.6760  176.4120  145.9050 C   0  0  0  0  0  3  0  0  0  0  0  0
  188.8830  177.0500  146.1770 C   0  0  0  0  0  2  0  0  0  0  0  0
  187.7200  178.1420  143.6860 O   0  0  0  0  0  0  0  0  0  0  0  0
  188.7700  177.1990  143.6550 C   0  0  1  0  0  3  0  0  0  0  0  0
  190.9710  176.6840  142.3280 C   0  0  0  0  0  2  0  0  0  0  0  0
  189.0440  177.8550  141.2760 C   0  0  0  0  0  0  0  0  0  0  0  0
  187.6250  178.3480  141.3000 C   0  0  0  0  0  2  0  0  0  0  0  0
  191.2760  175.8260  143.5540 C   0  0  0  0  0  2  0  0  0  0  0  0
  185.5710  178.6140  142.6890 C   0  0  2  0  0  3  0  0  0  0  0  0
  185.0420  178.4610  143.9750 O   0  0  0  0  0  1  0  0  0  0  0  0
  184.6560  178.1240  141.7160 O   0  0  0  0  0  0  0  0  0  0  0  0
  184.1000  178.9500  140.7330 C   0  0  0  0  0  0  0  0  0  0  0  0
  184.8380  179.6890  140.0270 O   0  0  0  0  0  0  0  0  0  0  0  0
  182.7240  178.9610  140.5110 O   0  0  0  0  0  0  0  0  0  0  0  0
  182.0150  177.8140  140.0560 C   0  0  1  0  0  3  0  0  0  0  0  0
  180.7030  177.8400  140.5440 O   0  0  0  0  0  0  0  0  0  0  0  0
  179.9610  178.1380  142.5410 C   0  0  0  0  0  1  0  0  0  0  0  0
  180.7220  178.7190  141.5270 O   0  0  0  0  0  0  0  0  0  0  0  0
  182.0030  177.7700  138.5260 C   0  0  2  0  0  3  0  0  0  0  0  0
  183.0530  176.8410  138.0010 C   0  0  0  0  0  0  0  0  0  0  0  0
  183.9190  174.5840  137.7910 C   0  0  0  0  0  3  0  0  0  0  0  0
  185.1350  176.4390  136.8190 C   0  0  0  0  0  3  0  0  0  0  0  0
  185.0150  175.0700  137.0720 C   0  0  0  0  0  3  0  0  0  0  0  0
  184.1580  177.3240  137.2840 C   0  0  0  0  0  3  0  0  0  0  0  0
  182.9420  175.4700  138.2570 C   0  0  0  0  0  3  0  0  0  0  0  0
  182.1520  179.0530  137.9860 O   0  0  0  0  0  0  0  0  0  0  0  0
  180.9840  179.2730  137.2560 C   0  0  0  0  0  1  0  0  0  0  0  0
  189.7660  177.9690  140.0410 N   0  0  0  0  0  2  0  0  0  0  0  0
  188.6960  175.7020  137.2560 C   0  0  0  0  0  3  0  0  0  0  0  0
  189.8800  174.9870  137.0280 C   0  0  0  0  0  0  0  0  0  0  0  0
  190.9690  176.2560  138.7850 C   0  0  0  0  0  3  0  0  0  0  0  0
  188.6510  176.6900  138.2430 C   0  0  0  0  0  3  0  0  0  0  0  0
  189.7920  176.9800  139.0060 C   0  0  0  0  0  0  0  0  0  0  0  0
  191.0140  175.2670  137.7990 C   0  0  0  0  0  3  0  0  0  0  0  0
  189.9470  173.9990  136.0470 O   0  0  0  0  0  0  0  0  0  0  0  0
  190.9200  173.0780  136.0550 O   0  0  0  0  0  1  0  0  0  0  0  0
  1  5  1  0  0  0  0
  1  6  1  1  0  0  0
  3 16  1  1  0  0  0
  3 10  1  0  0  0  0
  4  7  1  0  0  0  0
  4  8  2  0  0  0  0
  7  9  1  1  0  0  0
  8  1  1  0  0  0  0
  9  5  1  0  0  0  0
 11  2  1  6  0  0  0
 11 10  1  0  0  0  0
 11  7  1  0  0  0  0
 12  2  1  0  0  0  0
 12 15  1  0  0  0  0
 13 14  1  0  0  0  0
 13  2  2  0  0  0  0
 14  3  1  0  0  0  0
 15  4  1  0  0  0  0
 16 17  1  1  0  0  0
 18 16  1  0  0  0  0
 19 18  1  0  0  0  0
 20 19  2  0  0  0  0
 21 19  1  0  0  0  0
 22 21  1  6  0  0  0
 22 23  1  0  0  0  0
 23 25  1  0  0  0  0
 25 24  1  0  0  0  0
 26 33  1  6  0  0  0
 26 22  1  0  0  0  0
 27 32  1  0  0  0  0
 27 26  1  0  0  0  0
 28 32  2  0  0  0  0
 29 30  2  0  0  0  0
 29 31  1  0  0  0  0
 30 28  1  0  0  0  0
 31 27  2  0  0  0  0
 34 33  1  0  0  0  0
 35 13  1  0  0  0  0
 36 39  1  0  0  0  0
 37 36  2  0  0  0  0
 37 41  1  0  0  0  0
 38 40  1  0  0  0  0
 39 40  2  0  0  0  0
 40 35  1  0  0  0  0
 41 38  2  0  0  0  0
 42 43  1  0  0  0  0
 42 37  1  0  0  0  0
M  END
>  <MODEL>
6

>  <REMARK>
 VINA RESULT:      -8.4      2.256      7.223
  Name = 
  13 active torsions:
  status: ('A' for Active; 'I' for Inactive)
    1  A    between atoms: N_1  and  C_34
    2  A    between atoms: N_1  and  C_35
    3  A    between atoms: C_2  and  O_6
    4  A    between atoms: C_2  and  C_13
    5  A    between atoms: O_3  and  C_4
    6  A    between atoms: O_3  and  C_12
    7  A    between atoms: C_4  and  O_15
    8  A    between atoms: C_4  and  C_22
    9  A    between atoms: O_6  and  C_12
   10  A    between atoms: C_11  and  C_22
   11  A    between atoms: O_14  and  C_22
   12  A    between atoms: O_15  and  O_42
   13  A    between atoms: C_19  and  O_25
                            x       y       z     vdW  Elec       q    Type
                         _______ _______ _______ _____ _____    ______ ____

>  <TORSDO>
F 13

$$$$
=
 OpenBabel11052416233D

 43 47  0  0  1  0  0  0  0  0999 V2000
  184.2410  178.3350  145.2780 C   0  0  1  0  0  3  0  0  0  0  0  0
  182.7030  178.3730  140.4440 C   0  0  0  0  0  0  0  0  0  0  0  0
  185.0060  178.6300  138.9420 C   0  0  2  0  0  3  0  0  0  0  0  0
  182.9500  178.8380  143.2640 C   0  0  0  0  0  0  0  0  0  0  0  0
  185.4900  178.9590  144.6400 C   0  0  0  0  0  2  0  0  0  0  0  0
  184.1960  178.6410  146.6240 F   0  0  0  0  0  0  0  0  0  0  0  0
  184.1770  178.4280  142.4790 C   0  0  2  0  0  3  0  0  0  0  0  0
  182.9930  178.8170  144.5990 C   0  0  0  0  0  3  0  0  0  0  0  0
  185.4390  179.0450  143.1000 C   0  0  0  0  0  2  0  0  0  0  0  0
  185.1250  178.2100  140.2790 O   0  0  0  0  0  0  0  0  0  0  0  0
  184.0610  178.7990  140.9940 C   0  0  1  0  0  3  0  0  0  0  0  0
  181.4650  178.5710  141.2860 C   0  0  0  0  0  2  0  0  0  0  0  0
  182.6080  177.9640  139.1610 C   0  0  0  0  0  0  0  0  0  0  0  0
  183.8280  177.9120  138.2860 C   0  0  0  0  0  2  0  0  0  0  0  0
  181.7370  179.3680  142.5610 C   0  0  0  0  0  2  0  0  0  0  0  0
  186.2820  178.3370  138.1630 C   0  0  2  0  0  3  0  0  0  0  0  0
  186.2300  177.0630  137.5900 O   0  0  0  0  0  1  0  0  0  0  0  0
  187.4150  178.4480  139.0180 O   0  0  0  0  0  0  0  0  0  0  0  0
  188.6930  178.7390  138.5280 C   0  0  0  0  0  0  0  0  0  0  0  0
  188.8380  179.4990  137.5320 O   0  0  0  0  0  0  0  0  0  0  0  0
  189.8250  178.2010  139.1370 O   0  0  0  0  0  0  0  0  0  0  0  0
  189.8080  176.9430  139.8040 C   0  0  1  0  0  3  0  0  0  0  0  0
  190.1020  175.9190  138.8960 O   0  0  0  0  0  0  0  0  0  0  0  0
  191.0490  175.4870  137.0130 C   0  0  0  0  0  1  0  0  0  0  0  0
  190.7440  176.5120  137.9090 O   0  0  0  0  0  0  0  0  0  0  0  0
  190.8250  176.9350  140.9470 C   0  0  2  0  0  3  0  0  0  0  0  0
  190.1570  177.1640  142.2680 C   0  0  0  0  0  0  0  0  0  0  0  0
  190.1770  178.2120  144.4560 C   0  0  0  0  0  3  0  0  0  0  0  0
  188.3480  176.7520  143.8340 C   0  0  0  0  0  3  0  0  0  0  0  0
  188.9640  177.5890  144.7670 C   0  0  0  0  0  3  0  0  0  0  0  0
  188.9430  176.5370  142.5880 C   0  0  0  0  0  3  0  0  0  0  0  0
  190.7730  177.9970  143.2100 C   0  0  0  0  0  3  0  0  0  0  0  0
  191.8370  177.8760  140.7270 O   0  0  0  0  0  0  0  0  0  0  0  0
  192.9470  177.1250  140.3400 C   0  0  0  0  0  1  0  0  0  0  0  0
  181.3560  177.5760  138.5780 N   0  0  0  0  0  2  0  0  0  0  0  0
  179.9880  174.1840  139.3940 C   0  0  0  0  0  3  0  0  0  0  0  0
  180.0470  173.5670  138.1360 C   0  0  0  0  0  0  0  0  0  0  0  0
  180.9610  175.6050  137.1920 C   0  0  0  0  0  3  0  0  0  0  0  0
  180.4120  175.5070  139.5470 C   0  0  0  0  0  3  0  0  0  0  0  0
  180.8910  176.2280  138.4430 C   0  0  0  0  0  0  0  0  0  0  0  0
  180.5380  174.2820  137.0390 C   0  0  0  0  0  3  0  0  0  0  0  0
  179.6270  172.2500  137.9610 O   0  0  0  0  0  0  0  0  0  0  0  0
  179.5710  171.6950  136.7420 O   0  0  0  0  0  1  0  0  0  0  0  0
  1  6  1  1  0  0  0
  2 11  1  0  0  0  0
  2 12  1  0  0  0  0
  3 16  1  6  0  0  0
  3 10  1  0  0  0  0
  4  8  2  0  0  0  0
  5  1  1  0  0  0  0
  7  9  1  1  0  0  0
  7  4  1  0  0  0  0
  8  1  1  0  0  0  0
  9  5  1  0  0  0  0
 11 10  1  6  0  0  0
 11  7  1  0  0  0  0
 12 15  1  0  0  0  0
 13  2  2  0  0  0  0
 14  3  1  0  0  0  0
 14 13  1  0  0  0  0
 15  4  1  0  0  0  0
 16 17  1  1  0  0  0
 16 18  1  0  0  0  0
 19 18  1  0  0  0  0
 19 21  1  0  0  0  0
 20 19  2  0  0  0  0
 21 22  1  0  0  0  0
 22 23  1  6  0  0  0
 22 26  1  0  0  0  0
 24 25  1  0  0  0  0
 25 23  1  0  0  0  0
 26 33  1  6  0  0  0
 26 27  1  0  0  0  0
 27 31  2  0  0  0  0
 27 32  1  0  0  0  0
 28 30  1  0  0  0  0
 29 30  2  0  0  0  0
 31 29  1  0  0  0  0
 32 28  2  0  0  0  0
 34 33  1  0  0  0  0
 35 13  1  0  0  0  0
 36 39  1  0  0  0  0
 37 36  2  0  0  0  0
 38 40  1  0  0  0  0
 40 35  1  0  0  0  0
 40 39  2  0  0  0  0
 41 38  2  0  0  0  0
 41 37  1  0  0  0  0
 42 37  1  0  0  0  0
 43 42  1  0  0  0  0
M  END
>  <MODEL>
7

>  <REMARK>
 VINA RESULT:      -8.4      3.534      6.177
  Name = 
  13 active torsions:
  status: ('A' for Active; 'I' for Inactive)
    1  A    between atoms: N_1  and  C_34
    2  A    between atoms: N_1  and  C_35
    3  A    between atoms: C_2  and  O_6
    4  A    between atoms: C_2  and  C_13
    5  A    between atoms: O_3  and  C_4
    6  A    between atoms: O_3  and  C_12
    7  A    between atoms: C_4  and  O_15
    8  A    between atoms: C_4  and  C_22
    9  A    between atoms: O_6  and  C_12
   10  A    between atoms: C_11  and  C_22
   11  A    between atoms: O_14  and  C_22
   12  A    between atoms: O_15  and  O_42
   13  A    between atoms: C_19  and  O_25
                            x       y       z     vdW  Elec       q    Type
                         _______ _______ _______ _____ _____    ______ ____

>  <TORSDO>
F 13

$$$$
=
 OpenBabel11052416233D

 43 47  0  0  1  0  0  0  0  0999 V2000
  191.0430  177.0280  146.3170 C   0  0  1  0  0  3  0  0  0  0  0  0
  188.8050  177.7700  141.8260 C   0  0  0  0  0  0  0  0  0  0  0  0
  186.1780  178.3870  142.4070 C   0  0  2  0  0  3  0  0  0  0  0  0
  190.3870  176.7300  143.9810 C   0  0  0  0  0  0  0  0  0  0  0  0
  189.5800  176.8620  146.7540 C   0  0  0  0  0  2  0  0  0  0  0  0
  191.8800  176.4150  147.2300 F   0  0  0  0  0  0  0  0  0  0  0  0
  189.1730  177.5740  144.3040 C   0  0  2  0  0  3  0  0  0  0  0  0
  191.2630  176.4500  144.9500 C   0  0  0  0  0  3  0  0  0  0  0  0
  188.5510  177.1270  145.6350 C   0  0  0  0  0  2  0  0  0  0  0  0
  187.1330  178.5020  143.4330 O   0  0  0  0  0  0  0  0  0  0  0  0
  188.1340  177.5410  143.1760 C   0  0  1  0  0  3  0  0  0  0  0  0
  190.1330  177.1110  141.5350 C   0  0  0  0  0  2  0  0  0  0  0  0
  188.1380  178.4330  140.8590 C   0  0  0  0  0  0  0  0  0  0  0  0
  186.7520  178.9570  141.1110 C   0  0  0  0  0  2  0  0  0  0  0  0
  190.5540  176.1220  142.6220 C   0  0  0  0  0  2  0  0  0  0  0  0
  184.8970  179.1290  142.7690 C   0  0  2  0  0  3  0  0  0  0  0  0
  184.9340  179.5580  144.1000 O   0  0  0  0  0  1  0  0  0  0  0  0
  183.7670  178.2920  142.5510 O   0  0  0  0  0  0  0  0  0  0  0  0
  182.4600  178.7240  142.8040 C   0  0  0  0  0  0  0  0  0  0  0  0
  181.9660  178.6210  143.9590 O   0  0  0  0  0  0  0  0  0  0  0  0
  181.6880  179.2820  141.7860 O   0  0  0  0  0  0  0  0  0  0  0  0
  181.0360  178.4880  140.8010 C   0  0  1  0  0  3  0  0  0  0  0  0
  179.6680  178.4040  141.0860 O   0  0  0  0  0  0  0  0  0  0  0  0
  179.5790  176.2590  140.9510 C   0  0  0  0  0  1  0  0  0  0  0  0
  179.2150  177.4410  140.3070 O   0  0  0  0  0  0  0  0  0  0  0  0
  181.2430  179.0920  139.4100 C   0  0  2  0  0  3  0  0  0  0  0  0
  182.2870  178.3410  138.6430 C   0  0  0  0  0  0  0  0  0  0  0  0
  184.6300  177.9560  138.1460 C   0  0  0  0  0  3  0  0  0  0  0  0
  182.9250  176.6990  136.9720 C   0  0  0  0  0  3  0  0  0  0  0  0
  184.2720  176.9890  137.2010 C   0  0  0  0  0  3  0  0  0  0  0  0
  181.9330  177.3750  137.6890 C   0  0  0  0  0  3  0  0  0  0  0  0
  183.6380  178.6320  138.8630 C   0  0  0  0  0  3  0  0  0  0  0  0
  181.5640  180.4520  139.4960 O   0  0  0  0  0  0  0  0  0  0  0  0
  180.4930  181.1120  138.8930 C   0  0  0  0  0  1  0  0  0  0  0  0
  188.7050  178.6580  139.5600 N   0  0  0  0  0  2  0  0  0  0  0  0
  187.9230  175.9000  137.1460 C   0  0  0  0  0  3  0  0  0  0  0  0
  187.6610  176.6360  135.9810 C   0  0  0  0  0  0  0  0  0  0  0  0
  188.0850  178.6900  137.1990 C   0  0  0  0  0  3  0  0  0  0  0  0
  188.2630  176.5590  138.3310 C   0  0  0  0  0  3  0  0  0  0  0  0
  188.3340  177.9600  138.3660 C   0  0  0  0  0  0  0  0  0  0  0  0
  187.7460  178.0320  136.0140 C   0  0  0  0  0  3  0  0  0  0  0  0
  187.3180  176.0000  134.7900 O   0  0  0  0  0  0  0  0  0  0  0  0
  186.5080  174.9330  134.7810 O   0  0  0  0  0  1  0  0  0  0  0  0
  1  5  1  0  0  0  0
  1  6  1  1  0  0  0
  3 16  1  1  0  0  0
  3 10  1  0  0  0  0
  4  7  1  0  0  0  0
  4  8  2  0  0  0  0
  7  9  1  1  0  0  0
  8  1  1  0  0  0  0
  9  5  1  0  0  0  0
 11  2  1  6  0  0  0
 11 10  1  0  0  0  0
 11  7  1  0  0  0  0
 12  2  1  0  0  0  0
 12 15  1  0  0  0  0
 13 14  1  0  0  0  0
 13  2  2  0  0  0  0
 14  3  1  0  0  0  0
 15  4  1  0  0  0  0
 16 17  1  1  0  0  0
 18 16  1  0  0  0  0
 18 19  1  0  0  0  0
 19 20  2  0  0  0  0
 21 19  1  0  0  0  0
 22 23  1  1  0  0  0
 22 21  1  0  0  0  0
 25 24  1  0  0  0  0
 25 23  1  0  0  0  0
 26 33  1  1  0  0  0
 26 22  1  0  0  0  0
 27 32  1  0  0  0  0
 27 26  1  0  0  0  0
 28 32  2  0  0  0  0
 29 30  2  0  0  0  0
 29 31  1  0  0  0  0
 30 28  1  0  0  0  0
 31 27  2  0  0  0  0
 34 33  1  0  0  0  0
 35 13  1  0  0  0  0
 36 39  1  0  0  0  0
 37 41  1  0  0  0  0
 37 36  2  0  0  0  0
 38 40  1  0  0  0  0
 39 40  2  0  0  0  0
 40 35  1  0  0  0  0
 41 38  2  0  0  0  0
 42 37  1  0  0  0  0
 43 42  1  0  0  0  0
M  END
>  <MODEL>
8

>  <REMARK>
 VINA RESULT:      -8.4      2.743      7.305
  Name = 
  13 active torsions:
  status: ('A' for Active; 'I' for Inactive)
    1  A    between atoms: N_1  and  C_34
    2  A    between atoms: N_1  and  C_35
    3  A    between atoms: C_2  and  O_6
    4  A    between atoms: C_2  and  C_13
    5  A    between atoms: O_3  and  C_4
    6  A    between atoms: O_3  and  C_12
    7  A    between atoms: C_4  and  O_15
    8  A    between atoms: C_4  and  C_22
    9  A    between atoms: O_6  and  C_12
   10  A    between atoms: C_11  and  C_22
   11  A    between atoms: O_14  and  C_22
   12  A    between atoms: O_15  and  O_42
   13  A    between atoms: C_19  and  O_25
                            x       y       z     vdW  Elec       q    Type
                         _______ _______ _______ _____ _____    ______ ____

>  <TORSDO>
F 13

$$$$
=
 OpenBabel11052416233D

 43 47  0  0  1  0  0  0  0  0999 V2000
  188.0310  177.9970  145.7600 C   0  0  1  0  0  3  0  0  0  0  0  0
  189.7040  177.2000  141.0380 C   0  0  0  0  0  0  0  0  0  0  0  0
  187.5150  177.6040  139.4050 C   0  0  2  0  0  3  0  0  0  0  0  0
  189.1870  176.9970  143.8520 C   0  0  0  0  0  0  0  0  0  0  0  0
  186.6800  177.7670  145.0690 C   0  0  0  0  0  2  0  0  0  0  0  0
  187.9120  177.7680  147.1170 F   0  0  0  0  0  0  0  0  0  0  0  0
  188.1950  177.7310  142.9760 C   0  0  2  0  0  3  0  0  0  0  0  0
  189.0900  177.1060  145.1800 C   0  0  0  0  0  3  0  0  0  0  0  0
  186.7740  177.5830  143.5400 C   0  0  0  0  0  2  0  0  0  0  0  0
  187.4740  178.1150  140.7150 O   0  0  0  0  0  0  0  0  0  0  0  0
  188.2570  177.2590  141.5180 C   0  0  1  0  0  3  0  0  0  0  0  0
  190.7720  176.6670  141.9630 C   0  0  0  0  0  2  0  0  0  0  0  0
  189.9860  177.4850  139.7490 C   0  0  0  0  0  0  0  0  0  0  0  0
  188.8900  177.8730  138.7970 C   0  0  0  0  0  2  0  0  0  0  0  0
  190.1990  176.0710  143.2480 C   0  0  0  0  0  2  0  0  0  0  0  0
  186.4380  178.2430  138.5360 C   0  0  2  0  0  3  0  0  0  0  0  0
  187.0150  178.9940  137.5070 O   0  0  0  0  0  1  0  0  0  0  0  0
  185.5900  179.0630  139.3310 O   0  0  0  0  0  0  0  0  0  0  0  0
  184.3830  179.5800  138.8450 C   0  0  0  0  0  0  0  0  0  0  0  0
  184.2250  180.8240  138.7200 O   0  0  0  0  0  0  0  0  0  0  0  0
  183.3420  178.7270  138.4820 O   0  0  0  0  0  0  0  0  0  0  0  0
  182.0460  178.8150  139.0630 C   0  0  1  0  0  3  0  0  0  0  0  0
  181.0690  178.7290  138.0640 O   0  0  0  0  0  0  0  0  0  0  0  0
  180.3060  180.6670  138.6030 C   0  0  0  0  0  1  0  0  0  0  0  0
  180.9530  179.9560  137.5930 O   0  0  0  0  0  0  0  0  0  0  0  0
  181.8450  177.6960  140.0870 C   0  0  2  0  0  3  0  0  0  0  0  0
  182.0120  178.2050  141.4860 C   0  0  0  0  0  0  0  0  0  0  0  0
  183.4700  178.7080  143.3580 C   0  0  0  0  0  3  0  0  0  0  0  0
  181.0820  179.0600  143.5600 C   0  0  0  0  0  3  0  0  0  0  0  0
  182.3640  179.1120  144.1140 C   0  0  0  0  0  3  0  0  0  0  0  0
  180.9050  178.6050  142.2500 C   0  0  0  0  0  3  0  0  0  0  0  0
  183.2920  178.2530  142.0480 C   0  0  0  0  0  3  0  0  0  0  0  0
  182.7110  176.6250  139.8370 O   0  0  0  0  0  0  0  0  0  0  0  0
  181.8970  175.6220  139.3110 C   0  0  0  0  0  1  0  0  0  0  0  0
  191.3230  177.4220  139.2320 N   0  0  0  0  0  2  0  0  0  0  0  0
  191.5310  174.3390  137.1130 C   0  0  0  0  0  3  0  0  0  0  0  0
  192.8870  174.3570  136.7540 C   0  0  0  0  0  0  0  0  0  0  0  0
  193.1850  176.3980  138.0280 C   0  0  0  0  0  3  0  0  0  0  0  0
  191.0070  175.3480  137.9250 C   0  0  0  0  0  3  0  0  0  0  0  0
  191.8300  176.3900  138.3780 C   0  0  0  0  0  0  0  0  0  0  0  0
  193.7100  175.3890  137.2180 C   0  0  0  0  0  3  0  0  0  0  0  0
  193.4300  173.3610  135.9430 O   0  0  0  0  0  0  0  0  0  0  0  0
  193.5720  172.1060  136.3880 O   0  0  0  0  0  1  0  0  0  0  0  0
  1  6  1  1  0  0  0
  2 11  1  0  0  0  0
  2 12  1  0  0  0  0
  3 16  1  6  0  0  0
  3 10  1  0  0  0  0
  4  8  2  0  0  0  0
  5  1  1  0  0  0  0
  7  9  1  1  0  0  0
  7  4  1  0  0  0  0
  8  1  1  0  0  0  0
  9  5  1  0  0  0  0
 11 10  1  6  0  0  0
 11  7  1  0  0  0  0
 12 15  1  0  0  0  0
 13  2  2  0  0  0  0
 14  3  1  0  0  0  0
 14 13  1  0  0  0  0
 15  4  1  0  0  0  0
 16 17  1  6  0  0  0
 16 18  1  0  0  0  0
 19 18  1  0  0  0  0
 20 19  2  0  0  0  0
 21 19  1  0  0  0  0
 21 22  1  0  0  0  0
 22 23  1  6  0  0  0
 22 26  1  0  0  0  0
 25 23  1  0  0  0  0
 25 24  1  0  0  0  0
 26 33  1  6  0  0  0
 26 27  1  0  0  0  0
 27 32  2  0  0  0  0
 27 31  1  0  0  0  0
 28 30  2  0  0  0  0
 29 30  1  0  0  0  0
 31 29  2  0  0  0  0
 32 28  1  0  0  0  0
 34 33  1  0  0  0  0
 35 13  1  0  0  0  0
 36 39  1  0  0  0  0
 37 36  2  0  0  0  0
 37 41  1  0  0  0  0
 38 40  1  0  0  0  0
 39 40  2  0  0  0  0
 40 35  1  0  0  0  0
 41 38  2  0  0  0  0
 42 43  1  0  0  0  0
 42 37  1  0  0  0  0
M  END
>  <MODEL>
9

>  <REMARK>
 VINA RESULT:      -8.3      2.585      8.459
  Name = 
  13 active torsions:
  status: ('A' for Active; 'I' for Inactive)
    1  A    between atoms: N_1  and  C_34
    2  A    between atoms: N_1  and  C_35
    3  A    between atoms: C_2  and  O_6
    4  A    between atoms: C_2  and  C_13
    5  A    between atoms: O_3  and  C_4
    6  A    between atoms: O_3  and  C_12
    7  A    between atoms: C_4  and  O_15
    8  A    between atoms: C_4  and  C_22
    9  A    between atoms: O_6  and  C_12
   10  A    between atoms: C_11  and  C_22
   11  A    between atoms: O_14  and  C_22
   12  A    between atoms: O_15  and  O_42
   13  A    between atoms: C_19  and  O_25
                            x       y       z     vdW  Elec       q    Type
                         _______ _______ _______ _____ _____    ______ ____

>  <TORSDO>
F 13

$$$$
