=
 OpenBabel11052413543D

 27 29  0  0  1  0  0  0  0  0999 V2000
  187.3810  178.1650  142.0000 C   0  0  2  0  0  3  0  0  0  0  0  0
  186.8710  178.3130  140.5600 C   0  0  0  0  0  2  0  0  0  0  0  0
  189.6880  178.1570  141.0070 C   0  0  2  0  0  3  0  0  0  0  0  0
  190.8230  177.8810  143.4030 N   0  0  0  0  0  0  0  0  0  0  0  0
  191.0040  176.3210  140.1790 O   0  0  0  0  0  1  0  0  0  0  0  0
  191.4520  177.6300  144.6910 C   0  0  0  0  0  1  0  0  0  0  0  0
  187.8910  177.7540  139.5460 C   0  0  2  0  0  3  0  0  0  0  0  0
  188.7580  177.5050  142.0500 C   0  0  1  0  0  3  0  0  0  0  0  0
  189.1520  178.3790  139.7070 O   0  0  0  0  0  0  0  0  0  0  0  0
  191.5170  177.0790  142.3900 C   0  0  0  0  0  2  0  0  0  0  0  0
  189.2000  176.2610  144.0410 O   0  0  0  0  0  1  0  0  0  0  0  0
  189.3890  177.5180  143.4530 C   0  0  1  0  0  3  0  0  0  0  0  0
  191.0560  177.4670  140.9750 C   0  0  2  0  0  3  0  0  0  0  0  0
  187.5810  176.4380  137.4320 C   0  0  0  0  0  1  0  0  0  0  0  0
  187.4110  177.8130  138.0760 C   0  0  2  0  0  0  0  0  0  0  0  0
  189.0110  178.1530  136.2820 O   0  0  0  0  0  1  0  0  0  0  0  0
  187.5440  179.8360  136.7330 O   0  0  0  0  0  1  0  0  0  0  0  0
  188.2970  178.8030  137.2940 C   0  0  0  0  0  3  0  0  0  0  0  0
  185.1450  177.2600  137.3960 O   0  0  0  0  0  1  0  0  0  0  0  0
  185.9420  178.2510  137.9740 C   0  0  0  0  0  2  0  0  0  0  0  0
  186.4300  177.4770  142.8190 O   0  0  0  0  0  0  0  0  0  0  0  0
  184.1450  179.2250  145.8410 N   0  0  0  0  0  0  0  0  0  0  0  0
  185.6420  178.0710  143.8170 C   0  0  0  0  0  0  0  0  0  0  0  0
  186.1360  178.1170  145.1230 C   0  0  0  0  0  3  0  0  0  0  0  0
  185.3670  178.7020  146.1310 C   0  0  0  0  0  3  0  0  0  0  0  0
  183.6400  179.1930  144.5790 C   0  0  0  0  0  3  0  0  0  0  0  0
  184.3790  178.6170  143.5450 C   0  0  0  0  0  3  0  0  0  0  0  0
  1  8  1  0  0  0  0
  1 21  1  1  0  0  0
  2  1  1  0  0  0  0
  3  9  1  6  0  0  0
  3  8  1  0  0  0  0
  4 12  1  0  0  0  0
  4  6  1  0  0  0  0
  5 13  1  0  0  0  0
  7 15  1  6  0  0  0
  7  9  1  0  0  0  0
  7  2  1  0  0  0  0
  8 12  1  0  0  0  0
 10  4  1  0  0  0  0
 12 11  1  0  0  0  0
 13  3  1  0  0  0  0
 13 10  1  0  0  0  0
 14 15  1  0  0  0  0
 16 18  1  0  0  0  0
 17 18  1  0  0  0  0
 18 15  1  0  0  0  0
 19 20  1  0  0  0  0
 20 15  1  0  0  0  0
 21 23  1  0  0  0  0
 22 25  1  0  0  0  0
 23 24  1  0  0  0  0
 24 25  2  0  0  0  0
 26 22  2  0  0  0  0
 27 23  2  0  0  0  0
 27 26  1  0  0  0  0
M  END
>  <MODEL>
1

>  <REMARK>
 VINA RESULT:      -7.4      0.000      0.000
  Name = 
  5 active torsions:
  status: ('A' for Active; 'I' for Inactive)
    1  A    between atoms: C_1  and  O_15
    2  A    between atoms: C_9  and  O_15
    3  A    between atoms: C_14  and  C_17
    4  A    between atoms: C_16  and  C_17
    5  A    between atoms: C_17  and  C_21
                            x       y       z     vdW  Elec       q    Type
                         _______ _______ _______ _____ _____    ______ ____

>  <TORSDO>
F 5

$$$$
=
 OpenBabel11052413543D

 27 29  0  0  1  0  0  0  0  0999 V2000
  187.3630  178.1550  141.9560 C   0  0  2  0  0  3  0  0  0  0  0  0
  186.8400  178.2940  140.5190 C   0  0  0  0  0  2  0  0  0  0  0  0
  189.6620  178.1520  140.9440 C   0  0  2  0  0  3  0  0  0  0  0  0
  190.8180  177.8930  143.3320 N   0  0  0  0  0  0  0  0  0  0  0  0
  190.9790  176.3180  140.1130 O   0  0  0  0  0  1  0  0  0  0  0  0
  191.4590  177.6510  144.6150 C   0  0  0  0  0  1  0  0  0  0  0  0
  187.8540  177.7340  139.5000 C   0  0  2  0  0  3  0  0  0  0  0  0
  188.7440  177.5010  141.9970 C   0  0  1  0  0  3  0  0  0  0  0  0
  189.1140  178.3650  139.6470 O   0  0  0  0  0  0  0  0  0  0  0  0
  191.5070  177.0890  142.3160 C   0  0  0  0  0  2  0  0  0  0  0  0
  189.2080  176.2680  143.9900 O   0  0  0  0  0  1  0  0  0  0  0  0
  189.3870  177.5230  143.3950 C   0  0  1  0  0  3  0  0  0  0  0  0
  191.0330  177.4680  140.9030 C   0  0  2  0  0  3  0  0  0  0  0  0
  185.9090  178.2540  138.0010 C   0  0  0  0  0  1  0  0  0  0  0  0
  187.3630  177.7840  138.0330 C   0  0  2  0  0  0  0  0  0  0  0  0
  186.9020  176.3460  136.1320 O   0  0  0  0  0  1  0  0  0  0  0  0
  188.6960  175.8380  137.4400 O   0  0  0  0  0  1  0  0  0  0  0  0
  187.4020  176.3620  137.4380 C   0  0  0  0  0  3  0  0  0  0  0  0
  187.4980  179.8220  136.7170 O   0  0  0  0  0  1  0  0  0  0  0  0
  188.2270  178.7210  137.1750 C   0  0  0  0  0  2  0  0  0  0  0  0
  186.4220  177.4660  142.7860 O   0  0  0  0  0  0  0  0  0  0  0  0
  184.1720  179.2120  145.8350 N   0  0  0  0  0  0  0  0  0  0  0  0
  185.6460  178.0610  143.7930 C   0  0  0  0  0  0  0  0  0  0  0  0
  186.1410  178.0780  145.0990 C   0  0  0  0  0  3  0  0  0  0  0  0
  185.3840  178.6630  146.1170 C   0  0  0  0  0  3  0  0  0  0  0  0
  183.6650  179.2080  144.5740 C   0  0  0  0  0  3  0  0  0  0  0  0
  184.3930  178.6330  143.5300 C   0  0  0  0  0  3  0  0  0  0  0  0
  1  8  1  0  0  0  0
  1 21  1  1  0  0  0
  2  1  1  0  0  0  0
  3  9  1  6  0  0  0
  3  8  1  0  0  0  0
  4 12  1  0  0  0  0
  4  6  1  0  0  0  0
  5 13  1  0  0  0  0
  7 15  1  6  0  0  0
  7  9  1  0  0  0  0
  7  2  1  0  0  0  0
  8 12  1  0  0  0  0
 10  4  1  0  0  0  0
 12 11  1  0  0  0  0
 13  3  1  0  0  0  0
 13 10  1  0  0  0  0
 14 15  1  0  0  0  0
 16 18  1  0  0  0  0
 18 17  1  0  0  0  0
 18 15  1  0  0  0  0
 19 20  1  0  0  0  0
 20 15  1  0  0  0  0
 21 23  1  0  0  0  0
 22 25  1  0  0  0  0
 23 24  1  0  0  0  0
 24 25  2  0  0  0  0
 26 22  2  0  0  0  0
 27 23  2  0  0  0  0
 27 26  1  0  0  0  0
M  END
>  <MODEL>
2

>  <REMARK>
 VINA RESULT:      -7.3      0.679      1.459
  Name = 
  5 active torsions:
  status: ('A' for Active; 'I' for Inactive)
    1  A    between atoms: C_1  and  O_15
    2  A    between atoms: C_9  and  O_15
    3  A    between atoms: C_14  and  C_17
    4  A    between atoms: C_16  and  C_17
    5  A    between atoms: C_17  and  C_21
                            x       y       z     vdW  Elec       q    Type
                         _______ _______ _______ _____ _____    ______ ____

>  <TORSDO>
F 5

$$$$
=
 OpenBabel11052413543D

 27 29  0  0  1  0  0  0  0  0999 V2000
  188.7390  177.2750  143.3980 C   0  0  2  0  0  3  0  0  0  0  0  0
  187.2750  177.7000  143.2140 C   0  0  0  0  0  2  0  0  0  0  0  0
  188.1820  177.0090  145.8330 C   0  0  2  0  0  3  0  0  0  0  0  0
  190.6710  176.2580  146.4200 N   0  0  0  0  0  0  0  0  0  0  0  0
  188.2550  178.6220  147.6170 O   0  0  0  0  0  1  0  0  0  0  0  0
  192.0480  175.9440  146.7720 C   0  0  0  0  0  1  0  0  0  0  0  0
  186.6890  178.2670  144.5230 C   0  0  2  0  0  3  0  0  0  0  0  0
  189.2280  177.5260  144.8240 C   0  0  1  0  0  3  0  0  0  0  0  0
  186.8180  177.3300  145.5780 O   0  0  0  0  0  0  0  0  0  0  0  0
  190.1190  177.1290  147.4620 C   0  0  0  0  0  2  0  0  0  0  0  0
  191.5690  177.9600  145.0190 O   0  0  0  0  0  1  0  0  0  0  0  0
  190.6190  176.9340  145.1040 C   0  0  1  0  0  3  0  0  0  0  0  0
  188.6030  177.3140  147.2750 C   0  0  2  0  0  3  0  0  0  0  0  0
  185.2450  180.2750  144.0950 C   0  0  0  0  0  1  0  0  0  0  0  0
  185.2340  178.7760  144.3910 C   0  0  2  0  0  0  0  0  0  0  0  0
  185.1190  179.3010  146.7590 O   0  0  0  0  0  1  0  0  0  0  0  0
  183.1600  178.9470  145.6510 O   0  0  0  0  0  1  0  0  0  0  0  0
  184.5030  178.5750  145.7340 C   0  0  0  0  0  3  0  0  0  0  0  0
  184.0210  178.9150  142.2900 O   0  0  0  0  0  1  0  0  0  0  0  0
  184.4720  178.0380  143.2790 C   0  0  0  0  0  2  0  0  0  0  0  0
  189.5860  177.8980  142.4280 O   0  0  0  0  0  0  0  0  0  0  0  0
  189.5660  177.0880  138.3340 N   0  0  0  0  0  0  0  0  0  0  0  0
  189.5580  177.6430  141.0480 C   0  0  0  0  0  0  0  0  0  0  0  0
  190.4680  176.7260  140.5170 C   0  0  0  0  0  3  0  0  0  0  0  0
  190.4580  176.4580  139.1460 C   0  0  0  0  0  3  0  0  0  0  0  0
  188.6700  177.9860  138.8240 C   0  0  0  0  0  3  0  0  0  0  0  0
  188.6500  178.2800  140.1890 C   0  0  0  0  0  3  0  0  0  0  0  0
  1 21  1  6  0  0  0
  1  8  1  0  0  0  0
  2  1  1  0  0  0  0
  2  7  1  0  0  0  0
  3  9  1  6  0  0  0
  3 13  1  0  0  0  0
  4  6  1  0  0  0  0
  4 10  1  0  0  0  0
  7 15  1  6  0  0  0
  7  9  1  0  0  0  0
  8 12  1  0  0  0  0
  8  3  1  0  0  0  0
 11 12  1  0  0  0  0
 12  4  1  0  0  0  0
 13 10  1  0  0  0  0
 13  5  1  0  0  0  0
 14 15  1  0  0  0  0
 15 18  1  0  0  0  0
 17 18  1  0  0  0  0
 18 16  1  0  0  0  0
 19 20  1  0  0  0  0
 20 15  1  0  0  0  0
 22 26  2  0  0  0  0
 22 25  1  0  0  0  0
 23 21  1  0  0  0  0
 24 23  1  0  0  0  0
 25 24  2  0  0  0  0
 26 27  1  0  0  0  0
 27 23  2  0  0  0  0
M  END
>  <MODEL>
3

>  <REMARK>
 VINA RESULT:      -7.2      2.987      6.395
  Name = 
  5 active torsions:
  status: ('A' for Active; 'I' for Inactive)
    1  A    between atoms: C_1  and  O_15
    2  A    between atoms: C_9  and  O_15
    3  A    between atoms: C_14  and  C_17
    4  A    between atoms: C_16  and  C_17
    5  A    between atoms: C_17  and  C_21
                            x       y       z     vdW  Elec       q    Type
                         _______ _______ _______ _____ _____    ______ ____

>  <TORSDO>
F 5

$$$$
=
 OpenBabel11052413543D

 27 29  0  0  1  0  0  0  0  0999 V2000
  187.9040  177.7020  141.7440 C   0  0  2  0  0  3  0  0  0  0  0  0
  188.5400  177.5190  143.1300 C   0  0  0  0  0  2  0  0  0  0  0  0
  189.9770  176.6160  140.8320 C   0  0  2  0  0  3  0  0  0  0  0  0
  189.1030  176.8330  138.3230 N   0  0  0  0  0  0  0  0  0  0  0  0
  192.0740  177.5980  140.1800 O   0  0  0  0  0  1  0  0  0  0  0  0
  188.6860  177.0350  136.9430 C   0  0  0  0  0  1  0  0  0  0  0  0
  190.0770  177.4370  143.0320 C   0  0  2  0  0  3  0  0  0  0  0  0
  188.9580  177.7570  140.6390 C   0  0  1  0  0  3  0  0  0  0  0  0
  190.4700  176.4010  142.1500 O   0  0  0  0  0  0  0  0  0  0  0  0
  190.5430  177.1000  138.4100 C   0  0  0  0  0  2  0  0  0  0  0  0
  188.3390  179.0500  138.7280 O   0  0  0  0  0  1  0  0  0  0  0  0
  188.3570  177.7400  139.2230 C   0  0  1  0  0  3  0  0  0  0  0  0
  191.0940  176.6860  139.7850 C   0  0  2  0  0  3  0  0  0  0  0  0
  191.6450  176.0520  144.4190 C   0  0  0  0  0  1  0  0  0  0  0  0
  190.7880  177.3170  144.4020 C   0  0  2  0  0  0  0  0  0  0  0  0
  190.2210  176.4330  146.5900 O   0  0  0  0  0  1  0  0  0  0  0  0
  189.2890  178.4160  145.9700 O   0  0  0  0  0  1  0  0  0  0  0  0
  189.7270  177.1730  145.5110 C   0  0  0  0  0  3  0  0  0  0  0  0
  191.3240  179.6320  143.8920 O   0  0  0  0  0  1  0  0  0  0  0  0
  191.6700  178.5410  144.6940 C   0  0  0  0  0  2  0  0  0  0  0  0
  187.0430  178.8450  141.7160 O   0  0  0  0  0  0  0  0  0  0  0  0
  182.8800  178.7320  141.9780 N   0  0  0  0  0  0  0  0  0  0  0  0
  185.6450  178.8060  141.8310 C   0  0  0  0  0  0  0  0  0  0  0  0
  184.8760  178.7790  140.6660 C   0  0  0  0  0  3  0  0  0  0  0  0
  183.4820  178.7430  140.7580 C   0  0  0  0  0  3  0  0  0  0  0  0
  183.6040  178.7590  143.1290 C   0  0  0  0  0  3  0  0  0  0  0  0
  184.9990  178.7960  143.0770 C   0  0  0  0  0  3  0  0  0  0  0  0
  1 21  1  1  0  0  0
  1  2  1  0  0  0  0
  3  9  1  1  0  0  0
  4 10  1  0  0  0  0
  4 12  1  0  0  0  0
  6  4  1  0  0  0  0
  7  2  1  0  0  0  0
  7 15  1  1  0  0  0
  8  3  1  0  0  0  0
  8  1  1  0  0  0  0
  9  7  1  0  0  0  0
 10 13  1  0  0  0  0
 11 12  1  0  0  0  0
 12  8  1  0  0  0  0
 13  5  1  0  0  0  0
 13  3  1  0  0  0  0
 15 14  1  0  0  0  0
 15 20  1  0  0  0  0
 15 18  1  0  0  0  0
 18 17  1  0  0  0  0
 18 16  1  0  0  0  0
 19 20  1  0  0  0  0
 21 23  1  0  0  0  0
 22 26  1  0  0  0  0
 23 27  1  0  0  0  0
 24 25  1  0  0  0  0
 24 23  2  0  0  0  0
 25 22  2  0  0  0  0
 27 26  2  0  0  0  0
M  END
>  <MODEL>
4

>  <REMARK>
 VINA RESULT:      -7.2      2.227      5.629
  Name = 
  5 active torsions:
  status: ('A' for Active; 'I' for Inactive)
    1  A    between atoms: C_1  and  O_15
    2  A    between atoms: C_9  and  O_15
    3  A    between atoms: C_14  and  C_17
    4  A    between atoms: C_16  and  C_17
    5  A    between atoms: C_17  and  C_21
                            x       y       z     vdW  Elec       q    Type
                         _______ _______ _______ _____ _____    ______ ____

>  <TORSDO>
F 5

$$$$
=
 OpenBabel11052413543D

 27 29  0  0  1  0  0  0  0  0999 V2000
  187.8600  176.8570  143.5050 C   0  0  2  0  0  3  0  0  0  0  0  0
  188.0560  176.7730  145.0260 C   0  0  0  0  0  2  0  0  0  0  0  0
  190.3560  176.6310  143.3380 C   0  0  2  0  0  3  0  0  0  0  0  0
  190.2870  176.7710  140.6760 N   0  0  0  0  0  0  0  0  0  0  0  0
  192.0640  178.3250  143.3760 O   0  0  0  0  0  1  0  0  0  0  0  0
  190.2760  176.9470  139.2320 C   0  0  0  0  0  1  0  0  0  0  0  0
  189.4730  177.2290  145.4320 C   0  0  2  0  0  3  0  0  0  0  0  0
  189.1150  177.3700  142.7990 C   0  0  1  0  0  3  0  0  0  0  0  0
  190.4580  176.4750  144.7490 O   0  0  0  0  0  0  0  0  0  0  0  0
  191.4370  177.5030  141.2180 C   0  0  0  0  0  2  0  0  0  0  0  0
  188.7060  178.5480  140.7610 O   0  0  0  0  0  1  0  0  0  0  0  0
  189.0290  177.2820  141.2660 C   0  0  1  0  0  3  0  0  0  0  0  0
  191.6430  177.1750  142.7070 C   0  0  2  0  0  3  0  0  0  0  0  0
  189.6570  178.6650  147.4820 C   0  0  0  0  0  1  0  0  0  0  0  0
  189.7170  177.2300  146.9600 C   0  0  2  0  0  0  0  0  0  0  0  0
  191.7980  177.4910  148.1840 O   0  0  0  0  0  1  0  0  0  0  0  0
  191.1020  175.3750  147.7080 O   0  0  0  0  0  1  0  0  0  0  0  0
  191.1340  176.6920  147.2470 C   0  0  0  0  0  3  0  0  0  0  0  0
  187.9160  177.1290  148.5880 O   0  0  0  0  0  1  0  0  0  0  0  0
  188.6840  176.3680  147.7020 C   0  0  0  0  0  2  0  0  0  0  0  0
  186.7060  177.6360  143.1740 O   0  0  0  0  0  0  0  0  0  0  0  0
  183.8050  179.0030  145.8440 N   0  0  0  0  0  0  0  0  0  0  0  0
  185.7480  178.0910  144.0930 C   0  0  0  0  0  0  0  0  0  0  0  0
  184.4950  178.4840  143.6160 C   0  0  0  0  0  3  0  0  0  0  0  0
  183.5270  178.9420  144.5130 C   0  0  0  0  0  3  0  0  0  0  0  0
  185.0160  178.6280  146.3350 C   0  0  0  0  0  3  0  0  0  0  0  0
  186.0090  178.1650  145.4690 C   0  0  0  0  0  3  0  0  0  0  0  0
  1 21  1  1  0  0  0
  1  2  1  0  0  0  0
  2  7  1  0  0  0  0
  3  9  1  1  0  0  0
  4 10  1  0  0  0  0
  4 12  1  0  0  0  0
  6  4  1  0  0  0  0
  7 15  1  1  0  0  0
  8  3  1  0  0  0  0
  8  1  1  0  0  0  0
  9  7  1  0  0  0  0
 10 13  1  0  0  0  0
 11 12  1  0  0  0  0
 12  8  1  0  0  0  0
 13  3  1  0  0  0  0
 13  5  1  0  0  0  0
 15 18  1  0  0  0  0
 15 14  1  0  0  0  0
 15 20  1  0  0  0  0
 18 17  1  0  0  0  0
 18 16  1  0  0  0  0
 20 19  1  0  0  0  0
 21 23  1  0  0  0  0
 22 26  1  0  0  0  0
 23 27  1  0  0  0  0
 24 23  2  0  0  0  0
 24 25  1  0  0  0  0
 25 22  2  0  0  0  0
 27 26  2  0  0  0  0
M  END
>  <MODEL>
5

>  <REMARK>
 VINA RESULT:      -7.0      2.466      6.262
  Name = 
  5 active torsions:
  status: ('A' for Active; 'I' for Inactive)
    1  A    between atoms: C_1  and  O_15
    2  A    between atoms: C_9  and  O_15
    3  A    between atoms: C_14  and  C_17
    4  A    between atoms: C_16  and  C_17
    5  A    between atoms: C_17  and  C_21
                            x       y       z     vdW  Elec       q    Type
                         _______ _______ _______ _____ _____    ______ ____

>  <TORSDO>
F 5

$$$$
=
 OpenBabel11052413543D

 27 29  0  0  1  0  0  0  0  0999 V2000
  187.1890  177.6220  144.0240 C   0  0  2  0  0  3  0  0  0  0  0  0
  187.5120  177.3600  145.5030 C   0  0  0  0  0  2  0  0  0  0  0  0
  189.4390  176.6220  143.5270 C   0  0  2  0  0  3  0  0  0  0  0  0
  189.1290  176.9850  140.9050 N   0  0  0  0  0  0  0  0  0  0  0  0
  191.6010  177.6700  143.4110 O   0  0  0  0  0  1  0  0  0  0  0  0
  189.0180  177.2670  139.4820 C   0  0  0  0  0  1  0  0  0  0  0  0
  189.0350  177.3040  145.7400 C   0  0  2  0  0  3  0  0  0  0  0  0
  188.4570  177.7590  143.1820 C   0  0  1  0  0  3  0  0  0  0  0  0
  189.6380  176.3300  144.9070 O   0  0  0  0  0  0  0  0  0  0  0  0
  190.5070  177.2640  141.3220 C   0  0  0  0  0  2  0  0  0  0  0  0
  188.2360  179.1620  141.2620 O   0  0  0  0  0  1  0  0  0  0  0  0
  188.1800  177.8240  141.6710 C   0  0  1  0  0  3  0  0  0  0  0  0
  190.7560  176.7720  142.7570 C   0  0  2  0  0  3  0  0  0  0  0  0
  188.7390  175.8620  147.7730 C   0  0  0  0  0  1  0  0  0  0  0  0
  189.4330  177.1080  147.2230 C   0  0  2  0  0  0  0  0  0  0  0  0
  187.8200  177.9760  148.8170 O   0  0  0  0  0  1  0  0  0  0  0  0
  189.9370  178.8160  148.8800 O   0  0  0  0  0  1  0  0  0  0  0  0
  188.9360  178.3140  148.0440 C   0  0  0  0  0  3  0  0  0  0  0  0
  191.3270  175.6420  147.6330 O   0  0  0  0  0  1  0  0  0  0  0  0
  190.9540  176.9660  147.3900 C   0  0  0  0  0  2  0  0  0  0  0  0
  186.3250  178.7530  143.8750 O   0  0  0  0  0  0  0  0  0  0  0  0
  182.4030  178.6390  142.4570 N   0  0  0  0  0  0  0  0  0  0  0  0
  185.0150  178.7080  143.3730 C   0  0  0  0  0  0  0  0  0  0  0  0
  183.9580  179.0260  144.2280 C   0  0  0  0  0  3  0  0  0  0  0  0
  182.6460  178.9850  143.7500 C   0  0  0  0  0  3  0  0  0  0  0  0
  183.4120  178.3240  141.6030 C   0  0  0  0  0  3  0  0  0  0  0  0
  184.7370  178.3530  142.0450 C   0  0  0  0  0  3  0  0  0  0  0  0
  1 21  1  1  0  0  0
  1  2  1  0  0  0  0
  2  7  1  0  0  0  0
  3  9  1  1  0  0  0
  4 10  1  0  0  0  0
  4 12  1  0  0  0  0
  6  4  1  0  0  0  0
  7 15  1  1  0  0  0
  8  3  1  0  0  0  0
  8  1  1  0  0  0  0
  9  7  1  0  0  0  0
 10 13  1  0  0  0  0
 11 12  1  0  0  0  0
 12  8  1  0  0  0  0
 13  5  1  0  0  0  0
 13  3  1  0  0  0  0
 15 20  1  0  0  0  0
 15 14  1  0  0  0  0
 15 18  1  0  0  0  0
 18 16  1  0  0  0  0
 18 17  1  0  0  0  0
 20 19  1  0  0  0  0
 22 25  1  0  0  0  0
 23 21  1  0  0  0  0
 23 24  1  0  0  0  0
 25 24  2  0  0  0  0
 26 27  1  0  0  0  0
 26 22  2  0  0  0  0
 27 23  2  0  0  0  0
M  END
>  <MODEL>
6

>  <REMARK>
 VINA RESULT:      -7.0      2.693      6.476
  Name = 
  5 active torsions:
  status: ('A' for Active; 'I' for Inactive)
    1  A    between atoms: C_1  and  O_15
    2  A    between atoms: C_9  and  O_15
    3  A    between atoms: C_14  and  C_17
    4  A    between atoms: C_16  and  C_17
    5  A    between atoms: C_17  and  C_21
                            x       y       z     vdW  Elec       q    Type
                         _______ _______ _______ _____ _____    ______ ____

>  <TORSDO>
F 5

$$$$
=
 OpenBabel11052413543D

 27 29  0  0  1  0  0  0  0  0999 V2000
  187.6990  177.8100  141.4120 C   0  0  2  0  0  3  0  0  0  0  0  0
  188.2530  177.7120  142.8410 C   0  0  0  0  0  2  0  0  0  0  0  0
  189.8390  176.7160  140.6830 C   0  0  2  0  0  3  0  0  0  0  0  0
  189.1140  176.7840  138.1190 N   0  0  0  0  0  0  0  0  0  0  0  0
  191.9560  177.7010  140.1050 O   0  0  0  0  0  1  0  0  0  0  0  0
  188.7770  176.9050  136.7090 C   0  0  0  0  0  1  0  0  0  0  0  0
  189.7950  177.6540  142.8380 C   0  0  2  0  0  3  0  0  0  0  0  0
  188.8160  177.8260  140.3690 C   0  0  1  0  0  3  0  0  0  0  0  0
  190.2560  176.5800  142.0380 O   0  0  0  0  0  0  0  0  0  0  0  0
  190.5420  177.0820  138.2770 C   0  0  0  0  0  2  0  0  0  0  0  0
  188.2930  179.0050  138.3590 O   0  0  0  0  0  1  0  0  0  0  0  0
  188.3010  177.7230  138.9240 C   0  0  1  0  0  3  0  0  0  0  0  0
  191.0160  176.7510  139.7020 C   0  0  2  0  0  3  0  0  0  0  0  0
  189.3480  177.9240  145.2930 C   0  0  0  0  0  1  0  0  0  0  0  0
  190.4240  177.6190  144.2520 C   0  0  2  0  0  0  0  0  0  0  0  0
  192.4300  178.6200  143.3210 O   0  0  0  0  0  1  0  0  0  0  0  0
  190.9260  179.9980  144.3360 O   0  0  0  0  0  1  0  0  0  0  0  0
  191.4950  178.7230  144.3570 C   0  0  0  0  0  3  0  0  0  0  0  0
  191.8590  176.3010  145.7040 O   0  0  0  0  0  1  0  0  0  0  0  0
  191.0630  176.2550  144.5560 C   0  0  0  0  0  2  0  0  0  0  0  0
  186.8230  178.9330  141.2720 O   0  0  0  0  0  0  0  0  0  0  0  0
  182.6540  178.7680  141.2580 N   0  0  0  0  0  0  0  0  0  0  0  0
  185.4210  178.8730  141.2940 C   0  0  0  0  0  0  0  0  0  0  0  0
  184.7250  179.0040  140.0910 C   0  0  0  0  0  3  0  0  0  0  0  0
  183.3290  178.9490  140.0910 C   0  0  0  0  0  3  0  0  0  0  0  0
  183.3060  178.6380  142.4440 C   0  0  0  0  0  3  0  0  0  0  0  0
  184.7010  178.6880  142.4840 C   0  0  0  0  0  3  0  0  0  0  0  0
  1 21  1  1  0  0  0
  1  2  1  0  0  0  0
  3  9  1  1  0  0  0
  4 10  1  0  0  0  0
  4 12  1  0  0  0  0
  6  4  1  0  0  0  0
  7  2  1  0  0  0  0
  7 15  1  1  0  0  0
  8  3  1  0  0  0  0
  8  1  1  0  0  0  0
  9  7  1  0  0  0  0
 10 13  1  0  0  0  0
 11 12  1  0  0  0  0
 12  8  1  0  0  0  0
 13  5  1  0  0  0  0
 13  3  1  0  0  0  0
 15 18  1  0  0  0  0
 15 20  1  0  0  0  0
 15 14  1  0  0  0  0
 16 18  1  0  0  0  0
 17 18  1  0  0  0  0
 20 19  1  0  0  0  0
 21 23  1  0  0  0  0
 22 26  1  0  0  0  0
 23 27  1  0  0  0  0
 24 25  1  0  0  0  0
 24 23  2  0  0  0  0
 25 22  2  0  0  0  0
 26 27  2  0  0  0  0
M  END
>  <MODEL>
7

>  <REMARK>
 VINA RESULT:      -6.9      2.459      5.545
  Name = 
  5 active torsions:
  status: ('A' for Active; 'I' for Inactive)
    1  A    between atoms: C_1  and  O_15
    2  A    between atoms: C_9  and  O_15
    3  A    between atoms: C_14  and  C_17
    4  A    between atoms: C_16  and  C_17
    5  A    between atoms: C_17  and  C_21
                            x       y       z     vdW  Elec       q    Type
                         _______ _______ _______ _____ _____    ______ ____

>  <TORSDO>
F 5

$$$$
=
 OpenBabel11052413543D

 27 29  0  0  1  0  0  0  0  0999 V2000
  187.0180  178.1150  143.0780 C   0  0  2  0  0  3  0  0  0  0  0  0
  185.6240  178.4820  142.5490 C   0  0  0  0  0  2  0  0  0  0  0  0
  187.8340  178.5360  140.7400 C   0  0  2  0  0  3  0  0  0  0  0  0
  190.3440  177.9280  141.4040 N   0  0  0  0  0  0  0  0  0  0  0  0
  187.9740  177.0390  138.8620 O   0  0  0  0  0  1  0  0  0  0  0  0
  191.6970  177.5030  141.7250 C   0  0  0  0  0  1  0  0  0  0  0  0
  185.5210  178.2350  141.0290 C   0  0  2  0  0  3  0  0  0  0  0  0
  187.9310  177.6040  141.9650 C   0  0  1  0  0  3  0  0  0  0  0  0
  186.5320  178.9450  140.3360 O   0  0  0  0  0  0  0  0  0  0  0  0
  190.0040  177.4110  140.0740 C   0  0  0  0  0  2  0  0  0  0  0  0
  189.6060  176.0560  142.6760 O   0  0  0  0  0  1  0  0  0  0  0  0
  189.3910  177.4150  142.4130 C   0  0  1  0  0  3  0  0  0  0  0  0
  188.6790  178.0110  139.5740 C   0  0  2  0  0  3  0  0  0  0  0  0
  183.4050  177.2010  140.1610 C   0  0  0  0  0  1  0  0  0  0  0  0
  184.1190  178.5230  140.4400 C   0  0  2  0  0  0  0  0  0  0  0  0
  183.7990  178.4780  138.0340 O   0  0  0  0  0  1  0  0  0  0  0  0
  183.6140  180.4860  139.0950 O   0  0  0  0  0  1  0  0  0  0  0  0
  184.2770  179.2560  139.0930 C   0  0  0  0  0  3  0  0  0  0  0  0
  181.9930  178.8350  141.5740 O   0  0  0  0  0  1  0  0  0  0  0  0
  183.2670  179.3780  141.3910 C   0  0  0  0  0  2  0  0  0  0  0  0
  186.9330  177.1880  144.1650 O   0  0  0  0  0  0  0  0  0  0  0  0
  188.0720  177.9960  148.0970 N   0  0  0  0  0  0  0  0  0  0  0  0
  187.3410  177.4480  145.4830 C   0  0  0  0  0  0  0  0  0  0  0  0
  186.4280  178.0310  146.3650 C   0  0  0  0  0  3  0  0  0  0  0  0
  186.8140  178.3000  147.6800 C   0  0  0  0  0  3  0  0  0  0  0  0
  188.9810  177.4300  147.2590 C   0  0  0  0  0  3  0  0  0  0  0  0
  188.6320  177.1450  145.9380 C   0  0  0  0  0  3  0  0  0  0  0  0
  1 21  1  1  0  0  0
  2  1  1  0  0  0  0
  3  9  1  6  0  0  0
  3  8  1  0  0  0  0
  4  6  1  0  0  0  0
  4 12  1  0  0  0  0
  5 13  1  0  0  0  0
  7 15  1  6  0  0  0
  7  2  1  0  0  0  0
  8 12  1  0  0  0  0
  8  1  1  0  0  0  0
  9  7  1  0  0  0  0
 10  4  1  0  0  0  0
 12 11  1  0  0  0  0
 13 10  1  0  0  0  0
 13  3  1  0  0  0  0
 14 15  1  0  0  0  0
 15 20  1  0  0  0  0
 16 18  1  0  0  0  0
 18 17  1  0  0  0  0
 18 15  1  0  0  0  0
 20 19  1  0  0  0  0
 21 23  1  0  0  0  0
 23 27  2  0  0  0  0
 23 24  1  0  0  0  0
 24 25  2  0  0  0  0
 25 22  1  0  0  0  0
 26 22  2  0  0  0  0
 27 26  1  0  0  0  0
M  END
>  <MODEL>
8

>  <REMARK>
 VINA RESULT:      -6.9      2.387      3.524
  Name = 
  5 active torsions:
  status: ('A' for Active; 'I' for Inactive)
    1  A    between atoms: C_1  and  O_15
    2  A    between atoms: C_9  and  O_15
    3  A    between atoms: C_14  and  C_17
    4  A    between atoms: C_16  and  C_17
    5  A    between atoms: C_17  and  C_21
                            x       y       z     vdW  Elec       q    Type
                         _______ _______ _______ _____ _____    ______ ____

>  <TORSDO>
F 5

$$$$
=
 OpenBabel11052413543D

 27 29  0  0  1  0  0  0  0  0999 V2000
  190.3730  177.1250  139.9460 C   0  0  2  0  0  3  0  0  0  0  0  0
  190.8860  177.1630  141.3940 C   0  0  0  0  0  2  0  0  0  0  0  0
  188.4620  178.5370  140.7600 C   0  0  2  0  0  3  0  0  0  0  0  0
  187.3570  178.6080  138.3350 N   0  0  0  0  0  0  0  0  0  0  0  0
  186.3480  177.8790  141.6990 O   0  0  0  0  0  1  0  0  0  0  0  0
  186.6890  178.5730  137.0430 C   0  0  0  0  0  1  0  0  0  0  0  0
  189.7320  177.4120  142.3870 C   0  0  2  0  0  3  0  0  0  0  0  0
  188.8620  177.3410  139.8730 C   0  0  1  0  0  3  0  0  0  0  0  0
  189.0370  178.6030  142.0610 O   0  0  0  0  0  0  0  0  0  0  0  0
  186.3370  178.4770  139.3820 C   0  0  0  0  0  2  0  0  0  0  0  0
  187.7900  176.2900  138.0160 O   0  0  0  0  0  1  0  0  0  0  0  0
  188.3400  177.5070  138.4360 C   0  0  1  0  0  3  0  0  0  0  0  0
  186.9430  178.7360  140.7720 C   0  0  2  0  0  3  0  0  0  0  0  0
  191.3060  176.3950  144.0570 C   0  0  0  0  0  1  0  0  0  0  0  0
  190.1690  177.3990  143.8720 C   0  0  2  0  0  0  0  0  0  0  0  0
  188.4720  177.9760  145.5090 O   0  0  0  0  0  1  0  0  0  0  0  0
  187.9630  176.3780  143.9680 O   0  0  0  0  0  1  0  0  0  0  0  0
  188.9880  176.9260  144.7430 C   0  0  0  0  0  3  0  0  0  0  0  0
  192.0040  178.9620  144.1800 O   0  0  0  0  0  1  0  0  0  0  0  0
  190.6270  178.7890  144.3430 C   0  0  0  0  0  2  0  0  0  0  0  0
  190.7710  175.9180  139.2880 O   0  0  0  0  0  0  0  0  0  0  0  0
  193.0580  175.7710  135.8000 N   0  0  0  0  0  0  0  0  0  0  0  0
  191.5210  175.8540  138.1030 C   0  0  0  0  0  0  0  0  0  0  0  0
  192.7940  176.4280  138.0820 C   0  0  0  0  0  3  0  0  0  0  0  0
  193.5550  176.3770  136.9120 C   0  0  0  0  0  3  0  0  0  0  0  0
  191.8220  175.2050  135.7920 C   0  0  0  0  0  3  0  0  0  0  0  0
  191.0310  175.2350  136.9430 C   0  0  0  0  0  3  0  0  0  0  0  0
  1 21  1  1  0  0  0
  1  2  1  0  0  0  0
  2  7  1  0  0  0  0
  3 13  1  0  0  0  0
  3  9  1  1  0  0  0
  4 12  1  0  0  0  0
  4 10  1  0  0  0  0
  6  4  1  0  0  0  0
  7 15  1  1  0  0  0
  8  1  1  0  0  0  0
  8  3  1  0  0  0  0
  9  7  1  0  0  0  0
 10 13  1  0  0  0  0
 11 12  1  0  0  0  0
 12  8  1  0  0  0  0
 13  5  1  0  0  0  0
 15 14  1  0  0  0  0
 15 20  1  0  0  0  0
 15 18  1  0  0  0  0
 17 18  1  0  0  0  0
 18 16  1  0  0  0  0
 19 20  1  0  0  0  0
 22 25  1  0  0  0  0
 23 21  1  0  0  0  0
 24 23  1  0  0  0  0
 25 24  2  0  0  0  0
 26 22  2  0  0  0  0
 26 27  1  0  0  0  0
 27 23  2  0  0  0  0
M  END
>  <MODEL>
9

>  <REMARK>
 VINA RESULT:      -6.7      3.010      7.705
  Name = 
  5 active torsions:
  status: ('A' for Active; 'I' for Inactive)
    1  A    between atoms: C_1  and  O_15
    2  A    between atoms: C_9  and  O_15
    3  A    between atoms: C_14  and  C_17
    4  A    between atoms: C_16  and  C_17
    5  A    between atoms: C_17  and  C_21
                            x       y       z     vdW  Elec       q    Type
                         _______ _______ _______ _____ _____    ______ ____

>  <TORSDO>
F 5

$$$$
