=
 OpenBabel11052413593D

 34 38  0  0  1  0  0  0  0  0999 V2000
  189.0140  176.7860  141.4750 N   0  0  0  0  0  0  0  0  0  0  0  0
  191.3550  176.8360  142.0320 C   0  0  0  0  0  2  0  0  0  0  0  0
  189.1370  176.3200  142.8550 C   0  0  0  0  0  2  0  0  0  0  0  0
  190.6060  176.3700  143.2570 C   0  0  2  0  0  3  0  0  0  0  0  0
  190.3610  176.6220  140.9130 C   0  0  2  0  0  3  0  0  0  0  0  0
  191.0720  175.9800  137.6990 C   0  0  0  0  0  0  0  0  0  0  0  0
  193.0330  176.7660  138.9190 C   0  0  0  0  0  0  0  0  0  0  0  0
  190.6330  177.4580  139.6460 C   0  0  1  0  0  3  0  0  0  0  0  0
  193.2470  174.7480  137.4690 C   0  0  0  0  0  2  0  0  0  0  0  0
  193.8610  175.8480  138.2050 N   0  0  0  0  0  2  0  0  0  0  0  0
  191.5720  176.7280  138.7060 C   0  0  0  0  0  0  0  0  0  0  0  0
  191.9820  175.2330  136.7580 C   0  0  0  0  0  2  0  0  0  0  0  0
  189.3860  177.7430  138.9970 O   0  0  0  0  0  0  0  0  0  0  0  0
  189.6360  176.0330  137.3830 C   0  0  0  0  0  3  0  0  0  0  0  0
  193.5520  177.6090  139.6960 O   0  0  0  0  0  0  0  0  0  0  0  0
  188.8510  176.9050  138.0120 C   0  0  0  0  0  3  0  0  0  0  0  0
  190.8290  177.3170  144.4300 C   0  0  0  0  0  2  0  0  0  0  0  0
  190.4310  176.7080  145.6540 O   0  0  0  0  0  0  0  0  0  0  0  0
  191.0390  177.4180  148.2850 O   0  0  0  0  0  1  0  0  0  0  0  0
  189.4380  177.2430  146.4800 C   0  0  0  0  0  0  0  0  0  0  0  0
  189.7510  177.5960  147.7980 C   0  0  0  0  0  0  0  0  0  0  0  0
  187.4730  178.3080  148.1310 C   0  0  0  0  0  3  0  0  0  0  0  0
  187.1830  177.9620  146.8490 N   0  0  0  0  0  0  0  0  0  0  0  0
  188.1270  177.4390  146.0210 C   0  0  0  0  0  3  0  0  0  0  0  0
  188.7650  178.1300  148.6300 C   0  0  0  0  0  3  0  0  0  0  0  0
  188.6470  178.2030  141.5460 C   0  0  0  0  0  2  0  0  0  0  0  0
  184.3840  178.5930  141.7610 C   0  0  0  0  0  0  0  0  0  0  0  0
  186.4350  178.6740  140.4750 C   0  0  0  0  0  3  0  0  0  0  0  0
  185.1160  178.2590  142.9060 C   0  0  0  0  0  3  0  0  0  0  0  0
  185.0440  178.7950  140.5450 C   0  0  0  0  0  3  0  0  0  0  0  0
  186.5060  178.1370  142.8370 C   0  0  0  0  0  3  0  0  0  0  0  0
  187.1680  178.3500  141.6220 C   0  0  0  0  0  0  0  0  0  0  0  0
  182.6050  178.7420  141.8480 S   0  0  0  0  0  0  0  0  0  0  0  0
  182.6310  178.9750  143.9650 S   0  0  0  0  0  1  0  0  0  0  0  0
  1 26  1  0  0  0  0
  1  3  1  0  0  0  0
  2  4  1  0  0  0  0
  3  4  1  0  0  0  0
  4 17  1  1  0  0  0
  5  1  1  0  0  0  0
  5  2  1  1  0  0  0
  6 11  2  0  0  0  0
  7 15  2  0  0  0  0
  8 11  1  6  0  0  0
  8  5  1  0  0  0  0
  9 10  1  0  0  0  0
 10  7  1  0  0  0  0
 11  7  1  0  0  0  0
 12  9  1  0  0  0  0
 12  6  1  0  0  0  0
 13  8  1  0  0  0  0
 14  6  1  0  0  0  0
 14 16  2  0  0  0  0
 16 13  1  0  0  0  0
 17 18  1  0  0  0  0
 18 20  1  0  0  0  0
 20 21  1  0  0  0  0
 21 19  1  0  0  0  0
 21 25  2  0  0  0  0
 22 25  1  0  0  0  0
 23 22  2  0  0  0  0
 24 20  2  0  0  0  0
 24 23  1  0  0  0  0
 26 32  1  0  0  0  0
 27 33  1  0  0  0  0
 27 29  1  0  0  0  0
 28 30  1  0  0  0  0
 28 32  2  0  0  0  0
 30 27  2  0  0  0  0
 31 29  2  0  0  0  0
 32 31  1  0  0  0  0
 33 34  1  0  0  0  0
M  END
>  <MODEL>
1

>  <REMARK>
 VINA RESULT:      -8.7      0.000      0.000
  Name = 
  7 active torsions:
  status: ('A' for Active; 'I' for Inactive)
    1  A    between atoms: O_3  and  C_13
    2  A    between atoms: O_3  and  C_17
    3  A    between atoms: C_4  and  C_31
    4  A    between atoms: N_5  and  C_26
    5  A    between atoms: S_7  and  C_8
    6  A    between atoms: C_17  and  C_29
    7  A    between atoms: C_26  and  C_28
                            x       y       z     vdW  Elec       q    Type
                         _______ _______ _______ _____ _____    ______ ____

>  <TORSDO>
F 7

$$$$
=
 OpenBabel11052413593D

 34 38  0  0  1  0  0  0  0  0999 V2000
  186.5060  178.5580  142.5160 N   0  0  0  0  0  0  0  0  0  0  0  0
  188.4020  177.5670  141.4100 C   0  0  0  0  0  2  0  0  0  0  0  0
  186.6670  179.2490  141.2380 C   0  0  0  0  0  2  0  0  0  0  0  0
  187.8400  178.6240  140.4910 C   0  0  2  0  0  3  0  0  0  0  0  0
  187.8100  177.9250  142.7550 C   0  0  2  0  0  3  0  0  0  0  0  0
  189.2490  177.2690  145.7130 C   0  0  0  0  0  0  0  0  0  0  0  0
  190.2560  175.9710  143.9100 C   0  0  0  0  0  0  0  0  0  0  0  0
  187.7830  176.7650  143.7720 C   0  0  1  0  0  3  0  0  0  0  0  0
  191.7490  177.1620  145.5140 C   0  0  0  0  0  2  0  0  0  0  0  0
  191.5480  176.1390  144.4940 N   0  0  0  0  0  2  0  0  0  0  0  0
  189.1010  176.6650  144.5140 C   0  0  0  0  0  0  0  0  0  0  0  0
  190.5520  177.1960  146.4660 C   0  0  0  0  0  2  0  0  0  0  0  0
  186.6990  176.9720  144.6880 O   0  0  0  0  0  0  0  0  0  0  0  0
  188.0810  177.8470  146.3960 C   0  0  0  0  0  3  0  0  0  0  0  0
  190.1090  175.2180  142.9120 O   0  0  0  0  0  0  0  0  0  0  0  0
  186.8630  177.6750  145.8890 C   0  0  0  0  0  3  0  0  0  0  0  0
  187.3960  178.0200  139.1650 C   0  0  0  0  0  2  0  0  0  0  0  0
  186.4050  178.8320  138.5440 O   0  0  0  0  0  0  0  0  0  0  0  0
  184.1060  180.3500  139.0030 O   0  0  0  0  0  1  0  0  0  0  0  0
  185.1560  178.3410  138.1540 C   0  0  0  0  0  0  0  0  0  0  0  0
  184.0080  179.1080  138.3880 C   0  0  0  0  0  0  0  0  0  0  0  0
  182.6660  177.3760  137.3840 C   0  0  0  0  0  3  0  0  0  0  0  0
  183.7890  176.6420  137.1620 N   0  0  0  0  0  0  0  0  0  0  0  0
  185.0180  177.0930  137.5290 C   0  0  0  0  0  3  0  0  0  0  0  0
  182.7560  178.6240  138.0030 C   0  0  0  0  0  3  0  0  0  0  0  0
  185.4650  177.5470  142.3130 C   0  0  0  0  0  2  0  0  0  0  0  0
  181.5750  179.2360  142.9360 C   0  0  0  0  0  0  0  0  0  0  0  0
  183.1750  178.1320  141.4910 C   0  0  0  0  0  3  0  0  0  0  0  0
  182.5150  179.2390  143.9730 C   0  0  0  0  0  3  0  0  0  0  0  0
  181.9050  178.6780  141.6970 C   0  0  0  0  0  3  0  0  0  0  0  0
  183.7850  178.6920  143.7680 C   0  0  0  0  0  3  0  0  0  0  0  0
  184.1180  178.1440  142.5250 C   0  0  0  0  0  0  0  0  0  0  0  0
  179.9490  179.9290  143.2000 S   0  0  0  0  0  0  0  0  0  0  0  0
  179.7150  180.4150  141.1400 S   0  0  0  0  0  1  0  0  0  0  0  0
  1  5  1  0  0  0  0
  3  1  1  0  0  0  0
  4 17  1  6  0  0  0
  4  3  1  0  0  0  0
  4  2  1  0  0  0  0
  5  2  1  6  0  0  0
  5  8  1  0  0  0  0
  6 14  1  0  0  0  0
  6 12  1  0  0  0  0
  7 10  1  0  0  0  0
  7 11  1  0  0  0  0
  8 11  1  1  0  0  0
  8 13  1  0  0  0  0
  9 12  1  0  0  0  0
 10  9  1  0  0  0  0
 11  6  2  0  0  0  0
 13 16  1  0  0  0  0
 15  7  2  0  0  0  0
 16 14  2  0  0  0  0
 18 17  1  0  0  0  0
 20 21  1  0  0  0  0
 20 18  1  0  0  0  0
 21 19  1  0  0  0  0
 22 25  1  0  0  0  0
 23 22  2  0  0  0  0
 23 24  1  0  0  0  0
 24 20  2  0  0  0  0
 25 21  2  0  0  0  0
 26  1  1  0  0  0  0
 26 32  1  0  0  0  0
 27 33  1  0  0  0  0
 27 29  1  0  0  0  0
 28 30  1  0  0  0  0
 28 32  2  0  0  0  0
 30 27  2  0  0  0  0
 31 29  2  0  0  0  0
 32 31  1  0  0  0  0
 34 33  1  0  0  0  0
M  END
>  <MODEL>
2

>  <REMARK>
 VINA RESULT:      -8.4      3.363      7.116
  Name = 
  7 active torsions:
  status: ('A' for Active; 'I' for Inactive)
    1  A    between atoms: O_3  and  C_13
    2  A    between atoms: O_3  and  C_17
    3  A    between atoms: C_4  and  C_31
    4  A    between atoms: N_5  and  C_26
    5  A    between atoms: S_7  and  C_8
    6  A    between atoms: C_17  and  C_29
    7  A    between atoms: C_26  and  C_28
                            x       y       z     vdW  Elec       q    Type
                         _______ _______ _______ _____ _____    ______ ____

>  <TORSDO>
F 7

$$$$
=
 OpenBabel11052413593D

 34 38  0  0  1  0  0  0  0  0999 V2000
  186.3900  178.5870  142.5630 N   0  0  0  0  0  0  0  0  0  0  0  0
  188.2840  177.6320  141.4240 C   0  0  0  0  0  2  0  0  0  0  0  0
  186.5300  179.2980  141.2930 C   0  0  0  0  0  2  0  0  0  0  0  0
  187.7020  178.6960  140.5260 C   0  0  2  0  0  3  0  0  0  0  0  0
  187.7030  177.9650  142.7810 C   0  0  2  0  0  3  0  0  0  0  0  0
  189.1830  177.2810  145.7110 C   0  0  0  0  0  0  0  0  0  0  0  0
  190.1800  176.0180  143.8780 C   0  0  0  0  0  0  0  0  0  0  0  0
  187.6990  176.7920  143.7810 C   0  0  1  0  0  3  0  0  0  0  0  0
  191.6810  177.2000  145.4800 C   0  0  0  0  0  2  0  0  0  0  0  0
  191.4770  176.1890  144.4480 N   0  0  0  0  0  2  0  0  0  0  0  0
  189.0260  176.6930  144.5050 C   0  0  0  0  0  0  0  0  0  0  0  0
  190.4960  177.2100  146.4470 C   0  0  0  0  0  2  0  0  0  0  0  0
  186.6240  176.9760  144.7130 O   0  0  0  0  0  0  0  0  0  0  0  0
  188.0190  177.8400  146.4160 C   0  0  0  0  0  3  0  0  0  0  0  0
  190.0270  175.2780  142.8710 O   0  0  0  0  0  0  0  0  0  0  0  0
  186.7960  177.6630  145.9210 C   0  0  0  0  0  3  0  0  0  0  0  0
  187.2500  178.1050  139.1960 C   0  0  0  0  0  2  0  0  0  0  0  0
  188.3350  178.0400  138.2760 O   0  0  0  0  0  0  0  0  0  0  0  0
  190.8930  177.3630  139.1660 O   0  0  0  0  0  1  0  0  0  0  0  0
  188.9170  176.8340  137.8740 C   0  0  0  0  0  0  0  0  0  0  0  0
  190.2000  176.5030  138.3240 C   0  0  0  0  0  0  0  0  0  0  0  0
  190.0860  174.4410  137.0820 C   0  0  0  0  0  3  0  0  0  0  0  0
  188.8400  174.7740  136.6530 N   0  0  0  0  0  0  0  0  0  0  0  0
  188.2470  175.9400  137.0260 C   0  0  0  0  0  3  0  0  0  0  0  0
  190.7900  175.3000  137.9270 C   0  0  0  0  0  3  0  0  0  0  0  0
  185.3570  177.5680  142.3570 C   0  0  0  0  0  2  0  0  0  0  0  0
  181.4460  179.2730  142.7660 C   0  0  0  0  0  0  0  0  0  0  0  0
  183.1410  178.2170  141.3940 C   0  0  0  0  0  3  0  0  0  0  0  0
  182.3040  179.2170  143.8690 C   0  0  0  0  0  3  0  0  0  0  0  0
  181.8630  178.7680  141.5300 C   0  0  0  0  0  3  0  0  0  0  0  0
  183.5820  178.6650  143.7350 C   0  0  0  0  0  3  0  0  0  0  0  0
  184.0030  178.1710  142.4950 C   0  0  0  0  0  0  0  0  0  0  0  0
  179.8100  179.9720  142.9400 S   0  0  0  0  0  0  0  0  0  0  0  0
  179.7300  180.5450  140.8910 S   0  0  0  0  0  1  0  0  0  0  0  0
  1  5  1  0  0  0  0
  3  1  1  0  0  0  0
  4 17  1  6  0  0  0
  4  3  1  0  0  0  0
  4  2  1  0  0  0  0
  5  2  1  6  0  0  0
  5  8  1  0  0  0  0
  6 14  1  0  0  0  0
  6 12  1  0  0  0  0
  7 10  1  0  0  0  0
  7 11  1  0  0  0  0
  8 11  1  1  0  0  0
  8 13  1  0  0  0  0
  9 12  1  0  0  0  0
 10  9  1  0  0  0  0
 11  6  2  0  0  0  0
 13 16  1  0  0  0  0
 15  7  2  0  0  0  0
 16 14  2  0  0  0  0
 18 17  1  0  0  0  0
 20 18  1  0  0  0  0
 20 21  1  0  0  0  0
 21 19  1  0  0  0  0
 22 25  1  0  0  0  0
 23 24  1  0  0  0  0
 23 22  2  0  0  0  0
 24 20  2  0  0  0  0
 25 21  2  0  0  0  0
 26 32  1  0  0  0  0
 26  1  1  0  0  0  0
 27 33  1  0  0  0  0
 27 29  1  0  0  0  0
 28 30  1  0  0  0  0
 28 32  2  0  0  0  0
 30 27  2  0  0  0  0
 31 29  2  0  0  0  0
 32 31  1  0  0  0  0
 34 33  1  0  0  0  0
M  END
>  <MODEL>
3

>  <REMARK>
 VINA RESULT:      -8.2      2.385      6.882
  Name = 
  7 active torsions:
  status: ('A' for Active; 'I' for Inactive)
    1  A    between atoms: O_3  and  C_13
    2  A    between atoms: O_3  and  C_17
    3  A    between atoms: C_4  and  C_31
    4  A    between atoms: N_5  and  C_26
    5  A    between atoms: S_7  and  C_8
    6  A    between atoms: C_17  and  C_29
    7  A    between atoms: C_26  and  C_28
                            x       y       z     vdW  Elec       q    Type
                         _______ _______ _______ _____ _____    ______ ____

>  <TORSDO>
F 7

$$$$
=
 OpenBabel11052413593D

 34 38  0  0  1  0  0  0  0  0999 V2000
  189.0960  176.8890  140.3000 N   0  0  0  0  0  0  0  0  0  0  0  0
  191.4210  177.1520  140.8660 C   0  0  0  0  0  2  0  0  0  0  0  0
  189.1750  176.9780  141.7570 C   0  0  0  0  0  2  0  0  0  0  0  0
  190.6330  177.1810  142.1530 C   0  0  2  0  0  3  0  0  0  0  0  0
  190.4560  176.5280  139.8810 C   0  0  2  0  0  3  0  0  0  0  0  0
  191.6100  174.7840  137.2590 C   0  0  0  0  0  0  0  0  0  0  0  0
  193.3050  176.2880  138.1610 C   0  0  0  0  0  0  0  0  0  0  0  0
  190.7720  176.8250  138.4010 C   0  0  1  0  0  3  0  0  0  0  0  0
  193.9290  173.9220  137.6790 C   0  0  0  0  0  2  0  0  0  0  0  0
  194.3160  175.3050  137.9340 N   0  0  0  0  0  2  0  0  0  0  0  0
  191.8950  175.9390  137.8990 C   0  0  0  0  0  0  0  0  0  0  0  0
  192.7070  173.8790  136.7610 C   0  0  0  0  0  2  0  0  0  0  0  0
  189.5830  176.6280  137.6220 O   0  0  0  0  0  0  0  0  0  0  0  0
  190.2240  174.4810  136.8660 C   0  0  0  0  0  3  0  0  0  0  0  0
  193.6250  177.4410  138.5530 O   0  0  0  0  0  0  0  0  0  0  0  0
  189.2710  175.3940  137.0370 C   0  0  0  0  0  3  0  0  0  0  0  0
  190.8310  178.5010  142.8880 C   0  0  0  0  0  2  0  0  0  0  0  0
  190.0200  178.5570  144.0560 O   0  0  0  0  0  0  0  0  0  0  0  0
  187.9900  178.0080  145.8940 O   0  0  0  0  0  1  0  0  0  0  0  0
  190.3060  177.8270  145.2140 C   0  0  0  0  0  0  0  0  0  0  0  0
  189.2820  177.5570  146.1310 C   0  0  0  0  0  0  0  0  0  0  0  0
  190.8600  176.3780  147.5190 C   0  0  0  0  0  3  0  0  0  0  0  0
  191.8440  176.6460  146.6200 N   0  0  0  0  0  0  0  0  0  0  0  0
  191.5970  177.3530  145.4850 C   0  0  0  0  0  3  0  0  0  0  0  0
  189.5590  176.8290  147.2900 C   0  0  0  0  0  3  0  0  0  0  0  0
  188.7390  178.2270  139.8200 C   0  0  0  0  0  2  0  0  0  0  0  0
  184.4820  178.6930  139.6470 C   0  0  0  0  0  0  0  0  0  0  0  0
  186.5510  178.7700  140.9050 C   0  0  0  0  0  3  0  0  0  0  0  0
  185.1920  178.3100  138.5030 C   0  0  0  0  0  3  0  0  0  0  0  0
  185.1630  178.9280  140.8460 C   0  0  0  0  0  3  0  0  0  0  0  0
  186.5790  178.1540  138.5610 C   0  0  0  0  0  3  0  0  0  0  0  0
  187.2590  178.3770  139.7640 C   0  0  0  0  0  0  0  0  0  0  0  0
  182.7080  178.9000  139.5710 S   0  0  0  0  0  0  0  0  0  0  0  0
  182.3630  176.8000  139.6220 S   0  0  0  0  0  1  0  0  0  0  0  0
  1  3  1  0  0  0  0
  2  4  1  0  0  0  0
  3  4  1  0  0  0  0
  4 17  1  6  0  0  0
  5  1  1  0  0  0  0
  5  2  1  1  0  0  0
  6 11  2  0  0  0  0
  7 15  2  0  0  0  0
  8 13  1  6  0  0  0
  8  5  1  0  0  0  0
  9 10  1  0  0  0  0
 10  7  1  0  0  0  0
 11  7  1  0  0  0  0
 11  8  1  0  0  0  0
 12  6  1  0  0  0  0
 12  9  1  0  0  0  0
 14 16  2  0  0  0  0
 14  6  1  0  0  0  0
 16 13  1  0  0  0  0
 17 18  1  0  0  0  0
 18 20  1  0  0  0  0
 19 21  1  0  0  0  0
 20 24  2  0  0  0  0
 20 21  1  0  0  0  0
 21 25  2  0  0  0  0
 23 22  2  0  0  0  0
 24 23  1  0  0  0  0
 25 22  1  0  0  0  0
 26  1  1  0  0  0  0
 27 30  1  0  0  0  0
 29 31  1  0  0  0  0
 29 27  2  0  0  0  0
 30 28  2  0  0  0  0
 31 32  2  0  0  0  0
 32 26  1  0  0  0  0
 32 28  1  0  0  0  0
 33 34  1  0  0  0  0
 33 27  1  0  0  0  0
M  END
>  <MODEL>
4

>  <REMARK>
 VINA RESULT:      -8.0      1.871      2.383
  Name = 
  7 active torsions:
  status: ('A' for Active; 'I' for Inactive)
    1  A    between atoms: O_3  and  C_13
    2  A    between atoms: O_3  and  C_17
    3  A    between atoms: C_4  and  C_31
    4  A    between atoms: N_5  and  C_26
    5  A    between atoms: S_7  and  C_8
    6  A    between atoms: C_17  and  C_29
    7  A    between atoms: C_26  and  C_28
                            x       y       z     vdW  Elec       q    Type
                         _______ _______ _______ _____ _____    ______ ____

>  <TORSDO>
F 7

$$$$
=
 OpenBabel11052413593D

 34 38  0  0  1  0  0  0  0  0999 V2000
  189.7200  178.0320  139.2920 N   0  0  0  0  0  0  0  0  0  0  0  0
  189.4580  177.3300  137.0040 C   0  0  0  0  0  2  0  0  0  0  0  0
  188.7790  178.9580  138.6640 C   0  0  0  0  0  2  0  0  0  0  0  0
  188.5600  178.5230  137.2190 C   0  0  2  0  0  3  0  0  0  0  0  0
  190.4250  177.4080  138.1650 C   0  0  2  0  0  3  0  0  0  0  0  0
  192.3410  175.1960  136.5260 C   0  0  0  0  0  0  0  0  0  0  0  0
  190.0750  174.3560  136.8620 C   0  0  0  0  0  0  0  0  0  0  0  0
  191.1260  176.0770  138.5050 C   0  0  1  0  0  3  0  0  0  0  0  0
  191.1070  174.1640  134.5990 C   0  0  0  0  0  2  0  0  0  0  0  0
  190.0910  173.7590  135.5650 N   0  0  0  0  0  2  0  0  0  0  0  0
  191.2210  175.1870  137.2820 C   0  0  0  0  0  0  0  0  0  0  0  0
  192.4580  174.3310  135.2970 C   0  0  0  0  0  2  0  0  0  0  0  0
  192.4300  176.3570  139.0330 O   0  0  0  0  0  0  0  0  0  0  0  0
  193.5410  175.9070  136.9940 C   0  0  0  0  0  3  0  0  0  0  0  0
  189.1070  174.1490  137.6390 O   0  0  0  0  0  0  0  0  0  0  0  0
  193.5620  176.4420  138.2130 C   0  0  0  0  0  3  0  0  0  0  0  0
  187.1010  178.1670  136.9600 C   0  0  0  0  0  2  0  0  0  0  0  0
  186.2460  178.8340  137.8820 O   0  0  0  0  0  0  0  0  0  0  0  0
  185.4700  179.5320  140.4720 O   0  0  0  0  0  1  0  0  0  0  0  0
  185.1330  178.2220  138.4660 C   0  0  0  0  0  0  0  0  0  0  0  0
  184.7510  178.5760  139.7650 C   0  0  0  0  0  0  0  0  0  0  0  0
  182.9230  177.0120  139.6370 C   0  0  0  0  0  3  0  0  0  0  0  0
  183.3040  176.6770  138.3760 N   0  0  0  0  0  0  0  0  0  0  0  0
  184.3820  177.2560  137.7810 C   0  0  0  0  0  3  0  0  0  0  0  0
  183.6410  177.9690  140.3560 C   0  0  0  0  0  3  0  0  0  0  0  0
  188.9130  177.0450  140.0140 C   0  0  0  0  0  2  0  0  0  0  0  0
  189.4260  177.4830  144.2470 C   0  0  0  0  0  0  0  0  0  0  0  0
  187.9720  177.3200  142.3170 C   0  0  0  0  0  3  0  0  0  0  0  0
  190.5440  177.3630  143.4150 C   0  0  0  0  0  3  0  0  0  0  0  0
  188.1400  177.4570  143.6970 C   0  0  0  0  0  3  0  0  0  0  0  0
  190.3770  177.2250  142.0340 C   0  0  0  0  0  3  0  0  0  0  0  0
  189.0910  177.2090  141.4830 C   0  0  0  0  0  0  0  0  0  0  0  0
  189.6400  177.6530  146.0140 S   0  0  0  0  0  0  0  0  0  0  0  0
  191.5320  176.6760  145.9760 S   0  0  0  0  0  1  0  0  0  0  0  0
  1 26  1  0  0  0  0
  2  4  1  0  0  0  0
  3  1  1  0  0  0  0
  4 17  1  1  0  0  0
  4  3  1  0  0  0  0
  5  2  1  6  0  0  0
  5  8  1  0  0  0  0
  5  1  1  0  0  0  0
  6 14  1  0  0  0  0
  6 11  2  0  0  0  0
  7 11  1  0  0  0  0
  7 15  2  0  0  0  0
  8 11  1  6  0  0  0
  8 13  1  0  0  0  0
  9 12  1  0  0  0  0
  9 10  1  0  0  0  0
 10  7  1  0  0  0  0
 12  6  1  0  0  0  0
 14 16  2  0  0  0  0
 16 13  1  0  0  0  0
 17 18  1  0  0  0  0
 18 20  1  0  0  0  0
 20 21  1  0  0  0  0
 21 25  2  0  0  0  0
 21 19  1  0  0  0  0
 22 25  1  0  0  0  0
 23 22  2  0  0  0  0
 24 23  1  0  0  0  0
 24 20  2  0  0  0  0
 26 32  1  0  0  0  0
 27 33  1  0  0  0  0
 28 30  2  0  0  0  0
 29 27  2  0  0  0  0
 30 27  1  0  0  0  0
 31 29  1  0  0  0  0
 32 31  2  0  0  0  0
 32 28  1  0  0  0  0
 34 33  1  0  0  0  0
M  END
>  <MODEL>
5

>  <REMARK>
 VINA RESULT:      -7.7      3.715      6.251
  Name = 
  7 active torsions:
  status: ('A' for Active; 'I' for Inactive)
    1  A    between atoms: O_3  and  C_13
    2  A    between atoms: O_3  and  C_17
    3  A    between atoms: C_4  and  C_31
    4  A    between atoms: N_5  and  C_26
    5  A    between atoms: S_7  and  C_8
    6  A    between atoms: C_17  and  C_29
    7  A    between atoms: C_26  and  C_28
                            x       y       z     vdW  Elec       q    Type
                         _______ _______ _______ _____ _____    ______ ____

>  <TORSDO>
F 7

$$$$
=
 OpenBabel11052413593D

 34 38  0  0  1  0  0  0  0  0999 V2000
  187.5120  177.3100  141.8940 N   0  0  0  0  0  0  0  0  0  0  0  0
  189.8080  177.3630  142.6150 C   0  0  0  0  0  2  0  0  0  0  0  0
  187.5480  176.7720  143.2530 C   0  0  0  0  0  2  0  0  0  0  0  0
  188.9860  176.8210  143.7580 C   0  0  2  0  0  3  0  0  0  0  0  0
  188.8970  177.1950  141.4190 C   0  0  2  0  0  3  0  0  0  0  0  0
  189.3910  176.7680  138.1290 C   0  0  0  0  0  0  0  0  0  0  0  0
  191.4870  177.1520  139.3160 C   0  0  0  0  0  0  0  0  0  0  0  0
  189.2410  178.1020  140.2200 C   0  0  1  0  0  3  0  0  0  0  0  0
  191.3550  175.2710  137.6830 C   0  0  0  0  0  2  0  0  0  0  0  0
  192.1470  176.2000  138.4820 N   0  0  0  0  0  2  0  0  0  0  0  0
  190.0290  177.3390  139.1740 C   0  0  0  0  0  0  0  0  0  0  0  0
  190.1480  175.9940  137.0820 C   0  0  0  0  0  2  0  0  0  0  0  0
  188.0250  178.6200  139.6620 O   0  0  0  0  0  0  0  0  0  0  0  0
  187.9670  177.0530  137.8910 C   0  0  0  0  0  3  0  0  0  0  0  0
  192.1500  177.8360  140.1380 O   0  0  0  0  0  0  0  0  0  0  0  0
  187.3380  177.9620  138.6330 C   0  0  0  0  0  3  0  0  0  0  0  0
  189.1110  177.7070  144.9920 C   0  0  0  0  0  2  0  0  0  0  0  0
  190.4790  177.9450  145.3070 O   0  0  0  0  0  0  0  0  0  0  0  0
  191.7620  175.5980  144.5070 O   0  0  0  0  0  1  0  0  0  0  0  0
  191.1860  177.1840  146.2420 C   0  0  0  0  0  0  0  0  0  0  0  0
  191.8260  176.0080  145.8330 C   0  0  0  0  0  0  0  0  0  0  0  0
  192.5970  175.6610  148.0900 C   0  0  0  0  0  3  0  0  0  0  0  0
  191.9720  176.8060  148.4730 N   0  0  0  0  0  0  0  0  0  0  0  0
  191.2760  177.5680  147.5880 C   0  0  0  0  0  3  0  0  0  0  0  0
  192.5350  175.2410  146.7600 C   0  0  0  0  0  3  0  0  0  0  0  0
  187.1160  178.7160  142.0140 C   0  0  0  0  0  2  0  0  0  0  0  0
  182.9790  179.0400  143.0870 C   0  0  0  0  0  0  0  0  0  0  0  0
  185.3200  179.2560  143.6710 C   0  0  0  0  0  3  0  0  0  0  0  0
  183.3390  178.6110  141.8040 C   0  0  0  0  0  3  0  0  0  0  0  0
  183.9700  179.3670  144.0180 C   0  0  0  0  0  3  0  0  0  0  0  0
  184.6880  178.5010  141.4570 C   0  0  0  0  0  3  0  0  0  0  0  0
  185.6790  178.8170  142.3920 C   0  0  0  0  0  0  0  0  0  0  0  0
  181.2530  179.1870  143.5290 S   0  0  0  0  0  0  0  0  0  0  0  0
  180.6100  178.8100  141.5350 S   0  0  0  0  0  1  0  0  0  0  0  0
  1 26  1  0  0  0  0
  1  3  1  0  0  0  0
  2  4  1  0  0  0  0
  3  4  1  0  0  0  0
  4 17  1  1  0  0  0
  5  1  1  0  0  0  0
  5  2  1  1  0  0  0
  6 11  2  0  0  0  0
  7 15  2  0  0  0  0
  8 11  1  6  0  0  0
  8  5  1  0  0  0  0
  9 10  1  0  0  0  0
 10  7  1  0  0  0  0
 11  7  1  0  0  0  0
 12  9  1  0  0  0  0
 12  6  1  0  0  0  0
 13  8  1  0  0  0  0
 14  6  1  0  0  0  0
 14 16  2  0  0  0  0
 16 13  1  0  0  0  0
 17 18  1  0  0  0  0
 18 20  1  0  0  0  0
 19 21  1  0  0  0  0
 20 24  1  0  0  0  0
 21 20  2  0  0  0  0
 21 25  1  0  0  0  0
 22 23  1  0  0  0  0
 24 23  2  0  0  0  0
 25 22  2  0  0  0  0
 26 32  1  0  0  0  0
 27 33  1  0  0  0  0
 27 30  1  0  0  0  0
 28 30  2  0  0  0  0
 29 27  2  0  0  0  0
 31 29  1  0  0  0  0
 31 32  2  0  0  0  0
 32 28  1  0  0  0  0
 34 33  1  0  0  0  0
M  END
>  <MODEL>
6

>  <REMARK>
 VINA RESULT:      -7.3      1.836      2.690
  Name = 
  7 active torsions:
  status: ('A' for Active; 'I' for Inactive)
    1  A    between atoms: O_3  and  C_13
    2  A    between atoms: O_3  and  C_17
    3  A    between atoms: C_4  and  C_31
    4  A    between atoms: N_5  and  C_26
    5  A    between atoms: S_7  and  C_8
    6  A    between atoms: C_17  and  C_29
    7  A    between atoms: C_26  and  C_28
                            x       y       z     vdW  Elec       q    Type
                         _______ _______ _______ _____ _____    ______ ____

>  <TORSDO>
F 7

$$$$
=
 OpenBabel11052413593D

 34 38  0  0  1  0  0  0  0  0999 V2000
  189.2540  178.1690  144.3410 N   0  0  0  0  0  0  0  0  0  0  0  0
  191.3930  177.0670  144.2670 C   0  0  0  0  0  2  0  0  0  0  0  0
  189.9050  178.5790  143.0980 C   0  0  0  0  0  2  0  0  0  0  0  0
  191.2520  177.8720  142.9990 C   0  0  2  0  0  3  0  0  0  0  0  0
  190.3510  177.6720  145.1820 C   0  0  2  0  0  3  0  0  0  0  0  0
  190.7670  177.6120  148.5090 C   0  0  0  0  0  0  0  0  0  0  0  0
  192.1350  175.9270  147.3960 C   0  0  0  0  0  0  0  0  0  0  0  0
  189.9080  176.7570  146.3410 C   0  0  1  0  0  3  0  0  0  0  0  0
  193.1880  177.3810  149.1280 C   0  0  0  0  0  2  0  0  0  0  0  0
  193.2030  176.1710  148.3120 N   0  0  0  0  0  2  0  0  0  0  0  0
  190.9260  176.7720  147.4630 C   0  0  0  0  0  0  0  0  0  0  0  0
  191.7710  177.6570  149.6320 C   0  0  0  0  0  2  0  0  0  0  0  0
  188.6240  177.1910  146.8140 O   0  0  0  0  0  0  0  0  0  0  0  0
  189.5110  178.3620  148.6680 C   0  0  0  0  0  3  0  0  0  0  0  0
  192.2200  174.9850  146.5660 O   0  0  0  0  0  0  0  0  0  0  0  0
  188.4890  178.1270  147.8470 C   0  0  0  0  0  3  0  0  0  0  0  0
  191.3190  176.9750  141.7680 C   0  0  0  0  0  2  0  0  0  0  0  0
  190.9900  177.7050  140.5910 O   0  0  0  0  0  0  0  0  0  0  0  0
  188.4870  178.7730  139.9670 O   0  0  0  0  0  1  0  0  0  0  0  0
  190.2400  177.1600  139.5450 C   0  0  0  0  0  0  0  0  0  0  0  0
  188.9860  177.7010  139.2390 C   0  0  0  0  0  0  0  0  0  0  0  0
  188.7390  176.0850  137.4680 C   0  0  0  0  0  3  0  0  0  0  0  0
  189.9590  175.5700  137.7750 N   0  0  0  0  0  0  0  0  0  0  0  0
  190.7120  176.0790  138.7860 C   0  0  0  0  0  3  0  0  0  0  0  0
  188.2290  177.1620  138.1960 C   0  0  0  0  0  3  0  0  0  0  0  0
  188.3330  177.0850  143.9900 C   0  0  0  0  0  2  0  0  0  0  0  0
  184.3290  178.5620  143.5940 C   0  0  0  0  0  0  0  0  0  0  0  0
  186.3930  177.7980  142.5810 C   0  0  0  0  0  3  0  0  0  0  0  0
  184.8800  178.3630  144.8650 C   0  0  0  0  0  3  0  0  0  0  0  0
  185.0850  178.2750  142.4530 C   0  0  0  0  0  3  0  0  0  0  0  0
  186.1880  177.8850  144.9930 C   0  0  0  0  0  3  0  0  0  0  0  0
  186.9470  177.6090  143.8510 C   0  0  0  0  0  0  0  0  0  0  0  0
  182.6550  179.1660  143.4300 S   0  0  0  0  0  0  0  0  0  0  0  0
  182.5530  178.6110  141.3770 S   0  0  0  0  0  1  0  0  0  0  0  0
  1  5  1  0  0  0  0
  3  1  1  0  0  0  0
  4 17  1  6  0  0  0
  4  3  1  0  0  0  0
  4  2  1  0  0  0  0
  5  2  1  6  0  0  0
  5  8  1  0  0  0  0
  6 14  1  0  0  0  0
  6 12  1  0  0  0  0
  7 11  1  0  0  0  0
  7 10  1  0  0  0  0
  8 13  1  1  0  0  0
  8 11  1  0  0  0  0
  9 12  1  0  0  0  0
 10  9  1  0  0  0  0
 11  6  2  0  0  0  0
 13 16  1  0  0  0  0
 15  7  2  0  0  0  0
 16 14  2  0  0  0  0
 18 17  1  0  0  0  0
 20 18  1  0  0  0  0
 21 20  1  0  0  0  0
 21 19  1  0  0  0  0
 22 23  2  0  0  0  0
 22 25  1  0  0  0  0
 23 24  1  0  0  0  0
 24 20  2  0  0  0  0
 25 21  2  0  0  0  0
 26  1  1  0  0  0  0
 27 29  1  0  0  0  0
 28 32  2  0  0  0  0
 29 31  2  0  0  0  0
 30 28  1  0  0  0  0
 30 27  2  0  0  0  0
 32 26  1  0  0  0  0
 32 31  1  0  0  0  0
 33 27  1  0  0  0  0
 34 33  1  0  0  0  0
M  END
>  <MODEL>
7

>  <REMARK>
 VINA RESULT:      -7.2      2.097      7.256
  Name = 
  7 active torsions:
  status: ('A' for Active; 'I' for Inactive)
    1  A    between atoms: O_3  and  C_13
    2  A    between atoms: O_3  and  C_17
    3  A    between atoms: C_4  and  C_31
    4  A    between atoms: N_5  and  C_26
    5  A    between atoms: S_7  and  C_8
    6  A    between atoms: C_17  and  C_29
    7  A    between atoms: C_26  and  C_28
                            x       y       z     vdW  Elec       q    Type
                         _______ _______ _______ _____ _____    ______ ____

>  <TORSDO>
F 7

$$$$
=
 OpenBabel11052413593D

 34 38  0  0  1  0  0  0  0  0999 V2000
  181.4220  178.6530  139.2230 N   0  0  0  0  0  0  0  0  0  0  0  0
  182.8630  176.8120  139.7980 C   0  0  0  0  0  2  0  0  0  0  0  0
  181.8270  178.8430  140.6150 C   0  0  0  0  0  2  0  0  0  0  0  0
  182.7710  177.7120  141.0060 C   0  0  2  0  0  3  0  0  0  0  0  0
  181.6740  177.2310  138.9600 C   0  0  2  0  0  3  0  0  0  0  0  0
  182.3690  174.4650  137.1940 C   0  0  0  0  0  0  0  0  0  0  0  0
  184.2330  176.0380  137.1810 C   0  0  0  0  0  0  0  0  0  0  0  0
  181.7830  176.8640  137.4660 C   0  0  1  0  0  3  0  0  0  0  0  0
  184.6900  173.6340  137.6650 C   0  0  0  0  0  2  0  0  0  0  0  0
  185.1620  174.9570  137.2700 N   0  0  0  0  0  2  0  0  0  0  0  0
  182.7870  175.7480  137.2540 C   0  0  0  0  0  0  0  0  0  0  0  0
  183.3460  173.3350  136.9970 C   0  0  0  0  0  2  0  0  0  0  0  0
  180.4880  176.4800  136.9840 O   0  0  0  0  0  0  0  0  0  0  0  0
  180.9300  174.1610  137.1280 C   0  0  0  0  0  3  0  0  0  0  0  0
  184.6500  177.2140  137.0140 O   0  0  0  0  0  0  0  0  0  0  0  0
  180.0480  175.1500  137.0100 C   0  0  0  0  0  3  0  0  0  0  0  0
  184.1430  178.2440  141.4000 C   0  0  0  0  0  2  0  0  0  0  0  0
  184.1240  178.7610  142.7260 O   0  0  0  0  0  0  0  0  0  0  0  0
  183.6020  179.1640  145.4400 O   0  0  0  0  0  1  0  0  0  0  0  0
  185.0980  178.4440  143.6780 C   0  0  0  0  0  0  0  0  0  0  0  0
  184.8280  178.6500  145.0370 C   0  0  0  0  0  0  0  0  0  0  0  0
  187.0240  177.8200  145.5810 C   0  0  0  0  0  3  0  0  0  0  0  0
  187.2720  177.6230  144.2590 N   0  0  0  0  0  0  0  0  0  0  0  0
  186.3450  177.9210  143.3090 C   0  0  0  0  0  3  0  0  0  0  0  0
  185.7950  178.3380  145.9940 C   0  0  0  0  0  3  0  0  0  0  0  0
  182.3050  179.4980  138.4140 C   0  0  0  0  0  2  0  0  0  0  0  0
  180.0900  182.6590  136.5500 C   0  0  0  0  0  0  0  0  0  0  0  0
  181.5660  181.8870  138.3090 C   0  0  0  0  0  3  0  0  0  0  0  0
  180.0590  181.3690  136.0100 C   0  0  0  0  0  3  0  0  0  0  0  0
  180.8480  182.9180  137.6970 C   0  0  0  0  0  3  0  0  0  0  0  0
  180.7780  180.3370  136.6210 C   0  0  0  0  0  3  0  0  0  0  0  0
  181.5260  180.5940  137.7740 C   0  0  0  0  0  0  0  0  0  0  0  0
  179.1770  183.9800  135.7650 S   0  0  0  0  0  0  0  0  0  0  0  0
  179.5440  185.3230  137.3750 S   0  0  0  0  0  1  0  0  0  0  0  0
  1  3  1  0  0  0  0
  2  4  1  0  0  0  0
  3  4  1  0  0  0  0
  4 17  1  6  0  0  0
  5  1  1  0  0  0  0
  5  2  1  1  0  0  0
  6 11  2  0  0  0  0
  7 11  1  0  0  0  0
  7 10  1  0  0  0  0
  8 13  1  1  0  0  0
  8  5  1  0  0  0  0
 10  9  1  0  0  0  0
 11  8  1  0  0  0  0
 12  6  1  0  0  0  0
 12  9  1  0  0  0  0
 13 16  1  0  0  0  0
 14  6  1  0  0  0  0
 15  7  2  0  0  0  0
 16 14  2  0  0  0  0
 17 18  1  0  0  0  0
 18 20  1  0  0  0  0
 20 21  1  0  0  0  0
 21 19  1  0  0  0  0
 21 25  2  0  0  0  0
 22 25  1  0  0  0  0
 23 22  2  0  0  0  0
 24 20  2  0  0  0  0
 24 23  1  0  0  0  0
 26  1  1  0  0  0  0
 27 30  1  0  0  0  0
 29 27  2  0  0  0  0
 29 31  1  0  0  0  0
 30 28  2  0  0  0  0
 31 32  2  0  0  0  0
 32 28  1  0  0  0  0
 32 26  1  0  0  0  0
 33 27  1  0  0  0  0
 33 34  1  0  0  0  0
M  END
>  <MODEL>
8

>  <REMARK>
 VINA RESULT:      -7.0      5.539      7.844
  Name = 
  7 active torsions:
  status: ('A' for Active; 'I' for Inactive)
    1  A    between atoms: O_3  and  C_13
    2  A    between atoms: O_3  and  C_17
    3  A    between atoms: C_4  and  C_31
    4  A    between atoms: N_5  and  C_26
    5  A    between atoms: S_7  and  C_8
    6  A    between atoms: C_17  and  C_29
    7  A    between atoms: C_26  and  C_28
                            x       y       z     vdW  Elec       q    Type
                         _______ _______ _______ _____ _____    ______ ____

>  <TORSDO>
F 7

$$$$
=
 OpenBabel11052413593D

 34 38  0  0  1  0  0  0  0  0999 V2000
  183.0870  177.6460  140.6330 N   0  0  0  0  0  0  0  0  0  0  0  0
  182.2140  178.4210  138.5270 C   0  0  0  0  0  2  0  0  0  0  0  0
  183.4350  176.6430  139.6280 C   0  0  0  0  0  2  0  0  0  0  0  0
  182.9280  177.1160  138.2710 C   0  0  2  0  0  3  0  0  0  0  0  0
  181.9890  178.4070  140.0230 C   0  0  2  0  0  3  0  0  0  0  0  0
  179.7280  180.8580  139.6640 C   0  0  0  0  0  0  0  0  0  0  0  0
  181.8600  181.4370  138.6320 C   0  0  0  0  0  0  0  0  0  0  0  0
  181.7470  179.7970  140.6460 C   0  0  1  0  0  3  0  0  0  0  0  0
  179.7590  181.8020  137.3390 C   0  0  0  0  0  2  0  0  0  0  0  0
  181.1780  182.0670  137.5470 N   0  0  0  0  0  2  0  0  0  0  0  0
  181.0720  180.7250  139.6560 C   0  0  0  0  0  0  0  0  0  0  0  0
  179.0290  181.7640  138.6830 C   0  0  0  0  0  2  0  0  0  0  0  0
  180.9480  179.6460  141.8280 O   0  0  0  0  0  0  0  0  0  0  0  0
  178.9340  180.2700  140.7550 C   0  0  0  0  0  3  0  0  0  0  0  0
  183.1130  181.5170  138.7190 O   0  0  0  0  0  0  0  0  0  0  0  0
  179.5490  179.7070  141.7930 C   0  0  0  0  0  3  0  0  0  0  0  0
  184.0740  177.3020  137.2830 C   0  0  0  0  0  2  0  0  0  0  0  0
  185.2620  177.7040  137.9570 O   0  0  0  0  0  0  0  0  0  0  0  0
  187.4940  178.6180  139.3650 O   0  0  0  0  0  1  0  0  0  0  0  0
  186.5090  177.7640  137.3260 C   0  0  0  0  0  0  0  0  0  0  0  0
  187.6220  178.2240  138.0390 C   0  0  0  0  0  0  0  0  0  0  0  0
  188.9920  177.8890  136.0850 C   0  0  0  0  0  3  0  0  0  0  0  0
  187.9020  177.4430  135.4040 N   0  0  0  0  0  0  0  0  0  0  0  0
  186.6770  177.3730  135.9900 C   0  0  0  0  0  3  0  0  0  0  0  0
  188.8710  178.2880  137.4170 C   0  0  0  0  0  3  0  0  0  0  0  0
  184.2720  178.4900  140.8070 C   0  0  0  0  0  2  0  0  0  0  0  0
  185.6780  178.2150  144.8470 C   0  0  0  0  0  0  0  0  0  0  0  0
  183.9100  178.7270  143.2720 C   0  0  0  0  0  3  0  0  0  0  0  0
  186.5280  177.8840  143.7850 C   0  0  0  0  0  3  0  0  0  0  0  0
  184.3680  178.6320  144.5890 C   0  0  0  0  0  3  0  0  0  0  0  0
  186.0700  177.9790  142.4680 C   0  0  0  0  0  3  0  0  0  0  0  0
  184.7630  178.4060  142.2100 C   0  0  0  0  0  0  0  0  0  0  0  0
  186.2610  178.0880  146.5320 S   0  0  0  0  0  0  0  0  0  0  0  0
  188.2530  177.6610  145.9130 S   0  0  0  0  0  1  0  0  0  0  0  0
  1 26  1  0  0  0  0
  3  1  1  0  0  0  0
  4 17  1  6  0  0  0
  4  2  1  0  0  0  0
  4  3  1  0  0  0  0
  5  2  1  6  0  0  0
  5  1  1  0  0  0  0
  5  8  1  0  0  0  0
  6 14  1  0  0  0  0
  7 15  2  0  0  0  0
  7 11  1  0  0  0  0
  8 11  1  6  0  0  0
  8 13  1  0  0  0  0
  9 10  1  0  0  0  0
  9 12  1  0  0  0  0
 10  7  1  0  0  0  0
 11  6  2  0  0  0  0
 12  6  1  0  0  0  0
 14 16  2  0  0  0  0
 16 13  1  0  0  0  0
 17 18  1  0  0  0  0
 20 18  1  0  0  0  0
 20 21  1  0  0  0  0
 21 19  1  0  0  0  0
 22 25  1  0  0  0  0
 23 24  1  0  0  0  0
 23 22  2  0  0  0  0
 24 20  2  0  0  0  0
 25 21  2  0  0  0  0
 26 32  1  0  0  0  0
 27 33  1  0  0  0  0
 28 30  2  0  0  0  0
 29 27  2  0  0  0  0
 30 27  1  0  0  0  0
 31 29  1  0  0  0  0
 32 31  2  0  0  0  0
 32 28  1  0  0  0  0
 34 33  1  0  0  0  0
M  END
>  <MODEL>
9

>  <REMARK>
 VINA RESULT:      -6.9      4.617      9.519
  Name = 
  7 active torsions:
  status: ('A' for Active; 'I' for Inactive)
    1  A    between atoms: O_3  and  C_13
    2  A    between atoms: O_3  and  C_17
    3  A    between atoms: C_4  and  C_31
    4  A    between atoms: N_5  and  C_26
    5  A    between atoms: S_7  and  C_8
    6  A    between atoms: C_17  and  C_29
    7  A    between atoms: C_26  and  C_28
                            x       y       z     vdW  Elec       q    Type
                         _______ _______ _______ _____ _____    ______ ____

>  <TORSDO>
F 7

$$$$
