=
 OpenBabel11052414383D

 32 37  0  0  1  0  0  0  0  0999 V2000
  186.1580  178.4200  142.0590 C   0  0  0  0  0  0  0  0  0  0  0  0
  187.2150  178.4250  139.9460 N   0  0  0  0  0  0  0  0  0  0  0  0
  184.8780  178.3310  142.7970 C   0  0  0  0  0  3  0  0  0  0  0  0
  186.1060  178.6780  140.7540 C   0  0  0  0  0  0  0  0  0  0  0  0
  186.7560  178.2140  138.6360 C   0  0  0  0  0  0  0  0  0  0  0  0
  191.4700  176.4640  138.6920 C   0  0  0  0  0  3  0  0  0  0  0  0
  188.4120  177.8420  140.4360 C   0  0  0  0  0  0  0  0  0  0  0  0
  189.7500  176.8230  137.0860 C   0  0  0  0  0  3  0  0  0  0  0  0
  188.8900  177.3010  138.0750 C   0  0  0  0  0  0  0  0  0  0  0  0
  184.8520  178.8600  139.9600 C   0  0  2  0  0  3  0  0  0  0  0  0
  187.5310  177.6720  137.7400 N   0  0  0  0  0  0  0  0  0  0  0  0
  183.7030  178.0680  140.6150 C   0  0  0  0  0  2  0  0  0  0  0  0
  188.5330  177.6610  141.7600 C   0  0  0  0  0  3  0  0  0  0  0  0
  187.4370  178.0340  142.6380 N   0  0  0  0  0  0  0  0  0  0  0  0
  189.3520  177.3500  139.4160 C   0  0  0  0  0  0  0  0  0  0  0  0
  185.2690  178.4230  138.5130 C   0  0  2  0  0  3  0  0  0  0  0  0
  183.7220  178.2150  142.1230 C   0  0  0  0  0  3  0  0  0  0  0  0
  191.0100  176.4240  137.4100 N   0  0  0  0  0  0  0  0  0  0  0  0
  190.6470  176.9260  139.7210 C   0  0  0  0  0  3  0  0  0  0  0  0
  188.8790  177.1220  145.9870 C   0  0  0  0  0  0  0  0  0  0  0  0
  189.9950  176.5730  146.5290 F   0  0  0  0  0  0  0  0  0  0  0  0
  187.5910  177.8510  144.0530 C   0  0  0  0  0  0  0  0  0  0  0  0
  187.8420  177.5270  146.8300 C   0  0  0  0  0  3  0  0  0  0  0  0
  186.5550  178.2440  144.9120 C   0  0  0  0  0  3  0  0  0  0  0  0
  188.7600  177.2740  144.5960 C   0  0  0  0  0  0  0  0  0  0  0  0
  189.8570  176.7790  143.7120 C   0  0  0  0  0  1  0  0  0  0  0  0
  186.6770  178.0790  146.2940 C   0  0  0  0  0  0  0  0  0  0  0  0
  184.4080  178.6990  146.4620 O   0  0  0  0  0  1  0  0  0  0  0  0
  185.5820  178.5270  147.1960 C   0  0  0  0  0  2  0  0  0  0  0  0
  184.6270  177.1730  138.1240 N   0  0  0  0  0  2  0  0  0  0  0  0
  183.9960  177.4000  136.8360 C   0  0  0  0  0  2  0  0  0  0  0  0
  182.5500  177.7970  137.0470 C   0  0  0  0  0  1  0  0  0  0  0  0
  1 14  1  0  0  0  0
  1  3  1  0  0  0  0
  2  7  1  0  0  0  0
  2  4  1  0  0  0  0
  4  1  2  0  0  0  0
  5  2  1  0  0  0  0
  6 19  1  0  0  0  0
  7 13  2  0  0  0  0
  8 18  1  0  0  0  0
  8  9  2  0  0  0  0
  9 15  1  0  0  0  0
 10 12  1  1  0  0  0
 10  4  1  0  0  0  0
 11  9  1  0  0  0  0
 11  5  2  0  0  0  0
 12 17  1  0  0  0  0
 13 14  1  0  0  0  0
 14 22  1  0  0  0  0
 15 19  2  0  0  0  0
 15  7  1  0  0  0  0
 16 30  1  1  0  0  0
 16  5  1  0  0  0  0
 16 10  1  0  0  0  0
 17  3  2  0  0  0  0
 18  6  2  0  0  0  0
 20 21  1  0  0  0  0
 20 23  1  0  0  0  0
 22 25  1  0  0  0  0
 22 24  2  0  0  0  0
 24 27  1  0  0  0  0
 25 20  2  0  0  0  0
 26 25  1  0  0  0  0
 27 23  2  0  0  0  0
 27 29  1  0  0  0  0
 28 29  1  0  0  0  0
 31 32  1  0  0  0  0
 31 30  1  0  0  0  0
M  END
>  <MODEL>
1

>  <REMARK>
 VINA RESULT:      -9.8      0.000      0.000
  Name = 
  4 active torsions:
  status: ('A' for Active; 'I' for Inactive)
    1  A    between atoms: C_13  and  N_18
    2  A    between atoms: C_15  and  C_26
    3  A    between atoms: C_16  and  N_27
    4  A    between atoms: N_18  and  C_29
                            x       y       z     vdW  Elec       q    Type
                         _______ _______ _______ _____ _____    ______ ____

>  <TORSDO>
F 4

$$$$
=
 OpenBabel11052414383D

 32 37  0  0  1  0  0  0  0  0999 V2000
  186.9880  178.3810  143.3040 C   0  0  0  0  0  0  0  0  0  0  0  0
  187.2650  178.6410  140.9720 N   0  0  0  0  0  0  0  0  0  0  0  0
  186.0300  178.2350  144.4230 C   0  0  0  0  0  3  0  0  0  0  0  0
  186.5180  178.8180  142.1360 C   0  0  0  0  0  0  0  0  0  0  0  0
  186.3750  178.6280  139.8860 C   0  0  0  0  0  0  0  0  0  0  0  0
  190.6750  176.7260  138.1030 C   0  0  0  0  0  3  0  0  0  0  0  0
  188.5070  177.9550  140.9450 C   0  0  0  0  0  0  0  0  0  0  0  0
  188.5480  177.3620  137.2440 C   0  0  0  0  0  3  0  0  0  0  0  0
  188.1140  177.7280  138.5180 C   0  0  0  0  0  0  0  0  0  0  0  0
  185.0880  179.1500  141.8520 C   0  0  2  0  0  3  0  0  0  0  0  0
  186.7560  178.1890  138.7200 N   0  0  0  0  0  0  0  0  0  0  0  0
  184.1700  178.3150  142.7660 C   0  0  0  0  0  2  0  0  0  0  0  0
  189.0530  177.5890  142.1150 C   0  0  0  0  0  3  0  0  0  0  0  0
  188.3520  177.8760  143.3550 N   0  0  0  0  0  0  0  0  0  0  0  0
  189.0040  177.5760  139.6130 C   0  0  0  0  0  0  0  0  0  0  0  0
  184.9550  178.9030  140.3090 C   0  0  2  0  0  3  0  0  0  0  0  0
  184.7080  178.2530  144.1810 C   0  0  0  0  0  3  0  0  0  0  0  0
  189.8080  176.8790  137.0640 N   0  0  0  0  0  0  0  0  0  0  0  0
  190.2890  177.0700  139.4000 C   0  0  0  0  0  3  0  0  0  0  0  0
  190.8810  176.7530  145.9000 C   0  0  0  0  0  0  0  0  0  0  0  0
  192.1820  176.3820  145.9850 F   0  0  0  0  0  0  0  0  0  0  0  0
  188.9600  177.4950  144.5980 C   0  0  0  0  0  0  0  0  0  0  0  0
  190.1000  176.7690  147.0580 C   0  0  0  0  0  3  0  0  0  0  0  0
  188.1880  177.4950  145.7680 C   0  0  0  0  0  3  0  0  0  0  0  0
  190.3170  177.1080  144.6640 C   0  0  0  0  0  0  0  0  0  0  0  0
  191.1560  177.0260  143.4300 C   0  0  0  0  0  1  0  0  0  0  0  0
  188.7540  177.1310  146.9920 C   0  0  0  0  0  0  0  0  0  0  0  0
  188.3070  178.2530  149.0180 O   0  0  0  0  0  1  0  0  0  0  0  0
  187.9300  177.1640  148.2310 C   0  0  0  0  0  2  0  0  0  0  0  0
  184.1230  177.7410  140.0230 N   0  0  0  0  0  2  0  0  0  0  0  0
  183.2270  178.1140  138.9420 C   0  0  0  0  0  2  0  0  0  0  0  0
  182.8540  179.5750  139.0790 C   0  0  0  0  0  1  0  0  0  0  0  0
  1 14  1  0  0  0  0
  1  3  1  0  0  0  0
  2  4  1  0  0  0  0
  4  1  2  0  0  0  0
  5 16  1  0  0  0  0
  5  2  1  0  0  0  0
  6 19  1  0  0  0  0
  7  2  1  0  0  0  0
  7 13  2  0  0  0  0
  8  9  2  0  0  0  0
  9 11  1  0  0  0  0
  9 15  1  0  0  0  0
 10  4  1  0  0  0  0
 10 12  1  1  0  0  0
 11  5  2  0  0  0  0
 12 17  1  0  0  0  0
 13 14  1  0  0  0  0
 14 22  1  0  0  0  0
 15  7  1  0  0  0  0
 16 30  1  1  0  0  0
 16 10  1  0  0  0  0
 17  3  2  0  0  0  0
 18  8  1  0  0  0  0
 18  6  2  0  0  0  0
 19 15  2  0  0  0  0
 20 21  1  0  0  0  0
 20 23  1  0  0  0  0
 22 25  1  0  0  0  0
 22 24  2  0  0  0  0
 24 27  1  0  0  0  0
 25 20  2  0  0  0  0
 26 25  1  0  0  0  0
 27 23  2  0  0  0  0
 27 29  1  0  0  0  0
 29 28  1  0  0  0  0
 31 32  1  0  0  0  0
 31 30  1  0  0  0  0
M  END
>  <MODEL>
2

>  <REMARK>
 VINA RESULT:      -9.8      1.552      1.915
  Name = 
  4 active torsions:
  status: ('A' for Active; 'I' for Inactive)
    1  A    between atoms: C_13  and  N_18
    2  A    between atoms: C_15  and  C_26
    3  A    between atoms: C_16  and  N_27
    4  A    between atoms: N_18  and  C_29
                            x       y       z     vdW  Elec       q    Type
                         _______ _______ _______ _____ _____    ______ ____

>  <TORSDO>
F 4

$$$$
=
 OpenBabel11052414383D

 32 37  0  0  1  0  0  0  0  0999 V2000
  187.0030  178.4870  141.0710 C   0  0  0  0  0  0  0  0  0  0  0  0
  189.1480  178.1840  142.0150 N   0  0  0  0  0  0  0  0  0  0  0  0
  186.1640  178.3800  139.8560 C   0  0  0  0  0  3  0  0  0  0  0  0
  188.3260  178.4460  140.9190 C   0  0  0  0  0  0  0  0  0  0  0  0
  190.3460  177.6310  141.5330 C   0  0  0  0  0  0  0  0  0  0  0  0
  190.3000  176.6190  146.4580 C   0  0  0  0  0  3  0  0  0  0  0  0
  188.6440  177.8950  143.3090 C   0  0  0  0  0  0  0  0  0  0  0  0
  191.8050  176.3750  144.6310 C   0  0  0  0  0  3  0  0  0  0  0  0
  190.8720  176.9290  143.7550 C   0  0  0  0  0  0  0  0  0  0  0  0
  189.0390  178.2720  139.6160 C   0  0  2  0  0  3  0  0  0  0  0  0
  191.1690  177.0240  142.3400 N   0  0  0  0  0  0  0  0  0  0  0  0
  188.1460  177.4870  138.6360 C   0  0  0  0  0  2  0  0  0  0  0  0
  187.3240  178.0240  143.5180 C   0  0  0  0  0  3  0  0  0  0  0  0
  186.4600  178.4200  142.4190 N   0  0  0  0  0  0  0  0  0  0  0  0
  189.6110  177.3320  144.2660 C   0  0  0  0  0  0  0  0  0  0  0  0
  190.3930  177.5960  140.0270 C   0  0  2  0  0  3  0  0  0  0  0  0
  186.7070  177.9580  138.7020 C   0  0  0  0  0  3  0  0  0  0  0  0
  191.5060  176.2380  145.9520 N   0  0  0  0  0  0  0  0  0  0  0  0
  189.3270  177.1720  145.6230 C   0  0  0  0  0  3  0  0  0  0  0  0
  183.1760  178.9640  144.1670 C   0  0  0  0  0  0  0  0  0  0  0  0
  182.6800  179.1960  145.4080 F   0  0  0  0  0  0  0  0  0  0  0  0
  185.0540  178.5710  142.6660 C   0  0  0  0  0  0  0  0  0  0  0  0
  182.2950  178.8690  143.0880 C   0  0  0  0  0  3  0  0  0  0  0  0
  184.1550  178.4690  141.5950 C   0  0  0  0  0  3  0  0  0  0  0  0
  184.5570  178.8090  143.9670 C   0  0  0  0  0  0  0  0  0  0  0  0
  185.4750  178.8560  145.1450 C   0  0  0  0  0  1  0  0  0  0  0  0
  182.7820  178.6130  141.8050 C   0  0  0  0  0  0  0  0  0  0  0  0
  182.4290  179.1000  139.5240 O   0  0  0  0  0  1  0  0  0  0  0  0
  181.8410  178.5310  140.6550 C   0  0  0  0  0  2  0  0  0  0  0  0
  190.4620  176.2140  139.5700 N   0  0  0  0  0  2  0  0  0  0  0  0
  191.4540  176.1650  138.5100 C   0  0  0  0  0  2  0  0  0  0  0  0
  190.9440  175.2930  137.3830 C   0  0  0  0  0  1  0  0  0  0  0  0
  1 14  1  0  0  0  0
  2  7  1  0  0  0  0
  3  1  1  0  0  0  0
  4  1  2  0  0  0  0
  4  2  1  0  0  0  0
  5  2  1  0  0  0  0
  5 11  2  0  0  0  0
  7 13  2  0  0  0  0
  7 15  1  0  0  0  0
  8 18  2  0  0  0  0
  9 15  2  0  0  0  0
  9  8  1  0  0  0  0
 10 12  1  6  0  0  0
 10 16  1  0  0  0  0
 10  4  1  0  0  0  0
 11  9  1  0  0  0  0
 12 17  1  0  0  0  0
 14 22  1  0  0  0  0
 14 13  1  0  0  0  0
 15 19  1  0  0  0  0
 16 30  1  1  0  0  0
 16  5  1  0  0  0  0
 17  3  2  0  0  0  0
 18  6  1  0  0  0  0
 19  6  2  0  0  0  0
 20 21  1  0  0  0  0
 22 25  2  0  0  0  0
 23 20  2  0  0  0  0
 24 27  2  0  0  0  0
 24 22  1  0  0  0  0
 25 20  1  0  0  0  0
 25 26  1  0  0  0  0
 27 23  1  0  0  0  0
 28 29  1  0  0  0  0
 29 27  1  0  0  0  0
 31 30  1  0  0  0  0
 32 31  1  0  0  0  0
M  END
>  <MODEL>
3

>  <REMARK>
 VINA RESULT:      -9.3      2.633      5.640
  Name = 
  4 active torsions:
  status: ('A' for Active; 'I' for Inactive)
    1  A    between atoms: C_13  and  N_18
    2  A    between atoms: C_15  and  C_26
    3  A    between atoms: C_16  and  N_27
    4  A    between atoms: N_18  and  C_29
                            x       y       z     vdW  Elec       q    Type
                         _______ _______ _______ _____ _____    ______ ____

>  <TORSDO>
F 4

$$$$
=
 OpenBabel11052414383D

 32 37  0  0  1  0  0  0  0  0999 V2000
  185.6620  178.6340  139.5330 C   0  0  0  0  0  0  0  0  0  0  0  0
  186.5900  178.8070  141.6990 N   0  0  0  0  0  0  0  0  0  0  0  0
  185.8500  178.1540  138.1460 C   0  0  0  0  0  3  0  0  0  0  0  0
  186.7370  178.7130  140.3150 C   0  0  0  0  0  0  0  0  0  0  0  0
  187.7570  178.3010  142.2930 C   0  0  0  0  0  0  0  0  0  0  0  0
  184.3460  178.4500  145.9840 C   0  0  0  0  0  3  0  0  0  0  0  0
  185.3290  178.7670  142.3480 C   0  0  0  0  0  0  0  0  0  0  0  0
  186.6660  177.9690  145.7570 C   0  0  0  0  0  3  0  0  0  0  0  0
  186.6050  178.1940  144.3820 C   0  0  0  0  0  0  0  0  0  0  0  0
  188.1250  178.3280  139.9140 C   0  0  2  0  0  3  0  0  0  0  0  0
  187.7800  177.9950  143.5590 N   0  0  0  0  0  0  0  0  0  0  0  0
  188.0680  177.2410  138.8240 C   0  0  0  0  0  2  0  0  0  0  0  0
  184.2230  178.7860  141.5860 C   0  0  0  0  0  3  0  0  0  0  0  0
  184.3510  178.8160  140.1390 N   0  0  0  0  0  0  0  0  0  0  0  0
  185.3600  178.5550  143.8040 C   0  0  0  0  0  0  0  0  0  0  0  0
  188.8000  177.9270  141.2710 C   0  0  2  0  0  3  0  0  0  0  0  0
  186.9960  177.5440  137.7970 C   0  0  0  0  0  3  0  0  0  0  0  0
  185.5490  178.1050  146.5230 N   0  0  0  0  0  0  0  0  0  0  0  0
  184.2270  178.6790  144.6120 C   0  0  0  0  0  3  0  0  0  0  0  0
  181.2640  177.7620  138.2700 C   0  0  0  0  0  0  0  0  0  0  0  0
  180.5500  176.6460  137.9780 F   0  0  0  0  0  0  0  0  0  0  0  0
  183.1590  178.8560  139.3400 C   0  0  0  0  0  0  0  0  0  0  0  0
  180.8280  178.9960  137.7820 C   0  0  0  0  0  3  0  0  0  0  0  0
  182.7130  180.0850  138.8340 C   0  0  0  0  0  3  0  0  0  0  0  0
  182.4320  177.6810  139.0450 C   0  0  0  0  0  0  0  0  0  0  0  0
  182.9100  176.3430  139.5060 C   0  0  0  0  0  1  0  0  0  0  0  0
  181.5560  180.1550  138.0550 C   0  0  0  0  0  0  0  0  0  0  0  0
  181.7960  182.4990  138.1610 O   0  0  0  0  0  1  0  0  0  0  0  0
  181.0790  181.4700  137.5490 C   0  0  0  0  0  2  0  0  0  0  0  0
  189.0600  176.4940  141.3370 N   0  0  0  0  0  2  0  0  0  0  0  0
  190.3520  176.3240  141.9790 C   0  0  0  0  0  2  0  0  0  0  0  0
  191.2920  177.4160  141.5150 C   0  0  0  0  0  1  0  0  0  0  0  0
  1 14  1  0  0  0  0
  1  4  2  0  0  0  0
  2  5  1  0  0  0  0
  2  7  1  0  0  0  0
  3  1  1  0  0  0  0
  4  2  1  0  0  0  0
  5 11  2  0  0  0  0
  6 18  1  0  0  0  0
  7 15  1  0  0  0  0
  8 18  2  0  0  0  0
  9  8  1  0  0  0  0
 10 12  1  6  0  0  0
 10  4  1  0  0  0  0
 10 16  1  0  0  0  0
 11  9  1  0  0  0  0
 13  7  2  0  0  0  0
 14 13  1  0  0  0  0
 15  9  2  0  0  0  0
 15 19  1  0  0  0  0
 16 30  1  6  0  0  0
 16  5  1  0  0  0  0
 17  3  2  0  0  0  0
 17 12  1  0  0  0  0
 19  6  2  0  0  0  0
 20 25  1  0  0  0  0
 21 20  1  0  0  0  0
 22 14  1  0  0  0  0
 23 27  1  0  0  0  0
 23 20  2  0  0  0  0
 24 22  1  0  0  0  0
 25 22  2  0  0  0  0
 25 26  1  0  0  0  0
 27 24  2  0  0  0  0
 29 27  1  0  0  0  0
 29 28  1  0  0  0  0
 30 31  1  0  0  0  0
 32 31  1  0  0  0  0
M  END
>  <MODEL>
4

>  <REMARK>
 VINA RESULT:      -9.1      3.365      7.564
  Name = 
  4 active torsions:
  status: ('A' for Active; 'I' for Inactive)
    1  A    between atoms: C_13  and  N_18
    2  A    between atoms: C_15  and  C_26
    3  A    between atoms: C_16  and  N_27
    4  A    between atoms: N_18  and  C_29
                            x       y       z     vdW  Elec       q    Type
                         _______ _______ _______ _____ _____    ______ ____

>  <TORSDO>
F 4

$$$$
=
 OpenBabel11052414383D

 32 37  0  0  1  0  0  0  0  0999 V2000
  186.7140  178.4380  142.7050 C   0  0  0  0  0  0  0  0  0  0  0  0
  186.4700  178.8160  140.3850 N   0  0  0  0  0  0  0  0  0  0  0  0
  186.0270  178.2150  143.9970 C   0  0  0  0  0  3  0  0  0  0  0  0
  185.9930  178.9180  141.6920 C   0  0  0  0  0  0  0  0  0  0  0  0
  185.3630  178.8310  139.5200 C   0  0  0  0  0  0  0  0  0  0  0  0
  189.1960  177.1280  136.7460 C   0  0  0  0  0  3  0  0  0  0  0  0
  187.6850  178.1640  140.0530 C   0  0  0  0  0  0  0  0  0  0  0  0
  186.9240  177.7490  136.4070 C   0  0  0  0  0  3  0  0  0  0  0  0
  186.7740  178.0420  137.7620 C   0  0  0  0  0  0  0  0  0  0  0  0
  184.5310  179.2260  141.7450 C   0  0  2  0  0  3  0  0  0  0  0  0
  185.4860  178.4580  138.2780 N   0  0  0  0  0  0  0  0  0  0  0  0
  183.8480  178.3260  142.7920 C   0  0  0  0  0  2  0  0  0  0  0  0
  188.4800  177.7570  141.0550 C   0  0  0  0  0  3  0  0  0  0  0  0
  188.0630  177.9660  142.4310 N   0  0  0  0  0  0  0  0  0  0  0  0
  187.8850  177.8620  138.6260 C   0  0  0  0  0  0  0  0  0  0  0  0
  184.0670  179.0490  140.2570 C   0  0  2  0  0  3  0  0  0  0  0  0
  184.6840  178.2100  144.0500 C   0  0  0  0  0  3  0  0  0  0  0  0
  188.1200  177.3080  135.9310 N   0  0  0  0  0  0  0  0  0  0  0  0
  189.0980  177.3990  138.1130 C   0  0  0  0  0  3  0  0  0  0  0  0
  190.9340  176.4020  144.2870 C   0  0  0  0  0  0  0  0  0  0  0  0
  192.0590  175.6810  144.0530 F   0  0  0  0  0  0  0  0  0  0  0  0
  188.9350  177.5420  143.4900 C   0  0  0  0  0  0  0  0  0  0  0  0
  190.6080  176.7490  145.5990 C   0  0  0  0  0  3  0  0  0  0  0  0
  188.6160  177.8740  144.8150 C   0  0  0  0  0  3  0  0  0  0  0  0
  190.1000  176.7890  143.2260 C   0  0  0  0  0  0  0  0  0  0  0  0
  190.4380  176.3550  141.8370 C   0  0  0  0  0  1  0  0  0  0  0  0
  189.4460  177.4760  145.8650 C   0  0  0  0  0  0  0  0  0  0  0  0
  190.1580  177.5010  148.1130 O   0  0  0  0  0  1  0  0  0  0  0  0
  189.1120  177.8600  147.2630 C   0  0  0  0  0  2  0  0  0  0  0  0
  183.2100  177.8810  140.0990 N   0  0  0  0  0  2  0  0  0  0  0  0
  181.8560  178.3700  139.9060 C   0  0  0  0  0  2  0  0  0  0  0  0
  181.8860  179.6090  139.0380 C   0  0  0  0  0  1  0  0  0  0  0  0
  1  3  1  0  0  0  0
  2  4  1  0  0  0  0
  3 17  2  0  0  0  0
  4 10  1  0  0  0  0
  4  1  2  0  0  0  0
  5 16  1  0  0  0  0
  5  2  1  0  0  0  0
  6 19  1  0  0  0  0
  7  2  1  0  0  0  0
  7 13  2  0  0  0  0
  8  9  2  0  0  0  0
  9 11  1  0  0  0  0
  9 15  1  0  0  0  0
 10 12  1  1  0  0  0
 11  5  2  0  0  0  0
 12 17  1  0  0  0  0
 13 14  1  0  0  0  0
 14  1  1  0  0  0  0
 14 22  1  0  0  0  0
 15  7  1  0  0  0  0
 16 30  1  1  0  0  0
 16 10  1  0  0  0  0
 18  8  1  0  0  0  0
 18  6  2  0  0  0  0
 19 15  2  0  0  0  0
 20 23  1  0  0  0  0
 21 20  1  0  0  0  0
 22 24  2  0  0  0  0
 23 27  2  0  0  0  0
 24 27  1  0  0  0  0
 25 22  1  0  0  0  0
 25 20  2  0  0  0  0
 26 25  1  0  0  0  0
 27 29  1  0  0  0  0
 29 28  1  0  0  0  0
 31 30  1  0  0  0  0
 32 31  1  0  0  0  0
M  END
>  <MODEL>
5

>  <REMARK>
 VINA RESULT:      -9.0      1.995      2.543
  Name = 
  4 active torsions:
  status: ('A' for Active; 'I' for Inactive)
    1  A    between atoms: C_13  and  N_18
    2  A    between atoms: C_15  and  C_26
    3  A    between atoms: C_16  and  N_27
    4  A    between atoms: N_18  and  C_29
                            x       y       z     vdW  Elec       q    Type
                         _______ _______ _______ _____ _____    ______ ____

>  <TORSDO>
F 4

$$$$
=
 OpenBabel11052414383D

 32 37  0  0  1  0  0  0  0  0999 V2000
  189.0310  177.0760  143.7110 C   0  0  0  0  0  0  0  0  0  0  0  0
  188.8780  176.9010  141.3600 N   0  0  0  0  0  0  0  0  0  0  0  0
  189.9290  177.1730  144.8840 C   0  0  0  0  0  3  0  0  0  0  0  0
  189.5600  176.6760  142.5550 C   0  0  0  0  0  0  0  0  0  0  0  0
  189.8250  176.9440  140.3240 C   0  0  0  0  0  0  0  0  0  0  0  0
  185.6400  178.9460  138.3830 C   0  0  0  0  0  3  0  0  0  0  0  0
  187.6440  177.5980  141.2920 C   0  0  0  0  0  0  0  0  0  0  0  0
  187.8050  178.3220  137.6170 C   0  0  0  0  0  3  0  0  0  0  0  0
  188.1680  177.9070  138.8990 C   0  0  0  0  0  0  0  0  0  0  0  0
  191.0010  176.3420  142.3360 C   0  0  2  0  0  3  0  0  0  0  0  0
  189.5100  177.4280  139.1560 N   0  0  0  0  0  0  0  0  0  0  0  0
  191.8750  177.1350  143.3270 C   0  0  0  0  0  2  0  0  0  0  0  0
  187.0380  177.9280  142.4430 C   0  0  0  0  0  3  0  0  0  0  0  0
  187.6710  177.5910  143.7070 N   0  0  0  0  0  0  0  0  0  0  0  0
  187.2210  178.0290  139.9490 C   0  0  0  0  0  0  0  0  0  0  0  0
  191.2180  176.6420  140.8130 C   0  0  2  0  0  3  0  0  0  0  0  0
  191.2620  177.1530  144.7120 C   0  0  0  0  0  3  0  0  0  0  0  0
  186.5600  178.8220  137.3870 N   0  0  0  0  0  0  0  0  0  0  0  0
  185.9540  178.5530  139.6860 C   0  0  0  0  0  3  0  0  0  0  0  0
  185.0040  178.5970  146.1590 C   0  0  0  0  0  0  0  0  0  0  0  0
  183.6890  178.9270  146.1940 F   0  0  0  0  0  0  0  0  0  0  0  0
  186.9990  177.9340  144.9290 C   0  0  0  0  0  0  0  0  0  0  0  0
  185.7350  178.5850  147.3490 C   0  0  0  0  0  3  0  0  0  0  0  0
  187.7210  177.9370  146.1310 C   0  0  0  0  0  3  0  0  0  0  0  0
  185.6290  178.2790  144.9430 C   0  0  0  0  0  0  0  0  0  0  0  0
  184.8410  178.3560  143.6760 C   0  0  0  0  0  1  0  0  0  0  0  0
  187.0940  178.2640  147.3350 C   0  0  0  0  0  0  0  0  0  0  0  0
  189.2080  177.9710  148.3380 O   0  0  0  0  0  1  0  0  0  0  0  0
  187.8650  178.2350  148.6070 C   0  0  0  0  0  2  0  0  0  0  0  0
  192.0730  177.8060  140.6120 N   0  0  0  0  0  2  0  0  0  0  0  0
  193.3020  177.3320  140.0010 C   0  0  0  0  0  2  0  0  0  0  0  0
  192.9850  176.6800  138.6720 C   0  0  0  0  0  1  0  0  0  0  0  0
  1  3  1  0  0  0  0
  2  4  1  0  0  0  0
  4  1  2  0  0  0  0
  5 16  1  0  0  0  0
  5  2  1  0  0  0  0
  6 19  1  0  0  0  0
  7  2  1  0  0  0  0
  7 13  2  0  0  0  0
  8  9  2  0  0  0  0
  9 11  1  0  0  0  0
  9 15  1  0  0  0  0
 10  4  1  0  0  0  0
 10 12  1  1  0  0  0
 11  5  2  0  0  0  0
 12 17  1  0  0  0  0
 13 14  1  0  0  0  0
 14  1  1  0  0  0  0
 14 22  1  0  0  0  0
 15  7  1  0  0  0  0
 16 30  1  1  0  0  0
 16 10  1  0  0  0  0
 17  3  2  0  0  0  0
 18  8  1  0  0  0  0
 18  6  2  0  0  0  0
 19 15  2  0  0  0  0
 20 21  1  0  0  0  0
 20 23  1  0  0  0  0
 22 25  1  0  0  0  0
 22 24  2  0  0  0  0
 24 27  1  0  0  0  0
 25 20  2  0  0  0  0
 26 25  1  0  0  0  0
 27 23  2  0  0  0  0
 27 29  1  0  0  0  0
 28 29  1  0  0  0  0
 31 30  1  0  0  0  0
 32 31  1  0  0  0  0
M  END
>  <MODEL>
6

>  <REMARK>
 VINA RESULT:      -8.9      2.201      5.156
  Name = 
  4 active torsions:
  status: ('A' for Active; 'I' for Inactive)
    1  A    between atoms: C_13  and  N_18
    2  A    between atoms: C_15  and  C_26
    3  A    between atoms: C_16  and  N_27
    4  A    between atoms: N_18  and  C_29
                            x       y       z     vdW  Elec       q    Type
                         _______ _______ _______ _____ _____    ______ ____

>  <TORSDO>
F 4

$$$$
=
 OpenBabel11052414383D

 32 37  0  0  1  0  0  0  0  0999 V2000
  185.3890  177.8920  143.9950 C   0  0  0  0  0  0  0  0  0  0  0  0
  187.6250  177.1310  143.9630 N   0  0  0  0  0  0  0  0  0  0  0  0
  184.3030  178.4940  144.8010 C   0  0  0  0  0  3  0  0  0  0  0  0
  186.4340  177.3810  144.6440 C   0  0  0  0  0  0  0  0  0  0  0  0
  188.6730  177.1710  144.8970 C   0  0  0  0  0  0  0  0  0  0  0  0
  190.8910  177.5030  140.3960 C   0  0  0  0  0  3  0  0  0  0  0  0
  187.8150  177.4490  142.5930 C   0  0  0  0  0  0  0  0  0  0  0  0
  191.5600  177.2970  142.6710 C   0  0  0  0  0  3  0  0  0  0  0  0
  190.2300  177.3060  143.0900 C   0  0  0  0  0  0  0  0  0  0  0  0
  186.6160  177.3880  146.1280 C   0  0  2  0  0  3  0  0  0  0  0  0
  189.9110  177.2650  144.5030 N   0  0  0  0  0  0  0  0  0  0  0  0
  185.8710  178.5920  146.7360 C   0  0  0  0  0  2  0  0  0  0  0  0
  186.7550  177.8740  141.8880 C   0  0  0  0  0  3  0  0  0  0  0  0
  185.4690  178.0220  142.5480 N   0  0  0  0  0  0  0  0  0  0  0  0
  189.2070  177.4240  142.1140 C   0  0  0  0  0  0  0  0  0  0  0  0
  188.1730  177.3640  146.3050 C   0  0  2  0  0  3  0  0  0  0  0  0
  184.5090  178.7790  146.0980 C   0  0  0  0  0  3  0  0  0  0  0  0
  191.8600  177.3890  141.3470 N   0  0  0  0  0  0  0  0  0  0  0  0
  189.5430  177.5250  140.7620 C   0  0  0  0  0  3  0  0  0  0  0  0
  183.3340  179.1640  139.6710 C   0  0  0  0  0  0  0  0  0  0  0  0
  183.4300  179.4450  138.3480 F   0  0  0  0  0  0  0  0  0  0  0  0
  184.3410  178.4590  141.7740 C   0  0  0  0  0  0  0  0  0  0  0  0
  182.1000  179.2990  140.3090 C   0  0  0  0  0  3  0  0  0  0  0  0
  183.0960  178.6100  142.4010 C   0  0  0  0  0  3  0  0  0  0  0  0
  184.4630  178.7500  140.3970 C   0  0  0  0  0  0  0  0  0  0  0  0
  185.7850  178.6700  139.7070 C   0  0  0  0  0  1  0  0  0  0  0  0
  181.9810  179.0320  141.6740 C   0  0  0  0  0  0  0  0  0  0  0  0
  180.2890  180.5030  142.4030 O   0  0  0  0  0  1  0  0  0  0  0  0
  180.6600  179.1600  142.3450 C   0  0  0  0  0  2  0  0  0  0  0  0
  188.6720  178.6270  146.8350 N   0  0  0  0  0  2  0  0  0  0  0  0
  189.3330  178.3310  148.0930 C   0  0  0  0  0  2  0  0  0  0  0  0
  188.3050  177.8810  149.1090 C   0  0  0  0  0  1  0  0  0  0  0  0
  1  4  2  0  0  0  0
  1  3  1  0  0  0  0
  2  4  1  0  0  0  0
  2  5  1  0  0  0  0
  3 17  2  0  0  0  0
  4 10  1  0  0  0  0
  5 16  1  0  0  0  0
  6 19  2  0  0  0  0
  6 18  1  0  0  0  0
  7  2  1  0  0  0  0
  8  9  1  0  0  0  0
  9 11  1  0  0  0  0
 10 16  1  0  0  0  0
 10 12  1  6  0  0  0
 11  5  2  0  0  0  0
 13 14  1  0  0  0  0
 13  7  2  0  0  0  0
 14  1  1  0  0  0  0
 15  7  1  0  0  0  0
 15  9  2  0  0  0  0
 16 30  1  6  0  0  0
 17 12  1  0  0  0  0
 18  8  2  0  0  0  0
 19 15  1  0  0  0  0
 20 23  2  0  0  0  0
 20 25  1  0  0  0  0
 21 20  1  0  0  0  0
 22 24  1  0  0  0  0
 22 14  1  0  0  0  0
 23 27  1  0  0  0  0
 25 22  2  0  0  0  0
 26 25  1  0  0  0  0
 27 29  1  0  0  0  0
 27 24  2  0  0  0  0
 29 28  1  0  0  0  0
 30 31  1  0  0  0  0
 31 32  1  0  0  0  0
M  END
>  <MODEL>
7

>  <REMARK>
 VINA RESULT:      -8.9      3.055      6.511
  Name = 
  4 active torsions:
  status: ('A' for Active; 'I' for Inactive)
    1  A    between atoms: C_13  and  N_18
    2  A    between atoms: C_15  and  C_26
    3  A    between atoms: C_16  and  N_27
    4  A    between atoms: N_18  and  C_29
                            x       y       z     vdW  Elec       q    Type
                         _______ _______ _______ _____ _____    ______ ____

>  <TORSDO>
F 4

$$$$
=
 OpenBabel11052414383D

 32 37  0  0  1  0  0  0  0  0999 V2000
  184.8450  178.4610  139.5770 C   0  0  0  0  0  0  0  0  0  0  0  0
  186.6020  178.6010  141.1510 N   0  0  0  0  0  0  0  0  0  0  0  0
  184.4570  178.1210  138.1900 C   0  0  0  0  0  3  0  0  0  0  0  0
  186.1400  178.6360  139.8350 C   0  0  0  0  0  0  0  0  0  0  0  0
  187.9560  178.2280  141.1230 C   0  0  0  0  0  0  0  0  0  0  0  0
  186.4990  177.5910  145.8930 C   0  0  0  0  0  3  0  0  0  0  0  0
  185.7610  178.3270  142.2590 C   0  0  0  0  0  0  0  0  0  0  0  0
  188.5220  177.4740  144.6460 C   0  0  0  0  0  3  0  0  0  0  0  0
  187.8460  177.7930  143.4690 C   0  0  0  0  0  0  0  0  0  0  0  0
  187.2450  178.4920  138.8380 C   0  0  2  0  0  3  0  0  0  0  0  0
  188.5580  177.8320  142.2080 N   0  0  0  0  0  0  0  0  0  0  0  0
  186.8270  177.4940  137.7400 C   0  0  0  0  0  2  0  0  0  0  0  0
  184.4380  178.2420  142.0460 C   0  0  0  0  0  3  0  0  0  0  0  0
  183.9190  178.4010  140.6980 N   0  0  0  0  0  0  0  0  0  0  0  0
  186.4450  178.0100  143.5240 C   0  0  0  0  0  0  0  0  0  0  0  0
  188.4800  178.0900  139.7170 C   0  0  2  0  0  3  0  0  0  0  0  0
  185.3900  177.7150  137.3120 C   0  0  0  0  0  3  0  0  0  0  0  0
  187.8430  177.3860  145.8220 N   0  0  0  0  0  0  0  0  0  0  0  0
  185.7710  177.9050  144.7430 C   0  0  0  0  0  3  0  0  0  0  0  0
  180.4910  177.0980  139.8700 C   0  0  0  0  0  0  0  0  0  0  0  0
  179.8790  175.9620  139.4500 F   0  0  0  0  0  0  0  0  0  0  0  0
  182.5000  178.3270  140.4910 C   0  0  0  0  0  0  0  0  0  0  0  0
  179.7210  178.2370  140.1120 C   0  0  0  0  0  3  0  0  0  0  0  0
  181.7130  179.4650  140.7190 C   0  0  0  0  0  3  0  0  0  0  0  0
  181.8830  177.1350  140.0500 C   0  0  0  0  0  0  0  0  0  0  0  0
  182.6930  175.9220  139.7280 C   0  0  0  0  0  1  0  0  0  0  0  0
  180.3310  179.4220  140.5270 C   0  0  0  0  0  0  0  0  0  0  0  0
  179.6420  180.9990  142.1400 O   0  0  0  0  0  1  0  0  0  0  0  0
  179.5040  180.6280  140.8020 C   0  0  0  0  0  2  0  0  0  0  0  0
  188.8840  176.7110  139.4760 N   0  0  0  0  0  2  0  0  0  0  0  0
  190.3060  176.7270  139.1840 C   0  0  0  0  0  2  0  0  0  0  0  0
  190.5140  176.9510  137.7020 C   0  0  0  0  0  1  0  0  0  0  0  0
  1  4  2  0  0  0  0
  1 14  1  0  0  0  0
  2  7  1  0  0  0  0
  3  1  1  0  0  0  0
  4  2  1  0  0  0  0
  5  2  1  0  0  0  0
  5 11  2  0  0  0  0
  7 15  1  0  0  0  0
  8 18  2  0  0  0  0
  9 15  2  0  0  0  0
  9  8  1  0  0  0  0
 10 12  1  6  0  0  0
 10 16  1  0  0  0  0
 10  4  1  0  0  0  0
 11  9  1  0  0  0  0
 13  7  2  0  0  0  0
 14 13  1  0  0  0  0
 15 19  1  0  0  0  0
 16 30  1  6  0  0  0
 16  5  1  0  0  0  0
 17 12  1  0  0  0  0
 17  3  2  0  0  0  0
 18  6  1  0  0  0  0
 19  6  2  0  0  0  0
 20 25  2  0  0  0  0
 20 23  1  0  0  0  0
 21 20  1  0  0  0  0
 22 14  1  0  0  0  0
 22 24  2  0  0  0  0
 23 27  2  0  0  0  0
 25 22  1  0  0  0  0
 26 25  1  0  0  0  0
 27 24  1  0  0  0  0
 27 29  1  0  0  0  0
 29 28  1  0  0  0  0
 31 30  1  0  0  0  0
 32 31  1  0  0  0  0
M  END
>  <MODEL>
8

>  <REMARK>
 VINA RESULT:      -8.8      3.183      6.655
  Name = 
  4 active torsions:
  status: ('A' for Active; 'I' for Inactive)
    1  A    between atoms: C_13  and  N_18
    2  A    between atoms: C_15  and  C_26
    3  A    between atoms: C_16  and  N_27
    4  A    between atoms: N_18  and  C_29
                            x       y       z     vdW  Elec       q    Type
                         _______ _______ _______ _____ _____    ______ ____

>  <TORSDO>
F 4

$$$$
=
 OpenBabel11052414383D

 32 37  0  0  1  0  0  0  0  0999 V2000
  185.2450  178.3180  139.2800 C   0  0  0  0  0  0  0  0  0  0  0  0
  186.7750  178.6030  141.0570 N   0  0  0  0  0  0  0  0  0  0  0  0
  185.0490  177.8780  137.8800 C   0  0  0  0  0  3  0  0  0  0  0  0
  186.4920  178.5390  139.6930 C   0  0  0  0  0  0  0  0  0  0  0  0
  188.1250  178.2590  141.2350 C   0  0  0  0  0  0  0  0  0  0  0  0
  186.0540  177.9110  145.8030 C   0  0  0  0  0  3  0  0  0  0  0  0
  185.7970  178.3860  142.0620 C   0  0  0  0  0  0  0  0  0  0  0  0
  188.2270  177.7560  144.8450 C   0  0  0  0  0  3  0  0  0  0  0  0
  187.7100  177.9810  143.5700 C   0  0  0  0  0  0  0  0  0  0  0  0
  187.7220  178.3530  138.8630 C   0  0  2  0  0  3  0  0  0  0  0  0
  188.5830  177.9510  142.4150 N   0  0  0  0  0  0  0  0  0  0  0  0
  187.4660  177.2750  137.7920 C   0  0  0  0  0  2  0  0  0  0  0  0
  184.5160  178.2570  141.6820 C   0  0  0  0  0  3  0  0  0  0  0  0
  184.1790  178.3140  140.2700 N   0  0  0  0  0  0  0  0  0  0  0  0
  186.3110  178.1700  143.4240 C   0  0  0  0  0  0  0  0  0  0  0  0
  188.8340  178.0390  139.9230 C   0  0  2  0  0  3  0  0  0  0  0  0
  186.0960  177.4340  137.1640 C   0  0  0  0  0  3  0  0  0  0  0  0
  187.3990  177.7320  145.9250 N   0  0  0  0  0  0  0  0  0  0  0  0
  185.4830  178.1310  144.5480 C   0  0  0  0  0  3  0  0  0  0  0  0
  180.7930  179.0770  138.8250 C   0  0  0  0  0  0  0  0  0  0  0  0
  180.1390  180.0640  138.1630 F   0  0  0  0  0  0  0  0  0  0  0  0
  182.8010  178.1940  139.8830 C   0  0  0  0  0  0  0  0  0  0  0  0
  180.1100  177.9010  139.1420 C   0  0  0  0  0  3  0  0  0  0  0  0
  182.0980  177.0240  140.2030 C   0  0  0  0  0  3  0  0  0  0  0  0
  182.1370  179.2360  139.1970 C   0  0  0  0  0  0  0  0  0  0  0  0
  182.8290  180.5260  138.8990 C   0  0  0  0  0  1  0  0  0  0  0  0
  180.7580  176.8790  139.8380 C   0  0  0  0  0  0  0  0  0  0  0  0
  179.0730  175.8660  141.1410 O   0  0  0  0  0  1  0  0  0  0  0  0
  180.0320  175.6200  140.1580 C   0  0  0  0  0  2  0  0  0  0  0  0
  189.2840  176.6560  139.8340 N   0  0  0  0  0  2  0  0  0  0  0  0
  190.7290  176.6860  139.6970 C   0  0  0  0  0  2  0  0  0  0  0  0
  191.1110  176.2740  138.2910 C   0  0  0  0  0  1  0  0  0  0  0  0
  1  4  2  0  0  0  0
  1 14  1  0  0  0  0
  2  5  1  0  0  0  0
  2  7  1  0  0  0  0
  3  1  1  0  0  0  0
  4  2  1  0  0  0  0
  5 11  2  0  0  0  0
  6 18  1  0  0  0  0
  7 15  1  0  0  0  0
  8 18  2  0  0  0  0
  9  8  1  0  0  0  0
 10 12  1  6  0  0  0
 10  4  1  0  0  0  0
 10 16  1  0  0  0  0
 11  9  1  0  0  0  0
 13  7  2  0  0  0  0
 14 13  1  0  0  0  0
 15  9  2  0  0  0  0
 15 19  1  0  0  0  0
 16 30  1  1  0  0  0
 16  5  1  0  0  0  0
 17 12  1  0  0  0  0
 17  3  2  0  0  0  0
 19  6  2  0  0  0  0
 20 23  2  0  0  0  0
 20 25  1  0  0  0  0
 21 20  1  0  0  0  0
 22 24  1  0  0  0  0
 22 14  1  0  0  0  0
 23 27  1  0  0  0  0
 25 22  2  0  0  0  0
 26 25  1  0  0  0  0
 27 29  1  0  0  0  0
 27 24  2  0  0  0  0
 29 28  1  0  0  0  0
 31 30  1  0  0  0  0
 32 31  1  0  0  0  0
M  END
>  <MODEL>
9

>  <REMARK>
 VINA RESULT:      -8.8      3.332      7.036
  Name = 
  4 active torsions:
  status: ('A' for Active; 'I' for Inactive)
    1  A    between atoms: C_13  and  N_18
    2  A    between atoms: C_15  and  C_26
    3  A    between atoms: C_16  and  N_27
    4  A    between atoms: N_18  and  C_29
                            x       y       z     vdW  Elec       q    Type
                         _______ _______ _______ _____ _____    ______ ____

>  <TORSDO>
F 4

$$$$
