=
 OpenBabel11052415133D

 55 58  0  0  1  0  0  0  0  0999 V2000
  184.8390  180.2180  143.9650 C   0  0  0  0  0  2  0  0  0  0  0  0
  185.5610  177.3780  143.6000 C   0  0  2  0  0  3  0  0  0  0  0  0
  185.2770  178.2770  142.3910 C   0  0  2  0  0  3  0  0  0  0  0  0
  185.2510  179.3590  145.1500 C   0  0  0  0  0  2  0  0  0  0  0  0
  185.5710  179.7520  142.7100 C   0  0  0  0  0  2  0  0  0  0  0  0
  184.8830  177.9010  144.8800 C   0  0  0  0  0  2  0  0  0  0  0  0
  187.0650  177.1620  143.7790 C   0  0  0  0  0  2  0  0  0  0  0  0
  187.5840  178.0440  144.7360 O   0  0  0  0  0  0  0  0  0  0  0  0
  188.7360  177.4300  145.2340 C   0  0  0  0  0  2  0  0  0  0  0  0
  189.9230  177.8410  144.4170 C   0  0  2  0  0  3  0  0  0  0  0  0
  189.7140  178.2680  142.8780 S   0  0  0  0  0  0  0  0  0  0  0  0
  191.2900  177.8520  145.0320 C   0  0  0  0  0  1  0  0  0  0  0  0
  192.2190  177.1240  141.8460 O   0  0  0  0  0  0  0  0  0  0  0  0
  190.7480  176.8410  141.7560 S   0  0  0  0  0  0  0  0  0  0  0  0
  190.4720  175.4910  142.3660 O   0  0  0  0  0  0  0  0  0  0  0  0
  190.1540  177.1940  136.7590 C   0  0  0  0  0  2  0  0  0  0  0  0
  190.1840  176.9080  140.0430 C   0  0  2  0  0  3  0  0  0  0  0  0
  190.7210  174.8290  137.5520 C   0  0  0  0  0  2  0  0  0  0  0  0
  192.4790  176.9970  139.3630 O   0  0  0  0  0  0  0  0  0  0  0  0
  191.3180  176.7790  139.0480 C   0  0  0  0  0  0  0  0  0  0  0  0
  189.3670  178.6970  138.4580 O   0  0  0  0  0  0  0  0  0  0  0  0
  192.0130  175.4090  136.9820 C   0  0  0  0  0  2  0  0  0  0  0  0
  188.9570  177.6900  137.5600 C   0  0  1  0  0  3  0  0  0  0  0  0
  191.0050  176.3130  137.6560 C   0  0  0  0  0  0  0  0  0  0  0  0
  187.9630  178.1960  140.3950 C   0  0  0  0  0  1  0  0  0  0  0  0
  189.3610  178.1940  139.7820 C   0  0  1  0  0  3  0  0  0  0  0  0
  187.8540  178.1600  136.6690 C   0  0  0  0  0  0  0  0  0  0  0  0
  187.2830  179.4500  136.8660 N   0  0  0  0  0  1  0  0  0  0  0  0
  187.5020  177.4800  135.6660 O   0  0  0  0  0  0  0  0  0  0  0  0
  183.8390  178.0680  141.9250 C   0  0  0  0  0  2  0  0  0  0  0  0
  183.4680  179.0470  140.9070 N   0  0  0  0  0  2  0  0  0  0  0  0
  182.8800  178.3880  139.7340 C   0  0  1  0  0  3  0  0  0  0  0  0
  181.4560  178.8870  139.3650 C   0  0  1  0  0  3  0  0  0  0  0  0
  181.2480  176.4040  139.8690 C   0  0  0  0  0  2  0  0  0  0  0  0
  179.6240  175.0570  138.5180 C   0  0  0  0  0  2  0  0  0  0  0  0
  180.4300  177.2870  137.6690 N   0  0  0  0  0  0  0  0  0  0  0  0
  179.4870  176.1750  137.4730 C   0  0  0  0  0  2  0  0  0  0  0  0
  180.9990  175.0670  139.1660 C   0  0  0  0  0  2  0  0  0  0  0  0
  180.6380  177.5880  139.1030 C   0  0  2  0  0  3  0  0  0  0  0  0
  179.8640  178.3700  137.0690 O   0  0  0  0  0  1  0  0  0  0  0  0
  180.3140  180.9960  139.8240 C   0  0  0  0  0  1  0  0  0  0  0  0
  180.8680  179.7780  140.4100 N   0  0  0  0  0  0  0  0  0  0  0  0
  179.8170  179.1550  141.2520 C   0  0  0  0  0  2  0  0  0  0  0  0
  179.9500  179.3170  142.7590 C   0  0  0  0  0  0  0  0  0  0  0  0
  178.9310  180.1520  143.4620 C   0  0  0  0  0  1  0  0  0  0  0  0
  180.8530  178.6670  143.4880 C   0  0  0  0  0  2  0  0  0  0  0  0
  183.8260  178.4120  138.5310 C   0  0  0  0  0  2  0  0  0  0  0  0
  184.3450  177.0230  138.1900 C   0  0  0  0  0  2  0  0  0  0  0  0
  184.1500  176.7870  136.7100 C   0  0  0  0  0  2  0  0  0  0  0  0
  183.3510  175.5100  136.4560 C   0  0  0  0  0  2  0  0  0  0  0  0
  184.3650  173.6950  137.6400 O   0  0  0  0  0  1  0  0  0  0  0  0
  184.2620  174.2880  136.3710 C   0  0  1  0  0  0  0  0  0  0  0  0
  183.6080  173.2980  135.4300 C   0  0  0  0  0  1  0  0  0  0  0  0
  185.5840  174.6850  135.8610 N   0  0  0  0  0  2  0  0  0  0  0  0
  186.6350  174.2830  136.7880 C   0  0  0  0  0  1  0  0  0  0  0  0
  1  4  1  0  0  0  0
  2  7  1  1  0  0  0
  2  6  1  0  0  0  0
  3 30  1  1  0  0  0
  3  5  1  0  0  0  0
  3  2  1  0  0  0  0
  5  1  1  0  0  0  0
  6  4  1  0  0  0  0
  7  8  1  0  0  0  0
  8  9  1  0  0  0  0
 10 12  1  6  0  0  0
 10  9  1  0  0  0  0
 11 10  1  0  0  0  0
 14 13  2  0  0  0  0
 14 15  2  0  0  0  0
 14 11  1  0  0  0  0
 16 23  1  0  0  0  0
 16 24  1  0  0  0  0
 17 14  1  1  0  0  0
 18 24  1  0  0  0  0
 20 19  2  0  0  0  0
 20 17  1  0  0  0  0
 21 26  1  0  0  0  0
 22 18  1  0  0  0  0
 22 24  1  0  0  0  0
 23 27  1  6  0  0  0
 23 21  1  0  0  0  0
 24 20  1  0  0  0  0
 26 17  1  0  0  0  0
 26 25  1  6  0  0  0
 27 28  1  0  0  0  0
 29 27  2  0  0  0  0
 31 30  1  0  0  0  0
 32 47  1  6  0  0  0
 32 31  1  0  0  0  0
 33 32  1  0  0  0  0
 33 42  1  1  0  0  0
 35 38  1  0  0  0  0
 36 39  1  0  0  0  0
 37 36  1  0  0  0  0
 37 35  1  0  0  0  0
 38 34  1  0  0  0  0
 39 33  1  6  0  0  0
 39 34  1  0  0  0  0
 40 36  1  0  0  0  0
 41 42  1  0  0  0  0
 42 43  1  0  0  0  0
 43 44  1  0  0  0  0
 44 45  1  0  0  0  0
 44 46  2  0  0  0  0
 48 47  1  0  0  0  0
 49 48  1  0  0  0  0
 50 49  1  0  0  0  0
 52 53  1  6  0  0  0
 52 50  1  0  0  0  0
 52 51  1  0  0  0  0
 54 52  1  0  0  0  0
 54 55  1  0  0  0  0
M  END
>  <MODEL>
1

>  <REMARK>
 VINA RESULT:      -6.0      0.000      0.000
  Name = 
  21 active torsions:
  status: ('A' for Active; 'I' for Inactive)
    1  A    between atoms: C_1  and  C_29
    2  A    between atoms: C_2  and  N_28
    3  A    between atoms: C_2  and  C_31
    4  A    between atoms: C_4  and  C_40
    5  A    between atoms: C_6  and  S_20
    6  A    between atoms: C_8  and  C_35
    7  A    between atoms: N_10  and  C_39
    8  A    between atoms: C_13  and  C_48
    9  A    between atoms: C_13  and  C_52
   10  A    between atoms: S_20  and  S_22
   11  A    between atoms: C_26  and  C_49
   12  A    between atoms: C_27  and  C_54
   13  A    between atoms: N_28  and  C_33
   14  A    between atoms: C_33  and  C_34
   15  A    between atoms: C_33  and  C_49
   16  A    between atoms: C_34  and  C_52
   17  A    between atoms: C_35  and  O_51
   18  A    between atoms: C_39  and  C_48
   19  A    between atoms: C_40  and  N_45
   20  A    between atoms: N_45  and  C_49
   21  A    between atoms: O_51  and  C_54
                            x       y       z     vdW  Elec       q    Type
                         _______ _______ _______ _____ _____    ______ ____

>  <TORSDO>
F 21

$$$$
=
 OpenBabel11052415133D

 55 58  0  0  1  0  0  0  0  0999 V2000
  188.3890  177.6950  135.2980 C   0  0  0  0  0  2  0  0  0  0  0  0
  187.0140  176.4540  137.5970 C   0  0  2  0  0  3  0  0  0  0  0  0
  187.2830  177.9630  137.5650 C   0  0  2  0  0  3  0  0  0  0  0  0
  188.0010  176.2250  135.2740 C   0  0  0  0  0  2  0  0  0  0  0  0
  187.3750  178.4840  136.1220 C   0  0  0  0  0  2  0  0  0  0  0  0
  187.9910  175.6740  136.6990 C   0  0  0  0  0  2  0  0  0  0  0  0
  185.5490  176.1540  137.2700 C   0  0  0  0  0  2  0  0  0  0  0  0
  184.7170  177.1860  137.7220 O   0  0  0  0  0  0  0  0  0  0  0  0
  183.6760  176.5600  138.4120 C   0  0  0  0  0  2  0  0  0  0  0  0
  182.6720  176.0230  137.4380 C   0  0  2  0  0  3  0  0  0  0  0  0
  182.1920  176.9470  136.2080 S   0  0  0  0  0  0  0  0  0  0  0  0
  182.1210  174.6410  137.6120 C   0  0  0  0  0  1  0  0  0  0  0  0
  179.5750  177.9410  135.3050 O   0  0  0  0  0  0  0  0  0  0  0  0
  180.1540  177.2860  136.5240 S   0  0  0  0  0  0  0  0  0  0  0  0
  179.4930  175.9470  136.7210 O   0  0  0  0  0  0  0  0  0  0  0  0
  180.3630  180.7290  140.2050 C   0  0  0  0  0  2  0  0  0  0  0  0
  179.9450  178.3350  137.9780 C   0  0  2  0  0  3  0  0  0  0  0  0
  178.9370  181.4570  138.2100 C   0  0  0  0  0  2  0  0  0  0  0  0
  181.5930  179.8130  137.0630 O   0  0  0  0  0  0  0  0  0  0  0  0
  180.6760  179.6550  137.8570 C   0  0  0  0  0  0  0  0  0  0  0  0
  180.8310  178.3790  140.3430 O   0  0  0  0  0  0  0  0  0  0  0  0
  180.2690  182.1880  138.0710 C   0  0  0  0  0  2  0  0  0  0  0  0
  179.8730  179.3610  140.6660 C   0  0  1  0  0  3  0  0  0  0  0  0
  180.2180  180.8120  138.6960 C   0  0  0  0  0  0  0  0  0  0  0  0
  179.3880  176.5050  139.7260 C   0  0  0  0  0  1  0  0  0  0  0  0
  180.3640  177.5850  139.2670 C   0  0  1  0  0  3  0  0  0  0  0  0
  179.5450  179.3550  142.1220 C   0  0  0  0  0  0  0  0  0  0  0  0
  179.7450  180.5300  142.9010 N   0  0  0  0  0  1  0  0  0  0  0  0
  178.9770  178.3590  142.6510 O   0  0  0  0  0  0  0  0  0  0  0  0
  188.5440  178.2730  138.3680 C   0  0  0  0  0  2  0  0  0  0  0  0
  188.2120  178.6770  139.7320 N   0  0  0  0  0  2  0  0  0  0  0  0
  189.0790  178.0010  140.7050 C   0  0  1  0  0  3  0  0  0  0  0  0
  188.3290  177.4110  141.9300 C   0  0  1  0  0  3  0  0  0  0  0  0
  189.9600  178.8460  143.2520 C   0  0  0  0  0  2  0  0  0  0  0  0
  191.5550  177.6960  144.8050 C   0  0  0  0  0  2  0  0  0  0  0  0
  190.4270  176.3990  142.9630 N   0  0  0  0  0  0  0  0  0  0  0  0
  191.2660  176.3270  144.1690 C   0  0  0  0  0  2  0  0  0  0  0  0
  191.3900  178.8210  143.7960 C   0  0  0  0  0  2  0  0  0  0  0  0
  189.3760  177.4340  143.0840 C   0  0  2  0  0  3  0  0  0  0  0  0
  189.8330  175.1800  142.8460 O   0  0  0  0  0  1  0  0  0  0  0  0
  186.2020  178.2400  141.0640 C   0  0  0  0  0  1  0  0  0  0  0  0
  187.0640  178.1420  142.2400 N   0  0  0  0  0  0  0  0  0  0  0  0
  186.2620  177.5720  143.3500 C   0  0  0  0  0  2  0  0  0  0  0  0
  185.6390  178.5560  144.3300 C   0  0  0  0  0  0  0  0  0  0  0  0
  186.1630  178.5710  145.7290 C   0  0  0  0  0  1  0  0  0  0  0  0
  184.7400  179.4710  143.9770 C   0  0  0  0  0  2  0  0  0  0  0  0
  189.9900  176.9670  140.0380 C   0  0  0  0  0  2  0  0  0  0  0  0
  191.4610  177.3310  140.1810 C   0  0  0  0  0  2  0  0  0  0  0  0
  192.1950  176.8600  138.9470 C   0  0  0  0  0  2  0  0  0  0  0  0
  191.3040  175.9720  138.0800 C   0  0  0  0  0  2  0  0  0  0  0  0
  191.4900  175.8460  135.6970 O   0  0  0  0  0  1  0  0  0  0  0  0
  192.0740  175.3970  136.8930 C   0  0  1  0  0  0  0  0  0  0  0  0
  193.4890  175.9310  136.9670 C   0  0  0  0  0  1  0  0  0  0  0  0
  192.0750  173.9270  136.9640 N   0  0  0  0  0  2  0  0  0  0  0  0
  191.0010  173.3720  136.1510 C   0  0  0  0  0  1  0  0  0  0  0  0
  1  5  1  0  0  0  0
  2  7  1  6  0  0  0
  3  2  1  0  0  0  0
  3 30  1  6  0  0  0
  4  1  1  0  0  0  0
  4  6  1  0  0  0  0
  5  3  1  0  0  0  0
  6  2  1  0  0  0  0
  7  8  1  0  0  0  0
  8  9  1  0  0  0  0
 10 12  1  1  0  0  0
 10  9  1  0  0  0  0
 11 14  1  0  0  0  0
 11 10  1  0  0  0  0
 13 14  2  0  0  0  0
 14 15  2  0  0  0  0
 16 23  1  0  0  0  0
 17 14  1  6  0  0  0
 17 26  1  0  0  0  0
 18 24  1  0  0  0  0
 19 20  2  0  0  0  0
 20 17  1  0  0  0  0
 20 24  1  0  0  0  0
 21 23  1  0  0  0  0
 22 18  1  0  0  0  0
 22 24  1  0  0  0  0
 23 27  1  1  0  0  0
 24 16  1  0  0  0  0
 26 25  1  1  0  0  0
 26 21  1  0  0  0  0
 27 29  2  0  0  0  0
 27 28  1  0  0  0  0
 30 31  1  0  0  0  0
 31 32  1  0  0  0  0
 32 47  1  6  0  0  0
 32 33  1  0  0  0  0
 33 42  1  1  0  0  0
 34 38  1  0  0  0  0
 36 39  1  0  0  0  0
 36 37  1  0  0  0  0
 37 35  1  0  0  0  0
 38 35  1  0  0  0  0
 39 33  1  6  0  0  0
 39 34  1  0  0  0  0
 40 36  1  0  0  0  0
 41 42  1  0  0  0  0
 42 43  1  0  0  0  0
 43 44  1  0  0  0  0
 44 45  1  0  0  0  0
 46 44  2  0  0  0  0
 47 48  1  0  0  0  0
 49 48  1  0  0  0  0
 50 49  1  0  0  0  0
 51 52  1  0  0  0  0
 52 54  1  0  0  0  0
 52 53  1  1  0  0  0
 52 50  1  0  0  0  0
 55 54  1  0  0  0  0
M  END
>  <MODEL>
2

>  <REMARK>
 VINA RESULT:      -5.9      3.119      9.510
  Name = 
  21 active torsions:
  status: ('A' for Active; 'I' for Inactive)
    1  A    between atoms: C_1  and  C_29
    2  A    between atoms: C_2  and  N_28
    3  A    between atoms: C_2  and  C_31
    4  A    between atoms: C_4  and  C_40
    5  A    between atoms: C_6  and  S_20
    6  A    between atoms: C_8  and  C_35
    7  A    between atoms: N_10  and  C_39
    8  A    between atoms: C_13  and  C_48
    9  A    between atoms: C_13  and  C_52
   10  A    between atoms: S_20  and  S_22
   11  A    between atoms: C_26  and  C_49
   12  A    between atoms: C_27  and  C_54
   13  A    between atoms: N_28  and  C_33
   14  A    between atoms: C_33  and  C_34
   15  A    between atoms: C_33  and  C_49
   16  A    between atoms: C_34  and  C_52
   17  A    between atoms: C_35  and  O_51
   18  A    between atoms: C_39  and  C_48
   19  A    between atoms: C_40  and  N_45
   20  A    between atoms: N_45  and  C_49
   21  A    between atoms: O_51  and  C_54
                            x       y       z     vdW  Elec       q    Type
                         _______ _______ _______ _____ _____    ______ ____

>  <TORSDO>
F 21

$$$$
=
 OpenBabel11052415133D

 55 58  0  0  1  0  0  0  0  0999 V2000
  186.6450  178.2520  144.4920 C   0  0  0  0  0  2  0  0  0  0  0  0
  185.0840  178.9440  142.0830 C   0  0  2  0  0  3  0  0  0  0  0  0
  186.4570  178.2720  141.9620 C   0  0  2  0  0  3  0  0  0  0  0  0
  185.2290  178.7960  144.6090 C   0  0  0  0  0  2  0  0  0  0  0  0
  186.7800  177.4350  143.2110 C   0  0  0  0  0  2  0  0  0  0  0  0
  184.9280  179.7000  143.4150 C   0  0  0  0  0  2  0  0  0  0  0  0
  183.9580  177.9360  141.8440 C   0  0  0  0  0  2  0  0  0  0  0  0
  182.8660  178.5500  141.2180 O   0  0  0  0  0  0  0  0  0  0  0  0
  182.9650  178.2130  139.8660 C   0  0  0  0  0  2  0  0  0  0  0  0
  181.8530  177.2800  139.4920 C   0  0  2  0  0  3  0  0  0  0  0  0
  182.1810  175.7250  139.2310 S   0  0  0  0  0  0  0  0  0  0  0  0
  180.4520  177.7960  139.3630 C   0  0  0  0  0  1  0  0  0  0  0  0
  180.2670  175.1240  137.0790 O   0  0  0  0  0  0  0  0  0  0  0  0
  181.7370  175.3910  137.2160 S   0  0  0  0  0  0  0  0  0  0  0  0
  182.0780  176.6470  136.4580 O   0  0  0  0  0  0  0  0  0  0  0  0
  183.8090  170.9210  136.1320 C   0  0  0  0  0  2  0  0  0  0  0  0
  182.7030  173.9880  136.6190 C   0  0  2  0  0  3  0  0  0  0  0  0
  181.8500  171.5330  134.6040 C   0  0  0  0  0  2  0  0  0  0  0  0
  181.1300  172.5370  137.6940 O   0  0  0  0  0  0  0  0  0  0  0  0
  182.0170  172.6600  136.8620 C   0  0  0  0  0  0  0  0  0  0  0  0
  184.7690  172.7420  137.3660 O   0  0  0  0  0  0  0  0  0  0  0  0
  181.3060  170.5250  135.6120 C   0  0  0  0  0  2  0  0  0  0  0  0
  184.7990  172.0800  136.1220 C   0  0  1  0  0  3  0  0  0  0  0  0
  182.4040  171.4840  136.0130 C   0  0  0  0  0  0  0  0  0  0  0  0
  185.0590  175.0660  136.6640 C   0  0  0  0  0  1  0  0  0  0  0  0
  184.1270  173.9970  137.2290 C   0  0  1  0  0  3  0  0  0  0  0  0
  186.1770  171.6240  135.7720 C   0  0  0  0  0  0  0  0  0  0  0  0
  186.3860  170.3020  135.2840 N   0  0  0  0  0  1  0  0  0  0  0  0
  187.1460  172.4320  135.7860 O   0  0  0  0  0  0  0  0  0  0  0  0
  187.5220  179.3300  141.6900 C   0  0  0  0  0  2  0  0  0  0  0  0
  188.8030  178.7120  141.3540 N   0  0  0  0  0  2  0  0  0  0  0  0
  188.6110  177.5470  140.4810 C   0  0  1  0  0  3  0  0  0  0  0  0
  189.0230  177.7800  139.0020 C   0  0  1  0  0  3  0  0  0  0  0  0
  191.4550  177.2550  138.4730 C   0  0  0  0  0  2  0  0  0  0  0  0
  192.0290  174.9250  137.7510 C   0  0  0  0  0  2  0  0  0  0  0  0
  189.6510  175.7430  137.6060 N   0  0  0  0  0  0  0  0  0  0  0  0
  190.5530  174.5860  137.4940 C   0  0  0  0  0  2  0  0  0  0  0  0
  192.3060  176.4030  137.5280 C   0  0  0  0  0  2  0  0  0  0  0  0
  190.0580  176.6550  138.6980 C   0  0  2  0  0  3  0  0  0  0  0  0
  188.4220  175.2340  137.8910 O   0  0  0  0  0  1  0  0  0  0  0  0
  186.6310  178.2050  138.7620 C   0  0  0  0  0  1  0  0  0  0  0  0
  187.8540  177.8000  138.0730 N   0  0  0  0  0  0  0  0  0  0  0  0
  188.0140  178.6630  136.8770 C   0  0  0  0  0  2  0  0  0  0  0  0
  187.9610  177.9800  135.5180 C   0  0  0  0  0  0  0  0  0  0  0  0
  186.6340  177.8820  134.8390 C   0  0  0  0  0  1  0  0  0  0  0  0
  189.0430  177.5720  134.8610 C   0  0  0  0  0  2  0  0  0  0  0  0
  189.2510  176.2840  141.0630 C   0  0  0  0  0  2  0  0  0  0  0  0
  190.4940  176.6030  141.8800 C   0  0  0  0  0  2  0  0  0  0  0  0
  190.3800  175.9110  143.2190 C   0  0  0  0  0  2  0  0  0  0  0  0
  189.9450  176.8880  144.3100 C   0  0  0  0  0  2  0  0  0  0  0  0
  191.7840  178.1190  145.2220 O   0  0  0  0  0  1  0  0  0  0  0  0
  190.9850  176.9810  145.4240 C   0  0  1  0  0  0  0  0  0  0  0  0
  190.2380  177.1440  146.7310 C   0  0  0  0  0  1  0  0  0  0  0  0
  191.8010  175.7560  145.4480 N   0  0  0  0  0  2  0  0  0  0  0  0
  192.3400  175.5250  146.7830 C   0  0  0  0  0  1  0  0  0  0  0  0
  1  4  1  0  0  0  0
  2  7  1  1  0  0  0
  2  6  1  0  0  0  0
  3 30  1  1  0  0  0
  3  2  1  0  0  0  0
  3  5  1  0  0  0  0
  5  1  1  0  0  0  0
  6  4  1  0  0  0  0
  8  7  1  0  0  0  0
  9  8  1  0  0  0  0
 10 12  1  6  0  0  0
 10  9  1  0  0  0  0
 11 10  1  0  0  0  0
 13 14  2  0  0  0  0
 14 11  1  0  0  0  0
 15 14  2  0  0  0  0
 17 20  1  0  0  0  0
 17 14  1  1  0  0  0
 17 26  1  0  0  0  0
 18 22  1  0  0  0  0
 18 24  1  0  0  0  0
 20 19  2  0  0  0  0
 22 24  1  0  0  0  0
 23 27  1  1  0  0  0
 23 16  1  0  0  0  0
 23 21  1  0  0  0  0
 24 16  1  0  0  0  0
 24 20  1  0  0  0  0
 26 25  1  6  0  0  0
 26 21  1  0  0  0  0
 27 29  2  0  0  0  0
 28 27  1  0  0  0  0
 31 30  1  0  0  0  0
 32 47  1  1  0  0  0
 32 31  1  0  0  0  0
 33 42  1  6  0  0  0
 33 32  1  0  0  0  0
 34 39  1  0  0  0  0
 36 40  1  0  0  0  0
 36 39  1  0  0  0  0
 37 36  1  0  0  0  0
 37 35  1  0  0  0  0
 38 35  1  0  0  0  0
 38 34  1  0  0  0  0
 39 33  1  6  0  0  0
 42 41  1  0  0  0  0
 43 42  1  0  0  0  0
 44 43  1  0  0  0  0
 45 44  1  0  0  0  0
 46 44  2  0  0  0  0
 47 48  1  0  0  0  0
 48 49  1  0  0  0  0
 49 50  1  0  0  0  0
 50 52  1  0  0  0  0
 51 52  1  0  0  0  0
 52 54  1  0  0  0  0
 52 53  1  1  0  0  0
 54 55  1  0  0  0  0
M  END
>  <MODEL>
3

>  <REMARK>
 VINA RESULT:      -5.8      3.207      8.995
  Name = 
  21 active torsions:
  status: ('A' for Active; 'I' for Inactive)
    1  A    between atoms: C_1  and  C_29
    2  A    between atoms: C_2  and  N_28
    3  A    between atoms: C_2  and  C_31
    4  A    between atoms: C_4  and  C_40
    5  A    between atoms: C_6  and  S_20
    6  A    between atoms: C_8  and  C_35
    7  A    between atoms: N_10  and  C_39
    8  A    between atoms: C_13  and  C_48
    9  A    between atoms: C_13  and  C_52
   10  A    between atoms: S_20  and  S_22
   11  A    between atoms: C_26  and  C_49
   12  A    between atoms: C_27  and  C_54
   13  A    between atoms: N_28  and  C_33
   14  A    between atoms: C_33  and  C_34
   15  A    between atoms: C_33  and  C_49
   16  A    between atoms: C_34  and  C_52
   17  A    between atoms: C_35  and  O_51
   18  A    between atoms: C_39  and  C_48
   19  A    between atoms: C_40  and  N_45
   20  A    between atoms: N_45  and  C_49
   21  A    between atoms: O_51  and  C_54
                            x       y       z     vdW  Elec       q    Type
                         _______ _______ _______ _____ _____    ______ ____

>  <TORSDO>
F 21

$$$$
=
 OpenBabel11052415133D

 55 58  0  0  1  0  0  0  0  0999 V2000
  186.3350  178.1480  144.7740 C   0  0  0  0  0  2  0  0  0  0  0  0
  185.0020  178.9720  142.2710 C   0  0  2  0  0  3  0  0  0  0  0  0
  186.1980  178.0130  142.2440 C   0  0  2  0  0  3  0  0  0  0  0  0
  185.0690  178.9890  144.8050 C   0  0  0  0  0  2  0  0  0  0  0  0
  186.3120  177.2250  143.5590 C   0  0  0  0  0  2  0  0  0  0  0  0
  184.9900  179.8440  143.5400 C   0  0  0  0  0  2  0  0  0  0  0  0
  183.6890  178.2130  142.0680 C   0  0  0  0  0  2  0  0  0  0  0  0
  182.9680  178.7480  140.9920 O   0  0  0  0  0  0  0  0  0  0  0  0
  181.6200  178.5430  141.3000 C   0  0  0  0  0  2  0  0  0  0  0  0
  180.8730  178.1420  140.0640 C   0  0  2  0  0  3  0  0  0  0  0  0
  180.8710  176.5970  139.6080 S   0  0  0  0  0  0  0  0  0  0  0  0
  180.1390  179.1740  139.2620 C   0  0  0  0  0  1  0  0  0  0  0  0
  181.0790  177.3780  136.7800 O   0  0  0  0  0  0  0  0  0  0  0  0
  181.8560  176.5560  137.7660 S   0  0  0  0  0  0  0  0  0  0  0  0
  183.2140  177.1790  137.9580 O   0  0  0  0  0  0  0  0  0  0  0  0
  182.9200  172.1590  135.5340 C   0  0  0  0  0  2  0  0  0  0  0  0
  181.9980  174.8460  137.2060 C   0  0  2  0  0  3  0  0  0  0  0  0
  184.5100  172.7370  137.4540 C   0  0  0  0  0  2  0  0  0  0  0  0
  183.8040  175.5320  135.7910 O   0  0  0  0  0  0  0  0  0  0  0  0
  183.2220  174.6110  136.3460 C   0  0  0  0  0  0  0  0  0  0  0  0
  180.8570  173.3840  135.4920 O   0  0  0  0  0  0  0  0  0  0  0  0
  185.2640  173.0540  136.1650 C   0  0  0  0  0  2  0  0  0  0  0  0
  181.4910  172.2580  136.0540 C   0  0  1  0  0  3  0  0  0  0  0  0
  183.7620  173.2150  136.2270 C   0  0  0  0  0  0  0  0  0  0  0  0
  179.5080  174.1510  137.3810 C   0  0  0  0  0  1  0  0  0  0  0  0
  180.7100  174.3950  136.4730 C   0  0  1  0  0  3  0  0  0  0  0  0
  180.7220  171.0040  135.7960 C   0  0  0  0  0  0  0  0  0  0  0  0
  181.0870  170.1570  134.7110 N   0  0  0  0  0  1  0  0  0  0  0  0
  179.8280  170.6190  136.6000 O   0  0  0  0  0  0  0  0  0  0  0  0
  187.4720  178.7940  141.9330 C   0  0  0  0  0  2  0  0  0  0  0  0
  188.0050  178.4300  140.6220 N   0  0  0  0  0  2  0  0  0  0  0  0
  188.8720  177.2490  140.7180 C   0  0  1  0  0  3  0  0  0  0  0  0
  189.3090  176.6620  139.3480 C   0  0  1  0  0  3  0  0  0  0  0  0
  187.5840  175.9760  137.6100 C   0  0  0  0  0  2  0  0  0  0  0  0
  186.5490  177.7710  136.2010 C   0  0  0  0  0  2  0  0  0  0  0  0
  188.7180  178.2040  137.4080 N   0  0  0  0  0  0  0  0  0  0  0  0
  187.6220  178.7880  136.6200 C   0  0  0  0  0  2  0  0  0  0  0  0
  187.0960  176.3530  136.2090 C   0  0  0  0  0  2  0  0  0  0  0  0
  188.2310  177.1630  138.3410 C   0  0  2  0  0  3  0  0  0  0  0  0
  189.2490  179.2280  138.1290 O   0  0  0  0  0  1  0  0  0  0  0  0
  191.4340  177.5800  140.1240 C   0  0  0  0  0  1  0  0  0  0  0  0
  190.7080  177.0340  138.9800 N   0  0  0  0  0  0  0  0  0  0  0  0
  191.5210  175.9370  138.4020 C   0  0  0  0  0  2  0  0  0  0  0  0
  191.0060  175.2930  137.1230 C   0  0  0  0  0  0  0  0  0  0  0  0
  191.0350  176.1090  135.8720 C   0  0  0  0  0  1  0  0  0  0  0  0
  190.6420  174.0160  137.0410 C   0  0  0  0  0  2  0  0  0  0  0  0
  190.0660  177.4900  141.6460 C   0  0  0  0  0  2  0  0  0  0  0  0
  189.9160  176.7500  142.9670 C   0  0  0  0  0  2  0  0  0  0  0  0
  191.0660  177.1370  143.8680 C   0  0  0  0  0  2  0  0  0  0  0  0
  191.3010  176.0820  144.9470 C   0  0  0  0  0  2  0  0  0  0  0  0
  191.7780  177.7910  146.5530 O   0  0  0  0  0  1  0  0  0  0  0  0
  191.0120  176.6330  146.3410 C   0  0  1  0  0  0  0  0  0  0  0  0
  189.5470  177.0130  146.3850 C   0  0  0  0  0  1  0  0  0  0  0  0
  191.3070  175.6080  147.3540 N   0  0  0  0  0  2  0  0  0  0  0  0
  192.7130  175.6520  147.7370 C   0  0  0  0  0  1  0  0  0  0  0  0
  1  4  1  0  0  0  0
  2  7  1  1  0  0  0
  2  6  1  0  0  0  0
  3 30  1  1  0  0  0
  3  2  1  0  0  0  0
  3  5  1  0  0  0  0
  5  1  1  0  0  0  0
  6  4  1  0  0  0  0
  8  9  1  0  0  0  0
  8  7  1  0  0  0  0
 10 12  1  6  0  0  0
 10  9  1  0  0  0  0
 11 10  1  0  0  0  0
 13 14  2  0  0  0  0
 14 15  2  0  0  0  0
 14 11  1  0  0  0  0
 16 23  1  0  0  0  0
 16 24  1  0  0  0  0
 17 14  1  6  0  0  0
 19 20  2  0  0  0  0
 20 17  1  0  0  0  0
 21 23  1  0  0  0  0
 21 26  1  0  0  0  0
 22 24  1  0  0  0  0
 22 18  1  0  0  0  0
 23 27  1  6  0  0  0
 24 20  1  0  0  0  0
 24 18  1  0  0  0  0
 26 17  1  0  0  0  0
 26 25  1  1  0  0  0
 27 29  2  0  0  0  0
 28 27  1  0  0  0  0
 31 32  1  0  0  0  0
 31 30  1  0  0  0  0
 32 47  1  1  0  0  0
 33 42  1  6  0  0  0
 33 32  1  0  0  0  0
 34 39  1  0  0  0  0
 35 38  1  0  0  0  0
 35 37  1  0  0  0  0
 36 40  1  0  0  0  0
 36 39  1  0  0  0  0
 37 36  1  0  0  0  0
 38 34  1  0  0  0  0
 39 33  1  6  0  0  0
 42 41  1  0  0  0  0
 43 42  1  0  0  0  0
 44 43  1  0  0  0  0
 45 44  1  0  0  0  0
 46 44  2  0  0  0  0
 47 48  1  0  0  0  0
 48 49  1  0  0  0  0
 49 50  1  0  0  0  0
 50 52  1  0  0  0  0
 52 53  1  1  0  0  0
 52 51  1  0  0  0  0
 52 54  1  0  0  0  0
 54 55  1  0  0  0  0
M  END
>  <MODEL>
4

>  <REMARK>
 VINA RESULT:      -5.5      3.321      9.244
  Name = 
  21 active torsions:
  status: ('A' for Active; 'I' for Inactive)
    1  A    between atoms: C_1  and  C_29
    2  A    between atoms: C_2  and  N_28
    3  A    between atoms: C_2  and  C_31
    4  A    between atoms: C_4  and  C_40
    5  A    between atoms: C_6  and  S_20
    6  A    between atoms: C_8  and  C_35
    7  A    between atoms: N_10  and  C_39
    8  A    between atoms: C_13  and  C_48
    9  A    between atoms: C_13  and  C_52
   10  A    between atoms: S_20  and  S_22
   11  A    between atoms: C_26  and  C_49
   12  A    between atoms: C_27  and  C_54
   13  A    between atoms: N_28  and  C_33
   14  A    between atoms: C_33  and  C_34
   15  A    between atoms: C_33  and  C_49
   16  A    between atoms: C_34  and  C_52
   17  A    between atoms: C_35  and  O_51
   18  A    between atoms: C_39  and  C_48
   19  A    between atoms: C_40  and  N_45
   20  A    between atoms: N_45  and  C_49
   21  A    between atoms: O_51  and  C_54
                            x       y       z     vdW  Elec       q    Type
                         _______ _______ _______ _____ _____    ______ ____

>  <TORSDO>
F 21

$$$$
=
 OpenBabel11052415133D

 55 58  0  0  1  0  0  0  0  0999 V2000
  189.3080  176.9440  135.5190 C   0  0  0  0  0  2  0  0  0  0  0  0
  187.0830  177.2900  137.4300 C   0  0  2  0  0  3  0  0  0  0  0  0
  188.0370  178.4490  137.1180 C   0  0  2  0  0  3  0  0  0  0  0  0
  188.2820  175.8420  135.7290 C   0  0  0  0  0  2  0  0  0  0  0  0
  188.6500  178.3070  135.7150 C   0  0  0  0  0  2  0  0  0  0  0  0
  187.7290  175.9200  137.1520 C   0  0  0  0  0  2  0  0  0  0  0  0
  185.7500  177.4680  136.7000 C   0  0  0  0  0  2  0  0  0  0  0  0
  184.8100  176.5300  137.1460 O   0  0  0  0  0  0  0  0  0  0  0  0
  184.1750  176.0540  135.9960 C   0  0  0  0  0  2  0  0  0  0  0  0
  183.0910  175.0910  136.3770 C   0  0  2  0  0  3  0  0  0  0  0  0
  181.6220  175.2610  135.7370 S   0  0  0  0  0  0  0  0  0  0  0  0
  183.3770  173.9840  137.3450 C   0  0  0  0  0  1  0  0  0  0  0  0
  178.9350  175.5680  136.8920 O   0  0  0  0  0  0  0  0  0  0  0  0
  180.3600  175.6990  137.3440 S   0  0  0  0  0  0  0  0  0  0  0  0
  180.6250  174.6840  138.4250 O   0  0  0  0  0  0  0  0  0  0  0  0
  180.6360  180.1500  139.7010 C   0  0  0  0  0  2  0  0  0  0  0  0
  180.6980  177.3740  137.9260 C   0  0  2  0  0  3  0  0  0  0  0  0
  182.2510  178.4010  140.6370 C   0  0  0  0  0  2  0  0  0  0  0  0
  179.3880  176.8880  139.8710 O   0  0  0  0  0  0  0  0  0  0  0  0
  180.2270  177.6060  139.3450 C   0  0  0  0  0  0  0  0  0  0  0  0
  179.7390  179.6760  137.5260 O   0  0  0  0  0  0  0  0  0  0  0  0
  181.0830  178.4680  141.6150 C   0  0  0  0  0  2  0  0  0  0  0  0
  180.8470  180.2350  138.1950 C   0  0  1  0  0  3  0  0  0  0  0  0
  180.8550  178.7140  140.1410 C   0  0  0  0  0  0  0  0  0  0  0  0
  180.8390  178.5810  135.6370 C   0  0  0  0  0  1  0  0  0  0  0  0
  180.0970  178.4270  136.9620 C   0  0  1  0  0  3  0  0  0  0  0  0
  181.1090  181.6370  137.7530 C   0  0  0  0  0  0  0  0  0  0  0  0
  182.1960  182.3670  138.3130 N   0  0  0  0  0  1  0  0  0  0  0  0
  180.4550  182.1460  136.8010 O   0  0  0  0  0  0  0  0  0  0  0  0
  189.1060  178.5360  138.2040 C   0  0  0  0  0  2  0  0  0  0  0  0
  188.5460  179.0420  139.4550 N   0  0  0  0  0  2  0  0  0  0  0  0
  188.8580  178.1410  140.5710 C   0  0  1  0  0  3  0  0  0  0  0  0
  190.3310  178.2090  141.0570 C   0  0  1  0  0  3  0  0  0  0  0  0
  189.2800  176.4900  142.6080 C   0  0  0  0  0  2  0  0  0  0  0  0
  189.7300  176.6840  145.0650 C   0  0  0  0  0  2  0  0  0  0  0  0
  190.0950  178.6660  143.5530 N   0  0  0  0  0  0  0  0  0  0  0  0
  190.2720  178.1130  144.9040 C   0  0  0  0  0  2  0  0  0  0  0  0
  188.6820  176.3670  144.0120 C   0  0  0  0  0  2  0  0  0  0  0  0
  190.2960  177.6380  142.5060 C   0  0  2  0  0  3  0  0  0  0  0  0
  191.0460  179.6290  143.4130 O   0  0  0  0  0  1  0  0  0  0  0  0
  192.4330  176.9800  140.8680 C   0  0  0  0  0  1  0  0  0  0  0  0
  191.2740  177.4970  140.1440 N   0  0  0  0  0  0  0  0  0  0  0  0
  190.6790  176.3780  139.3720 C   0  0  0  0  0  2  0  0  0  0  0  0
  191.4740  175.8570  138.1830 C   0  0  0  0  0  0  0  0  0  0  0  0
  191.1710  174.4790  137.6940 C   0  0  0  0  0  1  0  0  0  0  0  0
  192.3340  176.6030  137.4950 C   0  0  0  0  0  2  0  0  0  0  0  0
  187.8650  178.2960  141.7260 C   0  0  0  0  0  2  0  0  0  0  0  0
  186.4600  178.6040  141.2290 C   0  0  0  0  0  2  0  0  0  0  0  0
  185.4780  178.2740  142.3300 C   0  0  0  0  0  2  0  0  0  0  0  0
  185.4320  179.3830  143.3800 C   0  0  0  0  0  2  0  0  0  0  0  0
  184.9940  179.8780  145.6790 O   0  0  0  0  0  1  0  0  0  0  0  0
  184.8660  178.8760  144.7040 C   0  0  1  0  0  0  0  0  0  0  0  0
  183.3920  178.5990  144.4920 C   0  0  0  0  0  1  0  0  0  0  0  0
  185.5660  177.6470  145.1090 N   0  0  0  0  0  2  0  0  0  0  0  0
  186.4110  177.8960  146.2700 C   0  0  0  0  0  1  0  0  0  0  0  0
  1  5  1  0  0  0  0
  1  4  1  0  0  0  0
  2  7  1  6  0  0  0
  3  2  1  0  0  0  0
  3 30  1  1  0  0  0
  4  6  1  0  0  0  0
  5  3  1  0  0  0  0
  6  2  1  0  0  0  0
  7  8  1  0  0  0  0
  9 10  1  0  0  0  0
  9  8  1  0  0  0  0
 10 12  1  1  0  0  0
 11 10  1  0  0  0  0
 11 14  1  0  0  0  0
 13 14  2  0  0  0  0
 14 15  2  0  0  0  0
 16 24  1  0  0  0  0
 17 14  1  6  0  0  0
 17 20  1  0  0  0  0
 18 22  1  0  0  0  0
 20 19  2  0  0  0  0
 20 24  1  0  0  0  0
 21 23  1  0  0  0  0
 23 27  1  6  0  0  0
 23 16  1  0  0  0  0
 24 18  1  0  0  0  0
 24 22  1  0  0  0  0
 26 25  1  6  0  0  0
 26 21  1  0  0  0  0
 26 17  1  0  0  0  0
 27 28  1  0  0  0  0
 29 27  2  0  0  0  0
 30 31  1  0  0  0  0
 31 32  1  0  0  0  0
 32 33  1  0  0  0  0
 32 47  1  1  0  0  0
 33 42  1  6  0  0  0
 34 38  1  0  0  0  0
 36 37  1  0  0  0  0
 37 35  1  0  0  0  0
 38 35  1  0  0  0  0
 39 33  1  6  0  0  0
 39 34  1  0  0  0  0
 39 36  1  0  0  0  0
 40 36  1  0  0  0  0
 42 41  1  0  0  0  0
 43 42  1  0  0  0  0
 44 43  1  0  0  0  0
 45 44  1  0  0  0  0
 46 44  2  0  0  0  0
 48 47  1  0  0  0  0
 48 49  1  0  0  0  0
 49 50  1  0  0  0  0
 50 52  1  0  0  0  0
 52 53  1  6  0  0  0
 52 54  1  0  0  0  0
 52 51  1  0  0  0  0
 54 55  1  0  0  0  0
M  END
>  <MODEL>
5

>  <REMARK>
 VINA RESULT:      -5.1      3.195     10.009
  Name = 
  21 active torsions:
  status: ('A' for Active; 'I' for Inactive)
    1  A    between atoms: C_1  and  C_29
    2  A    between atoms: C_2  and  N_28
    3  A    between atoms: C_2  and  C_31
    4  A    between atoms: C_4  and  C_40
    5  A    between atoms: C_6  and  S_20
    6  A    between atoms: C_8  and  C_35
    7  A    between atoms: N_10  and  C_39
    8  A    between atoms: C_13  and  C_48
    9  A    between atoms: C_13  and  C_52
   10  A    between atoms: S_20  and  S_22
   11  A    between atoms: C_26  and  C_49
   12  A    between atoms: C_27  and  C_54
   13  A    between atoms: N_28  and  C_33
   14  A    between atoms: C_33  and  C_34
   15  A    between atoms: C_33  and  C_49
   16  A    between atoms: C_34  and  C_52
   17  A    between atoms: C_35  and  O_51
   18  A    between atoms: C_39  and  C_48
   19  A    between atoms: C_40  and  N_45
   20  A    between atoms: N_45  and  C_49
   21  A    between atoms: O_51  and  C_54
                            x       y       z     vdW  Elec       q    Type
                         _______ _______ _______ _____ _____    ______ ____

>  <TORSDO>
F 21

$$$$
=
 OpenBabel11052415133D

 55 58  0  0  1  0  0  0  0  0999 V2000
  191.3620  176.5590  143.6330 C   0  0  0  0  0  2  0  0  0  0  0  0
  189.0290  177.9930  142.5280 C   0  0  2  0  0  3  0  0  0  0  0  0
  189.4670  176.6430  141.9480 C   0  0  2  0  0  3  0  0  0  0  0  0
  190.8440  177.8290  144.2900 C   0  0  0  0  0  2  0  0  0  0  0  0
  190.2030  175.7960  142.9980 C   0  0  0  0  0  2  0  0  0  0  0  0
  190.1860  178.7200  143.2360 C   0  0  0  0  0  2  0  0  0  0  0  0
  187.8020  177.8280  143.4270 C   0  0  0  0  0  2  0  0  0  0  0  0
  186.6940  177.4010  142.6840 O   0  0  0  0  0  0  0  0  0  0  0  0
  186.1600  178.5530  142.1020 C   0  0  0  0  0  2  0  0  0  0  0  0
  184.6630  178.4860  142.1260 C   0  0  2  0  0  3  0  0  0  0  0  0
  183.8940  177.5960  141.0250 S   0  0  0  0  0  0  0  0  0  0  0  0
  183.8940  179.2440  143.1660 C   0  0  0  0  0  1  0  0  0  0  0  0
  181.7400  179.5840  140.7760 O   0  0  0  0  0  0  0  0  0  0  0  0
  182.7750  178.9510  139.8930 S   0  0  0  0  0  0  0  0  0  0  0  0
  183.7140  180.0190  139.3980 O   0  0  0  0  0  0  0  0  0  0  0  0
  179.9850  177.3150  136.0230 C   0  0  0  0  0  2  0  0  0  0  0  0
  181.9990  178.0780  138.5170 C   0  0  2  0  0  3  0  0  0  0  0  0
  181.9380  178.8060  135.3110 C   0  0  0  0  0  2  0  0  0  0  0  0
  180.6560  180.0230  138.1300 O   0  0  0  0  0  0  0  0  0  0  0  0
  181.0990  178.9710  137.6910 C   0  0  0  0  0  0  0  0  0  0  0  0
  180.1300  176.4030  138.2380 O   0  0  0  0  0  0  0  0  0  0  0  0
  180.6890  179.6810  135.2510 C   0  0  0  0  0  2  0  0  0  0  0  0
  180.5340  176.1990  136.9030 C   0  0  1  0  0  3  0  0  0  0  0  0
  180.7930  178.5740  136.2760 C   0  0  0  0  0  0  0  0  0  0  0  0
  182.1210  175.6620  139.4470 C   0  0  0  0  0  1  0  0  0  0  0  0
  181.2340  176.8270  139.0170 C   0  0  1  0  0  3  0  0  0  0  0  0
  180.1290  174.8520  136.4020 C   0  0  0  0  0  0  0  0  0  0  0  0
  181.1210  173.9340  135.9510 N   0  0  0  0  0  1  0  0  0  0  0  0
  178.9300  174.4670  136.4860 O   0  0  0  0  0  0  0  0  0  0  0  0
  190.3170  176.8750  140.7010 C   0  0  0  0  0  2  0  0  0  0  0  0
  189.4770  177.0930  139.5260 N   0  0  0  0  0  2  0  0  0  0  0  0
  189.8730  176.2040  138.4260 C   0  0  1  0  0  3  0  0  0  0  0  0
  189.4780  176.7170  137.0140 C   0  0  1  0  0  3  0  0  0  0  0  0
  188.3230  174.4580  137.1880 C   0  0  0  0  0  2  0  0  0  0  0  0
  188.4690  172.9030  135.2290 C   0  0  0  0  0  2  0  0  0  0  0  0
  190.1140  174.7960  135.4650 N   0  0  0  0  0  0  0  0  0  0  0  0
  189.6040  173.7240  134.5970 C   0  0  0  0  0  2  0  0  0  0  0  0
  188.4910  173.0020  136.7450 C   0  0  0  0  0  2  0  0  0  0  0  0
  189.0310  175.4400  136.2410 C   0  0  2  0  0  3  0  0  0  0  0  0
  190.6700  175.7200  134.6350 O   0  0  0  0  0  1  0  0  0  0  0  0
  189.0600  179.1210  137.0980 C   0  0  0  0  0  1  0  0  0  0  0  0
  188.4460  177.7960  137.0590 N   0  0  0  0  0  0  0  0  0  0  0  0
  187.4650  177.7760  135.9470 C   0  0  0  0  0  2  0  0  0  0  0  0
  186.0170  177.4720  136.3050 C   0  0  0  0  0  0  0  0  0  0  0  0
  185.1260  176.9570  135.2230 C   0  0  0  0  0  1  0  0  0  0  0  0
  185.5420  177.5330  137.5460 C   0  0  0  0  0  2  0  0  0  0  0  0
  191.3530  175.8200  138.5040 C   0  0  0  0  0  2  0  0  0  0  0  0
  192.2300  176.7830  137.7180 C   0  0  0  0  0  2  0  0  0  0  0  0
  193.2590  175.9810  136.9540 C   0  0  0  0  0  2  0  0  0  0  0  0
  193.2510  174.5170  137.3890 C   0  0  0  0  0  2  0  0  0  0  0  0
  194.3890  172.4180  137.2230 O   0  0  0  0  0  1  0  0  0  0  0  0
  194.4920  173.7790  136.8920 C   0  0  1  0  0  0  0  0  0  0  0  0
  194.5230  173.9060  135.3840 C   0  0  0  0  0  1  0  0  0  0  0  0
  195.6990  174.3800  137.4820 N   0  0  0  0  0  2  0  0  0  0  0  0
  195.9720  173.8040  138.7930 C   0  0  0  0  0  1  0  0  0  0  0  0
  1  4  1  0  0  0  0
  2  6  1  0  0  0  0
  2  7  1  1  0  0  0
  3 30  1  6  0  0  0
  3  2  1  0  0  0  0
  3  5  1  0  0  0  0
  5  1  1  0  0  0  0
  6  4  1  0  0  0  0
  8  7  1  0  0  0  0
  9 10  1  0  0  0  0
  9  8  1  0  0  0  0
 10 12  1  6  0  0  0
 11 10  1  0  0  0  0
 14 13  2  0  0  0  0
 14 11  1  0  0  0  0
 15 14  2  0  0  0  0
 16 24  1  0  0  0  0
 16 23  1  0  0  0  0
 17 26  1  0  0  0  0
 17 14  1  1  0  0  0
 18 24  1  0  0  0  0
 20 19  2  0  0  0  0
 20 17  1  0  0  0  0
 21 26  1  0  0  0  0
 22 18  1  0  0  0  0
 22 24  1  0  0  0  0
 23 27  1  6  0  0  0
 23 21  1  0  0  0  0
 24 20  1  0  0  0  0
 26 25  1  6  0  0  0
 27 29  2  0  0  0  0
 28 27  1  0  0  0  0
 31 30  1  0  0  0  0
 32 47  1  6  0  0  0
 32 31  1  0  0  0  0
 33 42  1  1  0  0  0
 33 32  1  0  0  0  0
 35 38  1  0  0  0  0
 36 39  1  0  0  0  0
 37 35  1  0  0  0  0
 37 36  1  0  0  0  0
 38 34  1  0  0  0  0
 39 33  1  1  0  0  0
 39 34  1  0  0  0  0
 40 36  1  0  0  0  0
 42 41  1  0  0  0  0
 43 44  1  0  0  0  0
 43 42  1  0  0  0  0
 44 46  2  0  0  0  0
 45 44  1  0  0  0  0
 48 47  1  0  0  0  0
 49 50  1  0  0  0  0
 49 48  1  0  0  0  0
 52 53  1  6  0  0  0
 52 51  1  0  0  0  0
 52 50  1  0  0  0  0
 52 54  1  0  0  0  0
 54 55  1  0  0  0  0
M  END
>  <MODEL>
6

>  <REMARK>
 VINA RESULT:      -5.0      3.157      8.649
  Name = 
  21 active torsions:
  status: ('A' for Active; 'I' for Inactive)
    1  A    between atoms: C_1  and  C_29
    2  A    between atoms: C_2  and  N_28
    3  A    between atoms: C_2  and  C_31
    4  A    between atoms: C_4  and  C_40
    5  A    between atoms: C_6  and  S_20
    6  A    between atoms: C_8  and  C_35
    7  A    between atoms: N_10  and  C_39
    8  A    between atoms: C_13  and  C_48
    9  A    between atoms: C_13  and  C_52
   10  A    between atoms: S_20  and  S_22
   11  A    between atoms: C_26  and  C_49
   12  A    between atoms: C_27  and  C_54
   13  A    between atoms: N_28  and  C_33
   14  A    between atoms: C_33  and  C_34
   15  A    between atoms: C_33  and  C_49
   16  A    between atoms: C_34  and  C_52
   17  A    between atoms: C_35  and  O_51
   18  A    between atoms: C_39  and  C_48
   19  A    between atoms: C_40  and  N_45
   20  A    between atoms: N_45  and  C_49
   21  A    between atoms: O_51  and  C_54
                            x       y       z     vdW  Elec       q    Type
                         _______ _______ _______ _____ _____    ______ ____

>  <TORSDO>
F 21

$$$$
=
 OpenBabel11052415133D

 55 58  0  0  1  0  0  0  0  0999 V2000
  185.0540  180.1620  143.6520 C   0  0  0  0  0  2  0  0  0  0  0  0
  185.9230  177.3500  143.4150 C   0  0  2  0  0  3  0  0  0  0  0  0
  185.5090  178.1510  142.1750 C   0  0  2  0  0  3  0  0  0  0  0  0
  185.5910  179.4070  144.8580 C   0  0  0  0  0  2  0  0  0  0  0  0
  185.7330  179.6580  142.3820 C   0  0  0  0  0  2  0  0  0  0  0  0
  185.2960  177.9160  144.7020 C   0  0  0  0  0  2  0  0  0  0  0  0
  187.4460  177.2320  143.5060 C   0  0  0  0  0  2  0  0  0  0  0  0
  187.9950  178.3580  144.1340 O   0  0  0  0  0  0  0  0  0  0  0  0
  189.2420  177.9530  144.6160 C   0  0  0  0  0  2  0  0  0  0  0  0
  190.3170  178.3770  143.6630 C   0  0  2  0  0  3  0  0  0  0  0  0
  189.9610  178.5650  142.1030 S   0  0  0  0  0  0  0  0  0  0  0  0
  191.7100  178.6210  144.1610 C   0  0  0  0  0  1  0  0  0  0  0  0
  192.5380  177.4860  141.1830 O   0  0  0  0  0  0  0  0  0  0  0  0
  191.0850  177.1210  141.0940 S   0  0  0  0  0  0  0  0  0  0  0  0
  190.8690  175.8030  141.7920 O   0  0  0  0  0  0  0  0  0  0  0  0
  188.6690  176.6810  136.6880 C   0  0  0  0  0  2  0  0  0  0  0  0
  190.5450  177.0430  139.3730 C   0  0  2  0  0  3  0  0  0  0  0  0
  188.5370  179.0300  137.6910 C   0  0  0  0  0  2  0  0  0  0  0  0
  188.2950  176.8150  140.1620 O   0  0  0  0  0  0  0  0  0  0  0  0
  189.0390  177.0870  139.2300 C   0  0  0  0  0  0  0  0  0  0  0  0
  190.3850  175.2640  137.5880 O   0  0  0  0  0  0  0  0  0  0  0  0
  187.1920  178.3690  137.9760 C   0  0  0  0  0  2  0  0  0  0  0  0
  190.1350  176.2690  136.6320 C   0  0  1  0  0  3  0  0  0  0  0  0
  188.4530  177.5360  137.9230 C   0  0  0  0  0  0  0  0  0  0  0  0
  192.6240  175.8850  138.3460 C   0  0  0  0  0  1  0  0  0  0  0  0
  191.1340  175.7970  138.6650 C   0  0  1  0  0  3  0  0  0  0  0  0
  190.5360  175.8380  135.2590 C   0  0  0  0  0  0  0  0  0  0  0  0
  191.8110  176.2060  134.7430 N   0  0  0  0  0  1  0  0  0  0  0  0
  189.8090  175.0490  134.5940 O   0  0  0  0  0  0  0  0  0  0  0  0
  184.0600  177.8300  141.8190 C   0  0  0  0  0  2  0  0  0  0  0  0
  183.5090  178.8280  140.9050 N   0  0  0  0  0  2  0  0  0  0  0  0
  182.7640  178.1860  139.8150 C   0  0  1  0  0  3  0  0  0  0  0  0
  181.2700  178.6010  139.7290 C   0  0  1  0  0  3  0  0  0  0  0  0
  181.4070  176.0690  139.9170 C   0  0  0  0  0  2  0  0  0  0  0  0
  179.5000  174.7140  139.0190 C   0  0  0  0  0  2  0  0  0  0  0  0
  179.8180  177.0990  138.2720 N   0  0  0  0  0  0  0  0  0  0  0  0
  178.9370  175.9210  138.2520 C   0  0  0  0  0  2  0  0  0  0  0  0
  181.0110  174.8000  139.1580 C   0  0  0  0  0  2  0  0  0  0  0  0
  180.4940  177.2590  139.5780 C   0  0  2  0  0  3  0  0  0  0  0  0
  179.0110  178.1740  138.0580 O   0  0  0  0  0  1  0  0  0  0  0  0
  180.1590  180.6510  140.4560 C   0  0  0  0  0  1  0  0  0  0  0  0
  180.8340  179.4310  140.8930 N   0  0  0  0  0  0  0  0  0  0  0  0
  179.9490  178.7400  141.8630 C   0  0  0  0  0  2  0  0  0  0  0  0
  180.4120  178.6960  143.3120 C   0  0  0  0  0  0  0  0  0  0  0  0
  181.7020  179.3680  143.6520 C   0  0  0  0  0  1  0  0  0  0  0  0
  179.6770  178.1920  144.3000 C   0  0  0  0  0  2  0  0  0  0  0  0
  183.4780  178.3320  138.4690 C   0  0  0  0  0  2  0  0  0  0  0  0
  183.8490  176.9820  137.8740 C   0  0  0  0  0  2  0  0  0  0  0  0
  183.0620  176.7880  136.5970 C   0  0  0  0  0  2  0  0  0  0  0  0
  183.0200  175.3150  136.1940 C   0  0  0  0  0  2  0  0  0  0  0  0
  184.3170  173.7810  134.8940 O   0  0  0  0  0  1  0  0  0  0  0  0
  184.4140  174.7830  135.8730 C   0  0  1  0  0  0  0  0  0  0  0  0
  185.2200  175.9320  135.3060 C   0  0  0  0  0  1  0  0  0  0  0  0
  185.0470  174.2690  137.0990 N   0  0  0  0  0  2  0  0  0  0  0  0
  186.3530  173.6950  136.8010 C   0  0  0  0  0  1  0  0  0  0  0  0
  1  4  1  0  0  0  0
  2  7  1  1  0  0  0
  2  6  1  0  0  0  0
  3 30  1  1  0  0  0
  3  5  1  0  0  0  0
  3  2  1  0  0  0  0
  5  1  1  0  0  0  0
  6  4  1  0  0  0  0
  7  8  1  0  0  0  0
  8  9  1  0  0  0  0
 10 12  1  6  0  0  0
 10  9  1  0  0  0  0
 11 10  1  0  0  0  0
 14 13  2  0  0  0  0
 14 15  2  0  0  0  0
 14 11  1  0  0  0  0
 16 24  1  0  0  0  0
 17 14  1  1  0  0  0
 18 24  1  0  0  0  0
 18 22  1  0  0  0  0
 20 17  1  0  0  0  0
 20 19  2  0  0  0  0
 21 26  1  0  0  0  0
 23 27  1  6  0  0  0
 23 16  1  0  0  0  0
 23 21  1  0  0  0  0
 24 22  1  0  0  0  0
 24 20  1  0  0  0  0
 26 25  1  6  0  0  0
 26 17  1  0  0  0  0
 28 27  1  0  0  0  0
 29 27  2  0  0  0  0
 31 30  1  0  0  0  0
 32 47  1  6  0  0  0
 32 31  1  0  0  0  0
 33 32  1  0  0  0  0
 33 42  1  1  0  0  0
 35 38  1  0  0  0  0
 36 39  1  0  0  0  0
 37 36  1  0  0  0  0
 37 35  1  0  0  0  0
 38 34  1  0  0  0  0
 39 33  1  6  0  0  0
 39 34  1  0  0  0  0
 40 36  1  0  0  0  0
 41 42  1  0  0  0  0
 42 43  1  0  0  0  0
 43 44  1  0  0  0  0
 44 45  1  0  0  0  0
 44 46  2  0  0  0  0
 48 47  1  0  0  0  0
 49 48  1  0  0  0  0
 50 49  1  0  0  0  0
 51 52  1  0  0  0  0
 52 53  1  6  0  0  0
 52 50  1  0  0  0  0
 52 54  1  0  0  0  0
 55 54  1  0  0  0  0
M  END
>  <MODEL>
7

>  <REMARK>
 VINA RESULT:      -4.8      1.460      2.172
  Name = 
  21 active torsions:
  status: ('A' for Active; 'I' for Inactive)
    1  A    between atoms: C_1  and  C_29
    2  A    between atoms: C_2  and  N_28
    3  A    between atoms: C_2  and  C_31
    4  A    between atoms: C_4  and  C_40
    5  A    between atoms: C_6  and  S_20
    6  A    between atoms: C_8  and  C_35
    7  A    between atoms: N_10  and  C_39
    8  A    between atoms: C_13  and  C_48
    9  A    between atoms: C_13  and  C_52
   10  A    between atoms: S_20  and  S_22
   11  A    between atoms: C_26  and  C_49
   12  A    between atoms: C_27  and  C_54
   13  A    between atoms: N_28  and  C_33
   14  A    between atoms: C_33  and  C_34
   15  A    between atoms: C_33  and  C_49
   16  A    between atoms: C_34  and  C_52
   17  A    between atoms: C_35  and  O_51
   18  A    between atoms: C_39  and  C_48
   19  A    between atoms: C_40  and  N_45
   20  A    between atoms: N_45  and  C_49
   21  A    between atoms: O_51  and  C_54
                            x       y       z     vdW  Elec       q    Type
                         _______ _______ _______ _____ _____    ______ ____

>  <TORSDO>
F 21

$$$$
=
 OpenBabel11052415133D

 55 58  0  0  1  0  0  0  0  0999 V2000
  186.8380  178.2790  144.6500 C   0  0  0  0  0  2  0  0  0  0  0  0
  185.0370  179.0180  142.4300 C   0  0  2  0  0  3  0  0  0  0  0  0
  186.2660  178.1370  142.1820 C   0  0  2  0  0  3  0  0  0  0  0  0
  185.5470  179.0390  144.9120 C   0  0  0  0  0  2  0  0  0  0  0  0
  186.6590  177.3570  143.4470 C   0  0  0  0  0  2  0  0  0  0  0  0
  185.1940  179.8870  143.6910 C   0  0  0  0  0  2  0  0  0  0  0  0
  183.7580  178.1780  142.4520 C   0  0  0  0  0  2  0  0  0  0  0  0
  182.9240  178.5140  141.3780 O   0  0  0  0  0  0  0  0  0  0  0  0
  183.0820  177.4910  140.4400 C   0  0  0  0  0  2  0  0  0  0  0  0
  182.6600  177.9730  139.0850 C   0  0  1  0  0  3  0  0  0  0  0  0
  181.5800  177.1240  138.2450 S   0  0  0  0  0  0  0  0  0  0  0  0
  183.2420  179.2350  138.5230 C   0  0  0  0  0  1  0  0  0  0  0  0
  182.0310  177.1550  135.3380 O   0  0  0  0  0  0  0  0  0  0  0  0
  182.5940  176.4590  136.5420 S   0  0  0  0  0  0  0  0  0  0  0  0
  184.0430  176.8400  136.6940 O   0  0  0  0  0  0  0  0  0  0  0  0
  182.7650  171.5470  135.4090 C   0  0  0  0  0  2  0  0  0  0  0  0
  182.4030  174.6700  136.3980 C   0  0  2  0  0  3  0  0  0  0  0  0
  184.4940  172.2490  137.1590 C   0  0  0  0  0  2  0  0  0  0  0  0
  184.2580  174.6650  134.8830 O   0  0  0  0  0  0  0  0  0  0  0  0
  183.5360  174.0210  135.6310 C   0  0  0  0  0  0  0  0  0  0  0  0
  180.9600  173.0890  135.0580 O   0  0  0  0  0  0  0  0  0  0  0  0
  185.2520  172.1140  135.8410 C   0  0  0  0  0  2  0  0  0  0  0  0
  181.3960  172.0260  135.8740 C   0  0  1  0  0  3  0  0  0  0  0  0
  183.8070  172.5610  135.8450 C   0  0  0  0  0  0  0  0  0  0  0  0
  179.8340  174.5080  136.7000 C   0  0  0  0  0  1  0  0  0  0  0  0
  181.0320  174.3080  135.7750 C   0  0  1  0  0  3  0  0  0  0  0  0
  180.4030  170.9100  135.9070 C   0  0  0  0  0  0  0  0  0  0  0  0
  180.7330  169.6490  135.3340 N   0  0  0  0  0  1  0  0  0  0  0  0
  179.3190  171.0310  136.5420 O   0  0  0  0  0  0  0  0  0  0  0  0
  187.4140  178.9960  141.6600 C   0  0  0  0  0  2  0  0  0  0  0  0
  188.7060  178.3700  141.9320 N   0  0  0  0  0  2  0  0  0  0  0  0
  188.9690  177.2790  140.9850 C   0  0  1  0  0  3  0  0  0  0  0  0
  189.5130  177.7440  139.6060 C   0  0  1  0  0  3  0  0  0  0  0  0
  192.0500  177.6310  139.4660 C   0  0  0  0  0  2  0  0  0  0  0  0
  193.0890  175.5530  138.5300 C   0  0  0  0  0  2  0  0  0  0  0  0
  190.6680  176.0730  138.0680 N   0  0  0  0  0  0  0  0  0  0  0  0
  191.7450  175.0770  137.9570 C   0  0  0  0  0  2  0  0  0  0  0  0
  193.1650  177.0700  138.5810 C   0  0  0  0  0  2  0  0  0  0  0  0
  190.7450  176.8290  139.3390 C   0  0  2  0  0  3  0  0  0  0  0  0
  189.5030  175.3700  138.0430 O   0  0  0  0  0  1  0  0  0  0  0  0
  187.1340  177.8910  139.0780 C   0  0  0  0  0  1  0  0  0  0  0  0
  188.4760  177.7000  138.5330 N   0  0  0  0  0  0  0  0  0  0  0  0
  188.6660  178.6760  137.4320 C   0  0  0  0  0  2  0  0  0  0  0  0
  188.3200  178.2100  136.0250 C   0  0  0  0  0  0  0  0  0  0  0  0
  189.4070  177.5880  135.2110 C   0  0  0  0  0  1  0  0  0  0  0  0
  187.0840  178.2260  135.5320 C   0  0  0  0  0  2  0  0  0  0  0  0
  189.8390  176.1820  141.6050 C   0  0  0  0  0  2  0  0  0  0  0  0
  189.5250  175.9740  143.0790 C   0  0  0  0  0  2  0  0  0  0  0  0
  190.6970  176.4700  143.8950 C   0  0  0  0  0  2  0  0  0  0  0  0
  190.9530  175.5660  145.0990 C   0  0  0  0  0  2  0  0  0  0  0  0
  192.0020  177.5450  145.9400 O   0  0  0  0  0  1  0  0  0  0  0  0
  191.3320  176.3760  146.3360 C   0  0  1  0  0  0  0  0  0  0  0  0
  190.0470  176.7710  147.0320 C   0  0  0  0  0  1  0  0  0  0  0  0
  192.1700  175.5600  147.2300 N   0  0  0  0  0  2  0  0  0  0  0  0
  192.6660  176.3610  148.3420 C   0  0  0  0  0  1  0  0  0  0  0  0
  1  4  1  0  0  0  0
  2  7  1  1  0  0  0
  2  6  1  0  0  0  0
  3 30  1  1  0  0  0
  3  2  1  0  0  0  0
  3  5  1  0  0  0  0
  5  1  1  0  0  0  0
  6  4  1  0  0  0  0
  8  7  1  0  0  0  0
  9  8  1  0  0  0  0
 10 12  1  1  0  0  0
 10  9  1  0  0  0  0
 11 10  1  0  0  0  0
 13 14  2  0  0  0  0
 14 15  2  0  0  0  0
 14 11  1  0  0  0  0
 16 24  1  0  0  0  0
 16 23  1  0  0  0  0
 17 14  1  6  0  0  0
 19 20  2  0  0  0  0
 20 24  1  0  0  0  0
 20 17  1  0  0  0  0
 21 26  1  0  0  0  0
 21 23  1  0  0  0  0
 22 24  1  0  0  0  0
 22 18  1  0  0  0  0
 23 27  1  6  0  0  0
 24 18  1  0  0  0  0
 26 17  1  0  0  0  0
 26 25  1  1  0  0  0
 27 29  2  0  0  0  0
 28 27  1  0  0  0  0
 30 31  1  0  0  0  0
 32 47  1  1  0  0  0
 32 31  1  0  0  0  0
 33 42  1  6  0  0  0
 33 32  1  0  0  0  0
 35 38  1  0  0  0  0
 36 39  1  0  0  0  0
 37 36  1  0  0  0  0
 37 35  1  0  0  0  0
 38 34  1  0  0  0  0
 39 34  1  0  0  0  0
 39 33  1  6  0  0  0
 40 36  1  0  0  0  0
 42 41  1  0  0  0  0
 43 42  1  0  0  0  0
 44 43  1  0  0  0  0
 45 44  1  0  0  0  0
 46 44  2  0  0  0  0
 47 48  1  0  0  0  0
 48 49  1  0  0  0  0
 49 50  1  0  0  0  0
 50 52  1  0  0  0  0
 51 52  1  0  0  0  0
 52 53  1  1  0  0  0
 52 54  1  0  0  0  0
 54 55  1  0  0  0  0
M  END
>  <MODEL>
8

>  <REMARK>
 VINA RESULT:      -4.6      3.517      9.380
  Name = 
  21 active torsions:
  status: ('A' for Active; 'I' for Inactive)
    1  A    between atoms: C_1  and  C_29
    2  A    between atoms: C_2  and  N_28
    3  A    between atoms: C_2  and  C_31
    4  A    between atoms: C_4  and  C_40
    5  A    between atoms: C_6  and  S_20
    6  A    between atoms: C_8  and  C_35
    7  A    between atoms: N_10  and  C_39
    8  A    between atoms: C_13  and  C_48
    9  A    between atoms: C_13  and  C_52
   10  A    between atoms: S_20  and  S_22
   11  A    between atoms: C_26  and  C_49
   12  A    between atoms: C_27  and  C_54
   13  A    between atoms: N_28  and  C_33
   14  A    between atoms: C_33  and  C_34
   15  A    between atoms: C_33  and  C_49
   16  A    between atoms: C_34  and  C_52
   17  A    between atoms: C_35  and  O_51
   18  A    between atoms: C_39  and  C_48
   19  A    between atoms: C_40  and  N_45
   20  A    between atoms: N_45  and  C_49
   21  A    between atoms: O_51  and  C_54
                            x       y       z     vdW  Elec       q    Type
                         _______ _______ _______ _____ _____    ______ ____

>  <TORSDO>
F 21

$$$$
=
 OpenBabel11052415133D

 55 58  0  0  1  0  0  0  0  0999 V2000
  192.2810  177.0050  138.9290 C   0  0  0  0  0  2  0  0  0  0  0  0
  189.4710  176.1140  138.7590 C   0  0  2  0  0  3  0  0  0  0  0  0
  189.9150  177.1100  139.8370 C   0  0  2  0  0  3  0  0  0  0  0  0
  191.8100  176.1230  137.7830 C   0  0  0  0  0  2  0  0  0  0  0  0
  191.1440  177.9150  139.3820 C   0  0  0  0  0  2  0  0  0  0  0  0
  190.6430  175.2550  138.2500 C   0  0  0  0  0  2  0  0  0  0  0  0
  188.7310  176.8290  137.6260 C   0  0  0  0  0  2  0  0  0  0  0  0
  188.7990  176.0840  136.4420 O   0  0  0  0  0  0  0  0  0  0  0  0
  187.4780  175.9360  136.0110 C   0  0  0  0  0  2  0  0  0  0  0  0
  187.1890  174.4890  135.7500 C   0  0  2  0  0  3  0  0  0  0  0  0
  185.7520  174.0650  135.1560 S   0  0  0  0  0  0  0  0  0  0  0  0
  188.2290  173.4500  136.0420 C   0  0  0  0  0  1  0  0  0  0  0  0
  184.8220  171.4710  136.1840 O   0  0  0  0  0  0  0  0  0  0  0  0
  184.8550  172.9000  136.6410 S   0  0  0  0  0  0  0  0  0  0  0  0
  185.7080  172.9990  137.8780 O   0  0  0  0  0  0  0  0  0  0  0  0
  179.9720  174.1680  136.6190 C   0  0  0  0  0  2  0  0  0  0  0  0
  183.1860  173.5150  136.9500 C   0  0  2  0  0  3  0  0  0  0  0  0
  180.4240  171.8770  137.6630 C   0  0  0  0  0  2  0  0  0  0  0  0
  182.4460  172.2610  135.0480 O   0  0  0  0  0  0  0  0  0  0  0  0
  182.1450  172.8430  136.0800 C   0  0  0  0  0  0  0  0  0  0  0  0
  181.8810  175.6090  136.4130 O   0  0  0  0  0  0  0  0  0  0  0  0
  179.8930  171.6080  136.2580 C   0  0  0  0  0  2  0  0  0  0  0  0
  180.8720  175.1890  137.3040 C   0  0  1  0  0  3  0  0  0  0  0  0
  180.7140  172.8470  136.5360 C   0  0  0  0  0  0  0  0  0  0  0  0
  183.7820  175.8370  137.9340 C   0  0  0  0  0  1  0  0  0  0  0  0
  183.1260  175.0550  136.7980 C   0  0  1  0  0  3  0  0  0  0  0  0
  180.0900  176.3440  137.8370 C   0  0  0  0  0  0  0  0  0  0  0  0
  178.9320  176.7980  137.1440 N   0  0  0  0  0  1  0  0  0  0  0  0
  180.3700  176.8490  138.9600 O   0  0  0  0  0  0  0  0  0  0  0  0
  190.1690  176.3680  141.1460 C   0  0  0  0  0  2  0  0  0  0  0  0
  188.9510  176.2870  141.9500 N   0  0  0  0  0  2  0  0  0  0  0  0
  188.5570  177.6140  142.4380 C   0  0  1  0  0  3  0  0  0  0  0  0
  187.0210  177.8460  142.4950 C   0  0  1  0  0  3  0  0  0  0  0  0
  187.1330  177.1340  144.9330 C   0  0  0  0  0  2  0  0  0  0  0  0
  185.9840  178.5700  146.6360 C   0  0  0  0  0  2  0  0  0  0  0  0
  185.3610  178.7520  144.2010 N   0  0  0  0  0  0  0  0  0  0  0  0
  185.2020  179.3230  145.5480 C   0  0  0  0  0  2  0  0  0  0  0  0
  186.2900  177.1430  146.2110 C   0  0  0  0  0  2  0  0  0  0  0  0
  186.7390  178.2640  143.9680 C   0  0  2  0  0  3  0  0  0  0  0  0
  185.0990  179.7650  143.3310 O   0  0  0  0  0  1  0  0  0  0  0  0
  187.6540  179.6390  140.9620 C   0  0  0  0  0  1  0  0  0  0  0  0
  186.5490  178.8340  141.4790 N   0  0  0  0  0  0  0  0  0  0  0  0
  185.8260  178.2520  140.3220 C   0  0  0  0  0  2  0  0  0  0  0  0
  184.3550  178.6140  140.1720 C   0  0  0  0  0  0  0  0  0  0  0  0
  183.9660  179.4860  139.0240 C   0  0  0  0  0  1  0  0  0  0  0  0
  183.3940  178.1040  140.9390 C   0  0  0  0  0  2  0  0  0  0  0  0
  189.2380  177.9620  143.7640 C   0  0  0  0  0  2  0  0  0  0  0  0
  190.7460  177.7770  143.6920 C   0  0  0  0  0  2  0  0  0  0  0  0
  191.3430  178.1630  145.0270 C   0  0  0  0  0  2  0  0  0  0  0  0
  190.3010  178.0800  146.1410 C   0  0  0  0  0  2  0  0  0  0  0  0
  191.2720  177.7900  148.3090 O   0  0  0  0  0  1  0  0  0  0  0  0
  190.7190  177.0900  147.2250 C   0  0  1  0  0  0  0  0  0  0  0  0
  189.4690  176.3800  147.6990 C   0  0  0  0  0  1  0  0  0  0  0  0
  191.6800  176.1210  146.6720 N   0  0  0  0  0  2  0  0  0  0  0  0
  192.5600  175.6150  147.7180 C   0  0  0  0  0  1  0  0  0  0  0  0
  1  5  1  0  0  0  0
  2  7  1  6  0  0  0
  2  3  1  0  0  0  0
  3 30  1  1  0  0  0
  4  6  1  0  0  0  0
  4  1  1  0  0  0  0
  5  3  1  0  0  0  0
  6  2  1  0  0  0  0
  8  7  1  0  0  0  0
  9  8  1  0  0  0  0
 10  9  1  0  0  0  0
 10 12  1  1  0  0  0
 11 10  1  0  0  0  0
 11 14  1  0  0  0  0
 13 14  2  0  0  0  0
 14 15  2  0  0  0  0
 16 23  1  0  0  0  0
 17 14  1  6  0  0  0
 19 20  2  0  0  0  0
 20 24  1  0  0  0  0
 20 17  1  0  0  0  0
 21 26  1  0  0  0  0
 21 23  1  0  0  0  0
 22 24  1  0  0  0  0
 22 18  1  0  0  0  0
 23 27  1  6  0  0  0
 24 16  1  0  0  0  0
 24 18  1  0  0  0  0
 26 17  1  0  0  0  0
 26 25  1  1  0  0  0
 27 29  2  0  0  0  0
 28 27  1  0  0  0  0
 30 31  1  0  0  0  0
 31 32  1  0  0  0  0
 32 33  1  0  0  0  0
 32 47  1  1  0  0  0
 33 42  1  6  0  0  0
 34 38  1  0  0  0  0
 36 37  1  0  0  0  0
 37 35  1  0  0  0  0
 38 35  1  0  0  0  0
 39 33  1  6  0  0  0
 39 36  1  0  0  0  0
 39 34  1  0  0  0  0
 40 36  1  0  0  0  0
 41 42  1  0  0  0  0
 43 42  1  0  0  0  0
 44 43  1  0  0  0  0
 44 46  2  0  0  0  0
 45 44  1  0  0  0  0
 48 47  1  0  0  0  0
 48 49  1  0  0  0  0
 49 50  1  0  0  0  0
 50 52  1  0  0  0  0
 52 53  1  1  0  0  0
 52 51  1  0  0  0  0
 54 52  1  0  0  0  0
 54 55  1  0  0  0  0
M  END
>  <MODEL>
9

>  <REMARK>
 VINA RESULT:      -4.3      3.242      9.148
  Name = 
  21 active torsions:
  status: ('A' for Active; 'I' for Inactive)
    1  A    between atoms: C_1  and  C_29
    2  A    between atoms: C_2  and  N_28
    3  A    between atoms: C_2  and  C_31
    4  A    between atoms: C_4  and  C_40
    5  A    between atoms: C_6  and  S_20
    6  A    between atoms: C_8  and  C_35
    7  A    between atoms: N_10  and  C_39
    8  A    between atoms: C_13  and  C_48
    9  A    between atoms: C_13  and  C_52
   10  A    between atoms: S_20  and  S_22
   11  A    between atoms: C_26  and  C_49
   12  A    between atoms: C_27  and  C_54
   13  A    between atoms: N_28  and  C_33
   14  A    between atoms: C_33  and  C_34
   15  A    between atoms: C_33  and  C_49
   16  A    between atoms: C_34  and  C_52
   17  A    between atoms: C_35  and  O_51
   18  A    between atoms: C_39  and  C_48
   19  A    between atoms: C_40  and  N_45
   20  A    between atoms: N_45  and  C_49
   21  A    between atoms: O_51  and  C_54
                            x       y       z     vdW  Elec       q    Type
                         _______ _______ _______ _____ _____    ______ ____

>  <TORSDO>
F 21

$$$$
