=
 OpenBabel11052414383D

 32 36  0  0  0  0  0  0  0  0999 V2000
  188.1470  177.7490  141.1810 C   0  0  0  0  0  0  0  0  0  0  0  0
  189.3600  177.2130  143.6390 C   0  0  0  0  0  0  0  0  0  0  0  0
  187.5870  178.0560  139.9330 C   0  0  0  0  0  3  0  0  0  0  0  0
  187.4140  178.0150  142.3760 C   0  0  0  0  0  0  0  0  0  0  0  0
  187.4030  177.9610  144.8580 C   0  0  0  0  0  3  0  0  0  0  0  0
  191.9340  176.1530  146.1170 C   0  0  0  0  0  3  0  0  0  0  0  0
  188.0400  177.7330  143.6250 C   0  0  0  0  0  0  0  0  0  0  0  0
  189.9590  176.9070  147.2990 C   0  0  0  0  0  3  0  0  0  0  0  0
  189.3290  177.1780  146.0810 C   0  0  0  0  0  0  0  0  0  0  0  0
  186.0970  178.5620  142.2560 C   0  0  0  0  0  0  0  0  0  0  0  0
  188.0340  177.6870  146.0690 C   0  0  0  0  0  3  0  0  0  0  0  0
  185.5750  178.8400  140.9820 C   0  0  0  0  0  3  0  0  0  0  0  0
  190.0060  176.9750  142.4690 N   0  0  0  0  0  0  0  0  0  0  0  0
  189.4470  177.2070  141.2570 C   0  0  0  0  0  0  0  0  0  0  0  0
  190.0040  176.9360  144.8620 C   0  0  0  0  0  0  0  0  0  0  0  0
  186.3120  178.5940  139.8310 C   0  0  0  0  0  3  0  0  0  0  0  0
  191.2590  176.3950  147.3170 C   0  0  0  0  0  3  0  0  0  0  0  0
  191.3090  176.4220  144.8950 C   0  0  0  0  0  3  0  0  0  0  0  0
  192.3600  176.8780  138.8420 C   0  0  0  0  0  0  0  0  0  0  0  0
  193.7240  177.1320  138.7880 O   0  0  0  0  0  1  0  0  0  0  0  0
  190.2540  176.8990  140.0560 C   0  0  0  0  0  0  0  0  0  0  0  0
  191.7120  176.3400  137.7280 C   0  0  0  0  0  3  0  0  0  0  0  0
  189.6120  176.3760  138.9260 C   0  0  0  0  0  3  0  0  0  0  0  0
  191.6350  177.1660  140.0060 C   0  0  0  0  0  0  0  0  0  0  0  0
  192.2690  177.7340  141.0630 F   0  0  0  0  0  0  0  0  0  0  0  0
  190.3320  176.0880  137.7640 C   0  0  0  0  0  0  0  0  0  0  0  0
  188.2380  175.5630  136.5560 C   0  0  0  0  0  1  0  0  0  0  0  0
  189.6550  175.5580  136.6620 O   0  0  0  0  0  0  0  0  0  0  0  0
  184.0140  178.6390  143.4690 C   0  0  0  0  0  3  0  0  0  0  0  0
  185.2930  178.8370  143.4150 N   0  0  0  0  0  0  0  0  0  0  0  0
  183.2660  178.9540  144.7130 C   0  0  0  0  0  2  0  0  0  0  0  0
  184.1720  178.7580  145.9090 C   0  0  0  0  0  1  0  0  0  0  0  0
  1 14  2  0  0  0  0
  1  4  1  0  0  0  0
  2 15  1  0  0  0  0
  3  1  1  0  0  0  0
  4  7  2  0  0  0  0
  5 11  2  0  0  0  0
  6 17  1  0  0  0  0
  7  2  1  0  0  0  0
  7  5  1  0  0  0  0
  8 17  2  0  0  0  0
  9  8  1  0  0  0  0
 10  4  1  0  0  0  0
 10 30  1  0  0  0  0
 11  9  1  0  0  0  0
 12 10  2  0  0  0  0
 13  2  2  0  0  0  0
 14 13  1  0  0  0  0
 15 18  1  0  0  0  0
 15  9  2  0  0  0  0
 16  3  2  0  0  0  0
 16 12  1  0  0  0  0
 18  6  2  0  0  0  0
 19 24  1  0  0  0  0
 20 19  1  0  0  0  0
 21 14  1  0  0  0  0
 22 26  1  0  0  0  0
 22 19  2  0  0  0  0
 23 21  1  0  0  0  0
 24 21  2  0  0  0  0
 24 25  1  0  0  0  0
 26 23  2  0  0  0  0
 27 28  1  0  0  0  0
 28 26  1  0  0  0  0
 29 31  1  0  0  0  0
 30 29  2  0  0  0  0
 31 32  1  0  0  0  0
M  END
>  <MODEL>
1

>  <REMARK>
 VINA RESULT:     -10.7      0.000      0.000
  Name = 
  4 active torsions:
  status: ('A' for Active; 'I' for Inactive)
    1  A    between atoms: C_13  and  C_18
    2  A    between atoms: C_14  and  N_29
    3  A    between atoms: O_15  and  C_26
    4  A    between atoms: C_16  and  C_27
                            x       y       z     vdW  Elec       q    Type
                         _______ _______ _______ _____ _____    ______ ____

>  <TORSDO>
F 4

$$$$
=
 OpenBabel11052414383D

 32 36  0  0  0  0  0  0  0  0999 V2000
  189.4090  177.2690  142.7400 C   0  0  0  0  0  0  0  0  0  0  0  0
  186.7200  177.9560  143.0540 C   0  0  0  0  0  0  0  0  0  0  0  0
  190.7410  176.8750  142.5470 C   0  0  0  0  0  3  0  0  0  0  0  0
  188.8850  177.3860  144.0620 C   0  0  0  0  0  0  0  0  0  0  0  0
  186.9020  177.8820  145.4710 C   0  0  0  0  0  3  0  0  0  0  0  0
  183.2090  178.8510  142.1830 C   0  0  0  0  0  3  0  0  0  0  0  0
  187.5130  177.7420  144.2120 C   0  0  0  0  0  0  0  0  0  0  0  0
  183.4310  178.7690  144.5930 C   0  0  0  0  0  3  0  0  0  0  0  0
  184.7810  178.4300  144.4620 C   0  0  0  0  0  0  0  0  0  0  0  0
  189.7610  177.1280  145.1640 C   0  0  0  0  0  0  0  0  0  0  0  0
  185.5570  178.2220  145.5970 C   0  0  0  0  0  3  0  0  0  0  0  0
  191.0910  176.7480  144.9180 C   0  0  0  0  0  3  0  0  0  0  0  0
  187.2750  177.8350  141.8220 N   0  0  0  0  0  0  0  0  0  0  0  0
  188.5790  177.5190  141.6280 C   0  0  0  0  0  0  0  0  0  0  0  0
  185.3590  178.2980  143.1770 C   0  0  0  0  0  0  0  0  0  0  0  0
  191.5770  176.6190  143.6250 C   0  0  0  0  0  3  0  0  0  0  0  0
  182.6470  178.9800  143.4560 C   0  0  0  0  0  3  0  0  0  0  0  0
  184.5580  178.5120  142.0440 C   0  0  0  0  0  3  0  0  0  0  0  0
  188.7980  177.8020  137.8460 C   0  0  0  0  0  0  0  0  0  0  0  0
  188.0660  178.3040  136.7780 O   0  0  0  0  0  1  0  0  0  0  0  0
  189.0640  177.4250  140.2340 C   0  0  0  0  0  0  0  0  0  0  0  0
  190.0180  177.1650  137.6110 C   0  0  0  0  0  3  0  0  0  0  0  0
  190.2770  176.7720  139.9820 C   0  0  0  0  0  3  0  0  0  0  0  0
  188.3130  177.9290  139.1540 C   0  0  0  0  0  0  0  0  0  0  0  0
  187.1020  178.5060  139.3640 F   0  0  0  0  0  0  0  0  0  0  0  0
  190.7640  176.6430  138.6790 C   0  0  0  0  0  0  0  0  0  0  0  0
  192.9650  176.4740  137.5630 C   0  0  0  0  0  1  0  0  0  0  0  0
  191.9840  175.9930  138.4720 O   0  0  0  0  0  0  0  0  0  0  0  0
  189.8490  178.0330  147.3980 C   0  0  0  0  0  3  0  0  0  0  0  0
  189.3080  177.2450  146.5230 N   0  0  0  0  0  0  0  0  0  0  0  0
  189.3110  178.0860  148.7810 C   0  0  0  0  0  2  0  0  0  0  0  0
  187.8130  177.8690  148.7480 C   0  0  0  0  0  1  0  0  0  0  0  0
  1  4  1  0  0  0  0
  2 15  2  0  0  0  0
  2  7  1  0  0  0  0
  3  1  2  0  0  0  0
  3 16  1  0  0  0  0
  4  7  1  0  0  0  0
  4 10  2  0  0  0  0
  5 11  1  0  0  0  0
  6 17  1  0  0  0  0
  7  5  2  0  0  0  0
  9  8  1  0  0  0  0
  9 11  2  0  0  0  0
 10 30  1  0  0  0  0
 12 10  1  0  0  0  0
 13  2  1  0  0  0  0
 14 13  2  0  0  0  0
 14  1  1  0  0  0  0
 15  9  1  0  0  0  0
 16 12  2  0  0  0  0
 17  8  2  0  0  0  0
 18  6  2  0  0  0  0
 18 15  1  0  0  0  0
 19 24  1  0  0  0  0
 20 19  1  0  0  0  0
 21 14  1  0  0  0  0
 22 19  2  0  0  0  0
 22 26  1  0  0  0  0
 23 21  1  0  0  0  0
 24 25  1  0  0  0  0
 24 21  2  0  0  0  0
 26 23  2  0  0  0  0
 27 28  1  0  0  0  0
 28 26  1  0  0  0  0
 29 31  1  0  0  0  0
 30 29  2  0  0  0  0
 32 31  1  0  0  0  0
M  END
>  <MODEL>
2

>  <REMARK>
 VINA RESULT:     -10.6      1.881      5.064
  Name = 
  4 active torsions:
  status: ('A' for Active; 'I' for Inactive)
    1  A    between atoms: C_13  and  C_18
    2  A    between atoms: C_14  and  N_29
    3  A    between atoms: O_15  and  C_26
    4  A    between atoms: C_16  and  C_27
                            x       y       z     vdW  Elec       q    Type
                         _______ _______ _______ _____ _____    ______ ____

>  <TORSDO>
F 4

$$$$
=
 OpenBabel11052414383D

 32 36  0  0  0  0  0  0  0  0999 V2000
  188.7600  177.7620  142.8690 C   0  0  0  0  0  0  0  0  0  0  0  0
  186.0140  178.2640  142.9490 C   0  0  0  0  0  0  0  0  0  0  0  0
  190.1470  177.5590  142.8680 C   0  0  0  0  0  3  0  0  0  0  0  0
  188.0690  177.9720  141.6390 C   0  0  0  0  0  0  0  0  0  0  0  0
  185.8960  178.4420  140.5340 C   0  0  0  0  0  3  0  0  0  0  0  0
  182.5940  178.8230  144.3210 C   0  0  0  0  0  3  0  0  0  0  0  0
  186.6660  178.2220  141.6900 C   0  0  0  0  0  0  0  0  0  0  0  0
  182.5170  178.9920  141.9060 C   0  0  0  0  0  3  0  0  0  0  0  0
  183.8890  178.7370  141.8400 C   0  0  0  0  0  0  0  0  0  0  0  0
  188.8220  177.9320  140.4230 C   0  0  0  0  0  0  0  0  0  0  0  0
  184.5270  178.6950  140.6050 C   0  0  0  0  0  3  0  0  0  0  0  0
  190.2080  177.7130  140.4720 C   0  0  0  0  0  3  0  0  0  0  0  0
  186.7230  178.0520  144.0870 N   0  0  0  0  0  0  0  0  0  0  0  0
  188.0520  177.7900  144.0890 C   0  0  0  0  0  0  0  0  0  0  0  0
  184.6300  178.5210  143.0260 C   0  0  0  0  0  0  0  0  0  0  0  0
  190.8660  177.5320  141.6810 C   0  0  0  0  0  3  0  0  0  0  0  0
  181.8700  179.0340  143.1440 C   0  0  0  0  0  3  0  0  0  0  0  0
  183.9670  178.5680  144.2620 C   0  0  0  0  0  3  0  0  0  0  0  0
  188.7080  177.6310  147.8270 C   0  0  0  0  0  0  0  0  0  0  0  0
  188.0570  177.8820  149.0270 O   0  0  0  0  0  1  0  0  0  0  0  0
  188.7080  177.5690  145.3960 C   0  0  0  0  0  0  0  0  0  0  0  0
  190.0300  177.1800  147.8370 C   0  0  0  0  0  3  0  0  0  0  0  0
  190.0400  177.1350  145.4200 C   0  0  0  0  0  3  0  0  0  0  0  0
  188.0450  177.8340  146.6100 C   0  0  0  0  0  0  0  0  0  0  0  0
  186.7770  178.3190  146.6130 F   0  0  0  0  0  0  0  0  0  0  0  0
  190.7040  176.9320  146.6320 C   0  0  0  0  0  0  0  0  0  0  0  0
  192.5810  175.6710  147.6350 C   0  0  0  0  0  1  0  0  0  0  0  0
  192.0290  176.4890  146.6120 O   0  0  0  0  0  0  0  0  0  0  0  0
  188.8140  178.5130  138.0810 C   0  0  0  0  0  3  0  0  0  0  0  0
  188.1900  178.1150  139.1440 N   0  0  0  0  0  0  0  0  0  0  0  0
  188.0750  178.6730  136.8030 C   0  0  0  0  0  2  0  0  0  0  0  0
  186.6940  178.0700  136.9410 C   0  0  0  0  0  1  0  0  0  0  0  0
  1 14  1  0  0  0  0
  2 15  1  0  0  0  0
  2 13  1  0  0  0  0
  3  1  1  0  0  0  0
  4  7  1  0  0  0  0
  4  1  2  0  0  0  0
  5 11  2  0  0  0  0
  5  7  1  0  0  0  0
  7  2  2  0  0  0  0
  8 17  1  0  0  0  0
  9  8  2  0  0  0  0
  9 15  1  0  0  0  0
 10 12  2  0  0  0  0
 10  4  1  0  0  0  0
 11  9  1  0  0  0  0
 12 16  1  0  0  0  0
 13 14  2  0  0  0  0
 14 21  1  0  0  0  0
 15 18  2  0  0  0  0
 16  3  2  0  0  0  0
 17  6  2  0  0  0  0
 18  6  1  0  0  0  0
 19 22  1  0  0  0  0
 19 20  1  0  0  0  0
 21 23  2  0  0  0  0
 21 24  1  0  0  0  0
 23 26  1  0  0  0  0
 24 25  1  0  0  0  0
 24 19  2  0  0  0  0
 26 22  2  0  0  0  0
 28 26  1  0  0  0  0
 28 27  1  0  0  0  0
 29 30  2  0  0  0  0
 30 10  1  0  0  0  0
 31 32  1  0  0  0  0
 31 29  1  0  0  0  0
M  END
>  <MODEL>
3

>  <REMARK>
 VINA RESULT:     -10.5      3.247      7.372
  Name = 
  4 active torsions:
  status: ('A' for Active; 'I' for Inactive)
    1  A    between atoms: C_13  and  C_18
    2  A    between atoms: C_14  and  N_29
    3  A    between atoms: O_15  and  C_26
    4  A    between atoms: C_16  and  C_27
                            x       y       z     vdW  Elec       q    Type
                         _______ _______ _______ _____ _____    ______ ____

>  <TORSDO>
F 4

$$$$
=
 OpenBabel11052414383D

 32 36  0  0  0  0  0  0  0  0999 V2000
  186.4930  178.0680  144.2210 C   0  0  0  0  0  0  0  0  0  0  0  0
  188.2790  177.7290  142.1010 C   0  0  0  0  0  0  0  0  0  0  0  0
  185.5820  178.2940  145.2620 C   0  0  0  0  0  3  0  0  0  0  0  0
  187.8590  177.7850  144.5190 C   0  0  0  0  0  0  0  0  0  0  0  0
  190.1270  177.3270  143.6180 C   0  0  0  0  0  3  0  0  0  0  0  0
  189.5770  177.5260  138.6140 C   0  0  0  0  0  3  0  0  0  0  0  0
  188.7620  177.6090  143.4300 C   0  0  0  0  0  0  0  0  0  0  0  0
  191.3970  177.1280  140.1610 C   0  0  0  0  0  3  0  0  0  0  0  0
  190.5210  177.2880  141.2390 C   0  0  0  0  0  0  0  0  0  0  0  0
  188.2520  177.7060  145.8930 C   0  0  0  0  0  0  0  0  0  0  0  0
  190.9960  177.1670  142.5400 C   0  0  0  0  0  3  0  0  0  0  0  0
  187.2980  177.9290  146.9000 C   0  0  0  0  0  3  0  0  0  0  0  0
  186.9670  177.9950  141.8790 N   0  0  0  0  0  0  0  0  0  0  0  0
  186.0660  178.1500  142.8790 C   0  0  0  0  0  0  0  0  0  0  0  0
  189.1550  177.5700  141.0080 C   0  0  0  0  0  0  0  0  0  0  0  0
  185.9780  178.2230  146.5900 C   0  0  0  0  0  3  0  0  0  0  0  0
  190.9260  177.2460  138.8510 C   0  0  0  0  0  3  0  0  0  0  0  0
  188.6960  177.6870  139.6870 C   0  0  0  0  0  3  0  0  0  0  0  0
  182.9590  178.9990  140.8660 C   0  0  0  0  0  0  0  0  0  0  0  0
  182.5890  179.2800  139.5580 O   0  0  0  0  0  1  0  0  0  0  0  0
  184.6630  178.4300  142.5050 C   0  0  0  0  0  0  0  0  0  0  0  0
  181.9920  179.0030  141.8740 C   0  0  0  0  0  3  0  0  0  0  0  0
  183.6870  178.4540  143.5090 C   0  0  0  0  0  3  0  0  0  0  0  0
  184.2960  178.7210  141.1770 C   0  0  0  0  0  0  0  0  0  0  0  0
  185.2330  178.7690  140.1960 F   0  0  0  0  0  0  0  0  0  0  0  0
  182.3520  178.7330  143.2030 C   0  0  0  0  0  0  0  0  0  0  0  0
  180.0110  178.6280  143.9960 C   0  0  0  0  0  1  0  0  0  0  0  0
  181.4080  178.7380  144.2340 O   0  0  0  0  0  0  0  0  0  0  0  0
  189.9310  176.7590  147.3430 C   0  0  0  0  0  3  0  0  0  0  0  0
  189.6060  177.4050  146.2680 N   0  0  0  0  0  0  0  0  0  0  0  0
  191.3600  176.4960  147.6480 C   0  0  0  0  0  2  0  0  0  0  0  0
  192.0560  175.9890  146.4030 C   0  0  0  0  0  1  0  0  0  0  0  0
  1  4  1  0  0  0  0
  1  3  2  0  0  0  0
  2  7  1  0  0  0  0
  3 16  1  0  0  0  0
  4 10  2  0  0  0  0
  6 17  1  0  0  0  0
  6 18  2  0  0  0  0
  7  5  2  0  0  0  0
  7  4  1  0  0  0  0
  8  9  1  0  0  0  0
  9 11  2  0  0  0  0
 10 30  1  0  0  0  0
 10 12  1  0  0  0  0
 11  5  1  0  0  0  0
 13  2  1  0  0  0  0
 13 14  2  0  0  0  0
 14  1  1  0  0  0  0
 15  9  1  0  0  0  0
 15  2  2  0  0  0  0
 16 12  2  0  0  0  0
 17  8  2  0  0  0  0
 18 15  1  0  0  0  0
 19 24  2  0  0  0  0
 19 22  1  0  0  0  0
 20 19  1  0  0  0  0
 21 14  1  0  0  0  0
 21 23  2  0  0  0  0
 22 26  2  0  0  0  0
 24 21  1  0  0  0  0
 25 24  1  0  0  0  0
 26 23  1  0  0  0  0
 26 28  1  0  0  0  0
 27 28  1  0  0  0  0
 29 31  1  0  0  0  0
 30 29  2  0  0  0  0
 32 31  1  0  0  0  0
M  END
>  <MODEL>
4

>  <REMARK>
 VINA RESULT:     -10.3      3.226      7.146
  Name = 
  4 active torsions:
  status: ('A' for Active; 'I' for Inactive)
    1  A    between atoms: C_13  and  C_18
    2  A    between atoms: C_14  and  N_29
    3  A    between atoms: O_15  and  C_26
    4  A    between atoms: C_16  and  C_27
                            x       y       z     vdW  Elec       q    Type
                         _______ _______ _______ _____ _____    ______ ____

>  <TORSDO>
F 4

$$$$
=
 OpenBabel11052414383D

 32 36  0  0  0  0  0  0  0  0999 V2000
  185.2670  178.3450  143.9090 C   0  0  0  0  0  0  0  0  0  0  0  0
  187.5570  177.8730  142.3810 C   0  0  0  0  0  0  0  0  0  0  0  0
  184.1110  178.6380  144.6470 C   0  0  0  0  0  3  0  0  0  0  0  0
  186.4900  178.0570  144.5840 C   0  0  0  0  0  0  0  0  0  0  0  0
  188.9040  177.5210  144.3650 C   0  0  0  0  0  3  0  0  0  0  0  0
  189.7570  177.4740  139.4000 C   0  0  0  0  0  3  0  0  0  0  0  0
  187.6520  177.8130  143.7950 C   0  0  0  0  0  0  0  0  0  0  0  0
  191.0690  177.1280  141.4050 C   0  0  0  0  0  3  0  0  0  0  0  0
  189.9360  177.3550  142.1910 C   0  0  0  0  0  0  0  0  0  0  0  0
  186.4880  178.0420  146.0150 C   0  0  0  0  0  0  0  0  0  0  0  0
  190.0320  177.2940  143.5770 C   0  0  0  0  0  3  0  0  0  0  0  0
  185.3010  178.3300  146.7100 C   0  0  0  0  0  3  0  0  0  0  0  0
  186.3640  178.1460  141.7940 N   0  0  0  0  0  0  0  0  0  0  0  0
  185.2280  178.3660  142.4990 C   0  0  0  0  0  0  0  0  0  0  0  0
  188.6940  177.6460  141.5800 C   0  0  0  0  0  0  0  0  0  0  0  0
  184.1250  178.6280  146.0350 C   0  0  0  0  0  3  0  0  0  0  0  0
  190.9800  177.1870  140.0120 C   0  0  0  0  0  3  0  0  0  0  0  0
  188.6190  177.7030  140.1790 C   0  0  0  0  0  3  0  0  0  0  0  0
  182.8280  179.2600  139.6940 C   0  0  0  0  0  0  0  0  0  0  0  0
  182.8510  179.5830  138.3440 O   0  0  0  0  0  1  0  0  0  0  0  0
  183.9900  178.6470  141.7400 C   0  0  0  0  0  0  0  0  0  0  0  0
  181.6090  179.2200  140.3760 C   0  0  0  0  0  3  0  0  0  0  0  0
  182.7630  178.6280  142.4160 C   0  0  0  0  0  3  0  0  0  0  0  0
  184.0210  178.9810  140.3730 C   0  0  0  0  0  0  0  0  0  0  0  0
  185.2030  179.0710  139.7100 F   0  0  0  0  0  0  0  0  0  0  0  0
  181.5710  178.9060  141.7430 C   0  0  0  0  0  0  0  0  0  0  0  0
  180.3090  178.6280  143.8520 C   0  0  0  0  0  1  0  0  0  0  0  0
  180.3670  178.8670  142.4520 O   0  0  0  0  0  0  0  0  0  0  0  0
  187.9520  178.2530  147.9210 C   0  0  0  0  0  3  0  0  0  0  0  0
  187.6780  177.7410  146.7630 N   0  0  0  0  0  0  0  0  0  0  0  0
  189.2090  177.8810  148.6190 C   0  0  0  0  0  2  0  0  0  0  0  0
  190.1110  177.1280  147.6640 C   0  0  0  0  0  1  0  0  0  0  0  0
  1  4  1  0  0  0  0
  1  3  2  0  0  0  0
  2  7  1  0  0  0  0
  3 16  1  0  0  0  0
  4 10  2  0  0  0  0
  6 17  1  0  0  0  0
  6 18  2  0  0  0  0
  7  5  2  0  0  0  0
  7  4  1  0  0  0  0
  8  9  1  0  0  0  0
  9 11  2  0  0  0  0
 10 12  1  0  0  0  0
 10 30  1  0  0  0  0
 11  5  1  0  0  0  0
 13  2  1  0  0  0  0
 13 14  2  0  0  0  0
 14  1  1  0  0  0  0
 15  9  1  0  0  0  0
 15  2  2  0  0  0  0
 16 12  2  0  0  0  0
 17  8  2  0  0  0  0
 18 15  1  0  0  0  0
 19 24  2  0  0  0  0
 19 22  1  0  0  0  0
 20 19  1  0  0  0  0
 21 23  2  0  0  0  0
 21 14  1  0  0  0  0
 22 26  2  0  0  0  0
 24 21  1  0  0  0  0
 25 24  1  0  0  0  0
 26 23  1  0  0  0  0
 26 28  1  0  0  0  0
 28 27  1  0  0  0  0
 29 31  1  0  0  0  0
 30 29  2  0  0  0  0
 32 31  1  0  0  0  0
M  END
>  <MODEL>
5

>  <REMARK>
 VINA RESULT:     -10.1      3.298      6.776
  Name = 
  4 active torsions:
  status: ('A' for Active; 'I' for Inactive)
    1  A    between atoms: C_13  and  C_18
    2  A    between atoms: C_14  and  N_29
    3  A    between atoms: O_15  and  C_26
    4  A    between atoms: C_16  and  C_27
                            x       y       z     vdW  Elec       q    Type
                         _______ _______ _______ _____ _____    ______ ____

>  <TORSDO>
F 4

$$$$
=
 OpenBabel11052414383D

 32 36  0  0  0  0  0  0  0  0999 V2000
  187.5330  178.0160  141.4100 C   0  0  0  0  0  0  0  0  0  0  0  0
  188.9990  177.4110  143.7090 C   0  0  0  0  0  0  0  0  0  0  0  0
  186.7570  178.2740  140.2710 C   0  0  0  0  0  3  0  0  0  0  0  0
  188.9180  177.7010  141.2730 C   0  0  0  0  0  0  0  0  0  0  0  0
  191.0270  177.0760  142.4240 C   0  0  0  0  0  3  0  0  0  0  0  0
  189.7890  176.8040  147.3000 C   0  0  0  0  0  3  0  0  0  0  0  0
  189.6580  177.3990  142.4530 C   0  0  0  0  0  0  0  0  0  0  0  0
  191.7950  176.4800  145.9820 C   0  0  0  0  0  3  0  0  0  0  0  0
  191.0830  176.7850  144.8180 C   0  0  0  0  0  0  0  0  0  0  0  0
  189.4850  177.6940  139.9590 C   0  0  0  0  0  0  0  0  0  0  0  0
  191.7320  176.7740  143.5870 C   0  0  0  0  0  3  0  0  0  0  0  0
  188.6680  177.9710  138.8500 C   0  0  0  0  0  3  0  0  0  0  0  0
  187.6800  177.7230  143.7780 N   0  0  0  0  0  0  0  0  0  0  0  0
  186.9380  178.0370  142.6890 C   0  0  0  0  0  0  0  0  0  0  0  0
  189.7080  177.1040  144.8890 C   0  0  0  0  0  0  0  0  0  0  0  0
  187.3180  178.2550  139.0020 C   0  0  0  0  0  3  0  0  0  0  0  0
  191.1490  176.4900  147.2210 C   0  0  0  0  0  3  0  0  0  0  0  0
  189.0720  177.1090  146.1400 C   0  0  0  0  0  3  0  0  0  0  0  0
  183.6430  178.9620  144.3360 C   0  0  0  0  0  0  0  0  0  0  0  0
  183.1390  179.2770  145.5910 O   0  0  0  0  0  1  0  0  0  0  0  0
  185.5110  178.3660  142.8990 C   0  0  0  0  0  0  0  0  0  0  0  0
  182.7850  178.9270  143.2340 C   0  0  0  0  0  3  0  0  0  0  0  0
  184.6370  178.3160  141.8050 C   0  0  0  0  0  3  0  0  0  0  0  0
  185.0050  178.6760  144.1760 C   0  0  0  0  0  0  0  0  0  0  0  0
  185.8180  178.6660  145.2630 F   0  0  0  0  0  0  0  0  0  0  0  0
  183.2780  178.5990  141.9620 C   0  0  0  0  0  0  0  0  0  0  0  0
  181.1590  179.1580  140.8150 C   0  0  0  0  0  1  0  0  0  0  0  0
  182.4420  178.5480  140.8440 O   0  0  0  0  0  0  0  0  0  0  0  0
  191.3360  176.7980  138.6980 C   0  0  0  0  0  3  0  0  0  0  0  0
  190.8770  177.4060  139.7460 N   0  0  0  0  0  0  0  0  0  0  0  0
  192.7930  176.5440  138.5660 C   0  0  0  0  0  2  0  0  0  0  0  0
  193.5230  177.1780  139.7300 C   0  0  0  0  0  1  0  0  0  0  0  0
  1 14  1  0  0  0  0
  2 13  1  0  0  0  0
  2 15  1  0  0  0  0
  3  1  1  0  0  0  0
  4  1  2  0  0  0  0
  4  7  1  0  0  0  0
  5  7  1  0  0  0  0
  5 11  2  0  0  0  0
  7  2  2  0  0  0  0
  8 17  2  0  0  0  0
  9 15  2  0  0  0  0
  9  8  1  0  0  0  0
 10  4  1  0  0  0  0
 11  9  1  0  0  0  0
 12 16  1  0  0  0  0
 12 10  2  0  0  0  0
 14 21  1  0  0  0  0
 14 13  2  0  0  0  0
 15 18  1  0  0  0  0
 16  3  2  0  0  0  0
 17  6  1  0  0  0  0
 18  6  2  0  0  0  0
 19 20  1  0  0  0  0
 21 24  2  0  0  0  0
 22 19  2  0  0  0  0
 23 26  2  0  0  0  0
 23 21  1  0  0  0  0
 24 19  1  0  0  0  0
 24 25  1  0  0  0  0
 26 22  1  0  0  0  0
 27 28  1  0  0  0  0
 28 26  1  0  0  0  0
 29 30  2  0  0  0  0
 30 10  1  0  0  0  0
 31 29  1  0  0  0  0
 31 32  1  0  0  0  0
M  END
>  <MODEL>
6

>  <REMARK>
 VINA RESULT:     -10.1      3.224      6.447
  Name = 
  4 active torsions:
  status: ('A' for Active; 'I' for Inactive)
    1  A    between atoms: C_13  and  C_18
    2  A    between atoms: C_14  and  N_29
    3  A    between atoms: O_15  and  C_26
    4  A    between atoms: C_16  and  C_27
                            x       y       z     vdW  Elec       q    Type
                         _______ _______ _______ _____ _____    ______ ____

>  <TORSDO>
F 4

$$$$
=
 OpenBabel11052414383D

 32 36  0  0  0  0  0  0  0  0999 V2000
  184.5670  178.5380  142.6940 C   0  0  0  0  0  0  0  0  0  0  0  0
  187.0940  178.0950  141.5890 C   0  0  0  0  0  0  0  0  0  0  0  0
  183.2950  178.8150  143.2150 C   0  0  0  0  0  3  0  0  0  0  0  0
  185.6680  178.3250  143.5750 C   0  0  0  0  0  0  0  0  0  0  0  0
  188.1010  177.8760  143.7830 C   0  0  0  0  0  3  0  0  0  0  0  0
  189.7730  177.6640  139.0360 C   0  0  0  0  0  3  0  0  0  0  0  0
  186.9530  178.0950  143.0010 C   0  0  0  0  0  0  0  0  0  0  0  0
  190.7420  177.4490  141.2450 C   0  0  0  0  0  3  0  0  0  0  0  0
  189.4860  177.6630  141.8210 C   0  0  0  0  0  0  0  0  0  0  0  0
  185.4270  178.3670  144.9840 C   0  0  0  0  0  0  0  0  0  0  0  0
  189.3510  177.6610  143.2050 C   0  0  0  0  0  3  0  0  0  0  0  0
  184.1320  178.6360  145.4590 C   0  0  0  0  0  3  0  0  0  0  0  0
  186.0080  178.2980  140.8010 N   0  0  0  0  0  0  0  0  0  0  0  0
  184.7630  178.5010  141.2970 C   0  0  0  0  0  0  0  0  0  0  0  0
  188.3560  177.8800  140.9990 C   0  0  0  0  0  0  0  0  0  0  0  0
  183.0770  178.8610  144.5850 C   0  0  0  0  0  3  0  0  0  0  0  0
  190.8850  177.4490  139.8550 C   0  0  0  0  0  3  0  0  0  0  0  0
  188.5150  177.8780  139.6050 C   0  0  0  0  0  3  0  0  0  0  0  0
  181.8220  177.8650  138.9800 C   0  0  0  0  0  0  0  0  0  0  0  0
  181.0070  176.8190  138.5670 O   0  0  0  0  0  1  0  0  0  0  0  0
  183.6610  178.7030  140.3320 C   0  0  0  0  0  0  0  0  0  0  0  0
  181.6240  179.1450  138.4570 C   0  0  0  0  0  3  0  0  0  0  0  0
  183.4640  179.9780  139.7860 C   0  0  0  0  0  3  0  0  0  0  0  0
  182.8430  177.6360  139.9110 C   0  0  0  0  0  0  0  0  0  0  0  0
  183.0550  176.3780  140.3740 F   0  0  0  0  0  0  0  0  0  0  0  0
  182.4480  180.2090  138.8560 C   0  0  0  0  0  0  0  0  0  0  0  0
  181.0150  182.0010  137.9320 C   0  0  0  0  0  1  0  0  0  0  0  0
  182.2790  181.4980  138.3440 O   0  0  0  0  0  0  0  0  0  0  0  0
  186.4390  178.5280  147.1680 C   0  0  0  0  0  3  0  0  0  0  0  0
  186.4840  178.1430  145.9320 N   0  0  0  0  0  0  0  0  0  0  0  0
  187.5830  178.2500  148.0740 C   0  0  0  0  0  2  0  0  0  0  0  0
  188.4620  177.1810  147.4630 C   0  0  0  0  0  1  0  0  0  0  0  0
  1  3  2  0  0  0  0
  1  4  1  0  0  0  0
  2  7  1  0  0  0  0
  3 16  1  0  0  0  0
  4 10  2  0  0  0  0
  6 18  2  0  0  0  0
  6 17  1  0  0  0  0
  7  4  1  0  0  0  0
  7  5  2  0  0  0  0
  8  9  1  0  0  0  0
  9 11  2  0  0  0  0
 10 12  1  0  0  0  0
 10 30  1  0  0  0  0
 11  5  1  0  0  0  0
 13 14  2  0  0  0  0
 13  2  1  0  0  0  0
 14  1  1  0  0  0  0
 15  2  2  0  0  0  0
 15  9  1  0  0  0  0
 16 12  2  0  0  0  0
 17  8  2  0  0  0  0
 18 15  1  0  0  0  0
 19 24  1  0  0  0  0
 20 19  1  0  0  0  0
 21 14  1  0  0  0  0
 22 26  1  0  0  0  0
 22 19  2  0  0  0  0
 23 21  1  0  0  0  0
 24 21  2  0  0  0  0
 24 25  1  0  0  0  0
 26 23  2  0  0  0  0
 27 28  1  0  0  0  0
 28 26  1  0  0  0  0
 29 31  1  0  0  0  0
 30 29  2  0  0  0  0
 32 31  1  0  0  0  0
M  END
>  <MODEL>
7

>  <REMARK>
 VINA RESULT:     -10.0      3.667      6.625
  Name = 
  4 active torsions:
  status: ('A' for Active; 'I' for Inactive)
    1  A    between atoms: C_13  and  C_18
    2  A    between atoms: C_14  and  N_29
    3  A    between atoms: O_15  and  C_26
    4  A    between atoms: C_16  and  C_27
                            x       y       z     vdW  Elec       q    Type
                         _______ _______ _______ _____ _____    ______ ____

>  <TORSDO>
F 4

$$$$
=
 OpenBabel11052414383D

 32 36  0  0  0  0  0  0  0  0999 V2000
  186.6010  178.2610  141.7480 C   0  0  0  0  0  0  0  0  0  0  0  0
  187.3750  177.9680  144.4160 C   0  0  0  0  0  0  0  0  0  0  0  0
  186.2570  178.4510  140.4020 C   0  0  0  0  0  3  0  0  0  0  0  0
  185.6200  178.4500  142.7680 C   0  0  0  0  0  0  0  0  0  0  0  0
  185.1350  178.4590  145.2020 C   0  0  0  0  0  3  0  0  0  0  0  0
  189.5380  177.3530  147.3870 C   0  0  0  0  0  3  0  0  0  0  0  0
  186.0250  178.2940  144.1260 C   0  0  0  0  0  0  0  0  0  0  0  0
  187.2880  177.8470  148.1340 C   0  0  0  0  0  3  0  0  0  0  0  0
  186.8750  177.9930  146.8060 C   0  0  0  0  0  0  0  0  0  0  0  0
  184.2900  178.7990  142.3730 C   0  0  0  0  0  0  0  0  0  0  0  0
  185.5500  178.3110  146.5240 C   0  0  0  0  0  3  0  0  0  0  0  0
  183.9930  178.9670  141.0100 C   0  0  0  0  0  3  0  0  0  0  0  0
  188.2620  177.7950  143.4030 N   0  0  0  0  0  0  0  0  0  0  0  0
  187.9220  177.9130  142.0970 C   0  0  0  0  0  0  0  0  0  0  0  0
  187.8000  177.8190  145.7510 C   0  0  0  0  0  0  0  0  0  0  0  0
  184.9650  178.7980  140.0340 C   0  0  0  0  0  3  0  0  0  0  0  0
  188.6160  177.5270  148.4240 C   0  0  0  0  0  3  0  0  0  0  0  0
  189.1320  177.4980  146.0580 C   0  0  0  0  0  3  0  0  0  0  0  0
  191.3030  177.3190  140.4710 C   0  0  0  0  0  0  0  0  0  0  0  0
  192.6300  177.1250  140.8290 O   0  0  0  0  0  1  0  0  0  0  0  0
  188.9810  177.6920  141.0880 C   0  0  0  0  0  0  0  0  0  0  0  0
  190.9450  177.3330  139.1200 C   0  0  0  0  0  3  0  0  0  0  0  0
  188.6380  177.7230  139.7300 C   0  0  0  0  0  3  0  0  0  0  0  0
  190.3270  177.5040  141.4580 C   0  0  0  0  0  0  0  0  0  0  0  0
  190.6960  177.5370  142.7640 F   0  0  0  0  0  0  0  0  0  0  0  0
  189.6100  177.5390  138.7430 C   0  0  0  0  0  0  0  0  0  0  0  0
  188.4620  178.6290  136.8420 C   0  0  0  0  0  1  0  0  0  0  0  0
  189.2240  177.5670  137.4000 O   0  0  0  0  0  0  0  0  0  0  0  0
  181.9840  179.0030  143.0510 C   0  0  0  0  0  3  0  0  0  0  0  0
  183.2460  178.9870  143.3430 N   0  0  0  0  0  0  0  0  0  0  0  0
  180.9770  179.2030  144.1240 C   0  0  0  0  0  2  0  0  0  0  0  0
  179.8640  178.1900  143.9660 C   0  0  0  0  0  1  0  0  0  0  0  0
  1 14  2  0  0  0  0
  1  4  1  0  0  0  0
  2 15  1  0  0  0  0
  3  1  1  0  0  0  0
  4  7  2  0  0  0  0
  5 11  2  0  0  0  0
  6 17  1  0  0  0  0
  7  2  1  0  0  0  0
  7  5  1  0  0  0  0
  8 17  2  0  0  0  0
  9  8  1  0  0  0  0
 10  4  1  0  0  0  0
 10 30  1  0  0  0  0
 11  9  1  0  0  0  0
 12 10  2  0  0  0  0
 13  2  2  0  0  0  0
 14 13  1  0  0  0  0
 15 18  1  0  0  0  0
 15  9  2  0  0  0  0
 16  3  2  0  0  0  0
 16 12  1  0  0  0  0
 18  6  2  0  0  0  0
 19 20  1  0  0  0  0
 19 24  1  0  0  0  0
 21 24  2  0  0  0  0
 21 14  1  0  0  0  0
 22 19  2  0  0  0  0
 23 21  1  0  0  0  0
 24 25  1  0  0  0  0
 26 22  1  0  0  0  0
 26 23  2  0  0  0  0
 27 28  1  0  0  0  0
 28 26  1  0  0  0  0
 29 30  2  0  0  0  0
 29 31  1  0  0  0  0
 32 31  1  0  0  0  0
M  END
>  <MODEL>
8

>  <REMARK>
 VINA RESULT:     -10.0      1.651      2.360
  Name = 
  4 active torsions:
  status: ('A' for Active; 'I' for Inactive)
    1  A    between atoms: C_13  and  C_18
    2  A    between atoms: C_14  and  N_29
    3  A    between atoms: O_15  and  C_26
    4  A    between atoms: C_16  and  C_27
                            x       y       z     vdW  Elec       q    Type
                         _______ _______ _______ _____ _____    ______ ____

>  <TORSDO>
F 4

$$$$
=
 OpenBabel11052414383D

 32 36  0  0  0  0  0  0  0  0999 V2000
  189.5290  177.4330  141.9850 C   0  0  0  0  0  0  0  0  0  0  0  0
  187.1150  178.0020  143.2700 C   0  0  0  0  0  0  0  0  0  0  0  0
  190.7100  177.1030  141.3070 C   0  0  0  0  0  3  0  0  0  0  0  0
  189.4880  177.3880  143.4110 C   0  0  0  0  0  0  0  0  0  0  0  0
  188.1090  177.6670  145.4560 C   0  0  0  0  0  3  0  0  0  0  0  0
  183.5270  178.8840  143.7520 C   0  0  0  0  0  3  0  0  0  0  0  0
  188.2520  177.6850  144.0570 C   0  0  0  0  0  0  0  0  0  0  0  0
  184.5560  178.5430  145.9170 C   0  0  0  0  0  3  0  0  0  0  0  0
  185.7760  178.2600  145.2970 C   0  0  0  0  0  0  0  0  0  0  0  0
  190.6840  177.0350  144.1120 C   0  0  0  0  0  0  0  0  0  0  0  0
  186.8900  177.9510  146.0700 C   0  0  0  0  0  3  0  0  0  0  0  0
  191.8470  176.7240  143.3880 C   0  0  0  0  0  3  0  0  0  0  0  0
  187.2150  178.0350  141.9170 N   0  0  0  0  0  0  0  0  0  0  0  0
  188.3710  177.7800  141.2570 C   0  0  0  0  0  0  0  0  0  0  0  0
  185.8800  178.2880  143.8870 C   0  0  0  0  0  0  0  0  0  0  0  0
  191.8610  176.7540  142.0010 C   0  0  0  0  0  3  0  0  0  0  0  0
  183.4330  178.8550  145.1460 C   0  0  0  0  0  3  0  0  0  0  0  0
  184.7440  178.6030  143.1250 C   0  0  0  0  0  3  0  0  0  0  0  0
  187.2130  178.2910  137.6760 C   0  0  0  0  0  0  0  0  0  0  0  0
  186.0820  178.6880  136.9760 O   0  0  0  0  0  1  0  0  0  0  0  0
  188.3510  177.8550  139.7800 C   0  0  0  0  0  0  0  0  0  0  0  0
  188.3660  177.9240  136.9780 C   0  0  0  0  0  3  0  0  0  0  0  0
  189.4950  177.4730  139.0680 C   0  0  0  0  0  3  0  0  0  0  0  0
  187.1980  178.2520  139.0760 C   0  0  0  0  0  0  0  0  0  0  0  0
  186.0560  178.5630  139.7400 F   0  0  0  0  0  0  0  0  0  0  0  0
  189.5140  177.5100  137.6710 C   0  0  0  0  0  0  0  0  0  0  0  0
  190.7400  175.9860  136.1560 C   0  0  0  0  0  1  0  0  0  0  0  0
  190.6780  177.1290  136.9990 O   0  0  0  0  0  0  0  0  0  0  0  0
  191.6740  176.4280  146.2270 C   0  0  0  0  0  3  0  0  0  0  0  0
  190.7230  176.9880  145.5490 N   0  0  0  0  0  0  0  0  0  0  0  0
  191.6270  176.4290  147.7110 C   0  0  0  0  0  2  0  0  0  0  0  0
  192.7910  175.6280  148.2530 C   0  0  0  0  0  1  0  0  0  0  0  0
  1  4  1  0  0  0  0
  2 15  2  0  0  0  0
  2  7  1  0  0  0  0
  3  1  2  0  0  0  0
  3 16  1  0  0  0  0
  4  7  1  0  0  0  0
  4 10  2  0  0  0  0
  5 11  1  0  0  0  0
  6 17  1  0  0  0  0
  7  5  2  0  0  0  0
  9  8  1  0  0  0  0
  9 11  2  0  0  0  0
 10 30  1  0  0  0  0
 12 10  1  0  0  0  0
 13  2  1  0  0  0  0
 14 13  2  0  0  0  0
 14  1  1  0  0  0  0
 15  9  1  0  0  0  0
 16 12  2  0  0  0  0
 17  8  2  0  0  0  0
 18  6  2  0  0  0  0
 18 15  1  0  0  0  0
 19 24  1  0  0  0  0
 20 19  1  0  0  0  0
 21 14  1  0  0  0  0
 22 26  1  0  0  0  0
 22 19  2  0  0  0  0
 23 21  1  0  0  0  0
 24 25  1  0  0  0  0
 24 21  2  0  0  0  0
 26 23  2  0  0  0  0
 27 28  1  0  0  0  0
 28 26  1  0  0  0  0
 29 31  1  0  0  0  0
 30 29  2  0  0  0  0
 31 32  1  0  0  0  0
M  END
>  <MODEL>
9

>  <REMARK>
 VINA RESULT:      -9.9      1.998      5.313
  Name = 
  4 active torsions:
  status: ('A' for Active; 'I' for Inactive)
    1  A    between atoms: C_13  and  C_18
    2  A    between atoms: C_14  and  N_29
    3  A    between atoms: O_15  and  C_26
    4  A    between atoms: C_16  and  C_27
                            x       y       z     vdW  Elec       q    Type
                         _______ _______ _______ _____ _____    ______ ____

>  <TORSDO>
F 4

$$$$
