=
 OpenBabel11052415543D

 34 37  0  0  1  0  0  0  0  0999 V2000
  183.1920  178.6980  139.4030 C   0  0  1  0  0  3  0  0  0  0  0  0
  180.5160  179.1320  138.1470 C   0  0  0  0  0  2  0  0  0  0  0  0
  182.3060  176.2590  139.6950 C   0  0  0  0  0  2  0  0  0  0  0  0
  180.9150  175.6550  139.5080 C   0  0  0  0  0  2  0  0  0  0  0  0
  180.8010  178.0250  139.1470 C   0  0  2  0  0  3  0  0  0  0  0  0
  182.2270  177.5870  138.9830 C   0  0  1  0  0  3  0  0  0  0  0  0
  180.0190  176.7550  138.9350 C   0  0  0  0  0  2  0  0  0  0  0  0
  181.4360  180.3270  138.4560 C   0  0  1  0  0  3  0  0  0  0  0  0
  183.7360  180.9850  138.8420 O   0  0  0  0  0  1  0  0  0  0  0  0
  182.9240  179.9060  138.4820 C   0  0  1  0  0  3  0  0  0  0  0  0
  181.2210  181.4230  137.4220 C   0  0  0  0  0  2  0  0  0  0  0  0
  180.8000  182.7310  138.0850 C   0  0  2  0  0  3  0  0  0  0  0  0
  179.4250  182.7100  138.3370 O   0  0  0  0  0  1  0  0  0  0  0  0
  181.1610  183.9330  137.2120 C   0  0  2  0  0  0  0  0  0  0  0  0
  182.3850  184.4660  137.6210 O   0  0  0  0  0  1  0  0  0  0  0  0
  180.0980  185.0080  137.3470 C   0  0  0  0  0  1  0  0  0  0  0  0
  181.2510  183.5520  135.8840 F   0  0  0  0  0  0  0  0  0  0  0  0
  183.0460  179.0880  140.8810 C   0  0  0  0  0  2  0  0  0  0  0  0
  184.3350  178.9380  141.6150 C   0  0  0  0  0  0  0  0  0  0  0  0
  185.4980  179.4410  141.0430 O   0  0  0  0  0  1  0  0  0  0  0  0
  184.3430  178.3220  142.8030 C   0  0  0  0  0  3  0  0  0  0  0  0
  186.4660  178.1510  145.9030 C   0  0  0  0  0  3  0  0  0  0  0  0
  186.7440  177.6260  143.1650 C   0  0  0  0  0  3  0  0  0  0  0  0
  189.9940  177.0260  145.7640 C   0  0  0  0  0  0  0  0  0  0  0  0
  188.7680  177.4890  146.2650 C   0  0  0  0  0  3  0  0  0  0  0  0
  187.6860  177.6900  145.4050 C   0  0  0  0  0  0  0  0  0  0  0  0
  189.0470  176.9640  143.5260 C   0  0  0  0  0  3  0  0  0  0  0  0
  187.8270  177.4250  144.0250 C   0  0  0  0  0  0  0  0  0  0  0  0
  190.1240  176.7650  144.3920 C   0  0  0  0  0  3  0  0  0  0  0  0
  185.5160  178.0890  143.6650 C   0  0  0  0  0  0  0  0  0  0  0  0
  185.3870  178.3500  145.0360 C   0  0  0  0  0  3  0  0  0  0  0  0
  191.1360  176.8130  146.6670 C   0  0  0  0  0  0  0  0  0  0  0  0
  191.1030  177.3010  147.9680 O   0  0  0  0  0  1  0  0  0  0  0  0
  192.1540  176.1840  146.2720 O   0  0  0  0  0  0  0  0  0  0  0  0
  1 18  1  1  0  0  0
  2  8  1  0  0  0  0
  4  3  1  0  0  0  0
  5  2  1  6  0  0  0
  6  5  1  0  0  0  0
  6  1  1  0  0  0  0
  6  3  1  1  0  0  0
  7  5  1  0  0  0  0
  7  4  1  0  0  0  0
  8 11  1  6  0  0  0
  8 10  1  0  0  0  0
 10  9  1  1  0  0  0
 10  1  1  0  0  0  0
 11 12  1  0  0  0  0
 12 13  1  6  0  0  0
 14 16  1  1  0  0  0
 14 15  1  0  0  0  0
 14 12  1  0  0  0  0
 17 14  1  0  0  0  0
 18 19  1  0  0  0  0
 19 21  2  0  0  0  0
 20 19  1  0  0  0  0
 21 30  1  0  0  0  0
 23 30  2  0  0  0  0
 23 28  1  0  0  0  0
 24 25  1  0  0  0  0
 24 32  1  0  0  0  0
 26 22  1  0  0  0  0
 26 25  2  0  0  0  0
 27 28  2  0  0  0  0
 27 29  1  0  0  0  0
 28 26  1  0  0  0  0
 29 24  2  0  0  0  0
 30 31  1  0  0  0  0
 31 22  2  0  0  0  0
 32 33  1  0  0  0  0
 34 32  2  0  0  0  0
M  END
>  <MODEL>
1

>  <REMARK>
 VINA RESULT:      -9.7      0.000      0.000
  Name = 
  7 active torsions:
  status: ('A' for Active; 'I' for Inactive)
    1  A    between atoms: C_1  and  C_9
    2  A    between atoms: C_2  and  C_23
    3  A    between atoms: C_2  and  C_32
    4  A    between atoms: C_3  and  C_23
    5  A    between atoms: C_7  and  C_11
    6  A    between atoms: C_8  and  C_9
    7  A    between atoms: C_18  and  C_30
                            x       y       z     vdW  Elec       q    Type
                         _______ _______ _______ _____ _____    ______ ____

>  <TORSDO>
F 7

$$$$
=
 OpenBabel11052415543D

 34 37  0  0  1  0  0  0  0  0999 V2000
  182.3920  178.3690  142.0660 C   0  0  1  0  0  3  0  0  0  0  0  0
  180.0290  179.4660  140.6040 C   0  0  0  0  0  2  0  0  0  0  0  0
  180.7380  178.3580  144.0860 C   0  0  0  0  0  2  0  0  0  0  0  0
  179.3480  178.9680  144.2630 C   0  0  0  0  0  2  0  0  0  0  0  0
  180.2090  179.5800  142.1080 C   0  0  2  0  0  3  0  0  0  0  0  0
  180.9550  178.3710  142.5930 C   0  0  1  0  0  3  0  0  0  0  0  0
  178.9330  179.5460  142.9090 C   0  0  0  0  0  2  0  0  0  0  0  0
  181.4170  179.4470  139.9390 C   0  0  1  0  0  3  0  0  0  0  0  0
  183.5920  178.3790  139.9680 O   0  0  0  0  0  1  0  0  0  0  0  0
  182.3110  178.3300  140.5250 C   0  0  1  0  0  3  0  0  0  0  0  0
  181.2660  179.2610  138.4360 C   0  0  0  0  0  2  0  0  0  0  0  0
  181.5370  180.5640  137.6900 C   0  0  2  0  0  3  0  0  0  0  0  0
  182.2650  181.4330  138.5090 O   0  0  0  0  0  1  0  0  0  0  0  0
  180.2320  181.2240  137.2440 C   0  0  2  0  0  0  0  0  0  0  0  0
  179.2420  180.2540  137.0730 O   0  0  0  0  0  1  0  0  0  0  0  0
  180.4410  181.9380  135.9200 C   0  0  0  0  0  1  0  0  0  0  0  0
  179.8110  182.1430  138.1890 F   0  0  0  0  0  0  0  0  0  0  0  0
  183.2060  179.5790  142.5450 C   0  0  0  0  0  2  0  0  0  0  0  0
  184.5400  179.1660  143.0690 C   0  0  0  0  0  0  0  0  0  0  0  0
  185.6340  179.1830  142.2110 O   0  0  0  0  0  1  0  0  0  0  0  0
  184.6520  178.7890  144.3470 C   0  0  0  0  0  3  0  0  0  0  0  0
  187.0260  177.9370  147.1380 C   0  0  0  0  0  3  0  0  0  0  0  0
  187.0440  177.9750  144.3370 C   0  0  0  0  0  3  0  0  0  0  0  0
  190.4770  176.7780  146.4480 C   0  0  0  0  0  0  0  0  0  0  0  0
  189.3200  177.1580  147.1430 C   0  0  0  0  0  3  0  0  0  0  0  0
  188.1770  177.5570  146.4460 C   0  0  0  0  0  0  0  0  0  0  0  0
  189.3380  177.1980  144.3410 C   0  0  0  0  0  3  0  0  0  0  0  0
  188.1870  177.5760  145.0340 C   0  0  0  0  0  0  0  0  0  0  0  0
  190.4770  176.8000  145.0450 C   0  0  0  0  0  3  0  0  0  0  0  0
  185.8850  178.3570  145.0320 C   0  0  0  0  0  0  0  0  0  0  0  0
  185.8860  178.3350  146.4330 C   0  0  0  0  0  3  0  0  0  0  0  0
  191.6830  176.3570  147.1790 C   0  0  0  0  0  0  0  0  0  0  0  0
  192.1110  177.0670  148.2940 O   0  0  0  0  0  1  0  0  0  0  0  0
  192.3380  175.3480  146.8030 O   0  0  0  0  0  0  0  0  0  0  0  0
  1 18  1  6  0  0  0
  1  6  1  0  0  0  0
  3  4  1  0  0  0  0
  5  2  1  6  0  0  0
  5  6  1  0  0  0  0
  5  7  1  0  0  0  0
  6  3  1  1  0  0  0
  7  4  1  0  0  0  0
  8 11  1  6  0  0  0
  8 10  1  0  0  0  0
  8  2  1  0  0  0  0
 10  9  1  6  0  0  0
 10  1  1  0  0  0  0
 12 11  1  0  0  0  0
 12 13  1  1  0  0  0
 14 16  1  6  0  0  0
 14 12  1  0  0  0  0
 14 17  1  0  0  0  0
 15 14  1  0  0  0  0
 18 19  1  0  0  0  0
 19 21  2  0  0  0  0
 20 19  1  0  0  0  0
 21 30  1  0  0  0  0
 23 30  2  0  0  0  0
 23 28  1  0  0  0  0
 24 25  1  0  0  0  0
 24 32  1  0  0  0  0
 26 22  1  0  0  0  0
 26 25  2  0  0  0  0
 27 28  2  0  0  0  0
 27 29  1  0  0  0  0
 28 26  1  0  0  0  0
 29 24  2  0  0  0  0
 30 31  1  0  0  0  0
 31 22  2  0  0  0  0
 32 33  1  0  0  0  0
 34 32  2  0  0  0  0
M  END
>  <MODEL>
2

>  <REMARK>
 VINA RESULT:      -9.0      2.002      2.711
  Name = 
  7 active torsions:
  status: ('A' for Active; 'I' for Inactive)
    1  A    between atoms: C_1  and  C_9
    2  A    between atoms: C_2  and  C_23
    3  A    between atoms: C_2  and  C_32
    4  A    between atoms: C_3  and  C_23
    5  A    between atoms: C_7  and  C_11
    6  A    between atoms: C_8  and  C_9
    7  A    between atoms: C_18  and  C_30
                            x       y       z     vdW  Elec       q    Type
                         _______ _______ _______ _____ _____    ______ ____

>  <TORSDO>
F 7

$$$$
=
 OpenBabel11052415543D

 34 37  0  0  1  0  0  0  0  0999 V2000
  181.9860  178.8370  139.5390 C   0  0  1  0  0  3  0  0  0  0  0  0
  180.1930  178.9820  137.1540 C   0  0  0  0  0  2  0  0  0  0  0  0
  181.4330  176.2890  139.4040 C   0  0  0  0  0  2  0  0  0  0  0  0
  180.4000  175.5170  138.5840 C   0  0  0  0  0  2  0  0  0  0  0  0
  180.1280  177.8670  138.1830 C   0  0  2  0  0  3  0  0  0  0  0  0
  181.5080  177.6340  138.7240 C   0  0  1  0  0  3  0  0  0  0  0  0
  179.7340  176.5180  137.6390 C   0  0  0  0  0  2  0  0  0  0  0  0
  180.6720  180.2700  137.8480 C   0  0  1  0  0  3  0  0  0  0  0  0
  182.3910  181.2060  139.2770 O   0  0  0  0  0  1  0  0  0  0  0  0
  182.0140  180.0510  138.5860 C   0  0  1  0  0  3  0  0  0  0  0  0
  180.8160  181.3850  136.8240 C   0  0  0  0  0  2  0  0  0  0  0  0
  180.4380  182.7360  137.4240 C   0  0  2  0  0  3  0  0  0  0  0  0
  179.0500  182.8160  137.5690 O   0  0  0  0  0  1  0  0  0  0  0  0
  180.9480  183.8870  136.5550 C   0  0  2  0  0  0  0  0  0  0  0  0
  182.0060  184.5330  137.1970 O   0  0  0  0  0  1  0  0  0  0  0  0
  179.8350  184.8940  136.3270 C   0  0  0  0  0  1  0  0  0  0  0  0
  181.3810  183.4090  135.3310 F   0  0  0  0  0  0  0  0  0  0  0  0
  181.1030  179.1170  140.7640 C   0  0  0  0  0  2  0  0  0  0  0  0
  181.8540  178.9140  142.0360 C   0  0  0  0  0  0  0  0  0  0  0  0
  181.1460  178.8230  143.2280 O   0  0  0  0  0  1  0  0  0  0  0  0
  183.1880  178.8250  141.9990 C   0  0  0  0  0  3  0  0  0  0  0  0
  184.4140  178.7810  145.5550 C   0  0  0  0  0  3  0  0  0  0  0  0
  185.3930  178.1240  143.0140 C   0  0  0  0  0  3  0  0  0  0  0  0
  187.8280  177.6170  146.4040 C   0  0  0  0  0  0  0  0  0  0  0  0
  186.5240  178.1140  146.5420 C   0  0  0  0  0  3  0  0  0  0  0  0
  185.7120  178.2850  145.4180 C   0  0  0  0  0  0  0  0  0  0  0  0
  187.5040  177.4580  143.9990 C   0  0  0  0  0  3  0  0  0  0  0  0
  186.2060  177.9530  144.1370 C   0  0  0  0  0  0  0  0  0  0  0  0
  188.3100  177.2900  145.1270 C   0  0  0  0  0  3  0  0  0  0  0  0
  184.0880  178.6220  143.1500 C   0  0  0  0  0  0  0  0  0  0  0  0
  183.6070  178.9480  144.4260 C   0  0  0  0  0  3  0  0  0  0  0  0
  188.6870  177.4350  147.5850 C   0  0  0  0  0  0  0  0  0  0  0  0
  188.3250  177.9890  148.8070 O   0  0  0  0  0  1  0  0  0  0  0  0
  189.7570  176.7740  147.5020 O   0  0  0  0  0  0  0  0  0  0  0  0
  1 18  1  1  0  0  0
  2  8  1  0  0  0  0
  4  3  1  0  0  0  0
  5  2  1  6  0  0  0
  5  6  1  0  0  0  0
  6  3  1  1  0  0  0
  6  1  1  0  0  0  0
  7  5  1  0  0  0  0
  7  4  1  0  0  0  0
  8 11  1  6  0  0  0
  8 10  1  0  0  0  0
 10  9  1  1  0  0  0
 10  1  1  0  0  0  0
 11 12  1  0  0  0  0
 12 13  1  6  0  0  0
 14 16  1  6  0  0  0
 14 15  1  0  0  0  0
 14 12  1  0  0  0  0
 17 14  1  0  0  0  0
 18 19  1  0  0  0  0
 19 20  1  0  0  0  0
 21 19  2  0  0  0  0
 21 30  1  0  0  0  0
 23 30  2  0  0  0  0
 23 28  1  0  0  0  0
 24 25  1  0  0  0  0
 24 32  1  0  0  0  0
 26 22  1  0  0  0  0
 26 25  2  0  0  0  0
 27 28  2  0  0  0  0
 27 29  1  0  0  0  0
 28 26  1  0  0  0  0
 29 24  2  0  0  0  0
 30 31  1  0  0  0  0
 31 22  2  0  0  0  0
 32 33  1  0  0  0  0
 34 32  2  0  0  0  0
M  END
>  <MODEL>
3

>  <REMARK>
 VINA RESULT:      -8.9      1.429      1.839
  Name = 
  7 active torsions:
  status: ('A' for Active; 'I' for Inactive)
    1  A    between atoms: C_1  and  C_9
    2  A    between atoms: C_2  and  C_23
    3  A    between atoms: C_2  and  C_32
    4  A    between atoms: C_3  and  C_23
    5  A    between atoms: C_7  and  C_11
    6  A    between atoms: C_8  and  C_9
    7  A    between atoms: C_18  and  C_30
                            x       y       z     vdW  Elec       q    Type
                         _______ _______ _______ _____ _____    ______ ____

>  <TORSDO>
F 7

$$$$
=
 OpenBabel11052415543D

 34 37  0  0  1  0  0  0  0  0999 V2000
  188.6070  177.0240  144.9850 C   0  0  1  0  0  3  0  0  0  0  0  0
  186.3870  178.4340  146.4030 C   0  0  0  0  0  2  0  0  0  0  0  0
  189.7440  177.1230  147.3320 C   0  0  0  0  0  2  0  0  0  0  0  0
  189.3750  177.8780  148.6080 C   0  0  0  0  0  2  0  0  0  0  0  0
  187.8330  178.4700  146.8670 C   0  0  2  0  0  3  0  0  0  0  0  0
  188.4850  177.1680  146.5030 C   0  0  1  0  0  3  0  0  0  0  0  0
  188.0230  178.5490  148.3600 C   0  0  0  0  0  2  0  0  0  0  0  0
  186.3630  178.2840  144.8710 C   0  0  1  0  0  3  0  0  0  0  0  0
  187.2080  176.9790  143.0130 O   0  0  0  0  0  1  0  0  0  0  0  0
  187.1750  177.0520  144.4080 C   0  0  1  0  0  3  0  0  0  0  0  0
  184.9240  178.1730  144.3880 C   0  0  0  0  0  2  0  0  0  0  0  0
  184.5650  179.3280  143.4580 C   0  0  2  0  0  3  0  0  0  0  0  0
  183.4910  180.0460  143.9910 O   0  0  0  0  0  1  0  0  0  0  0  0
  184.2220  178.8210  142.0560 C   0  0  2  0  0  0  0  0  0  0  0  0
  184.9320  179.5500  141.1000 O   0  0  0  0  0  1  0  0  0  0  0  0
  182.7370  178.9970  141.7930 C   0  0  0  0  0  1  0  0  0  0  0  0
  184.5440  177.4800  141.9390 F   0  0  0  0  0  0  0  0  0  0  0  0
  189.4790  178.1160  144.3490 C   0  0  0  0  0  2  0  0  0  0  0  0
  190.3920  177.5510  143.3140 C   0  0  0  0  0  0  0  0  0  0  0  0
  191.4330  176.7210  143.7150 O   0  0  0  0  0  1  0  0  0  0  0  0
  190.1900  177.8570  142.0280 C   0  0  0  0  0  3  0  0  0  0  0  0
  193.1800  177.1680  139.8520 C   0  0  0  0  0  3  0  0  0  0  0  0
  190.4080  176.7660  139.7590 C   0  0  0  0  0  3  0  0  0  0  0  0
  192.8260  175.5040  136.5590 C   0  0  0  0  0  0  0  0  0  0  0  0
  193.4040  176.1260  137.6750 C   0  0  0  0  0  3  0  0  0  0  0  0
  192.6050  176.5480  138.7410 C   0  0  0  0  0  0  0  0  0  0  0  0
  190.6310  175.7260  137.5830 C   0  0  0  0  0  3  0  0  0  0  0  0
  191.2080  176.3450  138.6940 C   0  0  0  0  0  0  0  0  0  0  0  0
  191.4380  175.3070  136.5220 C   0  0  0  0  0  3  0  0  0  0  0  0
  190.9860  177.3890  140.8770 C   0  0  0  0  0  0  0  0  0  0  0  0
  192.3720  177.5860  140.9140 C   0  0  0  0  0  3  0  0  0  0  0  0
  193.6650  175.0590  135.4350 C   0  0  0  0  0  0  0  0  0  0  0  0
  193.2810  173.9690  134.6630 O   0  0  0  0  0  0  0  0  0  0  0  0
  194.7370  175.6610  135.1600 O   0  0  0  0  0  1  0  0  0  0  0  0
  1 18  1  6  0  0  0
  1  6  1  0  0  0  0
  3  4  1  0  0  0  0
  5  2  1  1  0  0  0
  5  7  1  0  0  0  0
  6  5  1  0  0  0  0
  6  3  1  1  0  0  0
  7  4  1  0  0  0  0
  8 11  1  1  0  0  0
  8  2  1  0  0  0  0
 10  9  1  6  0  0  0
 10  8  1  0  0  0  0
 10  1  1  0  0  0  0
 12 13  1  1  0  0  0
 12 11  1  0  0  0  0
 14 16  1  6  0  0  0
 14 12  1  0  0  0  0
 15 14  1  0  0  0  0
 17 14  1  0  0  0  0
 19 20  1  0  0  0  0
 19 18  1  0  0  0  0
 21 19  2  0  0  0  0
 22 31  1  0  0  0  0
 23 30  1  0  0  0  0
 24 25  2  0  0  0  0
 25 26  1  0  0  0  0
 26 22  2  0  0  0  0
 27 28  1  0  0  0  0
 28 26  1  0  0  0  0
 28 23  2  0  0  0  0
 29 24  1  0  0  0  0
 29 27  2  0  0  0  0
 30 31  2  0  0  0  0
 30 21  1  0  0  0  0
 32 24  1  0  0  0  0
 33 32  2  0  0  0  0
 34 32  1  0  0  0  0
M  END
>  <MODEL>
4

>  <REMARK>
 VINA RESULT:      -8.9      5.020      8.863
  Name = 
  7 active torsions:
  status: ('A' for Active; 'I' for Inactive)
    1  A    between atoms: C_1  and  C_9
    2  A    between atoms: C_2  and  C_23
    3  A    between atoms: C_2  and  C_32
    4  A    between atoms: C_3  and  C_23
    5  A    between atoms: C_7  and  C_11
    6  A    between atoms: C_8  and  C_9
    7  A    between atoms: C_18  and  C_30
                            x       y       z     vdW  Elec       q    Type
                         _______ _______ _______ _____ _____    ______ ____

>  <TORSDO>
F 7

$$$$
=
 OpenBabel11052415543D

 34 37  0  0  1  0  0  0  0  0999 V2000
  182.5510  177.9590  141.2400 C   0  0  1  0  0  3  0  0  0  0  0  0
  180.0990  178.5060  139.6240 C   0  0  0  0  0  2  0  0  0  0  0  0
  181.2830  179.3490  143.0500 C   0  0  0  0  0  2  0  0  0  0  0  0
  180.0180  180.2030  142.9720 C   0  0  0  0  0  2  0  0  0  0  0  0
  180.5500  179.3790  140.7820 C   0  0  2  0  0  3  0  0  0  0  0  0
  181.2370  178.5120  141.7960 C   0  0  1  0  0  3  0  0  0  0  0  0
  179.4370  180.0210  141.5690 C   0  0  0  0  0  2  0  0  0  0  0  0
  181.3400  177.8740  138.9690 C   0  0  1  0  0  3  0  0  0  0  0  0
  183.3610  176.6100  139.4050 O   0  0  0  0  0  1  0  0  0  0  0  0
  182.2000  177.1080  140.0010 C   0  0  1  0  0  3  0  0  0  0  0  0
  180.9100  176.9360  137.8500 C   0  0  0  0  0  2  0  0  0  0  0  0
  181.1310  177.5740  136.4820 C   0  0  2  0  0  3  0  0  0  0  0  0
  180.1330  177.1530  135.5980 O   0  0  0  0  0  1  0  0  0  0  0  0
  182.5130  177.2230  135.9270 C   0  0  2  0  0  0  0  0  0  0  0  0
  182.6060  177.6280  134.5940 O   0  0  0  0  0  1  0  0  0  0  0  0
  182.7300  175.7220  135.9920 C   0  0  0  0  0  1  0  0  0  0  0  0
  183.5000  177.8540  136.6650 F   0  0  0  0  0  0  0  0  0  0  0  0
  183.5600  179.0600  140.8850 C   0  0  0  0  0  2  0  0  0  0  0  0
  184.8070  178.9390  141.6950 C   0  0  0  0  0  0  0  0  0  0  0  0
  185.9330  179.6560  141.3080 O   0  0  0  0  0  1  0  0  0  0  0  0
  184.8130  178.1440  142.7710 C   0  0  0  0  0  3  0  0  0  0  0  0
  186.7910  177.9550  145.9640 C   0  0  0  0  0  3  0  0  0  0  0  0
  187.1980  177.4560  143.2370 C   0  0  0  0  0  3  0  0  0  0  0  0
  190.3280  176.8470  145.9780 C   0  0  0  0  0  0  0  0  0  0  0  0
  189.0780  177.2990  146.4260 C   0  0  0  0  0  3  0  0  0  0  0  0
  188.0350  177.5030  145.5190 C   0  0  0  0  0  0  0  0  0  0  0  0
  189.4850  176.8010  143.6980 C   0  0  0  0  0  3  0  0  0  0  0  0
  188.2410  177.2520  144.1450 C   0  0  0  0  0  0  0  0  0  0  0  0
  190.5220  176.5990  144.6110 C   0  0  0  0  0  3  0  0  0  0  0  0
  185.9470  177.9090  143.6840 C   0  0  0  0  0  0  0  0  0  0  0  0
  185.7530  178.1560  145.0500 C   0  0  0  0  0  3  0  0  0  0  0  0
  191.4280  176.6300  146.9310 C   0  0  0  0  0  0  0  0  0  0  0  0
  192.3490  175.6120  146.7180 O   0  0  0  0  0  0  0  0  0  0  0  0
  191.5480  177.3670  147.9470 O   0  0  0  0  0  1  0  0  0  0  0  0
  1 18  1  6  0  0  0
  1  6  1  0  0  0  0
  4  3  1  0  0  0  0
  5  2  1  6  0  0  0
  5  7  1  0  0  0  0
  5  6  1  0  0  0  0
  6  3  1  1  0  0  0
  7  4  1  0  0  0  0
  8 11  1  6  0  0  0
  8  2  1  0  0  0  0
  8 10  1  0  0  0  0
 10  9  1  6  0  0  0
 10  1  1  0  0  0  0
 12 13  1  6  0  0  0
 12 11  1  0  0  0  0
 14 16  1  1  0  0  0
 14 12  1  0  0  0  0
 14 17  1  0  0  0  0
 15 14  1  0  0  0  0
 18 19  1  0  0  0  0
 19 21  2  0  0  0  0
 20 19  1  0  0  0  0
 21 30  1  0  0  0  0
 23 30  2  0  0  0  0
 23 28  1  0  0  0  0
 24 25  1  0  0  0  0
 24 32  1  0  0  0  0
 26 22  1  0  0  0  0
 26 25  2  0  0  0  0
 27 28  2  0  0  0  0
 27 29  1  0  0  0  0
 28 26  1  0  0  0  0
 29 24  2  0  0  0  0
 30 31  1  0  0  0  0
 31 22  2  0  0  0  0
 32 34  1  0  0  0  0
 33 32  2  0  0  0  0
M  END
>  <MODEL>
5

>  <REMARK>
 VINA RESULT:      -8.9      2.868      3.723
  Name = 
  7 active torsions:
  status: ('A' for Active; 'I' for Inactive)
    1  A    between atoms: C_1  and  C_9
    2  A    between atoms: C_2  and  C_23
    3  A    between atoms: C_2  and  C_32
    4  A    between atoms: C_3  and  C_23
    5  A    between atoms: C_7  and  C_11
    6  A    between atoms: C_8  and  C_9
    7  A    between atoms: C_18  and  C_30
                            x       y       z     vdW  Elec       q    Type
                         _______ _______ _______ _____ _____    ______ ____

>  <TORSDO>
F 7

$$$$
=
 OpenBabel11052415543D

 34 37  0  0  1  0  0  0  0  0999 V2000
  182.8960  177.8970  140.8270 C   0  0  1  0  0  3  0  0  0  0  0  0
  180.4860  178.5980  139.2060 C   0  0  0  0  0  2  0  0  0  0  0  0
  181.5270  179.0010  142.7570 C   0  0  0  0  0  2  0  0  0  0  0  0
  180.2420  179.8280  142.7450 C   0  0  0  0  0  2  0  0  0  0  0  0
  180.8720  179.3180  140.4870 C   0  0  2  0  0  3  0  0  0  0  0  0
  181.5480  178.3390  141.4010 C   0  0  1  0  0  3  0  0  0  0  0  0
  179.7150  179.8220  141.3100 C   0  0  0  0  0  2  0  0  0  0  0  0
  181.7660  178.0890  138.5200 C   0  0  1  0  0  3  0  0  0  0  0  0
  183.8070  176.8260  138.8610 O   0  0  0  0  0  1  0  0  0  0  0  0
  182.6110  177.2120  139.4740 C   0  0  1  0  0  3  0  0  0  0  0  0
  181.4020  177.2990  137.2710 C   0  0  0  0  0  2  0  0  0  0  0  0
  181.2080  175.8210  137.5910 C   0  0  2  0  0  3  0  0  0  0  0  0
  181.9260  175.0420  136.6790 O   0  0  0  0  0  1  0  0  0  0  0  0
  179.7260  175.4410  137.5630 C   0  0  2  0  0  0  0  0  0  0  0  0
  179.5820  174.1250  137.1180 O   0  0  0  0  0  1  0  0  0  0  0  0
  178.9770  176.3560  136.6120 C   0  0  0  0  0  1  0  0  0  0  0  0
  179.1770  175.5570  138.8270 F   0  0  0  0  0  0  0  0  0  0  0  0
  183.8850  179.0590  140.6610 C   0  0  0  0  0  2  0  0  0  0  0  0
  185.1240  178.8400  141.4600 C   0  0  0  0  0  0  0  0  0  0  0  0
  186.3460  179.2390  140.9300 O   0  0  0  0  0  1  0  0  0  0  0  0
  185.0320  178.2640  142.6640 C   0  0  0  0  0  3  0  0  0  0  0  0
  186.9480  177.9250  145.8830 C   0  0  0  0  0  3  0  0  0  0  0  0
  187.3950  177.5140  143.1480 C   0  0  0  0  0  3  0  0  0  0  0  0
  190.4620  176.7490  145.9200 C   0  0  0  0  0  0  0  0  0  0  0  0
  189.2130  177.2100  146.3620 C   0  0  0  0  0  3  0  0  0  0  0  0
  188.1910  177.4660  145.4440 C   0  0  0  0  0  0  0  0  0  0  0  0
  189.6600  176.7990  143.6250 C   0  0  0  0  0  3  0  0  0  0  0  0
  188.4170  177.2580  144.0650 C   0  0  0  0  0  0  0  0  0  0  0  0
  190.6770  176.5460  144.5490 C   0  0  0  0  0  3  0  0  0  0  0  0
  186.1440  177.9750  143.5880 C   0  0  0  0  0  0  0  0  0  0  0  0
  185.9310  178.1790  144.9580 C   0  0  0  0  0  3  0  0  0  0  0  0
  191.5410  176.4780  146.8840 C   0  0  0  0  0  0  0  0  0  0  0  0
  192.4390  175.4420  146.6580 O   0  0  0  0  0  0  0  0  0  0  0  0
  191.6630  177.1830  147.9210 O   0  0  0  0  0  1  0  0  0  0  0  0
  1 18  1  6  0  0  0
  1  6  1  0  0  0  0
  4  3  1  0  0  0  0
  5  2  1  6  0  0  0
  5  7  1  0  0  0  0
  5  6  1  0  0  0  0
  6  3  1  1  0  0  0
  7  4  1  0  0  0  0
  8 11  1  6  0  0  0
  8  2  1  0  0  0  0
  8 10  1  0  0  0  0
 10  9  1  6  0  0  0
 10  1  1  0  0  0  0
 11 12  1  0  0  0  0
 12 13  1  6  0  0  0
 14 16  1  6  0  0  0
 14 12  1  0  0  0  0
 14 17  1  0  0  0  0
 15 14  1  0  0  0  0
 18 19  1  0  0  0  0
 19 21  2  0  0  0  0
 20 19  1  0  0  0  0
 21 30  1  0  0  0  0
 23 30  2  0  0  0  0
 23 28  1  0  0  0  0
 24 25  1  0  0  0  0
 24 32  1  0  0  0  0
 26 22  1  0  0  0  0
 26 25  2  0  0  0  0
 27 28  2  0  0  0  0
 27 29  1  0  0  0  0
 28 26  1  0  0  0  0
 29 24  2  0  0  0  0
 30 31  1  0  0  0  0
 31 22  2  0  0  0  0
 32 34  1  0  0  0  0
 33 32  2  0  0  0  0
M  END
>  <MODEL>
6

>  <REMARK>
 VINA RESULT:      -8.7      3.129      4.200
  Name = 
  7 active torsions:
  status: ('A' for Active; 'I' for Inactive)
    1  A    between atoms: C_1  and  C_9
    2  A    between atoms: C_2  and  C_23
    3  A    between atoms: C_2  and  C_32
    4  A    between atoms: C_3  and  C_23
    5  A    between atoms: C_7  and  C_11
    6  A    between atoms: C_8  and  C_9
    7  A    between atoms: C_18  and  C_30
                            x       y       z     vdW  Elec       q    Type
                         _______ _______ _______ _____ _____    ______ ____

>  <TORSDO>
F 7

$$$$
=
 OpenBabel11052415543D

 34 37  0  0  1  0  0  0  0  0999 V2000
  181.6860  178.1530  140.2350 C   0  0  1  0  0  3  0  0  0  0  0  0
  179.8900  178.0170  137.8510 C   0  0  0  0  0  2  0  0  0  0  0  0
  180.2720  180.2780  140.7830 C   0  0  0  0  0  2  0  0  0  0  0  0
  179.2550  181.0620  139.9540 C   0  0  0  0  0  2  0  0  0  0  0  0
  180.1770  179.3010  138.6100 C   0  0  2  0  0  3  0  0  0  0  0  0
  180.4000  178.9630  140.0550 C   0  0  1  0  0  3  0  0  0  0  0  0
  179.0380  180.2860  138.6540 C   0  0  0  0  0  2  0  0  0  0  0  0
  181.1180  177.0950  137.9560 C   0  0  1  0  0  3  0  0  0  0  0  0
  182.6800  176.0750  139.5020 O   0  0  0  0  0  1  0  0  0  0  0  0
  181.5180  176.8470  139.4290 C   0  0  1  0  0  3  0  0  0  0  0  0
  180.8280  175.7710  137.2640 C   0  0  0  0  0  2  0  0  0  0  0  0
  182.0510  175.2680  136.5030 C   0  0  2  0  0  3  0  0  0  0  0  0
  181.9000  175.5350  135.1390 O   0  0  0  0  0  1  0  0  0  0  0  0
  182.2640  173.7700  136.7310 C   0  0  2  0  0  0  0  0  0  0  0  0
  183.5650  173.5390  137.1840 O   0  0  0  0  0  1  0  0  0  0  0  0
  182.0660  173.0170  135.4280 C   0  0  0  0  0  1  0  0  0  0  0  0
  181.3640  173.2950  137.6680 F   0  0  0  0  0  0  0  0  0  0  0  0
  182.9400  178.9180  139.7900 C   0  0  0  0  0  2  0  0  0  0  0  0
  183.9870  178.9130  140.8520 C   0  0  0  0  0  0  0  0  0  0  0  0
  185.2590  179.3810  140.5460 O   0  0  0  0  0  1  0  0  0  0  0  0
  183.6780  178.4580  142.0720 C   0  0  0  0  0  3  0  0  0  0  0  0
  184.9060  178.7990  145.6110 C   0  0  0  0  0  3  0  0  0  0  0  0
  185.8870  177.8800  143.1520 C   0  0  0  0  0  3  0  0  0  0  0  0
  188.3270  177.7510  146.5740 C   0  0  0  0  0  0  0  0  0  0  0  0
  187.0210  178.2520  146.6610 C   0  0  0  0  0  3  0  0  0  0  0  0
  186.2060  178.2980  145.5260 C   0  0  0  0  0  0  0  0  0  0  0  0
  188.0030  177.3350  144.2010 C   0  0  0  0  0  3  0  0  0  0  0  0
  186.7020  177.8350  144.2870 C   0  0  0  0  0  0  0  0  0  0  0  0
  188.8110  177.2930  145.3400 C   0  0  0  0  0  3  0  0  0  0  0  0
  184.5790  178.3830  143.2370 C   0  0  0  0  0  0  0  0  0  0  0  0
  184.0980  178.8400  144.4710 C   0  0  0  0  0  3  0  0  0  0  0  0
  189.1880  177.7010  147.7670 C   0  0  0  0  0  0  0  0  0  0  0  0
  190.4140  177.0490  147.7200 O   0  0  0  0  0  0  0  0  0  0  0  0
  188.8230  178.2490  148.8410 O   0  0  0  0  0  1  0  0  0  0  0  0
  1 18  1  6  0  0  0
  2  8  1  0  0  0  0
  4  3  1  0  0  0  0
  5  2  1  6  0  0  0
  5  7  1  0  0  0  0
  5  6  1  0  0  0  0
  6  1  1  0  0  0  0
  6  3  1  1  0  0  0
  7  4  1  0  0  0  0
  8 11  1  1  0  0  0
  8 10  1  0  0  0  0
 10  9  1  6  0  0  0
 10  1  1  0  0  0  0
 12 13  1  6  0  0  0
 12 14  1  0  0  0  0
 12 11  1  0  0  0  0
 14 16  1  6  0  0  0
 14 15  1  0  0  0  0
 14 17  1  0  0  0  0
 18 19  1  0  0  0  0
 19 21  2  0  0  0  0
 20 19  1  0  0  0  0
 21 30  1  0  0  0  0
 23 30  2  0  0  0  0
 23 28  1  0  0  0  0
 24 25  1  0  0  0  0
 24 32  1  0  0  0  0
 26 22  1  0  0  0  0
 26 25  2  0  0  0  0
 27 28  2  0  0  0  0
 27 29  1  0  0  0  0
 28 26  1  0  0  0  0
 29 24  2  0  0  0  0
 30 31  1  0  0  0  0
 31 22  2  0  0  0  0
 32 34  1  0  0  0  0
 33 32  2  0  0  0  0
M  END
>  <MODEL>
7

>  <REMARK>
 VINA RESULT:      -8.6      3.116      4.940
  Name = 
  7 active torsions:
  status: ('A' for Active; 'I' for Inactive)
    1  A    between atoms: C_1  and  C_9
    2  A    between atoms: C_2  and  C_23
    3  A    between atoms: C_2  and  C_32
    4  A    between atoms: C_3  and  C_23
    5  A    between atoms: C_7  and  C_11
    6  A    between atoms: C_8  and  C_9
    7  A    between atoms: C_18  and  C_30
                            x       y       z     vdW  Elec       q    Type
                         _______ _______ _______ _____ _____    ______ ____

>  <TORSDO>
F 7

$$$$
=
 OpenBabel11052415543D

 34 37  0  0  1  0  0  0  0  0999 V2000
  185.1960  177.9070  142.7850 C   0  0  1  0  0  3  0  0  0  0  0  0
  183.3120  179.0020  144.8280 C   0  0  0  0  0  2  0  0  0  0  0  0
  186.8390  177.8160  144.8120 C   0  0  0  0  0  2  0  0  0  0  0  0
  186.7450  178.3970  146.2220 C   0  0  0  0  0  2  0  0  0  0  0  0
  184.8230  179.0790  144.9570 C   0  0  2  0  0  3  0  0  0  0  0  0
  185.4220  177.8710  144.2980 C   0  0  1  0  0  3  0  0  0  0  0  0
  185.3480  179.0030  146.3670 C   0  0  0  0  0  2  0  0  0  0  0  0
  182.9410  179.0240  143.3340 C   0  0  1  0  0  3  0  0  0  0  0  0
  183.3850  177.9930  141.1860 O   0  0  0  0  0  1  0  0  0  0  0  0
  183.6710  177.9070  142.5520 C   0  0  1  0  0  3  0  0  0  0  0  0
  181.4350  178.8750  143.1740 C   0  0  0  0  0  2  0  0  0  0  0  0
  180.8830  179.8940  142.1830 C   0  0  2  0  0  3  0  0  0  0  0  0
  180.0440  180.7920  142.8480 O   0  0  0  0  0  1  0  0  0  0  0  0
  180.1260  179.2030  141.0470 C   0  0  2  0  0  0  0  0  0  0  0  0
  178.9310  179.8790  140.7930 O   0  0  0  0  0  1  0  0  0  0  0  0
  179.7990  177.7740  141.4380 C   0  0  0  0  0  1  0  0  0  0  0  0
  180.8960  179.1900  139.8960 F   0  0  0  0  0  0  0  0  0  0  0  0
  185.8570  179.1180  142.1110 C   0  0  0  0  0  2  0  0  0  0  0  0
  186.8840  178.6950  141.1150 C   0  0  0  0  0  0  0  0  0  0  0  0
  186.5900  178.7940  139.7610 O   0  0  0  0  0  1  0  0  0  0  0  0
  188.0620  178.2290  141.5490 C   0  0  0  0  0  3  0  0  0  0  0  0
  191.5520  177.2180  140.5800 C   0  0  0  0  0  3  0  0  0  0  0  0
  189.0480  177.4730  139.3500 C   0  0  0  0  0  3  0  0  0  0  0  0
  192.3710  176.1940  137.1140 C   0  0  0  0  0  0  0  0  0  0  0  0
  192.5130  176.4930  138.4760 C   0  0  0  0  0  3  0  0  0  0  0  0
  191.4110  176.9190  139.2230 C   0  0  0  0  0  0  0  0  0  0  0  0
  190.0070  176.7500  137.2460 C   0  0  0  0  0  3  0  0  0  0  0  0
  190.1490  177.0470  138.6030 C   0  0  0  0  0  0  0  0  0  0  0  0
  191.1130  176.3250  136.5060 C   0  0  0  0  0  3  0  0  0  0  0  0
  189.1880  177.7730  140.7140 C   0  0  0  0  0  0  0  0  0  0  0  0
  190.4450  177.6430  141.3200 C   0  0  0  0  0  3  0  0  0  0  0  0
  193.5280  175.7450  136.3240 C   0  0  0  0  0  0  0  0  0  0  0  0
  193.4550  174.5780  135.5730 O   0  0  0  0  0  0  0  0  0  0  0  0
  194.5960  176.4140  136.3170 O   0  0  0  0  0  1  0  0  0  0  0  0
  1 18  1  1  0  0  0
  1  6  1  0  0  0  0
  3  4  1  0  0  0  0
  4  7  1  0  0  0  0
  5  2  1  1  0  0  0
  5  7  1  0  0  0  0
  6  3  1  6  0  0  0
  6  5  1  0  0  0  0
  8 11  1  1  0  0  0
  8  2  1  0  0  0  0
 10  9  1  6  0  0  0
 10  1  1  0  0  0  0
 10  8  1  0  0  0  0
 12 13  1  1  0  0  0
 12 11  1  0  0  0  0
 14 16  1  1  0  0  0
 14 12  1  0  0  0  0
 15 14  1  0  0  0  0
 17 14  1  0  0  0  0
 19 21  2  0  0  0  0
 19 18  1  0  0  0  0
 20 19  1  0  0  0  0
 22 31  1  0  0  0  0
 23 30  1  0  0  0  0
 24 25  2  0  0  0  0
 25 26  1  0  0  0  0
 26 22  2  0  0  0  0
 27 28  1  0  0  0  0
 28 26  1  0  0  0  0
 28 23  2  0  0  0  0
 29 24  1  0  0  0  0
 29 27  2  0  0  0  0
 30 31  2  0  0  0  0
 30 21  1  0  0  0  0
 32 24  1  0  0  0  0
 33 32  2  0  0  0  0
 34 32  1  0  0  0  0
M  END
>  <MODEL>
8

>  <REMARK>
 VINA RESULT:      -8.6      4.587      6.916
  Name = 
  7 active torsions:
  status: ('A' for Active; 'I' for Inactive)
    1  A    between atoms: C_1  and  C_9
    2  A    between atoms: C_2  and  C_23
    3  A    between atoms: C_2  and  C_32
    4  A    between atoms: C_3  and  C_23
    5  A    between atoms: C_7  and  C_11
    6  A    between atoms: C_8  and  C_9
    7  A    between atoms: C_18  and  C_30
                            x       y       z     vdW  Elec       q    Type
                         _______ _______ _______ _____ _____    ______ ____

>  <TORSDO>
F 7

$$$$
=
 OpenBabel11052415543D

 34 37  0  0  1  0  0  0  0  0999 V2000
  191.5980  175.6460  138.0610 C   0  0  1  0  0  3  0  0  0  0  0  0
  192.9070  175.0890  135.4340 C   0  0  0  0  0  2  0  0  0  0  0  0
  189.8730  173.8760  137.2170 C   0  0  0  0  0  2  0  0  0  0  0  0
  189.6730  173.2260  135.8480 C   0  0  0  0  0  2  0  0  0  0  0  0
  191.4300  174.8540  135.6990 C   0  0  2  0  0  3  0  0  0  0  0  0
  191.2570  174.4720  137.1400 C   0  0  1  0  0  3  0  0  0  0  0  0
  190.8240  173.6930  134.9550 C   0  0  0  0  0  2  0  0  0  0  0  0
  193.3880  176.2570  136.3130 C   0  0  1  0  0  3  0  0  0  0  0  0
  193.4460  177.1140  138.5790 O   0  0  0  0  0  1  0  0  0  0  0  0
  193.0760  176.0100  137.8070 C   0  0  1  0  0  3  0  0  0  0  0  0
  194.8830  176.4650  136.1190 C   0  0  0  0  0  2  0  0  0  0  0  0
  195.6490  175.1590  136.3050 C   0  0  2  0  0  3  0  0  0  0  0  0
  195.8220  174.9040  137.6690 O   0  0  0  0  0  1  0  0  0  0  0  0
  197.0050  175.2110  135.5990 C   0  0  2  0  0  0  0  0  0  0  0  0
  198.0200  175.4270  136.5340 O   0  0  0  0  0  1  0  0  0  0  0  0
  197.0220  176.3500  134.5960 C   0  0  0  0  0  1  0  0  0  0  0  0
  197.2450  174.0210  134.9330 F   0  0  0  0  0  0  0  0  0  0  0  0
  190.6850  176.8610  137.8420 C   0  0  0  0  0  2  0  0  0  0  0  0
  190.0950  177.3380  139.1260 C   0  0  0  0  0  0  0  0  0  0  0  0
  189.3760  178.5270  139.1350 O   0  0  0  0  0  1  0  0  0  0  0  0
  190.2730  176.6120  140.2360 C   0  0  0  0  0  3  0  0  0  0  0  0
  190.2640  177.3310  143.9280 C   0  0  0  0  0  3  0  0  0  0  0  0
  188.3960  177.1120  141.8510 C   0  0  0  0  0  3  0  0  0  0  0  0
  187.1090  177.9930  145.7560 C   0  0  0  0  0  0  0  0  0  0  0  0
  188.4730  177.8090  145.4900 C   0  0  0  0  0  3  0  0  0  0  0  0
  188.9050  177.5150  144.1940 C   0  0  0  0  0  0  0  0  0  0  0  0
  186.6040  177.5880  143.4120 C   0  0  0  0  0  3  0  0  0  0  0  0
  187.9630  177.4050  143.1470 C   0  0  0  0  0  0  0  0  0  0  0  0
  186.1800  177.8810  144.7100 C   0  0  0  0  0  3  0  0  0  0  0  0
  189.7610  176.9270  141.5830 C   0  0  0  0  0  0  0  0  0  0  0  0
  190.6880  177.0380  142.6290 C   0  0  0  0  0  3  0  0  0  0  0  0
  186.6500  178.3020  147.1200 C   0  0  0  0  0  0  0  0  0  0  0  0
  187.5340  178.2370  148.1890 O   0  0  0  0  0  1  0  0  0  0  0  0
  185.4520  178.6310  147.3310 O   0  0  0  0  0  0  0  0  0  0  0  0
  1 18  1  6  0  0  0
  2  5  1  0  0  0  0
  2  8  1  0  0  0  0
  4  3  1  0  0  0  0
  5  7  1  6  0  0  0
  5  6  1  0  0  0  0
  6  3  1  6  0  0  0
  6  1  1  0  0  0  0
  7  4  1  0  0  0  0
  8 11  1  1  0  0  0
  8 10  1  0  0  0  0
 10  1  1  0  0  0  0
 10  9  1  1  0  0  0
 11 12  1  0  0  0  0
 12 13  1  1  0  0  0
 14 16  1  6  0  0  0
 14 12  1  0  0  0  0
 14 15  1  0  0  0  0
 17 14  1  0  0  0  0
 18 19  1  0  0  0  0
 19 20  1  0  0  0  0
 19 21  2  0  0  0  0
 21 30  1  0  0  0  0
 22 26  1  0  0  0  0
 23 28  1  0  0  0  0
 24 32  1  0  0  0  0
 25 24  1  0  0  0  0
 26 25  2  0  0  0  0
 27 29  1  0  0  0  0
 28 27  2  0  0  0  0
 28 26  1  0  0  0  0
 29 24  2  0  0  0  0
 30 23  2  0  0  0  0
 30 31  1  0  0  0  0
 31 22  2  0  0  0  0
 32 34  2  0  0  0  0
 32 33  1  0  0  0  0
M  END
>  <MODEL>
9

>  <REMARK>
 VINA RESULT:      -8.6      7.308     10.533
  Name = 
  7 active torsions:
  status: ('A' for Active; 'I' for Inactive)
    1  A    between atoms: C_1  and  C_9
    2  A    between atoms: C_2  and  C_23
    3  A    between atoms: C_2  and  C_32
    4  A    between atoms: C_3  and  C_23
    5  A    between atoms: C_7  and  C_11
    6  A    between atoms: C_8  and  C_9
    7  A    between atoms: C_18  and  C_30
                            x       y       z     vdW  Elec       q    Type
                         _______ _______ _______ _____ _____    ______ ____

>  <TORSDO>
F 7

$$$$
