=
 OpenBabel11052412423D

 25 27  0  0  0  0  0  0  0  0999 V2000
  186.8800  177.8520  145.4020 C   0  0  0  0  0  0  0  0  0  0  0  0
  188.0870  177.4910  144.7580 C   0  0  0  0  0  0  0  0  0  0  0  0
  188.0040  177.6180  147.5360 C   0  0  0  0  0  3  0  0  0  0  0  0
  189.1540  177.2780  146.9000 N   0  0  0  0  0  0  0  0  0  0  0  0
  190.4350  176.8370  144.9170 C   0  0  0  0  0  0  0  0  0  0  0  0
  191.6590  176.5340  145.7130 C   0  0  0  0  0  1  0  0  0  0  0  0
  188.1740  177.3820  143.3620 C   0  0  0  0  0  3  0  0  0  0  0  0
  186.8560  177.9090  146.8010 C   0  0  0  0  0  3  0  0  0  0  0  0
  190.4970  176.7450  143.5250 C   0  0  0  0  0  3  0  0  0  0  0  0
  189.3730  177.0130  142.7410 C   0  0  0  0  0  0  0  0  0  0  0  0
  189.2300  177.2040  145.5440 C   0  0  0  0  0  0  0  0  0  0  0  0
  185.6420  178.1930  144.6560 C   0  0  0  0  0  0  0  0  0  0  0  0
  183.3310  178.8780  143.2090 C   0  0  0  0  0  3  0  0  0  0  0  0
  184.4550  178.5430  145.3310 C   0  0  0  0  0  0  0  0  0  0  0  0
  183.3070  178.8780  144.6060 C   0  0  0  0  0  3  0  0  0  0  0  0
  184.5040  178.5410  142.5320 C   0  0  0  0  0  3  0  0  0  0  0  0
  184.3940  178.5340  146.6860 F   0  0  0  0  0  0  0  0  0  0  0  0
  185.6530  178.2030  143.2510 C   0  0  0  0  0  3  0  0  0  0  0  0
  189.4840  176.9060  141.3150 N   0  0  0  0  0  2  0  0  0  0  0  0
  188.9670  177.8250  140.3390 C   0  0  0  0  0  0  0  0  0  0  0  0
  188.2790  178.8190  140.7000 O   0  0  0  0  0  0  0  0  0  0  0  0
  188.0710  176.6700  138.3110 C   0  0  0  0  0  1  0  0  0  0  0  0
  189.1970  178.8440  138.0840 C   0  0  0  0  0  1  0  0  0  0  0  0
  190.5050  176.8390  138.6850 C   0  0  0  0  0  1  0  0  0  0  0  0
  189.1780  177.5480  138.8730 C   0  0  0  0  0  0  0  0  0  0  0  0
  1  8  1  0  0  0  0
  2  1  2  0  0  0  0
  2 11  1  0  0  0  0
  4  3  1  0  0  0  0
  5 11  1  0  0  0  0
  5  6  1  0  0  0  0
  7  2  1  0  0  0  0
  8  3  2  0  0  0  0
  9  5  2  0  0  0  0
 10  7  2  0  0  0  0
 10  9  1  0  0  0  0
 11  4  2  0  0  0  0
 12 14  1  0  0  0  0
 12  1  1  0  0  0  0
 13 15  1  0  0  0  0
 14 17  1  0  0  0  0
 15 14  2  0  0  0  0
 16 13  2  0  0  0  0
 16 18  1  0  0  0  0
 18 12  2  0  0  0  0
 19 10  1  0  0  0  0
 20 21  2  0  0  0  0
 20 19  1  0  0  0  0
 22 25  1  0  0  0  0
 23 25  1  0  0  0  0
 24 25  1  0  0  0  0
 25 20  1  0  0  0  0
M  END
>  <MODEL>
1

>  <REMARK>
 VINA RESULT:     -10.4      0.000      0.000
  Name = 
  3 active torsions:
  status: ('A' for Active; 'I' for Inactive)
    1  A    between atoms: C_1  and  C_5
    2  A    between atoms: N_6  and  C_23
    3  A    between atoms: C_15  and  C_21
                            x       y       z     vdW  Elec       q    Type
                         _______ _______ _______ _____ _____    ______ ____

>  <TORSDO>
F 3

$$$$
=
 OpenBabel11052412423D

 25 27  0  0  0  0  0  0  0  0999 V2000
  187.5850  177.7760  144.5730 C   0  0  0  0  0  0  0  0  0  0  0  0
  186.6790  178.0990  143.5360 C   0  0  0  0  0  0  0  0  0  0  0  0
  185.7850  178.0630  146.1710 C   0  0  0  0  0  3  0  0  0  0  0  0
  184.9300  178.3660  145.1620 N   0  0  0  0  0  0  0  0  0  0  0  0
  184.4220  178.7250  142.8430 C   0  0  0  0  0  0  0  0  0  0  0  0
  182.9960  179.0360  143.1500 C   0  0  0  0  0  1  0  0  0  0  0  0
  187.0840  178.1620  142.1950 C   0  0  0  0  0  3  0  0  0  0  0  0
  187.1180  177.7640  145.8940 C   0  0  0  0  0  3  0  0  0  0  0  0
  184.8500  178.7710  141.5150 C   0  0  0  0  0  3  0  0  0  0  0  0
  186.1770  178.4940  141.1820 C   0  0  0  0  0  0  0  0  0  0  0  0
  185.3320  178.3950  143.8630 C   0  0  0  0  0  0  0  0  0  0  0  0
  189.0060  177.4290  144.3190 C   0  0  0  0  0  0  0  0  0  0  0  0
  191.7060  176.8300  143.8140 C   0  0  0  0  0  3  0  0  0  0  0  0
  189.3570  176.2770  143.5850 C   0  0  0  0  0  0  0  0  0  0  0  0
  190.7020  175.9820  143.3410 C   0  0  0  0  0  3  0  0  0  0  0  0
  191.3690  177.9760  144.5340 C   0  0  0  0  0  3  0  0  0  0  0  0
  188.4060  175.4240  143.1290 F   0  0  0  0  0  0  0  0  0  0  0  0
  190.0270  178.2760  144.7820 C   0  0  0  0  0  3  0  0  0  0  0  0
  186.5710  178.5540  139.8040 N   0  0  0  0  0  2  0  0  0  0  0  0
  187.7540  177.9840  139.2200 C   0  0  0  0  0  0  0  0  0  0  0  0
  188.6110  177.4100  139.9470 O   0  0  0  0  0  0  0  0  0  0  0  0
  189.0140  179.2570  137.4760 C   0  0  0  0  0  1  0  0  0  0  0  0
  188.5530  176.8640  137.1510 C   0  0  0  0  0  1  0  0  0  0  0  0
  186.7050  178.4960  137.0500 C   0  0  0  0  0  1  0  0  0  0  0  0
  188.0070  178.1490  137.7440 C   0  0  0  0  0  0  0  0  0  0  0  0
  1  8  1  0  0  0  0
  2 11  1  0  0  0  0
  2  1  2  0  0  0  0
  4  3  1  0  0  0  0
  5  6  1  0  0  0  0
  5 11  1  0  0  0  0
  7  2  1  0  0  0  0
  8  3  2  0  0  0  0
  9  5  2  0  0  0  0
 10  9  1  0  0  0  0
 10  7  2  0  0  0  0
 11  4  2  0  0  0  0
 12  1  1  0  0  0  0
 12 18  1  0  0  0  0
 13 16  1  0  0  0  0
 14 12  2  0  0  0  0
 15 14  1  0  0  0  0
 15 13  2  0  0  0  0
 16 18  2  0  0  0  0
 17 14  1  0  0  0  0
 19 10  1  0  0  0  0
 20 19  1  0  0  0  0
 20 21  2  0  0  0  0
 22 25  1  0  0  0  0
 23 25  1  0  0  0  0
 24 25  1  0  0  0  0
 25 20  1  0  0  0  0
M  END
>  <MODEL>
2

>  <REMARK>
 VINA RESULT:     -10.4      2.122      4.877
  Name = 
  3 active torsions:
  status: ('A' for Active; 'I' for Inactive)
    1  A    between atoms: C_1  and  C_5
    2  A    between atoms: N_6  and  C_23
    3  A    between atoms: C_15  and  C_21
                            x       y       z     vdW  Elec       q    Type
                         _______ _______ _______ _____ _____    ______ ____

>  <TORSDO>
F 3

$$$$
=
 OpenBabel11052412423D

 25 27  0  0  0  0  0  0  0  0999 V2000
  187.4490  177.9540  145.8050 C   0  0  0  0  0  0  0  0  0  0  0  0
  186.7990  178.1380  144.5610 C   0  0  0  0  0  0  0  0  0  0  0  0
  185.3400  178.3850  146.9180 C   0  0  0  0  0  3  0  0  0  0  0  0
  184.7330  178.5540  145.7160 N   0  0  0  0  0  0  0  0  0  0  0  0
  184.7580  178.6360  143.3160 C   0  0  0  0  0  0  0  0  0  0  0  0
  183.3020  178.9520  143.2600 C   0  0  0  0  0  1  0  0  0  0  0  0
  187.4940  178.0560  143.3460 C   0  0  0  0  0  3  0  0  0  0  0  0
  186.7000  178.0830  146.9810 C   0  0  0  0  0  3  0  0  0  0  0  0
  185.4720  178.5390  142.1200 C   0  0  0  0  0  3  0  0  0  0  0  0
  186.8390  178.2520  142.1250 C   0  0  0  0  0  0  0  0  0  0  0  0
  185.4160  178.4430  144.5440 C   0  0  0  0  0  0  0  0  0  0  0  0
  188.8890  177.6080  145.9140 C   0  0  0  0  0  0  0  0  0  0  0  0
  191.6150  176.9350  146.0630 C   0  0  0  0  0  3  0  0  0  0  0  0
  189.3710  176.8090  146.9710 C   0  0  0  0  0  0  0  0  0  0  0  0
  190.7280  176.4810  147.0420 C   0  0  0  0  0  3  0  0  0  0  0  0
  191.1470  177.7200  145.0090 C   0  0  0  0  0  3  0  0  0  0  0  0
  188.5380  176.3680  147.9480 F   0  0  0  0  0  0  0  0  0  0  0  0
  189.7920  178.0530  144.9330 C   0  0  0  0  0  3  0  0  0  0  0  0
  187.5310  178.1620  140.8720 N   0  0  0  0  0  2  0  0  0  0  0  0
  188.7310  177.4200  140.6020 C   0  0  0  0  0  0  0  0  0  0  0  0
  189.3270  176.8100  141.5320 O   0  0  0  0  0  0  0  0  0  0  0  0
  190.8010  177.0900  139.2390 C   0  0  0  0  0  1  0  0  0  0  0  0
  188.6140  176.4450  138.3190 C   0  0  0  0  0  1  0  0  0  0  0  0
  189.1620  178.8310  138.6280 C   0  0  0  0  0  1  0  0  0  0  0  0
  189.3220  177.4430  139.2160 C   0  0  0  0  0  0  0  0  0  0  0  0
  1 12  1  0  0  0  0
  1  8  1  0  0  0  0
  2  1  2  0  0  0  0
  3  8  2  0  0  0  0
  4  3  1  0  0  0  0
  5 11  1  0  0  0  0
  6  5  1  0  0  0  0
  7  2  1  0  0  0  0
  9 10  1  0  0  0  0
  9  5  2  0  0  0  0
 10  7  2  0  0  0  0
 11  2  1  0  0  0  0
 11  4  2  0  0  0  0
 12 14  1  0  0  0  0
 13 15  1  0  0  0  0
 14 15  2  0  0  0  0
 14 17  1  0  0  0  0
 16 13  2  0  0  0  0
 18 16  1  0  0  0  0
 18 12  2  0  0  0  0
 19 10  1  0  0  0  0
 20 19  1  0  0  0  0
 20 21  2  0  0  0  0
 23 25  1  0  0  0  0
 24 25  1  0  0  0  0
 25 22  1  0  0  0  0
 25 20  1  0  0  0  0
M  END
>  <MODEL>
3

>  <REMARK>
 VINA RESULT:     -10.2      1.791      4.587
  Name = 
  3 active torsions:
  status: ('A' for Active; 'I' for Inactive)
    1  A    between atoms: C_1  and  C_5
    2  A    between atoms: N_6  and  C_23
    3  A    between atoms: C_15  and  C_21
                            x       y       z     vdW  Elec       q    Type
                         _______ _______ _______ _____ _____    ______ ____

>  <TORSDO>
F 3

$$$$
=
 OpenBabel11052412423D

 25 27  0  0  0  0  0  0  0  0999 V2000
  188.2190  177.7250  145.0110 C   0  0  0  0  0  0  0  0  0  0  0  0
  186.9560  178.0820  144.4810 C   0  0  0  0  0  0  0  0  0  0  0  0
  187.2480  177.7700  147.2310 C   0  0  0  0  0  3  0  0  0  0  0  0
  186.0430  178.1070  146.7040 N   0  0  0  0  0  0  0  0  0  0  0  0
  184.6060  178.6320  144.8530 C   0  0  0  0  0  0  0  0  0  0  0  0
  183.4340  178.8320  145.7530 C   0  0  0  0  0  1  0  0  0  0  0  0
  186.7630  178.2820  143.1070 C   0  0  0  0  0  3  0  0  0  0  0  0
  188.3470  177.5740  146.3980 C   0  0  0  0  0  3  0  0  0  0  0  0
  184.4390  178.8160  143.4790 C   0  0  0  0  0  3  0  0  0  0  0  0
  185.5100  178.6460  142.6000 C   0  0  0  0  0  0  0  0  0  0  0  0
  185.8650  178.2700  145.3650 C   0  0  0  0  0  0  0  0  0  0  0  0
  189.4090  177.4850  144.1570 C   0  0  0  0  0  0  0  0  0  0  0  0
  191.6600  177.0880  142.5180 C   0  0  0  0  0  3  0  0  0  0  0  0
  189.4670  176.3850  143.2770 C   0  0  0  0  0  0  0  0  0  0  0  0
  190.5910  176.1900  142.4680 C   0  0  0  0  0  3  0  0  0  0  0  0
  191.6090  178.1840  143.3800 C   0  0  0  0  0  3  0  0  0  0  0  0
  188.4530  175.4840  143.2180 F   0  0  0  0  0  0  0  0  0  0  0  0
  190.4890  178.3830  144.1920 C   0  0  0  0  0  3  0  0  0  0  0  0
  185.2910  178.8450  141.1960 N   0  0  0  0  0  2  0  0  0  0  0  0
  184.2360  178.2810  140.4000 C   0  0  0  0  0  0  0  0  0  0  0  0
  183.4170  177.4670  140.9100 O   0  0  0  0  0  0  0  0  0  0  0  0
  183.1960  177.6750  138.2100 C   0  0  0  0  0  1  0  0  0  0  0  0
  183.6950  180.0280  138.7190 C   0  0  0  0  0  1  0  0  0  0  0  0
  185.5400  178.4390  138.3160 C   0  0  0  0  0  1  0  0  0  0  0  0
  184.1640  178.6000  138.9300 C   0  0  0  0  0  0  0  0  0  0  0  0
  1  8  1  0  0  0  0
  2  1  2  0  0  0  0
  2 11  1  0  0  0  0
  4  3  1  0  0  0  0
  5 11  1  0  0  0  0
  5  6  1  0  0  0  0
  7  2  1  0  0  0  0
  8  3  2  0  0  0  0
  9  5  2  0  0  0  0
 10  7  2  0  0  0  0
 10  9  1  0  0  0  0
 11  4  2  0  0  0  0
 12 18  1  0  0  0  0
 12  1  1  0  0  0  0
 13 16  1  0  0  0  0
 14 12  2  0  0  0  0
 15 13  2  0  0  0  0
 15 14  1  0  0  0  0
 16 18  2  0  0  0  0
 17 14  1  0  0  0  0
 19 10  1  0  0  0  0
 20 21  2  0  0  0  0
 20 19  1  0  0  0  0
 22 25  1  0  0  0  0
 23 25  1  0  0  0  0
 24 25  1  0  0  0  0
 25 20  1  0  0  0  0
M  END
>  <MODEL>
4

>  <REMARK>
 VINA RESULT:     -10.1      2.696      5.221
  Name = 
  3 active torsions:
  status: ('A' for Active; 'I' for Inactive)
    1  A    between atoms: C_1  and  C_5
    2  A    between atoms: N_6  and  C_23
    3  A    between atoms: C_15  and  C_21
                            x       y       z     vdW  Elec       q    Type
                         _______ _______ _______ _____ _____    ______ ____

>  <TORSDO>
F 3

$$$$
=
 OpenBabel11052412423D

 25 27  0  0  0  0  0  0  0  0999 V2000
  188.6880  177.6810  143.5640 C   0  0  0  0  0  0  0  0  0  0  0  0
  187.3180  177.8760  143.8620 C   0  0  0  0  0  0  0  0  0  0  0  0
  189.1620  177.7140  145.9400 C   0  0  0  0  0  3  0  0  0  0  0  0
  187.8430  177.8970  146.2070 N   0  0  0  0  0  0  0  0  0  0  0  0
  185.5580  178.1830  145.5270 C   0  0  0  0  0  0  0  0  0  0  0  0
  185.0970  178.2930  146.9400 C   0  0  0  0  0  1  0  0  0  0  0  0
  186.3530  177.9950  142.8510 C   0  0  0  0  0  3  0  0  0  0  0  0
  189.6020  177.6040  144.6220 C   0  0  0  0  0  3  0  0  0  0  0  0
  184.6160  178.2890  144.5010 C   0  0  0  0  0  3  0  0  0  0  0  0
  185.0040  178.1990  143.1630 C   0  0  0  0  0  0  0  0  0  0  0  0
  186.9150  177.9820  145.2160 C   0  0  0  0  0  0  0  0  0  0  0  0
  189.1940  177.5340  142.1750 C   0  0  0  0  0  0  0  0  0  0  0  0
  190.0950  177.2580  139.5260 C   0  0  0  0  0  3  0  0  0  0  0  0
  190.0990  176.5090  141.8320 C   0  0  0  0  0  0  0  0  0  0  0  0
  190.5470  176.3800  140.5140 C   0  0  0  0  0  3  0  0  0  0  0  0
  189.1930  178.2710  139.8550 C   0  0  0  0  0  3  0  0  0  0  0  0
  190.5720  175.6520  142.7720 F   0  0  0  0  0  0  0  0  0  0  0  0
  188.7430  178.4070  141.1710 C   0  0  0  0  0  3  0  0  0  0  0  0
  184.0010  178.3130  142.1440 N   0  0  0  0  0  2  0  0  0  0  0  0
  184.1680  178.8660  140.8280 C   0  0  0  0  0  0  0  0  0  0  0  0
  185.2700  179.3790  140.4870 O   0  0  0  0  0  0  0  0  0  0  0  0
  183.0500  180.1300  138.9840 C   0  0  0  0  0  1  0  0  0  0  0  0
  182.9790  177.6720  139.0020 C   0  0  0  0  0  1  0  0  0  0  0  0
  181.7100  178.9510  140.6880 C   0  0  0  0  0  1  0  0  0  0  0  0
  182.9940  178.9060  139.8850 C   0  0  0  0  0  0  0  0  0  0  0  0
  1  2  2  0  0  0  0
  1  8  1  0  0  0  0
  2 11  1  0  0  0  0
  3  4  1  0  0  0  0
  5  6  1  0  0  0  0
  7 10  2  0  0  0  0
  7  2  1  0  0  0  0
  8  3  2  0  0  0  0
  9  5  2  0  0  0  0
 10  9  1  0  0  0  0
 11  5  1  0  0  0  0
 11  4  2  0  0  0  0
 12  1  1  0  0  0  0
 13 16  2  0  0  0  0
 13 15  1  0  0  0  0
 14 12  1  0  0  0  0
 14 17  1  0  0  0  0
 15 14  2  0  0  0  0
 16 18  1  0  0  0  0
 18 12  2  0  0  0  0
 19 10  1  0  0  0  0
 20 19  1  0  0  0  0
 21 20  2  0  0  0  0
 22 25  1  0  0  0  0
 23 25  1  0  0  0  0
 25 24  1  0  0  0  0
 25 20  1  0  0  0  0
M  END
>  <MODEL>
5

>  <REMARK>
 VINA RESULT:      -9.6      2.670      5.481
  Name = 
  3 active torsions:
  status: ('A' for Active; 'I' for Inactive)
    1  A    between atoms: C_1  and  C_5
    2  A    between atoms: N_6  and  C_23
    3  A    between atoms: C_15  and  C_21
                            x       y       z     vdW  Elec       q    Type
                         _______ _______ _______ _____ _____    ______ ____

>  <TORSDO>
F 3

$$$$
=
 OpenBabel11052412423D

 25 27  0  0  0  0  0  0  0  0999 V2000
  187.3820  177.8130  145.8530 C   0  0  0  0  0  0  0  0  0  0  0  0
  188.6970  177.4820  145.4520 C   0  0  0  0  0  0  0  0  0  0  0  0
  188.0230  177.3790  148.1490 C   0  0  0  0  0  3  0  0  0  0  0  0
  189.2810  177.0690  147.7460 N   0  0  0  0  0  0  0  0  0  0  0  0
  190.9550  176.7680  146.0510 C   0  0  0  0  0  0  0  0  0  0  0  0
  191.9810  176.3750  147.0590 C   0  0  0  0  0  1  0  0  0  0  0  0
  189.0810  177.4870  144.1020 C   0  0  0  0  0  3  0  0  0  0  0  0
  187.0590  177.7540  147.2150 C   0  0  0  0  0  3  0  0  0  0  0  0
  191.3130  176.7910  144.7010 C   0  0  0  0  0  3  0  0  0  0  0  0
  190.3840  177.1460  143.7210 C   0  0  0  0  0  0  0  0  0  0  0  0
  189.6460  177.1060  146.4350 C   0  0  0  0  0  0  0  0  0  0  0  0
  186.3330  178.2400  144.8920 C   0  0  0  0  0  0  0  0  0  0  0  0
  184.3060  179.0510  143.1200 C   0  0  0  0  0  3  0  0  0  0  0  0
  186.0760  177.5050  143.7170 C   0  0  0  0  0  0  0  0  0  0  0  0
  185.0700  177.9160  142.8370 C   0  0  0  0  0  3  0  0  0  0  0  0
  184.5480  179.7810  144.2850 C   0  0  0  0  0  3  0  0  0  0  0  0
  186.8120  176.4090  143.4040 F   0  0  0  0  0  0  0  0  0  0  0  0
  185.5530  179.3760  145.1670 C   0  0  0  0  0  3  0  0  0  0  0  0
  190.7970  177.1560  142.3480 N   0  0  0  0  0  2  0  0  0  0  0  0
  189.9450  177.2010  141.1920 C   0  0  0  0  0  0  0  0  0  0  0  0
  188.6900  177.1680  141.3220 O   0  0  0  0  0  0  0  0  0  0  0  0
  192.0480  177.5050  139.8760 C   0  0  0  0  0  1  0  0  0  0  0  0
  190.3810  175.8490  139.1520 C   0  0  0  0  0  1  0  0  0  0  0  0
  189.8810  178.2590  138.9670 C   0  0  0  0  0  1  0  0  0  0  0  0
  190.5590  177.2020  139.8160 C   0  0  0  0  0  0  0  0  0  0  0  0
  1  8  1  0  0  0  0
  2  1  2  0  0  0  0
  2 11  1  0  0  0  0
  4  3  1  0  0  0  0
  5 11  1  0  0  0  0
  5  6  1  0  0  0  0
  7  2  1  0  0  0  0
  8  3  2  0  0  0  0
  9  5  2  0  0  0  0
 10  7  2  0  0  0  0
 10  9  1  0  0  0  0
 11  4  2  0  0  0  0
 12 18  1  0  0  0  0
 12  1  1  0  0  0  0
 13 16  1  0  0  0  0
 14 12  2  0  0  0  0
 15 13  2  0  0  0  0
 15 14  1  0  0  0  0
 16 18  2  0  0  0  0
 17 14  1  0  0  0  0
 19 10  1  0  0  0  0
 20 21  2  0  0  0  0
 20 19  1  0  0  0  0
 23 25  1  0  0  0  0
 24 25  1  0  0  0  0
 25 22  1  0  0  0  0
 25 20  1  0  0  0  0
M  END
>  <MODEL>
6

>  <REMARK>
 VINA RESULT:      -9.3      1.480      2.025
  Name = 
  3 active torsions:
  status: ('A' for Active; 'I' for Inactive)
    1  A    between atoms: C_1  and  C_5
    2  A    between atoms: N_6  and  C_23
    3  A    between atoms: C_15  and  C_21
                            x       y       z     vdW  Elec       q    Type
                         _______ _______ _______ _____ _____    ______ ____

>  <TORSDO>
F 3

$$$$
=
 OpenBabel11052412423D

 25 27  0  0  0  0  0  0  0  0999 V2000
  185.2130  178.3890  144.4740 C   0  0  0  0  0  0  0  0  0  0  0  0
  185.1160  178.5140  143.0680 C   0  0  0  0  0  0  0  0  0  0  0  0
  182.8350  178.8330  144.6300 C   0  0  0  0  0  3  0  0  0  0  0  0
  182.7620  178.9450  143.2790 N   0  0  0  0  0  0  0  0  0  0  0  0
  183.7470  178.9320  141.0900 C   0  0  0  0  0  0  0  0  0  0  0  0
  182.4360  179.2240  140.4410 C   0  0  0  0  0  1  0  0  0  0  0  0
  186.2400  178.3940  142.2380 C   0  0  0  0  0  3  0  0  0  0  0  0
  184.0550  178.5540  145.2450 C   0  0  0  0  0  3  0  0  0  0  0  0
  184.8810  178.7980  140.2850 C   0  0  0  0  0  3  0  0  0  0  0  0
  186.1300  178.5320  140.8500 C   0  0  0  0  0  0  0  0  0  0  0  0
  183.8570  178.7980  142.4850 C   0  0  0  0  0  0  0  0  0  0  0  0
  186.4870  178.0690  145.1660 C   0  0  0  0  0  0  0  0  0  0  0  0
  188.8940  177.4050  146.4590 C   0  0  0  0  0  3  0  0  0  0  0  0
  186.7030  178.4420  146.5090 C   0  0  0  0  0  0  0  0  0  0  0  0
  187.9040  178.1130  147.1450 C   0  0  0  0  0  3  0  0  0  0  0  0
  188.6860  177.0250  145.1330 C   0  0  0  0  0  3  0  0  0  0  0  0
  185.7690  179.1470  147.1960 F   0  0  0  0  0  0  0  0  0  0  0  0
  187.4890  177.3520  144.4910 C   0  0  0  0  0  3  0  0  0  0  0  0
  187.2660  178.4020  139.9840 N   0  0  0  0  0  2  0  0  0  0  0  0
  188.4460  177.6170  140.2220 C   0  0  0  0  0  0  0  0  0  0  0  0
  188.5920  177.0000  141.3120 O   0  0  0  0  0  0  0  0  0  0  0  0
  189.4710  176.3610  138.3190 C   0  0  0  0  0  1  0  0  0  0  0  0
  189.4510  178.8200  138.2930 C   0  0  0  0  0  1  0  0  0  0  0  0
  190.8880  177.6200  139.9000 C   0  0  0  0  0  1  0  0  0  0  0  0
  189.5470  177.6030  139.1940 C   0  0  0  0  0  0  0  0  0  0  0  0
  1 12  1  0  0  0  0
  1  8  1  0  0  0  0
  2  1  2  0  0  0  0
  3  8  2  0  0  0  0
  4  3  1  0  0  0  0
  5 11  1  0  0  0  0
  6  5  1  0  0  0  0
  7  2  1  0  0  0  0
  9 10  1  0  0  0  0
  9  5  2  0  0  0  0
 10  7  2  0  0  0  0
 11  2  1  0  0  0  0
 11  4  2  0  0  0  0
 12 14  1  0  0  0  0
 13 15  1  0  0  0  0
 14 15  2  0  0  0  0
 14 17  1  0  0  0  0
 16 13  2  0  0  0  0
 18 16  1  0  0  0  0
 18 12  2  0  0  0  0
 19 20  1  0  0  0  0
 19 10  1  0  0  0  0
 20 21  2  0  0  0  0
 22 25  1  0  0  0  0
 23 25  1  0  0  0  0
 25 24  1  0  0  0  0
 25 20  1  0  0  0  0
M  END
>  <MODEL>
7

>  <REMARK>
 VINA RESULT:      -9.2      2.024      4.672
  Name = 
  3 active torsions:
  status: ('A' for Active; 'I' for Inactive)
    1  A    between atoms: C_1  and  C_5
    2  A    between atoms: N_6  and  C_23
    3  A    between atoms: C_15  and  C_21
                            x       y       z     vdW  Elec       q    Type
                         _______ _______ _______ _____ _____    ______ ____

>  <TORSDO>
F 3

$$$$
=
 OpenBabel11052412423D

 25 27  0  0  0  0  0  0  0  0999 V2000
  184.8090  178.8160  141.0440 C   0  0  0  0  0  0  0  0  0  0  0  0
  186.1680  178.5730  140.7320 C   0  0  0  0  0  0  0  0  0  0  0  0
  184.3200  178.8630  138.6710 C   0  0  0  0  0  3  0  0  0  0  0  0
  185.6270  178.6250  138.3910 N   0  0  0  0  0  0  0  0  0  0  0  0
  187.9050  178.2460  139.0470 C   0  0  0  0  0  0  0  0  0  0  0  0
  188.3500  178.1360  137.6280 C   0  0  0  0  0  1  0  0  0  0  0  0
  187.1440  178.4500  141.7310 C   0  0  0  0  0  3  0  0  0  0  0  0
  183.8940  178.9610  139.9940 C   0  0  0  0  0  3  0  0  0  0  0  0
  188.8560  178.1180  140.0620 C   0  0  0  0  0  3  0  0  0  0  0  0
  188.4860  178.2210  141.4050 C   0  0  0  0  0  0  0  0  0  0  0  0
  186.5580  178.4800  139.3730 C   0  0  0  0  0  0  0  0  0  0  0  0
  184.3100  178.9030  142.4400 C   0  0  0  0  0  0  0  0  0  0  0  0
  183.4090  179.0300  145.1000 C   0  0  0  0  0  3  0  0  0  0  0  0
  182.9510  178.6860  142.7450 C   0  0  0  0  0  0  0  0  0  0  0  0
  182.5080  178.7540  144.0690 C   0  0  0  0  0  3  0  0  0  0  0  0
  184.7570  179.2400  144.8100 C   0  0  0  0  0  3  0  0  0  0  0  0
  182.0470  178.4340  141.7640 F   0  0  0  0  0  0  0  0  0  0  0  0
  185.2060  179.1740  143.4880 C   0  0  0  0  0  3  0  0  0  0  0  0
  189.4960  178.0830  142.4130 N   0  0  0  0  0  2  0  0  0  0  0  0
  189.7240  176.9400  143.2540 C   0  0  0  0  0  0  0  0  0  0  0  0
  188.9540  175.9420  143.1960 O   0  0  0  0  0  0  0  0  0  0  0  0
  190.2960  176.9850  145.6870 C   0  0  0  0  0  1  0  0  0  0  0  0
  191.7330  175.7570  144.1140 C   0  0  0  0  0  1  0  0  0  0  0  0
  191.6690  178.2240  144.0530 C   0  0  0  0  0  1  0  0  0  0  0  0
  190.8390  176.9740  144.2670 C   0  0  0  0  0  0  0  0  0  0  0  0
  1 12  1  0  0  0  0
  2  1  1  0  0  0  0
  2  7  1  0  0  0  0
  3  8  1  0  0  0  0
  4  3  2  0  0  0  0
  4 11  1  0  0  0  0
  5 11  1  0  0  0  0
  5  9  2  0  0  0  0
  6  5  1  0  0  0  0
  8  1  2  0  0  0  0
  9 10  1  0  0  0  0
 10  7  2  0  0  0  0
 10 19  1  0  0  0  0
 11  2  2  0  0  0  0
 12 14  2  0  0  0  0
 12 18  1  0  0  0  0
 14 15  1  0  0  0  0
 15 13  2  0  0  0  0
 16 13  1  0  0  0  0
 17 14  1  0  0  0  0
 18 16  2  0  0  0  0
 19 20  1  0  0  0  0
 20 25  1  0  0  0  0
 21 20  2  0  0  0  0
 23 25  1  0  0  0  0
 24 25  1  0  0  0  0
 25 22  1  0  0  0  0
M  END
>  <MODEL>
8

>  <REMARK>
 VINA RESULT:      -9.1      2.305      5.429
  Name = 
  3 active torsions:
  status: ('A' for Active; 'I' for Inactive)
    1  A    between atoms: C_1  and  C_5
    2  A    between atoms: N_6  and  C_23
    3  A    between atoms: C_15  and  C_21
                            x       y       z     vdW  Elec       q    Type
                         _______ _______ _______ _____ _____    ______ ____

>  <TORSDO>
F 3

$$$$
=
 OpenBabel11052412423D

 25 27  0  0  0  0  0  0  0  0999 V2000
  185.7390  178.1200  143.7650 C   0  0  0  0  0  0  0  0  0  0  0  0
  184.5660  178.2810  142.9900 C   0  0  0  0  0  0  0  0  0  0  0  0
  184.4970  178.8530  145.7120 C   0  0  0  0  0  3  0  0  0  0  0  0
  183.3800  178.9970  144.9530 N   0  0  0  0  0  0  0  0  0  0  0  0
  182.2070  178.9000  142.8610 C   0  0  0  0  0  0  0  0  0  0  0  0
  180.9380  179.3630  143.4920 C   0  0  0  0  0  1  0  0  0  0  0  0
  184.5550  178.0360  141.6090 C   0  0  0  0  0  3  0  0  0  0  0  0
  185.6860  178.4150  145.1330 C   0  0  0  0  0  3  0  0  0  0  0  0
  182.2210  178.6400  141.4890 C   0  0  0  0  0  3  0  0  0  0  0  0
  183.3890  178.2100  140.8550 C   0  0  0  0  0  0  0  0  0  0  0  0
  183.3780  178.7280  143.6190 C   0  0  0  0  0  0  0  0  0  0  0  0
  187.0190  177.6330  143.1920 C   0  0  0  0  0  0  0  0  0  0  0  0
  189.4670  176.7070  142.1640 C   0  0  0  0  0  3  0  0  0  0  0  0
  187.6620  178.3250  142.1460 C   0  0  0  0  0  0  0  0  0  0  0  0
  188.8770  177.8580  141.6350 C   0  0  0  0  0  3  0  0  0  0  0  0
  188.8420  176.0190  143.2050 C   0  0  0  0  0  3  0  0  0  0  0  0
  187.1060  179.4350  141.5980 F   0  0  0  0  0  0  0  0  0  0  0  0
  187.6270  176.4800  143.7180 C   0  0  0  0  0  3  0  0  0  0  0  0
  183.3550  177.9550  139.4440 N   0  0  0  0  0  2  0  0  0  0  0  0
  182.9610  176.7340  138.7980 C   0  0  0  0  0  0  0  0  0  0  0  0
  182.6590  175.7190  139.4830 O   0  0  0  0  0  0  0  0  0  0  0  0
  182.1500  177.7420  136.6590 C   0  0  0  0  0  1  0  0  0  0  0  0
  184.4130  176.7870  136.7820 C   0  0  0  0  0  1  0  0  0  0  0  0
  182.4450  175.3000  136.8620 C   0  0  0  0  0  1  0  0  0  0  0  0
  182.9910  176.6460  137.2940 C   0  0  0  0  0  0  0  0  0  0  0  0
  1  8  1  0  0  0  0
  2 11  1  0  0  0  0
  2  1  2  0  0  0  0
  4  3  1  0  0  0  0
  5  6  1  0  0  0  0
  5 11  1  0  0  0  0
  7  2  1  0  0  0  0
  8  3  2  0  0  0  0
  9  5  2  0  0  0  0
 10  9  1  0  0  0  0
 10  7  2  0  0  0  0
 11  4  2  0  0  0  0
 12 18  1  0  0  0  0
 12  1  1  0  0  0  0
 13 16  1  0  0  0  0
 14 12  2  0  0  0  0
 15 14  1  0  0  0  0
 15 13  2  0  0  0  0
 16 18  2  0  0  0  0
 17 14  1  0  0  0  0
 19 10  1  0  0  0  0
 20 19  1  0  0  0  0
 20 21  2  0  0  0  0
 22 25  1  0  0  0  0
 23 25  1  0  0  0  0
 24 25  1  0  0  0  0
 25 20  1  0  0  0  0
M  END
>  <MODEL>
9

>  <REMARK>
 VINA RESULT:      -9.1      3.594      6.133
  Name = 
  3 active torsions:
  status: ('A' for Active; 'I' for Inactive)
    1  A    between atoms: C_1  and  C_5
    2  A    between atoms: N_6  and  C_23
    3  A    between atoms: C_15  and  C_21
                            x       y       z     vdW  Elec       q    Type
                         _______ _______ _______ _____ _____    ______ ____

>  <TORSDO>
F 3

$$$$
