=
 OpenBabel11052415473D

 34 37  0  0  1  0  0  0  0  0999 V2000
  189.4520  178.1250  142.4720 O   0  0  0  0  0  0  0  0  0  0  0  0
  189.2030  177.7520  146.0550 C   0  0  0  0  0  2  0  0  0  0  0  0
  190.0950  176.6140  145.5890 C   0  0  1  0  0  3  0  0  0  0  0  0
  190.7820  175.9870  143.3230 O   0  0  0  0  0  1  0  0  0  0  0  0
  189.6980  176.3250  144.1410 C   0  0  2  0  0  3  0  0  0  0  0  0
  188.7310  178.4890  144.8120 C   0  0  0  0  0  2  0  0  0  0  0  0
  188.8780  177.5210  143.6260 C   0  0  1  0  0  0  0  0  0  0  0  0
  192.3420  176.2060  146.6410 O   0  0  0  0  0  1  0  0  0  0  0  0
  191.5420  176.9560  145.7870 C   0  0  0  0  0  0  0  0  0  0  0  0
  192.0360  177.9310  145.1670 O   0  0  0  0  0  0  0  0  0  0  0  0
  187.4770  177.0410  143.2080 C   0  0  0  0  0  2  0  0  0  0  0  0
  185.5180  178.6230  143.1570 C   0  0  0  0  0  3  0  0  0  0  0  0
  184.1890  179.0280  145.1410 C   0  0  0  0  0  3  0  0  0  0  0  0
  184.4480  179.2680  143.7880 C   0  0  0  0  0  3  0  0  0  0  0  0
  186.0670  177.5010  145.2320 C   0  0  0  0  0  3  0  0  0  0  0  0
  186.3320  177.7410  143.8790 C   0  0  0  0  0  0  0  0  0  0  0  0
  184.9970  178.1450  145.8620 C   0  0  0  0  0  3  0  0  0  0  0  0
  188.8000  177.7200  141.2890 C   0  0  2  0  0  3  0  0  0  0  0  0
  191.9360  176.9340  139.6880 C   0  0  0  0  0  2  0  0  0  0  0  0
  189.4780  177.1900  137.8610 C   0  0  0  0  0  2  0  0  0  0  0  0
  192.9800  175.3480  136.4290 N   0  0  0  0  0  0  0  0  0  0  0  0
  193.9400  174.3860  135.9750 C   0  0  0  0  0  0  0  0  0  0  0  0
  193.1010  175.9430  137.7540 C   0  0  0  0  0  2  0  0  0  0  0  0
  194.8370  173.9640  136.7540 O   0  0  0  0  0  1  0  0  0  0  0  0
  191.7180  176.1990  138.3520 C   0  0  2  0  0  3  0  0  0  0  0  0
  193.8930  173.9110  134.6680 O   0  0  0  0  0  0  0  0  0  0  0  0
  190.7000  176.1400  136.1800 C   0  0  0  0  0  2  0  0  0  0  0  0
  190.8580  176.9420  137.3960 N   0  0  1  0  0  0  0  0  0  0  0  0
  192.0410  175.9440  135.4870 C   0  0  0  0  0  2  0  0  0  0  0  0
  189.0640  176.4290  139.1280 C   0  0  0  0  0  2  0  0  0  0  0  0
  190.8770  177.7840  140.0400 O   0  0  0  0  0  0  0  0  0  0  0  0
  189.7780  176.9700  140.3770 C   0  0  1  0  0  3  0  0  0  0  0  0
  188.1420  178.9180  140.5980 C   0  0  0  0  0  2  0  0  0  0  0  0
  186.9020  178.5700  140.0600 O   0  0  0  0  0  1  0  0  0  0  0  0
  1  7  1  0  0  0  0
  3  9  1  6  0  0  0
  3  2  1  0  0  0  0
  5  4  1  6  0  0  0
  5  3  1  0  0  0  0
  6  2  1  0  0  0  0
  7 11  1  6  0  0  0
  7  5  1  0  0  0  0
  7  6  1  0  0  0  0
  9  8  1  0  0  0  0
 10  9  2  0  0  0  0
 11 16  1  0  0  0  0
 12 14  2  0  0  0  0
 12 16  1  0  0  0  0
 13 17  2  0  0  0  0
 14 13  1  0  0  0  0
 15 17  1  0  0  0  0
 16 15  2  0  0  0  0
 18 33  1  6  0  0  0
 18  1  1  0  0  0  0
 19 31  1  0  0  0  0
 20 30  1  0  0  0  0
 21 23  1  0  0  0  0
 22 21  1  0  0  0  0
 22 24  1  0  0  0  0
 25 23  1  6  0  0  0
 25 19  1  0  0  0  0
 26 22  2  0  0  0  0
 28 27  1  6  0  0  0
 28 20  1  0  0  0  0
 28 25  1  0  0  0  0
 29 27  1  0  0  0  0
 29 21  1  0  0  0  0
 30 32  1  0  0  0  0
 31 32  1  0  0  0  0
 32 18  1  6  0  0  0
 34 33  1  0  0  0  0
M  END
>  <MODEL>
1

>  <REMARK>
 VINA RESULT:      -8.0      0.000      0.000
  Name = 
  7 active torsions:
  status: ('A' for Active; 'I' for Inactive)
    1  A    between atoms: C_1  and  C_20
    2  A    between atoms: C_1  and  C_34
    3  A    between atoms: O_5  and  C_18
    4  A    between atoms: O_5  and  C_34
    5  A    between atoms: C_8  and  C_18
    6  A    between atoms: C_13  and  C_23
    7  A    between atoms: C_18  and  C_33
                            x       y       z     vdW  Elec       q    Type
                         _______ _______ _______ _____ _____    ______ ____

>  <TORSDO>
F 7

$$$$
=
 OpenBabel11052415473D

 34 37  0  0  1  0  0  0  0  0999 V2000
  189.4350  176.0450  138.0110 O   0  0  0  0  0  0  0  0  0  0  0  0
  190.4890  175.5340  134.5940 C   0  0  0  0  0  2  0  0  0  0  0  0
  190.5720  174.1690  135.2540 C   0  0  1  0  0  3  0  0  0  0  0  0
  190.1340  173.5190  137.5740 O   0  0  0  0  0  1  0  0  0  0  0  0
  190.8000  174.4270  136.7440 C   0  0  2  0  0  3  0  0  0  0  0  0
  190.0930  176.5300  135.6730 C   0  0  0  0  0  2  0  0  0  0  0  0
  190.4560  175.8990  137.0280 C   0  0  1  0  0  0  0  0  0  0  0  0
  189.4400  171.9660  134.8200 O   0  0  0  0  0  1  0  0  0  0  0  0
  189.3580  173.3480  134.9370 C   0  0  0  0  0  0  0  0  0  0  0  0
  188.2490  173.9210  134.7800 O   0  0  0  0  0  0  0  0  0  0  0  0
  191.6960  176.6180  137.5870 C   0  0  0  0  0  2  0  0  0  0  0  0
  193.5850  175.0370  138.1150 C   0  0  0  0  0  3  0  0  0  0  0  0
  195.4630  174.7890  136.6080 C   0  0  0  0  0  3  0  0  0  0  0  0
  194.8100  174.4430  137.7940 C   0  0  0  0  0  3  0  0  0  0  0  0
  193.6680  176.3220  136.0640 C   0  0  0  0  0  3  0  0  0  0  0  0
  193.0130  175.9810  137.2520 C   0  0  0  0  0  0  0  0  0  0  0  0
  194.8930  175.7270  135.7430 C   0  0  0  0  0  3  0  0  0  0  0  0
  189.4710  177.3180  138.6180 C   0  0  2  0  0  3  0  0  0  0  0  0
  188.4640  178.1920  141.9700 C   0  0  0  0  0  2  0  0  0  0  0  0
  191.4220  177.4630  141.5620 C   0  0  0  0  0  2  0  0  0  0  0  0
  189.7950  177.5540  145.4420 N   0  0  0  0  0  0  0  0  0  0  0  0
  189.2800  177.1800  146.7250 C   0  0  0  0  0  0  0  0  0  0  0  0
  188.8960  178.0180  144.3920 C   0  0  0  0  0  2  0  0  0  0  0  0
  188.0350  177.1450  146.9260 O   0  0  0  0  0  0  0  0  0  0  0  0
  189.3970  177.5610  143.0220 C   0  0  2  0  0  3  0  0  0  0  0  0
  190.1480  176.8540  147.7620 O   0  0  0  0  0  1  0  0  0  0  0  0
  191.6170  177.2400  143.8720 C   0  0  0  0  0  2  0  0  0  0  0  0
  190.8280  177.9130  142.8370 N   0  0  1  0  0  0  0  0  0  0  0  0
  191.2280  177.7380  145.2560 C   0  0  0  0  0  2  0  0  0  0  0  0
  190.5630  176.4870  140.7450 C   0  0  0  0  0  2  0  0  0  0  0  0
  189.0900  178.4310  140.7380 O   0  0  0  0  0  0  0  0  0  0  0  0
  189.3320  177.1790  140.1390 C   0  0  1  0  0  3  0  0  0  0  0  0
  188.4130  178.2390  138.0050 C   0  0  0  0  0  2  0  0  0  0  0  0
  188.9810  179.4400  137.5740 O   0  0  0  0  0  1  0  0  0  0  0  0
  1 18  1  0  0  0  0
  2  3  1  0  0  0  0
  2  6  1  0  0  0  0
  3  9  1  1  0  0  0
  3  5  1  0  0  0  0
  5  7  1  0  0  0  0
  5  4  1  1  0  0  0
  6  7  1  0  0  0  0
  7 11  1  1  0  0  0
  7  1  1  0  0  0  0
  8  9  1  0  0  0  0
 10  9  2  0  0  0  0
 13 14  2  0  0  0  0
 14 12  1  0  0  0  0
 15 16  1  0  0  0  0
 16 11  1  0  0  0  0
 16 12  2  0  0  0  0
 17 15  2  0  0  0  0
 17 13  1  0  0  0  0
 18 33  1  6  0  0  0
 21 22  1  0  0  0  0
 22 24  2  0  0  0  0
 22 26  1  0  0  0  0
 23 21  1  0  0  0  0
 25 19  1  6  0  0  0
 25 23  1  0  0  0  0
 27 29  1  0  0  0  0
 28 20  1  6  0  0  0
 28 25  1  0  0  0  0
 28 27  1  0  0  0  0
 29 21  1  0  0  0  0
 30 20  1  0  0  0  0
 31 19  1  0  0  0  0
 32 18  1  6  0  0  0
 32 31  1  0  0  0  0
 32 30  1  0  0  0  0
 34 33  1  0  0  0  0
M  END
>  <MODEL>
2

>  <REMARK>
 VINA RESULT:      -7.6      2.924      9.210
  Name = 
  7 active torsions:
  status: ('A' for Active; 'I' for Inactive)
    1  A    between atoms: C_1  and  C_20
    2  A    between atoms: C_1  and  C_34
    3  A    between atoms: O_5  and  C_18
    4  A    between atoms: O_5  and  C_34
    5  A    between atoms: C_8  and  C_18
    6  A    between atoms: C_13  and  C_23
    7  A    between atoms: C_18  and  C_33
                            x       y       z     vdW  Elec       q    Type
                         _______ _______ _______ _____ _____    ______ ____

>  <TORSDO>
F 7

$$$$
=
 OpenBabel11052415473D

 34 37  0  0  1  0  0  0  0  0999 V2000
  189.7770  176.2180  138.2500 O   0  0  0  0  0  0  0  0  0  0  0  0
  190.4140  175.7810  134.7220 C   0  0  0  0  0  2  0  0  0  0  0  0
  190.4240  174.3820  135.3130 C   0  0  1  0  0  3  0  0  0  0  0  0
  190.1620  173.6610  137.6400 O   0  0  0  0  0  1  0  0  0  0  0  0
  190.8300  174.5400  136.7790 C   0  0  2  0  0  3  0  0  0  0  0  0
  190.2370  176.7540  135.8770 C   0  0  0  0  0  2  0  0  0  0  0  0
  190.6700  176.0230  137.1580 C   0  0  1  0  0  0  0  0  0  0  0  0
  187.9090  174.3820  135.2960 O   0  0  0  0  0  1  0  0  0  0  0  0
  189.1050  173.7020  135.0960 C   0  0  0  0  0  0  0  0  0  0  0  0
  189.0830  172.5010  134.7240 O   0  0  0  0  0  0  0  0  0  0  0  0
  192.0290  176.5860  137.6090 C   0  0  0  0  0  2  0  0  0  0  0  0
  193.7250  174.7480  137.9070 C   0  0  0  0  0  3  0  0  0  0  0  0
  195.4630  174.3740  136.2620 C   0  0  0  0  0  3  0  0  0  0  0  0
  194.8420  174.0290  137.4660 C   0  0  0  0  0  3  0  0  0  0  0  0
  193.8520  176.1550  135.9390 C   0  0  0  0  0  3  0  0  0  0  0  0
  193.2300  175.8150  137.1460 C   0  0  0  0  0  0  0  0  0  0  0  0
  194.9680  175.4360  135.4990 C   0  0  0  0  0  3  0  0  0  0  0  0
  189.7970  177.5500  138.7120 C   0  0  2  0  0  3  0  0  0  0  0  0
  190.8870  176.3570  141.9370 C   0  0  0  0  0  2  0  0  0  0  0  0
  188.0370  177.4960  141.7760 C   0  0  0  0  0  2  0  0  0  0  0  0
  189.8810  176.9650  145.5220 N   0  0  0  0  0  0  0  0  0  0  0  0
  190.5240  177.1920  146.7820 C   0  0  0  0  0  0  0  0  0  0  0  0
  190.6380  176.4460  144.3890 C   0  0  0  0  0  2  0  0  0  0  0  0
  191.7710  177.0480  146.8950 O   0  0  0  0  0  0  0  0  0  0  0  0
  190.1180  177.0440  143.0820 C   0  0  2  0  0  3  0  0  0  0  0  0
  189.7760  177.5700  147.8930 O   0  0  0  0  0  1  0  0  0  0  0  0
  188.0220  177.6100  144.1030 C   0  0  0  0  0  2  0  0  0  0  0  0
  188.6440  176.8980  142.9830 N   0  0  1  0  0  0  0  0  0  0  0  0
  188.4270  176.9840  145.4290 C   0  0  0  0  0  2  0  0  0  0  0  0
  188.9670  178.3950  140.9490 C   0  0  0  0  0  2  0  0  0  0  0  0
  190.1570  176.2750  140.7420 O   0  0  0  0  0  0  0  0  0  0  0  0
  190.0510  177.5800  140.2240 C   0  0  1  0  0  3  0  0  0  0  0  0
  188.5140  178.2810  138.3090 C   0  0  0  0  0  2  0  0  0  0  0  0
  188.8000  179.4310  137.5700 O   0  0  0  0  0  1  0  0  0  0  0  0
  1 18  1  0  0  0  0
  2  3  1  0  0  0  0
  2  6  1  0  0  0  0
  3  9  1  1  0  0  0
  3  5  1  0  0  0  0
  5  7  1  0  0  0  0
  5  4  1  1  0  0  0
  6  7  1  0  0  0  0
  7 11  1  1  0  0  0
  7  1  1  0  0  0  0
  9  8  1  0  0  0  0
 10  9  2  0  0  0  0
 13 14  2  0  0  0  0
 14 12  1  0  0  0  0
 15 16  1  0  0  0  0
 16 11  1  0  0  0  0
 16 12  2  0  0  0  0
 17 15  2  0  0  0  0
 17 13  1  0  0  0  0
 18 33  1  1  0  0  0
 21 22  1  0  0  0  0
 22 24  2  0  0  0  0
 22 26  1  0  0  0  0
 23 21  1  0  0  0  0
 25 19  1  6  0  0  0
 25 23  1  0  0  0  0
 27 29  1  0  0  0  0
 28 20  1  6  0  0  0
 28 25  1  0  0  0  0
 28 27  1  0  0  0  0
 29 21  1  0  0  0  0
 30 20  1  0  0  0  0
 31 19  1  0  0  0  0
 32 18  1  6  0  0  0
 32 31  1  0  0  0  0
 32 30  1  0  0  0  0
 34 33  1  0  0  0  0
M  END
>  <MODEL>
3

>  <REMARK>
 VINA RESULT:      -7.6      2.820      9.178
  Name = 
  7 active torsions:
  status: ('A' for Active; 'I' for Inactive)
    1  A    between atoms: C_1  and  C_20
    2  A    between atoms: C_1  and  C_34
    3  A    between atoms: O_5  and  C_18
    4  A    between atoms: O_5  and  C_34
    5  A    between atoms: C_8  and  C_18
    6  A    between atoms: C_13  and  C_23
    7  A    between atoms: C_18  and  C_33
                            x       y       z     vdW  Elec       q    Type
                         _______ _______ _______ _____ _____    ______ ____

>  <TORSDO>
F 7

$$$$
=
 OpenBabel11052415473D

 34 37  0  0  1  0  0  0  0  0999 V2000
  187.8710  178.6290  139.2030 O   0  0  0  0  0  0  0  0  0  0  0  0
  186.7350  176.2440  136.7390 C   0  0  0  0  0  2  0  0  0  0  0  0
  187.3850  177.3660  135.9490 C   0  0  1  0  0  3  0  0  0  0  0  0
  188.3780  179.4650  136.7320 O   0  0  0  0  0  1  0  0  0  0  0  0
  187.2620  178.6240  136.8110 C   0  0  2  0  0  3  0  0  0  0  0  0
  186.7610  176.6540  138.2040 C   0  0  0  0  0  2  0  0  0  0  0  0
  186.9160  178.1830  138.2450 C   0  0  1  0  0  0  0  0  0  0  0  0
  189.4800  177.7420  134.6100 O   0  0  0  0  0  0  0  0  0  0  0  0
  188.7880  177.0040  135.5640 C   0  0  0  0  0  0  0  0  0  0  0  0
  189.3460  176.0220  136.1150 O   0  0  0  0  0  1  0  0  0  0  0  0
  185.5700  178.8020  138.6600 C   0  0  0  0  0  2  0  0  0  0  0  0
  183.8480  177.2770  139.6880 C   0  0  0  0  0  3  0  0  0  0  0  0
  182.1570  176.2060  138.3250 C   0  0  0  0  0  3  0  0  0  0  0  0
  182.7380  176.4340  139.5760 C   0  0  0  0  0  3  0  0  0  0  0  0
  183.7970  177.6640  137.2970 C   0  0  0  0  0  3  0  0  0  0  0  0
  184.3820  177.8910  138.5480 C   0  0  0  0  0  0  0  0  0  0  0  0
  182.6850  176.8210  137.1860 C   0  0  0  0  0  3  0  0  0  0  0  0
  188.5990  177.5550  139.7560 C   0  0  2  0  0  3  0  0  0  0  0  0
  189.3730  176.6590  143.1640 C   0  0  0  0  0  2  0  0  0  0  0  0
  186.5720  177.8130  142.6400 C   0  0  0  0  0  2  0  0  0  0  0  0
  188.0640  177.6160  146.5700 N   0  0  0  0  0  0  0  0  0  0  0  0
  188.5970  177.9530  147.8560 C   0  0  0  0  0  0  0  0  0  0  0  0
  188.9090  176.9830  145.5640 C   0  0  0  0  0  2  0  0  0  0  0  0
  189.8260  177.8060  148.0950 O   0  0  0  0  0  0  0  0  0  0  0  0
  188.5190  177.4610  144.1650 C   0  0  2  0  0  3  0  0  0  0  0  0
  187.7610  178.4440  148.8550 O   0  0  0  0  0  1  0  0  0  0  0  0
  186.3530  178.1460  144.9340 C   0  0  0  0  0  2  0  0  0  0  0  0
  187.0570  177.3240  143.9470 N   0  0  1  0  0  0  0  0  0  0  0  0
  186.6250  177.6440  146.3450 C   0  0  0  0  0  2  0  0  0  0  0  0
  187.5910  178.6170  141.8190 C   0  0  0  0  0  2  0  0  0  0  0  0
  188.7500  176.4740  141.9200 O   0  0  0  0  0  0  0  0  0  0  0  0
  188.7180  177.7250  141.2750 C   0  0  1  0  0  3  0  0  0  0  0  0
  189.9580  177.4120  139.0650 C   0  0  0  0  0  2  0  0  0  0  0  0
  190.4680  176.1220  139.2200 O   0  0  0  0  0  1  0  0  0  0  0  0
  1 18  1  0  0  0  0
  2  6  1  0  0  0  0
  3  9  1  1  0  0  0
  3  2  1  0  0  0  0
  3  5  1  0  0  0  0
  5  4  1  1  0  0  0
  5  7  1  0  0  0  0
  6  7  1  0  0  0  0
  7 11  1  1  0  0  0
  7  1  1  0  0  0  0
  8  9  2  0  0  0  0
  9 10  1  0  0  0  0
 13 14  2  0  0  0  0
 14 12  1  0  0  0  0
 15 16  1  0  0  0  0
 16 11  1  0  0  0  0
 16 12  2  0  0  0  0
 17 15  2  0  0  0  0
 17 13  1  0  0  0  0
 18 33  1  6  0  0  0
 21 22  1  0  0  0  0
 22 24  2  0  0  0  0
 22 26  1  0  0  0  0
 23 21  1  0  0  0  0
 25 19  1  6  0  0  0
 25 23  1  0  0  0  0
 27 29  1  0  0  0  0
 28 20  1  6  0  0  0
 28 25  1  0  0  0  0
 28 27  1  0  0  0  0
 29 21  1  0  0  0  0
 30 20  1  0  0  0  0
 31 19  1  0  0  0  0
 32 18  1  6  0  0  0
 32 30  1  0  0  0  0
 32 31  1  0  0  0  0
 33 34  1  0  0  0  0
M  END
>  <MODEL>
4

>  <REMARK>
 VINA RESULT:      -7.6      3.892      8.359
  Name = 
  7 active torsions:
  status: ('A' for Active; 'I' for Inactive)
    1  A    between atoms: C_1  and  C_20
    2  A    between atoms: C_1  and  C_34
    3  A    between atoms: O_5  and  C_18
    4  A    between atoms: O_5  and  C_34
    5  A    between atoms: C_8  and  C_18
    6  A    between atoms: C_13  and  C_23
    7  A    between atoms: C_18  and  C_33
                            x       y       z     vdW  Elec       q    Type
                         _______ _______ _______ _____ _____    ______ ____

>  <TORSDO>
F 7

$$$$
=
 OpenBabel11052415473D

 34 37  0  0  1  0  0  0  0  0999 V2000
  190.5000  177.6610  139.3590 O   0  0  0  0  0  0  0  0  0  0  0  0
  189.6860  176.9340  135.9160 C   0  0  0  0  0  2  0  0  0  0  0  0
  188.3670  176.8810  136.6660 C   0  0  1  0  0  3  0  0  0  0  0  0
  187.9080  177.1610  139.0560 O   0  0  0  0  0  1  0  0  0  0  0  0
  188.7090  176.5120  138.1100 C   0  0  2  0  0  3  0  0  0  0  0  0
  190.7780  177.1740  136.9470 C   0  0  0  0  0  2  0  0  0  0  0  0
  190.2180  176.7380  138.3120 C   0  0  1  0  0  0  0  0  0  0  0  0
  188.1750  179.3780  136.8910 O   0  0  0  0  0  1  0  0  0  0  0  0
  187.6110  178.1660  136.5090 C   0  0  0  0  0  0  0  0  0  0  0  0
  186.4530  178.1460  136.0200 O   0  0  0  0  0  0  0  0  0  0  0  0
  190.8870  175.4130  138.7160 C   0  0  0  0  0  2  0  0  0  0  0  0
  192.9460  174.9210  137.3510 C   0  0  0  0  0  3  0  0  0  0  0  0
  192.8920  173.3070  135.5460 C   0  0  0  0  0  3  0  0  0  0  0  0
  193.5960  174.2350  136.3200 C   0  0  0  0  0  3  0  0  0  0  0  0
  190.8890  173.7530  136.8340 C   0  0  0  0  0  3  0  0  0  0  0  0
  191.5890  174.6840  137.6070 C   0  0  0  0  0  0  0  0  0  0  0  0
  191.5400  173.0660  135.8030 C   0  0  0  0  0  3  0  0  0  0  0  0
  191.4650  177.1570  140.2560 C   0  0  2  0  0  3  0  0  0  0  0  0
  191.2690  176.7090  143.8300 C   0  0  0  0  0  2  0  0  0  0  0  0
  188.6090  177.0860  142.3370 C   0  0  0  0  0  2  0  0  0  0  0  0
  188.7540  177.5270  146.5200 N   0  0  0  0  0  0  0  0  0  0  0  0
  188.7550  178.0710  147.8450 C   0  0  0  0  0  0  0  0  0  0  0  0
  189.9940  177.0630  145.9120 C   0  0  0  0  0  2  0  0  0  0  0  0
  189.8410  178.2530  148.4580 O   0  0  0  0  0  0  0  0  0  0  0  0
  189.9850  177.3350  144.4080 C   0  0  2  0  0  3  0  0  0  0  0  0
  187.5550  178.4000  148.4690 O   0  0  0  0  0  1  0  0  0  0  0  0
  187.5920  177.5030  144.3900 C   0  0  0  0  0  2  0  0  0  0  0  0
  188.7390  176.8210  143.7850 N   0  0  1  0  0  0  0  0  0  0  0  0
  187.4950  177.1780  145.8740 C   0  0  0  0  0  2  0  0  0  0  0  0
  189.6380  178.0650  141.7530 C   0  0  0  0  0  2  0  0  0  0  0  0
  191.1390  176.2920  142.4970 O   0  0  0  0  0  0  0  0  0  0  0  0
  191.0460  177.4500  141.7020 C   0  0  1  0  0  3  0  0  0  0  0  0
  192.8550  177.7020  139.9170 C   0  0  0  0  0  2  0  0  0  0  0  0
  193.8490  176.7700  140.2180 O   0  0  0  0  0  1  0  0  0  0  0  0
  1 18  1  0  0  0  0
  2  3  1  0  0  0  0
  2  6  1  0  0  0  0
  3  9  1  1  0  0  0
  3  5  1  0  0  0  0
  5  7  1  0  0  0  0
  5  4  1  1  0  0  0
  6  7  1  0  0  0  0
  7 11  1  1  0  0  0
  7  1  1  0  0  0  0
  9  8  1  0  0  0  0
 10  9  2  0  0  0  0
 12 16  1  0  0  0  0
 13 17  2  0  0  0  0
 13 14  1  0  0  0  0
 14 12  2  0  0  0  0
 15 16  2  0  0  0  0
 16 11  1  0  0  0  0
 17 15  1  0  0  0  0
 18 33  1  6  0  0  0
 21 22  1  0  0  0  0
 22 24  2  0  0  0  0
 22 26  1  0  0  0  0
 23 21  1  0  0  0  0
 25 19  1  6  0  0  0
 25 23  1  0  0  0  0
 27 29  1  0  0  0  0
 28 20  1  6  0  0  0
 28 27  1  0  0  0  0
 28 25  1  0  0  0  0
 29 21  1  0  0  0  0
 30 20  1  0  0  0  0
 31 19  1  0  0  0  0
 32 18  1  6  0  0  0
 32 30  1  0  0  0  0
 32 31  1  0  0  0  0
 33 34  1  0  0  0  0
M  END
>  <MODEL>
5

>  <REMARK>
 VINA RESULT:      -7.3      2.940      9.094
  Name = 
  7 active torsions:
  status: ('A' for Active; 'I' for Inactive)
    1  A    between atoms: C_1  and  C_20
    2  A    between atoms: C_1  and  C_34
    3  A    between atoms: O_5  and  C_18
    4  A    between atoms: O_5  and  C_34
    5  A    between atoms: C_8  and  C_18
    6  A    between atoms: C_13  and  C_23
    7  A    between atoms: C_18  and  C_33
                            x       y       z     vdW  Elec       q    Type
                         _______ _______ _______ _____ _____    ______ ____

>  <TORSDO>
F 7

$$$$
=
 OpenBabel11052415473D

 34 37  0  0  1  0  0  0  0  0999 V2000
  189.0770  178.3600  144.3120 O   0  0  0  0  0  0  0  0  0  0  0  0
  190.5580  175.3690  142.9320 C   0  0  0  0  0  2  0  0  0  0  0  0
  191.6930  176.1020  143.6250 C   0  0  1  0  0  3  0  0  0  0  0  0
  191.6910  178.2620  144.7820 O   0  0  0  0  0  1  0  0  0  0  0  0
  191.3140  177.5830  143.6170 C   0  0  2  0  0  3  0  0  0  0  0  0
  189.3240  176.2510  143.0380 C   0  0  0  0  0  2  0  0  0  0  0  0
  189.8130  177.6860  143.2950 C   0  0  1  0  0  0  0  0  0  0  0  0
  192.5070  174.2630  145.1350 O   0  0  0  0  0  0  0  0  0  0  0  0
  191.9480  175.5270  144.9860 C   0  0  0  0  0  0  0  0  0  0  0  0
  191.6550  176.2010  146.0060 O   0  0  0  0  0  1  0  0  0  0  0  0
  189.6190  178.5080  142.0090 C   0  0  0  0  0  2  0  0  0  0  0  0
  191.1110  177.4060  140.3040 C   0  0  0  0  0  3  0  0  0  0  0  0
  190.1830  176.3300  138.3430 C   0  0  0  0  0  3  0  0  0  0  0  0
  191.2910  176.6970  139.1120 C   0  0  0  0  0  3  0  0  0  0  0  0
  188.7140  177.3820  139.9570 C   0  0  0  0  0  3  0  0  0  0  0  0
  189.8210  177.7530  140.7270 C   0  0  0  0  0  0  0  0  0  0  0  0
  188.8950  176.6720  138.7650 C   0  0  0  0  0  3  0  0  0  0  0  0
  188.1670  177.4990  144.9590 C   0  0  2  0  0  3  0  0  0  0  0  0
  185.8010  178.2410  142.3390 C   0  0  0  0  0  2  0  0  0  0  0  0
  184.9010  178.8250  145.2190 C   0  0  0  0  0  2  0  0  0  0  0  0
  182.0580  178.6620  142.1200 N   0  0  0  0  0  0  0  0  0  0  0  0
  180.9930  178.2570  141.2530 C   0  0  0  0  0  0  0  0  0  0  0  0
  183.4450  178.5620  141.6830 C   0  0  0  0  0  2  0  0  0  0  0  0
  181.2460  177.7100  140.1450 O   0  0  0  0  0  0  0  0  0  0  0  0
  184.3520  178.2080  142.8610 C   0  0  2  0  0  3  0  0  0  0  0  0
  179.6680  178.4660  141.6240 O   0  0  0  0  0  1  0  0  0  0  0  0
  182.7150  178.9850  144.4340 C   0  0  0  0  0  2  0  0  0  0  0  0
  184.1100  179.1210  144.0070 N   0  0  1  0  0  0  0  0  0  0  0  0
  181.7680  179.4260  143.3260 C   0  0  0  0  0  2  0  0  0  0  0  0
  185.6490  177.4840  145.2050 C   0  0  0  0  0  2  0  0  0  0  0  0
  186.7430  178.5800  143.3210 O   0  0  0  0  0  0  0  0  0  0  0  0
  186.8250  177.4960  144.2170 C   0  0  1  0  0  3  0  0  0  0  0  0
  188.0290  177.8710  146.4370 C   0  0  0  0  0  2  0  0  0  0  0  0
  189.2420  177.7140  147.1110 O   0  0  0  0  0  1  0  0  0  0  0  0
  1 18  1  0  0  0  0
  2  6  1  0  0  0  0
  2  3  1  0  0  0  0
  3  9  1  1  0  0  0
  5  3  1  0  0  0  0
  5  4  1  1  0  0  0
  6  7  1  0  0  0  0
  7 11  1  6  0  0  0
  7  5  1  0  0  0  0
  7  1  1  0  0  0  0
  9  8  2  0  0  0  0
  9 10  1  0  0  0  0
 12 16  1  0  0  0  0
 13 17  2  0  0  0  0
 13 14  1  0  0  0  0
 14 12  2  0  0  0  0
 15 16  2  0  0  0  0
 16 11  1  0  0  0  0
 17 15  1  0  0  0  0
 18 33  1  1  0  0  0
 19 25  1  0  0  0  0
 19 31  1  0  0  0  0
 21 29  1  0  0  0  0
 22 26  1  0  0  0  0
 22 21  1  0  0  0  0
 23 21  1  0  0  0  0
 24 22  2  0  0  0  0
 25 23  1  6  0  0  0
 25 28  1  0  0  0  0
 28 27  1  1  0  0  0
 28 20  1  0  0  0  0
 29 27  1  0  0  0  0
 30 20  1  0  0  0  0
 31 32  1  0  0  0  0
 32 18  1  1  0  0  0
 32 30  1  0  0  0  0
 33 34  1  0  0  0  0
M  END
>  <MODEL>
6

>  <REMARK>
 VINA RESULT:      -7.3      4.021      8.033
  Name = 
  7 active torsions:
  status: ('A' for Active; 'I' for Inactive)
    1  A    between atoms: C_1  and  C_20
    2  A    between atoms: C_1  and  C_34
    3  A    between atoms: O_5  and  C_18
    4  A    between atoms: O_5  and  C_34
    5  A    between atoms: C_8  and  C_18
    6  A    between atoms: C_13  and  C_23
    7  A    between atoms: C_18  and  C_33
                            x       y       z     vdW  Elec       q    Type
                         _______ _______ _______ _____ _____    ______ ____

>  <TORSDO>
F 7

$$$$
=
 OpenBabel11052415473D

 34 37  0  0  1  0  0  0  0  0999 V2000
  187.7630  177.0350  142.3970 O   0  0  0  0  0  0  0  0  0  0  0  0
  190.0910  178.4220  144.7850 C   0  0  0  0  0  2  0  0  0  0  0  0
  190.7090  177.1120  144.3290 C   0  0  1  0  0  3  0  0  0  0  0  0
  189.8410  175.4230  142.7820 O   0  0  0  0  0  1  0  0  0  0  0  0
  189.5470  176.2190  143.8950 C   0  0  2  0  0  3  0  0  0  0  0  0
  188.7300  178.5330  144.1160 C   0  0  0  0  0  2  0  0  0  0  0  0
  188.3060  177.1110  143.7120 C   0  0  1  0  0  0  0  0  0  0  0  0
  192.0040  178.6320  142.8010 O   0  0  0  0  0  0  0  0  0  0  0  0
  191.7460  177.3510  143.2720 C   0  0  0  0  0  0  0  0  0  0  0  0
  192.3930  176.3760  142.8110 O   0  0  0  0  0  1  0  0  0  0  0  0
  187.1920  176.6420  144.6640 C   0  0  0  0  0  2  0  0  0  0  0  0
  187.7730  177.4170  146.9890 C   0  0  0  0  0  3  0  0  0  0  0  0
  186.5100  179.1770  148.0710 C   0  0  0  0  0  3  0  0  0  0  0  0
  187.5500  178.2430  148.0950 C   0  0  0  0  0  3  0  0  0  0  0  0
  185.9160  178.4580  145.8340 C   0  0  0  0  0  3  0  0  0  0  0  0
  186.9540  177.5210  145.8570 C   0  0  0  0  0  0  0  0  0  0  0  0
  185.6930  179.2850  146.9410 C   0  0  0  0  0  3  0  0  0  0  0  0
  187.7150  178.3010  141.7760 C   0  0  2  0  0  3  0  0  0  0  0  0
  184.2320  178.6120  142.6600 C   0  0  0  0  0  2  0  0  0  0  0  0
  184.8580  177.9350  139.7280 C   0  0  0  0  0  2  0  0  0  0  0  0
  181.0250  179.3060  140.7980 N   0  0  0  0  0  0  0  0  0  0  0  0
  179.8510  180.1070  140.9670 C   0  0  0  0  0  0  0  0  0  0  0  0
  181.9230  179.0640  141.9210 C   0  0  0  0  0  2  0  0  0  0  0  0
  179.6360  180.7000  142.0590 O   0  0  0  0  0  1  0  0  0  0  0  0
  183.3710  178.9870  141.4380 C   0  0  2  0  0  3  0  0  0  0  0  0
  178.9330  180.2360  139.9290 O   0  0  0  0  0  0  0  0  0  0  0  0
  182.6650  178.5080  139.1960 C   0  0  0  0  0  2  0  0  0  0  0  0
  183.5010  178.0380  140.3030 N   0  0  1  0  0  0  0  0  0  0  0  0
  181.1950  178.5040  139.5930 C   0  0  0  0  0  2  0  0  0  0  0  0
  185.8580  178.9980  140.2060 C   0  0  0  0  0  2  0  0  0  0  0  0
  185.3910  177.8940  142.3300 O   0  0  0  0  0  0  0  0  0  0  0  0
  186.2630  178.7820  141.6730 C   0  0  1  0  0  3  0  0  0  0  0  0
  188.4290  178.2650  140.4220 C   0  0  0  0  0  2  0  0  0  0  0  0
  189.4470  177.3100  140.4150 O   0  0  0  0  0  1  0  0  0  0  0  0
  1  7  1  0  0  0  0
  3  9  1  6  0  0  0
  3  2  1  0  0  0  0
  5  4  1  6  0  0  0
  5  3  1  0  0  0  0
  6  2  1  0  0  0  0
  7  5  1  0  0  0  0
  7  6  1  0  0  0  0
  7 11  1  1  0  0  0
  8  9  2  0  0  0  0
 10  9  1  0  0  0  0
 11 16  1  0  0  0  0
 12 14  1  0  0  0  0
 13 14  2  0  0  0  0
 15 16  1  0  0  0  0
 15 17  2  0  0  0  0
 16 12  2  0  0  0  0
 17 13  1  0  0  0  0
 18 33  1  6  0  0  0
 18  1  1  0  0  0  0
 20 30  1  0  0  0  0
 20 28  1  0  0  0  0
 21 22  1  0  0  0  0
 21 23  1  0  0  0  0
 22 24  1  0  0  0  0
 25 23  1  1  0  0  0
 25 19  1  0  0  0  0
 26 22  2  0  0  0  0
 27 29  1  0  0  0  0
 28 27  1  6  0  0  0
 28 25  1  0  0  0  0
 29 21  1  0  0  0  0
 30 32  1  0  0  0  0
 31 19  1  0  0  0  0
 32 18  1  6  0  0  0
 32 31  1  0  0  0  0
 34 33  1  0  0  0  0
M  END
>  <MODEL>
7

>  <REMARK>
 VINA RESULT:      -7.3      4.092      7.383
  Name = 
  7 active torsions:
  status: ('A' for Active; 'I' for Inactive)
    1  A    between atoms: C_1  and  C_20
    2  A    between atoms: C_1  and  C_34
    3  A    between atoms: O_5  and  C_18
    4  A    between atoms: O_5  and  C_34
    5  A    between atoms: C_8  and  C_18
    6  A    between atoms: C_13  and  C_23
    7  A    between atoms: C_18  and  C_33
                            x       y       z     vdW  Elec       q    Type
                         _______ _______ _______ _____ _____    ______ ____

>  <TORSDO>
F 7

$$$$
=
 OpenBabel11052415473D

 34 37  0  0  1  0  0  0  0  0999 V2000
  188.5000  176.7160  139.1000 O   0  0  0  0  0  0  0  0  0  0  0  0
  189.4710  177.7320  135.7730 C   0  0  0  0  0  2  0  0  0  0  0  0
  188.7170  176.4260  135.5950 C   0  0  1  0  0  3  0  0  0  0  0  0
  187.7390  174.9370  137.2770 O   0  0  0  0  0  1  0  0  0  0  0  0
  188.8820  175.6540  136.9050 C   0  0  2  0  0  3  0  0  0  0  0  0
  189.5710  177.9920  137.2680 C   0  0  0  0  0  2  0  0  0  0  0  0
  189.3740  176.6420  137.9780 C   0  0  1  0  0  0  0  0  0  0  0  0
  186.6830  177.8980  135.4650 O   0  0  0  0  0  1  0  0  0  0  0  0
  187.2960  176.6810  135.1910 C   0  0  0  0  0  0  0  0  0  0  0  0
  186.6520  175.7810  134.5940 O   0  0  0  0  0  0  0  0  0  0  0  0
  190.7340  176.1720  138.5230 C   0  0  0  0  0  2  0  0  0  0  0  0
  191.4130  174.1280  137.2160 C   0  0  0  0  0  3  0  0  0  0  0  0
  193.2690  174.2000  135.6630 C   0  0  0  0  0  3  0  0  0  0  0  0
  192.2390  173.4890  136.2850 C   0  0  0  0  0  3  0  0  0  0  0  0
  192.6500  176.1870  136.9020 C   0  0  0  0  0  3  0  0  0  0  0  0
  191.6190  175.4780  137.5290 C   0  0  0  0  0  0  0  0  0  0  0  0
  193.4750  175.5480  135.9700 C   0  0  0  0  0  3  0  0  0  0  0  0
  188.3270  178.0430  139.5440 C   0  0  2  0  0  3  0  0  0  0  0  0
  189.3680  176.9930  142.8340 C   0  0  0  0  0  2  0  0  0  0  0  0
  186.4510  177.9160  142.5360 C   0  0  0  0  0  2  0  0  0  0  0  0
  188.1740  177.5910  146.3620 N   0  0  0  0  0  0  0  0  0  0  0  0
  188.7460  177.8880  147.6410 C   0  0  0  0  0  0  0  0  0  0  0  0
  189.0130  177.1090  145.2720 C   0  0  0  0  0  2  0  0  0  0  0  0
  189.9950  177.8390  147.8080 O   0  0  0  0  0  0  0  0  0  0  0  0
  188.5050  177.6430  143.9330 C   0  0  2  0  0  3  0  0  0  0  0  0
  187.9270  178.2300  148.7140 O   0  0  0  0  0  1  0  0  0  0  0  0
  186.3330  178.0710  144.8570 C   0  0  0  0  0  2  0  0  0  0  0  0
  187.0500  177.3860  143.7780 N   0  0  1  0  0  0  0  0  0  0  0  0
  186.7270  177.5010  146.2120 C   0  0  0  0  0  2  0  0  0  0  0  0
  187.3470  178.8650  141.7270 C   0  0  0  0  0  2  0  0  0  0  0  0
  188.6950  176.8360  141.6130 O   0  0  0  0  0  0  0  0  0  0  0  0
  188.5160  178.1200  141.0640 C   0  0  1  0  0  3  0  0  0  0  0  0
  186.9760  178.5950  139.0820 C   0  0  0  0  0  2  0  0  0  0  0  0
  186.1510  177.5740  138.6060 O   0  0  0  0  0  1  0  0  0  0  0  0
  1 18  1  0  0  0  0
  2  6  1  0  0  0  0
  3  9  1  1  0  0  0
  3  2  1  0  0  0  0
  3  5  1  0  0  0  0
  5  4  1  1  0  0  0
  5  7  1  0  0  0  0
  6  7  1  0  0  0  0
  7 11  1  1  0  0  0
  7  1  1  0  0  0  0
  9  8  1  0  0  0  0
 10  9  2  0  0  0  0
 12 16  1  0  0  0  0
 13 17  2  0  0  0  0
 13 14  1  0  0  0  0
 14 12  2  0  0  0  0
 15 16  2  0  0  0  0
 16 11  1  0  0  0  0
 17 15  1  0  0  0  0
 18 33  1  1  0  0  0
 21 22  1  0  0  0  0
 22 24  2  0  0  0  0
 22 26  1  0  0  0  0
 23 21  1  0  0  0  0
 25 19  1  6  0  0  0
 25 23  1  0  0  0  0
 27 29  1  0  0  0  0
 28 20  1  6  0  0  0
 28 25  1  0  0  0  0
 28 27  1  0  0  0  0
 29 21  1  0  0  0  0
 30 20  1  0  0  0  0
 31 19  1  0  0  0  0
 32 18  1  6  0  0  0
 32 31  1  0  0  0  0
 32 30  1  0  0  0  0
 34 33  1  0  0  0  0
M  END
>  <MODEL>
8

>  <REMARK>
 VINA RESULT:      -7.2      3.163      9.236
  Name = 
  7 active torsions:
  status: ('A' for Active; 'I' for Inactive)
    1  A    between atoms: C_1  and  C_20
    2  A    between atoms: C_1  and  C_34
    3  A    between atoms: O_5  and  C_18
    4  A    between atoms: O_5  and  C_34
    5  A    between atoms: C_8  and  C_18
    6  A    between atoms: C_13  and  C_23
    7  A    between atoms: C_18  and  C_33
                            x       y       z     vdW  Elec       q    Type
                         _______ _______ _______ _____ _____    ______ ____

>  <TORSDO>
F 7

$$$$
=
 OpenBabel11052415473D

 34 37  0  0  1  0  0  0  0  0999 V2000
  189.9340  177.9030  138.6820 O   0  0  0  0  0  0  0  0  0  0  0  0
  188.1800  175.1110  137.2090 C   0  0  0  0  0  2  0  0  0  0  0  0
  189.3190  175.4240  136.2550 C   0  0  1  0  0  3  0  0  0  0  0  0
  191.0050  177.1980  136.3540 O   0  0  0  0  0  1  0  0  0  0  0  0
  189.6390  176.9070  136.4430 C   0  0  2  0  0  3  0  0  0  0  0  0
  188.2170  176.1590  138.3100 C   0  0  0  0  0  2  0  0  0  0  0  0
  188.9900  177.3690  137.7600 C   0  0  1  0  0  0  0  0  0  0  0  0
  191.4390  174.3020  135.4990 O   0  0  0  0  0  0  0  0  0  0  0  0
  190.4760  174.4980  136.4830 C   0  0  0  0  0  0  0  0  0  0  0  0
  190.5770  173.8950  137.5810 O   0  0  0  0  0  1  0  0  0  0  0  0
  187.9880  178.5000  137.4680 C   0  0  0  0  0  2  0  0  0  0  0  0
  185.6870  178.2670  138.4660 C   0  0  0  0  0  3  0  0  0  0  0  0
  183.8670  177.2980  137.1960 C   0  0  0  0  0  3  0  0  0  0  0  0
  184.3470  177.8760  138.3750 C   0  0  0  0  0  3  0  0  0  0  0  0
  186.0660  177.5010  136.2000 C   0  0  0  0  0  3  0  0  0  0  0  0
  186.5500  178.0770  137.3800 C   0  0  0  0  0  0  0  0  0  0  0  0
  184.7250  177.1110  136.1090 C   0  0  0  0  0  3  0  0  0  0  0  0
  190.5210  176.8950  139.4750 C   0  0  2  0  0  3  0  0  0  0  0  0
  190.4630  176.2820  143.0290 C   0  0  0  0  0  2  0  0  0  0  0  0
  187.8800  177.3770  141.7730 C   0  0  0  0  0  2  0  0  0  0  0  0
  188.4090  177.5070  145.9470 N   0  0  0  0  0  0  0  0  0  0  0  0
  188.6300  177.9500  147.2900 C   0  0  0  0  0  0  0  0  0  0  0  0
  189.4550  176.7980  145.2200 C   0  0  0  0  0  2  0  0  0  0  0  0
  189.7670  177.8280  147.8220 O   0  0  0  0  0  0  0  0  0  0  0  0
  189.4110  177.1590  143.7350 C   0  0  2  0  0  3  0  0  0  0  0  0
  187.5920  178.5160  148.0230 O   0  0  0  0  0  1  0  0  0  0  0  0
  187.1350  177.8950  143.9180 C   0  0  0  0  0  2  0  0  0  0  0  0
  188.0380  176.9980  143.1930 N   0  0  1  0  0  0  0  0  0  0  0  0
  187.0620  177.5100  145.3890 C   0  0  0  0  0  2  0  0  0  0  0  0
  189.0740  178.1170  141.1530 C   0  0  0  0  0  2  0  0  0  0  0  0
  190.1460  175.9940  141.6940 O   0  0  0  0  0  0  0  0  0  0  0  0
  190.2830  177.1880  140.9610 C   0  0  1  0  0  3  0  0  0  0  0  0
  192.0030  176.7310  139.1290 C   0  0  0  0  0  2  0  0  0  0  0  0
  192.8110  177.4110  140.0430 O   0  0  0  0  0  1  0  0  0  0  0  0
  1 18  1  0  0  0  0
  2  6  1  0  0  0  0
  3  5  1  0  0  0  0
  3  9  1  1  0  0  0
  3  2  1  0  0  0  0
  5  4  1  1  0  0  0
  5  7  1  0  0  0  0
  7 11  1  6  0  0  0
  7  6  1  0  0  0  0
  7  1  1  0  0  0  0
  8  9  2  0  0  0  0
  9 10  1  0  0  0  0
 13 14  2  0  0  0  0
 14 12  1  0  0  0  0
 15 16  1  0  0  0  0
 16 11  1  0  0  0  0
 16 12  2  0  0  0  0
 17 15  2  0  0  0  0
 17 13  1  0  0  0  0
 18 33  1  1  0  0  0
 21 22  1  0  0  0  0
 22 24  2  0  0  0  0
 22 26  1  0  0  0  0
 23 21  1  0  0  0  0
 25 19  1  6  0  0  0
 25 23  1  0  0  0  0
 27 29  1  0  0  0  0
 28 20  1  6  0  0  0
 28 25  1  0  0  0  0
 28 27  1  0  0  0  0
 29 21  1  0  0  0  0
 30 20  1  0  0  0  0
 31 19  1  0  0  0  0
 32 18  1  6  0  0  0
 32 30  1  0  0  0  0
 32 31  1  0  0  0  0
 33 34  1  0  0  0  0
M  END
>  <MODEL>
9

>  <REMARK>
 VINA RESULT:      -7.2      3.214      8.047
  Name = 
  7 active torsions:
  status: ('A' for Active; 'I' for Inactive)
    1  A    between atoms: C_1  and  C_20
    2  A    between atoms: C_1  and  C_34
    3  A    between atoms: O_5  and  C_18
    4  A    between atoms: O_5  and  C_34
    5  A    between atoms: C_8  and  C_18
    6  A    between atoms: C_13  and  C_23
    7  A    between atoms: C_18  and  C_33
                            x       y       z     vdW  Elec       q    Type
                         _______ _______ _______ _____ _____    ______ ____

>  <TORSDO>
F 7

$$$$
