=
 OpenBabel11052414383D

 32 35  0  0  1  0  0  0  0  0999 V2000
  189.4910  176.9760  142.4540 C   0  0  2  0  0  3  0  0  0  0  0  0
  189.3230  178.2180  140.4540 C   0  0  2  0  0  3  0  0  0  0  0  0
  190.3810  176.0300  140.4830 O   0  0  0  0  0  0  0  0  0  0  0  0
  190.2490  177.2410  141.1880 C   0  0  2  0  0  3  0  0  0  0  0  0
  190.2080  177.0020  138.2960 C   0  0  2  0  0  3  0  0  0  0  0  0
  191.1140  176.3320  139.3260 C   0  0  0  0  0  2  0  0  0  0  0  0
  187.9960  178.0590  140.9020 O   0  0  0  0  0  0  0  0  0  0  0  0
  188.0450  177.2190  142.0330 C   0  0  2  0  0  3  0  0  0  0  0  0
  189.4070  178.1020  138.9520 C   0  0  0  0  0  0  0  0  0  0  0  0
  188.8860  179.0720  138.2010 C   0  0  0  0  0  2  0  0  0  0  0  0
  185.0700  178.7570  143.8730 C   0  0  0  0  0  0  0  0  0  0  0  0
  183.9090  179.4740  143.6040 O   0  0  0  0  0  1  0  0  0  0  0  0
  187.1140  177.6650  143.1320 C   0  0  0  0  0  0  0  0  0  0  0  0
  185.3630  178.4060  145.1930 C   0  0  0  0  0  3  0  0  0  0  0  0
  187.3890  177.3140  144.4610 C   0  0  0  0  0  3  0  0  0  0  0  0
  185.9400  178.3890  142.8350 C   0  0  0  0  0  0  0  0  0  0  0  0
  185.6090  178.7640  141.4260 C   0  0  0  0  0  1  0  0  0  0  0  0
  186.5250  177.6810  145.4940 C   0  0  0  0  0  0  0  0  0  0  0  0
  187.9810  177.8100  147.4890 C   0  0  0  0  0  1  0  0  0  0  0  0
  186.8400  177.3120  146.8040 O   0  0  0  0  0  0  0  0  0  0  0  0
  190.2070  179.2350  143.2240 N   0  0  0  0  0  2  0  0  0  0  0  0
  189.9820  177.8500  143.6240 C   0  0  2  0  0  3  0  0  0  0  0  0
  191.2090  177.3010  144.1920 N   0  0  0  0  0  0  0  0  0  0  0  0
  192.0550  178.4450  144.4820 C   0  0  0  0  0  2  0  0  0  0  0  0
  191.3030  179.6820  144.0570 C   0  0  0  0  0  2  0  0  0  0  0  0
  190.8600  176.6980  145.4700 C   0  0  0  0  0  2  0  0  0  0  0  0
  191.9720  175.7730  145.9280 C   0  0  0  0  0  2  0  0  0  0  0  0
  192.0690  175.8100  147.4370 C   0  0  0  0  0  2  0  0  0  0  0  0
  191.8180  177.1070  147.8870 O   0  0  0  0  0  1  0  0  0  0  0  0
  189.2910  175.9580  137.6720 C   0  0  0  0  0  2  0  0  0  0  0  0
  189.4590  173.6280  136.9520 C   0  0  0  0  0  2  0  0  0  0  0  0
  190.0760  174.7760  137.2090 C   0  0  0  0  0  3  0  0  0  0  0  0
  1 22  1  1  0  0  0
  2  9  1  6  0  0  0
  2  7  1  0  0  0  0
  2  4  1  0  0  0  0
  4  3  1  6  0  0  0
  4  1  1  0  0  0  0
  5 30  1  1  0  0  0
  5  9  1  0  0  0  0
  5  6  1  0  0  0  0
  6  3  1  0  0  0  0
  7  8  1  0  0  0  0
  8  1  1  0  0  0  0
  8 13  1  1  0  0  0
 10  9  2  0  0  0  0
 11 14  1  0  0  0  0
 12 11  1  0  0  0  0
 13 15  2  0  0  0  0
 14 18  2  0  0  0  0
 15 18  1  0  0  0  0
 16 13  1  0  0  0  0
 16 11  2  0  0  0  0
 17 16  1  0  0  0  0
 18 20  1  0  0  0  0
 20 19  1  0  0  0  0
 21 25  1  0  0  0  0
 22 21  1  6  0  0  0
 22 23  1  0  0  0  0
 23 24  1  0  0  0  0
 23 26  1  0  0  0  0
 25 24  1  0  0  0  0
 26 27  1  0  0  0  0
 27 28  1  0  0  0  0
 28 29  1  0  0  0  0
 31 32  2  0  0  0  0
 32 30  1  0  0  0  0
M  END
>  <MODEL>
1

>  <REMARK>
 VINA RESULT:      -8.0      0.000      0.000
  Name = 
  8 active torsions:
  status: ('A' for Active; 'I' for Inactive)
    1  A    between atoms: C_1  and  C_5
    2  A    between atoms: C_11  and  C_12
    3  A    between atoms: C_11  and  C_31
    4  A    between atoms: C_13  and  C_18
    5  A    between atoms: N_14  and  C_29
    6  A    between atoms: O_15  and  C_26
    7  A    between atoms: C_16  and  C_27
    8  A    between atoms: C_18  and  C_29
                            x       y       z     vdW  Elec       q    Type
                         _______ _______ _______ _____ _____    ______ ____

>  <TORSDO>
F 8

$$$$
=
 OpenBabel11052414383D

 32 35  0  0  1  0  0  0  0  0999 V2000
  189.2060  177.0270  142.1000 C   0  0  2  0  0  3  0  0  0  0  0  0
  189.2590  178.3280  140.1320 C   0  0  2  0  0  3  0  0  0  0  0  0
  190.2030  176.0900  140.1760 O   0  0  0  0  0  0  0  0  0  0  0  0
  190.0740  177.2860  140.9060 C   0  0  2  0  0  3  0  0  0  0  0  0
  190.2530  177.1280  138.0140 C   0  0  2  0  0  3  0  0  0  0  0  0
  191.0400  176.3850  139.0910 C   0  0  0  0  0  2  0  0  0  0  0  0
  187.8940  178.2260  140.4700 O   0  0  0  0  0  0  0  0  0  0  0  0
  187.8110  177.3540  141.5740 C   0  0  2  0  0  3  0  0  0  0  0  0
  189.4560  178.2500  138.6380 C   0  0  0  0  0  0  0  0  0  0  0  0
  189.0450  179.2650  137.8790 C   0  0  0  0  0  2  0  0  0  0  0  0
  184.6930  178.8390  143.2100 C   0  0  0  0  0  0  0  0  0  0  0  0
  183.5060  179.4700  142.8560 O   0  0  0  0  0  1  0  0  0  0  0  0
  186.8180  177.8170  142.6100 C   0  0  0  0  0  0  0  0  0  0  0  0
  184.9560  178.5900  144.5590 C   0  0  0  0  0  3  0  0  0  0  0  0
  187.0630  177.5680  143.9680 C   0  0  0  0  0  3  0  0  0  0  0  0
  185.6190  178.4530  142.2280 C   0  0  0  0  0  0  0  0  0  0  0  0
  185.3190  178.7180  140.7870 C   0  0  0  0  0  1  0  0  0  0  0  0
  186.1440  177.9520  144.9460 C   0  0  0  0  0  0  0  0  0  0  0  0
  186.0980  178.5850  147.3360 C   0  0  0  0  0  1  0  0  0  0  0  0
  186.4300  177.6860  146.2870 O   0  0  0  0  0  0  0  0  0  0  0  0
  190.3010  179.0920  142.9630 N   0  0  0  0  0  2  0  0  0  0  0  0
  189.6440  177.8420  143.3310 C   0  0  2  0  0  3  0  0  0  0  0  0
  190.5340  177.0540  144.1760 N   0  0  0  0  0  0  0  0  0  0  0  0
  191.5650  177.9720  144.6260 C   0  0  0  0  0  2  0  0  0  0  0  0
  191.2700  179.3190  144.0130 C   0  0  0  0  0  2  0  0  0  0  0  0
  189.7750  176.6600  145.3540 C   0  0  0  0  0  2  0  0  0  0  0  0
  190.4200  177.2330  146.6020 C   0  0  0  0  0  2  0  0  0  0  0  0
  189.4540  177.1280  147.7620 C   0  0  0  0  0  2  0  0  0  0  0  0
  189.4620  178.3220  148.4820 O   0  0  0  0  0  1  0  0  0  0  0  0
  189.3390  176.1490  137.2870 C   0  0  0  0  0  2  0  0  0  0  0  0
  188.6050  176.5790  134.9960 C   0  0  0  0  0  2  0  0  0  0  0  0
  189.5790  176.1970  135.8160 C   0  0  0  0  0  3  0  0  0  0  0  0
  1 22  1  1  0  0  0
  2  9  1  6  0  0  0
  2  7  1  0  0  0  0
  2  4  1  0  0  0  0
  4  3  1  6  0  0  0
  4  1  1  0  0  0  0
  5 30  1  1  0  0  0
  5  9  1  0  0  0  0
  5  6  1  0  0  0  0
  6  3  1  0  0  0  0
  7  8  1  0  0  0  0
  8  1  1  0  0  0  0
  8 13  1  1  0  0  0
 10  9  2  0  0  0  0
 11 14  1  0  0  0  0
 12 11  1  0  0  0  0
 13 15  2  0  0  0  0
 14 18  2  0  0  0  0
 15 18  1  0  0  0  0
 16 13  1  0  0  0  0
 16 11  2  0  0  0  0
 17 16  1  0  0  0  0
 18 20  1  0  0  0  0
 20 19  1  0  0  0  0
 21 25  1  0  0  0  0
 22 21  1  6  0  0  0
 22 23  1  0  0  0  0
 23 24  1  0  0  0  0
 23 26  1  0  0  0  0
 25 24  1  0  0  0  0
 26 27  1  0  0  0  0
 27 28  1  0  0  0  0
 28 29  1  0  0  0  0
 31 32  2  0  0  0  0
 32 30  1  0  0  0  0
M  END
>  <MODEL>
2

>  <REMARK>
 VINA RESULT:      -7.2      1.097      1.272
  Name = 
  8 active torsions:
  status: ('A' for Active; 'I' for Inactive)
    1  A    between atoms: C_1  and  C_5
    2  A    between atoms: C_11  and  C_12
    3  A    between atoms: C_11  and  C_31
    4  A    between atoms: C_13  and  C_18
    5  A    between atoms: N_14  and  C_29
    6  A    between atoms: O_15  and  C_26
    7  A    between atoms: C_16  and  C_27
    8  A    between atoms: C_18  and  C_29
                            x       y       z     vdW  Elec       q    Type
                         _______ _______ _______ _____ _____    ______ ____

>  <TORSDO>
F 8

$$$$
=
 OpenBabel11052414383D

 32 35  0  0  1  0  0  0  0  0999 V2000
  184.1740  179.1630  138.8010 C   0  0  2  0  0  3  0  0  0  0  0  0
  181.8840  178.7620  138.3970 C   0  0  2  0  0  3  0  0  0  0  0  0
  182.7760  181.0220  138.3990 O   0  0  0  0  0  0  0  0  0  0  0  0
  182.8290  179.7760  139.0500 C   0  0  2  0  0  3  0  0  0  0  0  0
  180.4540  180.8900  137.8090 C   0  0  2  0  0  3  0  0  0  0  0  0
  181.5120  181.5580  138.6850 C   0  0  0  0  0  2  0  0  0  0  0  0
  182.5660  178.0310  137.4040 O   0  0  0  0  0  0  0  0  0  0  0  0
  183.9350  178.3410  137.5370 C   0  0  2  0  0  3  0  0  0  0  0  0
  180.6280  179.3900  137.8430 C   0  0  0  0  0  0  0  0  0  0  0  0
  179.6040  178.6020  137.5160 C   0  0  0  0  0  2  0  0  0  0  0  0
  186.9930  176.1460  136.8770 C   0  0  0  0  0  0  0  0  0  0  0  0
  188.3250  176.2670  136.4990 O   0  0  0  0  0  1  0  0  0  0  0  0
  184.8250  177.1350  137.3680 C   0  0  0  0  0  0  0  0  0  0  0  0
  186.4730  174.8780  137.1460 C   0  0  0  0  0  3  0  0  0  0  0  0
  184.3220  175.8560  137.6420 C   0  0  0  0  0  3  0  0  0  0  0  0
  186.1750  177.2820  136.9870 C   0  0  0  0  0  0  0  0  0  0  0  0
  186.7480  178.6340  136.7050 C   0  0  0  0  0  1  0  0  0  0  0  0
  185.1330  174.7260  137.5310 C   0  0  0  0  0  0  0  0  0  0  0  0
  184.3940  172.4780  136.8130 C   0  0  0  0  0  1  0  0  0  0  0  0
  184.5890  173.4700  137.8110 O   0  0  0  0  0  0  0  0  0  0  0  0
  183.6430  178.1350  141.0070 N   0  0  0  0  0  2  0  0  0  0  0  0
  184.6850  178.3590  140.0110 C   0  0  2  0  0  3  0  0  0  0  0  0
  185.8170  179.0380  140.6340 N   0  0  0  0  0  0  0  0  0  0  0  0
  185.6250  178.8890  142.0660 C   0  0  0  0  0  2  0  0  0  0  0  0
  184.3440  178.1200  142.2730 C   0  0  0  0  0  2  0  0  0  0  0  0
  187.0140  178.2860  140.2870 C   0  0  0  0  0  2  0  0  0  0  0  0
  187.9980  178.3170  141.4420 C   0  0  0  0  0  2  0  0  0  0  0  0
  189.3070  177.6950  141.0050 C   0  0  0  0  0  2  0  0  0  0  0  0
  189.1600  177.1550  139.7270 O   0  0  0  0  0  1  0  0  0  0  0  0
  180.5660  181.4210  136.3860 C   0  0  0  0  0  2  0  0  0  0  0  0
  180.7490  183.5690  135.2350 C   0  0  0  0  0  2  0  0  0  0  0  0
  180.6050  182.9120  136.3810 C   0  0  0  0  0  3  0  0  0  0  0  0
  1  4  1  0  0  0  0
  1 22  1  1  0  0  0
  2  7  1  6  0  0  0
  2  4  1  0  0  0  0
  3  6  1  0  0  0  0
  4  3  1  6  0  0  0
  5 30  1  6  0  0  0
  5  9  1  0  0  0  0
  5  6  1  0  0  0  0
  7  8  1  0  0  0  0
  8 13  1  1  0  0  0
  8  1  1  0  0  0  0
  9  2  1  0  0  0  0
 10  9  2  0  0  0  0
 11 16  2  0  0  0  0
 11 14  1  0  0  0  0
 12 11  1  0  0  0  0
 13 15  2  0  0  0  0
 14 18  2  0  0  0  0
 16 13  1  0  0  0  0
 17 16  1  0  0  0  0
 18 15  1  0  0  0  0
 18 20  1  0  0  0  0
 19 20  1  0  0  0  0
 21 25  1  0  0  0  0
 22 23  1  0  0  0  0
 22 21  1  1  0  0  0
 23 24  1  0  0  0  0
 24 25  1  0  0  0  0
 26 23  1  0  0  0  0
 26 27  1  0  0  0  0
 28 27  1  0  0  0  0
 29 28  1  0  0  0  0
 31 32  2  0  0  0  0
 32 30  1  0  0  0  0
M  END
>  <MODEL>
3

>  <REMARK>
 VINA RESULT:      -6.3      4.970      8.537
  Name = 
  8 active torsions:
  status: ('A' for Active; 'I' for Inactive)
    1  A    between atoms: C_1  and  C_5
    2  A    between atoms: C_11  and  C_12
    3  A    between atoms: C_11  and  C_31
    4  A    between atoms: C_13  and  C_18
    5  A    between atoms: N_14  and  C_29
    6  A    between atoms: O_15  and  C_26
    7  A    between atoms: C_16  and  C_27
    8  A    between atoms: C_18  and  C_29
                            x       y       z     vdW  Elec       q    Type
                         _______ _______ _______ _____ _____    ______ ____

>  <TORSDO>
F 8

$$$$
=
 OpenBabel11052414383D

 32 35  0  0  1  0  0  0  0  0999 V2000
  188.9960  176.9690  139.4280 C   0  0  2  0  0  3  0  0  0  0  0  0
  190.1910  178.0170  141.1730 C   0  0  2  0  0  3  0  0  0  0  0  0
  187.9430  177.1670  141.5310 O   0  0  0  0  0  0  0  0  0  0  0  0
  188.7710  177.8490  140.6210 C   0  0  2  0  0  3  0  0  0  0  0  0
  188.9810  178.0430  143.5090 C   0  0  2  0  0  3  0  0  0  0  0  0
  187.7470  178.0420  142.6100 C   0  0  0  0  0  2  0  0  0  0  0  0
  191.0000  176.9350  140.7710 O   0  0  0  0  0  0  0  0  0  0  0  0
  190.2650  176.2120  139.8100 C   0  0  2  0  0  3  0  0  0  0  0  0
  190.2290  178.1960  142.6710 C   0  0  0  0  0  0  0  0  0  0  0  0
  191.3510  178.6380  143.2390 C   0  0  0  0  0  2  0  0  0  0  0  0
  193.1500  175.8760  137.3250 C   0  0  0  0  0  0  0  0  0  0  0  0
  194.3760  176.4640  137.0350 O   0  0  0  0  0  1  0  0  0  0  0  0
  191.1160  175.7470  138.6540 C   0  0  0  0  0  0  0  0  0  0  0  0
  192.7100  174.8000  136.5510 C   0  0  0  0  0  3  0  0  0  0  0  0
  190.6940  174.6610  137.8730 C   0  0  0  0  0  3  0  0  0  0  0  0
  192.3580  176.3550  138.3810 C   0  0  0  0  0  0  0  0  0  0  0  0
  192.8460  177.5030  139.2060 C   0  0  0  0  0  1  0  0  0  0  0  0
  191.4790  174.1850  136.8220 C   0  0  0  0  0  0  0  0  0  0  0  0
  190.4560  173.2550  134.7720 C   0  0  0  0  0  1  0  0  0  0  0  0
  191.0180  173.1030  136.0680 O   0  0  0  0  0  0  0  0  0  0  0  0
  189.0550  179.2130  138.3460 N   0  0  0  0  0  2  0  0  0  0  0  0
  189.0880  177.7720  138.1170 C   0  0  2  0  0  3  0  0  0  0  0  0
  188.0070  177.3970  137.2120 N   0  0  0  0  0  0  0  0  0  0  0  0
  187.5580  178.6360  136.6010 C   0  0  0  0  0  2  0  0  0  0  0  0
  188.3910  179.7530  137.1790 C   0  0  0  0  0  2  0  0  0  0  0  0
  188.5920  176.5910  136.1510 C   0  0  0  0  0  2  0  0  0  0  0  0
  187.6080  175.5250  135.7070 C   0  0  0  0  0  2  0  0  0  0  0  0
  187.1160  174.7590  136.9150 C   0  0  0  0  0  2  0  0  0  0  0  0
  187.5090  173.4250  136.8100 O   0  0  0  0  0  1  0  0  0  0  0  0
  189.0210  176.7530  144.3170 C   0  0  0  0  0  2  0  0  0  0  0  0
  188.1310  177.8290  146.3230 C   0  0  0  0  0  2  0  0  0  0  0  0
  189.0580  177.0480  145.7790 C   0  0  0  0  0  3  0  0  0  0  0  0
  1 22  1  6  0  0  0
  1  8  1  0  0  0  0
  1  4  1  0  0  0  0
  2  7  1  1  0  0  0
  2  9  1  0  0  0  0
  3  6  1  0  0  0  0
  4  2  1  0  0  0  0
  4  3  1  1  0  0  0
  5 30  1  6  0  0  0
  6  5  1  0  0  0  0
  8 13  1  6  0  0  0
  8  7  1  0  0  0  0
  9 10  2  0  0  0  0
  9  5  1  0  0  0  0
 11 16  1  0  0  0  0
 12 11  1  0  0  0  0
 14 18  1  0  0  0  0
 14 11  2  0  0  0  0
 15 13  1  0  0  0  0
 16 13  2  0  0  0  0
 16 17  1  0  0  0  0
 18 15  2  0  0  0  0
 19 20  1  0  0  0  0
 20 18  1  0  0  0  0
 22 21  1  1  0  0  0
 23 22  1  0  0  0  0
 24 25  1  0  0  0  0
 24 23  1  0  0  0  0
 25 21  1  0  0  0  0
 26 23  1  0  0  0  0
 27 26  1  0  0  0  0
 27 28  1  0  0  0  0
 29 28  1  0  0  0  0
 30 32  1  0  0  0  0
 32 31  2  0  0  0  0
M  END
>  <MODEL>
4

>  <REMARK>
 VINA RESULT:      -6.0      2.862      8.352
  Name = 
  8 active torsions:
  status: ('A' for Active; 'I' for Inactive)
    1  A    between atoms: C_1  and  C_5
    2  A    between atoms: C_11  and  C_12
    3  A    between atoms: C_11  and  C_31
    4  A    between atoms: C_13  and  C_18
    5  A    between atoms: N_14  and  C_29
    6  A    between atoms: O_15  and  C_26
    7  A    between atoms: C_16  and  C_27
    8  A    between atoms: C_18  and  C_29
                            x       y       z     vdW  Elec       q    Type
                         _______ _______ _______ _____ _____    ______ ____

>  <TORSDO>
F 8

$$$$
=
 OpenBabel11052414383D

 32 35  0  0  1  0  0  0  0  0999 V2000
  189.2470  176.7890  139.0190 C   0  0  2  0  0  3  0  0  0  0  0  0
  190.4210  177.8780  140.7520 C   0  0  2  0  0  3  0  0  0  0  0  0
  188.2660  176.8350  141.1660 O   0  0  0  0  0  0  0  0  0  0  0  0
  188.9990  177.6100  140.2480 C   0  0  2  0  0  3  0  0  0  0  0  0
  189.3080  177.7340  143.1310 C   0  0  2  0  0  3  0  0  0  0  0  0
  188.0430  177.6570  142.2790 C   0  0  0  0  0  2  0  0  0  0  0  0
  191.2990  176.8800  140.2830 O   0  0  0  0  0  0  0  0  0  0  0  0
  190.5880  176.1280  139.3270 C   0  0  2  0  0  3  0  0  0  0  0  0
  190.5050  178.0150  142.2530 C   0  0  0  0  0  0  0  0  0  0  0  0
  191.6100  178.5300  142.7920 C   0  0  0  0  0  2  0  0  0  0  0  0
  191.8310  174.4210  136.1410 C   0  0  0  0  0  0  0  0  0  0  0  0
  191.4850  173.3760  135.2920 O   0  0  0  0  0  1  0  0  0  0  0  0
  191.4260  175.7690  138.1250 C   0  0  0  0  0  0  0  0  0  0  0  0
  192.9630  175.1860  135.8540 C   0  0  0  0  0  3  0  0  0  0  0  0
  192.5620  176.5330  137.8180 C   0  0  0  0  0  3  0  0  0  0  0  0
  191.0550  174.7080  137.2760 C   0  0  0  0  0  0  0  0  0  0  0  0
  189.8400  173.8850  137.5650 C   0  0  0  0  0  1  0  0  0  0  0  0
  193.3350  176.2480  136.6910 C   0  0  0  0  0  0  0  0  0  0  0  0
  195.0850  177.0720  135.1490 C   0  0  0  0  0  1  0  0  0  0  0  0
  194.4590  177.0330  136.4240 O   0  0  0  0  0  0  0  0  0  0  0  0
  189.2930  179.0660  138.0100 N   0  0  0  0  0  2  0  0  0  0  0  0
  189.2200  177.6360  137.7330 C   0  0  2  0  0  3  0  0  0  0  0  0
  188.0180  177.3490  136.9570 N   0  0  0  0  0  0  0  0  0  0  0  0
  187.5650  178.6310  136.4470 C   0  0  0  0  0  2  0  0  0  0  0  0
  188.5200  179.6830  136.9530 C   0  0  0  0  0  2  0  0  0  0  0  0
  188.4250  176.5560  135.8070 C   0  0  0  0  0  2  0  0  0  0  0  0
  187.3260  175.5790  135.4350 C   0  0  0  0  0  2  0  0  0  0  0  0
  186.5340  175.2180  136.6730 C   0  0  0  0  0  2  0  0  0  0  0  0
  185.1790  175.4480  136.4400 O   0  0  0  0  0  1  0  0  0  0  0  0
  189.4860  176.4270  143.8940 C   0  0  0  0  0  2  0  0  0  0  0  0
  188.9250  177.4370  146.0480 C   0  0  0  0  0  2  0  0  0  0  0  0
  189.7640  176.6920  145.3350 C   0  0  0  0  0  3  0  0  0  0  0  0
  1 22  1  6  0  0  0
  1  8  1  0  0  0  0
  1  4  1  0  0  0  0
  2  7  1  1  0  0  0
  2  9  1  0  0  0  0
  3  6  1  0  0  0  0
  4  2  1  0  0  0  0
  4  3  1  1  0  0  0
  5 30  1  6  0  0  0
  6  5  1  0  0  0  0
  8 13  1  6  0  0  0
  8  7  1  0  0  0  0
  9 10  2  0  0  0  0
  9  5  1  0  0  0  0
 11 16  1  0  0  0  0
 12 11  1  0  0  0  0
 14 11  2  0  0  0  0
 14 18  1  0  0  0  0
 15 13  1  0  0  0  0
 16 17  1  0  0  0  0
 16 13  2  0  0  0  0
 18 15  2  0  0  0  0
 19 20  1  0  0  0  0
 20 18  1  0  0  0  0
 22 21  1  1  0  0  0
 23 22  1  0  0  0  0
 24 25  1  0  0  0  0
 24 23  1  0  0  0  0
 25 21  1  0  0  0  0
 26 23  1  0  0  0  0
 27 26  1  0  0  0  0
 27 28  1  0  0  0  0
 29 28  1  0  0  0  0
 30 32  1  0  0  0  0
 32 31  2  0  0  0  0
M  END
>  <MODEL>
5

>  <REMARK>
 VINA RESULT:      -6.0      3.051      8.570
  Name = 
  8 active torsions:
  status: ('A' for Active; 'I' for Inactive)
    1  A    between atoms: C_1  and  C_5
    2  A    between atoms: C_11  and  C_12
    3  A    between atoms: C_11  and  C_31
    4  A    between atoms: C_13  and  C_18
    5  A    between atoms: N_14  and  C_29
    6  A    between atoms: O_15  and  C_26
    7  A    between atoms: C_16  and  C_27
    8  A    between atoms: C_18  and  C_29
                            x       y       z     vdW  Elec       q    Type
                         _______ _______ _______ _____ _____    ______ ____

>  <TORSDO>
F 8

$$$$
=
 OpenBabel11052414383D

 32 35  0  0  1  0  0  0  0  0999 V2000
  190.4720  177.0540  138.6510 C   0  0  2  0  0  3  0  0  0  0  0  0
  189.8050  176.2610  140.7710 C   0  0  2  0  0  3  0  0  0  0  0  0
  191.6010  177.8830  140.5510 O   0  0  0  0  0  0  0  0  0  0  0  0
  191.0460  176.7170  139.9940 C   0  0  2  0  0  3  0  0  0  0  0  0
  191.0250  177.3670  142.8220 C   0  0  2  0  0  3  0  0  0  0  0  0
  192.1410  177.5050  141.7880 C   0  0  0  0  0  2  0  0  0  0  0  0
  188.6440  176.8260  140.2070 O   0  0  0  0  0  0  0  0  0  0  0  0
  189.0300  177.4200  138.9880 C   0  0  2  0  0  3  0  0  0  0  0  0
  189.8890  176.5520  142.2490 C   0  0  0  0  0  0  0  0  0  0  0  0
  189.0260  175.9580  143.0730 C   0  0  0  0  0  2  0  0  0  0  0  0
  186.9620  177.8690  135.8040 C   0  0  0  0  0  0  0  0  0  0  0  0
  186.7930  178.7780  134.7670 O   0  0  0  0  0  1  0  0  0  0  0  0
  188.0270  177.1900  137.8850 C   0  0  0  0  0  0  0  0  0  0  0  0
  186.2130  176.6900  135.8060 C   0  0  0  0  0  3  0  0  0  0  0  0
  187.2720  176.0080  137.8660 C   0  0  0  0  0  3  0  0  0  0  0  0
  187.8740  178.1260  136.8410 C   0  0  0  0  0  0  0  0  0  0  0  0
  188.6760  179.3870  136.8210 C   0  0  0  0  0  1  0  0  0  0  0  0
  186.3640  175.7520  136.8370 C   0  0  0  0  0  0  0  0  0  0  0  0
  184.3640  174.4550  137.4930 C   0  0  0  0  0  1  0  0  0  0  0  0
  185.6310  174.5630  136.8610 O   0  0  0  0  0  0  0  0  0  0  0  0
  191.2570  174.7260  138.2330 N   0  0  0  0  0  2  0  0  0  0  0  0
  190.6320  175.9040  137.6390 C   0  0  2  0  0  3  0  0  0  0  0  0
  191.4130  176.3410  136.4870 N   0  0  0  0  0  0  0  0  0  0  0  0
  192.2850  175.2270  136.1570 C   0  0  0  0  0  2  0  0  0  0  0  0
  192.0100  174.1270  137.1530 C   0  0  0  0  0  2  0  0  0  0  0  0
  190.4880  176.4980  135.3740 C   0  0  0  0  0  2  0  0  0  0  0  0
  190.3880  175.2000  134.5950 C   0  0  0  0  0  2  0  0  0  0  0  0
  188.9520  174.7220  134.5960 C   0  0  0  0  0  2  0  0  0  0  0  0
  188.8310  173.6160  135.4370 O   0  0  0  0  0  1  0  0  0  0  0  0
  190.5470  178.7520  143.2400 C   0  0  0  0  0  2  0  0  0  0  0  0
  190.7250  177.8640  145.5100 C   0  0  0  0  0  2  0  0  0  0  0  0
  190.6710  178.9280  144.7160 C   0  0  0  0  0  3  0  0  0  0  0  0
  1 22  1  6  0  0  0
  1  8  1  0  0  0  0
  1  4  1  0  0  0  0
  2  7  1  6  0  0  0
  2  9  1  0  0  0  0
  3  6  1  0  0  0  0
  4  3  1  1  0  0  0
  4  2  1  0  0  0  0
  5 30  1  6  0  0  0
  6  5  1  0  0  0  0
  8 13  1  6  0  0  0
  8  7  1  0  0  0  0
  9  5  1  0  0  0  0
  9 10  2  0  0  0  0
 11 14  2  0  0  0  0
 11 16  1  0  0  0  0
 12 11  1  0  0  0  0
 14 18  1  0  0  0  0
 15 13  1  0  0  0  0
 16 13  2  0  0  0  0
 17 16  1  0  0  0  0
 18 20  1  0  0  0  0
 18 15  2  0  0  0  0
 20 19  1  0  0  0  0
 22 21  1  1  0  0  0
 23 22  1  0  0  0  0
 24 23  1  0  0  0  0
 24 25  1  0  0  0  0
 25 21  1  0  0  0  0
 26 23  1  0  0  0  0
 27 28  1  0  0  0  0
 27 26  1  0  0  0  0
 28 29  1  0  0  0  0
 30 32  1  0  0  0  0
 32 31  2  0  0  0  0
M  END
>  <MODEL>
6

>  <REMARK>
 VINA RESULT:      -5.9      3.552      7.741
  Name = 
  8 active torsions:
  status: ('A' for Active; 'I' for Inactive)
    1  A    between atoms: C_1  and  C_5
    2  A    between atoms: C_11  and  C_12
    3  A    between atoms: C_11  and  C_31
    4  A    between atoms: C_13  and  C_18
    5  A    between atoms: N_14  and  C_29
    6  A    between atoms: O_15  and  C_26
    7  A    between atoms: C_16  and  C_27
    8  A    between atoms: C_18  and  C_29
                            x       y       z     vdW  Elec       q    Type
                         _______ _______ _______ _____ _____    ______ ____

>  <TORSDO>
F 8

$$$$
=
 OpenBabel11052414383D

 32 35  0  0  1  0  0  0  0  0999 V2000
  183.1110  177.8530  137.6640 C   0  0  2  0  0  3  0  0  0  0  0  0
  184.3870  175.9860  136.9920 C   0  0  2  0  0  3  0  0  0  0  0  0
  185.4100  178.1760  137.2390 O   0  0  0  0  0  0  0  0  0  0  0  0
  184.2660  177.4980  136.7780 C   0  0  2  0  0  3  0  0  0  0  0  0
  186.9630  176.4290  136.6970 C   0  0  2  0  0  3  0  0  0  0  0  0
  186.4480  177.8280  136.3630 C   0  0  0  0  0  2  0  0  0  0  0  0
  183.8360  175.6250  138.2390 O   0  0  0  0  0  0  0  0  0  0  0  0
  183.1630  176.7620  138.7300 C   0  0  2  0  0  3  0  0  0  0  0  0
  185.8010  175.4760  136.8570 C   0  0  0  0  0  0  0  0  0  0  0  0
  186.0050  174.1660  136.7300 C   0  0  0  0  0  2  0  0  0  0  0  0
  180.0560  176.9280  140.9510 C   0  0  0  0  0  0  0  0  0  0  0  0
  179.5090  177.7190  141.9540 O   0  0  0  0  0  1  0  0  0  0  0  0
  181.8430  176.4240  139.3790 C   0  0  0  0  0  0  0  0  0  0  0  0
  179.3490  175.8110  140.5010 C   0  0  0  0  0  3  0  0  0  0  0  0
  181.1160  175.3110  138.9340 C   0  0  0  0  0  3  0  0  0  0  0  0
  181.3050  177.2430  140.3920 C   0  0  0  0  0  0  0  0  0  0  0  0
  182.0470  178.4470  140.8770 C   0  0  0  0  0  1  0  0  0  0  0  0
  179.8740  174.9960  139.4890 C   0  0  0  0  0  0  0  0  0  0  0  0
  179.6840  173.0520  137.9710 C   0  0  0  0  0  1  0  0  0  0  0  0
  179.1860  173.8750  139.0170 O   0  0  0  0  0  0  0  0  0  0  0  0
  181.9030  177.4350  135.5250 N   0  0  0  0  0  2  0  0  0  0  0  0
  181.7820  177.9400  136.8890 C   0  0  2  0  0  3  0  0  0  0  0  0
  181.2990  179.3170  136.8580 N   0  0  0  0  0  0  0  0  0  0  0  0
  180.7730  179.5180  135.5190 C   0  0  0  0  0  2  0  0  0  0  0  0
  180.9720  178.2330  134.7560 C   0  0  0  0  0  2  0  0  0  0  0  0
  180.1690  179.3980  137.7720 C   0  0  0  0  0  2  0  0  0  0  0  0
  180.1340  180.7620  138.4340 C   0  0  0  0  0  2  0  0  0  0  0  0
  181.5380  181.3220  138.5090 C   0  0  0  0  0  2  0  0  0  0  0  0
  181.5560  182.6070  137.9680 O   0  0  0  0  0  1  0  0  0  0  0  0
  187.8000  176.4870  137.9690 C   0  0  0  0  0  2  0  0  0  0  0  0
  189.0860  178.2530  139.0650 C   0  0  0  0  0  2  0  0  0  0  0  0
  188.7310  177.6520  137.9340 C   0  0  0  0  0  3  0  0  0  0  0  0
  1 22  1  6  0  0  0
  1  8  1  0  0  0  0
  2  9  1  1  0  0  0
  2  7  1  0  0  0  0
  4  2  1  0  0  0  0
  4  3  1  1  0  0  0
  4  1  1  0  0  0  0
  5  9  1  0  0  0  0
  5 30  1  1  0  0  0
  6  5  1  0  0  0  0
  6  3  1  0  0  0  0
  7  8  1  0  0  0  0
  8 13  1  6  0  0  0
 10  9  2  0  0  0  0
 11 12  1  0  0  0  0
 13 16  1  0  0  0  0
 14 11  1  0  0  0  0
 15 13  2  0  0  0  0
 15 18  1  0  0  0  0
 16 17  1  0  0  0  0
 16 11  2  0  0  0  0
 18 14  2  0  0  0  0
 19 20  1  0  0  0  0
 20 18  1  0  0  0  0
 22 21  1  6  0  0  0
 23 22  1  0  0  0  0
 23 26  1  0  0  0  0
 24 23  1  0  0  0  0
 25 24  1  0  0  0  0
 25 21  1  0  0  0  0
 26 27  1  0  0  0  0
 27 28  1  0  0  0  0
 29 28  1  0  0  0  0
 32 30  1  0  0  0  0
 32 31  2  0  0  0  0
M  END
>  <MODEL>
7

>  <REMARK>
 VINA RESULT:      -5.6      6.112      9.284
  Name = 
  8 active torsions:
  status: ('A' for Active; 'I' for Inactive)
    1  A    between atoms: C_1  and  C_5
    2  A    between atoms: C_11  and  C_12
    3  A    between atoms: C_11  and  C_31
    4  A    between atoms: C_13  and  C_18
    5  A    between atoms: N_14  and  C_29
    6  A    between atoms: O_15  and  C_26
    7  A    between atoms: C_16  and  C_27
    8  A    between atoms: C_18  and  C_29
                            x       y       z     vdW  Elec       q    Type
                         _______ _______ _______ _____ _____    ______ ____

>  <TORSDO>
F 8

$$$$
=
 OpenBabel11052414383D

 32 35  0  0  1  0  0  0  0  0999 V2000
  182.7130  177.1250  137.1260 C   0  0  2  0  0  3  0  0  0  0  0  0
  183.5840  174.9390  137.2980 C   0  0  2  0  0  3  0  0  0  0  0  0
  184.8190  176.6910  136.1530 O   0  0  0  0  0  0  0  0  0  0  0  0
  183.5380  176.1430  136.3510 C   0  0  2  0  0  3  0  0  0  0  0  0
  186.0010  174.6090  136.3140 C   0  0  2  0  0  3  0  0  0  0  0  0
  185.5360  175.7450  135.4060 C   0  0  0  0  0  2  0  0  0  0  0  0
  183.3760  175.3580  138.6270 O   0  0  0  0  0  0  0  0  0  0  0  0
  182.9680  176.7060  138.5710 C   0  0  2  0  0  3  0  0  0  0  0  0
  184.8540  174.1330  137.1740 C   0  0  0  0  0  0  0  0  0  0  0  0
  184.9010  172.9170  137.7170 C   0  0  0  0  0  2  0  0  0  0  0  0
  180.6720  178.5880  140.9770 C   0  0  0  0  0  0  0  0  0  0  0  0
  180.5320  179.8490  141.5440 O   0  0  0  0  0  1  0  0  0  0  0  0
  181.8610  177.0210  139.5450 C   0  0  0  0  0  0  0  0  0  0  0  0
  179.7390  177.5950  141.2850 C   0  0  0  0  0  3  0  0  0  0  0  0
  180.9110  176.0390  139.8580 C   0  0  0  0  0  3  0  0  0  0  0  0
  181.7360  178.3090  140.1050 C   0  0  0  0  0  0  0  0  0  0  0  0
  182.7210  179.3850  139.7770 C   0  0  0  0  0  1  0  0  0  0  0  0
  179.8520  176.3140  140.7260 C   0  0  0  0  0  0  0  0  0  0  0  0
  179.3110  173.9470  141.1970 C   0  0  0  0  0  1  0  0  0  0  0  0
  178.9310  175.3040  141.0130 O   0  0  0  0  0  0  0  0  0  0  0  0
  180.9280  176.0160  135.7870 N   0  0  0  0  0  2  0  0  0  0  0  0
  181.2330  177.1140  136.6980 C   0  0  2  0  0  3  0  0  0  0  0  0
  180.8720  178.3820  136.0720 N   0  0  0  0  0  0  0  0  0  0  0  0
  180.0130  178.0370  134.9530 C   0  0  0  0  0  2  0  0  0  0  0  0
  179.8880  176.5340  134.9250 C   0  0  0  0  0  2  0  0  0  0  0  0
  180.0520  179.1150  137.0250 C   0  0  0  0  0  2  0  0  0  0  0  0
  180.4220  180.5860  137.0030 C   0  0  0  0  0  2  0  0  0  0  0  0
  179.6070  181.3260  138.0410 C   0  0  0  0  0  2  0  0  0  0  0  0
  180.4660  181.9490  138.9470 O   0  0  0  0  0  1  0  0  0  0  0  0
  187.1640  175.0910  137.1730 C   0  0  0  0  0  2  0  0  0  0  0  0
  188.9070  173.4120  136.8350 C   0  0  0  0  0  2  0  0  0  0  0  0
  188.4650  174.6430  136.5980 C   0  0  0  0  0  3  0  0  0  0  0  0
  1 22  1  6  0  0  0
  1  8  1  0  0  0  0
  2  9  1  1  0  0  0
  2  7  1  0  0  0  0
  4  3  1  1  0  0  0
  4  1  1  0  0  0  0
  4  2  1  0  0  0  0
  5 30  1  1  0  0  0
  5  9  1  0  0  0  0
  6  3  1  0  0  0  0
  6  5  1  0  0  0  0
  8  7  1  0  0  0  0
  8 13  1  1  0  0  0
  9 10  2  0  0  0  0
 11 14  1  0  0  0  0
 11 12  1  0  0  0  0
 13 15  2  0  0  0  0
 13 16  1  0  0  0  0
 15 18  1  0  0  0  0
 16 11  2  0  0  0  0
 17 16  1  0  0  0  0
 18 20  1  0  0  0  0
 18 14  2  0  0  0  0
 20 19  1  0  0  0  0
 22 21  1  6  0  0  0
 23 22  1  0  0  0  0
 23 26  1  0  0  0  0
 24 23  1  0  0  0  0
 25 24  1  0  0  0  0
 25 21  1  0  0  0  0
 27 26  1  0  0  0  0
 27 28  1  0  0  0  0
 28 29  1  0  0  0  0
 32 31  2  0  0  0  0
 32 30  1  0  0  0  0
M  END
>  <MODEL>
8

>  <REMARK>
 VINA RESULT:      -5.5      7.281      9.479
  Name = 
  8 active torsions:
  status: ('A' for Active; 'I' for Inactive)
    1  A    between atoms: C_1  and  C_5
    2  A    between atoms: C_11  and  C_12
    3  A    between atoms: C_11  and  C_31
    4  A    between atoms: C_13  and  C_18
    5  A    between atoms: N_14  and  C_29
    6  A    between atoms: O_15  and  C_26
    7  A    between atoms: C_16  and  C_27
    8  A    between atoms: C_18  and  C_29
                            x       y       z     vdW  Elec       q    Type
                         _______ _______ _______ _____ _____    ______ ____

>  <TORSDO>
F 8

$$$$
=
 OpenBabel11052414383D

 32 35  0  0  1  0  0  0  0  0999 V2000
  190.8350  177.1090  138.5320 C   0  0  2  0  0  3  0  0  0  0  0  0
  190.1800  176.1470  140.5850 C   0  0  2  0  0  3  0  0  0  0  0  0
  191.8500  177.9110  140.5060 O   0  0  0  0  0  0  0  0  0  0  0  0
  191.4000  176.7390  139.8700 C   0  0  2  0  0  3  0  0  0  0  0  0
  191.2610  177.2240  142.7280 C   0  0  2  0  0  3  0  0  0  0  0  0
  192.3880  177.5040  141.7350 C   0  0  0  0  0  2  0  0  0  0  0  0
  188.9920  176.6550  140.0210 O   0  0  0  0  0  0  0  0  0  0  0  0
  189.3600  177.3440  138.8470 C   0  0  2  0  0  3  0  0  0  0  0  0
  190.2050  176.3590  142.0790 C   0  0  0  0  0  0  0  0  0  0  0  0
  189.3720  175.6550  142.8440 C   0  0  0  0  0  2  0  0  0  0  0  0
  187.3460  177.8140  135.6330 C   0  0  0  0  0  0  0  0  0  0  0  0
  187.1360  178.7630  134.6400 O   0  0  0  0  0  1  0  0  0  0  0  0
  188.4040  177.1030  137.7060 C   0  0  0  0  0  0  0  0  0  0  0  0
  186.6850  176.5860  135.5520 C   0  0  0  0  0  3  0  0  0  0  0  0
  187.7390  175.8730  137.6040 C   0  0  0  0  0  3  0  0  0  0  0  0
  188.2100  178.0790  136.7070 C   0  0  0  0  0  0  0  0  0  0  0  0
  188.9180  179.3950  136.7760 C   0  0  0  0  0  1  0  0  0  0  0  0
  186.8790  175.6070  136.5370 C   0  0  0  0  0  0  0  0  0  0  0  0
  186.6260  173.2610  137.2770 C   0  0  0  0  0  1  0  0  0  0  0  0
  186.2340  174.3690  136.4790 O   0  0  0  0  0  0  0  0  0  0  0  0
  190.4070  174.7840  137.7450 N   0  0  0  0  0  2  0  0  0  0  0  0
  191.1060  176.0330  137.4630 C   0  0  2  0  0  3  0  0  0  0  0  0
  192.5380  175.7760  137.3500 N   0  0  0  0  0  0  0  0  0  0  0  0
  192.6680  174.3380  137.1890 C   0  0  0  0  0  2  0  0  0  0  0  0
  191.2780  173.7520  137.2250 C   0  0  0  0  0  2  0  0  0  0  0  0
  192.9890  176.3830  136.1060 C   0  0  0  0  0  2  0  0  0  0  0  0
  194.4750  176.1440  135.9210 C   0  0  0  0  0  2  0  0  0  0  0  0
  194.9990  177.0510  134.8290 C   0  0  0  0  0  2  0  0  0  0  0  0
  195.4310  178.2520  135.3910 O   0  0  0  0  0  1  0  0  0  0  0  0
  190.6680  178.5420  143.2080 C   0  0  0  0  0  2  0  0  0  0  0  0
  189.4740  178.2490  145.3200 C   0  0  0  0  0  2  0  0  0  0  0  0
  190.6010  178.5780  144.6980 C   0  0  0  0  0  3  0  0  0  0  0  0
  1 22  1  6  0  0  0
  1  8  1  0  0  0  0
  1  4  1  0  0  0  0
  2  7  1  6  0  0  0
  2  9  1  0  0  0  0
  3  6  1  0  0  0  0
  4  3  1  1  0  0  0
  4  2  1  0  0  0  0
  5 30  1  6  0  0  0
  6  5  1  0  0  0  0
  8 13  1  6  0  0  0
  8  7  1  0  0  0  0
  9  5  1  0  0  0  0
  9 10  2  0  0  0  0
 11 16  1  0  0  0  0
 12 11  1  0  0  0  0
 14 11  2  0  0  0  0
 14 18  1  0  0  0  0
 15 13  1  0  0  0  0
 16 17  1  0  0  0  0
 16 13  2  0  0  0  0
 18 15  2  0  0  0  0
 20 18  1  0  0  0  0
 20 19  1  0  0  0  0
 22 21  1  1  0  0  0
 23 22  1  0  0  0  0
 24 25  1  0  0  0  0
 24 23  1  0  0  0  0
 25 21  1  0  0  0  0
 26 23  1  0  0  0  0
 27 26  1  0  0  0  0
 28 29  1  0  0  0  0
 28 27  1  0  0  0  0
 30 32  1  0  0  0  0
 32 31  2  0  0  0  0
M  END
>  <MODEL>
9

>  <REMARK>
 VINA RESULT:      -5.4      3.664      7.717
  Name = 
  8 active torsions:
  status: ('A' for Active; 'I' for Inactive)
    1  A    between atoms: C_1  and  C_5
    2  A    between atoms: C_11  and  C_12
    3  A    between atoms: C_11  and  C_31
    4  A    between atoms: C_13  and  C_18
    5  A    between atoms: N_14  and  C_29
    6  A    between atoms: O_15  and  C_26
    7  A    between atoms: C_16  and  C_27
    8  A    between atoms: C_18  and  C_29
                            x       y       z     vdW  Elec       q    Type
                         _______ _______ _______ _____ _____    ______ ____

>  <TORSDO>
F 8

$$$$
