=
 OpenBabel11052413213D

 28 31  0  0  1  0  0  0  0  0999 V2000
  188.7050  178.1570  140.8540 C   0  0  2  0  0  3  0  0  0  0  0  0
  190.7200  177.0400  140.3820 C   0  0  2  0  0  3  0  0  0  0  0  0
  189.9460  177.3350  139.1590 C   0  0  0  0  0  0  0  0  0  0  0  0
  190.3030  177.0450  137.9880 O   0  0  0  0  0  0  0  0  0  0  0  0
  188.7530  177.9310  139.4600 O   0  0  0  0  0  0  0  0  0  0  0  0
  189.8060  177.3740  141.4850 N   0  0  0  0  0  0  0  0  0  0  0  0
  193.1680  177.1800  139.9330 C   0  0  0  0  0  1  0  0  0  0  0  0
  191.9570  177.9200  140.4660 C   0  0  0  0  0  2  0  0  0  0  0  0
  187.2980  177.9200  141.4100 C   0  0  0  0  0  2  0  0  0  0  0  0
  186.3890  179.1120  141.1390 C   0  0  2  0  0  3  0  0  0  0  0  0
  184.1500  178.5380  140.5780 C   0  0  0  0  0  0  0  0  0  0  0  0
  185.6190  179.4600  142.4080 C   0  0  0  0  0  2  0  0  0  0  0  0
  185.6640  178.7830  138.7200 N   0  0  0  0  0  1  0  0  0  0  0  0
  185.3640  178.7760  140.1140 C   0  0  0  0  0  0  0  0  0  0  0  0
  182.9700  178.2930  139.7020 C   0  0  0  0  0  1  0  0  0  0  0  0
  183.9940  178.6300  142.3480 S   0  0  0  0  0  0  0  0  0  0  0  0
  189.3290  176.1000  142.0360 C   0  0  0  0  0  2  0  0  0  0  0  0
  187.4110  176.6160  144.3140 C   0  0  0  0  0  3  0  0  0  0  0  0
  189.3300  177.5080  145.4990 C   0  0  0  0  0  0  0  0  0  0  0  0
  189.7050  175.9410  143.5160 C   0  0  2  0  0  3  0  0  0  0  0  0
  187.0850  178.1010  146.1940 C   0  0  0  0  0  0  0  0  0  0  0  0
  188.8010  176.7350  144.4410 C   0  0  0  0  0  0  0  0  0  0  0  0
  191.5410  176.4140  145.1830 C   0  0  0  0  0  2  0  0  0  0  0  0
  188.4690  178.2000  146.3560 C   0  0  0  0  0  3  0  0  0  0  0  0
  190.8090  177.6440  145.7000 C   0  0  0  0  0  2  0  0  0  0  0  0
  186.0140  178.9690  147.2740 Cl  0  0  0  0  0  0  0  0  0  0  0  0
  186.5560  177.3010  145.1800 C   0  0  0  0  0  3  0  0  0  0  0  0
  191.2010  176.2170  143.7150 C   0  0  0  0  0  2  0  0  0  0  0  0
  1  9  1  1  0  0  0
  1  6  1  0  0  0  0
  2  8  1  1  0  0  0
  2  6  1  0  0  0  0
  3  5  1  0  0  0  0
  3  2  1  0  0  0  0
  4  3  2  0  0  0  0
  5  1  1  0  0  0  0
  6 17  1  0  0  0  0
  7  8  1  0  0  0  0
 10  9  1  1  0  0  0
 10 12  1  0  0  0  0
 11 16  1  0  0  0  0
 13 14  1  0  0  0  0
 14 11  2  0  0  0  0
 14 10  1  0  0  0  0
 15 11  1  0  0  0  0
 16 12  1  0  0  0  0
 18 22  2  0  0  0  0
 18 27  1  0  0  0  0
 19 25  1  0  0  0  0
 19 24  2  0  0  0  0
 20 17  1  6  0  0  0
 20 28  1  0  0  0  0
 20 22  1  0  0  0  0
 21 24  1  0  0  0  0
 21 26  1  0  0  0  0
 22 19  1  0  0  0  0
 23 25  1  0  0  0  0
 27 21  2  0  0  0  0
 28 23  1  0  0  0  0
M  END
>  <MODEL>
1

>  <REMARK>
 VINA RESULT:      -7.8      0.000      0.000
  Name = 
  5 active torsions:
  status: ('A' for Active; 'I' for Inactive)
    1  A    between atoms: C_1  and  C_2
    2  A    between atoms: C_2  and  C_3
    3  A    between atoms: C_10  and  C_17
    4  A    between atoms: C_16  and  C_20
    5  A    between atoms: C_17  and  N_27
                            x       y       z     vdW  Elec       q    Type
                         _______ _______ _______ _____ _____    ______ ____

>  <TORSDO>
F 5

$$$$
=
 OpenBabel11052413213D

 28 31  0  0  1  0  0  0  0  0999 V2000
  188.1110  178.0310  141.0020 C   0  0  2  0  0  3  0  0  0  0  0  0
  190.2690  177.1480  141.3050 C   0  0  2  0  0  3  0  0  0  0  0  0
  189.6510  176.6890  140.0450 C   0  0  0  0  0  0  0  0  0  0  0  0
  190.1960  175.9260  139.2060 O   0  0  0  0  0  0  0  0  0  0  0  0
  188.3760  177.1670  139.9160 O   0  0  0  0  0  0  0  0  0  0  0  0
  189.1820  177.8320  142.0200 N   0  0  0  0  0  0  0  0  0  0  0  0
  192.6610  177.3970  140.6470 C   0  0  0  0  0  1  0  0  0  0  0  0
  191.3930  178.1350  141.0300 C   0  0  0  0  0  2  0  0  0  0  0  0
  186.6680  177.8830  141.4950 C   0  0  0  0  0  2  0  0  0  0  0  0
  185.8750  179.1640  141.2750 C   0  0  2  0  0  3  0  0  0  0  0  0
  183.6550  178.8270  140.4920 C   0  0  0  0  0  0  0  0  0  0  0  0
  185.0300  179.4540  142.5090 C   0  0  0  0  0  2  0  0  0  0  0  0
  185.3320  179.1200  138.7870 N   0  0  0  0  0  1  0  0  0  0  0  0
  184.9170  179.0090  140.1460 C   0  0  0  0  0  0  0  0  0  0  0  0
  182.5370  178.7600  139.5080 C   0  0  0  0  0  1  0  0  0  0  0  0
  183.3590  178.7670  142.2450 S   0  0  0  0  0  0  0  0  0  0  0  0
  188.7550  176.9310  143.0980 C   0  0  0  0  0  2  0  0  0  0  0  0
  191.0350  177.0470  145.0790 C   0  0  0  0  0  3  0  0  0  0  0  0
  189.3260  176.8740  146.7920 C   0  0  0  0  0  0  0  0  0  0  0  0
  188.6710  177.6540  144.4480 C   0  0  2  0  0  3  0  0  0  0  0  0
  191.6280  176.3120  147.3050 C   0  0  0  0  0  0  0  0  0  0  0  0
  189.6890  177.1470  145.4540 C   0  0  0  0  0  0  0  0  0  0  0  0
  187.1550  178.0330  146.4320 C   0  0  0  0  0  2  0  0  0  0  0  0
  190.2950  176.4410  147.7020 C   0  0  0  0  0  3  0  0  0  0  0  0
  187.9060  176.9950  147.2540 C   0  0  0  0  0  2  0  0  0  0  0  0
  192.8340  175.7720  148.4520 Cl  0  0  0  0  0  0  0  0  0  0  0  0
  191.9990  176.6250  145.9960 C   0  0  0  0  0  3  0  0  0  0  0  0
  187.2260  177.6470  144.9630 C   0  0  0  0  0  2  0  0  0  0  0  0
  1  9  1  1  0  0  0
  1  6  1  0  0  0  0
  2  8  1  6  0  0  0
  2  6  1  0  0  0  0
  3  2  1  0  0  0  0
  4  3  2  0  0  0  0
  5  3  1  0  0  0  0
  5  1  1  0  0  0  0
  6 17  1  0  0  0  0
  7  8  1  0  0  0  0
 10  9  1  1  0  0  0
 10 12  1  0  0  0  0
 11 16  1  0  0  0  0
 13 14  1  0  0  0  0
 14 11  2  0  0  0  0
 14 10  1  0  0  0  0
 15 11  1  0  0  0  0
 16 12  1  0  0  0  0
 18 22  2  0  0  0  0
 18 27  1  0  0  0  0
 19 25  1  0  0  0  0
 19 24  2  0  0  0  0
 20 17  1  6  0  0  0
 20 28  1  0  0  0  0
 20 22  1  0  0  0  0
 21 24  1  0  0  0  0
 21 26  1  0  0  0  0
 22 19  1  0  0  0  0
 23 25  1  0  0  0  0
 27 21  2  0  0  0  0
 28 23  1  0  0  0  0
M  END
>  <MODEL>
2

>  <REMARK>
 VINA RESULT:      -7.7      1.791      2.757
  Name = 
  5 active torsions:
  status: ('A' for Active; 'I' for Inactive)
    1  A    between atoms: C_1  and  C_2
    2  A    between atoms: C_2  and  C_3
    3  A    between atoms: C_10  and  C_17
    4  A    between atoms: C_16  and  C_20
    5  A    between atoms: C_17  and  N_27
                            x       y       z     vdW  Elec       q    Type
                         _______ _______ _______ _____ _____    ______ ____

>  <TORSDO>
F 5

$$$$
=
 OpenBabel11052413213D

 28 31  0  0  1  0  0  0  0  0999 V2000
  188.6070  177.6350  141.0510 C   0  0  2  0  0  3  0  0  0  0  0  0
  187.2410  178.3230  139.2660 C   0  0  2  0  0  3  0  0  0  0  0  0
  188.6510  178.7180  139.0740 C   0  0  0  0  0  0  0  0  0  0  0  0
  189.0990  179.3390  138.0760 O   0  0  0  0  0  0  0  0  0  0  0  0
  189.4160  178.3610  140.1480 O   0  0  0  0  0  0  0  0  0  0  0  0
  187.1850  177.8220  140.6470 N   0  0  0  0  0  0  0  0  0  0  0  0
  185.7810  177.6820  137.3490 C   0  0  0  0  0  1  0  0  0  0  0  0
  186.8550  177.2060  138.3080 C   0  0  0  0  0  2  0  0  0  0  0  0
  188.9520  177.9730  142.5050 C   0  0  0  0  0  2  0  0  0  0  0  0
  189.0740  176.7130  143.3510 C   0  0  2  0  0  3  0  0  0  0  0  0
  190.4040  176.9640  145.3080 C   0  0  0  0  0  0  0  0  0  0  0  0
  188.0370  176.7500  144.4670 C   0  0  0  0  0  2  0  0  0  0  0  0
  191.5710  176.2160  143.3380 N   0  0  0  0  0  1  0  0  0  0  0  0
  190.4010  176.6520  144.0240 C   0  0  0  0  0  0  0  0  0  0  0  0
  191.6110  176.8570  146.1760 C   0  0  0  0  0  1  0  0  0  0  0  0
  188.8200  177.4350  145.9680 S   0  0  0  0  0  0  0  0  0  0  0  0
  186.5190  178.8610  141.4440 C   0  0  0  0  0  2  0  0  0  0  0  0
  183.7960  177.9190  140.5320 C   0  0  0  0  0  3  0  0  0  0  0  0
  182.9780  178.7980  142.6390 C   0  0  0  0  0  0  0  0  0  0  0  0
  185.4650  178.2690  142.3890 C   0  0  2  0  0  3  0  0  0  0  0  0
  181.4470  178.4280  140.7960 C   0  0  0  0  0  0  0  0  0  0  0  0
  184.0550  178.3660  141.8340 C   0  0  0  0  0  0  0  0  0  0  0  0
  184.4080  178.5730  144.6620 C   0  0  0  0  0  2  0  0  0  0  0  0
  181.6850  178.8440  142.1090 C   0  0  0  0  0  3  0  0  0  0  0  0
  183.1950  179.2580  144.0490 C   0  0  0  0  0  2  0  0  0  0  0  0
  179.8250  178.4860  140.1410 Cl  0  0  0  0  0  0  0  0  0  0  0  0
  182.5000  177.9560  140.0120 C   0  0  0  0  0  3  0  0  0  0  0  0
  185.6250  178.8570  143.7960 C   0  0  0  0  0  2  0  0  0  0  0  0
  1  9  1  1  0  0  0
  2  8  1  6  0  0  0
  2  6  1  0  0  0  0
  3  2  1  0  0  0  0
  3  5  1  0  0  0  0
  4  3  2  0  0  0  0
  5  1  1  0  0  0  0
  6  1  1  0  0  0  0
  6 17  1  0  0  0  0
  7  8  1  0  0  0  0
 10  9  1  1  0  0  0
 10 14  1  0  0  0  0
 10 12  1  0  0  0  0
 11 16  1  0  0  0  0
 11 15  1  0  0  0  0
 12 16  1  0  0  0  0
 13 14  1  0  0  0  0
 14 11  2  0  0  0  0
 18 22  1  0  0  0  0
 19 25  1  0  0  0  0
 20 17  1  6  0  0  0
 20 28  1  0  0  0  0
 21 24  2  0  0  0  0
 22 20  1  0  0  0  0
 22 19  2  0  0  0  0
 24 19  1  0  0  0  0
 25 23  1  0  0  0  0
 26 21  1  0  0  0  0
 27 18  2  0  0  0  0
 27 21  1  0  0  0  0
 28 23  1  0  0  0  0
M  END
>  <MODEL>
3

>  <REMARK>
 VINA RESULT:      -7.6      2.823      6.160
  Name = 
  5 active torsions:
  status: ('A' for Active; 'I' for Inactive)
    1  A    between atoms: C_1  and  C_2
    2  A    between atoms: C_2  and  C_3
    3  A    between atoms: C_10  and  C_17
    4  A    between atoms: C_16  and  C_20
    5  A    between atoms: C_17  and  N_27
                            x       y       z     vdW  Elec       q    Type
                         _______ _______ _______ _____ _____    ______ ____

>  <TORSDO>
F 5

$$$$
=
 OpenBabel11052413213D

 28 31  0  0  1  0  0  0  0  0999 V2000
  189.2060  176.8220  138.3360 C   0  0  2  0  0  3  0  0  0  0  0  0
  187.5230  178.3760  138.8680 C   0  0  2  0  0  3  0  0  0  0  0  0
  188.2300  178.7250  137.6180 C   0  0  0  0  0  0  0  0  0  0  0  0
  187.9740  179.7230  136.8960 O   0  0  0  0  0  0  0  0  0  0  0  0
  189.2410  177.8430  137.3590 O   0  0  0  0  0  0  0  0  0  0  0  0
  188.3090  177.2720  139.4380 N   0  0  0  0  0  0  0  0  0  0  0  0
  185.1070  178.6560  139.4150 C   0  0  0  0  0  1  0  0  0  0  0  0
  186.1110  177.8920  138.5750 C   0  0  0  0  0  2  0  0  0  0  0  0
  190.6190  176.3900  138.7420 C   0  0  0  0  0  2  0  0  0  0  0  0
  191.5450  176.3270  137.5350 C   0  0  2  0  0  3  0  0  0  0  0  0
  193.0170  174.4590  137.5180 C   0  0  0  0  0  0  0  0  0  0  0  0
  190.9340  175.4200  136.4740 C   0  0  0  0  0  2  0  0  0  0  0  0
  193.8760  176.4580  138.5540 N   0  0  0  0  0  1  0  0  0  0  0  0
  192.8510  175.7130  137.8990 C   0  0  0  0  0  0  0  0  0  0  0  0
  194.2940  173.7100  137.6940 C   0  0  0  0  0  1  0  0  0  0  0  0
  191.6250  173.7420  136.6750 S   0  0  0  0  0  0  0  0  0  0  0  0
  189.0630  177.8330  140.5660 C   0  0  0  0  0  2  0  0  0  0  0  0
  186.8270  177.6970  142.5960 C   0  0  0  0  0  3  0  0  0  0  0  0
  188.5750  177.3450  144.2400 C   0  0  0  0  0  0  0  0  0  0  0  0
  189.0700  176.8880  141.7750 C   0  0  2  0  0  3  0  0  0  0  0  0
  186.3870  178.1210  144.9350 C   0  0  0  0  0  0  0  0  0  0  0  0
  188.1530  177.3530  142.8920 C   0  0  0  0  0  0  0  0  0  0  0  0
  190.5540  175.9780  143.6050 C   0  0  0  0  0  2  0  0  0  0  0  0
  187.6950  177.7470  145.2500 C   0  0  0  0  0  3  0  0  0  0  0  0
  189.9730  176.9550  144.6160 C   0  0  0  0  0  2  0  0  0  0  0  0
  185.2910  178.6200  146.2050 Cl  0  0  0  0  0  0  0  0  0  0  0  0
  185.9500  178.0860  143.6100 C   0  0  0  0  0  3  0  0  0  0  0  0
  190.5110  176.6110  142.2230 C   0  0  0  0  0  2  0  0  0  0  0  0
  1  9  1  1  0  0  0
  1  6  1  0  0  0  0
  2  8  1  6  0  0  0
  2  6  1  0  0  0  0
  3  2  1  0  0  0  0
  4  3  2  0  0  0  0
  5  3  1  0  0  0  0
  5  1  1  0  0  0  0
  6 17  1  0  0  0  0
  8  7  1  0  0  0  0
 10 14  1  0  0  0  0
 10  9  1  1  0  0  0
 11 15  1  0  0  0  0
 11 14  2  0  0  0  0
 12 16  1  0  0  0  0
 12 10  1  0  0  0  0
 14 13  1  0  0  0  0
 16 11  1  0  0  0  0
 18 22  2  0  0  0  0
 18 27  1  0  0  0  0
 19 25  1  0  0  0  0
 19 24  2  0  0  0  0
 20 17  1  6  0  0  0
 20 28  1  0  0  0  0
 20 22  1  0  0  0  0
 21 24  1  0  0  0  0
 21 26  1  0  0  0  0
 22 19  1  0  0  0  0
 23 25  1  0  0  0  0
 27 21  2  0  0  0  0
 28 23  1  0  0  0  0
M  END
>  <MODEL>
4

>  <REMARK>
 VINA RESULT:      -7.6      3.003      5.544
  Name = 
  5 active torsions:
  status: ('A' for Active; 'I' for Inactive)
    1  A    between atoms: C_1  and  C_2
    2  A    between atoms: C_2  and  C_3
    3  A    between atoms: C_10  and  C_17
    4  A    between atoms: C_16  and  C_20
    5  A    between atoms: C_17  and  N_27
                            x       y       z     vdW  Elec       q    Type
                         _______ _______ _______ _____ _____    ______ ____

>  <TORSDO>
F 5

$$$$
=
 OpenBabel11052413213D

 28 31  0  0  1  0  0  0  0  0999 V2000
  186.3870  177.8800  138.8880 C   0  0  2  0  0  3  0  0  0  0  0  0
  185.1590  178.9070  140.6110 C   0  0  2  0  0  3  0  0  0  0  0  0
  184.9140  179.5380  139.2980 C   0  0  0  0  0  0  0  0  0  0  0  0
  184.1360  180.5060  139.0940 O   0  0  0  0  0  0  0  0  0  0  0  0
  185.6810  178.9660  138.3220 O   0  0  0  0  0  0  0  0  0  0  0  0
  186.2790  177.9840  140.3710 N   0  0  0  0  0  0  0  0  0  0  0  0
  183.4600  178.6220  142.4130 C   0  0  0  0  0  1  0  0  0  0  0  0
  183.9420  178.1160  141.0670 C   0  0  0  0  0  2  0  0  0  0  0  0
  187.8040  177.7760  138.3140 C   0  0  0  0  0  2  0  0  0  0  0  0
  187.7940  177.1390  136.9310 C   0  0  2  0  0  3  0  0  0  0  0  0
  188.7120  174.9460  136.8500 C   0  0  0  0  0  0  0  0  0  0  0  0
  186.5600  176.2570  136.7890 C   0  0  0  0  0  2  0  0  0  0  0  0
  190.2600  176.7440  136.4310 N   0  0  0  0  0  1  0  0  0  0  0  0
  188.9660  176.2390  136.7530 C   0  0  0  0  0  0  0  0  0  0  0  0
  189.7300  173.8880  136.5950 C   0  0  0  0  0  1  0  0  0  0  0  0
  187.0180  174.5410  137.2130 S   0  0  0  0  0  0  0  0  0  0  0  0
  187.4690  178.6050  140.9660 C   0  0  0  0  0  2  0  0  0  0  0  0
  186.8450  177.7600  143.8010 C   0  0  0  0  0  3  0  0  0  0  0  0
  189.2480  177.7040  144.1280 C   0  0  0  0  0  0  0  0  0  0  0  0
  188.3080  177.5910  141.7550 C   0  0  2  0  0  3  0  0  0  0  0  0
  187.7610  177.8660  146.0360 C   0  0  0  0  0  0  0  0  0  0  0  0
  188.1360  177.7240  143.2570 C   0  0  0  0  0  0  0  0  0  0  0  0
  190.6880  176.9150  142.2600 C   0  0  0  0  0  2  0  0  0  0  0  0
  189.0530  177.7940  145.5100 C   0  0  0  0  0  3  0  0  0  0  0  0
  190.6490  177.6340  143.6010 C   0  0  0  0  0  2  0  0  0  0  0  0
  187.5270  177.9750  147.7670 Cl  0  0  0  0  0  0  0  0  0  0  0  0
  186.6570  177.8390  145.1820 C   0  0  0  0  0  3  0  0  0  0  0  0
  189.7690  177.6340  141.2860 C   0  0  0  0  0  2  0  0  0  0  0  0
  1  9  1  1  0  0  0
  1  6  1  0  0  0  0
  2  8  1  6  0  0  0
  3  2  1  0  0  0  0
  4  3  2  0  0  0  0
  5  1  1  0  0  0  0
  5  3  1  0  0  0  0
  6  2  1  0  0  0  0
  6 17  1  0  0  0  0
  8  7  1  0  0  0  0
 10  9  1  1  0  0  0
 11 16  1  0  0  0  0
 12 10  1  0  0  0  0
 12 16  1  0  0  0  0
 13 14  1  0  0  0  0
 14 11  2  0  0  0  0
 14 10  1  0  0  0  0
 15 11  1  0  0  0  0
 18 27  1  0  0  0  0
 19 24  2  0  0  0  0
 20 17  1  6  0  0  0
 20 22  1  0  0  0  0
 21 26  1  0  0  0  0
 22 18  2  0  0  0  0
 22 19  1  0  0  0  0
 23 25  1  0  0  0  0
 24 21  1  0  0  0  0
 25 19  1  0  0  0  0
 27 21  2  0  0  0  0
 28 20  1  0  0  0  0
 28 23  1  0  0  0  0
M  END
>  <MODEL>
5

>  <REMARK>
 VINA RESULT:      -7.3      2.820      4.946
  Name = 
  5 active torsions:
  status: ('A' for Active; 'I' for Inactive)
    1  A    between atoms: C_1  and  C_2
    2  A    between atoms: C_2  and  C_3
    3  A    between atoms: C_10  and  C_17
    4  A    between atoms: C_16  and  C_20
    5  A    between atoms: C_17  and  N_27
                            x       y       z     vdW  Elec       q    Type
                         _______ _______ _______ _____ _____    ______ ____

>  <TORSDO>
F 5

$$$$
=
 OpenBabel11052413213D

 28 31  0  0  1  0  0  0  0  0999 V2000
  190.4310  177.5100  141.5520 C   0  0  2  0  0  3  0  0  0  0  0  0
  190.3390  176.8310  143.8020 C   0  0  2  0  0  3  0  0  0  0  0  0
  190.1810  175.6960  142.8690 C   0  0  0  0  0  0  0  0  0  0  0  0
  190.0260  174.4950  143.2100 O   0  0  0  0  0  0  0  0  0  0  0  0
  190.1780  176.1190  141.5700 O   0  0  0  0  0  0  0  0  0  0  0  0
  190.2760  178.0230  142.9430 N   0  0  0  0  0  0  0  0  0  0  0  0
  191.5400  176.2650  145.9120 C   0  0  0  0  0  1  0  0  0  0  0  0
  191.6930  176.7780  144.4930 C   0  0  0  0  0  2  0  0  0  0  0  0
  189.6040  178.2140  140.4710 C   0  0  0  0  0  2  0  0  0  0  0  0
  188.8600  177.2080  139.6020 C   0  0  2  0  0  3  0  0  0  0  0  0
  188.1790  178.0490  137.4840 C   0  0  0  0  0  0  0  0  0  0  0  0
  189.8410  176.5480  138.6410 C   0  0  0  0  0  2  0  0  0  0  0  0
  186.5720  178.2740  139.2660 N   0  0  0  0  0  1  0  0  0  0  0  0
  187.8450  177.8890  138.7530 C   0  0  0  0  0  0  0  0  0  0  0  0
  187.2540  178.6080  136.4570 C   0  0  0  0  0  1  0  0  0  0  0  0
  189.7980  177.4500  137.0540 S   0  0  0  0  0  0  0  0  0  0  0  0
  188.9560  178.6280  143.1620 C   0  0  0  0  0  2  0  0  0  0  0  0
  185.9920  178.1150  142.8600 C   0  0  0  0  0  3  0  0  0  0  0  0
  185.8780  178.3740  145.2690 C   0  0  0  0  0  0  0  0  0  0  0  0
  188.1240  177.8320  144.1770 C   0  0  2  0  0  3  0  0  0  0  0  0
  183.8810  178.6280  143.9190 C   0  0  0  0  0  0  0  0  0  0  0  0
  186.6410  178.1490  144.1010 C   0  0  0  0  0  0  0  0  0  0  0  0
  187.7520  177.5030  146.6530 C   0  0  0  0  0  2  0  0  0  0  0  0
  184.5070  178.6300  145.1680 C   0  0  0  0  0  3  0  0  0  0  0  0
  186.5160  178.3900  146.6250 C   0  0  0  0  0  2  0  0  0  0  0  0
  182.1640  178.9470  143.8030 Cl  0  0  0  0  0  0  0  0  0  0  0  0
  184.6210  178.3610  142.7670 C   0  0  0  0  0  3  0  0  0  0  0  0
  188.7230  177.9740  145.5820 C   0  0  0  0  0  2  0  0  0  0  0  0
  1  9  1  6  0  0  0
  1  5  1  0  0  0  0
  1  6  1  0  0  0  0
  2  8  1  6  0  0  0
  3  4  2  0  0  0  0
  3  2  1  0  0  0  0
  5  3  1  0  0  0  0
  6 17  1  0  0  0  0
  6  2  1  0  0  0  0
  8  7  1  0  0  0  0
 10  9  1  6  0  0  0
 11 14  2  0  0  0  0
 12 10  1  0  0  0  0
 14 13  1  0  0  0  0
 14 10  1  0  0  0  0
 15 11  1  0  0  0  0
 16 11  1  0  0  0  0
 16 12  1  0  0  0  0
 18 22  1  0  0  0  0
 19 25  1  0  0  0  0
 20 17  1  6  0  0  0
 20 28  1  0  0  0  0
 21 24  2  0  0  0  0
 22 20  1  0  0  0  0
 22 19  2  0  0  0  0
 24 19  1  0  0  0  0
 25 23  1  0  0  0  0
 26 21  1  0  0  0  0
 27 18  2  0  0  0  0
 27 21  1  0  0  0  0
 28 23  1  0  0  0  0
M  END
>  <MODEL>
6

>  <REMARK>
 VINA RESULT:      -7.2      2.645      4.156
  Name = 
  5 active torsions:
  status: ('A' for Active; 'I' for Inactive)
    1  A    between atoms: C_1  and  C_2
    2  A    between atoms: C_2  and  C_3
    3  A    between atoms: C_10  and  C_17
    4  A    between atoms: C_16  and  C_20
    5  A    between atoms: C_17  and  N_27
                            x       y       z     vdW  Elec       q    Type
                         _______ _______ _______ _____ _____    ______ ____

>  <TORSDO>
F 5

$$$$
=
 OpenBabel11052413213D

 28 31  0  0  1  0  0  0  0  0999 V2000
  187.0070  177.7310  139.3380 C   0  0  2  0  0  3  0  0  0  0  0  0
  185.7060  178.7190  141.0290 C   0  0  2  0  0  3  0  0  0  0  0  0
  185.4060  179.2800  139.6960 C   0  0  0  0  0  0  0  0  0  0  0  0
  184.5520  180.1730  139.4610 O   0  0  0  0  0  0  0  0  0  0  0  0
  186.2130  178.7350  138.7370 O   0  0  0  0  0  0  0  0  0  0  0  0
  186.8960  177.8820  140.8170 N   0  0  0  0  0  0  0  0  0  0  0  0
  183.7790  178.5720  142.6050 C   0  0  0  0  0  1  0  0  0  0  0  0
  184.5580  177.8510  141.5220 C   0  0  0  0  0  2  0  0  0  0  0  0
  188.4250  177.7210  138.7600 C   0  0  0  0  0  2  0  0  0  0  0  0
  188.7970  176.3410  138.2340 C   0  0  2  0  0  3  0  0  0  0  0  0
  189.9910  176.3580  136.1770 C   0  0  0  0  0  0  0  0  0  0  0  0
  190.2200  176.0030  138.6620 C   0  0  0  0  0  2  0  0  0  0  0  0
  187.5930  176.2020  135.9950 N   0  0  0  0  0  1  0  0  0  0  0  0
  188.7990  176.3220  136.7460 C   0  0  0  0  0  0  0  0  0  0  0  0
  190.2020  176.2380  134.7060 C   0  0  0  0  0  1  0  0  0  0  0  0
  191.3590  176.4600  137.3090 S   0  0  0  0  0  0  0  0  0  0  0  0
  188.0330  178.6180  141.3820 C   0  0  0  0  0  2  0  0  0  0  0  0
  187.3200  177.5890  144.1330 C   0  0  0  0  0  3  0  0  0  0  0  0
  189.6710  177.8670  144.6570 C   0  0  0  0  0  0  0  0  0  0  0  0
  188.9480  177.7070  142.2110 C   0  0  2  0  0  3  0  0  0  0  0  0
  188.0320  177.7430  146.4380 C   0  0  0  0  0  0  0  0  0  0  0  0
  188.6400  177.7590  143.6970 C   0  0  0  0  0  0  0  0  0  0  0  0
  191.3540  177.3630  142.8960 C   0  0  0  0  0  2  0  0  0  0  0  0
  189.3580  177.8780  146.0190 C   0  0  0  0  0  3  0  0  0  0  0  0
  191.1050  178.0190  144.2460 C   0  0  0  0  0  2  0  0  0  0  0  0
  187.6490  177.7540  148.1460 Cl  0  0  0  0  0  0  0  0  0  0  0  0
  187.0140  177.5880  145.4950 C   0  0  0  0  0  3  0  0  0  0  0  0
  190.4190  177.9780  141.8670 C   0  0  0  0  0  2  0  0  0  0  0  0
  1  9  1  6  0  0  0
  1  6  1  0  0  0  0
  2  8  1  6  0  0  0
  3  2  1  0  0  0  0
  4  3  2  0  0  0  0
  5  1  1  0  0  0  0
  5  3  1  0  0  0  0
  6  2  1  0  0  0  0
  6 17  1  0  0  0  0
  8  7  1  0  0  0  0
 10 12  1  0  0  0  0
 10  9  1  6  0  0  0
 11 14  2  0  0  0  0
 11 16  1  0  0  0  0
 13 14  1  0  0  0  0
 14 10  1  0  0  0  0
 15 11  1  0  0  0  0
 16 12  1  0  0  0  0
 18 27  1  0  0  0  0
 19 24  2  0  0  0  0
 20 17  1  6  0  0  0
 20 22  1  0  0  0  0
 21 26  1  0  0  0  0
 22 18  2  0  0  0  0
 22 19  1  0  0  0  0
 23 25  1  0  0  0  0
 24 21  1  0  0  0  0
 25 19  1  0  0  0  0
 27 21  2  0  0  0  0
 28 20  1  0  0  0  0
 28 23  1  0  0  0  0
M  END
>  <MODEL>
7

>  <REMARK>
 VINA RESULT:      -7.2      2.788      4.863
  Name = 
  5 active torsions:
  status: ('A' for Active; 'I' for Inactive)
    1  A    between atoms: C_1  and  C_2
    2  A    between atoms: C_2  and  C_3
    3  A    between atoms: C_10  and  C_17
    4  A    between atoms: C_16  and  C_20
    5  A    between atoms: C_17  and  N_27
                            x       y       z     vdW  Elec       q    Type
                         _______ _______ _______ _____ _____    ______ ____

>  <TORSDO>
F 5

$$$$
=
 OpenBabel11052413213D

 28 31  0  0  1  0  0  0  0  0999 V2000
  189.4250  177.8590  138.2230 C   0  0  2  0  0  3  0  0  0  0  0  0
  190.6970  176.7870  139.8860 C   0  0  2  0  0  3  0  0  0  0  0  0
  190.8090  176.1130  138.5760 C   0  0  0  0  0  0  0  0  0  0  0  0
  191.5060  175.0920  138.3450 O   0  0  0  0  0  0  0  0  0  0  0  0
  190.0180  176.7160  137.6390 O   0  0  0  0  0  0  0  0  0  0  0  0
  189.6270  177.7780  139.6970 N   0  0  0  0  0  0  0  0  0  0  0  0
  192.2000  177.5030  141.7420 C   0  0  0  0  0  1  0  0  0  0  0  0
  191.9910  177.5030  140.2400 C   0  0  0  0  0  2  0  0  0  0  0  0
  187.9830  178.0460  137.7420 C   0  0  0  0  0  2  0  0  0  0  0  0
  187.6810  177.1610  136.5400 C   0  0  2  0  0  3  0  0  0  0  0  0
  185.6080  176.0020  136.6650 C   0  0  0  0  0  0  0  0  0  0  0  0
  186.8030  177.9250  135.5570 C   0  0  0  0  0  2  0  0  0  0  0  0
  187.5200  174.8230  137.5370 N   0  0  0  0  0  1  0  0  0  0  0  0
  186.8980  175.9620  136.9470 C   0  0  0  0  0  0  0  0  0  0  0  0
  184.6820  174.8560  136.8940 C   0  0  0  0  0  1  0  0  0  0  0  0
  185.0570  177.5040  135.8860 S   0  0  0  0  0  0  0  0  0  0  0  0
  188.4420  177.2530  140.3870 C   0  0  0  0  0  2  0  0  0  0  0  0
  189.2760  177.4730  143.2830 C   0  0  0  0  0  3  0  0  0  0  0  0
  186.9460  177.9700  143.7370 C   0  0  0  0  0  0  0  0  0  0  0  0
  187.8490  178.2750  141.3660 C   0  0  2  0  0  3  0  0  0  0  0  0
  188.3950  177.1930  145.5170 C   0  0  0  0  0  0  0  0  0  0  0  0
  188.0140  177.8640  142.8180 C   0  0  0  0  0  0  0  0  0  0  0  0
  185.6750  179.3360  142.0910 C   0  0  0  0  0  2  0  0  0  0  0  0
  187.1390  177.6160  145.0750 C   0  0  0  0  0  3  0  0  0  0  0  0
  185.5830  178.4140  143.2980 C   0  0  0  0  0  2  0  0  0  0  0  0
  188.6290  176.7550  147.1960 Cl  0  0  0  0  0  0  0  0  0  0  0  0
  189.4660  177.1320  144.6240 C   0  0  0  0  0  3  0  0  0  0  0  0
  186.4060  178.6120  140.9710 C   0  0  0  0  0  2  0  0  0  0  0  0
  1  9  1  1  0  0  0
  1  6  1  0  0  0  0
  2  8  1  6  0  0  0
  3  2  1  0  0  0  0
  4  3  2  0  0  0  0
  5  1  1  0  0  0  0
  5  3  1  0  0  0  0
  6  2  1  0  0  0  0
  6 17  1  0  0  0  0
  8  7  1  0  0  0  0
 10 14  1  0  0  0  0
 10  9  1  1  0  0  0
 11 15  1  0  0  0  0
 11 14  2  0  0  0  0
 12 16  1  0  0  0  0
 12 10  1  0  0  0  0
 14 13  1  0  0  0  0
 16 11  1  0  0  0  0
 18 27  1  0  0  0  0
 19 24  2  0  0  0  0
 20 17  1  6  0  0  0
 20 22  1  0  0  0  0
 21 26  1  0  0  0  0
 22 18  2  0  0  0  0
 22 19  1  0  0  0  0
 23 25  1  0  0  0  0
 24 21  1  0  0  0  0
 25 19  1  0  0  0  0
 27 21  2  0  0  0  0
 28 20  1  0  0  0  0
 28 23  1  0  0  0  0
M  END
>  <MODEL>
8

>  <REMARK>
 VINA RESULT:      -7.1      2.704      3.963
  Name = 
  5 active torsions:
  status: ('A' for Active; 'I' for Inactive)
    1  A    between atoms: C_1  and  C_2
    2  A    between atoms: C_2  and  C_3
    3  A    between atoms: C_10  and  C_17
    4  A    between atoms: C_16  and  C_20
    5  A    between atoms: C_17  and  N_27
                            x       y       z     vdW  Elec       q    Type
                         _______ _______ _______ _____ _____    ______ ____

>  <TORSDO>
F 5

$$$$
=
 OpenBabel11052413213D

 28 31  0  0  1  0  0  0  0  0999 V2000
  187.8130  178.1890  139.6810 C   0  0  2  0  0  3  0  0  0  0  0  0
  189.7640  177.0570  140.3480 C   0  0  2  0  0  3  0  0  0  0  0  0
  189.2860  176.6120  139.0230 C   0  0  0  0  0  0  0  0  0  0  0  0
  189.8430  175.7410  138.3070 O   0  0  0  0  0  0  0  0  0  0  0  0
  188.1200  177.2390  138.6810 O   0  0  0  0  0  0  0  0  0  0  0  0
  188.6830  177.9130  140.8600 N   0  0  0  0  0  0  0  0  0  0  0  0
  192.0570  177.4370  141.2490 C   0  0  0  0  0  1  0  0  0  0  0  0
  191.0380  177.8780  140.2170 C   0  0  0  0  0  2  0  0  0  0  0  0
  186.3060  178.2520  139.9470 C   0  0  0  0  0  2  0  0  0  0  0  0
  185.5430  178.6900  138.7040 C   0  0  2  0  0  3  0  0  0  0  0  0
  183.5580  177.4520  138.2770 C   0  0  0  0  0  0  0  0  0  0  0  0
  184.4410  179.6640  139.1030 C   0  0  0  0  0  2  0  0  0  0  0  0
  185.5590  176.6190  137.2230 N   0  0  0  0  0  1  0  0  0  0  0  0
  184.8600  177.5330  138.0640 C   0  0  0  0  0  0  0  0  0  0  0  0
  182.6840  176.4300  137.6340 C   0  0  0  0  0  1  0  0  0  0  0  0
  182.8880  178.7270  139.3200 S   0  0  0  0  0  0  0  0  0  0  0  0
  187.9820  177.1340  141.8890 C   0  0  0  0  0  2  0  0  0  0  0  0
  190.0240  177.5910  144.0700 C   0  0  0  0  0  3  0  0  0  0  0  0
  188.1560  177.4480  145.6100 C   0  0  0  0  0  0  0  0  0  0  0  0
  187.7080  177.9660  143.1480 C   0  0  2  0  0  3  0  0  0  0  0  0
  190.4190  177.1020  146.4050 C   0  0  0  0  0  0  0  0  0  0  0  0
  188.6420  177.6260  144.2950 C   0  0  0  0  0  0  0  0  0  0  0  0
  185.9670  178.4090  144.9230 C   0  0  0  0  0  2  0  0  0  0  0  0
  189.0450  177.1690  146.6510 C   0  0  0  0  0  3  0  0  0  0  0  0
  186.6880  177.5060  145.9120 C   0  0  0  0  0  2  0  0  0  0  0  0
  191.5260  176.7550  147.7150 Cl  0  0  0  0  0  0  0  0  0  0  0  0
  190.9090  177.3240  145.1170 C   0  0  0  0  0  3  0  0  0  0  0  0
  186.2190  177.9000  143.5120 C   0  0  0  0  0  2  0  0  0  0  0  0
  1  9  1  1  0  0  0
  1  6  1  0  0  0  0
  2  8  1  6  0  0  0
  2  6  1  0  0  0  0
  3  2  1  0  0  0  0
  4  3  2  0  0  0  0
  5  3  1  0  0  0  0
  5  1  1  0  0  0  0
  6 17  1  0  0  0  0
  8  7  1  0  0  0  0
 10 12  1  0  0  0  0
 10  9  1  1  0  0  0
 11 16  1  0  0  0  0
 12 16  1  0  0  0  0
 13 14  1  0  0  0  0
 14 11  2  0  0  0  0
 14 10  1  0  0  0  0
 15 11  1  0  0  0  0
 18 22  2  0  0  0  0
 18 27  1  0  0  0  0
 19 25  1  0  0  0  0
 19 24  2  0  0  0  0
 20 17  1  6  0  0  0
 20 28  1  0  0  0  0
 20 22  1  0  0  0  0
 21 24  1  0  0  0  0
 21 26  1  0  0  0  0
 22 19  1  0  0  0  0
 23 25  1  0  0  0  0
 27 21  2  0  0  0  0
 28 23  1  0  0  0  0
M  END
>  <MODEL>
9

>  <REMARK>
 VINA RESULT:      -7.0      1.928      2.946
  Name = 
  5 active torsions:
  status: ('A' for Active; 'I' for Inactive)
    1  A    between atoms: C_1  and  C_2
    2  A    between atoms: C_2  and  C_3
    3  A    between atoms: C_10  and  C_17
    4  A    between atoms: C_16  and  C_20
    5  A    between atoms: C_17  and  N_27
                            x       y       z     vdW  Elec       q    Type
                         _______ _______ _______ _____ _____    ______ ____

>  <TORSDO>
F 5

$$$$
