=
 OpenBabel11052412403D

 25 28  0  0  1  0  0  0  0  0999 V2000
  187.4740  177.8900  145.4850 C   0  0  0  0  0  0  0  0  0  0  0  0
  188.7880  177.5390  145.1160 C   0  0  0  0  0  0  0  0  0  0  0  0
  188.0880  177.8870  147.8480 C   0  0  0  0  0  3  0  0  0  0  0  0
  186.3620  178.1090  144.6510 C   0  0  0  0  0  0  0  0  0  0  0  0
  183.9450  178.6300  143.4000 C   0  0  0  0  0  3  0  0  0  0  0  0
  189.3950  177.5340  147.4920 C   0  0  0  0  0  3  0  0  0  0  0  0
  185.2180  178.4410  145.3660 C   0  0  0  0  0  0  0  0  0  0  0  0
  184.0330  178.6980  144.7590 N   0  0  0  0  0  0  0  0  0  0  0  0
  191.1300  177.0040  145.7650 C   0  0  0  0  0  0  0  0  0  0  0  0
  191.9720  176.6630  146.6360 O   0  0  0  0  0  0  0  0  0  0  0  0
  189.1610  177.2530  143.6840 C   0  0  0  0  0  2  0  0  0  0  0  0
  185.0740  178.3000  142.6270 C   0  0  0  0  0  3  0  0  0  0  0  0
  187.1510  178.0610  146.8340 C   0  0  0  0  0  0  0  0  0  0  0  0
  185.5250  178.4760  147.0210 S   0  0  0  0  0  0  0  0  0  0  0  0
  191.5030  177.0330  144.3860 N   0  0  0  0  0  2  0  0  0  0  0  0
  186.2980  178.0360  143.2590 C   0  0  0  0  0  3  0  0  0  0  0  0
  190.6150  177.6450  143.4010 C   0  0  1  0  0  3  0  0  0  0  0  0
  189.7490  177.3590  146.1400 C   0  0  0  0  0  0  0  0  0  0  0  0
  191.0240  177.2110  142.0070 C   0  0  0  0  0  2  0  0  0  0  0  0
  189.8010  176.8270  141.1920 C   0  0  0  0  0  2  0  0  0  0  0  0
  189.8730  177.4470  139.8380 C   0  0  0  0  0  0  0  0  0  0  0  0
  190.8650  177.1580  139.0610 N   0  0  0  0  0  2  0  0  0  0  0  0
  188.8740  178.4430  139.4230 C   0  0  0  0  0  0  0  0  0  0  0  0
  189.0600  179.1750  138.2560 O   0  0  0  0  0  0  0  0  0  0  0  0
  187.8450  178.6420  140.1200 O   0  0  0  0  0  1  0  0  0  0  0  0
  1 13  1  0  0  0  0
  2  1  2  0  0  0  0
  2 18  1  0  0  0  0
  4  7  1  0  0  0  0
  4  1  1  0  0  0  0
  5  8  1  0  0  0  0
  6  3  1  0  0  0  0
  7 14  1  0  0  0  0
  8  7  2  0  0  0  0
  9 18  1  0  0  0  0
  9 10  2  0  0  0  0
 11  2  1  0  0  0  0
 12 16  1  0  0  0  0
 12  5  2  0  0  0  0
 13 14  1  0  0  0  0
 13  3  2  0  0  0  0
 15  9  1  0  0  0  0
 16  4  2  0  0  0  0
 17 19  1  6  0  0  0
 17 11  1  0  0  0  0
 17 15  1  0  0  0  0
 18  6  2  0  0  0  0
 20 19  1  0  0  0  0
 21 20  1  0  0  0  0
 22 21  2  0  0  0  0
 23 21  1  0  0  0  0
 23 25  1  0  0  0  0
 24 23  2  0  0  0  0
M  END
>  <MODEL>
1

>  <REMARK>
 VINA RESULT:     -10.1      0.000      0.000
  Name = 
  4 active torsions:
  status: ('A' for Active; 'I' for Inactive)
    1  A    between atoms: C_2  and  CA_21
    2  A    between atoms: C_6  and  C_15
    3  A    between atoms: C_6  and  C_23
    4  A    between atoms: C_15  and  CA_21
                            x       y       z     vdW  Elec       q    Type
                         _______ _______ _______ _____ _____    ______ ____

>  <TORSDO>
F 4

$$$$
=
 OpenBabel11052412403D

 25 28  0  0  1  0  0  0  0  0999 V2000
  189.3980  177.3250  144.4190 C   0  0  0  0  0  0  0  0  0  0  0  0
  188.4340  177.6700  145.3880 C   0  0  0  0  0  0  0  0  0  0  0  0
  191.0140  176.7640  146.1620 C   0  0  0  0  0  3  0  0  0  0  0  0
  189.2820  177.3650  143.0180 C   0  0  0  0  0  0  0  0  0  0  0  0
  189.4830  177.2830  140.2550 C   0  0  0  0  0  3  0  0  0  0  0  0
  190.0640  177.1090  147.1320 C   0  0  0  0  0  3  0  0  0  0  0  0
  190.4420  176.9520  142.3750 C   0  0  0  0  0  0  0  0  0  0  0  0
  190.5470  176.9100  141.0240 N   0  0  0  0  0  0  0  0  0  0  0  0
  187.7790  177.9030  147.7770 C   0  0  0  0  0  0  0  0  0  0  0  0
  188.0920  177.9910  148.9930 O   0  0  0  0  0  0  0  0  0  0  0  0
  187.0940  178.2440  145.0050 C   0  0  0  0  0  2  0  0  0  0  0  0
  188.2840  177.7090  140.8550 C   0  0  0  0  0  3  0  0  0  0  0  0
  190.6600  176.8780  144.8210 C   0  0  0  0  0  0  0  0  0  0  0  0
  191.6340  176.5310  143.4860 S   0  0  0  0  0  0  0  0  0  0  0  0
  186.4340  178.1600  147.3670 N   0  0  0  0  0  2  0  0  0  0  0  0
  188.1790  177.7510  142.2530 C   0  0  0  0  0  3  0  0  0  0  0  0
  186.0100  177.8380  146.0080 C   0  0  1  0  0  3  0  0  0  0  0  0
  188.7840  177.5590  146.7550 C   0  0  0  0  0  0  0  0  0  0  0  0
  184.7040  178.5460  145.7000 C   0  0  0  0  0  2  0  0  0  0  0  0
  184.8680  179.4550  144.4950 C   0  0  0  0  0  2  0  0  0  0  0  0
  183.8830  179.0870  143.4370 C   0  0  0  0  0  0  0  0  0  0  0  0
  182.6330  178.9740  143.7480 N   0  0  0  0  0  2  0  0  0  0  0  0
  184.3380  178.7680  142.0760 C   0  0  0  0  0  0  0  0  0  0  0  0
  185.2500  179.5960  141.4330 O   0  0  0  0  0  0  0  0  0  0  0  0
  183.9050  177.7460  141.4820 O   0  0  0  0  0  1  0  0  0  0  0  0
  1 13  1  0  0  0  0
  1  2  2  0  0  0  0
  2 18  1  0  0  0  0
  3  6  1  0  0  0  0
  4  1  1  0  0  0  0
  5 12  2  0  0  0  0
  5  8  1  0  0  0  0
  7  4  1  0  0  0  0
  7 14  1  0  0  0  0
  8  7  2  0  0  0  0
  9 10  2  0  0  0  0
 11  2  1  0  0  0  0
 11 17  1  0  0  0  0
 12 16  1  0  0  0  0
 13  3  2  0  0  0  0
 14 13  1  0  0  0  0
 15  9  1  0  0  0  0
 16  4  2  0  0  0  0
 17 19  1  6  0  0  0
 17 15  1  0  0  0  0
 18  6  2  0  0  0  0
 18  9  1  0  0  0  0
 20 19  1  0  0  0  0
 21 22  2  0  0  0  0
 21 20  1  0  0  0  0
 23 21  1  0  0  0  0
 24 23  2  0  0  0  0
 25 23  1  0  0  0  0
M  END
>  <MODEL>
2

>  <REMARK>
 VINA RESULT:      -9.5      2.419      5.231
  Name = 
  4 active torsions:
  status: ('A' for Active; 'I' for Inactive)
    1  A    between atoms: C_2  and  CA_21
    2  A    between atoms: C_6  and  C_15
    3  A    between atoms: C_6  and  C_23
    4  A    between atoms: C_15  and  CA_21
                            x       y       z     vdW  Elec       q    Type
                         _______ _______ _______ _____ _____    ______ ____

>  <TORSDO>
F 4

$$$$
=
 OpenBabel11052412403D

 25 28  0  0  1  0  0  0  0  0999 V2000
  187.1810  177.8800  145.1250 C   0  0  0  0  0  0  0  0  0  0  0  0
  188.2700  177.4660  144.3330 C   0  0  0  0  0  0  0  0  0  0  0  0
  188.5020  177.6150  147.1610 C   0  0  0  0  0  3  0  0  0  0  0  0
  185.8910  178.2570  144.7080 C   0  0  0  0  0  0  0  0  0  0  0  0
  183.2690  179.0720  144.3330 C   0  0  0  0  0  3  0  0  0  0  0  0
  189.5890  177.1970  146.3830 C   0  0  0  0  0  3  0  0  0  0  0  0
  185.0690  178.6080  145.7710 C   0  0  0  0  0  0  0  0  0  0  0  0
  183.7850  179.0080  145.5940 N   0  0  0  0  0  0  0  0  0  0  0  0
  190.6320  176.6990  144.1620 C   0  0  0  0  0  0  0  0  0  0  0  0
  191.6660  176.2170  144.6940 O   0  0  0  0  0  0  0  0  0  0  0  0
  188.1450  177.2850  142.8420 C   0  0  0  0  0  2  0  0  0  0  0  0
  184.0590  178.7290  143.2200 C   0  0  0  0  0  3  0  0  0  0  0  0
  187.3160  177.9500  146.5140 C   0  0  0  0  0  0  0  0  0  0  0  0
  185.8820  178.4680  147.2390 S   0  0  0  0  0  0  0  0  0  0  0  0
  190.5540  176.8260  142.7400 N   0  0  0  0  0  2  0  0  0  0  0  0
  185.3870  178.3170  143.4070 C   0  0  0  0  0  3  0  0  0  0  0  0
  189.4680  177.5900  142.1330 C   0  0  1  0  0  3  0  0  0  0  0  0
  189.4810  177.1210  144.9810 C   0  0  0  0  0  0  0  0  0  0  0  0
  189.3740  177.2570  140.6560 C   0  0  0  0  0  2  0  0  0  0  0  0
  188.3720  178.1710  139.9720 C   0  0  0  0  0  2  0  0  0  0  0  0
  188.5740  178.1350  138.4940 C   0  0  0  0  0  0  0  0  0  0  0  0
  188.9280  179.2140  137.8780 N   0  0  0  0  0  2  0  0  0  0  0  0
  188.2880  176.9090  137.7350 C   0  0  0  0  0  0  0  0  0  0  0  0
  189.3280  176.0960  137.3030 O   0  0  0  0  0  0  0  0  0  0  0  0
  187.1000  176.5870  137.4680 O   0  0  0  0  0  1  0  0  0  0  0  0
  1 13  2  0  0  0  0
  2 18  2  0  0  0  0
  2  1  1  0  0  0  0
  4  1  1  0  0  0  0
  4  7  1  0  0  0  0
  5  8  1  0  0  0  0
  6  3  2  0  0  0  0
  7 14  1  0  0  0  0
  8  7  2  0  0  0  0
  9 10  2  0  0  0  0
  9 18  1  0  0  0  0
 11  2  1  0  0  0  0
 12 16  1  0  0  0  0
 12  5  2  0  0  0  0
 13  3  1  0  0  0  0
 13 14  1  0  0  0  0
 15  9  1  0  0  0  0
 16  4  2  0  0  0  0
 17 19  1  6  0  0  0
 17 15  1  0  0  0  0
 17 11  1  0  0  0  0
 18  6  1  0  0  0  0
 20 19  1  0  0  0  0
 21 20  1  0  0  0  0
 22 21  2  0  0  0  0
 23 21  1  0  0  0  0
 24 23  2  0  0  0  0
 25 23  1  0  0  0  0
M  END
>  <MODEL>
3

>  <REMARK>
 VINA RESULT:      -9.5      1.522      1.751
  Name = 
  4 active torsions:
  status: ('A' for Active; 'I' for Inactive)
    1  A    between atoms: C_2  and  CA_21
    2  A    between atoms: C_6  and  C_15
    3  A    between atoms: C_6  and  C_23
    4  A    between atoms: C_15  and  CA_21
                            x       y       z     vdW  Elec       q    Type
                         _______ _______ _______ _____ _____    ______ ____

>  <TORSDO>
F 4

$$$$
=
 OpenBabel11052412403D

 25 28  0  0  1  0  0  0  0  0999 V2000
  187.2990  177.8150  145.0450 C   0  0  0  0  0  0  0  0  0  0  0  0
  188.3840  177.3530  144.2740 C   0  0  0  0  0  0  0  0  0  0  0  0
  188.6050  177.5960  147.0960 C   0  0  0  0  0  3  0  0  0  0  0  0
  186.0190  178.2030  144.6080 C   0  0  0  0  0  0  0  0  0  0  0  0
  183.4150  179.0540  144.1910 C   0  0  0  0  0  3  0  0  0  0  0  0
  189.6880  177.1310  146.3390 C   0  0  0  0  0  3  0  0  0  0  0  0
  185.1990  178.6060  145.6540 C   0  0  0  0  0  0  0  0  0  0  0  0
  183.9240  179.0240  145.4570 N   0  0  0  0  0  0  0  0  0  0  0  0
  190.7310  176.5350  144.1410 C   0  0  0  0  0  0  0  0  0  0  0  0
  191.7530  176.0520  144.6950 O   0  0  0  0  0  0  0  0  0  0  0  0
  188.2620  177.1230  142.7890 C   0  0  0  0  0  2  0  0  0  0  0  0
  184.2030  178.6580  143.0960 C   0  0  0  0  0  3  0  0  0  0  0  0
  187.4300  177.9310  146.4310 C   0  0  0  0  0  0  0  0  0  0  0  0
  186.0020  178.5020  147.1300 S   0  0  0  0  0  0  0  0  0  0  0  0
  190.6610  176.6140  142.7160 N   0  0  0  0  0  2  0  0  0  0  0  0
  185.5210  178.2270  143.3040 C   0  0  0  0  0  3  0  0  0  0  0  0
  189.5940  177.3770  142.0770 C   0  0  1  0  0  3  0  0  0  0  0  0
  189.5850  177.0070  144.9390 C   0  0  0  0  0  0  0  0  0  0  0  0
  189.4990  176.9940  140.6120 C   0  0  0  0  0  2  0  0  0  0  0  0
  190.6550  177.5970  139.8330 C   0  0  0  0  0  2  0  0  0  0  0  0
  191.2610  176.5690  138.9390 C   0  0  0  0  0  0  0  0  0  0  0  0
  190.5280  175.5960  138.5050 N   0  0  0  0  0  2  0  0  0  0  0  0
  192.6970  176.6100  138.6250 C   0  0  0  0  0  0  0  0  0  0  0  0
  193.5960  177.1520  139.5360 O   0  0  0  0  0  1  0  0  0  0  0  0
  193.1230  176.1580  137.5300 O   0  0  0  0  0  0  0  0  0  0  0  0
  1 13  2  0  0  0  0
  2 18  2  0  0  0  0
  2  1  1  0  0  0  0
  4  1  1  0  0  0  0
  4  7  1  0  0  0  0
  5  8  1  0  0  0  0
  6  3  2  0  0  0  0
  7 14  1  0  0  0  0
  8  7  2  0  0  0  0
  9 10  2  0  0  0  0
  9 18  1  0  0  0  0
 11  2  1  0  0  0  0
 12 16  1  0  0  0  0
 12  5  2  0  0  0  0
 13  3  1  0  0  0  0
 13 14  1  0  0  0  0
 15  9  1  0  0  0  0
 16  4  2  0  0  0  0
 17 19  1  6  0  0  0
 17 15  1  0  0  0  0
 17 11  1  0  0  0  0
 18  6  1  0  0  0  0
 20 19  1  0  0  0  0
 21 20  1  0  0  0  0
 22 21  2  0  0  0  0
 23 21  1  0  0  0  0
 23 24  1  0  0  0  0
 25 23  2  0  0  0  0
M  END
>  <MODEL>
4

>  <REMARK>
 VINA RESULT:      -9.5      1.902      2.230
  Name = 
  4 active torsions:
  status: ('A' for Active; 'I' for Inactive)
    1  A    between atoms: C_2  and  CA_21
    2  A    between atoms: C_6  and  C_15
    3  A    between atoms: C_6  and  C_23
    4  A    between atoms: C_15  and  CA_21
                            x       y       z     vdW  Elec       q    Type
                         _______ _______ _______ _____ _____    ______ ____

>  <TORSDO>
F 4

$$$$
=
 OpenBabel11052412403D

 25 28  0  0  1  0  0  0  0  0999 V2000
  186.8160  178.1750  143.0840 C   0  0  0  0  0  0  0  0  0  0  0  0
  186.7860  177.9260  144.4710 C   0  0  0  0  0  0  0  0  0  0  0  0
  184.6100  179.2170  143.1780 C   0  0  0  0  0  3  0  0  0  0  0  0
  187.8300  177.8570  142.1620 C   0  0  0  0  0  0  0  0  0  0  0  0
  189.5520  177.4310  140.0330 C   0  0  0  0  0  3  0  0  0  0  0  0
  184.5690  178.9700  144.5550 C   0  0  0  0  0  3  0  0  0  0  0  0
  187.5160  178.2550  140.8680 C   0  0  0  0  0  0  0  0  0  0  0  0
  188.3550  178.0500  139.8230 N   0  0  0  0  0  0  0  0  0  0  0  0
  185.6060  178.0860  146.6560 C   0  0  0  0  0  0  0  0  0  0  0  0
  184.5500  178.2640  147.3180 O   0  0  0  0  0  0  0  0  0  0  0  0
  187.8820  177.1570  145.1640 C   0  0  0  0  0  2  0  0  0  0  0  0
  189.9210  177.0100  141.3240 C   0  0  0  0  0  3  0  0  0  0  0  0
  185.7370  178.8150  142.4680 C   0  0  0  0  0  0  0  0  0  0  0  0
  186.0060  178.9980  140.8110 S   0  0  0  0  0  0  0  0  0  0  0  0
  186.7890  177.6230  147.3110 N   0  0  0  0  0  2  0  0  0  0  0  0
  189.0500  177.2240  142.4030 C   0  0  0  0  0  3  0  0  0  0  0  0
  188.0670  177.6350  146.6070 C   0  0  1  0  0  3  0  0  0  0  0  0
  185.6430  178.3300  145.2030 C   0  0  0  0  0  0  0  0  0  0  0  0
  189.0620  176.7540  147.3390 C   0  0  0  0  0  2  0  0  0  0  0  0
  190.3990  177.4620  147.4700 C   0  0  0  0  0  2  0  0  0  0  0  0
  191.4400  176.7400  146.6840 C   0  0  0  0  0  0  0  0  0  0  0  0
  192.2880  175.9840  147.3020 N   0  0  0  0  0  2  0  0  0  0  0  0
  191.5570  176.9520  145.2340 C   0  0  0  0  0  0  0  0  0  0  0  0
  191.5300  178.2400  144.7120 O   0  0  0  0  0  1  0  0  0  0  0  0
  191.6810  175.9710  144.4550 O   0  0  0  0  0  0  0  0  0  0  0  0
  1  2  2  0  0  0  0
  2 11  1  0  0  0  0
  2 18  1  0  0  0  0
  3  6  1  0  0  0  0
  4 16  1  0  0  0  0
  4  1  1  0  0  0  0
  5 12  1  0  0  0  0
  6 18  2  0  0  0  0
  7  4  2  0  0  0  0
  8  5  2  0  0  0  0
  8  7  1  0  0  0  0
  9 15  1  0  0  0  0
  9 10  2  0  0  0  0
 11 17  1  0  0  0  0
 12 16  2  0  0  0  0
 13  1  1  0  0  0  0
 13  3  2  0  0  0  0
 14  7  1  0  0  0  0
 14 13  1  0  0  0  0
 17 15  1  0  0  0  0
 17 19  1  1  0  0  0
 18  9  1  0  0  0  0
 19 20  1  0  0  0  0
 21 22  2  0  0  0  0
 21 20  1  0  0  0  0
 23 21  1  0  0  0  0
 24 23  1  0  0  0  0
 25 23  2  0  0  0  0
M  END
>  <MODEL>
5

>  <REMARK>
 VINA RESULT:      -9.2      2.686      5.607
  Name = 
  4 active torsions:
  status: ('A' for Active; 'I' for Inactive)
    1  A    between atoms: C_2  and  CA_21
    2  A    between atoms: C_6  and  C_15
    3  A    between atoms: C_6  and  C_23
    4  A    between atoms: C_15  and  CA_21
                            x       y       z     vdW  Elec       q    Type
                         _______ _______ _______ _____ _____    ______ ____

>  <TORSDO>
F 4

$$$$
=
 OpenBabel11052412403D

 25 28  0  0  1  0  0  0  0  0999 V2000
  187.7760  177.8210  145.6910 C   0  0  0  0  0  0  0  0  0  0  0  0
  187.0430  178.2350  144.5610 C   0  0  0  0  0  0  0  0  0  0  0  0
  185.8430  178.1890  147.1360 C   0  0  0  0  0  3  0  0  0  0  0  0
  189.1160  177.3970  145.7550 C   0  0  0  0  0  0  0  0  0  0  0  0
  191.6760  176.5050  146.3300 C   0  0  0  0  0  3  0  0  0  0  0  0
  185.1080  178.6070  146.0200 C   0  0  0  0  0  3  0  0  0  0  0  0
  189.5080  177.0630  147.0450 C   0  0  0  0  0  0  0  0  0  0  0  0
  190.7580  176.6250  147.3330 N   0  0  0  0  0  0  0  0  0  0  0  0
  184.9150  179.0550  143.5640 C   0  0  0  0  0  0  0  0  0  0  0  0
  183.7790  179.5810  143.6930 O   0  0  0  0  0  0  0  0  0  0  0  0
  187.6820  178.3610  143.2010 C   0  0  0  0  0  2  0  0  0  0  0  0
  191.3310  176.8290  145.0050 C   0  0  0  0  0  3  0  0  0  0  0  0
  187.1670  177.8020  146.9480 C   0  0  0  0  0  0  0  0  0  0  0  0
  188.2430  177.2730  148.1360 S   0  0  0  0  0  0  0  0  0  0  0  0
  185.4750  178.8770  142.2610 N   0  0  0  0  0  2  0  0  0  0  0  0
  190.0370  177.2800  144.7110 C   0  0  0  0  0  3  0  0  0  0  0  0
  186.6750  178.0660  142.0860 C   0  0  1  0  0  3  0  0  0  0  0  0
  185.6960  178.6330  144.7410 C   0  0  0  0  0  0  0  0  0  0  0  0
  187.2860  178.3460  140.7260 C   0  0  0  0  0  2  0  0  0  0  0  0
  188.7580  177.9720  140.7210 C   0  0  0  0  0  2  0  0  0  0  0  0
  189.3080  178.0760  139.3380 C   0  0  0  0  0  0  0  0  0  0  0  0
  188.8850  179.0160  138.5580 N   0  0  0  0  0  2  0  0  0  0  0  0
  190.2540  177.0680  138.8370 C   0  0  0  0  0  0  0  0  0  0  0  0
  190.6040  175.9830  139.6310 O   0  0  0  0  0  1  0  0  0  0  0  0
  190.7550  177.1810  137.6880 O   0  0  0  0  0  0  0  0  0  0  0  0
  1  4  1  0  0  0  0
  1 13  2  0  0  0  0
  2 18  2  0  0  0  0
  2  1  1  0  0  0  0
  4  7  1  0  0  0  0
  5  8  1  0  0  0  0
  6  3  2  0  0  0  0
  7  8  2  0  0  0  0
  7 14  1  0  0  0  0
  9 10  2  0  0  0  0
  9 18  1  0  0  0  0
 11  2  1  0  0  0  0
 12  5  2  0  0  0  0
 13  3  1  0  0  0  0
 13 14  1  0  0  0  0
 15  9  1  0  0  0  0
 16 12  1  0  0  0  0
 16  4  2  0  0  0  0
 17 19  1  6  0  0  0
 17 15  1  0  0  0  0
 17 11  1  0  0  0  0
 18  6  1  0  0  0  0
 20 19  1  0  0  0  0
 21 20  1  0  0  0  0
 22 21  2  0  0  0  0
 23 21  1  0  0  0  0
 23 24  1  0  0  0  0
 25 23  2  0  0  0  0
M  END
>  <MODEL>
6

>  <REMARK>
 VINA RESULT:      -9.1      2.310      4.678
  Name = 
  4 active torsions:
  status: ('A' for Active; 'I' for Inactive)
    1  A    between atoms: C_2  and  CA_21
    2  A    between atoms: C_6  and  C_15
    3  A    between atoms: C_6  and  C_23
    4  A    between atoms: C_15  and  CA_21
                            x       y       z     vdW  Elec       q    Type
                         _______ _______ _______ _____ _____    ______ ____

>  <TORSDO>
F 4

$$$$
=
 OpenBabel11052412403D

 25 28  0  0  1  0  0  0  0  0999 V2000
  187.8540  177.6890  143.7120 C   0  0  0  0  0  0  0  0  0  0  0  0
  186.5100  178.1120  143.7490 C   0  0  0  0  0  0  0  0  0  0  0  0
  187.9160  177.5210  146.1470 C   0  0  0  0  0  3  0  0  0  0  0  0
  188.6790  177.5020  142.5880 C   0  0  0  0  0  0  0  0  0  0  0  0
  190.6260  177.0040  140.6800 C   0  0  0  0  0  3  0  0  0  0  0  0
  186.5820  177.9450  146.1950 C   0  0  0  0  0  3  0  0  0  0  0  0
  189.9570  177.0760  142.9310 C   0  0  0  0  0  0  0  0  0  0  0  0
  190.9130  176.8300  142.0020 N   0  0  0  0  0  0  0  0  0  0  0  0
  184.4700  178.6690  145.0610 C   0  0  0  0  0  0  0  0  0  0  0  0
  183.9200  178.9660  146.1540 O   0  0  0  0  0  0  0  0  0  0  0  0
  185.7720  178.5240  142.5010 C   0  0  0  0  0  2  0  0  0  0  0  0
  189.3480  177.4330  140.2770 C   0  0  0  0  0  3  0  0  0  0  0  0
  188.5260  177.3990  144.9020 C   0  0  0  0  0  0  0  0  0  0  0  0
  190.1160  176.9170  144.5990 S   0  0  0  0  0  0  0  0  0  0  0  0
  183.7300  178.7630  143.8410 N   0  0  0  0  0  2  0  0  0  0  0  0
  188.3610  177.6850  141.2410 C   0  0  0  0  0  3  0  0  0  0  0  0
  184.2780  178.2050  142.6090 C   0  0  1  0  0  3  0  0  0  0  0  0
  185.8790  178.2400  145.0100 C   0  0  0  0  0  0  0  0  0  0  0  0
  183.5240  178.7620  141.4170 C   0  0  0  0  0  2  0  0  0  0  0  0
  183.8520  177.9670  140.1650 C   0  0  0  0  0  2  0  0  0  0  0  0
  184.5640  178.8330  139.1810 C   0  0  0  0  0  0  0  0  0  0  0  0
  184.3130  180.1010  139.1550 N   0  0  0  0  0  2  0  0  0  0  0  0
  185.4770  178.2390  138.1940 C   0  0  0  0  0  0  0  0  0  0  0  0
  186.8110  178.6250  138.1540 O   0  0  0  0  0  1  0  0  0  0  0  0
  185.0570  177.3790  137.3750 O   0  0  0  0  0  0  0  0  0  0  0  0
  1  2  2  0  0  0  0
  1 13  1  0  0  0  0
  2 18  1  0  0  0  0
  3  6  1  0  0  0  0
  4  7  1  0  0  0  0
  4  1  1  0  0  0  0
  5  8  1  0  0  0  0
  7 14  1  0  0  0  0
  8  7  2  0  0  0  0
  9 10  2  0  0  0  0
 11 17  1  0  0  0  0
 11  2  1  0  0  0  0
 12  5  2  0  0  0  0
 12 16  1  0  0  0  0
 13  3  2  0  0  0  0
 14 13  1  0  0  0  0
 15  9  1  0  0  0  0
 16  4  2  0  0  0  0
 17 19  1  6  0  0  0
 17 15  1  0  0  0  0
 18  9  1  0  0  0  0
 18  6  2  0  0  0  0
 20 19  1  0  0  0  0
 21 20  1  0  0  0  0
 22 21  2  0  0  0  0
 23 21  1  0  0  0  0
 24 23  1  0  0  0  0
 25 23  2  0  0  0  0
M  END
>  <MODEL>
7

>  <REMARK>
 VINA RESULT:      -9.0      2.784      5.344
  Name = 
  4 active torsions:
  status: ('A' for Active; 'I' for Inactive)
    1  A    between atoms: C_2  and  CA_21
    2  A    between atoms: C_6  and  C_15
    3  A    between atoms: C_6  and  C_23
    4  A    between atoms: C_15  and  CA_21
                            x       y       z     vdW  Elec       q    Type
                         _______ _______ _______ _____ _____    ______ ____

>  <TORSDO>
F 4

$$$$
=
 OpenBabel11052412403D

 25 28  0  0  1  0  0  0  0  0999 V2000
  189.5180  177.4100  144.1710 C   0  0  0  0  0  0  0  0  0  0  0  0
  188.8950  177.6200  142.9250 C   0  0  0  0  0  0  0  0  0  0  0  0
  191.6520  176.9480  143.0770 C   0  0  0  0  0  3  0  0  0  0  0  0
  188.9480  177.4790  145.4550 C   0  0  0  0  0  0  0  0  0  0  0  0
  188.2480  177.5150  148.1360 C   0  0  0  0  0  3  0  0  0  0  0  0
  191.0410  177.1520  141.8340 C   0  0  0  0  0  3  0  0  0  0  0  0
  189.8680  177.2090  146.4610 C   0  0  0  0  0  0  0  0  0  0  0  0
  189.5320  177.2260  147.7750 N   0  0  0  0  0  0  0  0  0  0  0  0
  189.0370  177.7160  140.4420 C   0  0  0  0  0  0  0  0  0  0  0  0
  189.6340  177.4380  139.3700 O   0  0  0  0  0  0  0  0  0  0  0  0
  187.4150  177.8830  142.8110 C   0  0  0  0  0  2  0  0  0  0  0  0
  187.2770  177.7970  147.1580 C   0  0  0  0  0  3  0  0  0  0  0  0
  190.8760  177.0840  144.2240 C   0  0  0  0  0  0  0  0  0  0  0  0
  191.3890  176.8800  145.8200 S   0  0  0  0  0  0  0  0  0  0  0  0
  187.7100  178.2470  140.4020 N   0  0  0  0  0  2  0  0  0  0  0  0
  187.6290  177.7800  145.8010 C   0  0  0  0  0  3  0  0  0  0  0  0
  187.1020  178.7860  141.6150 C   0  0  1  0  0  3  0  0  0  0  0  0
  189.6740  177.4840  141.7510 C   0  0  0  0  0  0  0  0  0  0  0  0
  185.6030  178.9160  141.4200 C   0  0  0  0  0  2  0  0  0  0  0  0
  184.8620  178.1600  142.5080 C   0  0  0  0  0  2  0  0  0  0  0  0
  183.4300  178.5790  142.5380 C   0  0  0  0  0  0  0  0  0  0  0  0
  182.7890  178.7190  141.4240 N   0  0  0  0  0  2  0  0  0  0  0  0
  182.7800  178.9120  143.8130 C   0  0  0  0  0  0  0  0  0  0  0  0
  183.5480  179.1920  144.9370 O   0  0  0  0  0  1  0  0  0  0  0  0
  181.5240  178.9460  143.8980 O   0  0  0  0  0  0  0  0  0  0  0  0
  1 13  2  0  0  0  0
  1  4  1  0  0  0  0
  2  1  1  0  0  0  0
  3 13  1  0  0  0  0
  4 16  2  0  0  0  0
  4  7  1  0  0  0  0
  6  3  2  0  0  0  0
  7  8  2  0  0  0  0
  8  5  1  0  0  0  0
  9 18  1  0  0  0  0
 10  9  2  0  0  0  0
 11  2  1  0  0  0  0
 12  5  2  0  0  0  0
 13 14  1  0  0  0  0
 14  7  1  0  0  0  0
 15  9  1  0  0  0  0
 15 17  1  0  0  0  0
 16 12  1  0  0  0  0
 17 19  1  6  0  0  0
 17 11  1  0  0  0  0
 18  6  1  0  0  0  0
 18  2  2  0  0  0  0
 19 20  1  0  0  0  0
 20 21  1  0  0  0  0
 21 23  1  0  0  0  0
 22 21  2  0  0  0  0
 23 25  2  0  0  0  0
 23 24  1  0  0  0  0
M  END
>  <MODEL>
8

>  <REMARK>
 VINA RESULT:      -9.0      2.808      5.748
  Name = 
  4 active torsions:
  status: ('A' for Active; 'I' for Inactive)
    1  A    between atoms: C_2  and  CA_21
    2  A    between atoms: C_6  and  C_15
    3  A    between atoms: C_6  and  C_23
    4  A    between atoms: C_15  and  CA_21
                            x       y       z     vdW  Elec       q    Type
                         _______ _______ _______ _____ _____    ______ ____

>  <TORSDO>
F 4

$$$$
=
 OpenBabel11052412403D

 25 28  0  0  1  0  0  0  0  0999 V2000
  185.7660  178.5030  142.8770 C   0  0  0  0  0  0  0  0  0  0  0  0
  186.8720  178.3070  142.0250 C   0  0  0  0  0  0  0  0  0  0  0  0
  184.3270  179.0000  140.9690 C   0  0  0  0  0  3  0  0  0  0  0  0
  185.7170  178.4070  144.2800 C   0  0  0  0  0  0  0  0  0  0  0  0
  185.1730  178.3220  146.9960 C   0  0  0  0  0  3  0  0  0  0  0  0
  185.4210  178.8120  140.1140 C   0  0  0  0  0  3  0  0  0  0  0  0
  184.4500  178.6690  144.7870 C   0  0  0  0  0  0  0  0  0  0  0  0
  184.1770  178.6280  146.1140 N   0  0  0  0  0  0  0  0  0  0  0  0
  187.8310  178.2530  139.7300 C   0  0  0  0  0  0  0  0  0  0  0  0
  187.7640  178.5530  138.5090 O   0  0  0  0  0  0  0  0  0  0  0  0
  188.2520  178.0330  142.5660 C   0  0  0  0  0  2  0  0  0  0  0  0
  186.4730  178.0470  146.5360 C   0  0  0  0  0  3  0  0  0  0  0  0
  184.5220  178.8400  142.3370 C   0  0  0  0  0  0  0  0  0  0  0  0
  183.3630  179.0220  143.5510 S   0  0  0  0  0  0  0  0  0  0  0  0
  189.0410  177.7100  140.2650 N   0  0  0  0  0  2  0  0  0  0  0  0
  186.7510  178.0890  145.1620 C   0  0  0  0  0  3  0  0  0  0  0  0
  189.0560  177.1460  141.6110 C   0  0  1  0  0  3  0  0  0  0  0  0
  186.6850  178.4680  140.6310 C   0  0  0  0  0  0  0  0  0  0  0  0
  190.4890  177.0070  142.0890 C   0  0  0  0  0  2  0  0  0  0  0  0
  190.6660  177.6900  143.4340 C   0  0  0  0  0  2  0  0  0  0  0  0
  191.1920  176.7180  144.4360 C   0  0  0  0  0  0  0  0  0  0  0  0
  191.7150  175.6090  144.0270 N   0  0  0  0  0  2  0  0  0  0  0  0
  191.0370  176.9770  145.8750 C   0  0  0  0  0  0  0  0  0  0  0  0
  192.0560  176.6450  146.7580 O   0  0  0  0  0  1  0  0  0  0  0  0
  189.9800  177.5000  146.3170 O   0  0  0  0  0  0  0  0  0  0  0  0
  1  4  1  0  0  0  0
  2 11  1  0  0  0  0
  2  1  1  0  0  0  0
  3 13  1  0  0  0  0
  4  7  2  0  0  0  0
  4 16  1  0  0  0  0
  6 18  1  0  0  0  0
  6  3  2  0  0  0  0
  7  8  1  0  0  0  0
  8  5  2  0  0  0  0
  9 15  1  0  0  0  0
  9 18  1  0  0  0  0
 10  9  2  0  0  0  0
 12  5  1  0  0  0  0
 13  1  2  0  0  0  0
 13 14  1  0  0  0  0
 14  7  1  0  0  0  0
 15 17  1  0  0  0  0
 16 12  2  0  0  0  0
 17 19  1  1  0  0  0
 17 11  1  0  0  0  0
 18  2  2  0  0  0  0
 19 20  1  0  0  0  0
 20 21  1  0  0  0  0
 21 23  1  0  0  0  0
 22 21  2  0  0  0  0
 23 25  2  0  0  0  0
 23 24  1  0  0  0  0
M  END
>  <MODEL>
9

>  <REMARK>
 VINA RESULT:      -9.0      1.615      5.254
  Name = 
  4 active torsions:
  status: ('A' for Active; 'I' for Inactive)
    1  A    between atoms: C_2  and  CA_21
    2  A    between atoms: C_6  and  C_15
    3  A    between atoms: C_6  and  C_23
    4  A    between atoms: C_15  and  CA_21
                            x       y       z     vdW  Elec       q    Type
                         _______ _______ _______ _____ _____    ______ ____

>  <TORSDO>
F 4

$$$$
