=
 OpenBabel11052415063D

 55 60  0  0  1  0  0  0  0  0999 V2000
  184.2040  178.5100  143.7170 N   0  0  0  0  0  0  0  0  0  0  0  0
  186.8500  177.8030  144.0690 C   0  0  0  0  0  0  0  0  0  0  0  0
  186.3120  177.8880  142.7820 C   0  0  0  0  0  3  0  0  0  0  0  0
  184.7110  178.4370  144.9770 C   0  0  0  0  0  3  0  0  0  0  0  0
  184.9720  178.2490  142.6240 C   0  0  0  0  0  0  0  0  0  0  0  0
  186.0470  178.0800  145.1750 C   0  0  0  0  0  3  0  0  0  0  0  0
  184.3700  178.2860  141.2660 C   0  0  0  0  0  2  0  0  0  0  0  0
  182.8540  178.3140  141.3840 C   0  0  0  0  0  2  0  0  0  0  0  0
  181.5950  175.1180  137.5710 C   0  0  0  0  0  2  0  0  0  0  0  0
  183.1390  173.9460  136.0040 C   0  0  0  0  0  1  0  0  0  0  0  0
  182.9750  176.9560  137.5150 C   0  0  0  0  0  0  0  0  0  0  0  0
  183.1460  176.3280  136.3010 O   0  0  0  0  0  0  0  0  0  0  0  0
  182.3010  175.1900  136.2110 C   0  0  2  0  0  3  0  0  0  0  0  0
  182.0860  176.3440  138.2620 C   0  0  0  0  0  0  0  0  0  0  0  0
  182.9310  179.0040  138.9450 C   0  0  2  0  0  3  0  0  0  0  0  0
  183.7500  178.1500  137.9670 C   0  0  0  0  0  2  0  0  0  0  0  0
  181.7990  176.7420  139.6830 C   0  0  1  0  0  3  0  0  0  0  0  0
  182.1700  178.2050  140.0270 C   0  0  1  0  0  3  0  0  0  0  0  0
  182.0700  181.3280  138.6610 C   0  0  0  0  0  3  0  0  0  0  0  0
  180.3710  181.8830  137.0160 C   0  0  0  0  0  0  0  0  0  0  0  0
  181.1720  179.5980  137.2240 C   0  0  0  0  0  3  0  0  0  0  0  0
  180.3420  180.5400  136.6100 C   0  0  0  0  0  3  0  0  0  0  0  0
  181.2400  182.2700  138.0450 C   0  0  0  0  0  3  0  0  0  0  0  0
  182.0420  179.9920  138.2520 C   0  0  0  0  0  0  0  0  0  0  0  0
  179.4970  182.8760  136.3740 C   0  0  0  0  0  0  0  0  0  0  0  0
  179.1720  182.7530  135.1640 O   0  0  0  0  0  0  0  0  0  0  0  0
  179.0190  183.9620  137.1010 O   0  0  0  0  0  1  0  0  0  0  0  0
  179.3190  177.2140  139.6570 C   0  0  0  0  0  1  0  0  0  0  0  0
  180.4090  176.2970  140.1800 C   0  0  1  0  0  3  0  0  0  0  0  0
  179.6940  174.1010  141.2960 C   0  0  0  0  0  1  0  0  0  0  0  0
  180.0300  174.8170  139.9990 C   0  0  0  0  0  3  0  0  0  0  0  0
  178.9320  174.6170  138.9760 C   0  0  0  0  0  1  0  0  0  0  0  0
  188.2770  177.4110  144.2680 C   0  0  0  0  0  2  0  0  0  0  0  0
  189.1530  177.8960  143.1160 C   0  0  0  0  0  2  0  0  0  0  0  0
  191.0230  176.2380  143.2360 C   0  0  0  0  0  1  0  0  0  0  0  0
  189.8430  176.7280  142.4150 C   0  0  2  0  0  3  0  0  0  0  0  0
  190.2590  177.0830  140.9880 C   0  0  0  0  0  2  0  0  0  0  0  0
  189.0590  177.2570  140.0580 C   0  0  0  0  0  2  0  0  0  0  0  0
  190.3330  175.2190  136.0370 C   0  0  2  0  0  3  0  0  0  0  0  0
  188.6480  176.3360  137.7320 C   0  0  1  0  0  3  0  0  0  0  0  0
  189.0300  178.7800  138.1590 C   0  0  0  0  0  1  0  0  0  0  0  0
  190.8760  174.8390  138.4140 O   0  0  0  0  0  0  0  0  0  0  0  0
  190.5580  174.2060  137.1810 C   0  0  0  0  0  2  0  0  0  0  0  0
  189.4380  177.3780  138.5780 C   0  0  1  0  0  0  0  0  0  0  0  0
  192.4750  176.0210  136.9230 C   0  0  0  0  0  2  0  0  0  0  0  0
  191.5310  176.0490  135.8000 N   0  0  0  0  0  0  0  0  0  0  0  0
  190.9750  177.3250  138.4390 C   0  0  0  0  0  2  0  0  0  0  0  0
  187.1330  176.4750  137.8450 C   0  0  0  0  0  1  0  0  0  0  0  0
  191.7120  175.9820  138.2530 C   0  0  1  0  0  3  0  0  0  0  0  0
  189.0720  176.0800  136.2690 C   0  0  1  0  0  3  0  0  0  0  0  0
  188.8720  177.2170  135.3100 C   0  0  0  0  0  0  0  0  0  0  0  0
  189.8580  177.8200  134.8100 O   0  0  0  0  0  0  0  0  0  0  0  0
  187.5530  177.6240  134.9720 N   0  0  0  0  0  1  0  0  0  0  0  0
  192.2080  175.5790  134.5940 C   0  0  0  0  0  2  0  0  0  0  0  0
  193.4420  174.9960  134.8980 O   0  0  0  0  0  1  0  0  0  0  0  0
  1  4  1  0  0  0  0
  2 33  1  0  0  0  0
  2  6  1  0  0  0  0
  3  2  2  0  0  0  0
  4  6  2  0  0  0  0
  5  3  1  0  0  0  0
  5  1  2  0  0  0  0
  7  8  1  0  0  0  0
  7  5  1  0  0  0  0
  9 14  1  0  0  0  0
 11 16  1  0  0  0  0
 11 14  2  0  0  0  0
 12 11  1  0  0  0  0
 13 10  1  1  0  0  0
 13 12  1  0  0  0  0
 13  9  1  0  0  0  0
 14 17  1  0  0  0  0
 15 24  1  6  0  0  0
 15 18  1  0  0  0  0
 16 15  1  0  0  0  0
 17 18  1  0  0  0  0
 17 29  1  6  0  0  0
 18  8  1  1  0  0  0
 20 23  1  0  0  0  0
 21 24  2  0  0  0  0
 22 20  2  0  0  0  0
 22 21  1  0  0  0  0
 23 19  2  0  0  0  0
 24 19  1  0  0  0  0
 25 20  1  0  0  0  0
 25 27  1  0  0  0  0
 26 25  2  0  0  0  0
 29 28  1  6  0  0  0
 31 29  1  0  0  0  0
 31 30  1  0  0  0  0
 32 31  1  0  0  0  0
 34 33  1  0  0  0  0
 36 34  1  0  0  0  0
 36 35  1  1  0  0  0
 37 36  1  0  0  0  0
 38 37  1  0  0  0  0
 39 50  1  0  0  0  0
 39 43  1  1  0  0  0
 40 48  1  6  0  0  0
 40 44  1  0  0  0  0
 43 42  1  0  0  0  0
 44 41  1  6  0  0  0
 44 38  1  0  0  0  0
 46 39  1  0  0  0  0
 46 45  1  0  0  0  0
 47 44  1  0  0  0  0
 49 45  1  6  0  0  0
 49 42  1  0  0  0  0
 49 47  1  0  0  0  0
 50 51  1  1  0  0  0
 50 40  1  0  0  0  0
 52 51  2  0  0  0  0
 53 51  1  0  0  0  0
 54 55  1  0  0  0  0
 54 46  1  0  0  0  0
M  END
>  <MODEL>
1

>  <REMARK>
 VINA RESULT:      -7.8      0.000      0.000
  Name = 
  15 active torsions:
  status: ('A' for Active; 'I' for Inactive)
    1  A    between atoms: C_1  and  C_53
    2  A    between atoms: C_2  and  C_28
    3  A    between atoms: C_2  and  C_49
    4  A    between atoms: C_8  and  C_20
    5  A    between atoms: C_8  and  C_22
    6  A    between atoms: C_10  and  C_32
    7  A    between atoms: C_11  and  N_38
    8  A    between atoms: C_19  and  C_40
    9  A    between atoms: C_22  and  C_43
   10  A    between atoms: C_27  and  C_54
   11  A    between atoms: C_28  and  C_44
   12  A    between atoms: C_33  and  C_52
   13  A    between atoms: C_40  and  C_45
   14  A    between atoms: C_43  and  C_51
   15  A    between atoms: C_51  and  C_54
                            x       y       z     vdW  Elec       q    Type
                         _______ _______ _______ _____ _____    ______ ____

>  <TORSDO>
F 15

$$$$
=
 OpenBabel11052415063D

 55 60  0  0  1  0  0  0  0  0999 V2000
  179.4760  180.0800  141.3310 N   0  0  0  0  0  0  0  0  0  0  0  0
  181.5000  179.0220  142.8850 C   0  0  0  0  0  0  0  0  0  0  0  0
  181.5890  178.9780  141.4900 C   0  0  0  0  0  3  0  0  0  0  0  0
  179.3740  180.1380  142.6860 C   0  0  0  0  0  3  0  0  0  0  0  0
  180.5570  179.5200  140.7220 C   0  0  0  0  0  0  0  0  0  0  0  0
  180.3860  179.6070  143.4880 C   0  0  0  0  0  3  0  0  0  0  0  0
  180.6100  179.4250  139.2400 C   0  0  0  0  0  2  0  0  0  0  0  0
  181.9850  179.8590  138.7520 C   0  0  0  0  0  2  0  0  0  0  0  0
  181.3330  175.4440  136.2170 C   0  0  0  0  0  2  0  0  0  0  0  0
  180.6420  173.2430  137.1610 C   0  0  0  0  0  1  0  0  0  0  0  0
  182.5580  175.8460  138.1220 C   0  0  0  0  0  0  0  0  0  0  0  0
  182.5310  174.4770  137.9820 O   0  0  0  0  0  0  0  0  0  0  0  0
  181.8270  174.1150  136.8020 C   0  0  2  0  0  3  0  0  0  0  0  0
  181.9320  176.4510  137.1390 C   0  0  0  0  0  0  0  0  0  0  0  0
  183.6610  177.9600  138.8690 C   0  0  2  0  0  3  0  0  0  0  0  0
  183.1630  176.5660  139.2810 C   0  0  0  0  0  2  0  0  0  0  0  0
  181.7000  177.9360  137.1100 C   0  0  1  0  0  3  0  0  0  0  0  0
  182.6900  178.7580  137.9710 C   0  0  1  0  0  3  0  0  0  0  0  0
  185.2200  177.8250  136.9260 C   0  0  0  0  0  3  0  0  0  0  0  0
  187.6320  177.8590  137.2030 C   0  0  0  0  0  0  0  0  0  0  0  0
  186.1770  178.0090  139.1420 C   0  0  0  0  0  3  0  0  0  0  0  0
  187.4610  177.9700  138.5910 C   0  0  0  0  0  3  0  0  0  0  0  0
  186.5040  177.7870  136.3750 C   0  0  0  0  0  3  0  0  0  0  0  0
  185.0500  177.9390  138.3090 C   0  0  0  0  0  0  0  0  0  0  0  0
  188.9810  177.8140  136.6180 C   0  0  0  0  0  0  0  0  0  0  0  0
  189.1510  178.0270  135.3890 O   0  0  0  0  0  0  0  0  0  0  0  0
  190.0840  177.5380  137.4200 O   0  0  0  0  0  1  0  0  0  0  0  0
  181.9600  177.5330  134.6310 C   0  0  0  0  0  1  0  0  0  0  0  0
  181.4620  178.4960  135.6930 C   0  0  1  0  0  3  0  0  0  0  0  0
  178.9310  178.2070  135.9930 C   0  0  0  0  0  1  0  0  0  0  0  0
  180.0520  179.0150  135.3620 C   0  0  0  0  0  3  0  0  0  0  0  0
  179.8870  180.4890  135.6650 C   0  0  0  0  0  1  0  0  0  0  0  0
  182.5850  178.4430  143.7320 C   0  0  0  0  0  2  0  0  0  0  0  0
  183.5130  179.5300  144.2660 C   0  0  0  0  0  2  0  0  0  0  0  0
  185.2440  178.7470  142.6390 C   0  0  0  0  0  1  0  0  0  0  0  0
  184.9790  179.1470  144.0800 C   0  0  2  0  0  3  0  0  0  0  0  0
  185.4130  178.0530  145.0560 C   0  0  0  0  0  2  0  0  0  0  0  0
  186.5130  178.5240  146.0060 C   0  0  0  0  0  2  0  0  0  0  0  0
  190.9020  177.5920  144.6590 C   0  0  2  0  0  3  0  0  0  0  0  0
  189.0270  178.4270  146.3170 C   0  0  1  0  0  3  0  0  0  0  0  0
  187.4980  176.6350  147.1870 C   0  0  0  0  0  1  0  0  0  0  0  0
  188.9270  178.5760  143.5530 O   0  0  0  0  0  0  0  0  0  0  0  0
  190.3350  178.6840  143.7270 C   0  0  0  0  0  2  0  0  0  0  0  0
  187.7360  177.6010  146.0380 C   0  0  1  0  0  0  0  0  0  0  0  0
  189.5750  176.2150  143.1220 C   0  0  0  0  0  2  0  0  0  0  0  0
  190.6330  176.2360  144.1390 N   0  0  0  0  0  0  0  0  0  0  0  0
  187.7580  176.7390  144.7570 C   0  0  0  0  0  2  0  0  0  0  0  0
  188.9860  179.2040  147.6290 C   0  0  0  0  0  1  0  0  0  0  0  0
  188.4780  177.2250  143.4820 C   0  0  1  0  0  3  0  0  0  0  0  0
  190.4050  177.7590  146.1120 C   0  0  1  0  0  3  0  0  0  0  0  0
  190.7490  176.6420  147.0540 C   0  0  0  0  0  0  0  0  0  0  0  0
  190.1780  175.5230  146.9630 O   0  0  0  0  0  0  0  0  0  0  0  0
  191.7220  176.8550  148.0670 N   0  0  0  0  0  1  0  0  0  0  0  0
  191.8610  175.6930  143.5630 C   0  0  0  0  0  2  0  0  0  0  0  0
  192.3420  174.6160  144.3140 O   0  0  0  0  0  1  0  0  0  0  0  0
  1  4  1  0  0  0  0
  2  6  1  0  0  0  0
  2 33  1  0  0  0  0
  3  2  2  0  0  0  0
  4  6  2  0  0  0  0
  5  1  2  0  0  0  0
  5  3  1  0  0  0  0
  7  5  1  0  0  0  0
  8  7  1  0  0  0  0
  9 13  1  0  0  0  0
  9 14  1  0  0  0  0
 11 16  1  0  0  0  0
 12 11  1  0  0  0  0
 13 10  1  1  0  0  0
 13 12  1  0  0  0  0
 14 11  2  0  0  0  0
 15 24  1  6  0  0  0
 15 16  1  0  0  0  0
 17 29  1  6  0  0  0
 17 14  1  0  0  0  0
 17 18  1  0  0  0  0
 18  8  1  1  0  0  0
 18 15  1  0  0  0  0
 19 24  1  0  0  0  0
 20 22  2  0  0  0  0
 22 21  1  0  0  0  0
 23 19  2  0  0  0  0
 23 20  1  0  0  0  0
 24 21  2  0  0  0  0
 25 20  1  0  0  0  0
 25 27  1  0  0  0  0
 26 25  2  0  0  0  0
 29 28  1  6  0  0  0
 31 32  1  0  0  0  0
 31 29  1  0  0  0  0
 31 30  1  0  0  0  0
 33 34  1  0  0  0  0
 36 35  1  6  0  0  0
 36 34  1  0  0  0  0
 36 37  1  0  0  0  0
 37 38  1  0  0  0  0
 38 44  1  0  0  0  0
 39 43  1  6  0  0  0
 39 50  1  0  0  0  0
 40 48  1  1  0  0  0
 42 43  1  0  0  0  0
 44 40  1  0  0  0  0
 44 41  1  1  0  0  0
 45 46  1  0  0  0  0
 46 39  1  0  0  0  0
 47 44  1  0  0  0  0
 49 45  1  1  0  0  0
 49 42  1  0  0  0  0
 49 47  1  0  0  0  0
 50 40  1  0  0  0  0
 50 51  1  6  0  0  0
 51 53  1  0  0  0  0
 52 51  2  0  0  0  0
 54 46  1  0  0  0  0
 54 55  1  0  0  0  0
M  END
>  <MODEL>
2

>  <REMARK>
 VINA RESULT:      -7.4      3.420      7.143
  Name = 
  15 active torsions:
  status: ('A' for Active; 'I' for Inactive)
    1  A    between atoms: C_1  and  C_53
    2  A    between atoms: C_2  and  C_28
    3  A    between atoms: C_2  and  C_49
    4  A    between atoms: C_8  and  C_20
    5  A    between atoms: C_8  and  C_22
    6  A    between atoms: C_10  and  C_32
    7  A    between atoms: C_11  and  N_38
    8  A    between atoms: C_19  and  C_40
    9  A    between atoms: C_22  and  C_43
   10  A    between atoms: C_27  and  C_54
   11  A    between atoms: C_28  and  C_44
   12  A    between atoms: C_33  and  C_52
   13  A    between atoms: C_40  and  C_45
   14  A    between atoms: C_43  and  C_51
   15  A    between atoms: C_51  and  C_54
                            x       y       z     vdW  Elec       q    Type
                         _______ _______ _______ _____ _____    ______ ____

>  <TORSDO>
F 15

$$$$
=
 OpenBabel11052415063D

 55 60  0  0  1  0  0  0  0  0999 V2000
  186.9740  178.3570  139.4820 N   0  0  0  0  0  0  0  0  0  0  0  0
  189.1100  177.2120  138.1580 C   0  0  0  0  0  0  0  0  0  0  0  0
  187.8750  177.3430  137.5160 C   0  0  0  0  0  3  0  0  0  0  0  0
  188.1700  178.2420  140.1220 C   0  0  0  0  0  3  0  0  0  0  0  0
  186.8080  177.9260  138.2010 C   0  0  0  0  0  0  0  0  0  0  0  0
  189.2600  177.6650  139.4690 C   0  0  0  0  0  3  0  0  0  0  0  0
  185.4740  178.0180  137.5540 C   0  0  0  0  0  2  0  0  0  0  0  0
  184.5370  178.8330  138.4330 C   0  0  0  0  0  2  0  0  0  0  0  0
  179.7260  179.5610  140.0640 C   0  0  0  0  0  2  0  0  0  0  0  0
  178.9320  179.7140  142.4220 C   0  0  0  0  0  1  0  0  0  0  0  0
  181.2380  177.9500  140.7050 C   0  0  0  0  0  0  0  0  0  0  0  0
  180.1870  177.8440  141.5890 O   0  0  0  0  0  0  0  0  0  0  0  0
  179.1660  178.7750  141.2570 C   0  0  2  0  0  3  0  0  0  0  0  0
  181.0230  178.8760  139.7980 C   0  0  0  0  0  0  0  0  0  0  0  0
  183.1310  176.9620  139.4100 C   0  0  2  0  0  3  0  0  0  0  0  0
  182.5030  177.1640  140.7960 C   0  0  0  0  0  2  0  0  0  0  0  0
  182.0590  179.2880  138.7900 C   0  0  1  0  0  3  0  0  0  0  0  0
  183.1450  178.2200  138.5120 C   0  0  1  0  0  3  0  0  0  0  0  0
  181.2370  175.4320  138.8690 C   0  0  0  0  0  3  0  0  0  0  0  0
  181.5020  173.5220  137.3930 C   0  0  0  0  0  0  0  0  0  0  0  0
  183.3900  174.9770  137.8610 C   0  0  0  0  0  3  0  0  0  0  0  0
  182.8520  173.8600  137.2160 C   0  0  0  0  0  3  0  0  0  0  0  0
  180.6990  174.3140  138.2230 C   0  0  0  0  0  3  0  0  0  0  0  0
  182.5810  175.7690  138.6890 C   0  0  0  0  0  0  0  0  0  0  0  0
  180.9320  172.3450  136.7190 C   0  0  0  0  0  0  0  0  0  0  0  0
  179.8910  171.7950  137.1660 O   0  0  0  0  0  1  0  0  0  0  0  0
  181.5370  171.8290  135.5780 O   0  0  0  0  0  0  0  0  0  0  0  0
  180.4550  179.0330  136.8570 C   0  0  0  0  0  1  0  0  0  0  0  0
  181.4650  179.9450  137.5280 C   0  0  1  0  0  3  0  0  0  0  0  0
  181.8990  182.3530  138.3010 C   0  0  0  0  0  1  0  0  0  0  0  0
  180.9230  181.3790  137.6620 C   0  0  0  0  0  3  0  0  0  0  0  0
  180.3990  181.9290  136.3520 C   0  0  0  0  0  1  0  0  0  0  0  0
  190.2670  176.5840  137.4520 C   0  0  0  0  0  2  0  0  0  0  0  0
  190.1030  176.6610  135.9370 C   0  0  0  0  0  2  0  0  0  0  0  0
  189.0130  174.5050  135.2900 C   0  0  0  0  0  1  0  0  0  0  0  0
  190.3090  175.2950  135.2880 C   0  0  2  0  0  3  0  0  0  0  0  0
  191.4460  174.5140  135.9470 C   0  0  0  0  0  2  0  0  0  0  0  0
  192.8150  175.1320  135.6670 C   0  0  0  0  0  2  0  0  0  0  0  0
  196.6450  172.4470  135.9230 C   0  0  2  0  0  3  0  0  0  0  0  0
  195.3140  174.7200  135.7800 C   0  0  1  0  0  3  0  0  0  0  0  0
  193.9560  175.2890  137.8130 C   0  0  0  0  0  1  0  0  0  0  0  0
  194.5160  172.3050  134.6850 O   0  0  0  0  0  0  0  0  0  0  0  0
  195.9240  172.1300  134.5950 C   0  0  0  0  0  2  0  0  0  0  0  0
  193.9480  174.5230  136.5010 C   0  0  1  0  0  0  0  0  0  0  0  0
  194.8880  170.9350  136.7250 C   0  0  0  0  0  2  0  0  0  0  0  0
  196.1710  171.5830  137.0230 N   0  0  0  0  0  0  0  0  0  0  0  0
  193.5880  173.0660  136.8640 C   0  0  0  0  0  2  0  0  0  0  0  0
  195.6590  176.1810  135.5080 C   0  0  0  0  0  1  0  0  0  0  0  0
  193.9830  171.8940  135.9420 C   0  0  1  0  0  3  0  0  0  0  0  0
  196.5500  173.9450  136.2880 C   0  0  1  0  0  3  0  0  0  0  0  0
  197.0570  174.3200  137.6490 C   0  0  0  0  0  0  0  0  0  0  0  0
  196.5840  173.7820  138.6850 O   0  0  0  0  0  0  0  0  0  0  0  0
  198.0760  175.3030  137.7710 N   0  0  0  0  0  1  0  0  0  0  0  0
  197.1750  170.5540  137.2900 C   0  0  0  0  0  2  0  0  0  0  0  0
  198.4530  171.1090  137.4030 O   0  0  0  0  0  1  0  0  0  0  0  0
  1  4  1  0  0  0  0
  2  6  1  0  0  0  0
  3  2  2  0  0  0  0
  3  5  1  0  0  0  0
  5  1  2  0  0  0  0
  6  4  2  0  0  0  0
  7  5  1  0  0  0  0
  7  8  1  0  0  0  0
  9 13  1  0  0  0  0
 11 16  1  0  0  0  0
 11 12  1  0  0  0  0
 13 12  1  0  0  0  0
 13 10  1  1  0  0  0
 14  9  1  0  0  0  0
 14 11  2  0  0  0  0
 15 24  1  6  0  0  0
 15 16  1  0  0  0  0
 17 29  1  6  0  0  0
 17 14  1  0  0  0  0
 18  8  1  1  0  0  0
 18 17  1  0  0  0  0
 18 15  1  0  0  0  0
 20 23  1  0  0  0  0
 21 24  2  0  0  0  0
 22 20  2  0  0  0  0
 22 21  1  0  0  0  0
 23 19  2  0  0  0  0
 24 19  1  0  0  0  0
 25 26  1  0  0  0  0
 25 20  1  0  0  0  0
 27 25  2  0  0  0  0
 29 28  1  1  0  0  0
 29 31  1  0  0  0  0
 31 30  1  0  0  0  0
 32 31  1  0  0  0  0
 33  2  1  0  0  0  0
 34 33  1  0  0  0  0
 36 35  1  1  0  0  0
 36 34  1  0  0  0  0
 36 37  1  0  0  0  0
 38 37  1  0  0  0  0
 38 44  1  0  0  0  0
 39 43  1  6  0  0  0
 39 50  1  0  0  0  0
 39 46  1  0  0  0  0
 40 48  1  1  0  0  0
 40 50  1  0  0  0  0
 40 44  1  0  0  0  0
 42 49  1  0  0  0  0
 43 42  1  0  0  0  0
 44 47  1  0  0  0  0
 44 41  1  1  0  0  0
 45 46  1  0  0  0  0
 46 54  1  0  0  0  0
 49 45  1  1  0  0  0
 49 47  1  0  0  0  0
 50 51  1  1  0  0  0
 51 53  1  0  0  0  0
 51 52  2  0  0  0  0
 54 55  1  0  0  0  0
M  END
>  <MODEL>
3

>  <REMARK>
 VINA RESULT:      -6.5      3.325      6.829
  Name = 
  15 active torsions:
  status: ('A' for Active; 'I' for Inactive)
    1  A    between atoms: C_1  and  C_53
    2  A    between atoms: C_2  and  C_28
    3  A    between atoms: C_2  and  C_49
    4  A    between atoms: C_8  and  C_20
    5  A    between atoms: C_8  and  C_22
    6  A    between atoms: C_10  and  C_32
    7  A    between atoms: C_11  and  N_38
    8  A    between atoms: C_19  and  C_40
    9  A    between atoms: C_22  and  C_43
   10  A    between atoms: C_27  and  C_54
   11  A    between atoms: C_28  and  C_44
   12  A    between atoms: C_33  and  C_52
   13  A    between atoms: C_40  and  C_45
   14  A    between atoms: C_43  and  C_51
   15  A    between atoms: C_51  and  C_54
                            x       y       z     vdW  Elec       q    Type
                         _______ _______ _______ _____ _____    ______ ____

>  <TORSDO>
F 15

$$$$
=
 OpenBabel11052415063D

 55 60  0  0  1  0  0  0  0  0999 V2000
  186.6600  175.4360  135.4300 N   0  0  0  0  0  0  0  0  0  0  0  0
  187.9000  176.6080  137.6010 C   0  0  0  0  0  0  0  0  0  0  0  0
  186.7520  177.1860  137.0530 C   0  0  0  0  0  3  0  0  0  0  0  0
  187.7730  174.8560  135.9530 C   0  0  0  0  0  3  0  0  0  0  0  0
  186.1370  176.5780  135.9570 C   0  0  0  0  0  0  0  0  0  0  0  0
  188.4150  175.4340  137.0500 C   0  0  0  0  0  3  0  0  0  0  0  0
  184.9520  177.2130  135.3260 C   0  0  0  0  0  2  0  0  0  0  0  0
  184.0030  177.7050  136.4090 C   0  0  0  0  0  2  0  0  0  0  0  0
  179.4480  177.0100  138.6700 C   0  0  0  0  0  2  0  0  0  0  0  0
  178.9310  177.1370  141.1050 C   0  0  0  0  0  1  0  0  0  0  0  0
  181.4730  176.0430  139.1780 C   0  0  0  0  0  0  0  0  0  0  0  0
  180.6280  175.6950  140.2080 O   0  0  0  0  0  0  0  0  0  0  0  0
  179.3250  176.2110  139.9740 C   0  0  2  0  0  3  0  0  0  0  0  0
  180.8590  176.7540  138.2600 C   0  0  0  0  0  0  0  0  0  0  0  0
  183.4220  175.5900  137.6820 C   0  0  2  0  0  3  0  0  0  0  0  0
  182.9290  175.7180  139.1310 C   0  0  0  0  0  2  0  0  0  0  0  0
  181.5740  177.3740  137.0930 C   0  0  1  0  0  3  0  0  0  0  0  0
  182.9120  176.6890  136.7220 C   0  0  1  0  0  3  0  0  0  0  0  0
  184.1980  173.2450  137.3340 C   0  0  0  0  0  3  0  0  0  0  0  0
  182.9080  171.6360  136.0510 C   0  0  0  0  0  0  0  0  0  0  0  0
  182.0800  173.8990  136.3600 C   0  0  0  0  0  3  0  0  0  0  0  0
  181.9270  172.6140  135.8310 C   0  0  0  0  0  3  0  0  0  0  0  0
  184.0440  171.9600  136.8040 C   0  0  0  0  0  3  0  0  0  0  0  0
  183.2180  174.2180  137.1170 C   0  0  0  0  0  0  0  0  0  0  0  0
  182.7530  170.2840  135.4930 C   0  0  0  0  0  0  0  0  0  0  0  0
  181.6330  169.7080  135.5160 O   0  0  0  0  0  1  0  0  0  0  0  0
  183.8440  169.6280  134.9320 O   0  0  0  0  0  0  0  0  0  0  0  0
  179.6750  176.5400  135.6530 C   0  0  0  0  0  1  0  0  0  0  0  0
  180.6530  177.6750  135.8930 C   0  0  1  0  0  3  0  0  0  0  0  0
  180.8890  180.2300  135.8920 C   0  0  0  0  0  1  0  0  0  0  0  0
  179.9440  179.0400  135.8680 C   0  0  0  0  0  3  0  0  0  0  0  0
  178.9570  179.1640  134.7270 C   0  0  0  0  0  1  0  0  0  0  0  0
  188.5830  177.2410  138.7690 C   0  0  0  0  0  2  0  0  0  0  0  0
  189.9660  177.7620  138.3890 C   0  0  0  0  0  2  0  0  0  0  0  0
  191.5030  175.7930  138.5240 C   0  0  0  0  0  1  0  0  0  0  0  0
  191.0590  177.0750  139.2050 C   0  0  2  0  0  3  0  0  0  0  0  0
  190.6220  176.8250  140.6480 C   0  0  0  0  0  2  0  0  0  0  0  0
  191.4660  177.6040  141.6550 C   0  0  0  0  0  2  0  0  0  0  0  0
  187.9800  176.6540  144.6360 C   0  0  2  0  0  3  0  0  0  0  0  0
  190.4570  176.5620  143.7340 C   0  0  1  0  0  3  0  0  0  0  0  0
  191.6950  178.7450  143.7950 C   0  0  0  0  0  1  0  0  0  0  0  0
  188.1740  176.7470  142.1780 O   0  0  0  0  0  0  0  0  0  0  0  0
  187.6330  176.0180  143.2730 C   0  0  0  0  0  2  0  0  0  0  0  0
  190.7420  177.8920  142.9750 C   0  0  1  0  0  0  0  0  0  0  0  0
  187.1270  178.6170  143.4370 C   0  0  0  0  0  2  0  0  0  0  0  0
  187.4670  178.0350  144.7410 N   0  0  0  0  0  0  0  0  0  0  0  0
  189.5100  178.7800  142.6980 C   0  0  0  0  0  2  0  0  0  0  0  0
  191.7130  175.7540  144.0500 C   0  0  0  0  0  1  0  0  0  0  0  0
  188.1350  178.1580  142.3760 C   0  0  1  0  0  3  0  0  0  0  0  0
  189.4920  176.5770  144.9400 C   0  0  1  0  0  3  0  0  0  0  0  0
  189.9540  177.3320  146.1520 C   0  0  0  0  0  0  0  0  0  0  0  0
  189.3630  178.3800  146.5240 O   0  0  0  0  0  0  0  0  0  0  0  0
  191.0810  176.8640  146.8810 N   0  0  0  0  0  1  0  0  0  0  0  0
  186.2790  178.0410  145.5920 C   0  0  0  0  0  2  0  0  0  0  0  0
  185.2540  178.8050  145.0260 O   0  0  0  0  0  1  0  0  0  0  0  0
  1  4  2  0  0  0  0
  1  5  1  0  0  0  0
  2 33  1  0  0  0  0
  3  2  1  0  0  0  0
  4  6  1  0  0  0  0
  5  3  2  0  0  0  0
  6  2  2  0  0  0  0
  7  5  1  0  0  0  0
  7  8  1  0  0  0  0
  9 13  1  0  0  0  0
 11 12  1  0  0  0  0
 13 12  1  0  0  0  0
 13 10  1  1  0  0  0
 14  9  1  0  0  0  0
 14 11  2  0  0  0  0
 15 24  1  6  0  0  0
 15 16  1  0  0  0  0
 16 11  1  0  0  0  0
 17 29  1  6  0  0  0
 17 14  1  0  0  0  0
 18  8  1  1  0  0  0
 18 17  1  0  0  0  0
 18 15  1  0  0  0  0
 20 23  1  0  0  0  0
 21 24  2  0  0  0  0
 22 20  2  0  0  0  0
 22 21  1  0  0  0  0
 23 19  2  0  0  0  0
 24 19  1  0  0  0  0
 25 26  1  0  0  0  0
 25 20  1  0  0  0  0
 27 25  2  0  0  0  0
 29 28  1  1  0  0  0
 31 30  1  0  0  0  0
 31 29  1  0  0  0  0
 32 31  1  0  0  0  0
 34 33  1  0  0  0  0
 34 36  1  0  0  0  0
 36 35  1  6  0  0  0
 36 37  1  0  0  0  0
 37 38  1  0  0  0  0
 38 44  1  0  0  0  0
 39 43  1  6  0  0  0
 39 46  1  0  0  0  0
 39 50  1  0  0  0  0
 40 48  1  1  0  0  0
 40 50  1  0  0  0  0
 42 49  1  0  0  0  0
 42 43  1  0  0  0  0
 44 40  1  0  0  0  0
 44 41  1  1  0  0  0
 45 46  1  0  0  0  0
 46 54  1  0  0  0  0
 47 44  1  0  0  0  0
 49 47  1  1  0  0  0
 49 45  1  0  0  0  0
 50 51  1  1  0  0  0
 51 52  2  0  0  0  0
 51 53  1  0  0  0  0
 55 54  1  0  0  0  0
M  END
>  <MODEL>
4

>  <REMARK>
 VINA RESULT:      -6.5      3.181      7.734
  Name = 
  15 active torsions:
  status: ('A' for Active; 'I' for Inactive)
    1  A    between atoms: C_1  and  C_53
    2  A    between atoms: C_2  and  C_28
    3  A    between atoms: C_2  and  C_49
    4  A    between atoms: C_8  and  C_20
    5  A    between atoms: C_8  and  C_22
    6  A    between atoms: C_10  and  C_32
    7  A    between atoms: C_11  and  N_38
    8  A    between atoms: C_19  and  C_40
    9  A    between atoms: C_22  and  C_43
   10  A    between atoms: C_27  and  C_54
   11  A    between atoms: C_28  and  C_44
   12  A    between atoms: C_33  and  C_52
   13  A    between atoms: C_40  and  C_45
   14  A    between atoms: C_43  and  C_51
   15  A    between atoms: C_51  and  C_54
                            x       y       z     vdW  Elec       q    Type
                         _______ _______ _______ _____ _____    ______ ____

>  <TORSDO>
F 15

$$$$
=
 OpenBabel11052415063D

 55 60  0  0  1  0  0  0  0  0999 V2000
  181.9750  178.5080  141.8760 N   0  0  0  0  0  0  0  0  0  0  0  0
  183.7680  179.0750  143.8990 C   0  0  0  0  0  0  0  0  0  0  0  0
  184.2290  178.8080  142.6070 C   0  0  0  0  0  3  0  0  0  0  0  0
  181.5070  178.7710  143.1260 C   0  0  0  0  0  3  0  0  0  0  0  0
  183.3080  178.5250  141.5970 C   0  0  0  0  0  0  0  0  0  0  0  0
  182.3970  179.0580  144.1620 C   0  0  0  0  0  3  0  0  0  0  0  0
  183.7860  178.1790  140.2340 C   0  0  0  0  0  2  0  0  0  0  0  0
  182.6240  178.2510  139.2540 C   0  0  0  0  0  2  0  0  0  0  0  0
  180.6140  175.5180  135.4040 C   0  0  0  0  0  2  0  0  0  0  0  0
  179.6470  173.2230  135.5190 C   0  0  0  0  0  1  0  0  0  0  0  0
  182.2120  174.8920  136.9360 C   0  0  0  0  0  0  0  0  0  0  0  0
  181.8690  173.7380  136.2670 O   0  0  0  0  0  0  0  0  0  0  0  0
  180.9090  174.0190  135.2580 C   0  0  2  0  0  3  0  0  0  0  0  0
  181.5660  175.9370  136.4720 C   0  0  0  0  0  0  0  0  0  0  0  0
  183.8520  176.3140  138.1720 C   0  0  2  0  0  3  0  0  0  0  0  0
  183.1490  174.9510  138.0960 C   0  0  0  0  0  2  0  0  0  0  0  0
  181.6530  177.2980  137.1040 C   0  0  1  0  0  3  0  0  0  0  0  0
  182.9310  177.5340  137.9460 C   0  0  1  0  0  3  0  0  0  0  0  0
  185.9330  175.2720  137.2740 C   0  0  0  0  0  3  0  0  0  0  0  0
  187.4310  176.4620  135.7780 C   0  0  0  0  0  0  0  0  0  0  0  0
  185.4140  177.5380  136.6000 C   0  0  0  0  0  3  0  0  0  0  0  0
  186.5810  177.5770  135.8320 C   0  0  0  0  0  3  0  0  0  0  0  0
  187.1000  175.3110  136.5040 C   0  0  0  0  0  3  0  0  0  0  0  0
  185.0850  176.3820  137.3230 C   0  0  0  0  0  0  0  0  0  0  0  0
  188.6620  176.4990  134.9730 C   0  0  0  0  0  0  0  0  0  0  0  0
  189.2200  175.4300  134.6120 O   0  0  0  0  0  1  0  0  0  0  0  0
  189.2190  177.7180  134.6020 O   0  0  0  0  0  0  0  0  0  0  0  0
  181.7490  178.1440  134.7260 C   0  0  0  0  0  1  0  0  0  0  0  0
  181.2950  178.4490  136.1420 C   0  0  1  0  0  3  0  0  0  0  0  0
  178.9940  178.3760  137.2740 C   0  0  0  0  0  1  0  0  0  0  0  0
  179.8480  178.9710  136.1660 C   0  0  0  0  0  3  0  0  0  0  0  0
  179.7730  180.4830  136.1860 C   0  0  0  0  0  1  0  0  0  0  0  0
  184.7310  179.3730  145.0010 C   0  0  0  0  0  2  0  0  0  0  0  0
  184.6830  178.3010  146.0860 C   0  0  0  0  0  2  0  0  0  0  0  0
  186.3550  178.7650  147.8880 C   0  0  0  0  0  1  0  0  0  0  0  0
  186.0800  177.9860  146.6150 C   0  0  2  0  0  3  0  0  0  0  0  0
  187.1590  178.2320  145.5600 C   0  0  0  0  0  2  0  0  0  0  0  0
  186.8690  177.5030  144.2490 C   0  0  0  0  0  2  0  0  0  0  0  0
  191.2890  177.8990  142.7490 C   0  0  2  0  0  3  0  0  0  0  0  0
  189.3810  177.2170  144.4380 C   0  0  1  0  0  3  0  0  0  0  0  0
  187.8760  175.3660  143.6540 C   0  0  0  0  0  1  0  0  0  0  0  0
  189.3100  179.3720  142.6990 O   0  0  0  0  0  0  0  0  0  0  0  0
  190.7130  179.3210  142.9260 C   0  0  0  0  0  2  0  0  0  0  0  0
  188.1090  176.8670  143.6100 C   0  0  1  0  0  0  0  0  0  0  0  0
  190.0060  178.1170  140.6700 C   0  0  0  0  0  2  0  0  0  0  0  0
  191.0520  177.3790  141.3880 N   0  0  0  0  0  0  0  0  0  0  0  0
  188.1620  177.2440  142.1140 C   0  0  0  0  0  2  0  0  0  0  0  0
  189.3120  176.7610  145.8920 C   0  0  0  0  0  1  0  0  0  0  0  0
  188.8860  178.5200  141.6380 C   0  0  1  0  0  3  0  0  0  0  0  0
  190.7730  176.9290  143.8340 C   0  0  1  0  0  3  0  0  0  0  0  0
  191.1270  175.4830  143.6400 C   0  0  0  0  0  0  0  0  0  0  0  0
  190.4600  174.7550  142.8590 O   0  0  0  0  0  0  0  0  0  0  0  0
  192.2230  174.9280  144.3550 N   0  0  0  0  0  1  0  0  0  0  0  0
  192.2960  177.4500  140.6240 C   0  0  0  0  0  2  0  0  0  0  0  0
  192.1770  176.7920  139.3960 O   0  0  0  0  0  1  0  0  0  0  0  0
  1  4  1  0  0  0  0
  2  6  1  0  0  0  0
  2 33  1  0  0  0  0
  3  2  2  0  0  0  0
  4  6  2  0  0  0  0
  5  1  2  0  0  0  0
  5  3  1  0  0  0  0
  7  5  1  0  0  0  0
  8  7  1  0  0  0  0
  9 14  1  0  0  0  0
 11 16  1  0  0  0  0
 12 11  1  0  0  0  0
 13  9  1  0  0  0  0
 13 10  1  1  0  0  0
 13 12  1  0  0  0  0
 14 11  2  0  0  0  0
 14 17  1  0  0  0  0
 15 24  1  6  0  0  0
 16 15  1  0  0  0  0
 17 29  1  6  0  0  0
 17 18  1  0  0  0  0
 18 15  1  0  0  0  0
 18  8  1  1  0  0  0
 19 24  1  0  0  0  0
 20 22  2  0  0  0  0
 20 23  1  0  0  0  0
 21 24  2  0  0  0  0
 22 21  1  0  0  0  0
 23 19  2  0  0  0  0
 25 20  1  0  0  0  0
 26 25  1  0  0  0  0
 27 25  2  0  0  0  0
 29 28  1  6  0  0  0
 29 31  1  0  0  0  0
 31 32  1  0  0  0  0
 31 30  1  0  0  0  0
 33 34  1  0  0  0  0
 34 36  1  0  0  0  0
 36 35  1  1  0  0  0
 37 36  1  0  0  0  0
 38 37  1  0  0  0  0
 39 43  1  6  0  0  0
 39 50  1  0  0  0  0
 40 48  1  1  0  0  0
 42 43  1  0  0  0  0
 44 41  1  1  0  0  0
 44 38  1  0  0  0  0
 44 40  1  0  0  0  0
 45 46  1  0  0  0  0
 46 39  1  0  0  0  0
 47 44  1  0  0  0  0
 49 45  1  1  0  0  0
 49 47  1  0  0  0  0
 49 42  1  0  0  0  0
 50 51  1  6  0  0  0
 50 40  1  0  0  0  0
 51 53  1  0  0  0  0
 52 51  2  0  0  0  0
 54 46  1  0  0  0  0
 55 54  1  0  0  0  0
M  END
>  <MODEL>
5

>  <REMARK>
 VINA RESULT:      -5.9      3.165      6.129
  Name = 
  15 active torsions:
  status: ('A' for Active; 'I' for Inactive)
    1  A    between atoms: C_1  and  C_53
    2  A    between atoms: C_2  and  C_28
    3  A    between atoms: C_2  and  C_49
    4  A    between atoms: C_8  and  C_20
    5  A    between atoms: C_8  and  C_22
    6  A    between atoms: C_10  and  C_32
    7  A    between atoms: C_11  and  N_38
    8  A    between atoms: C_19  and  C_40
    9  A    between atoms: C_22  and  C_43
   10  A    between atoms: C_27  and  C_54
   11  A    between atoms: C_28  and  C_44
   12  A    between atoms: C_33  and  C_52
   13  A    between atoms: C_40  and  C_45
   14  A    between atoms: C_43  and  C_51
   15  A    between atoms: C_51  and  C_54
                            x       y       z     vdW  Elec       q    Type
                         _______ _______ _______ _____ _____    ______ ____

>  <TORSDO>
F 15

$$$$
=
 OpenBabel11052415063D

 55 60  0  0  1  0  0  0  0  0999 V2000
  186.1550  175.8370  135.7140 N   0  0  0  0  0  0  0  0  0  0  0  0
  187.6620  177.4880  137.3370 C   0  0  0  0  0  0  0  0  0  0  0  0
  186.3370  177.8180  137.0370 C   0  0  0  0  0  3  0  0  0  0  0  0
  187.4410  175.4970  135.9990 C   0  0  0  0  0  3  0  0  0  0  0  0
  185.5910  176.9690  136.2170 C   0  0  0  0  0  0  0  0  0  0  0  0
  188.2190  176.3190  136.8160 C   0  0  0  0  0  3  0  0  0  0  0  0
  184.2010  177.3370  135.8410 C   0  0  0  0  0  2  0  0  0  0  0  0
  183.5140  178.0010  137.0250 C   0  0  0  0  0  2  0  0  0  0  0  0
  179.1790  178.3980  139.7440 C   0  0  0  0  0  2  0  0  0  0  0  0
  178.9450  178.4360  142.2260 C   0  0  0  0  0  1  0  0  0  0  0  0
  180.8770  176.8610  139.9550 C   0  0  0  0  0  0  0  0  0  0  0  0
  180.0660  176.6680  141.0500 O   0  0  0  0  0  0  0  0  0  0  0  0
  178.9510  177.5470  141.0000 C   0  0  2  0  0  3  0  0  0  0  0  0
  180.4120  177.7980  139.1600 C   0  0  0  0  0  0  0  0  0  0  0  0
  182.4680  176.0230  138.2200 C   0  0  2  0  0  3  0  0  0  0  0  0
  182.1670  176.1480  139.7210 C   0  0  0  0  0  2  0  0  0  0  0  0
  181.1660  178.2990  137.9600 C   0  0  1  0  0  3  0  0  0  0  0  0
  182.2100  177.3050  137.3960 C   0  0  1  0  0  3  0  0  0  0  0  0
  182.4240  173.5700  137.7700 C   0  0  0  0  0  3  0  0  0  0  0  0
  180.6900  172.5360  136.4190 C   0  0  0  0  0  0  0  0  0  0  0  0
  180.6580  174.9310  136.8260 C   0  0  0  0  0  3  0  0  0  0  0  0
  180.0940  173.7940  136.2420 C   0  0  0  0  0  3  0  0  0  0  0  0
  181.8580  172.4320  137.1860 C   0  0  0  0  0  3  0  0  0  0  0  0
  181.8260  174.8210  137.5960 C   0  0  0  0  0  0  0  0  0  0  0  0
  180.1020  171.3370  135.8030 C   0  0  0  0  0  0  0  0  0  0  0  0
  180.3440  171.0530  134.6010 O   0  0  0  0  0  0  0  0  0  0  0  0
  179.2720  170.5040  136.5460 O   0  0  0  0  0  1  0  0  0  0  0  0
  180.1250  180.4490  137.1390 C   0  0  0  0  0  1  0  0  0  0  0  0
  180.2640  178.9570  136.8960 C   0  0  1  0  0  3  0  0  0  0  0  0
  179.4870  177.8650  134.7080 C   0  0  0  0  0  1  0  0  0  0  0  0
  180.5730  178.6560  135.4190 C   0  0  0  0  0  3  0  0  0  0  0  0
  180.9310  179.8990  134.6330 C   0  0  0  0  0  1  0  0  0  0  0  0
  188.4870  178.3810  138.2040 C   0  0  0  0  0  2  0  0  0  0  0  0
  189.9760  178.2080  137.9240 C   0  0  0  0  0  2  0  0  0  0  0  0
  191.0410  176.0770  138.6890 C   0  0  0  0  0  1  0  0  0  0  0  0
  190.6790  177.4990  139.0790 C   0  0  2  0  0  3  0  0  0  0  0  0
  189.8480  177.5360  140.3620 C   0  0  0  0  0  2  0  0  0  0  0  0
  189.9760  176.2500  141.1760 C   0  0  0  0  0  2  0  0  0  0  0  0
  190.4260  178.3570  145.3350 C   0  0  2  0  0  3  0  0  0  0  0  0
  189.3200  177.9010  142.9850 C   0  0  1  0  0  3  0  0  0  0  0  0
  188.2090  175.6610  142.7460 C   0  0  0  0  0  1  0  0  0  0  0  0
  192.0090  177.6270  143.5880 O   0  0  0  0  0  0  0  0  0  0  0  0
  191.6860  178.6700  144.4990 C   0  0  0  0  0  2  0  0  0  0  0  0
  189.5340  176.3980  142.6360 C   0  0  1  0  0  0  0  0  0  0  0  0
  191.6970  176.2830  145.6550 C   0  0  0  0  0  2  0  0  0  0  0  0
  190.5920  177.1240  146.1310 N   0  0  0  0  0  0  0  0  0  0  0  0
  190.5200  175.6350  143.5470 C   0  0  0  0  0  2  0  0  0  0  0  0
  188.2840  178.5930  142.1040 C   0  0  0  0  0  1  0  0  0  0  0  0
  191.7710  176.3280  144.1240 C   0  0  1  0  0  3  0  0  0  0  0  0
  189.1520  178.3120  144.4640 C   0  0  1  0  0  3  0  0  0  0  0  0
  187.9070  177.8320  145.1510 C   0  0  0  0  0  0  0  0  0  0  0  0
  187.9760  177.1110  146.1810 O   0  0  0  0  0  0  0  0  0  0  0  0
  186.6360  178.1860  144.6240 N   0  0  0  0  0  1  0  0  0  0  0  0
  190.8320  177.4840  147.5270 C   0  0  0  0  0  2  0  0  0  0  0  0
  191.7810  176.6410  148.1130 O   0  0  0  0  0  1  0  0  0  0  0  0
  1  4  2  0  0  0  0
  1  5  1  0  0  0  0
  2 33  1  0  0  0  0
  3  2  1  0  0  0  0
  4  6  1  0  0  0  0
  5  3  2  0  0  0  0
  6  2  2  0  0  0  0
  7  5  1  0  0  0  0
  7  8  1  0  0  0  0
  9 13  1  0  0  0  0
 11 12  1  0  0  0  0
 13 12  1  0  0  0  0
 13 10  1  1  0  0  0
 14  9  1  0  0  0  0
 14 11  2  0  0  0  0
 15 24  1  6  0  0  0
 15 16  1  0  0  0  0
 16 11  1  0  0  0  0
 17 29  1  6  0  0  0
 17 14  1  0  0  0  0
 18  8  1  1  0  0  0
 18 17  1  0  0  0  0
 18 15  1  0  0  0  0
 20 23  1  0  0  0  0
 21 24  2  0  0  0  0
 22 20  2  0  0  0  0
 22 21  1  0  0  0  0
 23 19  2  0  0  0  0
 24 19  1  0  0  0  0
 25 20  1  0  0  0  0
 25 27  1  0  0  0  0
 26 25  2  0  0  0  0
 29 28  1  6  0  0  0
 30 31  1  0  0  0  0
 31 29  1  0  0  0  0
 32 31  1  0  0  0  0
 34 33  1  0  0  0  0
 34 36  1  0  0  0  0
 36 35  1  6  0  0  0
 36 37  1  0  0  0  0
 37 38  1  0  0  0  0
 38 44  1  0  0  0  0
 39 43  1  6  0  0  0
 39 46  1  0  0  0  0
 40 48  1  6  0  0  0
 40 50  1  0  0  0  0
 42 49  1  0  0  0  0
 42 43  1  0  0  0  0
 44 41  1  1  0  0  0
 44 40  1  0  0  0  0
 44 47  1  0  0  0  0
 45 46  1  0  0  0  0
 46 54  1  0  0  0  0
 49 47  1  6  0  0  0
 49 45  1  0  0  0  0
 50 51  1  1  0  0  0
 50 39  1  0  0  0  0
 51 52  2  0  0  0  0
 53 51  1  0  0  0  0
 54 55  1  0  0  0  0
M  END
>  <MODEL>
6

>  <REMARK>
 VINA RESULT:      -5.5      3.272      7.421
  Name = 
  15 active torsions:
  status: ('A' for Active; 'I' for Inactive)
    1  A    between atoms: C_1  and  C_53
    2  A    between atoms: C_2  and  C_28
    3  A    between atoms: C_2  and  C_49
    4  A    between atoms: C_8  and  C_20
    5  A    between atoms: C_8  and  C_22
    6  A    between atoms: C_10  and  C_32
    7  A    between atoms: C_11  and  N_38
    8  A    between atoms: C_19  and  C_40
    9  A    between atoms: C_22  and  C_43
   10  A    between atoms: C_27  and  C_54
   11  A    between atoms: C_28  and  C_44
   12  A    between atoms: C_33  and  C_52
   13  A    between atoms: C_40  and  C_45
   14  A    between atoms: C_43  and  C_51
   15  A    between atoms: C_51  and  C_54
                            x       y       z     vdW  Elec       q    Type
                         _______ _______ _______ _____ _____    ______ ____

>  <TORSDO>
F 15

$$$$
=
 OpenBabel11052415063D

 55 60  0  0  1  0  0  0  0  0999 V2000
  185.6020  177.7100  135.0950 N   0  0  0  0  0  0  0  0  0  0  0  0
  187.8850  176.2500  135.6300 C   0  0  0  0  0  0  0  0  0  0  0  0
  186.6480  175.8230  136.1210 C   0  0  0  0  0  3  0  0  0  0  0  0
  186.7960  178.1390  134.6040 C   0  0  0  0  0  3  0  0  0  0  0  0
  185.5050  176.5730  135.8380 C   0  0  0  0  0  0  0  0  0  0  0  0
  187.9610  177.4150  134.8650 C   0  0  0  0  0  3  0  0  0  0  0  0
  184.1930  176.1640  136.4040 C   0  0  0  0  0  2  0  0  0  0  0  0
  184.3670  175.7850  137.8670 C   0  0  0  0  0  2  0  0  0  0  0  0
  179.8010  178.0880  138.3000 C   0  0  0  0  0  2  0  0  0  0  0  0
  178.9740  180.0640  137.0250 C   0  0  0  0  0  1  0  0  0  0  0  0
  181.9000  179.0280  138.3430 C   0  0  0  0  0  0  0  0  0  0  0  0
  181.0220  180.0870  138.2780 O   0  0  0  0  0  0  0  0  0  0  0  0
  179.6810  179.6180  138.2880 C   0  0  2  0  0  3  0  0  0  0  0  0
  181.2740  177.8750  138.3950 C   0  0  0  0  0  0  0  0  0  0  0  0
  184.0680  178.0080  139.0500 C   0  0  2  0  0  3  0  0  0  0  0  0
  183.3860  179.1560  138.2920 C   0  0  0  0  0  2  0  0  0  0  0  0
  181.9880  176.5540  138.3430 C   0  0  1  0  0  3  0  0  0  0  0  0
  183.4710  176.6080  138.7840 C   0  0  1  0  0  3  0  0  0  0  0  0
  183.1020  178.1210  141.3470 C   0  0  0  0  0  3  0  0  0  0  0  0
  184.4160  178.8190  143.2670 C   0  0  0  0  0  0  0  0  0  0  0  0
  185.4300  178.7190  141.0620 C   0  0  0  0  0  3  0  0  0  0  0  0
  185.5300  178.9850  142.4300 C   0  0  0  0  0  3  0  0  0  0  0  0
  183.2020  178.3870  142.7160 C   0  0  0  0  0  3  0  0  0  0  0  0
  184.2140  178.2830  140.5150 C   0  0  0  0  0  0  0  0  0  0  0  0
  184.5150  179.1010  144.7070 C   0  0  0  0  0  0  0  0  0  0  0  0
  183.4980  179.0180  145.4450 O   0  0  0  0  0  1  0  0  0  0  0  0
  185.7360  179.4590  145.2690 O   0  0  0  0  0  0  0  0  0  0  0  0
  180.3830  175.8460  140.1590 C   0  0  0  0  0  1  0  0  0  0  0  0
  181.1790  175.3900  138.9500 C   0  0  1  0  0  3  0  0  0  0  0  0
  180.9330  174.3410  136.6220 C   0  0  0  0  0  1  0  0  0  0  0  0
  180.3140  174.5510  137.9940 C   0  0  0  0  0  3  0  0  0  0  0  0
  179.8910  173.2290  138.5980 C   0  0  0  0  0  1  0  0  0  0  0  0
  189.1250  175.4720  135.9230 C   0  0  0  0  0  2  0  0  0  0  0  0
  189.2510  174.2590  135.0060 C   0  0  0  0  0  2  0  0  0  0  0  0
  190.9120  172.3940  135.1450 C   0  0  0  0  0  1  0  0  0  0  0  0
  190.7120  173.8610  134.8120 C   0  0  2  0  0  3  0  0  0  0  0  0
  191.6590  174.7550  135.6130 C   0  0  0  0  0  2  0  0  0  0  0  0
  192.3320  174.0060  136.7620 C   0  0  0  0  0  2  0  0  0  0  0  0
  196.6820  173.1620  135.2400 C   0  0  2  0  0  3  0  0  0  0  0  0
  194.4380  174.5330  135.4520 C   0  0  1  0  0  3  0  0  0  0  0  0
  193.9940  175.5050  137.7240 C   0  0  0  0  0  1  0  0  0  0  0  0
  194.6670  171.7760  135.5690 O   0  0  0  0  0  0  0  0  0  0  0  0
  195.7590  172.0480  134.6990 C   0  0  0  0  0  2  0  0  0  0  0  0
  193.8400  174.2620  136.8640 C   0  0  1  0  0  0  0  0  0  0  0  0
  196.5260  171.7180  137.2170 C   0  0  0  0  0  2  0  0  0  0  0  0
  197.2540  172.8070  136.5540 N   0  0  0  0  0  0  0  0  0  0  0  0
  194.5000  173.1140  137.6590 C   0  0  0  0  0  2  0  0  0  0  0  0
  193.8040  175.7220  134.7350 C   0  0  0  0  0  1  0  0  0  0  0  0
  195.0220  171.8490  136.9470 C   0  0  1  0  0  3  0  0  0  0  0  0
  195.9720  174.5330  135.2720 C   0  0  1  0  0  3  0  0  0  0  0  0
  196.7210  175.6410  135.9550 C   0  0  0  0  0  0  0  0  0  0  0  0
  196.9770  175.5830  137.1860 O   0  0  0  0  0  0  0  0  0  0  0  0
  197.1360  176.7730  135.2020 N   0  0  0  0  0  1  0  0  0  0  0  0
  198.6490  172.4120  136.3780 C   0  0  0  0  0  2  0  0  0  0  0  0
  198.7890  171.0210  136.3910 O   0  0  0  0  0  1  0  0  0  0  0  0
  1  5  1  0  0  0  0
  2 33  1  0  0  0  0
  2  3  1  0  0  0  0
  4  6  1  0  0  0  0
  4  1  2  0  0  0  0
  5  3  2  0  0  0  0
  5  7  1  0  0  0  0
  6  2  2  0  0  0  0
  7  8  1  0  0  0  0
  9 14  1  0  0  0  0
 11 14  2  0  0  0  0
 12 13  1  0  0  0  0
 12 11  1  0  0  0  0
 13 10  1  6  0  0  0
 13  9  1  0  0  0  0
 15 24  1  1  0  0  0
 16 11  1  0  0  0  0
 16 15  1  0  0  0  0
 17 14  1  0  0  0  0
 17 18  1  0  0  0  0
 17 29  1  1  0  0  0
 18  8  1  6  0  0  0
 18 15  1  0  0  0  0
 19 23  1  0  0  0  0
 20 25  1  0  0  0  0
 21 22  2  0  0  0  0
 22 20  1  0  0  0  0
 23 20  2  0  0  0  0
 24 21  1  0  0  0  0
 24 19  2  0  0  0  0
 25 27  2  0  0  0  0
 25 26  1  0  0  0  0
 29 28  1  1  0  0  0
 30 31  1  0  0  0  0
 31 32  1  0  0  0  0
 31 29  1  0  0  0  0
 34 33  1  0  0  0  0
 36 34  1  0  0  0  0
 36 35  1  1  0  0  0
 36 37  1  0  0  0  0
 37 38  1  0  0  0  0
 38 44  1  0  0  0  0
 39 43  1  1  0  0  0
 39 50  1  0  0  0  0
 39 46  1  0  0  0  0
 40 48  1  1  0  0  0
 40 44  1  0  0  0  0
 42 49  1  0  0  0  0
 43 42  1  0  0  0  0
 44 47  1  0  0  0  0
 44 41  1  1  0  0  0
 46 45  1  0  0  0  0
 49 45  1  6  0  0  0
 49 47  1  0  0  0  0
 50 40  1  0  0  0  0
 50 51  1  1  0  0  0
 51 52  2  0  0  0  0
 53 51  1  0  0  0  0
 54 55  1  0  0  0  0
 54 46  1  0  0  0  0
M  END
>  <MODEL>
7

>  <REMARK>
 VINA RESULT:      -5.3      3.485      6.703
  Name = 
  15 active torsions:
  status: ('A' for Active; 'I' for Inactive)
    1  A    between atoms: C_1  and  C_53
    2  A    between atoms: C_2  and  C_28
    3  A    between atoms: C_2  and  C_49
    4  A    between atoms: C_8  and  C_20
    5  A    between atoms: C_8  and  C_22
    6  A    between atoms: C_10  and  C_32
    7  A    between atoms: C_11  and  N_38
    8  A    between atoms: C_19  and  C_40
    9  A    between atoms: C_22  and  C_43
   10  A    between atoms: C_27  and  C_54
   11  A    between atoms: C_28  and  C_44
   12  A    between atoms: C_33  and  C_52
   13  A    between atoms: C_40  and  C_45
   14  A    between atoms: C_43  and  C_51
   15  A    between atoms: C_51  and  C_54
                            x       y       z     vdW  Elec       q    Type
                         _______ _______ _______ _____ _____    ______ ____

>  <TORSDO>
F 15

$$$$
=
 OpenBabel11052415063D

 55 60  0  0  1  0  0  0  0  0999 V2000
  188.4010  178.0120  135.3580 N   0  0  0  0  0  0  0  0  0  0  0  0
  185.9060  177.5030  136.4270 C   0  0  0  0  0  0  0  0  0  0  0  0
  186.7850  178.3710  137.0800 C   0  0  0  0  0  3  0  0  0  0  0  0
  187.5570  177.1680  134.7050 C   0  0  0  0  0  3  0  0  0  0  0  0
  188.0420  178.6180  136.5230 C   0  0  0  0  0  0  0  0  0  0  0  0
  186.2920  176.8970  135.2300 C   0  0  0  0  0  3  0  0  0  0  0  0
  189.0090  179.4910  137.2360 C   0  0  0  0  0  2  0  0  0  0  0  0
  188.7240  179.4500  138.7300 C   0  0  0  0  0  2  0  0  0  0  0  0
  189.5170  176.7260  143.0070 C   0  0  0  0  0  2  0  0  0  0  0  0
  191.5960  176.6310  144.3790 C   0  0  0  0  0  1  0  0  0  0  0  0
  190.8080  176.8350  141.1060 C   0  0  0  0  0  0  0  0  0  0  0  0
  191.5630  176.1450  142.0280 O   0  0  0  0  0  0  0  0  0  0  0  0
  190.8390  175.9820  143.2390 C   0  0  2  0  0  3  0  0  0  0  0  0
  189.6280  177.1590  141.5850 C   0  0  0  0  0  0  0  0  0  0  0  0
  190.1150  177.3300  138.7580 C   0  0  2  0  0  3  0  0  0  0  0  0
  191.2840  177.2330  139.7490 C   0  0  0  0  0  2  0  0  0  0  0  0
  188.6530  178.0250  140.8370 C   0  0  1  0  0  3  0  0  0  0  0  0
  188.8580  178.0450  139.3030 C   0  0  1  0  0  3  0  0  0  0  0  0
  188.4370  175.6280  138.0420 C   0  0  0  0  0  3  0  0  0  0  0  0
  189.0860  173.5430  136.9790 C   0  0  0  0  0  0  0  0  0  0  0  0
  190.7770  175.1600  137.6360 C   0  0  0  0  0  3  0  0  0  0  0  0
  190.4320  173.9310  137.0660 C   0  0  0  0  0  3  0  0  0  0  0  0
  188.0920  174.3990  137.4710 C   0  0  0  0  0  3  0  0  0  0  0  0
  189.7780  176.0150  138.1240 C   0  0  0  0  0  0  0  0  0  0  0  0
  188.7190  172.2500  136.3830 C   0  0  0  0  0  0  0  0  0  0  0  0
  187.8090  171.5460  136.8970 O   0  0  0  0  0  1  0  0  0  0  0  0
  189.3720  171.7930  135.2430 O   0  0  0  0  0  0  0  0  0  0  0  0
  187.1170  177.2920  142.7030 C   0  0  0  0  0  1  0  0  0  0  0  0
  187.1900  177.8380  141.2880 C   0  0  1  0  0  3  0  0  0  0  0  0
  185.2760  178.8650  139.9240 C   0  0  0  0  0  1  0  0  0  0  0  0
  186.2310  179.0250  141.0950 C   0  0  0  0  0  3  0  0  0  0  0  0
  185.4740  179.3750  142.3590 C   0  0  0  0  0  1  0  0  0  0  0  0
  184.5600  177.2140  137.0040 C   0  0  0  0  0  2  0  0  0  0  0  0
  184.0540  175.8390  136.5760 C   0  0  0  0  0  2  0  0  0  0  0  0
  182.0250  174.4360  136.1650 C   0  0  0  0  0  1  0  0  0  0  0  0
  182.5520  175.7030  136.8130 C   0  0  2  0  0  3  0  0  0  0  0  0
  181.7850  176.9380  136.3420 C   0  0  0  0  0  2  0  0  0  0  0  0
  180.3240  176.9210  136.7880 C   0  0  0  0  0  2  0  0  0  0  0  0
  181.4240  179.0250  140.8260 C   0  0  2  0  0  3  0  0  0  0  0  0
  181.2610  178.8050  138.2030 C   0  0  1  0  0  3  0  0  0  0  0  0
  178.9310  178.8600  137.2710 C   0  0  0  0  0  1  0  0  0  0  0  0
  181.5790  176.7100  139.9860 O   0  0  0  0  0  0  0  0  0  0  0  0
  182.2510  177.7250  140.7200 C   0  0  0  0  0  2  0  0  0  0  0  0
  179.9980  177.9580  137.8690 C   0  0  1  0  0  0  0  0  0  0  0  0
  179.7500  177.3760  141.5300 C   0  0  0  0  0  2  0  0  0  0  0  0
  180.1280  178.7940  141.4940 N   0  0  0  0  0  0  0  0  0  0  0  0
  179.3310  177.2510  139.0690 C   0  0  0  0  0  2  0  0  0  0  0  0
  181.8410  179.5420  136.9990 C   0  0  0  0  0  1  0  0  0  0  0  0
  180.1750  176.6840  140.2290 C   0  0  1  0  0  3  0  0  0  0  0  0
  181.2500  179.7110  139.4540 C   0  0  1  0  0  3  0  0  0  0  0  0
  180.3060  180.8770  139.4210 C   0  0  0  0  0  0  0  0  0  0  0  0
  179.1830  180.8150  139.9880 O   0  0  0  0  0  0  0  0  0  0  0  0
  180.6810  182.0620  138.7320 N   0  0  0  0  0  1  0  0  0  0  0  0
  180.1960  179.3050  142.8620 C   0  0  0  0  0  2  0  0  0  0  0  0
  179.0690  180.0710  143.1750 O   0  0  0  0  0  1  0  0  0  0  0  0
  1  5  1  0  0  0  0
  2 33  1  0  0  0  0
  2  3  1  0  0  0  0
  4  6  1  0  0  0  0
  4  1  2  0  0  0  0
  5  3  2  0  0  0  0
  5  7  1  0  0  0  0
  6  2  2  0  0  0  0
  7  8  1  0  0  0  0
  9 13  1  0  0  0  0
 11 14  2  0  0  0  0
 11 12  1  0  0  0  0
 12 13  1  0  0  0  0
 13 10  1  1  0  0  0
 14  9  1  0  0  0  0
 15 24  1  1  0  0  0
 15 18  1  0  0  0  0
 15 16  1  0  0  0  0
 16 11  1  0  0  0  0
 17 29  1  6  0  0  0
 17 14  1  0  0  0  0
 18  8  1  1  0  0  0
 18 17  1  0  0  0  0
 19 24  1  0  0  0  0
 20 22  2  0  0  0  0
 20 23  1  0  0  0  0
 21 24  2  0  0  0  0
 22 21  1  0  0  0  0
 23 19  2  0  0  0  0
 25 26  1  0  0  0  0
 25 20  1  0  0  0  0
 27 25  2  0  0  0  0
 29 28  1  1  0  0  0
 30 31  1  0  0  0  0
 31 29  1  0  0  0  0
 31 32  1  0  0  0  0
 34 36  1  0  0  0  0
 34 33  1  0  0  0  0
 36 35  1  6  0  0  0
 37 38  1  0  0  0  0
 37 36  1  0  0  0  0
 38 44  1  0  0  0  0
 39 43  1  6  0  0  0
 39 46  1  0  0  0  0
 40 48  1  6  0  0  0
 40 50  1  0  0  0  0
 42 49  1  0  0  0  0
 42 43  1  0  0  0  0
 44 41  1  6  0  0  0
 44 40  1  0  0  0  0
 44 47  1  0  0  0  0
 46 45  1  0  0  0  0
 46 54  1  0  0  0  0
 49 47  1  6  0  0  0
 49 45  1  0  0  0  0
 50 51  1  1  0  0  0
 50 39  1  0  0  0  0
 51 52  2  0  0  0  0
 53 51  1  0  0  0  0
 54 55  1  0  0  0  0
M  END
>  <MODEL>
8

>  <REMARK>
 VINA RESULT:      -5.2      2.453     10.170
  Name = 
  15 active torsions:
  status: ('A' for Active; 'I' for Inactive)
    1  A    between atoms: C_1  and  C_53
    2  A    between atoms: C_2  and  C_28
    3  A    between atoms: C_2  and  C_49
    4  A    between atoms: C_8  and  C_20
    5  A    between atoms: C_8  and  C_22
    6  A    between atoms: C_10  and  C_32
    7  A    between atoms: C_11  and  N_38
    8  A    between atoms: C_19  and  C_40
    9  A    between atoms: C_22  and  C_43
   10  A    between atoms: C_27  and  C_54
   11  A    between atoms: C_28  and  C_44
   12  A    between atoms: C_33  and  C_52
   13  A    between atoms: C_40  and  C_45
   14  A    between atoms: C_43  and  C_51
   15  A    between atoms: C_51  and  C_54
                            x       y       z     vdW  Elec       q    Type
                         _______ _______ _______ _____ _____    ______ ____

>  <TORSDO>
F 15

$$$$
