=
 OpenBabel11052415253D

 37 40  0  0  1  0  0  0  0  0999 V2000
  182.5710  179.7570  138.7990 C   0  0  0  0  0  2  0  0  0  0  0  0
  181.4470  176.5060  136.1580 C   0  0  0  0  0  2  0  0  0  0  0  0
  186.7470  178.0440  137.9650 C   0  0  0  0  0  2  0  0  0  0  0  0
  182.4930  178.8100  137.5960 C   0  0  2  0  0  3  0  0  0  0  0  0
  185.3000  178.1920  138.3300 C   0  0  0  0  0  0  0  0  0  0  0  0
  181.1790  178.8630  136.9370 N   0  0  0  0  0  0  0  0  0  0  0  0
  184.9960  179.1620  139.1400 N   0  0  0  0  0  0  0  0  0  0  0  0
  184.3390  177.1050  137.8250 C   0  0  2  0  0  3  0  0  0  0  0  0
  186.0680  176.5280  136.0750 C   0  0  0  0  0  2  0  0  0  0  0  0
  183.7230  179.4570  139.7750 C   0  0  2  0  0  3  0  0  0  0  0  0
  184.5990  176.8260  136.3370 C   0  0  0  0  0  2  0  0  0  0  0  0
  181.2220  177.9770  135.7730 C   0  0  0  0  0  2  0  0  0  0  0  0
  182.8460  177.3910  138.0580 C   0  0  2  0  0  3  0  0  0  0  0  0
  186.9080  177.7390  136.4750 C   0  0  2  0  0  3  0  0  0  0  0  0
  181.8180  176.2950  137.6340 C   0  0  1  0  0  0  0  0  0  0  0  0
  188.3000  177.5490  136.1280 N   0  0  0  0  0  0  0  0  0  0  0  0
  189.2530  178.1400  136.7570 C   0  0  0  0  0  2  0  0  0  0  0  0
  184.1920  178.1330  141.6750 O   0  0  0  0  0  0  0  0  0  0  0  0
  183.3780  178.4430  140.8220 C   0  0  0  0  0  3  0  0  0  0  0  0
  180.6200  176.4170  138.3870 O   0  0  0  0  0  0  0  0  0  0  0  0
  180.8230  175.9590  139.7020 C   0  0  0  0  0  2  0  0  0  0  0  0
  179.7080  177.7820  140.2440 C   0  0  0  0  0  1  0  0  0  0  0  0
  179.7900  176.4180  140.5180 O   0  0  0  0  0  0  0  0  0  0  0  0
  182.4190  174.8790  137.7810 C   0  0  0  0  0  2  0  0  0  0  0  0
  182.3160  174.0660  136.4990 C   0  0  0  0  0  2  0  0  0  0  0  0
  183.5710  173.3770  136.2610 N   0  0  0  0  0  2  0  0  0  0  0  0
  185.7200  173.0540  137.3320 C   0  0  0  0  0  1  0  0  0  0  0  0
  184.2360  173.2660  137.5470 C   0  0  0  0  0  2  0  0  0  0  0  0
  180.9900  180.2000  136.3910 C   0  0  0  0  0  2  0  0  0  0  0  0
  179.8740  180.9050  137.1400 C   0  0  0  0  0  2  0  0  0  0  0  0
  180.6790  182.9230  135.9020 C   0  0  0  0  0  3  0  0  0  0  0  0
  180.0320  182.3790  137.0160 C   0  0  0  0  0  0  0  0  0  0  0  0
  179.5600  183.2210  138.0280 C   0  0  0  0  0  3  0  0  0  0  0  0
  179.2670  185.4180  138.9010 F   0  0  0  0  0  0  0  0  0  0  0  0
  180.3680  185.1480  136.8050 C   0  0  0  0  0  3  0  0  0  0  0  0
  179.7260  184.6040  137.9210 C   0  0  0  0  0  0  0  0  0  0  0  0
  180.8450  184.3070  135.7960 C   0  0  0  0  0  3  0  0  0  0  0  0
  1 10  1  0  0  0  0
  2 15  1  0  0  0  0
  3  5  1  0  0  0  0
  4 13  1  0  0  0  0
  4  1  1  1  0  0  0
  5  7  2  0  0  0  0
  6  4  1  0  0  0  0
  7 10  1  0  0  0  0
  8 11  1  6  0  0  0
  8 13  1  0  0  0  0
  8  5  1  0  0  0  0
  9 11  1  0  0  0  0
  9 14  1  0  0  0  0
 10 19  1  6  0  0  0
 12  2  1  0  0  0  0
 12  6  1  0  0  0  0
 14  3  1  0  0  0  0
 15 24  1  0  0  0  0
 15 13  1  0  0  0  0
 15 20  1  0  0  0  0
 16 14  1  0  0  0  0
 16 17  2  0  0  0  0
 19 18  2  0  0  0  0
 20 21  1  0  0  0  0
 21 23  1  0  0  0  0
 22 23  1  0  0  0  0
 25 24  1  0  0  0  0
 26 25  1  0  0  0  0
 26 28  1  0  0  0  0
 27 28  1  0  0  0  0
 29  6  1  0  0  0  0
 29 30  1  0  0  0  0
 31 32  1  0  0  0  0
 32 30  1  0  0  0  0
 32 33  2  0  0  0  0
 35 36  2  0  0  0  0
 36 33  1  0  0  0  0
 36 34  1  0  0  0  0
 37 31  2  0  0  0  0
 37 35  1  0  0  0  0
M  END
>  <MODEL>
1

>  <REMARK>
 VINA RESULT:      -5.2      0.000      0.000
  Name = 
  12 active torsions:
  status: ('A' for Active; 'I' for Inactive)
    1  A    between atoms: O_1  and  C_5
    2  A    between atoms: O_1  and  C_36
    3  A    between atoms: N_3  and  C_32
    4  A    between atoms: C_5  and  O_23
    5  A    between atoms: C_6  and  C_31
    6  A    between atoms: N_14  and  C_37
    7  A    between atoms: C_17  and  N_26
    8  A    between atoms: C_17  and  C_33
    9  A    between atoms: CA_24  and  C_28
   10  A    between atoms: N_26  and  C_34
   11  A    between atoms: C_31  and  C_37
   12  A    between atoms: C_33  and  C_36
                            x       y       z     vdW  Elec       q    Type
                         _______ _______ _______ _____ _____    ______ ____

>  <TORSDO>
F 12

$$$$
=
 OpenBabel11052415253D

 37 40  0  0  1  0  0  0  0  0999 V2000
  188.0800  177.9760  137.3030 C   0  0  0  0  0  2  0  0  0  0  0  0
  190.9370  174.7150  137.4190 C   0  0  0  0  0  2  0  0  0  0  0  0
  185.1960  174.4790  136.5740 C   0  0  0  0  0  2  0  0  0  0  0  0
  188.7860  176.6620  137.6560 C   0  0  2  0  0  3  0  0  0  0  0  0
  186.3520  175.4330  136.4890 C   0  0  0  0  0  0  0  0  0  0  0  0
  190.0880  176.8920  138.3000 N   0  0  0  0  0  0  0  0  0  0  0  0
  186.0650  176.7000  136.4860 N   0  0  0  0  0  0  0  0  0  0  0  0
  187.7450  174.8220  136.2780 C   0  0  2  0  0  3  0  0  0  0  0  0
  186.8140  172.6410  137.1530 C   0  0  0  0  0  2  0  0  0  0  0  0
  186.9470  177.8350  136.2690 C   0  0  2  0  0  3  0  0  0  0  0  0
  187.9540  173.6460  137.2430 C   0  0  0  0  0  2  0  0  0  0  0  0
  190.6540  175.5880  138.6520 C   0  0  0  0  0  2  0  0  0  0  0  0
  188.9170  175.8120  136.3860 C   0  0  2  0  0  3  0  0  0  0  0  0
  185.5040  173.3280  137.5320 C   0  0  2  0  0  3  0  0  0  0  0  0
  190.3560  175.2720  136.1100 C   0  0  1  0  0  0  0  0  0  0  0  0
  184.4110  172.3820  137.5800 N   0  0  0  0  0  0  0  0  0  0  0  0
  184.0520  171.6920  136.5560 C   0  0  0  0  0  2  0  0  0  0  0  0
  188.5700  178.2090  134.5940 O   0  0  0  0  0  0  0  0  0  0  0  0
  187.4150  177.9110  134.8490 C   0  0  0  0  0  3  0  0  0  0  0  0
  191.2110  176.3250  135.6900 O   0  0  0  0  0  0  0  0  0  0  0  0
  192.4760  175.8160  135.3430 C   0  0  0  0  0  2  0  0  0  0  0  0
  194.5020  175.4910  136.1500 C   0  0  0  0  0  1  0  0  0  0  0  0
  193.4500  176.4060  136.1460 O   0  0  0  0  0  0  0  0  0  0  0  0
  190.3350  174.1310  135.0700 C   0  0  0  0  0  2  0  0  0  0  0  0
  190.7610  172.7950  135.6600 C   0  0  0  0  0  2  0  0  0  0  0  0
  191.8090  172.2160  134.8400 N   0  0  0  0  0  2  0  0  0  0  0  0
  193.3580  170.6230  135.8050 C   0  0  0  0  0  1  0  0  0  0  0  0
  192.9790  172.0850  135.6890 C   0  0  0  0  0  2  0  0  0  0  0  0
  189.8620  177.5640  139.5720 C   0  0  0  0  0  2  0  0  0  0  0  0
  190.9520  177.1790  140.5550 C   0  0  0  0  0  2  0  0  0  0  0  0
  191.2090  177.8610  142.9470 C   0  0  0  0  0  3  0  0  0  0  0  0
  190.4350  177.2640  141.9470 C   0  0  0  0  0  0  0  0  0  0  0  0
  189.1860  176.7210  142.2630 C   0  0  0  0  0  3  0  0  0  0  0  0
  187.4980  176.2560  143.8800 F   0  0  0  0  0  0  0  0  0  0  0  0
  189.4790  177.3840  144.5730 C   0  0  0  0  0  3  0  0  0  0  0  0
  188.7080  176.7830  143.5750 C   0  0  0  0  0  0  0  0  0  0  0  0
  190.7300  177.9230  144.2600 C   0  0  0  0  0  3  0  0  0  0  0  0
  2 12  1  0  0  0  0
  3 14  1  0  0  0  0
  4  1  1  6  0  0  0
  4  6  1  0  0  0  0
  5  3  1  0  0  0  0
  6 12  1  0  0  0  0
  6 29  1  0  0  0  0
  7  5  2  0  0  0  0
  8 13  1  0  0  0  0
  8  5  1  0  0  0  0
  8 11  1  1  0  0  0
  9 11  1  0  0  0  0
  9 14  1  0  0  0  0
 10 19  1  6  0  0  0
 10  7  1  0  0  0  0
 10  1  1  0  0  0  0
 13  4  1  0  0  0  0
 14 16  1  0  0  0  0
 15 13  1  0  0  0  0
 15  2  1  0  0  0  0
 17 16  2  0  0  0  0
 18 19  2  0  0  0  0
 20 15  1  0  0  0  0
 21 20  1  0  0  0  0
 21 23  1  0  0  0  0
 23 22  1  0  0  0  0
 24 25  1  0  0  0  0
 24 15  1  0  0  0  0
 26 25  1  0  0  0  0
 26 28  1  0  0  0  0
 28 27  1  0  0  0  0
 29 30  1  0  0  0  0
 30 32  1  0  0  0  0
 31 37  1  0  0  0  0
 32 33  1  0  0  0  0
 32 31  2  0  0  0  0
 33 36  2  0  0  0  0
 36 34  1  0  0  0  0
 36 35  1  0  0  0  0
 37 35  2  0  0  0  0
M  END
>  <MODEL>
2

>  <REMARK>
 VINA RESULT:      -4.7      6.184      9.663
  Name = 
  12 active torsions:
  status: ('A' for Active; 'I' for Inactive)
    1  A    between atoms: O_1  and  C_5
    2  A    between atoms: O_1  and  C_36
    3  A    between atoms: N_3  and  C_32
    4  A    between atoms: C_5  and  O_23
    5  A    between atoms: C_6  and  C_31
    6  A    between atoms: N_14  and  C_37
    7  A    between atoms: C_17  and  N_26
    8  A    between atoms: C_17  and  C_33
    9  A    between atoms: CA_24  and  C_28
   10  A    between atoms: N_26  and  C_34
   11  A    between atoms: C_31  and  C_37
   12  A    between atoms: C_33  and  C_36
                            x       y       z     vdW  Elec       q    Type
                         _______ _______ _______ _____ _____    ______ ____

>  <TORSDO>
F 12

$$$$
=
 OpenBabel11052415253D

 37 40  0  0  1  0  0  0  0  0999 V2000
  182.9380  176.8120  139.4040 C   0  0  0  0  0  2  0  0  0  0  0  0
  179.0910  178.4110  140.6060 C   0  0  0  0  0  2  0  0  0  0  0  0
  184.2210  178.9060  143.2820 C   0  0  0  0  0  2  0  0  0  0  0  0
  181.6900  177.1580  140.2230 C   0  0  2  0  0  3  0  0  0  0  0  0
  183.6290  178.6080  141.9360 C   0  0  0  0  0  0  0  0  0  0  0  0
  180.4720  176.5640  139.6490 N   0  0  0  0  0  0  0  0  0  0  0  0
  184.3970  178.0010  141.0800 N   0  0  0  0  0  0  0  0  0  0  0  0
  182.2270  179.1670  141.6520 C   0  0  2  0  0  3  0  0  0  0  0  0
  181.9030  179.3550  144.1510 C   0  0  0  0  0  2  0  0  0  0  0  0
  184.1540  177.7180  139.6760 C   0  0  2  0  0  3  0  0  0  0  0  0
  181.2970  178.8780  142.8390 C   0  0  0  0  0  2  0  0  0  0  0  0
  179.3500  176.8980  140.5280 C   0  0  0  0  0  2  0  0  0  0  0  0
  181.5820  178.6840  140.3420 C   0  0  2  0  0  3  0  0  0  0  0  0
  183.2170  178.6180  144.3980 C   0  0  2  0  0  3  0  0  0  0  0  0
  180.1870  179.2690  139.9560 C   0  0  1  0  0  0  0  0  0  0  0  0
  183.7670  178.9490  145.6950 N   0  0  0  0  0  0  0  0  0  0  0  0
  185.0250  178.8630  145.9510 C   0  0  0  0  0  2  0  0  0  0  0  0
  185.2240  179.3970  138.4050 O   0  0  0  0  0  0  0  0  0  0  0  0
  184.1730  178.9650  138.8470 C   0  0  0  0  0  3  0  0  0  0  0  0
  179.9910  179.2020  138.5510 O   0  0  0  0  0  0  0  0  0  0  0  0
  181.1270  179.6850  137.8770 C   0  0  0  0  0  2  0  0  0  0  0  0
  180.1990  179.4360  135.8920 C   0  0  0  0  0  1  0  0  0  0  0  0
  181.2740  179.0060  136.6690 O   0  0  0  0  0  0  0  0  0  0  0  0
  180.0300  180.7180  140.4650 C   0  0  0  0  0  2  0  0  0  0  0  0
  178.9310  181.4770  139.7350 C   0  0  0  0  0  2  0  0  0  0  0  0
  179.5020  182.6340  139.0700 N   0  0  0  0  0  2  0  0  0  0  0  0
  179.9860  183.1500  136.7530 C   0  0  0  0  0  1  0  0  0  0  0  0
  178.9370  182.6670  137.7330 C   0  0  0  0  0  2  0  0  0  0  0  0
  180.5900  175.1140  139.7170 C   0  0  0  0  0  2  0  0  0  0  0  0
  179.7950  174.4840  138.5890 C   0  0  0  0  0  2  0  0  0  0  0  0
  180.3880  172.2960  137.5310 C   0  0  0  0  0  3  0  0  0  0  0  0
  180.6880  173.6460  137.7440 C   0  0  0  0  0  0  0  0  0  0  0  0
  181.8450  174.1980  137.1870 C   0  0  0  0  0  3  0  0  0  0  0  0
  183.8150  173.9430  135.8710 F   0  0  0  0  0  0  0  0  0  0  0  0
  182.3920  172.0590  136.1930 C   0  0  0  0  0  3  0  0  0  0  0  0
  182.6950  173.4060  136.4100 C   0  0  0  0  0  0  0  0  0  0  0  0
  181.2390  171.5040  136.7540 C   0  0  0  0  0  3  0  0  0  0  0  0
  1 10  1  0  0  0  0
  3 14  1  0  0  0  0
  4  1  1  6  0  0  0
  4 13  1  0  0  0  0
  5  3  1  0  0  0  0
  6 29  1  0  0  0  0
  6  4  1  0  0  0  0
  6 12  1  0  0  0  0
  7  5  2  0  0  0  0
  8  5  1  0  0  0  0
  8 11  1  1  0  0  0
  9 14  1  0  0  0  0
 10 19  1  6  0  0  0
 10  7  1  0  0  0  0
 11  9  1  0  0  0  0
 12  2  1  0  0  0  0
 13  8  1  0  0  0  0
 14 16  1  0  0  0  0
 15 13  1  0  0  0  0
 15 24  1  0  0  0  0
 15  2  1  0  0  0  0
 16 17  2  0  0  0  0
 18 19  2  0  0  0  0
 20 15  1  0  0  0  0
 21 20  1  0  0  0  0
 22 23  1  0  0  0  0
 23 21  1  0  0  0  0
 25 24  1  0  0  0  0
 26 25  1  0  0  0  0
 27 28  1  0  0  0  0
 28 26  1  0  0  0  0
 30 29  1  0  0  0  0
 31 32  1  0  0  0  0
 32 30  1  0  0  0  0
 33 32  2  0  0  0  0
 34 36  1  0  0  0  0
 35 36  2  0  0  0  0
 35 37  1  0  0  0  0
 36 33  1  0  0  0  0
 37 31  2  0  0  0  0
M  END
>  <MODEL>
3

>  <REMARK>
 VINA RESULT:      -4.5      3.421      7.736
  Name = 
  12 active torsions:
  status: ('A' for Active; 'I' for Inactive)
    1  A    between atoms: O_1  and  C_5
    2  A    between atoms: O_1  and  C_36
    3  A    between atoms: N_3  and  C_32
    4  A    between atoms: C_5  and  O_23
    5  A    between atoms: C_6  and  C_31
    6  A    between atoms: N_14  and  C_37
    7  A    between atoms: C_17  and  N_26
    8  A    between atoms: C_17  and  C_33
    9  A    between atoms: CA_24  and  C_28
   10  A    between atoms: N_26  and  C_34
   11  A    between atoms: C_31  and  C_37
   12  A    between atoms: C_33  and  C_36
                            x       y       z     vdW  Elec       q    Type
                         _______ _______ _______ _____ _____    ______ ____

>  <TORSDO>
F 12

$$$$
=
 OpenBabel11052415253D

 37 40  0  0  1  0  0  0  0  0999 V2000
  182.8120  177.5630  140.5820 C   0  0  0  0  0  2  0  0  0  0  0  0
  181.2270  175.9720  136.8720 C   0  0  0  0  0  2  0  0  0  0  0  0
  182.1460  181.5150  138.3430 C   0  0  0  0  0  2  0  0  0  0  0  0
  181.9140  177.3050  139.3670 C   0  0  2  0  0  3  0  0  0  0  0  0
  182.5690  180.1230  138.7100 C   0  0  0  0  0  0  0  0  0  0  0  0
  181.3680  175.9390  139.3650 N   0  0  0  0  0  0  0  0  0  0  0  0
  183.1110  179.9650  139.8810 N   0  0  0  0  0  0  0  0  0  0  0  0
  182.4470  179.0470  137.6210 C   0  0  2  0  0  3  0  0  0  0  0  0
  180.7860  180.5550  136.4560 C   0  0  0  0  0  2  0  0  0  0  0  0
  183.7410  178.7830  140.4440 C   0  0  2  0  0  3  0  0  0  0  0  0
  181.0720  179.1410  136.9430 C   0  0  0  0  0  2  0  0  0  0  0  0
  180.4820  175.8100  138.2060 C   0  0  0  0  0  2  0  0  0  0  0  0
  182.7090  177.6070  138.0900 C   0  0  2  0  0  3  0  0  0  0  0  0
  180.7840  181.5090  137.6490 C   0  0  2  0  0  3  0  0  0  0  0  0
  182.6730  176.4720  137.0190 C   0  0  1  0  0  0  0  0  0  0  0  0
  180.3940  182.8440  137.2510 N   0  0  0  0  0  0  0  0  0  0  0  0
  180.7870  183.3760  136.1480 C   0  0  0  0  0  2  0  0  0  0  0  0
  186.0740  179.0060  140.1480 O   0  0  0  0  0  0  0  0  0  0  0  0
  185.0440  178.4750  139.7710 C   0  0  0  0  0  3  0  0  0  0  0  0
  183.4560  175.3640  137.4390 O   0  0  0  0  0  0  0  0  0  0  0  0
  183.1870  174.2430  136.6320 C   0  0  0  0  0  2  0  0  0  0  0  0
  184.9360  173.2940  137.5820 C   0  0  0  0  0  1  0  0  0  0  0  0
  183.5870  173.0860  137.2970 O   0  0  0  0  0  0  0  0  0  0  0  0
  183.1460  176.9880  135.6420 C   0  0  0  0  0  2  0  0  0  0  0  0
  184.6450  177.2440  135.5980 C   0  0  0  0  0  2  0  0  0  0  0  0
  185.2740  176.2840  134.7090 N   0  0  0  0  0  2  0  0  0  0  0  0
  186.6790  176.5420  136.6650 C   0  0  0  0  0  1  0  0  0  0  0  0
  186.5970  176.0240  135.2440 C   0  0  0  0  0  2  0  0  0  0  0  0
  180.5020  175.7870  140.5250 C   0  0  0  0  0  2  0  0  0  0  0  0
  179.2560  176.6350  140.3470 C   0  0  0  0  0  2  0  0  0  0  0  0
  179.2660  179.1340  140.4560 C   0  0  0  0  0  3  0  0  0  0  0  0
  179.3920  177.9040  141.1110 C   0  0  0  0  0  0  0  0  0  0  0  0
  179.6770  177.8700  142.4800 C   0  0  0  0  0  3  0  0  0  0  0  0
  180.1000  179.0270  144.5190 F   0  0  0  0  0  0  0  0  0  0  0  0
  179.6940  180.2900  142.5400 C   0  0  0  0  0  3  0  0  0  0  0  0
  179.8250  179.0620  143.1930 C   0  0  0  0  0  0  0  0  0  0  0  0
  179.4150  180.3260  141.1710 C   0  0  0  0  0  3  0  0  0  0  0  0
  2 15  1  0  0  0  0
  2 12  1  0  0  0  0
  3  5  1  0  0  0  0
  4  1  1  1  0  0  0
  5  7  2  0  0  0  0
  6  4  1  0  0  0  0
  6 29  1  0  0  0  0
  7 10  1  0  0  0  0
  8 11  1  1  0  0  0
  8 13  1  0  0  0  0
  8  5  1  0  0  0  0
  9 11  1  0  0  0  0
  9 14  1  0  0  0  0
 10 19  1  6  0  0  0
 10  1  1  0  0  0  0
 12  6  1  0  0  0  0
 13  4  1  0  0  0  0
 14  3  1  0  0  0  0
 15 20  1  0  0  0  0
 15 13  1  0  0  0  0
 16 14  1  0  0  0  0
 17 16  2  0  0  0  0
 19 18  2  0  0  0  0
 21 23  1  0  0  0  0
 21 20  1  0  0  0  0
 23 22  1  0  0  0  0
 24 15  1  0  0  0  0
 25 24  1  0  0  0  0
 26 28  1  0  0  0  0
 26 25  1  0  0  0  0
 28 27  1  0  0  0  0
 30 29  1  0  0  0  0
 30 32  1  0  0  0  0
 31 32  2  0  0  0  0
 31 37  1  0  0  0  0
 32 33  1  0  0  0  0
 33 36  2  0  0  0  0
 35 36  1  0  0  0  0
 36 34  1  0  0  0  0
 37 35  2  0  0  0  0
M  END
>  <MODEL>
4

>  <REMARK>
 VINA RESULT:      -4.3      2.457      5.277
  Name = 
  12 active torsions:
  status: ('A' for Active; 'I' for Inactive)
    1  A    between atoms: O_1  and  C_5
    2  A    between atoms: O_1  and  C_36
    3  A    between atoms: N_3  and  C_32
    4  A    between atoms: C_5  and  O_23
    5  A    between atoms: C_6  and  C_31
    6  A    between atoms: N_14  and  C_37
    7  A    between atoms: C_17  and  N_26
    8  A    between atoms: C_17  and  C_33
    9  A    between atoms: CA_24  and  C_28
   10  A    between atoms: N_26  and  C_34
   11  A    between atoms: C_31  and  C_37
   12  A    between atoms: C_33  and  C_36
                            x       y       z     vdW  Elec       q    Type
                         _______ _______ _______ _____ _____    ______ ____

>  <TORSDO>
F 12

$$$$
=
 OpenBabel11052415253D

 37 40  0  0  1  0  0  0  0  0999 V2000
  186.0760  176.5260  137.4700 C   0  0  0  0  0  2  0  0  0  0  0  0
  181.7920  176.8740  138.0530 C   0  0  0  0  0  2  0  0  0  0  0  0
  186.0850  179.0020  141.3350 C   0  0  0  0  0  2  0  0  0  0  0  0
  184.6770  176.4850  138.0950 C   0  0  2  0  0  3  0  0  0  0  0  0
  185.8120  178.5040  139.9460 C   0  0  0  0  0  0  0  0  0  0  0  0
  183.7940  175.5280  137.4080 N   0  0  0  0  0  0  0  0  0  0  0  0
  186.8430  178.1480  139.2400 N   0  0  0  0  0  0  0  0  0  0  0  0
  184.3630  178.5930  139.4460 C   0  0  2  0  0  3  0  0  0  0  0  0
  183.6400  178.7270  141.8640 C   0  0  0  0  0  2  0  0  0  0  0  0
  186.9040  177.7710  137.8380 C   0  0  2  0  0  3  0  0  0  0  0  0
  183.4050  178.0550  140.5180 C   0  0  0  0  0  2  0  0  0  0  0  0
  182.5100  175.5160  138.1100 C   0  0  0  0  0  2  0  0  0  0  0  0
  184.0930  177.9030  138.0980 C   0  0  2  0  0  3  0  0  0  0  0  0
  185.0670  178.4410  142.3280 C   0  0  2  0  0  3  0  0  0  0  0  0
  182.6570  178.0160  137.4950 C   0  0  1  0  0  0  0  0  0  0  0  0
  185.2970  178.9550  143.6600 N   0  0  0  0  0  0  0  0  0  0  0  0
  184.4370  178.8230  144.6070 C   0  0  0  0  0  2  0  0  0  0  0  0
  187.5480  179.7520  136.7240 O   0  0  0  0  0  0  0  0  0  0  0  0
  186.6610  178.9430  136.9370 C   0  0  0  0  0  3  0  0  0  0  0  0
  182.6950  177.8600  136.0850 O   0  0  0  0  0  0  0  0  0  0  0  0
  181.5910  178.5020  135.4940 C   0  0  0  0  0  2  0  0  0  0  0  0
  179.5300  178.0660  134.8430 C   0  0  0  0  0  1  0  0  0  0  0  0
  180.8310  177.5670  134.7930 O   0  0  0  0  0  0  0  0  0  0  0  0
  181.9930  179.3550  137.8830 C   0  0  0  0  0  2  0  0  0  0  0  0
  180.6960  179.1610  138.6570 C   0  0  0  0  0  2  0  0  0  0  0  0
  179.8960  180.3690  138.5710 N   0  0  0  0  0  2  0  0  0  0  0  0
  180.0370  180.0370  140.9660 C   0  0  0  0  0  1  0  0  0  0  0  0
  180.0360  181.0530  139.8430 C   0  0  0  0  0  2  0  0  0  0  0  0
  184.3380  174.1890  137.5860 C   0  0  0  0  0  2  0  0  0  0  0  0
  183.6760  173.2350  136.6090 C   0  0  0  0  0  2  0  0  0  0  0  0
  184.2640  171.0830  135.4780 C   0  0  0  0  0  3  0  0  0  0  0  0
  184.6810  172.2780  136.0740 C   0  0  0  0  0  0  0  0  0  0  0  0
  186.0460  172.5570  136.1930 C   0  0  0  0  0  3  0  0  0  0  0  0
  188.3130  171.9220  135.8250 F   0  0  0  0  0  0  0  0  0  0  0  0
  186.5740  170.4580  135.1090 C   0  0  0  0  0  3  0  0  0  0  0  0
  186.9910  171.6490  135.7090 C   0  0  0  0  0  0  0  0  0  0  0  0
  185.2100  170.1750  134.9930 C   0  0  0  0  0  3  0  0  0  0  0  0
  1 10  1  0  0  0  0
  2 12  1  0  0  0  0
  3 14  1  0  0  0  0
  4  1  1  6  0  0  0
  4 13  1  0  0  0  0
  5  3  1  0  0  0  0
  6 29  1  0  0  0  0
  6  4  1  0  0  0  0
  6 12  1  0  0  0  0
  7  5  2  0  0  0  0
  8  5  1  0  0  0  0
  8 11  1  1  0  0  0
  9 14  1  0  0  0  0
 10 19  1  6  0  0  0
 10  7  1  0  0  0  0
 11  9  1  0  0  0  0
 13  8  1  0  0  0  0
 14 16  1  0  0  0  0
 15 24  1  0  0  0  0
 15  2  1  0  0  0  0
 15 13  1  0  0  0  0
 16 17  2  0  0  0  0
 18 19  2  0  0  0  0
 20 15  1  0  0  0  0
 21 20  1  0  0  0  0
 23 22  1  0  0  0  0
 23 21  1  0  0  0  0
 24 25  1  0  0  0  0
 26 25  1  0  0  0  0
 26 28  1  0  0  0  0
 28 27  1  0  0  0  0
 30 29  1  0  0  0  0
 31 32  1  0  0  0  0
 32 33  2  0  0  0  0
 32 30  1  0  0  0  0
 35 36  2  0  0  0  0
 36 34  1  0  0  0  0
 36 33  1  0  0  0  0
 37 35  1  0  0  0  0
 37 31  2  0  0  0  0
M  END
>  <MODEL>
5

>  <REMARK>
 VINA RESULT:      -4.0      3.803      8.007
  Name = 
  12 active torsions:
  status: ('A' for Active; 'I' for Inactive)
    1  A    between atoms: O_1  and  C_5
    2  A    between atoms: O_1  and  C_36
    3  A    between atoms: N_3  and  C_32
    4  A    between atoms: C_5  and  O_23
    5  A    between atoms: C_6  and  C_31
    6  A    between atoms: N_14  and  C_37
    7  A    between atoms: C_17  and  N_26
    8  A    between atoms: C_17  and  C_33
    9  A    between atoms: CA_24  and  C_28
   10  A    between atoms: N_26  and  C_34
   11  A    between atoms: C_31  and  C_37
   12  A    between atoms: C_33  and  C_36
                            x       y       z     vdW  Elec       q    Type
                         _______ _______ _______ _____ _____    ______ ____

>  <TORSDO>
F 12

$$$$
=
 OpenBabel11052415253D

 37 40  0  0  1  0  0  0  0  0999 V2000
  186.1200  176.3590  137.2320 C   0  0  0  0  0  2  0  0  0  0  0  0
  181.8890  176.8660  138.0360 C   0  0  0  0  0  2  0  0  0  0  0  0
  186.4220  178.7720  141.1250 C   0  0  0  0  0  2  0  0  0  0  0  0
  184.7540  176.3630  137.9260 C   0  0  2  0  0  3  0  0  0  0  0  0
  186.0610  178.3070  139.7450 C   0  0  0  0  0  0  0  0  0  0  0  0
  183.8010  175.4530  137.2720 N   0  0  0  0  0  0  0  0  0  0  0  0
  187.0400  177.9210  138.9820 N   0  0  0  0  0  0  0  0  0  0  0  0
  184.5930  178.4600  139.3200 C   0  0  2  0  0  3  0  0  0  0  0  0
  183.9980  178.5840  141.7730 C   0  0  0  0  0  2  0  0  0  0  0  0
  187.0150  177.5650  137.5740 C   0  0  2  0  0  3  0  0  0  0  0  0
  183.6690  177.9430  140.4320 C   0  0  0  0  0  2  0  0  0  0  0  0
  182.5530  175.4800  138.0380 C   0  0  0  0  0  2  0  0  0  0  0  0
  184.2280  177.8030  137.9790 C   0  0  2  0  0  3  0  0  0  0  0  0
  185.4340  178.2350  142.1600 C   0  0  2  0  0  3  0  0  0  0  0  0
  182.7690  177.9820  137.4510 C   0  0  1  0  0  0  0  0  0  0  0  0
  185.7510  178.7190  143.4860 N   0  0  0  0  0  0  0  0  0  0  0  0
  184.8520  178.8900  144.3900 C   0  0  0  0  0  2  0  0  0  0  0  0
  187.4360  179.7740  136.8490 O   0  0  0  0  0  0  0  0  0  0  0  0
  186.7750  178.7600  136.7030 C   0  0  0  0  0  3  0  0  0  0  0  0
  182.7300  177.8460  136.0380 O   0  0  0  0  0  0  0  0  0  0  0  0
  181.4140  178.0120  135.5690 C   0  0  0  0  0  2  0  0  0  0  0  0
  180.0900  179.5080  134.6360 C   0  0  0  0  0  1  0  0  0  0  0  0
  181.3900  179.0070  134.5940 O   0  0  0  0  0  0  0  0  0  0  0  0
  182.1800  179.3400  137.8910 C   0  0  0  0  0  2  0  0  0  0  0  0
  180.8680  179.1880  138.6480 C   0  0  0  0  0  2  0  0  0  0  0  0
  180.8630  180.0830  139.7910 N   0  0  0  0  0  2  0  0  0  0  0  0
  180.3910  179.3730  142.0580 C   0  0  0  0  0  1  0  0  0  0  0  0
  179.8140  179.6200  140.6790 C   0  0  0  0  0  2  0  0  0  0  0  0
  184.2990  174.0910  137.4030 C   0  0  0  0  0  2  0  0  0  0  0  0
  184.5250  173.4940  136.0260 C   0  0  0  0  0  2  0  0  0  0  0  0
  184.2250  171.0130  136.1000 C   0  0  0  0  0  3  0  0  0  0  0  0
  183.6840  172.2790  135.8550 C   0  0  0  0  0  0  0  0  0  0  0  0
  182.3610  172.4000  135.4190 C   0  0  0  0  0  3  0  0  0  0  0  0
  180.2950  171.3760  134.8180 F   0  0  0  0  0  0  0  0  0  0  0  0
  182.1150  169.9920  135.4890 C   0  0  0  0  0  3  0  0  0  0  0  0
  181.5770  171.2570  135.2390 C   0  0  0  0  0  0  0  0  0  0  0  0
  183.4390  169.8700  135.9190 C   0  0  0  0  0  3  0  0  0  0  0  0
  1 10  1  0  0  0  0
  2 12  1  0  0  0  0
  3 14  1  0  0  0  0
  4  1  1  6  0  0  0
  4 13  1  0  0  0  0
  5  3  1  0  0  0  0
  6 29  1  0  0  0  0
  6  4  1  0  0  0  0
  6 12  1  0  0  0  0
  7  5  2  0  0  0  0
  8  5  1  0  0  0  0
  8 11  1  1  0  0  0
  9 14  1  0  0  0  0
 10 19  1  6  0  0  0
 10  7  1  0  0  0  0
 11  9  1  0  0  0  0
 13  8  1  0  0  0  0
 14 16  1  0  0  0  0
 15 24  1  0  0  0  0
 15 13  1  0  0  0  0
 15  2  1  0  0  0  0
 16 17  2  0  0  0  0
 19 18  2  0  0  0  0
 20 15  1  0  0  0  0
 21 20  1  0  0  0  0
 23 22  1  0  0  0  0
 23 21  1  0  0  0  0
 24 25  1  0  0  0  0
 25 26  1  0  0  0  0
 26 28  1  0  0  0  0
 28 27  1  0  0  0  0
 30 29  1  0  0  0  0
 32 30  1  0  0  0  0
 32 31  2  0  0  0  0
 33 32  1  0  0  0  0
 34 36  1  0  0  0  0
 35 37  2  0  0  0  0
 36 33  2  0  0  0  0
 36 35  1  0  0  0  0
 37 31  1  0  0  0  0
M  END
>  <MODEL>
6

>  <REMARK>
 VINA RESULT:      -3.8      3.710      7.703
  Name = 
  12 active torsions:
  status: ('A' for Active; 'I' for Inactive)
    1  A    between atoms: O_1  and  C_5
    2  A    between atoms: O_1  and  C_36
    3  A    between atoms: N_3  and  C_32
    4  A    between atoms: C_5  and  O_23
    5  A    between atoms: C_6  and  C_31
    6  A    between atoms: N_14  and  C_37
    7  A    between atoms: C_17  and  N_26
    8  A    between atoms: C_17  and  C_33
    9  A    between atoms: CA_24  and  C_28
   10  A    between atoms: N_26  and  C_34
   11  A    between atoms: C_31  and  C_37
   12  A    between atoms: C_33  and  C_36
                            x       y       z     vdW  Elec       q    Type
                         _______ _______ _______ _____ _____    ______ ____

>  <TORSDO>
F 12

$$$$
=
 OpenBabel11052415253D

 37 40  0  0  1  0  0  0  0  0999 V2000
  187.9950  177.8730  140.4340 C   0  0  0  0  0  2  0  0  0  0  0  0
  191.8370  176.2580  141.6340 C   0  0  0  0  0  2  0  0  0  0  0  0
  189.0680  175.6460  136.5660 C   0  0  0  0  0  2  0  0  0  0  0  0
  189.1520  176.9080  140.7160 C   0  0  2  0  0  3  0  0  0  0  0  0
  189.1120  176.5360  137.7740 C   0  0  0  0  0  0  0  0  0  0  0  0
  189.4600  176.8210  142.1520 N   0  0  0  0  0  0  0  0  0  0  0  0
  188.0750  177.2890  137.9840 N   0  0  0  0  0  0  0  0  0  0  0  0
  190.4280  176.5710  138.5650 C   0  0  2  0  0  3  0  0  0  0  0  0
  191.0130  174.3530  137.5040 C   0  0  0  0  0  2  0  0  0  0  0  0
  187.8940  178.3410  138.9700 C   0  0  2  0  0  3  0  0  0  0  0  0
  190.9350  175.1420  138.8040 C   0  0  0  0  0  2  0  0  0  0  0  0
  190.5300  175.8370  142.3250 C   0  0  0  0  0  2  0  0  0  0  0  0
  190.3720  177.3430  139.8940 C   0  0  2  0  0  3  0  0  0  0  0  0
  189.6180  174.2570  136.8880 C   0  0  2  0  0  3  0  0  0  0  0  0
  191.6940  177.4810  140.7140 C   0  0  1  0  0  0  0  0  0  0  0  0
  189.6210  173.4100  135.7150 N   0  0  0  0  0  0  0  0  0  0  0  0
  188.7760  172.4540  135.5540 C   0  0  0  0  0  2  0  0  0  0  0  0
  188.9760  179.8470  137.5070 O   0  0  0  0  0  0  0  0  0  0  0  0
  188.7350  179.5410  138.6630 C   0  0  0  0  0  3  0  0  0  0  0  0
  191.6440  178.6280  141.5500 O   0  0  0  0  0  0  0  0  0  0  0  0
  192.0890  178.3060  142.8450 C   0  0  0  0  0  2  0  0  0  0  0  0
  191.3970  178.2530  144.9380 C   0  0  0  0  0  1  0  0  0  0  0  0
  191.3560  179.0320  143.7820 O   0  0  0  0  0  0  0  0  0  0  0  0
  192.9260  177.5300  139.7840 C   0  0  0  0  0  2  0  0  0  0  0  0
  193.8970  176.3870  140.0430 C   0  0  0  0  0  2  0  0  0  0  0  0
  194.2750  175.7800  138.7800 N   0  0  0  0  0  2  0  0  0  0  0  0
  196.1440  175.2530  140.2290 C   0  0  0  0  0  1  0  0  0  0  0  0
  195.2760  174.7730  139.0840 C   0  0  0  0  0  2  0  0  0  0  0  0
  188.3070  176.2530  142.8370 C   0  0  0  0  0  2  0  0  0  0  0  0
  188.2930  176.7150  144.2830 C   0  0  0  0  0  2  0  0  0  0  0  0
  186.8420  178.0510  145.8200 C   0  0  0  0  0  3  0  0  0  0  0  0
  187.0700  177.5190  144.5470 C   0  0  0  0  0  0  0  0  0  0  0  0
  186.1290  177.7170  143.5310 C   0  0  0  0  0  3  0  0  0  0  0  0
  184.0610  178.6470  142.8000 F   0  0  0  0  0  0  0  0  0  0  0  0
  184.7460  178.9920  145.0550 C   0  0  0  0  0  3  0  0  0  0  0  0
  184.9700  178.4550  143.7850 C   0  0  0  0  0  0  0  0  0  0  0  0
  185.6820  178.7900  146.0740 C   0  0  0  0  0  3  0  0  0  0  0  0
  2 12  1  0  0  0  0
  3 14  1  0  0  0  0
  3  5  1  0  0  0  0
  4  1  1  1  0  0  0
  4  6  1  0  0  0  0
  5  7  2  0  0  0  0
  5  8  1  0  0  0  0
  6 12  1  0  0  0  0
  6 29  1  0  0  0  0
  7 10  1  0  0  0  0
  8 11  1  1  0  0  0
  8 13  1  0  0  0  0
  9 11  1  0  0  0  0
 10 19  1  6  0  0  0
 10  1  1  0  0  0  0
 13 15  1  0  0  0  0
 13  4  1  0  0  0  0
 14  9  1  0  0  0  0
 15 20  1  0  0  0  0
 15  2  1  0  0  0  0
 16 14  1  0  0  0  0
 17 16  2  0  0  0  0
 18 19  2  0  0  0  0
 20 21  1  0  0  0  0
 21 23  1  0  0  0  0
 23 22  1  0  0  0  0
 24 25  1  0  0  0  0
 24 15  1  0  0  0  0
 26 28  1  0  0  0  0
 26 25  1  0  0  0  0
 28 27  1  0  0  0  0
 29 30  1  0  0  0  0
 30 32  1  0  0  0  0
 31 37  1  0  0  0  0
 32 31  2  0  0  0  0
 33 36  2  0  0  0  0
 33 32  1  0  0  0  0
 34 36  1  0  0  0  0
 35 37  2  0  0  0  0
 36 35  1  0  0  0  0
M  END
>  <MODEL>
7

>  <REMARK>
 VINA RESULT:      -3.1      6.664      9.468
  Name = 
  12 active torsions:
  status: ('A' for Active; 'I' for Inactive)
    1  A    between atoms: O_1  and  C_5
    2  A    between atoms: O_1  and  C_36
    3  A    between atoms: N_3  and  C_32
    4  A    between atoms: C_5  and  O_23
    5  A    between atoms: C_6  and  C_31
    6  A    between atoms: N_14  and  C_37
    7  A    between atoms: C_17  and  N_26
    8  A    between atoms: C_17  and  C_33
    9  A    between atoms: CA_24  and  C_28
   10  A    between atoms: N_26  and  C_34
   11  A    between atoms: C_31  and  C_37
   12  A    between atoms: C_33  and  C_36
                            x       y       z     vdW  Elec       q    Type
                         _______ _______ _______ _____ _____    ______ ____

>  <TORSDO>
F 12

$$$$
=
 OpenBabel11052415253D

 37 40  0  0  1  0  0  0  0  0999 V2000
  186.2910  177.8710  138.0850 C   0  0  0  0  0  2  0  0  0  0  0  0
  189.8890  175.4530  137.9490 C   0  0  0  0  0  2  0  0  0  0  0  0
  184.4440  173.9360  136.6110 C   0  0  0  0  0  2  0  0  0  0  0  0
  187.2980  176.7360  138.2950 C   0  0  2  0  0  3  0  0  0  0  0  0
  185.3160  175.1480  136.7640 C   0  0  0  0  0  0  0  0  0  0  0  0
  188.4690  177.1740  139.0710 N   0  0  0  0  0  0  0  0  0  0  0  0
  184.7110  176.2870  136.9260 N   0  0  0  0  0  0  0  0  0  0  0  0
  186.8270  174.9470  136.5790 C   0  0  2  0  0  3  0  0  0  0  0  0
  186.4590  172.4900  137.0410 C   0  0  0  0  0  2  0  0  0  0  0  0
  185.2770  177.6250  136.9530 C   0  0  2  0  0  3  0  0  0  0  0  0
  187.2940  173.7180  137.3730 C   0  0  0  0  0  2  0  0  0  0  0  0
  189.3390  176.0130  139.2700 C   0  0  0  0  0  2  0  0  0  0  0  0
  187.6970  176.1660  136.9280 C   0  0  2  0  0  3  0  0  0  0  0  0
  185.0010  172.7570  137.4090 C   0  0  2  0  0  3  0  0  0  0  0  0
  189.2370  176.0550  136.6940 C   0  0  1  0  0  0  0  0  0  0  0  0
  184.1900  171.5730  137.2270 N   0  0  0  0  0  0  0  0  0  0  0  0
  182.9490  171.6330  136.8930 C   0  0  0  0  0  2  0  0  0  0  0  0
  185.3280  177.5220  134.5940 O   0  0  0  0  0  0  0  0  0  0  0  0
  185.7660  178.0480  135.6020 C   0  0  0  0  0  3  0  0  0  0  0  0
  189.8060  177.3430  136.5060 O   0  0  0  0  0  0  0  0  0  0  0  0
  189.0770  178.0610  135.5410 C   0  0  0  0  0  2  0  0  0  0  0  0
  189.3850  179.4320  137.2410 C   0  0  0  0  0  1  0  0  0  0  0  0
  188.5990  179.2430  136.1050 O   0  0  0  0  0  0  0  0  0  0  0  0
  189.5540  175.1330  135.4970 C   0  0  0  0  0  2  0  0  0  0  0  0
  190.8580  174.3680  135.6800 C   0  0  0  0  0  2  0  0  0  0  0  0
  191.9440  175.1120  135.0700 N   0  0  0  0  0  2  0  0  0  0  0  0
  193.1870  173.3200  136.1250 C   0  0  0  0  0  1  0  0  0  0  0  0
  193.1400  174.8060  135.8330 C   0  0  0  0  0  2  0  0  0  0  0  0
  188.0240  177.5490  140.4060 C   0  0  0  0  0  2  0  0  0  0  0  0
  189.0680  177.1360  141.4270 C   0  0  0  0  0  2  0  0  0  0  0  0
  187.1500  177.5300  142.9830 C   0  0  0  0  0  3  0  0  0  0  0  0
  188.5090  177.2560  142.8010 C   0  0  0  0  0  0  0  0  0  0  0  0
  189.3480  177.1240  143.9120 C   0  0  0  0  0  3  0  0  0  0  0  0
  189.6410  177.1280  146.2760 F   0  0  0  0  0  0  0  0  0  0  0  0
  187.4680  177.5240  145.3830 C   0  0  0  0  0  3  0  0  0  0  0  0
  188.8270  177.2560  145.2020 C   0  0  0  0  0  0  0  0  0  0  0  0
  186.6290  177.6610  144.2740 C   0  0  0  0  0  3  0  0  0  0  0  0
  2 12  1  0  0  0  0
  3  5  1  0  0  0  0
  3 14  1  0  0  0  0
  4  1  1  6  0  0  0
  4  6  1  0  0  0  0
  5  7  2  0  0  0  0
  6 12  1  0  0  0  0
  6 29  1  0  0  0  0
  7 10  1  0  0  0  0
  8  5  1  0  0  0  0
  8 13  1  0  0  0  0
  8 11  1  1  0  0  0
  9 11  1  0  0  0  0
  9 14  1  0  0  0  0
 10 19  1  6  0  0  0
 10  1  1  0  0  0  0
 13  4  1  0  0  0  0
 15 13  1  0  0  0  0
 15  2  1  0  0  0  0
 16 14  1  0  0  0  0
 17 16  2  0  0  0  0
 18 19  2  0  0  0  0
 20 15  1  0  0  0  0
 21 23  1  0  0  0  0
 21 20  1  0  0  0  0
 23 22  1  0  0  0  0
 24 25  1  0  0  0  0
 24 15  1  0  0  0  0
 26 25  1  0  0  0  0
 26 28  1  0  0  0  0
 28 27  1  0  0  0  0
 29 30  1  0  0  0  0
 30 32  1  0  0  0  0
 31 37  1  0  0  0  0
 32 31  2  0  0  0  0
 32 33  1  0  0  0  0
 33 36  2  0  0  0  0
 36 35  1  0  0  0  0
 36 34  1  0  0  0  0
 37 35  2  0  0  0  0
M  END
>  <MODEL>
8

>  <REMARK>
 VINA RESULT:      -3.1      5.421      8.706
  Name = 
  12 active torsions:
  status: ('A' for Active; 'I' for Inactive)
    1  A    between atoms: O_1  and  C_5
    2  A    between atoms: O_1  and  C_36
    3  A    between atoms: N_3  and  C_32
    4  A    between atoms: C_5  and  O_23
    5  A    between atoms: C_6  and  C_31
    6  A    between atoms: N_14  and  C_37
    7  A    between atoms: C_17  and  N_26
    8  A    between atoms: C_17  and  C_33
    9  A    between atoms: CA_24  and  C_28
   10  A    between atoms: N_26  and  C_34
   11  A    between atoms: C_31  and  C_37
   12  A    between atoms: C_33  and  C_36
                            x       y       z     vdW  Elec       q    Type
                         _______ _______ _______ _____ _____    ______ ____

>  <TORSDO>
F 12

$$$$
=
 OpenBabel11052415253D

 37 40  0  0  1  0  0  0  0  0999 V2000
  185.4800  176.2640  135.2940 C   0  0  0  0  0  2  0  0  0  0  0  0
  183.7250  176.8840  139.2110 C   0  0  0  0  0  2  0  0  0  0  0  0
  189.2000  177.7970  137.5030 C   0  0  0  0  0  2  0  0  0  0  0  0
  185.2200  176.2190  136.8040 C   0  0  2  0  0  3  0  0  0  0  0  0
  187.8120  177.6520  136.9510 C   0  0  0  0  0  0  0  0  0  0  0  0
  183.9600  175.5300  137.1260 N   0  0  0  0  0  0  0  0  0  0  0  0
  187.7120  177.3650  135.6880 N   0  0  0  0  0  0  0  0  0  0  0  0
  186.6480  177.9900  137.8940 C   0  0  2  0  0  3  0  0  0  0  0  0
  188.2420  177.6480  139.8250 C   0  0  0  0  0  2  0  0  0  0  0  0
  186.5220  177.3090  134.8550 C   0  0  2  0  0  3  0  0  0  0  0  0
  186.8680  177.3210  139.2590 C   0  0  0  0  0  2  0  0  0  0  0  0
  183.8310  175.4850  138.5840 C   0  0  0  0  0  2  0  0  0  0  0  0
  185.2490  177.6500  137.3550 C   0  0  2  0  0  3  0  0  0  0  0  0
  189.3170  177.1290  138.8730 C   0  0  2  0  0  3  0  0  0  0  0  0
  184.0150  178.0330  138.2320 C   0  0  1  0  0  0  0  0  0  0  0  0
  190.6400  177.3060  139.4300 N   0  0  0  0  0  0  0  0  0  0  0  0
  191.5910  176.4630  139.2300 C   0  0  0  0  0  2  0  0  0  0  0  0
  186.6700  179.6520  134.5950 O   0  0  0  0  0  0  0  0  0  0  0  0
  185.9460  178.6710  134.6170 C   0  0  0  0  0  3  0  0  0  0  0  0
  182.8590  178.1940  137.4230 O   0  0  0  0  0  0  0  0  0  0  0  0
  181.7730  178.6270  138.2070 C   0  0  0  0  0  2  0  0  0  0  0  0
  179.5780  178.5330  138.3920 C   0  0  0  0  0  1  0  0  0  0  0  0
  180.6050  178.5740  137.4500 O   0  0  0  0  0  0  0  0  0  0  0  0
  184.2920  179.3090  139.0570 C   0  0  0  0  0  2  0  0  0  0  0  0
  184.0220  179.1130  140.5420 C   0  0  0  0  0  2  0  0  0  0  0  0
  185.2310  179.3950  141.2950 N   0  0  0  0  0  2  0  0  0  0  0  0
  186.1320  178.0610  143.1050 C   0  0  0  0  0  1  0  0  0  0  0  0
  184.9900  178.9490  142.6550 C   0  0  0  0  0  2  0  0  0  0  0  0
  184.0750  174.1390  136.7110 C   0  0  0  0  0  2  0  0  0  0  0  0
  185.0660  173.4190  137.6070 C   0  0  0  0  0  2  0  0  0  0  0  0
  185.8040  171.7740  135.8730 C   0  0  0  0  0  3  0  0  0  0  0  0
  186.1300  172.7870  136.7810 C   0  0  0  0  0  0  0  0  0  0  0  0
  187.4620  173.1840  136.9330 C   0  0  0  0  0  3  0  0  0  0  0  0
  189.7540  172.9630  136.3210 F   0  0  0  0  0  0  0  0  0  0  0  0
  188.1380  171.5690  135.2610 C   0  0  0  0  0  3  0  0  0  0  0  0
  188.4650  172.5770  136.1720 C   0  0  0  0  0  0  0  0  0  0  0  0
  186.8080  171.1670  135.1120 C   0  0  0  0  0  3  0  0  0  0  0  0
  3 14  1  0  0  0  0
  4  1  1  6  0  0  0
  4  6  1  0  0  0  0
  4 13  1  0  0  0  0
  5  3  1  0  0  0  0
  5  8  1  0  0  0  0
  6 12  1  0  0  0  0
  7  5  2  0  0  0  0
  8 11  1  1  0  0  0
 10 19  1  1  0  0  0
 10  1  1  0  0  0  0
 10  7  1  0  0  0  0
 11  9  1  0  0  0  0
 12  2  1  0  0  0  0
 13  8  1  0  0  0  0
 13 15  1  0  0  0  0
 14 16  1  0  0  0  0
 14  9  1  0  0  0  0
 15 24  1  0  0  0  0
 15  2  1  0  0  0  0
 17 16  2  0  0  0  0
 18 19  2  0  0  0  0
 20 21  1  0  0  0  0
 20 15  1  0  0  0  0
 23 21  1  0  0  0  0
 23 22  1  0  0  0  0
 24 25  1  0  0  0  0
 25 26  1  0  0  0  0
 26 28  1  0  0  0  0
 28 27  1  0  0  0  0
 29  6  1  0  0  0  0
 29 30  1  0  0  0  0
 31 32  1  0  0  0  0
 32 33  2  0  0  0  0
 32 30  1  0  0  0  0
 35 36  2  0  0  0  0
 36 34  1  0  0  0  0
 36 33  1  0  0  0  0
 37 35  1  0  0  0  0
 37 31  2  0  0  0  0
M  END
>  <MODEL>
9

>  <REMARK>
 VINA RESULT:      -2.8      4.016      7.697
  Name = 
  12 active torsions:
  status: ('A' for Active; 'I' for Inactive)
    1  A    between atoms: O_1  and  C_5
    2  A    between atoms: O_1  and  C_36
    3  A    between atoms: N_3  and  C_32
    4  A    between atoms: C_5  and  O_23
    5  A    between atoms: C_6  and  C_31
    6  A    between atoms: N_14  and  C_37
    7  A    between atoms: C_17  and  N_26
    8  A    between atoms: C_17  and  C_33
    9  A    between atoms: CA_24  and  C_28
   10  A    between atoms: N_26  and  C_34
   11  A    between atoms: C_31  and  C_37
   12  A    between atoms: C_33  and  C_36
                            x       y       z     vdW  Elec       q    Type
                         _______ _______ _______ _____ _____    ______ ____

>  <TORSDO>
F 12

$$$$
