=
 OpenBabel11052416253D

 43 48  0  0  1  0  0  0  0  0999 V2000
  187.7020  178.3170  142.2160 C   0  0  1  0  0  3  0  0  0  0  0  0
  181.2860  179.2440  142.8310 C   0  0  2  0  0  3  0  0  0  0  0  0
  186.2040  178.4190  142.1210 C   0  0  0  0  0  0  0  0  0  0  0  0
  183.4530  178.6470  141.7630 C   0  0  0  0  0  0  0  0  0  0  0  0
  181.7260  178.4450  143.9740 N   0  0  0  0  0  2  0  0  0  0  0  0
  179.7860  179.1220  142.6740 C   0  0  0  0  0  1  0  0  0  0  0  0
  183.9750  178.5690  143.0600 C   0  0  0  0  0  0  0  0  0  0  0  0
  181.9730  178.7490  141.5580 C   0  0  0  0  0  2  0  0  0  0  0  0
  183.0910  178.6210  144.1460 O   0  0  0  0  0  0  0  0  0  0  0  0
  185.9040  178.4300  144.6470 C   0  0  0  0  0  1  0  0  0  0  0  0
  185.3590  178.4730  143.2540 C   0  0  0  0  0  0  0  0  0  0  0  0
  185.6570  178.4800  140.8760 N   0  0  0  0  0  0  0  0  0  0  0  0
  184.3180  178.5910  140.6750 C   0  0  0  0  0  3  0  0  0  0  0  0
  188.1530  176.8600  142.3160 C   0  0  0  0  0  2  0  0  0  0  0  0
  189.8500  177.3790  145.7460 C   0  0  0  0  0  2  0  0  0  0  0  0
  191.1910  176.7460  145.4330 C   0  0  0  0  0  0  0  0  0  0  0  0
  190.5150  176.3330  143.0600 C   0  0  0  0  0  2  0  0  0  0  0  0
  189.0550  177.7560  144.4990 C   0  0  0  0  0  2  0  0  0  0  0  0
  189.0780  176.5990  143.5060 C   0  0  1  0  0  3  0  0  0  0  0  0
  191.4550  176.2290  144.2280 C   0  0  0  0  0  3  0  0  0  0  0  0
  192.1670  176.6300  146.4250 O   0  0  0  0  0  0  0  0  0  0  0  0
  192.0360  175.7350  147.5210 C   0  0  0  0  0  1  0  0  0  0  0  0
  188.4210  179.0470  141.0840 C   0  0  0  0  0  2  0  0  0  0  0  0
  189.0050  179.6610  138.3460 O   0  0  0  0  0  0  0  0  0  0  0  0
  189.1450  178.4670  138.7200 C   0  0  0  0  0  0  0  0  0  0  0  0
  188.8990  178.1020  140.0840 N   0  0  0  0  0  2  0  0  0  0  0  0
  188.5170  176.3740  137.5240 C   0  0  2  0  0  3  0  0  0  0  0  0
  190.4900  176.4090  138.3770 C   0  0  0  0  0  2  0  0  0  0  0  0
  189.5870  177.4380  137.7230 C   0  0  2  0  0  3  0  0  0  0  0  0
  189.4320  175.3430  138.1630 C   0  0  0  0  0  2  0  0  0  0  0  0
  188.2930  176.0580  136.0420 C   0  0  2  0  0  3  0  0  0  0  0  0
  185.7230  177.2410  135.0870 C   0  0  0  0  0  2  0  0  0  0  0  0
  185.7710  175.9310  135.7440 N   0  0  0  0  0  0  0  0  0  0  0  0
  188.2040  177.3470  135.2150 C   0  0  0  0  0  2  0  0  0  0  0  0
  187.0300  175.2580  135.8900 C   0  0  0  0  0  0  0  0  0  0  0  0
  187.0710  174.0030  135.9910 O   0  0  0  0  0  0  0  0  0  0  0  0
  186.9090  178.1000  135.5030 C   0  0  0  0  0  2  0  0  0  0  0  0
  184.6030  175.4150  136.4520 C   0  0  0  0  0  3  0  0  0  0  0  0
  182.0570  175.3820  136.1400 C   0  0  0  0  0  2  0  0  0  0  0  0
  183.0680  175.7650  138.4300 C   0  0  0  0  0  2  0  0  0  0  0  0
  182.0700  174.9430  137.6020 C   0  0  0  0  0  2  0  0  0  0  0  0
  184.2250  176.3420  137.6070 C   0  0  0  0  0  2  0  0  0  0  0  0
  183.4280  175.1660  135.4900 C   0  0  0  0  0  2  0  0  0  0  0  0
  1 23  1  6  0  0  0
  1 14  1  0  0  0  0
  2  6  1  6  0  0  0
  2  5  1  0  0  0  0
  3  1  1  0  0  0  0
  3 11  1  0  0  0  0
  4  7  1  0  0  0  0
  5  9  1  0  0  0  0
  7 11  2  0  0  0  0
  7  9  1  0  0  0  0
  8  4  1  0  0  0  0
  8  2  1  0  0  0  0
 11 10  1  0  0  0  0
 12  3  2  0  0  0  0
 13 12  1  0  0  0  0
 13  4  2  0  0  0  0
 16 15  1  0  0  0  0
 16 21  1  0  0  0  0
 17 19  1  0  0  0  0
 17 20  1  0  0  0  0
 18 15  1  0  0  0  0
 19 14  1  6  0  0  0
 19 18  1  0  0  0  0
 20 16  2  0  0  0  0
 21 22  1  0  0  0  0
 24 25  2  0  0  0  0
 25 26  1  0  0  0  0
 26 23  1  0  0  0  0
 27 29  1  0  0  0  0
 27 30  1  1  0  0  0
 29 28  1  0  0  0  0
 29 25  1  1  0  0  0
 30 28  1  0  0  0  0
 31 34  1  6  0  0  0
 31 27  1  0  0  0  0
 32 37  1  0  0  0  0
 32 33  1  0  0  0  0
 33 35  1  0  0  0  0
 33 38  1  0  0  0  0
 34 37  1  0  0  0  0
 35 36  2  0  0  0  0
 35 31  1  0  0  0  0
 38 42  1  0  0  0  0
 39 41  1  0  0  0  0
 41 40  1  0  0  0  0
 42 40  1  0  0  0  0
 43 39  1  0  0  0  0
 43 38  1  0  0  0  0
M  END
>  <MODEL>
1

>  <REMARK>
 VINA RESULT:      -8.7      0.000      0.000
  Name = 
  9 active torsions:
  status: ('A' for Active; 'I' for Inactive)
    1  A    between atoms: C_1  and  C_34
    2  A    between atoms: C_1  and  C_35
    3  A    between atoms: C_3  and  C_4
    4  A    between atoms: C_6  and  C_12
    5  A    between atoms: C_8  and  C_34
    6  A    between atoms: C_11  and  N_14
    7  A    between atoms: N_13  and  C_38
    8  A    between atoms: C_19  and  O_25
    9  A    between atoms: C_34  and  C_38
                            x       y       z     vdW  Elec       q    Type
                         _______ _______ _______ _____ _____    ______ ____

>  <TORSDO>
F 9

$$$$
=
 OpenBabel11052416253D

 43 48  0  0  1  0  0  0  0  0999 V2000
  187.1110  178.1070  143.4820 C   0  0  1  0  0  3  0  0  0  0  0  0
  180.7800  179.4180  142.7020 C   0  0  2  0  0  3  0  0  0  0  0  0
  185.6710  178.2710  143.0790 C   0  0  0  0  0  0  0  0  0  0  0  0
  183.0630  178.5900  142.1580 C   0  0  0  0  0  0  0  0  0  0  0  0
  180.9340  178.7420  143.9890 N   0  0  0  0  0  2  0  0  0  0  0  0
  179.3340  179.3530  142.2630 C   0  0  0  0  0  1  0  0  0  0  0  0
  183.3190  178.6440  143.5340 C   0  0  0  0  0  0  0  0  0  0  0  0
  181.6610  178.7400  141.6520 C   0  0  0  0  0  2  0  0  0  0  0  0
  182.2500  178.8700  144.4090 O   0  0  0  0  0  0  0  0  0  0  0  0
  184.8930  178.6020  145.4780 C   0  0  0  0  0  1  0  0  0  0  0  0
  184.6290  178.5030  144.0090 C   0  0  0  0  0  0  0  0  0  0  0  0
  185.3790  178.2080  141.7510 N   0  0  0  0  0  0  0  0  0  0  0  0
  184.1140  178.3600  141.2760 C   0  0  0  0  0  3  0  0  0  0  0  0
  187.2490  177.9610  144.9970 C   0  0  0  0  0  2  0  0  0  0  0  0
  189.9420  176.4400  147.3090 C   0  0  0  0  0  2  0  0  0  0  0  0
  191.1700  176.8230  146.5090 C   0  0  0  0  0  0  0  0  0  0  0  0
  189.7740  178.0380  144.8260 C   0  0  0  0  0  2  0  0  0  0  0  0
  188.7020  177.2480  146.9360 C   0  0  0  0  0  2  0  0  0  0  0  0
  188.5680  177.3110  145.4190 C   0  0  1  0  0  3  0  0  0  0  0  0
  191.0720  177.4990  145.3590 C   0  0  0  0  0  3  0  0  0  0  0  0
  192.4400  176.4180  146.9250 O   0  0  0  0  0  0  0  0  0  0  0  0
  192.6530  175.6880  148.1260 C   0  0  0  0  0  1  0  0  0  0  0  0
  187.8080  176.9660  142.7450 C   0  0  0  0  0  2  0  0  0  0  0  0
  190.3420  176.0580  141.7620 O   0  0  0  0  0  0  0  0  0  0  0  0
  189.7660  176.9820  141.1290 C   0  0  0  0  0  0  0  0  0  0  0  0
  188.4820  177.4570  141.5520 N   0  0  0  0  0  2  0  0  0  0  0  0
  190.1830  176.7060  138.6890 C   0  0  2  0  0  3  0  0  0  0  0  0
  191.9040  177.1840  139.8850 C   0  0  0  0  0  2  0  0  0  0  0  0
  190.4350  177.5640  139.9200 C   0  0  2  0  0  3  0  0  0  0  0  0
  191.6570  176.3430  138.6460 C   0  0  0  0  0  2  0  0  0  0  0  0
  189.7950  177.5520  137.4720 C   0  0  2  0  0  3  0  0  0  0  0  0
  186.9560  177.0460  136.6950 C   0  0  0  0  0  2  0  0  0  0  0  0
  188.0480  176.1920  136.2220 N   0  0  0  0  0  0  0  0  0  0  0  0
  188.6370  178.5010  137.8110 C   0  0  0  0  0  2  0  0  0  0  0  0
  189.4050  176.6440  136.3390 C   0  0  0  0  0  0  0  0  0  0  0  0
  190.2910  176.2070  135.5580 O   0  0  0  0  0  0  0  0  0  0  0  0
  187.3320  177.7330  138.0010 C   0  0  0  0  0  2  0  0  0  0  0  0
  187.7930  174.8030  135.8500 C   0  0  0  0  0  3  0  0  0  0  0  0
  185.7880  173.2070  135.7380 C   0  0  0  0  0  2  0  0  0  0  0  0
  188.0340  172.3930  136.5790 C   0  0  0  0  0  2  0  0  0  0  0  0
  186.8760  172.1460  135.6010 C   0  0  0  0  0  2  0  0  0  0  0  0
  188.1930  173.8630  136.9880 C   0  0  0  0  0  2  0  0  0  0  0  0
  186.3340  174.6000  135.4050 C   0  0  0  0  0  2  0  0  0  0  0  0
  1 23  1  6  0  0  0
  1 14  1  0  0  0  0
  2  6  1  6  0  0  0
  2  5  1  0  0  0  0
  3  1  1  0  0  0  0
  3 11  1  0  0  0  0
  4  7  1  0  0  0  0
  5  9  1  0  0  0  0
  7 11  2  0  0  0  0
  7  9  1  0  0  0  0
  8  4  1  0  0  0  0
  8  2  1  0  0  0  0
 11 10  1  0  0  0  0
 12  3  2  0  0  0  0
 13 12  1  0  0  0  0
 13  4  2  0  0  0  0
 16 21  1  0  0  0  0
 16 15  1  0  0  0  0
 17 20  1  0  0  0  0
 17 19  1  0  0  0  0
 18 15  1  0  0  0  0
 19 14  1  1  0  0  0
 19 18  1  0  0  0  0
 20 16  2  0  0  0  0
 21 22  1  0  0  0  0
 25 26  1  0  0  0  0
 25 24  2  0  0  0  0
 26 23  1  0  0  0  0
 27 30  1  6  0  0  0
 27 29  1  0  0  0  0
 28 29  1  0  0  0  0
 29 25  1  1  0  0  0
 30 28  1  0  0  0  0
 31 34  1  1  0  0  0
 31 27  1  0  0  0  0
 32 37  1  0  0  0  0
 33 35  1  0  0  0  0
 33 32  1  0  0  0  0
 34 37  1  0  0  0  0
 35 31  1  0  0  0  0
 36 35  2  0  0  0  0
 38 33  1  0  0  0  0
 38 42  1  0  0  0  0
 40 42  1  0  0  0  0
 41 39  1  0  0  0  0
 41 40  1  0  0  0  0
 43 39  1  0  0  0  0
 43 38  1  0  0  0  0
M  END
>  <MODEL>
2

>  <REMARK>
 VINA RESULT:      -8.7      1.995      2.647
  Name = 
  9 active torsions:
  status: ('A' for Active; 'I' for Inactive)
    1  A    between atoms: C_1  and  C_34
    2  A    between atoms: C_1  and  C_35
    3  A    between atoms: C_3  and  C_4
    4  A    between atoms: C_6  and  C_12
    5  A    between atoms: C_8  and  C_34
    6  A    between atoms: C_11  and  N_14
    7  A    between atoms: N_13  and  C_38
    8  A    between atoms: C_19  and  O_25
    9  A    between atoms: C_34  and  C_38
                            x       y       z     vdW  Elec       q    Type
                         _______ _______ _______ _____ _____    ______ ____

>  <TORSDO>
F 9

$$$$
=
 OpenBabel11052416253D

 43 48  0  0  1  0  0  0  0  0999 V2000
  187.6430  177.9020  141.7240 C   0  0  1  0  0  3  0  0  0  0  0  0
  191.2170  176.2900  146.9230 C   0  0  2  0  0  3  0  0  0  0  0  0
  188.6420  177.7040  142.8300 C   0  0  0  0  0  0  0  0  0  0  0  0
  190.6270  177.3510  144.7500 C   0  0  0  0  0  0  0  0  0  0  0  0
  189.9230  176.7660  147.4090 N   0  0  0  0  0  2  0  0  0  0  0  0
  192.2260  176.3230  148.0500 C   0  0  0  0  0  1  0  0  0  0  0  0
  189.2910  177.1010  145.0870 C   0  0  0  0  0  0  0  0  0  0  0  0
  191.7020  177.1840  145.7810 C   0  0  0  0  0  2  0  0  0  0  0  0
  188.9940  176.6670  146.3850 O   0  0  0  0  0  0  0  0  0  0  0  0
  186.8670  176.9490  144.4880 C   0  0  0  0  0  1  0  0  0  0  0  0
  188.2850  177.2570  144.1250 C   0  0  0  0  0  0  0  0  0  0  0  0
  189.9510  177.9520  142.5470 N   0  0  0  0  0  0  0  0  0  0  0  0
  190.9380  177.7880  143.4670 C   0  0  0  0  0  3  0  0  0  0  0  0
  186.7870  179.1450  141.9680 C   0  0  0  0  0  2  0  0  0  0  0  0
  182.9850  178.5340  141.6670 C   0  0  0  0  0  2  0  0  0  0  0  0
  182.5750  178.9710  143.0580 C   0  0  0  0  0  0  0  0  0  0  0  0
  184.9270  179.6160  143.6200 C   0  0  0  0  0  2  0  0  0  0  0  0
  184.3660  179.0430  141.2570 C   0  0  0  0  0  2  0  0  0  0  0  0
  185.3560  178.8130  142.3930 C   0  0  1  0  0  3  0  0  0  0  0  0
  183.4750  179.4060  143.9480 C   0  0  0  0  0  3  0  0  0  0  0  0
  181.2440  178.8660  143.4690 O   0  0  0  0  0  0  0  0  0  0  0  0
  180.1730  179.4480  142.7380 C   0  0  0  0  0  1  0  0  0  0  0  0
  188.2870  177.9320  140.3400 C   0  0  0  0  0  2  0  0  0  0  0  0
  188.0900  176.7640  137.7300 O   0  0  0  0  0  0  0  0  0  0  0  0
  187.2800  177.6830  138.0220 C   0  0  0  0  0  0  0  0  0  0  0  0
  187.3060  178.2850  139.3220 N   0  0  0  0  0  2  0  0  0  0  0  0
  185.4390  176.9530  136.5110 C   0  0  2  0  0  3  0  0  0  0  0  0
  186.9250  178.2310  135.6280 C   0  0  0  0  0  2  0  0  0  0  0  0
  186.2790  178.1250  136.9960 C   0  0  2  0  0  3  0  0  0  0  0  0
  186.0750  177.0750  135.1360 C   0  0  0  0  0  2  0  0  0  0  0  0
  183.9490  177.3020  136.4540 C   0  0  2  0  0  3  0  0  0  0  0  0
  182.3650  175.4560  138.1850 C   0  0  0  0  0  2  0  0  0  0  0  0
  182.7180  175.1060  136.8060 N   0  0  0  0  0  0  0  0  0  0  0  0
  183.4220  177.6810  137.8440 C   0  0  0  0  0  2  0  0  0  0  0  0
  183.1840  176.1270  135.9130 C   0  0  0  0  0  0  0  0  0  0  0  0
  183.0410  175.9960  134.6680 O   0  0  0  0  0  0  0  0  0  0  0  0
  183.3530  176.4620  138.7590 C   0  0  0  0  0  2  0  0  0  0  0  0
  182.8250  173.7060  136.4030 C   0  0  0  0  0  3  0  0  0  0  0  0
  181.6900  171.4760  136.9700 C   0  0  0  0  0  2  0  0  0  0  0  0
  184.1960  171.5930  136.6230 C   0  0  0  0  0  2  0  0  0  0  0  0
  182.8890  170.8900  136.2280 C   0  0  0  0  0  2  0  0  0  0  0  0
  184.0000  173.0330  137.1120 C   0  0  0  0  0  2  0  0  0  0  0  0
  181.4990  172.9570  136.6200 C   0  0  0  0  0  2  0  0  0  0  0  0
  1 23  1  6  0  0  0
  1 14  1  0  0  0  0
  1  3  1  0  0  0  0
  2  5  1  0  0  0  0
  2  6  1  1  0  0  0
  3 11  1  0  0  0  0
  4  7  1  0  0  0  0
  4  8  1  0  0  0  0
  7  9  1  0  0  0  0
  8  2  1  0  0  0  0
  9  5  1  0  0  0  0
 11 10  1  0  0  0  0
 11  7  2  0  0  0  0
 12  3  2  0  0  0  0
 12 13  1  0  0  0  0
 13  4  2  0  0  0  0
 15 16  1  0  0  0  0
 16 21  1  0  0  0  0
 16 20  2  0  0  0  0
 17 20  1  0  0  0  0
 18 15  1  0  0  0  0
 18 19  1  0  0  0  0
 19 14  1  6  0  0  0
 19 17  1  0  0  0  0
 22 21  1  0  0  0  0
 24 25  2  0  0  0  0
 25 26  1  0  0  0  0
 26 23  1  0  0  0  0
 27 30  1  6  0  0  0
 27 29  1  0  0  0  0
 28 29  1  0  0  0  0
 29 25  1  1  0  0  0
 30 28  1  0  0  0  0
 31 27  1  0  0  0  0
 31 34  1  1  0  0  0
 32 37  1  0  0  0  0
 33 32  1  0  0  0  0
 34 37  1  0  0  0  0
 35 31  1  0  0  0  0
 35 33  1  0  0  0  0
 36 35  2  0  0  0  0
 38 43  1  0  0  0  0
 38 33  1  0  0  0  0
 38 42  1  0  0  0  0
 40 42  1  0  0  0  0
 41 40  1  0  0  0  0
 41 39  1  0  0  0  0
 43 39  1  0  0  0  0
M  END
>  <MODEL>
3

>  <REMARK>
 VINA RESULT:      -8.4      2.278      6.302
  Name = 
  9 active torsions:
  status: ('A' for Active; 'I' for Inactive)
    1  A    between atoms: C_1  and  C_34
    2  A    between atoms: C_1  and  C_35
    3  A    between atoms: C_3  and  C_4
    4  A    between atoms: C_6  and  C_12
    5  A    between atoms: C_8  and  C_34
    6  A    between atoms: C_11  and  N_14
    7  A    between atoms: N_13  and  C_38
    8  A    between atoms: C_19  and  O_25
    9  A    between atoms: C_34  and  C_38
                            x       y       z     vdW  Elec       q    Type
                         _______ _______ _______ _____ _____    ______ ____

>  <TORSDO>
F 9

$$$$
=
 OpenBabel11052416253D

 43 48  0  0  1  0  0  0  0  0999 V2000
  185.3940  177.9760  141.6820 C   0  0  1  0  0  3  0  0  0  0  0  0
  188.0690  178.1750  147.6160 C   0  0  2  0  0  3  0  0  0  0  0  0
  185.7660  178.0620  143.1370 C   0  0  0  0  0  0  0  0  0  0  0  0
  186.3280  178.3590  145.8470 C   0  0  0  0  0  0  0  0  0  0  0  0
  188.4170  176.8860  147.0200 N   0  0  0  0  0  2  0  0  0  0  0  0
  188.2690  178.1110  149.1150 C   0  0  0  0  0  1  0  0  0  0  0  0
  187.1750  177.5800  145.0500 C   0  0  0  0  0  0  0  0  0  0  0  0
  186.6080  178.5090  147.3120 C   0  0  0  0  0  2  0  0  0  0  0  0
  188.2940  176.9800  145.6420 O   0  0  0  0  0  0  0  0  0  0  0  0
  187.8500  176.6360  142.8340 C   0  0  0  0  0  1  0  0  0  0  0  0
  186.9140  177.4380  143.6810 C   0  0  0  0  0  0  0  0  0  0  0  0
  184.9570  178.7970  143.9490 N   0  0  0  0  0  0  0  0  0  0  0  0
  185.2100  178.9570  145.2750 C   0  0  0  0  0  3  0  0  0  0  0  0
  183.8800  177.8680  141.5030 C   0  0  0  0  0  2  0  0  0  0  0  0
  181.7280  179.2890  138.6280 C   0  0  0  0  0  2  0  0  0  0  0  0
  181.9880  178.2100  137.5970 C   0  0  0  0  0  0  0  0  0  0  0  0
  183.3730  176.9020  139.2190 C   0  0  0  0  0  2  0  0  0  0  0  0
  182.0620  178.8540  140.0540 C   0  0  0  0  0  2  0  0  0  0  0  0
  183.4230  178.1660  140.0750 C   0  0  1  0  0  3  0  0  0  0  0  0
  182.7800  177.1650  137.8630 C   0  0  0  0  0  3  0  0  0  0  0  0
  181.4550  178.3180  136.3110 O   0  0  0  0  0  0  0  0  0  0  0  0
  182.1580  177.8830  135.1550 C   0  0  0  0  0  1  0  0  0  0  0  0
  185.9740  179.1180  140.8510 C   0  0  0  0  0  2  0  0  0  0  0  0
  188.8300  178.9320  140.9910 O   0  0  0  0  0  0  0  0  0  0  0  0
  188.2720  178.5650  139.9240 C   0  0  0  0  0  0  0  0  0  0  0  0
  186.8440  178.6040  139.8030 N   0  0  0  0  0  2  0  0  0  0  0  0
  188.4630  176.8950  138.0850 C   0  0  2  0  0  3  0  0  0  0  0  0
  190.2180  177.1580  139.2980 C   0  0  0  0  0  2  0  0  0  0  0  0
  189.1200  178.0730  138.7890 C   0  0  2  0  0  3  0  0  0  0  0  0
  189.5740  175.9860  138.5810 C   0  0  0  0  0  2  0  0  0  0  0  0
  188.5150  177.0380  136.5600 C   0  0  2  0  0  3  0  0  0  0  0  0
  185.7640  177.0070  135.4010 C   0  0  0  0  0  2  0  0  0  0  0  0
  186.4940  175.7680  135.6850 N   0  0  0  0  0  0  0  0  0  0  0  0
  187.7710  178.2980  136.1020 C   0  0  0  0  0  2  0  0  0  0  0  0
  187.9070  175.8180  135.9270 C   0  0  0  0  0  0  0  0  0  0  0  0
  188.6270  174.8080  135.7010 O   0  0  0  0  0  0  0  0  0  0  0  0
  186.2630  178.1450  136.2820 C   0  0  0  0  0  2  0  0  0  0  0  0
  185.7710  174.5280  135.9540 C   0  0  0  0  0  3  0  0  0  0  0  0
  183.3310  173.7580  136.1440 C   0  0  0  0  0  2  0  0  0  0  0  0
  185.0850  172.8870  137.7510 C   0  0  0  0  0  2  0  0  0  0  0  0
  183.9660  172.5170  136.7660 C   0  0  0  0  0  2  0  0  0  0  0  0
  185.7460  174.2390  137.4540 C   0  0  0  0  0  2  0  0  0  0  0  0
  184.3620  174.5550  135.3360 C   0  0  0  0  0  2  0  0  0  0  0  0
  1 23  1  6  0  0  0
  1  3  1  0  0  0  0
  2  6  1  1  0  0  0
  3 11  2  0  0  0  0
  3 12  1  0  0  0  0
  4  8  1  0  0  0  0
  5  2  1  0  0  0  0
  7  9  1  0  0  0  0
  7  4  2  0  0  0  0
  8  2  1  0  0  0  0
  9  5  1  0  0  0  0
 10 11  1  0  0  0  0
 11  7  1  0  0  0  0
 12 13  2  0  0  0  0
 13  4  1  0  0  0  0
 14  1  1  0  0  0  0
 15 18  1  0  0  0  0
 16 20  2  0  0  0  0
 16 15  1  0  0  0  0
 17 19  1  0  0  0  0
 18 19  1  0  0  0  0
 19 14  1  1  0  0  0
 20 17  1  0  0  0  0
 21 16  1  0  0  0  0
 22 21  1  0  0  0  0
 25 24  2  0  0  0  0
 26 25  1  0  0  0  0
 26 23  1  0  0  0  0
 27 30  1  6  0  0  0
 27 29  1  0  0  0  0
 29 28  1  0  0  0  0
 29 25  1  1  0  0  0
 30 28  1  0  0  0  0
 31 34  1  1  0  0  0
 31 27  1  0  0  0  0
 32 33  1  0  0  0  0
 32 37  1  0  0  0  0
 33 35  1  0  0  0  0
 33 38  1  0  0  0  0
 34 37  1  0  0  0  0
 35 31  1  0  0  0  0
 36 35  2  0  0  0  0
 38 42  1  0  0  0  0
 39 41  1  0  0  0  0
 41 40  1  0  0  0  0
 42 40  1  0  0  0  0
 43 38  1  0  0  0  0
 43 39  1  0  0  0  0
M  END
>  <MODEL>
4

>  <REMARK>
 VINA RESULT:      -8.3      2.397      6.013
  Name = 
  9 active torsions:
  status: ('A' for Active; 'I' for Inactive)
    1  A    between atoms: C_1  and  C_34
    2  A    between atoms: C_1  and  C_35
    3  A    between atoms: C_3  and  C_4
    4  A    between atoms: C_6  and  C_12
    5  A    between atoms: C_8  and  C_34
    6  A    between atoms: C_11  and  N_14
    7  A    between atoms: N_13  and  C_38
    8  A    between atoms: C_19  and  O_25
    9  A    between atoms: C_34  and  C_38
                            x       y       z     vdW  Elec       q    Type
                         _______ _______ _______ _____ _____    ______ ____

>  <TORSDO>
F 9

$$$$
=
 OpenBabel11052416253D

 43 48  0  0  1  0  0  0  0  0999 V2000
  189.5260  177.7060  139.3710 C   0  0  1  0  0  3  0  0  0  0  0  0
  189.3180  177.7900  145.8790 C   0  0  2  0  0  3  0  0  0  0  0  0
  189.2380  177.6210  140.8450 C   0  0  0  0  0  0  0  0  0  0  0  0
  188.5300  177.5120  143.5350 C   0  0  0  0  0  0  0  0  0  0  0  0
  190.4910  177.0110  145.4870 N   0  0  0  0  0  2  0  0  0  0  0  0
  188.9640  177.4850  147.3180 C   0  0  0  0  0  1  0  0  0  0  0  0
  189.8820  177.4530  143.1760 C   0  0  0  0  0  0  0  0  0  0  0  0
  188.1350  177.4340  144.9780 C   0  0  0  0  0  2  0  0  0  0  0  0
  190.8430  177.3520  144.1890 O   0  0  0  0  0  0  0  0  0  0  0  0
  191.7030  177.5000  141.4620 C   0  0  0  0  0  1  0  0  0  0  0  0
  190.2530  177.5250  141.8270 C   0  0  0  0  0  0  0  0  0  0  0  0
  187.9340  177.6590  141.2330 N   0  0  0  0  0  0  0  0  0  0  0  0
  187.5620  177.6070  142.5400 C   0  0  0  0  0  3  0  0  0  0  0  0
  189.3640  176.3440  138.6960 C   0  0  0  0  0  2  0  0  0  0  0  0
  193.1010  176.0270  137.7760 C   0  0  0  0  0  2  0  0  0  0  0  0
  193.0330  174.7310  136.9950 C   0  0  0  0  0  0  0  0  0  0  0  0
  190.5470  174.6250  137.2630 C   0  0  0  0  0  2  0  0  0  0  0  0
  191.7440  176.7090  137.9350 C   0  0  0  0  0  2  0  0  0  0  0  0
  190.6990  175.6810  138.3560 C   0  0  1  0  0  3  0  0  0  0  0  0
  191.8760  174.0810  136.8190 C   0  0  0  0  0  3  0  0  0  0  0  0
  194.1970  174.1460  136.4920 O   0  0  0  0  0  0  0  0  0  0  0  0
  195.0740  173.3750  137.3020 C   0  0  0  0  0  1  0  0  0  0  0  0
  188.7020  178.7800  138.6660 C   0  0  0  0  0  2  0  0  0  0  0  0
  185.8780  179.0030  139.1010 O   0  0  0  0  0  0  0  0  0  0  0  0
  186.2670  178.3000  138.1310 C   0  0  0  0  0  0  0  0  0  0  0  0
  187.6640  178.1750  137.8420 N   0  0  0  0  0  2  0  0  0  0  0  0
  184.4900  176.5550  138.0700 C   0  0  2  0  0  3  0  0  0  0  0  0
  185.8930  176.5210  136.4410 C   0  0  0  0  0  2  0  0  0  0  0  0
  185.2460  177.6100  137.2760 C   0  0  2  0  0  3  0  0  0  0  0  0
  185.1260  175.4680  137.2190 C   0  0  0  0  0  2  0  0  0  0  0  0
  182.9800  176.6250  137.8220 C   0  0  2  0  0  3  0  0  0  0  0  0
  181.8260  179.0960  139.0380 C   0  0  0  0  0  2  0  0  0  0  0  0
  182.0180  177.8710  139.8190 N   0  0  0  0  0  0  0  0  0  0  0  0
  182.6140  177.8790  137.0180 C   0  0  0  0  0  2  0  0  0  0  0  0
  182.2610  176.6290  139.1420 C   0  0  0  0  0  0  0  0  0  0  0  0
  181.9620  175.5360  139.6930 O   0  0  0  0  0  0  0  0  0  0  0  0
  182.7850  179.1430  137.8570 C   0  0  0  0  0  2  0  0  0  0  0  0
  182.1980  177.9370  141.2670 C   0  0  0  0  0  3  0  0  0  0  0  0
  181.3630  179.3780  143.2190 C   0  0  0  0  0  2  0  0  0  0  0  0
  183.7770  178.6170  143.1220 C   0  0  0  0  0  2  0  0  0  0  0  0
  182.4990  178.6890  143.9700 C   0  0  0  0  0  2  0  0  0  0  0  0
  183.5160  178.6310  141.6110 C   0  0  0  0  0  2  0  0  0  0  0  0
  180.9890  178.5970  141.9530 C   0  0  0  0  0  2  0  0  0  0  0  0
  1 23  1  6  0  0  0
  1  3  1  0  0  0  0
  2  6  1  1  0  0  0
  3 12  2  0  0  0  0
  3 11  1  0  0  0  0
  4  8  1  0  0  0  0
  5  2  1  0  0  0  0
  7  4  1  0  0  0  0
  7  9  1  0  0  0  0
  8  2  1  0  0  0  0
  9  5  1  0  0  0  0
 10 11  1  0  0  0  0
 11  7  2  0  0  0  0
 12 13  1  0  0  0  0
 13  4  2  0  0  0  0
 14  1  1  0  0  0  0
 15 18  1  0  0  0  0
 16 15  1  0  0  0  0
 17 19  1  0  0  0  0
 18 19  1  0  0  0  0
 19 14  1  6  0  0  0
 20 16  2  0  0  0  0
 20 17  1  0  0  0  0
 21 16  1  0  0  0  0
 21 22  1  0  0  0  0
 25 24  2  0  0  0  0
 26 25  1  0  0  0  0
 26 23  1  0  0  0  0
 27 30  1  6  0  0  0
 28 30  1  0  0  0  0
 28 29  1  0  0  0  0
 29 27  1  0  0  0  0
 29 25  1  1  0  0  0
 31 34  1  1  0  0  0
 31 27  1  0  0  0  0
 31 35  1  0  0  0  0
 32 33  1  0  0  0  0
 33 38  1  0  0  0  0
 34 37  1  0  0  0  0
 35 36  2  0  0  0  0
 35 33  1  0  0  0  0
 37 32  1  0  0  0  0
 38 42  1  0  0  0  0
 38 43  1  0  0  0  0
 39 41  1  0  0  0  0
 40 41  1  0  0  0  0
 42 40  1  0  0  0  0
 43 39  1  0  0  0  0
M  END
>  <MODEL>
5

>  <REMARK>
 VINA RESULT:      -8.1      2.581      6.384
  Name = 
  9 active torsions:
  status: ('A' for Active; 'I' for Inactive)
    1  A    between atoms: C_1  and  C_34
    2  A    between atoms: C_1  and  C_35
    3  A    between atoms: C_3  and  C_4
    4  A    between atoms: C_6  and  C_12
    5  A    between atoms: C_8  and  C_34
    6  A    between atoms: C_11  and  N_14
    7  A    between atoms: N_13  and  C_38
    8  A    between atoms: C_19  and  O_25
    9  A    between atoms: C_34  and  C_38
                            x       y       z     vdW  Elec       q    Type
                         _______ _______ _______ _____ _____    ______ ____

>  <TORSDO>
F 9

$$$$
=
 OpenBabel11052416253D

 43 48  0  0  1  0  0  0  0  0999 V2000
  186.5670  177.8780  142.8780 C   0  0  1  0  0  3  0  0  0  0  0  0
  191.1760  176.0880  147.1160 C   0  0  2  0  0  3  0  0  0  0  0  0
  187.7990  177.5140  143.6610 C   0  0  0  0  0  0  0  0  0  0  0  0
  190.1480  176.7650  144.9530 C   0  0  0  0  0  0  0  0  0  0  0  0
  190.4290  177.1920  147.7180 N   0  0  0  0  0  2  0  0  0  0  0  0
  192.5020  175.9250  147.8270 C   0  0  0  0  0  1  0  0  0  0  0  0
  189.0640  177.2260  145.7090 C   0  0  0  0  0  0  0  0  0  0  0  0
  191.4250  176.3780  145.6360 C   0  0  0  0  0  2  0  0  0  0  0  0
  189.1900  177.2850  147.1020 O   0  0  0  0  0  0  0  0  0  0  0  0
  186.7060  178.0420  145.8960 C   0  0  0  0  0  1  0  0  0  0  0  0
  187.8700  177.5880  145.0720 C   0  0  0  0  0  0  0  0  0  0  0  0
  188.8820  177.0770  142.9600 N   0  0  0  0  0  0  0  0  0  0  0  0
  190.0400  176.7060  143.5680 C   0  0  0  0  0  3  0  0  0  0  0  0
  185.3970  178.2010  143.8080 C   0  0  0  0  0  2  0  0  0  0  0  0
  181.7360  179.2810  143.2180 C   0  0  0  0  0  2  0  0  0  0  0  0
  181.5980  178.8340  141.7770 C   0  0  0  0  0  0  0  0  0  0  0  0
  183.9130  177.8850  141.7810 C   0  0  0  0  0  2  0  0  0  0  0  0
  182.9120  178.6280  143.9420 C   0  0  0  0  0  2  0  0  0  0  0  0
  184.1540  178.6850  143.0600 C   0  0  1  0  0  3  0  0  0  0  0  0
  182.6120  178.2530  141.1250 C   0  0  0  0  0  3  0  0  0  0  0  0
  180.4190  179.0800  141.0700 O   0  0  0  0  0  0  0  0  0  0  0  0
  180.2700  180.1930  140.2000 C   0  0  0  0  0  1  0  0  0  0  0  0
  186.8100  179.0030  141.8750 C   0  0  0  0  0  2  0  0  0  0  0  0
  186.8560  178.6230  139.0360 O   0  0  0  0  0  0  0  0  0  0  0  0
  187.9470  178.5210  139.6570 C   0  0  0  0  0  0  0  0  0  0  0  0
  187.9950  178.7320  141.0740 N   0  0  0  0  0  2  0  0  0  0  0  0
  189.1410  176.7750  138.3420 C   0  0  2  0  0  3  0  0  0  0  0  0
  190.3110  177.7870  139.8350 C   0  0  0  0  0  2  0  0  0  0  0  0
  189.1940  178.1930  138.8920 C   0  0  2  0  0  3  0  0  0  0  0  0
  190.2720  176.3780  139.2750 C   0  0  0  0  0  2  0  0  0  0  0  0
  189.5940  176.7120  136.8790 C   0  0  2  0  0  3  0  0  0  0  0  0
  187.2390  176.5320  135.0520 C   0  0  0  0  0  2  0  0  0  0  0  0
  187.8230  175.3410  135.6750 N   0  0  0  0  0  0  0  0  0  0  0  0
  189.0410  177.9010  136.0830 C   0  0  0  0  0  2  0  0  0  0  0  0
  189.1260  175.4200  136.2710 C   0  0  0  0  0  0  0  0  0  0  0  0
  189.8410  174.3880  136.3740 O   0  0  0  0  0  0  0  0  0  0  0  0
  187.5340  177.7770  135.8790 C   0  0  0  0  0  2  0  0  0  0  0  0
  187.0090  174.1500  135.9020 C   0  0  0  0  0  3  0  0  0  0  0  0
  184.7570  173.2120  135.1090 C   0  0  0  0  0  2  0  0  0  0  0  0
  185.4640  172.9850  137.5300 C   0  0  0  0  0  2  0  0  0  0  0  0
  184.9540  172.2540  136.2800 C   0  0  0  0  0  2  0  0  0  0  0  0
  186.2420  174.2700  137.2190 C   0  0  0  0  0  2  0  0  0  0  0  0
  186.0830  173.8670  134.7060 C   0  0  0  0  0  2  0  0  0  0  0  0
  1 23  1  1  0  0  0
  1  3  1  0  0  0  0
  1 14  1  0  0  0  0
  2  5  1  0  0  0  0
  2  6  1  1  0  0  0
  3 11  1  0  0  0  0
  4  8  1  0  0  0  0
  4  7  1  0  0  0  0
  7  9  1  0  0  0  0
  8  2  1  0  0  0  0
  9  5  1  0  0  0  0
 11  7  2  0  0  0  0
 11 10  1  0  0  0  0
 12 13  1  0  0  0  0
 12  3  2  0  0  0  0
 13  4  2  0  0  0  0
 15 18  1  0  0  0  0
 16 15  1  0  0  0  0
 17 19  1  0  0  0  0
 19 14  1  1  0  0  0
 19 18  1  0  0  0  0
 20 16  2  0  0  0  0
 20 17  1  0  0  0  0
 21 16  1  0  0  0  0
 22 21  1  0  0  0  0
 24 25  2  0  0  0  0
 25 26  1  0  0  0  0
 26 23  1  0  0  0  0
 27 29  1  0  0  0  0
 27 30  1  1  0  0  0
 29 25  1  1  0  0  0
 29 28  1  0  0  0  0
 30 28  1  0  0  0  0
 31 34  1  6  0  0  0
 31 27  1  0  0  0  0
 32 33  1  0  0  0  0
 32 37  1  0  0  0  0
 33 38  1  0  0  0  0
 33 35  1  0  0  0  0
 35 36  2  0  0  0  0
 35 31  1  0  0  0  0
 37 34  1  0  0  0  0
 38 42  1  0  0  0  0
 39 41  1  0  0  0  0
 41 40  1  0  0  0  0
 42 40  1  0  0  0  0
 43 39  1  0  0  0  0
 43 38  1  0  0  0  0
M  END
>  <MODEL>
6

>  <REMARK>
 VINA RESULT:      -8.0      2.137      6.211
  Name = 
  9 active torsions:
  status: ('A' for Active; 'I' for Inactive)
    1  A    between atoms: C_1  and  C_34
    2  A    between atoms: C_1  and  C_35
    3  A    between atoms: C_3  and  C_4
    4  A    between atoms: C_6  and  C_12
    5  A    between atoms: C_8  and  C_34
    6  A    between atoms: C_11  and  N_14
    7  A    between atoms: N_13  and  C_38
    8  A    between atoms: C_19  and  O_25
    9  A    between atoms: C_34  and  C_38
                            x       y       z     vdW  Elec       q    Type
                         _______ _______ _______ _____ _____    ______ ____

>  <TORSDO>
F 9

$$$$
=
 OpenBabel11052416253D

 43 48  0  0  1  0  0  0  0  0999 V2000
  189.2620  177.8740  140.6080 C   0  0  1  0  0  3  0  0  0  0  0  0
  188.4830  177.8790  147.0730 C   0  0  2  0  0  3  0  0  0  0  0  0
  188.8590  177.7460  142.0510 C   0  0  0  0  0  0  0  0  0  0  0  0
  187.9360  177.5380  144.6690 C   0  0  0  0  0  0  0  0  0  0  0  0
  189.7630  177.2350  146.7850 N   0  0  0  0  0  2  0  0  0  0  0  0
  188.0410  177.5250  148.4760 C   0  0  0  0  0  1  0  0  0  0  0  0
  189.3120  177.6280  144.4300 C   0  0  0  0  0  0  0  0  0  0  0  0
  187.4280  177.4050  146.0730 C   0  0  0  0  0  2  0  0  0  0  0  0
  190.1870  177.6230  145.5230 O   0  0  0  0  0  0  0  0  0  0  0  0
  191.2590  177.8870  142.8800 C   0  0  0  0  0  1  0  0  0  0  0  0
  189.7880  177.7520  143.1180 C   0  0  0  0  0  0  0  0  0  0  0  0
  187.5290  177.6390  142.3250 N   0  0  0  0  0  0  0  0  0  0  0  0
  187.0540  177.5360  143.5940 C   0  0  0  0  0  3  0  0  0  0  0  0
  189.7670  176.5420  140.0540 C   0  0  0  0  0  2  0  0  0  0  0  0
  191.9580  175.7990  136.9620 C   0  0  0  0  0  2  0  0  0  0  0  0
  193.2650  176.3770  137.4660 C   0  0  0  0  0  0  0  0  0  0  0  0
  192.2440  176.9200  139.6850 C   0  0  0  0  0  2  0  0  0  0  0  0
  190.9540  175.5140  138.0760 C   0  0  0  0  0  2  0  0  0  0  0  0
  190.8840  176.7080  139.0220 C   0  0  1  0  0  3  0  0  0  0  0  0
  193.3620  176.9300  138.6810 C   0  0  0  0  0  3  0  0  0  0  0  0
  194.3910  176.4040  136.6410 O   0  0  0  0  0  0  0  0  0  0  0  0
  194.3000  176.3500  135.2240 C   0  0  0  0  0  1  0  0  0  0  0  0
  188.1570  178.4600  139.7320 C   0  0  0  0  0  2  0  0  0  0  0  0
  187.6800  179.2350  137.0150 O   0  0  0  0  0  0  0  0  0  0  0  0
  187.5790  178.0130  137.3000 C   0  0  0  0  0  0  0  0  0  0  0  0
  187.8370  177.5580  138.6340 N   0  0  0  0  0  2  0  0  0  0  0  0
  186.8030  175.6960  136.8120 C   0  0  2  0  0  3  0  0  0  0  0  0
  188.4400  176.4090  135.6130 C   0  0  0  0  0  2  0  0  0  0  0  0
  187.2020  177.0410  136.2220 C   0  0  2  0  0  3  0  0  0  0  0  0
  188.0340  175.0630  136.1850 C   0  0  0  0  0  2  0  0  0  0  0  0
  185.5230  175.1480  136.1730 C   0  0  2  0  0  3  0  0  0  0  0  0
  183.3840  177.2310  136.1410 C   0  0  0  0  0  2  0  0  0  0  0  0
  183.6110  176.3780  137.3100 N   0  0  0  0  0  0  0  0  0  0  0  0
  185.1430  175.9580  134.9270 C   0  0  0  0  0  2  0  0  0  0  0  0
  184.4080  175.1920  137.1800 C   0  0  0  0  0  0  0  0  0  0  0  0
  184.2430  174.2250  137.9690 O   0  0  0  0  0  0  0  0  0  0  0  0
  184.6510  177.3530  135.3040 C   0  0  0  0  0  2  0  0  0  0  0  0
  183.2360  176.8380  138.6450 C   0  0  0  0  0  3  0  0  0  0  0  0
  181.3970  178.2760  139.7090 C   0  0  0  0  0  2  0  0  0  0  0  0
  183.7960  178.4590  140.5020 C   0  0  0  0  0  2  0  0  0  0  0  0
  182.3320  178.2480  140.9160 C   0  0  0  0  0  2  0  0  0  0  0  0
  184.0990  178.0280  139.0620 C   0  0  0  0  0  2  0  0  0  0  0  0
  181.7300  177.1440  138.7310 C   0  0  0  0  0  2  0  0  0  0  0  0
  1 23  1  6  0  0  0
  1  3  1  0  0  0  0
  2  6  1  1  0  0  0
  3 12  2  0  0  0  0
  3 11  1  0  0  0  0
  4  8  1  0  0  0  0
  5  2  1  0  0  0  0
  7  4  1  0  0  0  0
  7  9  1  0  0  0  0
  8  2  1  0  0  0  0
  9  5  1  0  0  0  0
 10 11  1  0  0  0  0
 11  7  2  0  0  0  0
 12 13  1  0  0  0  0
 13  4  2  0  0  0  0
 14  1  1  0  0  0  0
 15 16  1  0  0  0  0
 15 18  1  0  0  0  0
 16 20  2  0  0  0  0
 18 19  1  0  0  0  0
 19 17  1  0  0  0  0
 19 14  1  1  0  0  0
 20 17  1  0  0  0  0
 21 16  1  0  0  0  0
 22 21  1  0  0  0  0
 24 25  2  0  0  0  0
 25 26  1  0  0  0  0
 26 23  1  0  0  0  0
 27 30  1  6  0  0  0
 28 30  1  0  0  0  0
 28 29  1  0  0  0  0
 29 27  1  0  0  0  0
 29 25  1  1  0  0  0
 31 34  1  6  0  0  0
 31 27  1  0  0  0  0
 31 35  1  0  0  0  0
 32 33  1  0  0  0  0
 33 38  1  0  0  0  0
 34 37  1  0  0  0  0
 35 33  1  0  0  0  0
 35 36  2  0  0  0  0
 37 32  1  0  0  0  0
 38 43  1  0  0  0  0
 38 42  1  0  0  0  0
 39 41  1  0  0  0  0
 40 41  1  0  0  0  0
 42 40  1  0  0  0  0
 43 39  1  0  0  0  0
M  END
>  <MODEL>
7

>  <REMARK>
 VINA RESULT:      -7.8      2.402      5.360
  Name = 
  9 active torsions:
  status: ('A' for Active; 'I' for Inactive)
    1  A    between atoms: C_1  and  C_34
    2  A    between atoms: C_1  and  C_35
    3  A    between atoms: C_3  and  C_4
    4  A    between atoms: C_6  and  C_12
    5  A    between atoms: C_8  and  C_34
    6  A    between atoms: C_11  and  N_14
    7  A    between atoms: N_13  and  C_38
    8  A    between atoms: C_19  and  O_25
    9  A    between atoms: C_34  and  C_38
                            x       y       z     vdW  Elec       q    Type
                         _______ _______ _______ _____ _____    ______ ____

>  <TORSDO>
F 9

$$$$
=
 OpenBabel11052416253D

 43 48  0  0  1  0  0  0  0  0999 V2000
  188.7470  177.6320  141.3610 C   0  0  1  0  0  3  0  0  0  0  0  0
  192.9010  175.7290  136.7210 C   0  0  2  0  0  3  0  0  0  0  0  0
  189.5260  177.2850  140.1210 C   0  0  0  0  0  0  0  0  0  0  0  0
  190.8060  176.5940  137.7480 C   0  0  0  0  0  0  0  0  0  0  0  0
  193.6130  176.6620  137.5930 N   0  0  0  0  0  2  0  0  0  0  0  0
  193.6390  175.5970  135.4070 C   0  0  0  0  0  1  0  0  0  0  0  0
  191.5690  176.8400  138.8950 C   0  0  0  0  0  0  0  0  0  0  0  0
  191.4840  176.2420  136.4590 C   0  0  0  0  0  2  0  0  0  0  0  0
  192.9620  176.7190  138.8160 O   0  0  0  0  0  0  0  0  0  0  0  0
  191.7630  177.3930  141.3280 C   0  0  0  0  0  1  0  0  0  0  0  0
  190.9360  177.1710  140.1000 C   0  0  0  0  0  0  0  0  0  0  0  0
  188.8200  177.0540  138.9800 N   0  0  0  0  0  0  0  0  0  0  0  0
  189.4210  176.7160  137.8090 C   0  0  0  0  0  3  0  0  0  0  0  0
  189.6680  178.1450  142.4670 C   0  0  0  0  0  2  0  0  0  0  0  0
  187.6540  177.4390  145.6860 C   0  0  0  0  0  2  0  0  0  0  0  0
  188.8140  177.2460  146.6410 C   0  0  0  0  0  0  0  0  0  0  0  0
  190.4690  177.7740  144.8400 C   0  0  0  0  0  2  0  0  0  0  0  0
  188.0440  178.1660  144.4010 C   0  0  0  0  0  2  0  0  0  0  0  0
  189.3310  177.5680  143.8430 C   0  0  1  0  0  3  0  0  0  0  0  0
  190.0830  177.3470  146.2290 C   0  0  0  0  0  3  0  0  0  0  0  0
  188.5830  176.8890  147.9710 O   0  0  0  0  0  0  0  0  0  0  0  0
  188.0030  177.7840  148.9100 C   0  0  0  0  0  1  0  0  0  0  0  0
  187.6040  178.6070  141.0900 C   0  0  0  0  0  2  0  0  0  0  0  0
  185.0110  179.6270  140.4200 O   0  0  0  0  0  0  0  0  0  0  0  0
  185.0660  178.6190  141.1730 C   0  0  0  0  0  0  0  0  0  0  0  0
  186.3320  178.0420  141.5180 N   0  0  0  0  0  2  0  0  0  0  0  0
  182.5810  178.7940  141.1770 C   0  0  2  0  0  3  0  0  0  0  0  0
  183.5030  178.5030  143.0970 C   0  0  0  0  0  2  0  0  0  0  0  0
  183.7900  178.0230  141.6870 C   0  0  2  0  0  3  0  0  0  0  0  0
  182.2870  179.2580  142.5940 C   0  0  0  0  0  2  0  0  0  0  0  0
  181.4790  177.8590  140.6700 C   0  0  2  0  0  3  0  0  0  0  0  0
  181.3980  177.8430  137.6860 C   0  0  0  0  0  2  0  0  0  0  0  0
  180.6920  178.8600  138.4700 N   0  0  0  0  0  0  0  0  0  0  0  0
  182.0670  176.7340  139.8090 C   0  0  0  0  0  2  0  0  0  0  0  0
  180.4820  178.6540  139.8740 C   0  0  0  0  0  0  0  0  0  0  0  0
  179.5200  179.2150  140.4620 O   0  0  0  0  0  0  0  0  0  0  0  0
  182.5690  177.2690  138.4710 C   0  0  0  0  0  2  0  0  0  0  0  0
  180.4100  180.1730  137.8950 C   0  0  0  0  0  3  0  0  0  0  0  0
  180.6890  181.3550  135.6350 C   0  0  0  0  0  2  0  0  0  0  0  0
  181.1550  182.5870  137.7980 C   0  0  0  0  0  2  0  0  0  0  0  0
  180.3980  182.6040  136.4620 C   0  0  0  0  0  2  0  0  0  0  0  0
  181.4880  181.1770  138.3010 C   0  0  0  0  0  2  0  0  0  0  0  0
  180.2280  180.0900  136.3690 C   0  0  0  0  0  2  0  0  0  0  0  0
  1 23  1  6  0  0  0
  1 14  1  0  0  0  0
  2  6  1  6  0  0  0
  2  5  1  0  0  0  0
  3  1  1  0  0  0  0
  4 13  2  0  0  0  0
  4  7  1  0  0  0  0
  5  9  1  0  0  0  0
  7 11  2  0  0  0  0
  8  2  1  0  0  0  0
  8  4  1  0  0  0  0
  9  7  1  0  0  0  0
 11  3  1  0  0  0  0
 11 10  1  0  0  0  0
 12  3  2  0  0  0  0
 13 12  1  0  0  0  0
 15 16  1  0  0  0  0
 16 21  1  0  0  0  0
 17 20  1  0  0  0  0
 18 15  1  0  0  0  0
 19 14  1  6  0  0  0
 19 18  1  0  0  0  0
 19 17  1  0  0  0  0
 20 16  2  0  0  0  0
 21 22  1  0  0  0  0
 23 26  1  0  0  0  0
 24 25  2  0  0  0  0
 25 26  1  0  0  0  0
 27 29  1  0  0  0  0
 27 30  1  1  0  0  0
 29 25  1  6  0  0  0
 29 28  1  0  0  0  0
 30 28  1  0  0  0  0
 31 34  1  6  0  0  0
 31 27  1  0  0  0  0
 32 33  1  0  0  0  0
 32 37  1  0  0  0  0
 33 35  1  0  0  0  0
 35 36  2  0  0  0  0
 35 31  1  0  0  0  0
 37 34  1  0  0  0  0
 38 42  1  0  0  0  0
 38 33  1  0  0  0  0
 39 43  1  0  0  0  0
 39 41  1  0  0  0  0
 40 42  1  0  0  0  0
 41 40  1  0  0  0  0
 43 38  1  0  0  0  0
M  END
>  <MODEL>
8

>  <REMARK>
 VINA RESULT:      -7.8      3.133      7.218
  Name = 
  9 active torsions:
  status: ('A' for Active; 'I' for Inactive)
    1  A    between atoms: C_1  and  C_34
    2  A    between atoms: C_1  and  C_35
    3  A    between atoms: C_3  and  C_4
    4  A    between atoms: C_6  and  C_12
    5  A    between atoms: C_8  and  C_34
    6  A    between atoms: C_11  and  N_14
    7  A    between atoms: N_13  and  C_38
    8  A    between atoms: C_19  and  O_25
    9  A    between atoms: C_34  and  C_38
                            x       y       z     vdW  Elec       q    Type
                         _______ _______ _______ _____ _____    ______ ____

>  <TORSDO>
F 9

$$$$
=
 OpenBabel11052416253D

 43 48  0  0  1  0  0  0  0  0999 V2000
  189.6620  177.6920  140.0770 C   0  0  1  0  0  3  0  0  0  0  0  0
  188.9750  177.7910  146.5520 C   0  0  2  0  0  3  0  0  0  0  0  0
  189.2670  177.6090  141.5270 C   0  0  0  0  0  0  0  0  0  0  0  0
  188.3630  177.5020  144.1570 C   0  0  0  0  0  0  0  0  0  0  0  0
  190.1780  177.0170  146.2500 N   0  0  0  0  0  2  0  0  0  0  0  0
  188.5180  177.4870  147.9630 C   0  0  0  0  0  1  0  0  0  0  0  0
  189.7380  177.4500  143.9000 C   0  0  0  0  0  0  0  0  0  0  0  0
  187.8630  177.4260  145.5680 C   0  0  0  0  0  2  0  0  0  0  0  0
  190.6230  177.3570  144.9810 O   0  0  0  0  0  0  0  0  0  0  0  0
  191.6800  177.5030  142.3230 C   0  0  0  0  0  1  0  0  0  0  0  0
  190.2070  177.5210  142.5810 C   0  0  0  0  0  0  0  0  0  0  0  0
  187.9370  177.6400  141.8180 N   0  0  0  0  0  0  0  0  0  0  0  0
  187.4710  177.5890  143.0930 C   0  0  0  0  0  3  0  0  0  0  0  0
  189.3770  176.3780  139.3500 C   0  0  0  0  0  2  0  0  0  0  0  0
  192.9970  176.1390  138.0260 C   0  0  0  0  0  2  0  0  0  0  0  0
  192.6960  175.6170  136.6360 C   0  0  0  0  0  0  0  0  0  0  0  0
  190.2320  175.7390  137.0540 C   0  0  0  0  0  2  0  0  0  0  0  0
  191.7870  176.7740  138.7080 C   0  0  0  0  0  2  0  0  0  0  0  0
  190.5700  175.8720  138.5380 C   0  0  1  0  0  3  0  0  0  0  0  0
  191.4400  175.3900  136.2320 C   0  0  0  0  0  3  0  0  0  0  0  0
  193.7350  175.2970  135.7600 O   0  0  0  0  0  0  0  0  0  0  0  0
  194.6850  176.2580  135.3210 C   0  0  0  0  0  1  0  0  0  0  0  0
  189.0270  178.8780  139.3560 C   0  0  0  0  0  2  0  0  0  0  0  0
  189.0550  179.0030  136.4930 O   0  0  0  0  0  0  0  0  0  0  0  0
  188.0200  178.5510  137.0490 C   0  0  0  0  0  0  0  0  0  0  0  0
  187.9560  178.4330  138.4750 N   0  0  0  0  0  2  0  0  0  0  0  0
  185.9390  177.1830  136.9570 C   0  0  2  0  0  3  0  0  0  0  0  0
  187.2650  176.9860  135.2760 C   0  0  0  0  0  2  0  0  0  0  0  0
  186.8620  178.1240  136.1960 C   0  0  2  0  0  3  0  0  0  0  0  0
  186.3310  176.0510  136.0220 C   0  0  0  0  0  2  0  0  0  0  0  0
  184.4650  177.5560  136.7730 C   0  0  2  0  0  3  0  0  0  0  0  0
  182.7090  175.7350  138.3600 C   0  0  0  0  0  2  0  0  0  0  0  0
  183.1740  175.3790  137.0170 N   0  0  0  0  0  0  0  0  0  0  0  0
  183.8260  177.9430  138.1120 C   0  0  0  0  0  2  0  0  0  0  0  0
  183.7310  176.3920  136.1670 C   0  0  0  0  0  0  0  0  0  0  0  0
  183.6940  176.2620  134.9150 O   0  0  0  0  0  0  0  0  0  0  0  0
  183.6600  176.7260  139.0180 C   0  0  0  0  0  2  0  0  0  0  0  0
  183.2930  173.9780  136.6220 C   0  0  0  0  0  3  0  0  0  0  0  0
  182.1770  171.7420  137.2040 C   0  0  0  0  0  2  0  0  0  0  0  0
  184.6830  171.8780  136.8580 C   0  0  0  0  0  2  0  0  0  0  0  0
  183.3820  171.1610  136.4680 C   0  0  0  0  0  2  0  0  0  0  0  0
  184.4730  173.3200  137.3380 C   0  0  0  0  0  2  0  0  0  0  0  0
  181.9730  173.2180  136.8440 C   0  0  0  0  0  2  0  0  0  0  0  0
  1 14  1  6  0  0  0
  1  3  1  0  0  0  0
  2  6  1  1  0  0  0
  3 12  2  0  0  0  0
  3 11  1  0  0  0  0
  4  8  1  0  0  0  0
  5  2  1  0  0  0  0
  7  4  1  0  0  0  0
  7  9  1  0  0  0  0
  8  2  1  0  0  0  0
  9  5  1  0  0  0  0
 10 11  1  0  0  0  0
 11  7  2  0  0  0  0
 12 13  1  0  0  0  0
 13  4  2  0  0  0  0
 15 18  1  0  0  0  0
 16 15  1  0  0  0  0
 17 19  1  0  0  0  0
 19 18  1  0  0  0  0
 19 14  1  1  0  0  0
 20 16  2  0  0  0  0
 20 17  1  0  0  0  0
 21 16  1  0  0  0  0
 22 21  1  0  0  0  0
 23  1  1  0  0  0  0
 24 25  2  0  0  0  0
 25 26  1  0  0  0  0
 26 23  1  0  0  0  0
 27 30  1  6  0  0  0
 28 30  1  0  0  0  0
 28 29  1  0  0  0  0
 29 27  1  0  0  0  0
 29 25  1  1  0  0  0
 31 27  1  0  0  0  0
 31 34  1  1  0  0  0
 32 37  1  0  0  0  0
 33 32  1  0  0  0  0
 34 37  1  0  0  0  0
 35 31  1  0  0  0  0
 35 33  1  0  0  0  0
 36 35  2  0  0  0  0
 38 43  1  0  0  0  0
 38 33  1  0  0  0  0
 38 42  1  0  0  0  0
 40 42  1  0  0  0  0
 41 40  1  0  0  0  0
 41 39  1  0  0  0  0
 43 39  1  0  0  0  0
M  END
>  <MODEL>
9

>  <REMARK>
 VINA RESULT:      -7.8      2.779      5.755
  Name = 
  9 active torsions:
  status: ('A' for Active; 'I' for Inactive)
    1  A    between atoms: C_1  and  C_34
    2  A    between atoms: C_1  and  C_35
    3  A    between atoms: C_3  and  C_4
    4  A    between atoms: C_6  and  C_12
    5  A    between atoms: C_8  and  C_34
    6  A    between atoms: C_11  and  N_14
    7  A    between atoms: N_13  and  C_38
    8  A    between atoms: C_19  and  O_25
    9  A    between atoms: C_34  and  C_38
                            x       y       z     vdW  Elec       q    Type
                         _______ _______ _______ _____ _____    ______ ____

>  <TORSDO>
F 9

$$$$
