=
 OpenBabel11052412453D

 25 28  0  0  1  0  0  0  0  0999 V2000
  187.3280  177.9830  145.9250 C   0  0  0  0  0  0  0  0  0  0  0  0
  188.6520  177.5800  145.7290 C   0  0  0  0  0  0  0  0  0  0  0  0
  187.6420  178.2280  148.3110 C   0  0  0  0  0  3  0  0  0  0  0  0
  186.2710  178.1610  145.0580 C   0  0  0  0  0  0  0  0  0  0  0  0
  190.6630  177.4130  144.1980 C   0  0  2  0  0  0  0  0  0  0  0  0
  183.9380  179.1550  143.7840 C   0  0  0  0  0  2  0  0  0  0  0  0
  188.9760  177.8130  148.1490 C   0  0  0  0  0  3  0  0  0  0  0  0
  185.2250  178.6070  145.8430 C   0  0  0  0  0  0  0  0  0  0  0  0
  183.8660  178.9200  145.3000 C   0  0  0  0  0  2  0  0  0  0  0  0
  190.8800  177.0660  146.6900 C   0  0  0  0  0  0  0  0  0  0  0  0
  191.6140  176.8140  147.6810 O   0  0  0  0  0  0  0  0  0  0  0  0
  189.1560  177.1530  144.3740 C   0  0  0  0  0  2  0  0  0  0  0  0
  184.7620  178.0610  143.0870 C   0  0  0  0  0  2  0  0  0  0  0  0
  186.8440  178.3050  147.1730 C   0  0  0  0  0  0  0  0  0  0  0  0
  185.5840  178.6730  147.1110 O   0  0  0  0  0  0  0  0  0  0  0  0
  191.3990  176.9260  145.3640 N   0  0  0  0  0  2  0  0  0  0  0  0
  186.2220  178.0770  143.5640 C   0  0  0  0  0  2  0  0  0  0  0  0
  190.9160  178.9090  144.0440 C   0  0  0  0  0  1  0  0  0  0  0  0
  189.4820  177.4890  146.8690 C   0  0  0  0  0  0  0  0  0  0  0  0
  191.1750  176.6730  142.9630 C   0  0  0  0  0  2  0  0  0  0  0  0
  190.0940  176.4530  141.9070 C   0  0  0  0  0  2  0  0  0  0  0  0
  190.5640  176.9590  140.5520 C   0  0  0  0  0  2  0  0  0  0  0  0
  189.5060  177.7720  139.8710 C   0  0  0  0  0  0  0  0  0  0  0  0
  188.4050  178.3640  140.6800 C   0  0  0  0  0  1  0  0  0  0  0  0
  189.4330  177.8120  138.4370 S   0  0  0  0  0  0  0  0  0  0  0  0
  1 14  1  0  0  0  0
  2  1  2  0  0  0  0
  2 19  1  0  0  0  0
  4  8  2  0  0  0  0
  4  1  1  0  0  0  0
  5 18  1  6  0  0  0
  5 12  1  0  0  0  0
  5 16  1  0  0  0  0
  6  9  1  0  0  0  0
  7  3  1  0  0  0  0
  8 15  1  0  0  0  0
  9  8  1  0  0  0  0
 10 19  1  0  0  0  0
 10 11  2  0  0  0  0
 12  2  1  0  0  0  0
 13 17  1  0  0  0  0
 13  6  1  0  0  0  0
 14  3  2  0  0  0  0
 15 14  1  0  0  0  0
 16 10  1  0  0  0  0
 17  4  1  0  0  0  0
 19  7  2  0  0  0  0
 20  5  1  0  0  0  0
 21 20  1  0  0  0  0
 22 21  1  0  0  0  0
 23 22  1  0  0  0  0
 23 24  1  0  0  0  0
 25 23  2  0  0  0  0
M  END
>  <MODEL>
1

>  <REMARK>
 VINA RESULT:     -10.8      0.000      0.000
  Name = 
  4 active torsions:
  status: ('A' for Active; 'I' for Inactive)
    1  A    between atoms: C_2  and  C_21
    2  A    between atoms: C_6  and  C_15
    3  A    between atoms: C_15  and  C_25
    4  A    between atoms: C_21  and  C_25
                            x       y       z     vdW  Elec       q    Type
                         _______ _______ _______ _____ _____    ______ ____

>  <TORSDO>
F 4

$$$$
=
 OpenBabel11052412453D

 25 28  0  0  1  0  0  0  0  0999 V2000
  187.6140  177.7880  145.5780 C   0  0  0  0  0  0  0  0  0  0  0  0
  188.9390  177.4200  145.3250 C   0  0  0  0  0  0  0  0  0  0  0  0
  187.9740  177.8480  147.9700 C   0  0  0  0  0  3  0  0  0  0  0  0
  186.5390  178.0200  144.7490 C   0  0  0  0  0  0  0  0  0  0  0  0
  190.9200  177.4020  143.7480 C   0  0  2  0  0  0  0  0  0  0  0  0
  184.1680  179.0810  143.6020 C   0  0  0  0  0  2  0  0  0  0  0  0
  189.3090  177.4650  147.7500 C   0  0  0  0  0  3  0  0  0  0  0  0
  185.5030  178.3890  145.5870 C   0  0  0  0  0  0  0  0  0  0  0  0
  184.1290  178.7260  145.0970 C   0  0  0  0  0  2  0  0  0  0  0  0
  191.1910  176.8610  146.2000 C   0  0  0  0  0  0  0  0  0  0  0  0
  191.9480  176.5410  147.1530 O   0  0  0  0  0  0  0  0  0  0  0  0
  189.4200  177.1090  143.9310 C   0  0  0  0  0  2  0  0  0  0  0  0
  184.9910  178.0570  142.8050 C   0  0  0  0  0  2  0  0  0  0  0  0
  187.1520  178.0040  146.8570 C   0  0  0  0  0  0  0  0  0  0  0  0
  185.8870  178.3600  146.8490 O   0  0  0  0  0  0  0  0  0  0  0  0
  191.6860  176.8340  144.8570 N   0  0  0  0  0  2  0  0  0  0  0  0
  186.4600  178.0540  143.2540 C   0  0  0  0  0  2  0  0  0  0  0  0
  191.1520  178.9080  143.7090 C   0  0  0  0  0  1  0  0  0  0  0  0
  189.7930  177.2500  146.4380 C   0  0  0  0  0  0  0  0  0  0  0  0
  191.4160  176.7690  142.4490 C   0  0  0  0  0  2  0  0  0  0  0  0
  190.9210  177.4970  141.2020 C   0  0  0  0  0  2  0  0  0  0  0  0
  190.2160  176.5290  140.2650 C   0  0  0  0  0  2  0  0  0  0  0  0
  190.0620  177.1050  138.8900 C   0  0  0  0  0  0  0  0  0  0  0  0
  190.9860  176.6680  137.8070 C   0  0  0  0  0  1  0  0  0  0  0  0
  189.1760  178.2120  138.6630 S   0  0  0  0  0  0  0  0  0  0  0  0
  1 14  1  0  0  0  0
  2  1  2  0  0  0  0
  2 19  1  0  0  0  0
  4  1  1  0  0  0  0
  4  8  2  0  0  0  0
  5 18  1  6  0  0  0
  5 12  1  0  0  0  0
  5 16  1  0  0  0  0
  6  9  1  0  0  0  0
  7  3  1  0  0  0  0
  8 15  1  0  0  0  0
  9  8  1  0  0  0  0
 10 19  1  0  0  0  0
 10 11  2  0  0  0  0
 12  2  1  0  0  0  0
 13 17  1  0  0  0  0
 13  6  1  0  0  0  0
 14  3  2  0  0  0  0
 15 14  1  0  0  0  0
 16 10  1  0  0  0  0
 17  4  1  0  0  0  0
 19  7  2  0  0  0  0
 20  5  1  0  0  0  0
 21 20  1  0  0  0  0
 22 21  1  0  0  0  0
 23 22  1  0  0  0  0
 24 23  1  0  0  0  0
 25 23  2  0  0  0  0
M  END
>  <MODEL>
2

>  <REMARK>
 VINA RESULT:     -10.0      0.816      1.053
  Name = 
  4 active torsions:
  status: ('A' for Active; 'I' for Inactive)
    1  A    between atoms: C_2  and  C_21
    2  A    between atoms: C_6  and  C_15
    3  A    between atoms: C_15  and  C_25
    4  A    between atoms: C_21  and  C_25
                            x       y       z     vdW  Elec       q    Type
                         _______ _______ _______ _____ _____    ______ ____

>  <TORSDO>
F 4

$$$$
=
 OpenBabel11052412453D

 25 28  0  0  1  0  0  0  0  0999 V2000
  187.8570  178.2360  140.7790 C   0  0  0  0  0  0  0  0  0  0  0  0
  189.1270  177.9500  141.2890 C   0  0  0  0  0  0  0  0  0  0  0  0
  188.6230  178.0730  138.4890 C   0  0  0  0  0  3  0  0  0  0  0  0
  186.6500  178.5030  141.3860 C   0  0  0  0  0  0  0  0  0  0  0  0
  190.5500  177.0230  143.1680 C   0  0  2  0  0  0  0  0  0  0  0  0
  183.8790  178.6190  141.9940 C   0  0  0  0  0  2  0  0  0  0  0  0
  189.9150  177.7970  138.9710 C   0  0  0  0  0  3  0  0  0  0  0  0
  185.7490  178.6690  140.3500 C   0  0  0  0  0  0  0  0  0  0  0  0
  184.3020  178.9870  140.5630 C   0  0  0  0  0  2  0  0  0  0  0  0
  191.5170  177.4360  140.8720 C   0  0  0  0  0  0  0  0  0  0  0  0
  192.5110  177.3960  140.1000 O   0  0  0  0  0  0  0  0  0  0  0  0
  189.4080  177.9750  142.7700 C   0  0  0  0  0  2  0  0  0  0  0  0
  184.8940  179.1340  143.0270 C   0  0  0  0  0  2  0  0  0  0  0  0
  187.6140  178.2860  139.4250 C   0  0  0  0  0  0  0  0  0  0  0  0
  186.3490  178.5490  139.1820 O   0  0  0  0  0  0  0  0  0  0  0  0
  191.6930  177.2030  142.2730 N   0  0  0  0  0  2  0  0  0  0  0  0
  186.2670  178.4750  142.8330 C   0  0  0  0  0  2  0  0  0  0  0  0
  190.0750  175.5780  143.0770 C   0  0  0  0  0  1  0  0  0  0  0  0
  190.1710  177.7360  140.3610 C   0  0  0  0  0  0  0  0  0  0  0  0
  191.0050  177.3290  144.5940 C   0  0  0  0  0  2  0  0  0  0  0  0
  189.9170  177.9830  145.4410 C   0  0  0  0  0  2  0  0  0  0  0  0
  189.4910  177.0550  146.5690 C   0  0  0  0  0  2  0  0  0  0  0  0
  188.1940  177.4890  147.1800 C   0  0  0  0  0  0  0  0  0  0  0  0
  186.9950  177.6500  146.3100 C   0  0  0  0  0  1  0  0  0  0  0  0
  188.1470  177.9420  148.5410 S   0  0  0  0  0  0  0  0  0  0  0  0
  1  2  1  0  0  0  0
  1  4  1  0  0  0  0
  2 12  1  0  0  0  0
  3  7  2  0  0  0  0
  3 14  1  0  0  0  0
  4 17  1  0  0  0  0
  5 18  1  6  0  0  0
  5 20  1  0  0  0  0
  6 13  1  0  0  0  0
  7 19  1  0  0  0  0
  8  9  1  0  0  0  0
  8  4  2  0  0  0  0
  9  6  1  0  0  0  0
 10 16  1  0  0  0  0
 11 10  2  0  0  0  0
 12  5  1  0  0  0  0
 14  1  2  0  0  0  0
 15 14  1  0  0  0  0
 15  8  1  0  0  0  0
 16  5  1  0  0  0  0
 17 13  1  0  0  0  0
 19 10  1  0  0  0  0
 19  2  2  0  0  0  0
 20 21  1  0  0  0  0
 21 22  1  0  0  0  0
 22 23  1  0  0  0  0
 23 25  2  0  0  0  0
 24 23  1  0  0  0  0
M  END
>  <MODEL>
3

>  <REMARK>
 VINA RESULT:      -8.8      3.333      5.787
  Name = 
  4 active torsions:
  status: ('A' for Active; 'I' for Inactive)
    1  A    between atoms: C_2  and  C_21
    2  A    between atoms: C_6  and  C_15
    3  A    between atoms: C_15  and  C_25
    4  A    between atoms: C_21  and  C_25
                            x       y       z     vdW  Elec       q    Type
                         _______ _______ _______ _____ _____    ______ ____

>  <TORSDO>
F 4

$$$$
=
 OpenBabel11052412453D

 25 28  0  0  1  0  0  0  0  0999 V2000
  186.4710  178.4420  142.8730 C   0  0  0  0  0  0  0  0  0  0  0  0
  187.7220  178.2360  142.2850 C   0  0  0  0  0  0  0  0  0  0  0  0
  185.3740  178.6380  140.7250 C   0  0  0  0  0  3  0  0  0  0  0  0
  186.0590  178.5040  144.1860 C   0  0  0  0  0  0  0  0  0  0  0  0
  190.0500  177.2480  142.4320 C   0  0  2  0  0  0  0  0  0  0  0  0
  184.5510  178.2490  146.5780 C   0  0  0  0  0  2  0  0  0  0  0  0
  186.6200  178.4460  140.1030 C   0  0  0  0  0  3  0  0  0  0  0  0
  184.6910  178.6950  144.1320 C   0  0  0  0  0  0  0  0  0  0  0  0
  183.8310  178.8290  145.3500 C   0  0  0  0  0  2  0  0  0  0  0  0
  189.0950  178.0340  140.2300 C   0  0  0  0  0  0  0  0  0  0  0  0
  189.2420  178.1930  138.9900 O   0  0  0  0  0  0  0  0  0  0  0  0
  188.9740  178.1130  143.1140 C   0  0  0  0  0  2  0  0  0  0  0  0
  186.0040  178.7420  146.6590 C   0  0  0  0  0  2  0  0  0  0  0  0
  185.3350  178.6270  142.1170 C   0  0  0  0  0  0  0  0  0  0  0  0
  184.2780  178.7800  142.8820 O   0  0  0  0  0  0  0  0  0  0  0  0
  190.2150  177.6550  141.0360 N   0  0  0  0  0  2  0  0  0  0  0  0
  186.8220  178.2620  145.4520 C   0  0  0  0  0  2  0  0  0  0  0  0
  189.6370  175.7810  142.4720 C   0  0  0  0  0  1  0  0  0  0  0  0
  187.7900  178.2470  140.8730 C   0  0  0  0  0  0  0  0  0  0  0  0
  191.3890  177.4280  143.1450 C   0  0  0  0  0  2  0  0  0  0  0  0
  191.2400  177.6360  144.6510 C   0  0  0  0  0  2  0  0  0  0  0  0
  191.6940  176.3960  145.4060 C   0  0  0  0  0  2  0  0  0  0  0  0
  191.3490  176.4800  146.8610 C   0  0  0  0  0  0  0  0  0  0  0  0
  192.1770  175.7400  147.8540 C   0  0  0  0  0  1  0  0  0  0  0  0
  190.1200  177.0930  147.2810 S   0  0  0  0  0  0  0  0  0  0  0  0
  1  4  1  0  0  0  0
  2  1  1  0  0  0  0
  2 12  1  0  0  0  0
  3 14  1  0  0  0  0
  4 17  1  0  0  0  0
  5 18  1  1  0  0  0
  5 12  1  0  0  0  0
  5 20  1  0  0  0  0
  6 13  1  0  0  0  0
  7  3  2  0  0  0  0
  7 19  1  0  0  0  0
  8  4  2  0  0  0  0
  8  9  1  0  0  0  0
  9  6  1  0  0  0  0
 10 19  1  0  0  0  0
 10 16  1  0  0  0  0
 11 10  2  0  0  0  0
 14  1  2  0  0  0  0
 14 15  1  0  0  0  0
 15  8  1  0  0  0  0
 16  5  1  0  0  0  0
 17 13  1  0  0  0  0
 19  2  2  0  0  0  0
 20 21  1  0  0  0  0
 21 22  1  0  0  0  0
 22 23  1  0  0  0  0
 23 25  2  0  0  0  0
 23 24  1  0  0  0  0
M  END
>  <MODEL>
4

>  <REMARK>
 VINA RESULT:      -8.5      3.106      5.242
  Name = 
  4 active torsions:
  status: ('A' for Active; 'I' for Inactive)
    1  A    between atoms: C_2  and  C_21
    2  A    between atoms: C_6  and  C_15
    3  A    between atoms: C_15  and  C_25
    4  A    between atoms: C_21  and  C_25
                            x       y       z     vdW  Elec       q    Type
                         _______ _______ _______ _____ _____    ______ ____

>  <TORSDO>
F 4

$$$$
=
 OpenBabel11052412453D

 25 28  0  0  1  0  0  0  0  0999 V2000
  189.6770  177.4560  143.8320 C   0  0  0  0  0  0  0  0  0  0  0  0
  188.9200  177.7720  144.9630 C   0  0  0  0  0  0  0  0  0  0  0  0
  191.5150  176.6160  145.1630 C   0  0  0  0  0  3  0  0  0  0  0  0
  189.4320  177.5880  142.4820 C   0  0  0  0  0  0  0  0  0  0  0  0
  186.6460  178.1190  146.0230 C   0  0  2  0  0  0  0  0  0  0  0  0
  189.3380  177.1460  139.6800 C   0  0  0  0  0  2  0  0  0  0  0  0
  190.7850  176.9350  146.3210 C   0  0  0  0  0  3  0  0  0  0  0  0
  190.5460  177.0630  141.8550 C   0  0  0  0  0  0  0  0  0  0  0  0
  190.7060  177.0140  140.3670 C   0  0  0  0  0  2  0  0  0  0  0  0
  188.7200  177.8350  147.4350 C   0  0  0  0  0  0  0  0  0  0  0  0
  189.2430  177.7730  148.5780 O   0  0  0  0  0  0  0  0  0  0  0  0
  187.5860  178.4650  144.8540 C   0  0  0  0  0  2  0  0  0  0  0  0
  188.5160  178.2960  140.2830 C   0  0  0  0  0  2  0  0  0  0  0  0
  190.9280  176.8880  143.9300 C   0  0  0  0  0  0  0  0  0  0  0  0
  191.4380  176.6610  142.7400 O   0  0  0  0  0  0  0  0  0  0  0  0
  187.3550  178.2420  147.2960 N   0  0  0  0  0  2  0  0  0  0  0  0
  188.1970  178.0340  141.7620 C   0  0  0  0  0  2  0  0  0  0  0  0
  186.1420  176.6880  145.8760 C   0  0  0  0  0  1  0  0  0  0  0  0
  189.4950  177.5100  146.2280 C   0  0  0  0  0  0  0  0  0  0  0  0
  185.4620  179.0850  146.0380 C   0  0  0  0  0  2  0  0  0  0  0  0
  184.8930  179.3540  144.6470 C   0  0  0  0  0  2  0  0  0  0  0  0
  183.4100  179.0170  144.6050 C   0  0  0  0  0  2  0  0  0  0  0  0
  182.9410  178.7720  143.2040 C   0  0  0  0  0  0  0  0  0  0  0  0
  183.9400  178.4790  142.1390 C   0  0  0  0  0  1  0  0  0  0  0  0
  181.5730  179.0160  142.8440 S   0  0  0  0  0  0  0  0  0  0  0  0
  1 14  2  0  0  0  0
  1  2  1  0  0  0  0
  2 19  2  0  0  0  0
  3  7  2  0  0  0  0
  4  1  1  0  0  0  0
  5 18  1  6  0  0  0
  5 20  1  0  0  0  0
  5 16  1  0  0  0  0
  6 13  1  0  0  0  0
  6  9  1  0  0  0  0
  8  4  2  0  0  0  0
  8 15  1  0  0  0  0
  9  8  1  0  0  0  0
 10 11  2  0  0  0  0
 12  2  1  0  0  0  0
 12  5  1  0  0  0  0
 13 17  1  0  0  0  0
 14  3  1  0  0  0  0
 15 14  1  0  0  0  0
 16 10  1  0  0  0  0
 17  4  1  0  0  0  0
 19  7  1  0  0  0  0
 19 10  1  0  0  0  0
 21 20  1  0  0  0  0
 22 21  1  0  0  0  0
 23 22  1  0  0  0  0
 24 23  1  0  0  0  0
 25 23  2  0  0  0  0
M  END
>  <MODEL>
5

>  <REMARK>
 VINA RESULT:      -8.4      2.505      5.526
  Name = 
  4 active torsions:
  status: ('A' for Active; 'I' for Inactive)
    1  A    between atoms: C_2  and  C_21
    2  A    between atoms: C_6  and  C_15
    3  A    between atoms: C_15  and  C_25
    4  A    between atoms: C_21  and  C_25
                            x       y       z     vdW  Elec       q    Type
                         _______ _______ _______ _____ _____    ______ ____

>  <TORSDO>
F 4

$$$$
=
 OpenBabel11052412453D

 25 28  0  0  1  0  0  0  0  0999 V2000
  186.9780  178.0960  142.7790 C   0  0  0  0  0  0  0  0  0  0  0  0
  186.9490  177.8720  144.1580 C   0  0  0  0  0  0  0  0  0  0  0  0
  184.7890  179.1270  142.7910 C   0  0  0  0  0  3  0  0  0  0  0  0
  187.9190  177.8180  141.8110 C   0  0  0  0  0  0  0  0  0  0  0  0
  188.2140  177.5600  146.3300 C   0  0  2  0  0  0  0  0  0  0  0  0
  189.5900  177.9680  139.5210 C   0  0  0  0  0  2  0  0  0  0  0  0
  184.7240  178.9040  144.1780 C   0  0  0  0  0  3  0  0  0  0  0  0
  187.3900  178.3130  140.6330 C   0  0  0  0  0  0  0  0  0  0  0  0
  188.0880  178.2150  139.3130 C   0  0  0  0  0  2  0  0  0  0  0  0
  185.7370  178.0550  146.3140 C   0  0  0  0  0  0  0  0  0  0  0  0
  184.6750  178.2500  146.9610 O   0  0  0  0  0  0  0  0  0  0  0  0
  188.0550  177.1280  144.8620 C   0  0  0  0  0  2  0  0  0  0  0  0
  189.8370  176.8590  140.5560 C   0  0  0  0  0  2  0  0  0  0  0  0
  185.9370  178.7110  142.1210 C   0  0  0  0  0  0  0  0  0  0  0  0
  186.1940  178.8320  140.8380 O   0  0  0  0  0  0  0  0  0  0  0  0
  186.9090  177.5910  146.9920 N   0  0  0  0  0  2  0  0  0  0  0  0
  189.3030  177.2610  141.9390 C   0  0  0  0  0  2  0  0  0  0  0  0
  188.8330  178.9510  146.3970 C   0  0  0  0  0  1  0  0  0  0  0  0
  185.7940  178.2800  144.8620 C   0  0  0  0  0  0  0  0  0  0  0  0
  189.1030  176.5620  147.0710 C   0  0  0  0  0  2  0  0  0  0  0  0
  190.5030  177.1030  147.3510 C   0  0  0  0  0  2  0  0  0  0  0  0
  191.5470  176.2910  146.6010 C   0  0  0  0  0  2  0  0  0  0  0  0
  191.5660  176.6320  145.1420 C   0  0  0  0  0  0  0  0  0  0  0  0
  191.6810  175.5380  144.1370 C   0  0  0  0  0  1  0  0  0  0  0  0
  191.6810  177.9980  144.7180 S   0  0  0  0  0  0  0  0  0  0  0  0
  1  2  1  0  0  0  0
  2 12  1  0  0  0  0
  2 19  2  0  0  0  0
  3  7  2  0  0  0  0
  4 17  1  0  0  0  0
  4  1  1  0  0  0  0
  5 18  1  1  0  0  0
  5 16  1  0  0  0  0
  5 20  1  0  0  0  0
  6 13  1  0  0  0  0
  7 19  1  0  0  0  0
  8 15  1  0  0  0  0
  8  4  2  0  0  0  0
  9  6  1  0  0  0  0
  9  8  1  0  0  0  0
 10 11  2  0  0  0  0
 10 16  1  0  0  0  0
 12  5  1  0  0  0  0
 13 17  1  0  0  0  0
 14  1  2  0  0  0  0
 14  3  1  0  0  0  0
 15 14  1  0  0  0  0
 19 10  1  0  0  0  0
 20 21  1  0  0  0  0
 22 21  1  0  0  0  0
 23 22  1  0  0  0  0
 24 23  1  0  0  0  0
 25 23  2  0  0  0  0
M  END
>  <MODEL>
6

>  <REMARK>
 VINA RESULT:      -8.0      2.489      5.266
  Name = 
  4 active torsions:
  status: ('A' for Active; 'I' for Inactive)
    1  A    between atoms: C_2  and  C_21
    2  A    between atoms: C_6  and  C_15
    3  A    between atoms: C_15  and  C_25
    4  A    between atoms: C_21  and  C_25
                            x       y       z     vdW  Elec       q    Type
                         _______ _______ _______ _____ _____    ______ ____

>  <TORSDO>
F 4

$$$$
=
 OpenBabel11052412453D

 25 28  0  0  1  0  0  0  0  0999 V2000
  187.5270  177.7030  145.5580 C   0  0  0  0  0  0  0  0  0  0  0  0
  188.6870  177.2100  144.9530 C   0  0  0  0  0  0  0  0  0  0  0  0
  188.5190  177.6320  147.7650 C   0  0  0  0  0  3  0  0  0  0  0  0
  186.3010  178.0760  145.0530 C   0  0  0  0  0  0  0  0  0  0  0  0
  190.1590  177.0490  142.8990 C   0  0  2  0  0  0  0  0  0  0  0  0
  183.8420  179.4200  144.6000 C   0  0  0  0  0  2  0  0  0  0  0  0
  189.6950  177.1220  147.1880 C   0  0  0  0  0  3  0  0  0  0  0  0
  185.5750  178.5170  146.1430 C   0  0  0  0  0  0  0  0  0  0  0  0
  184.1660  179.0130  146.0460 C   0  0  0  0  0  2  0  0  0  0  0  0
  191.0160  176.3880  145.1810 C   0  0  0  0  0  0  0  0  0  0  0  0
  191.9610  175.9560  145.8910 O   0  0  0  0  0  0  0  0  0  0  0  0
  188.7410  176.9050  143.4780 C   0  0  0  0  0  2  0  0  0  0  0  0
  184.3040  178.3480  143.6000 C   0  0  0  0  0  2  0  0  0  0  0  0
  187.4510  177.9150  146.9170 C   0  0  0  0  0  0  0  0  0  0  0  0
  186.2770  178.3990  147.2540 O   0  0  0  0  0  0  0  0  0  0  0  0
  191.1270  176.3620  143.7540 N   0  0  0  0  0  2  0  0  0  0  0  0
  185.8290  178.1760  143.6350 C   0  0  0  0  0  2  0  0  0  0  0  0
  190.5370  178.5230  142.8130 C   0  0  0  0  0  1  0  0  0  0  0  0
  189.7840  176.9100  145.7920 C   0  0  0  0  0  0  0  0  0  0  0  0
  190.2170  176.4190  141.5080 C   0  0  0  0  0  2  0  0  0  0  0  0
  191.1480  177.1630  140.5530 C   0  0  0  0  0  2  0  0  0  0  0  0
  191.4670  176.3010  139.3420 C   0  0  0  0  0  2  0  0  0  0  0  0
  191.0910  176.9850  138.0640 C   0  0  0  0  0  0  0  0  0  0  0  0
  191.9370  176.7900  136.8530 C   0  0  0  0  0  1  0  0  0  0  0  0
  190.0520  177.9760  138.0490 S   0  0  0  0  0  0  0  0  0  0  0  0
  1 14  1  0  0  0  0
  2  1  2  0  0  0  0
  2 19  1  0  0  0  0
  4  1  1  0  0  0  0
  4  8  2  0  0  0  0
  5 18  1  6  0  0  0
  5 12  1  0  0  0  0
  5 16  1  0  0  0  0
  6  9  1  0  0  0  0
  7  3  1  0  0  0  0
  8 15  1  0  0  0  0
  9  8  1  0  0  0  0
 10 19  1  0  0  0  0
 10 11  2  0  0  0  0
 12  2  1  0  0  0  0
 13 17  1  0  0  0  0
 13  6  1  0  0  0  0
 14 15  1  0  0  0  0
 14  3  2  0  0  0  0
 16 10  1  0  0  0  0
 17  4  1  0  0  0  0
 19  7  2  0  0  0  0
 20  5  1  0  0  0  0
 21 20  1  0  0  0  0
 22 21  1  0  0  0  0
 23 22  1  0  0  0  0
 24 23  1  0  0  0  0
 25 23  2  0  0  0  0
M  END
>  <MODEL>
7

>  <REMARK>
 VINA RESULT:      -8.0      1.351      1.673
  Name = 
  4 active torsions:
  status: ('A' for Active; 'I' for Inactive)
    1  A    between atoms: C_2  and  C_21
    2  A    between atoms: C_6  and  C_15
    3  A    between atoms: C_15  and  C_25
    4  A    between atoms: C_21  and  C_25
                            x       y       z     vdW  Elec       q    Type
                         _______ _______ _______ _____ _____    ______ ____

>  <TORSDO>
F 4

$$$$
=
 OpenBabel11052412453D

 25 28  0  0  1  0  0  0  0  0999 V2000
  187.0240  177.8100  144.8710 C   0  0  0  0  0  0  0  0  0  0  0  0
  188.1770  177.3210  144.2510 C   0  0  0  0  0  0  0  0  0  0  0  0
  188.0780  177.8370  147.0500 C   0  0  0  0  0  3  0  0  0  0  0  0
  185.7760  178.1410  144.3890 C   0  0  0  0  0  0  0  0  0  0  0  0
  189.5940  177.1180  142.1620 C   0  0  2  0  0  0  0  0  0  0  0  0
  183.2770  179.4180  143.9610 C   0  0  0  0  0  2  0  0  0  0  0  0
  189.2480  177.3310  146.4570 C   0  0  0  0  0  3  0  0  0  0  0  0
  185.0710  178.6050  145.4840 C   0  0  0  0  0  0  0  0  0  0  0  0
  183.6500  179.0680  145.4100 C   0  0  0  0  0  2  0  0  0  0  0  0
  190.5280  176.5550  144.4390 C   0  0  0  0  0  0  0  0  0  0  0  0
  191.5010  176.1660  145.1370 O   0  0  0  0  0  0  0  0  0  0  0  0
  188.1950  176.9650  142.7860 C   0  0  0  0  0  2  0  0  0  0  0  0
  183.7340  178.3220  142.9850 C   0  0  0  0  0  2  0  0  0  0  0  0
  186.9810  178.0680  146.2230 C   0  0  0  0  0  0  0  0  0  0  0  0
  185.8060  178.5400  146.5770 O   0  0  0  0  0  0  0  0  0  0  0  0
  190.6000  176.4810  143.0120 N   0  0  0  0  0  2  0  0  0  0  0  0
  185.2630  178.1820  142.9820 C   0  0  0  0  0  2  0  0  0  0  0  0
  189.9370  178.5950  142.0140 C   0  0  0  0  0  1  0  0  0  0  0  0
  189.3030  177.0720  145.0680 C   0  0  0  0  0  0  0  0  0  0  0  0
  189.6260  176.4410  140.7920 C   0  0  0  0  0  2  0  0  0  0  0  0
  190.8050  176.8900  139.9320 C   0  0  0  0  0  2  0  0  0  0  0  0
  190.7330  176.2480  138.5550 C   0  0  0  0  0  2  0  0  0  0  0  0
  192.0900  175.8490  138.0620 C   0  0  0  0  0  0  0  0  0  0  0  0
  193.2770  176.6610  138.4500 C   0  0  0  0  0  1  0  0  0  0  0  0
  192.2280  174.8250  137.0640 S   0  0  0  0  0  0  0  0  0  0  0  0
  1 14  1  0  0  0  0
  2  1  2  0  0  0  0
  2 19  1  0  0  0  0
  4  1  1  0  0  0  0
  4  8  2  0  0  0  0
  5 18  1  6  0  0  0
  5 12  1  0  0  0  0
  5 16  1  0  0  0  0
  6  9  1  0  0  0  0
  7  3  1  0  0  0  0
  8 15  1  0  0  0  0
  9  8  1  0  0  0  0
 10 19  1  0  0  0  0
 10 11  2  0  0  0  0
 12  2  1  0  0  0  0
 13  6  1  0  0  0  0
 14 15  1  0  0  0  0
 14  3  2  0  0  0  0
 16 10  1  0  0  0  0
 17 13  1  0  0  0  0
 17  4  1  0  0  0  0
 19  7  2  0  0  0  0
 20  5  1  0  0  0  0
 21 20  1  0  0  0  0
 22 21  1  0  0  0  0
 23 24  1  0  0  0  0
 23 22  1  0  0  0  0
 25 23  2  0  0  0  0
M  END
>  <MODEL>
8

>  <REMARK>
 VINA RESULT:      -8.0      1.751      2.284
  Name = 
  4 active torsions:
  status: ('A' for Active; 'I' for Inactive)
    1  A    between atoms: C_2  and  C_21
    2  A    between atoms: C_6  and  C_15
    3  A    between atoms: C_15  and  C_25
    4  A    between atoms: C_21  and  C_25
                            x       y       z     vdW  Elec       q    Type
                         _______ _______ _______ _____ _____    ______ ____

>  <TORSDO>
F 4

$$$$
=
 OpenBabel11052412453D

 25 28  0  0  1  0  0  0  0  0999 V2000
  186.1540  178.5890  141.8440 C   0  0  0  0  0  0  0  0  0  0  0  0
  187.4950  178.3740  141.5150 C   0  0  0  0  0  0  0  0  0  0  0  0
  185.4690  178.5560  139.5230 C   0  0  0  0  0  3  0  0  0  0  0  0
  185.5060  178.7530  143.0490 C   0  0  0  0  0  0  0  0  0  0  0  0
  189.7720  177.4830  142.1750 C   0  0  2  0  0  0  0  0  0  0  0  0
  183.5870  178.6610  145.1390 C   0  0  0  0  0  2  0  0  0  0  0  0
  186.8110  178.3530  139.1590 C   0  0  0  0  0  3  0  0  0  0  0  0
  184.1680  178.8920  142.7290 C   0  0  0  0  0  0  0  0  0  0  0  0
  183.0960  179.1040  143.7520 C   0  0  0  0  0  2  0  0  0  0  0  0
  189.2270  178.0370  139.7720 C   0  0  0  0  0  0  0  0  0  0  0  0
  189.5970  178.0900  138.5700 O   0  0  0  0  0  0  0  0  0  0  0  0
  188.5750  178.3680  142.5670 C   0  0  0  0  0  2  0  0  0  0  0  0
  184.9920  179.2080  145.4370 C   0  0  0  0  0  2  0  0  0  0  0  0
  185.1740  178.6680  140.8800 C   0  0  0  0  0  0  0  0  0  0  0  0
  183.9910  178.8520  141.4220 O   0  0  0  0  0  0  0  0  0  0  0  0
  190.1850  177.7700  140.8010 N   0  0  0  0  0  2  0  0  0  0  0  0
  186.0270  178.6500  144.4490 C   0  0  0  0  0  2  0  0  0  0  0  0
  189.3850  176.0120  142.2760 C   0  0  0  0  0  1  0  0  0  0  0  0
  187.8220  178.2630  140.1450 C   0  0  0  0  0  0  0  0  0  0  0  0
  190.9540  177.7710  143.1010 C   0  0  0  0  0  2  0  0  0  0  0  0
  191.1400  176.7070  144.1800 C   0  0  0  0  0  2  0  0  0  0  0  0
  191.6340  177.3400  145.4710 C   0  0  0  0  0  2  0  0  0  0  0  0
  191.1220  176.6090  146.6750 C   0  0  0  0  0  0  0  0  0  0  0  0
  189.7280  176.8510  147.1380 C   0  0  0  0  0  1  0  0  0  0  0  0
  192.0190  175.8430  147.4940 S   0  0  0  0  0  0  0  0  0  0  0  0
  1  4  1  0  0  0  0
  2  1  1  0  0  0  0
  2 12  1  0  0  0  0
  3 14  1  0  0  0  0
  4 17  1  0  0  0  0
  5 18  1  1  0  0  0
  5 12  1  0  0  0  0
  5 20  1  0  0  0  0
  6 13  1  0  0  0  0
  7  3  2  0  0  0  0
  7 19  1  0  0  0  0
  8  4  2  0  0  0  0
  8  9  1  0  0  0  0
  9  6  1  0  0  0  0
 10 19  1  0  0  0  0
 10 16  1  0  0  0  0
 11 10  2  0  0  0  0
 14 15  1  0  0  0  0
 14  1  2  0  0  0  0
 15  8  1  0  0  0  0
 16  5  1  0  0  0  0
 17 13  1  0  0  0  0
 19  2  2  0  0  0  0
 20 21  1  0  0  0  0
 21 22  1  0  0  0  0
 22 23  1  0  0  0  0
 23 24  1  0  0  0  0
 23 25  2  0  0  0  0
M  END
>  <MODEL>
9

>  <REMARK>
 VINA RESULT:      -7.9      3.366      5.549
  Name = 
  4 active torsions:
  status: ('A' for Active; 'I' for Inactive)
    1  A    between atoms: C_2  and  C_21
    2  A    between atoms: C_6  and  C_15
    3  A    between atoms: C_15  and  C_25
    4  A    between atoms: C_21  and  C_25
                            x       y       z     vdW  Elec       q    Type
                         _______ _______ _______ _____ _____    ______ ____

>  <TORSDO>
F 4

$$$$
