=
 OpenBabel11052416243D

 43 47  0  0  1  0  0  0  0  0999 V2000
  188.0090  177.6280  146.3980 C   0  0  0  0  0  0  0  0  0  0  0  0
  183.8540  178.7180  143.7230 C   0  0  0  0  0  0  0  0  0  0  0  0
  184.6400  178.6000  141.0550 C   0  0  0  0  0  0  0  0  0  0  0  0
  185.7500  178.1900  145.7280 C   0  0  0  0  0  0  0  0  0  0  0  0
  188.4030  177.5910  145.0570 C   0  0  0  0  0  3  0  0  0  0  0  0
  188.9350  177.3680  147.3980 O   0  0  0  0  0  1  0  0  0  0  0  0
  186.1410  178.1520  144.3680 C   0  0  0  0  0  0  0  0  0  0  0  0
  186.6850  177.9260  146.7330 C   0  0  0  0  0  3  0  0  0  0  0  0
  187.4740  177.8510  144.0450 C   0  0  0  0  0  3  0  0  0  0  0  0
  185.5410  178.3650  142.0470 N   0  0  0  0  0  0  0  0  0  0  0  0
  185.1900  178.4120  143.3630 C   0  0  0  0  0  0  0  0  0  0  0  0
  183.4890  178.7500  145.0750 C   0  0  0  0  0  3  0  0  0  0  0  0
  182.9180  178.9770  142.7050 C   0  0  0  0  0  0  0  0  0  0  0  0
  183.3190  178.9140  141.3690 C   0  0  0  0  0  3  0  0  0  0  0  0
  184.4300  178.4870  146.0710 C   0  0  0  0  0  3  0  0  0  0  0  0
  185.0700  178.5440  139.6330 C   0  0  0  0  0  2  0  0  0  0  0  0
  183.8550  178.6210  138.7140 C   0  0  0  0  0  2  0  0  0  0  0  0
  182.6250  176.4470  138.6900 C   0  0  0  0  0  1  0  0  0  0  0  0
  183.6090  177.3290  137.9330 C   0  0  0  0  0  0  0  0  0  0  0  0
  183.0470  177.6610  136.5570 C   0  0  0  0  0  1  0  0  0  0  0  0
  184.9580  176.6130  137.8000 C   0  0  0  0  0  2  0  0  0  0  0  0
  185.6720  176.8670  136.4750 C   0  0  2  0  0  3  0  0  0  0  0  0
  188.4400  176.1660  135.4750 C   0  0  0  0  0  2  0  0  0  0  0  0
  188.2020  176.9570  136.7820 C   0  0  2  0  0  3  0  0  0  0  0  0
  186.0180  175.5210  135.8270 C   0  0  0  0  0  2  0  0  0  0  0  0
  186.8970  177.7700  136.6920 C   0  0  1  0  0  3  0  0  0  0  0  0
  186.9770  178.7040  135.6720 F   0  0  0  0  0  0  0  0  0  0  0  0
  187.1480  175.6760  134.8110 C   0  0  0  0  0  2  0  0  0  0  0  0
  189.3560  177.8100  137.1160 N   0  0  0  0  0  0  0  0  0  0  0  0
  188.9830  177.9020  139.5720 C   0  0  0  0  0  2  0  0  0  0  0  0
  190.3830  176.3140  138.8120 C   0  0  0  0  0  2  0  0  0  0  0  0
  190.2250  177.2920  139.8070 O   0  0  0  0  0  0  0  0  0  0  0  0
  190.5350  176.9860  137.4420 C   0  0  0  0  0  2  0  0  0  0  0  0
  189.0330  178.6880  138.2570 C   0  0  0  0  0  2  0  0  0  0  0  0
  181.2040  179.3740  143.0640 S   0  0  0  0  0  0  0  0  0  0  0  0
  180.6330  178.8090  141.4270 C   0  0  1  0  0  3  0  0  0  0  0  0
  180.0410  177.4140  141.5290 C   0  0  0  0  0  1  0  0  0  0  0  0
  179.6530  179.8020  140.7980 C   0  0  0  0  0  2  0  0  0  0  0  0
  180.3280  180.7960  139.8540 C   0  0  2  0  0  3  0  0  0  0  0  0
  179.4730  181.8670  139.5750 O   0  0  0  0  0  1  0  0  0  0  0  0
  179.6880  179.2010  137.9880 C   0  0  0  0  0  1  0  0  0  0  0  0
  181.1910  181.1230  137.5320 C   0  0  0  0  0  1  0  0  0  0  0  0
  180.7710  180.0990  138.5680 C   0  0  0  0  0  3  0  0  0  0  0  0
  1  8  1  0  0  0  0
  1  6  1  0  0  0  0
  2 12  1  0  0  0  0
  3 14  2  0  0  0  0
  3 10  1  0  0  0  0
  4 15  1  0  0  0  0
  4  8  2  0  0  0  0
  5  1  2  0  0  0  0
  7  4  1  0  0  0  0
  9  7  2  0  0  0  0
  9  5  1  0  0  0  0
 10 11  2  0  0  0  0
 11  2  1  0  0  0  0
 11  7  1  0  0  0  0
 12 15  2  0  0  0  0
 13 35  1  0  0  0  0
 13  2  2  0  0  0  0
 14 13  1  0  0  0  0
 16  3  1  0  0  0  0
 17 16  1  0  0  0  0
 19 18  1  0  0  0  0
 19 17  1  0  0  0  0
 20 19  1  0  0  0  0
 21 19  1  0  0  0  0
 22 26  1  0  0  0  0
 22 21  1  1  0  0  0
 24 23  1  6  0  0  0
 24 29  1  0  0  0  0
 25 22  1  0  0  0  0
 26 27  1  6  0  0  0
 26 24  1  0  0  0  0
 28 23  1  0  0  0  0
 28 25  1  0  0  0  0
 29 33  1  0  0  0  0
 29 34  1  0  0  0  0
 30 32  1  0  0  0  0
 31 32  1  0  0  0  0
 33 31  1  0  0  0  0
 34 30  1  0  0  0  0
 36 37  1  1  0  0  0
 36 35  1  0  0  0  0
 38 36  1  0  0  0  0
 39 40  1  6  0  0  0
 39 38  1  0  0  0  0
 41 43  1  0  0  0  0
 42 43  1  0  0  0  0
 43 39  1  0  0  0  0
M  END
>  <MODEL>
1

>  <REMARK>
 VINA RESULT:      -8.3      0.000      0.000
  Name = 
  11 active torsions:
  status: ('A' for Active; 'I' for Inactive)
    1  A    between atoms: C_1  and  C_9
    2  A    between atoms: C_1  and  S_35
    3  A    between atoms: C_2  and  C_6
    4  A    between atoms: C_2  and  C_13
    5  A    between atoms: C_3  and  C_4
    6  A    between atoms: C_3  and  C_12
    7  A    between atoms: C_6  and  C_12
    8  A    between atoms: C_9  and  C_32
    9  A    between atoms: N_11  and  C_14
   10  A    between atoms: C_32  and  C_37
   11  A    between atoms: C_34  and  S_35
                            x       y       z     vdW  Elec       q    Type
                         _______ _______ _______ _____ _____    ______ ____

>  <TORSDO>
F 11

$$$$
=
 OpenBabel11052416243D

 43 47  0  0  1  0  0  0  0  0999 V2000
  184.6940  178.7390  145.6140 C   0  0  0  0  0  0  0  0  0  0  0  0
  182.2800  178.7870  141.1670 C   0  0  0  0  0  0  0  0  0  0  0  0
  184.2730  178.5270  139.2410 C   0  0  0  0  0  0  0  0  0  0  0  0
  183.0020  178.8180  143.8820 C   0  0  0  0  0  0  0  0  0  0  0  0
  185.6920  178.6310  144.6420 C   0  0  0  0  0  3  0  0  0  0  0  0
  185.0370  178.7550  146.9590 O   0  0  0  0  0  1  0  0  0  0  0  0
  184.0080  178.7060  142.8920 C   0  0  0  0  0  0  0  0  0  0  0  0
  183.3520  178.8320  145.2360 C   0  0  0  0  0  3  0  0  0  0  0  0
  185.3530  178.6140  143.2860 C   0  0  0  0  0  3  0  0  0  0  0  0
  184.5950  178.5620  140.5620 N   0  0  0  0  0  0  0  0  0  0  0  0
  183.6460  178.6850  141.5320 C   0  0  0  0  0  0  0  0  0  0  0  0
  181.3010  178.8970  142.1640 C   0  0  0  0  0  3  0  0  0  0  0  0
  181.9360  178.7670  139.8030 C   0  0  0  0  0  0  0  0  0  0  0  0
  182.9410  178.6340  138.8420 C   0  0  0  0  0  3  0  0  0  0  0  0
  181.6600  178.9120  143.5120 C   0  0  0  0  0  3  0  0  0  0  0  0
  185.3440  178.3980  138.2180 C   0  0  0  0  0  2  0  0  0  0  0  0
  185.1860  177.0860  137.4560 C   0  0  0  0  0  2  0  0  0  0  0  0
  186.1820  175.4400  135.8640 C   0  0  0  0  0  1  0  0  0  0  0  0
  186.4690  176.6430  136.7520 C   0  0  0  0  0  0  0  0  0  0  0  0
  187.0110  177.7880  135.9050 C   0  0  0  0  0  1  0  0  0  0  0  0
  187.4790  176.2610  137.8400 C   0  0  0  0  0  2  0  0  0  0  0  0
  188.8010  177.0190  137.7590 C   0  0  2  0  0  3  0  0  0  0  0  0
  191.3450  176.8770  139.3910 C   0  0  0  0  0  2  0  0  0  0  0  0
  189.9580  177.1220  140.0290 C   0  0  2  0  0  3  0  0  0  0  0  0
  189.9320  176.0240  137.4710 C   0  0  0  0  0  2  0  0  0  0  0  0
  189.0270  177.8420  139.0380 C   0  0  1  0  0  3  0  0  0  0  0  0
  189.5360  179.0870  138.7100 F   0  0  0  0  0  0  0  0  0  0  0  0
  191.2860  176.5990  137.8840 C   0  0  0  0  0  2  0  0  0  0  0  0
  190.0710  177.8510  141.3040 N   0  0  0  0  0  0  0  0  0  0  0  0
  188.2570  176.6570  142.5140 C   0  0  0  0  0  2  0  0  0  0  0  0
  190.3490  175.8750  142.7830 C   0  0  0  0  0  2  0  0  0  0  0  0
  189.1700  176.1960  143.4760 O   0  0  0  0  0  0  0  0  0  0  0  0
  190.9870  177.1520  142.2250 C   0  0  0  0  0  2  0  0  0  0  0  0
  188.7440  177.9900  141.9350 C   0  0  0  0  0  2  0  0  0  0  0  0
  180.2350  178.8900  139.2460 S   0  0  0  0  0  0  0  0  0  0  0  0
  180.7200  179.4970  137.5970 C   0  0  1  0  0  3  0  0  0  0  0  0
  180.2920  178.5100  136.5250 C   0  0  0  0  0  1  0  0  0  0  0  0
  180.1760  180.9030  137.3300 C   0  0  0  0  0  2  0  0  0  0  0  0
  181.2660  181.9740  137.2980 C   0  0  2  0  0  3  0  0  0  0  0  0
  181.8620  182.1050  138.5550 O   0  0  0  0  0  1  0  0  0  0  0  0
  181.5530  184.4940  137.2310 C   0  0  0  0  0  1  0  0  0  0  0  0
  180.5250  183.2990  135.3140 C   0  0  0  0  0  1  0  0  0  0  0  0
  180.6920  183.3080  136.8210 C   0  0  0  0  0  3  0  0  0  0  0  0
  1  6  1  0  0  0  0
  2 11  1  0  0  0  0
  2 12  1  0  0  0  0
  3 10  1  0  0  0  0
  4  8  2  0  0  0  0
  5  1  2  0  0  0  0
  7  9  2  0  0  0  0
  7  4  1  0  0  0  0
  8  1  1  0  0  0  0
  9  5  1  0  0  0  0
 10 11  2  0  0  0  0
 11  7  1  0  0  0  0
 12 15  2  0  0  0  0
 13  2  2  0  0  0  0
 14  3  2  0  0  0  0
 14 13  1  0  0  0  0
 15  4  1  0  0  0  0
 16  3  1  0  0  0  0
 17 16  1  0  0  0  0
 18 19  1  0  0  0  0
 19 17  1  0  0  0  0
 19 21  1  0  0  0  0
 20 19  1  0  0  0  0
 22 21  1  1  0  0  0
 22 26  1  0  0  0  0
 24 23  1  6  0  0  0
 24 29  1  0  0  0  0
 25 22  1  0  0  0  0
 25 28  1  0  0  0  0
 26 27  1  6  0  0  0
 26 24  1  0  0  0  0
 28 23  1  0  0  0  0
 29 34  1  0  0  0  0
 29 33  1  0  0  0  0
 30 32  1  0  0  0  0
 31 32  1  0  0  0  0
 33 31  1  0  0  0  0
 34 30  1  0  0  0  0
 35 13  1  0  0  0  0
 36 37  1  6  0  0  0
 36 35  1  0  0  0  0
 38 36  1  0  0  0  0
 39 38  1  0  0  0  0
 39 40  1  1  0  0  0
 42 43  1  0  0  0  0
 43 41  1  0  0  0  0
 43 39  1  0  0  0  0
M  END
>  <MODEL>
2

>  <REMARK>
 VINA RESULT:      -8.3      2.077      3.624
  Name = 
  11 active torsions:
  status: ('A' for Active; 'I' for Inactive)
    1  A    between atoms: C_1  and  C_9
    2  A    between atoms: C_1  and  S_35
    3  A    between atoms: C_2  and  C_6
    4  A    between atoms: C_2  and  C_13
    5  A    between atoms: C_3  and  C_4
    6  A    between atoms: C_3  and  C_12
    7  A    between atoms: C_6  and  C_12
    8  A    between atoms: C_9  and  C_32
    9  A    between atoms: N_11  and  C_14
   10  A    between atoms: C_32  and  C_37
   11  A    between atoms: C_34  and  S_35
                            x       y       z     vdW  Elec       q    Type
                         _______ _______ _______ _____ _____    ______ ____

>  <TORSDO>
F 11

$$$$
=
 OpenBabel11052416243D

 43 47  0  0  1  0  0  0  0  0999 V2000
  184.8400  178.6390  145.8120 C   0  0  0  0  0  0  0  0  0  0  0  0
  182.4390  178.8390  141.3620 C   0  0  0  0  0  0  0  0  0  0  0  0
  184.4270  178.5530  139.4350 C   0  0  0  0  0  0  0  0  0  0  0  0
  183.1550  178.8000  144.0780 C   0  0  0  0  0  0  0  0  0  0  0  0
  185.8360  178.5170  144.8390 C   0  0  0  0  0  3  0  0  0  0  0  0
  185.1800  178.6210  147.1570 O   0  0  0  0  0  1  0  0  0  0  0  0
  184.1590  178.6750  143.0880 C   0  0  0  0  0  0  0  0  0  0  0  0
  183.5020  178.7800  145.4330 C   0  0  0  0  0  3  0  0  0  0  0  0
  185.5000  178.5340  143.4830 C   0  0  0  0  0  3  0  0  0  0  0  0
  184.7480  178.5540  140.7570 N   0  0  0  0  0  0  0  0  0  0  0  0
  183.8000  178.6900  141.7270 C   0  0  0  0  0  0  0  0  0  0  0  0
  181.4620  178.9610  142.3580 C   0  0  0  0  0  3  0  0  0  0  0  0
  182.0980  178.8540  139.9970 C   0  0  0  0  0  0  0  0  0  0  0  0
  183.1000  178.7070  139.0360 C   0  0  0  0  0  3  0  0  0  0  0  0
  181.8170  178.9420  143.7070 C   0  0  0  0  0  3  0  0  0  0  0  0
  185.4960  178.4080  138.4120 C   0  0  0  0  0  2  0  0  0  0  0  0
  185.2650  177.1470  137.5860 C   0  0  0  0  0  2  0  0  0  0  0  0
  186.1230  175.6070  135.8170 C   0  0  0  0  0  1  0  0  0  0  0  0
  186.4970  176.7200  136.7870 C   0  0  0  0  0  0  0  0  0  0  0  0
  187.0450  177.9120  136.0120 C   0  0  0  0  0  1  0  0  0  0  0  0
  187.5390  176.2110  137.7890 C   0  0  0  0  0  2  0  0  0  0  0  0
  188.8430  177.0050  137.7920 C   0  0  2  0  0  3  0  0  0  0  0  0
  191.2490  176.9820  139.6260 C   0  0  0  0  0  2  0  0  0  0  0  0
  189.8090  177.2050  140.1430 C   0  0  2  0  0  3  0  0  0  0  0  0
  190.0190  176.0340  137.6270 C   0  0  0  0  0  2  0  0  0  0  0  0
  188.9420  177.8690  139.0590 C   0  0  1  0  0  3  0  0  0  0  0  0
  189.4430  179.1190  138.7350 F   0  0  0  0  0  0  0  0  0  0  0  0
  191.3200  176.6590  138.1290 C   0  0  0  0  0  2  0  0  0  0  0  0
  189.7980  177.9730  141.4000 N   0  0  0  0  0  0  0  0  0  0  0  0
  188.4400  176.3770  142.7370 C   0  0  0  0  0  2  0  0  0  0  0  0
  190.6760  176.1820  142.8810 C   0  0  0  0  0  2  0  0  0  0  0  0
  189.4970  176.1990  143.6430 O   0  0  0  0  0  0  0  0  0  0  0  0
  190.9190  177.5670  142.2680 C   0  0  0  0  0  2  0  0  0  0  0  0
  188.5220  177.7740  142.1130 C   0  0  0  0  0  2  0  0  0  0  0  0
  180.4020  179.0390  139.4390 S   0  0  0  0  0  0  0  0  0  0  0  0
  180.1210  177.2380  139.3950 C   0  0  1  0  0  3  0  0  0  0  0  0
  178.9310  176.8700  140.2630 C   0  0  0  0  0  1  0  0  0  0  0  0
  179.9640  176.7260  137.9620 C   0  0  0  0  0  2  0  0  0  0  0  0
  180.9850  175.6510  137.5910 C   0  0  2  0  0  3  0  0  0  0  0  0
  181.6720  175.2140  138.7280 O   0  0  0  0  0  1  0  0  0  0  0  0
  182.3930  175.0920  135.5560 C   0  0  0  0  0  1  0  0  0  0  0  0
  181.3270  177.3240  135.7680 C   0  0  0  0  0  1  0  0  0  0  0  0
  181.9540  176.1740  136.5320 C   0  0  0  0  0  3  0  0  0  0  0  0
  1  6  1  0  0  0  0
  2 11  1  0  0  0  0
  2 12  1  0  0  0  0
  3 10  1  0  0  0  0
  4  8  2  0  0  0  0
  5  1  2  0  0  0  0
  7  9  2  0  0  0  0
  7  4  1  0  0  0  0
  8  1  1  0  0  0  0
  9  5  1  0  0  0  0
 10 11  2  0  0  0  0
 11  7  1  0  0  0  0
 12 15  2  0  0  0  0
 13  2  2  0  0  0  0
 14  3  2  0  0  0  0
 14 13  1  0  0  0  0
 15  4  1  0  0  0  0
 16  3  1  0  0  0  0
 17 16  1  0  0  0  0
 18 19  1  0  0  0  0
 19 17  1  0  0  0  0
 19 21  1  0  0  0  0
 20 19  1  0  0  0  0
 22 21  1  1  0  0  0
 22 26  1  0  0  0  0
 24 23  1  6  0  0  0
 24 29  1  0  0  0  0
 25 22  1  0  0  0  0
 25 28  1  0  0  0  0
 26 27  1  6  0  0  0
 26 24  1  0  0  0  0
 28 23  1  0  0  0  0
 29 34  1  0  0  0  0
 29 33  1  0  0  0  0
 30 32  1  0  0  0  0
 31 32  1  0  0  0  0
 33 31  1  0  0  0  0
 34 30  1  0  0  0  0
 35 13  1  0  0  0  0
 36 35  1  0  0  0  0
 36 37  1  1  0  0  0
 38 36  1  0  0  0  0
 39 38  1  0  0  0  0
 39 40  1  1  0  0  0
 41 43  1  0  0  0  0
 42 43  1  0  0  0  0
 43 39  1  0  0  0  0
M  END
>  <MODEL>
3

>  <REMARK>
 VINA RESULT:      -8.0      2.309      3.754
  Name = 
  11 active torsions:
  status: ('A' for Active; 'I' for Inactive)
    1  A    between atoms: C_1  and  C_9
    2  A    between atoms: C_1  and  S_35
    3  A    between atoms: C_2  and  C_6
    4  A    between atoms: C_2  and  C_13
    5  A    between atoms: C_3  and  C_4
    6  A    between atoms: C_3  and  C_12
    7  A    between atoms: C_6  and  C_12
    8  A    between atoms: C_9  and  C_32
    9  A    between atoms: N_11  and  C_14
   10  A    between atoms: C_32  and  C_37
   11  A    between atoms: C_34  and  S_35
                            x       y       z     vdW  Elec       q    Type
                         _______ _______ _______ _____ _____    ______ ____

>  <TORSDO>
F 11

$$$$
=
 OpenBabel11052416243D

 43 47  0  0  1  0  0  0  0  0999 V2000
  190.8740  176.8120  146.5600 C   0  0  0  0  0  0  0  0  0  0  0  0
  189.5270  177.6570  141.7550 C   0  0  0  0  0  0  0  0  0  0  0  0
  186.8330  178.3510  141.8540 C   0  0  0  0  0  0  0  0  0  0  0  0
  190.8730  177.0690  144.1510 C   0  0  0  0  0  0  0  0  0  0  0  0
  189.5150  177.1400  146.6000 C   0  0  0  0  0  3  0  0  0  0  0  0
  191.5500  176.5200  147.7360 O   0  0  0  0  0  1  0  0  0  0  0  0
  189.4980  177.4040  144.1850 C   0  0  0  0  0  0  0  0  0  0  0  0
  191.5510  176.7760  145.3380 C   0  0  0  0  0  3  0  0  0  0  0  0
  188.8290  177.4360  145.4190 C   0  0  0  0  0  3  0  0  0  0  0  0
  187.5050  178.0450  142.9960 N   0  0  0  0  0  0  0  0  0  0  0  0
  188.8250  177.7030  142.9850 C   0  0  0  0  0  0  0  0  0  0  0  0
  190.8880  177.3220  141.7450 C   0  0  0  0  0  3  0  0  0  0  0  0
  188.8380  177.9560  140.5660 C   0  0  0  0  0  0  0  0  0  0  0  0
  187.4870  178.3060  140.6230 C   0  0  0  0  0  3  0  0  0  0  0  0
  191.5560  177.0300  142.9350 C   0  0  0  0  0  3  0  0  0  0  0  0
  185.3920  178.7110  141.9130 C   0  0  0  0  0  2  0  0  0  0  0  0
  184.8070  178.7680  140.5060 C   0  0  0  0  0  2  0  0  0  0  0  0
  182.7080  178.6940  141.8570 C   0  0  0  0  0  1  0  0  0  0  0  0
  183.3030  178.4910  140.4700 C   0  0  0  0  0  0  0  0  0  0  0  0
  182.6310  179.4330  139.4800 C   0  0  0  0  0  1  0  0  0  0  0  0
  183.1180  177.0340  140.0290 C   0  0  0  0  0  2  0  0  0  0  0  0
  181.9640  176.8180  139.0550 C   0  0  2  0  0  3  0  0  0  0  0  0
  180.8630  174.3460  137.7020 C   0  0  0  0  0  2  0  0  0  0  0  0
  182.3480  174.7630  137.5950 C   0  0  2  0  0  3  0  0  0  0  0  0
  180.9270  175.8940  139.7040 C   0  0  0  0  0  2  0  0  0  0  0  0
  182.4900  176.2910  137.7100 C   0  0  1  0  0  3  0  0  0  0  0  0
  181.8270  176.9200  136.6690 F   0  0  0  0  0  0  0  0  0  0  0  0
  180.0430  175.2330  138.6470 C   0  0  0  0  0  2  0  0  0  0  0  0
  182.9670  174.2460  136.3620 N   0  0  0  0  0  0  0  0  0  0  0  0
  185.1220  173.5220  137.3690 C   0  0  0  0  0  2  0  0  0  0  0  0
  183.5020  171.9690  137.1990 C   0  0  0  0  0  2  0  0  0  0  0  0
  184.8740  172.1900  136.9980 O   0  0  0  0  0  0  0  0  0  0  0  0
  182.6890  172.8060  136.2040 C   0  0  0  0  0  2  0  0  0  0  0  0
  184.4250  174.4700  136.3870 C   0  0  0  0  0  2  0  0  0  0  0  0
  189.6430  177.9230  138.9620 S   0  0  0  0  0  0  0  0  0  0  0  0
  188.0780  177.6230  138.0780 C   0  0  1  0  0  3  0  0  0  0  0  0
  187.8870  178.6540  136.9790 C   0  0  0  0  0  1  0  0  0  0  0  0
  187.9990  176.1920  137.5400 C   0  0  0  0  0  2  0  0  0  0  0  0
  188.4540  176.0700  136.0860 C   0  0  2  0  0  3  0  0  0  0  0  0
  187.4450  175.5050  135.3010 O   0  0  0  0  0  1  0  0  0  0  0  0
  190.9810  176.1270  135.8680 C   0  0  0  0  0  1  0  0  0  0  0  0
  189.8790  174.3500  137.2050 C   0  0  0  0  0  1  0  0  0  0  0  0
  189.7420  175.2520  135.9950 C   0  0  0  0  0  3  0  0  0  0  0  0
  1  5  1  0  0  0  0
  1  6  1  0  0  0  0
  2 11  1  0  0  0  0
  3 16  1  0  0  0  0
  3 10  1  0  0  0  0
  4  7  2  0  0  0  0
  4  8  1  0  0  0  0
  7  9  1  0  0  0  0
  8  1  2  0  0  0  0
  9  5  2  0  0  0  0
 11 10  2  0  0  0  0
 11  7  1  0  0  0  0
 12  2  1  0  0  0  0
 12 15  2  0  0  0  0
 13 14  1  0  0  0  0
 13  2  2  0  0  0  0
 14  3  2  0  0  0  0
 15  4  1  0  0  0  0
 17 16  1  0  0  0  0
 19 17  1  0  0  0  0
 19 18  1  0  0  0  0
 20 19  1  0  0  0  0
 21 19  1  0  0  0  0
 22 25  1  0  0  0  0
 22 21  1  1  0  0  0
 23 28  1  0  0  0  0
 24 29  1  6  0  0  0
 24 23  1  0  0  0  0
 24 26  1  0  0  0  0
 26 27  1  6  0  0  0
 26 22  1  0  0  0  0
 28 25  1  0  0  0  0
 29 34  1  0  0  0  0
 32 31  1  0  0  0  0
 32 30  1  0  0  0  0
 33 29  1  0  0  0  0
 33 31  1  0  0  0  0
 34 30  1  0  0  0  0
 35 13  1  0  0  0  0
 36 37  1  6  0  0  0
 36 35  1  0  0  0  0
 38 36  1  0  0  0  0
 39 40  1  6  0  0  0
 39 38  1  0  0  0  0
 41 43  1  0  0  0  0
 43 39  1  0  0  0  0
 43 42  1  0  0  0  0
M  END
>  <MODEL>
4

>  <REMARK>
 VINA RESULT:      -7.7      3.384      6.758
  Name = 
  11 active torsions:
  status: ('A' for Active; 'I' for Inactive)
    1  A    between atoms: C_1  and  C_9
    2  A    between atoms: C_1  and  S_35
    3  A    between atoms: C_2  and  C_6
    4  A    between atoms: C_2  and  C_13
    5  A    between atoms: C_3  and  C_4
    6  A    between atoms: C_3  and  C_12
    7  A    between atoms: C_6  and  C_12
    8  A    between atoms: C_9  and  C_32
    9  A    between atoms: N_11  and  C_14
   10  A    between atoms: C_32  and  C_37
   11  A    between atoms: C_34  and  S_35
                            x       y       z     vdW  Elec       q    Type
                         _______ _______ _______ _____ _____    ______ ____

>  <TORSDO>
F 11

$$$$
=
 OpenBabel11052416243D

 43 47  0  0  1  0  0  0  0  0999 V2000
  187.9230  177.5800  147.5220 C   0  0  0  0  0  0  0  0  0  0  0  0
  189.0360  177.5780  142.5860 C   0  0  0  0  0  0  0  0  0  0  0  0
  186.7420  178.5020  141.3100 C   0  0  0  0  0  0  0  0  0  0  0  0
  189.0460  177.3590  145.3870 C   0  0  0  0  0  0  0  0  0  0  0  0
  186.7670  178.0240  146.8740 C   0  0  0  0  0  3  0  0  0  0  0  0
  187.9410  177.4690  148.9060 O   0  0  0  0  0  1  0  0  0  0  0  0
  187.8790  177.8100  144.7240 C   0  0  0  0  0  0  0  0  0  0  0  0
  189.0610  177.2490  146.7810 C   0  0  0  0  0  3  0  0  0  0  0  0
  186.7430  178.1390  145.4820 C   0  0  0  0  0  3  0  0  0  0  0  0
  186.7690  178.3710  142.6630 N   0  0  0  0  0  0  0  0  0  0  0  0
  187.8760  177.9240  143.3210 C   0  0  0  0  0  0  0  0  0  0  0  0
  190.1800  177.1340  143.2620 C   0  0  0  0  0  3  0  0  0  0  0  0
  189.0150  177.6950  141.1840 C   0  0  0  0  0  0  0  0  0  0  0  0
  187.8610  178.1620  140.5510 C   0  0  0  0  0  3  0  0  0  0  0  0
  190.1850  177.0250  144.6540 C   0  0  0  0  0  3  0  0  0  0  0  0
  185.5100  178.9880  140.6350 C   0  0  0  0  0  2  0  0  0  0  0  0
  184.3080  178.1590  141.0760 C   0  0  0  0  0  2  0  0  0  0  0  0
  181.8160  178.3160  141.0280 C   0  0  0  0  0  1  0  0  0  0  0  0
  183.0820  178.3590  140.1830 C   0  0  0  0  0  0  0  0  0  0  0  0
  183.1780  179.7020  139.4720 C   0  0  0  0  0  1  0  0  0  0  0  0
  183.0690  177.2150  139.1630 C   0  0  0  0  0  2  0  0  0  0  0  0
  183.4910  177.6280  137.7560 C   0  0  2  0  0  3  0  0  0  0  0  0
  183.4830  176.1680  135.1060 C   0  0  0  0  0  2  0  0  0  0  0  0
  184.1900  175.6110  136.3620 C   0  0  2  0  0  3  0  0  0  0  0  0
  182.2700  177.5700  136.8300 C   0  0  0  0  0  2  0  0  0  0  0  0
  184.6630  176.7590  137.2710 C   0  0  1  0  0  3  0  0  0  0  0  0
  185.5910  177.5490  136.6130 F   0  0  0  0  0  0  0  0  0  0  0  0
  182.6960  177.4580  135.3670 C   0  0  0  0  0  2  0  0  0  0  0  0
  185.2970  174.7060  136.0030 N   0  0  0  0  0  0  0  0  0  0  0  0
  184.9340  173.0300  137.8030 C   0  0  0  0  0  2  0  0  0  0  0  0
  183.9600  172.6200  135.8170 C   0  0  0  0  0  2  0  0  0  0  0  0
  184.6990  172.0240  136.8520 O   0  0  0  0  0  0  0  0  0  0  0  0
  184.8290  173.6500  135.0850 C   0  0  0  0  0  2  0  0  0  0  0  0
  185.8710  174.0900  137.2150 C   0  0  0  0  0  2  0  0  0  0  0  0
  190.4360  177.2800  140.1690 S   0  0  0  0  0  0  0  0  0  0  0  0
  189.4760  177.3720  138.6220 C   0  0  1  0  0  3  0  0  0  0  0  0
  189.2550  178.8210  138.2250 C   0  0  0  0  0  1  0  0  0  0  0  0
  190.1350  176.5660  137.5010 C   0  0  0  0  0  2  0  0  0  0  0  0
  189.4150  175.2510  137.2010 C   0  0  2  0  0  3  0  0  0  0  0  0
  190.1970  174.1620  137.5950 O   0  0  0  0  0  1  0  0  0  0  0  0
  188.4420  176.4500  135.1870 C   0  0  0  0  0  1  0  0  0  0  0  0
  190.2840  174.8110  134.9010 C   0  0  0  0  0  1  0  0  0  0  0  0
  189.0570  175.1630  135.7180 C   0  0  0  0  0  3  0  0  0  0  0  0
  1  6  1  0  0  0  0
  2 12  1  0  0  0  0
  2 11  1  0  0  0  0
  3 10  1  0  0  0  0
  4  8  1  0  0  0  0
  5  1  1  0  0  0  0
  7  4  2  0  0  0  0
  7  9  1  0  0  0  0
  8  1  2  0  0  0  0
  9  5  2  0  0  0  0
 10 11  2  0  0  0  0
 11  7  1  0  0  0  0
 12 15  2  0  0  0  0
 13  2  2  0  0  0  0
 14 13  1  0  0  0  0
 14  3  2  0  0  0  0
 15  4  1  0  0  0  0
 16 17  1  0  0  0  0
 16  3  1  0  0  0  0
 19 18  1  0  0  0  0
 19 17  1  0  0  0  0
 20 19  1  0  0  0  0
 21 19  1  0  0  0  0
 22 21  1  1  0  0  0
 23 28  1  0  0  0  0
 24 23  1  6  0  0  0
 24 26  1  0  0  0  0
 25 22  1  0  0  0  0
 26 27  1  6  0  0  0
 26 22  1  0  0  0  0
 28 25  1  0  0  0  0
 29 24  1  0  0  0  0
 29 34  1  0  0  0  0
 31 32  1  0  0  0  0
 32 30  1  0  0  0  0
 33 31  1  0  0  0  0
 33 29  1  0  0  0  0
 34 30  1  0  0  0  0
 35 13  1  0  0  0  0
 36 37  1  6  0  0  0
 36 35  1  0  0  0  0
 38 36  1  0  0  0  0
 39 38  1  0  0  0  0
 39 40  1  6  0  0  0
 41 43  1  0  0  0  0
 42 43  1  0  0  0  0
 43 39  1  0  0  0  0
M  END
>  <MODEL>
5

>  <REMARK>
 VINA RESULT:      -7.5      3.046      6.274
  Name = 
  11 active torsions:
  status: ('A' for Active; 'I' for Inactive)
    1  A    between atoms: C_1  and  C_9
    2  A    between atoms: C_1  and  S_35
    3  A    between atoms: C_2  and  C_6
    4  A    between atoms: C_2  and  C_13
    5  A    between atoms: C_3  and  C_4
    6  A    between atoms: C_3  and  C_12
    7  A    between atoms: C_6  and  C_12
    8  A    between atoms: C_9  and  C_32
    9  A    between atoms: N_11  and  C_14
   10  A    between atoms: C_32  and  C_37
   11  A    between atoms: C_34  and  S_35
                            x       y       z     vdW  Elec       q    Type
                         _______ _______ _______ _____ _____    ______ ____

>  <TORSDO>
F 11

$$$$
=
 OpenBabel11052416243D

 43 47  0  0  1  0  0  0  0  0999 V2000
  190.5230  176.8770  146.3420 C   0  0  0  0  0  0  0  0  0  0  0  0
  188.9420  177.9670  141.6600 C   0  0  0  0  0  0  0  0  0  0  0  0
  186.2150  178.4710  141.8990 C   0  0  0  0  0  0  0  0  0  0  0  0
  190.4130  177.3020  143.9590 C   0  0  0  0  0  0  0  0  0  0  0  0
  189.1490  177.1100  146.4520 C   0  0  0  0  0  3  0  0  0  0  0  0
  191.2610  176.5490  147.4700 O   0  0  0  0  0  1  0  0  0  0  0  0
  189.0220  177.5420  144.0640 C   0  0  0  0  0  0  0  0  0  0  0  0
  191.1540  176.9730  145.0980 C   0  0  0  0  0  3  0  0  0  0  0  0
  188.4000  177.4420  145.3190 C   0  0  0  0  0  3  0  0  0  0  0  0
  186.9480  178.1310  142.9920 N   0  0  0  0  0  0  0  0  0  0  0  0
  188.2860  177.8800  142.9130 C   0  0  0  0  0  0  0  0  0  0  0  0
  190.3200  177.7250  141.5790 C   0  0  0  0  0  3  0  0  0  0  0  0
  188.1900  178.3030  140.5190 C   0  0  0  0  0  0  0  0  0  0  0  0
  186.8230  178.5570  140.6470 C   0  0  0  0  0  3  0  0  0  0  0  0
  191.0510  177.3960  142.7210 C   0  0  0  0  0  3  0  0  0  0  0  0
  184.7570  178.7300  142.0330 C   0  0  0  0  0  2  0  0  0  0  0  0
  183.9910  177.9980  140.9350 C   0  0  0  0  0  2  0  0  0  0  0  0
  181.6700  177.1470  140.5820 C   0  0  0  0  0  1  0  0  0  0  0  0
  182.5110  178.3810  140.8800 C   0  0  0  0  0  0  0  0  0  0  0  0
  182.0860  178.9810  142.2140 C   0  0  0  0  0  1  0  0  0  0  0  0
  182.3470  179.4100  139.7560 C   0  0  0  0  0  2  0  0  0  0  0  0
  181.3850  178.9810  138.6510 C   0  0  2  0  0  3  0  0  0  0  0  0
  180.7870  180.1080  135.9080 C   0  0  0  0  0  2  0  0  0  0  0  0
  180.6960  180.9580  137.1960 C   0  0  2  0  0  3  0  0  0  0  0  0
  182.1920  178.6200  137.3980 C   0  0  0  0  0  2  0  0  0  0  0  0
  180.3330  180.0740  138.4030 C   0  0  1  0  0  3  0  0  0  0  0  0
  179.0890  179.4940  138.2230 F   0  0  0  0  0  0  0  0  0  0  0  0
  181.3190  178.6890  136.1460 C   0  0  0  0  0  2  0  0  0  0  0  0
  179.7550  182.0810  137.0370 N   0  0  0  0  0  0  0  0  0  0  0  0
  181.3780  183.9170  137.4560 C   0  0  0  0  0  2  0  0  0  0  0  0
  181.0330  183.3310  135.3110 C   0  0  0  0  0  2  0  0  0  0  0  0
  181.1600  184.4350  136.1690 O   0  0  0  0  0  0  0  0  0  0  0  0
  179.7480  182.5610  135.6420 C   0  0  0  0  0  2  0  0  0  0  0  0
  180.1200  183.1880  137.9410 C   0  0  0  0  0  2  0  0  0  0  0  0
  188.9340  178.4360  138.8910 S   0  0  0  0  0  0  0  0  0  0  0  0
  188.3490  176.7850  138.3860 C   0  0  1  0  0  3  0  0  0  0  0  0
  187.2880  176.9090  137.3060 C   0  0  0  0  0  1  0  0  0  0  0  0
  189.5080  175.8860  137.9490 C   0  0  0  0  0  2  0  0  0  0  0  0
  190.6290  176.6480  137.2420 C   0  0  2  0  0  3  0  0  0  0  0  0
  190.3810  176.7230  135.8690 O   0  0  0  0  0  1  0  0  0  0  0  0
  192.9080  176.0310  136.3140 C   0  0  0  0  0  1  0  0  0  0  0  0
  192.6560  176.6650  138.7010 C   0  0  0  0  0  1  0  0  0  0  0  0
  191.9810  175.9940  137.5210 C   0  0  0  0  0  3  0  0  0  0  0  0
  1  5  1  0  0  0  0
  1  6  1  0  0  0  0
  2 11  1  0  0  0  0
  3 16  1  0  0  0  0
  3 10  1  0  0  0  0
  4  7  2  0  0  0  0
  4  8  1  0  0  0  0
  7  9  1  0  0  0  0
  8  1  2  0  0  0  0
  9  5  2  0  0  0  0
 11 10  2  0  0  0  0
 11  7  1  0  0  0  0
 12  2  1  0  0  0  0
 12 15  2  0  0  0  0
 13 14  1  0  0  0  0
 13  2  2  0  0  0  0
 14  3  2  0  0  0  0
 15  4  1  0  0  0  0
 17 16  1  0  0  0  0
 18 19  1  0  0  0  0
 19 17  1  0  0  0  0
 19 20  1  0  0  0  0
 21 19  1  0  0  0  0
 22 21  1  1  0  0  0
 23 28  1  0  0  0  0
 24 23  1  6  0  0  0
 24 26  1  0  0  0  0
 25 22  1  0  0  0  0
 26 27  1  6  0  0  0
 26 22  1  0  0  0  0
 28 25  1  0  0  0  0
 29 24  1  0  0  0  0
 29 34  1  0  0  0  0
 30 34  1  0  0  0  0
 31 33  1  0  0  0  0
 31 32  1  0  0  0  0
 32 30  1  0  0  0  0
 33 29  1  0  0  0  0
 35 13  1  0  0  0  0
 36 37  1  6  0  0  0
 36 35  1  0  0  0  0
 38 36  1  0  0  0  0
 39 40  1  6  0  0  0
 39 43  1  0  0  0  0
 39 38  1  0  0  0  0
 41 43  1  0  0  0  0
 43 42  1  0  0  0  0
M  END
>  <MODEL>
6

>  <REMARK>
 VINA RESULT:      -7.2      3.046      7.780
  Name = 
  11 active torsions:
  status: ('A' for Active; 'I' for Inactive)
    1  A    between atoms: C_1  and  C_9
    2  A    between atoms: C_1  and  S_35
    3  A    between atoms: C_2  and  C_6
    4  A    between atoms: C_2  and  C_13
    5  A    between atoms: C_3  and  C_4
    6  A    between atoms: C_3  and  C_12
    7  A    between atoms: C_6  and  C_12
    8  A    between atoms: C_9  and  C_32
    9  A    between atoms: N_11  and  C_14
   10  A    between atoms: C_32  and  C_37
   11  A    between atoms: C_34  and  S_35
                            x       y       z     vdW  Elec       q    Type
                         _______ _______ _______ _____ _____    ______ ____

>  <TORSDO>
F 11

$$$$
=
 OpenBabel11052416243D

 43 47  0  0  1  0  0  0  0  0999 V2000
  188.6710  178.2530  138.7280 C   0  0  0  0  0  0  0  0  0  0  0  0
  183.8640  178.6770  140.2510 C   0  0  0  0  0  0  0  0  0  0  0  0
  183.9890  179.0000  143.0120 C   0  0  0  0  0  0  0  0  0  0  0  0
  186.2530  178.3930  138.8010 C   0  0  0  0  0  0  0  0  0  0  0  0
  188.7260  178.3940  140.1180 C   0  0  0  0  0  3  0  0  0  0  0  0
  189.8440  178.1130  138.0000 O   0  0  0  0  0  1  0  0  0  0  0  0
  186.3020  178.5380  140.2080 C   0  0  0  0  0  0  0  0  0  0  0  0
  187.4370  178.2530  138.0700 C   0  0  0  0  0  3  0  0  0  0  0  0
  187.5480  178.5360  140.8560 C   0  0  0  0  0  3  0  0  0  0  0  0
  185.1280  178.8430  142.2880 N   0  0  0  0  0  0  0  0  0  0  0  0
  185.1050  178.6860  140.9340 C   0  0  0  0  0  0  0  0  0  0  0  0
  183.8390  178.5320  138.8570 C   0  0  0  0  0  3  0  0  0  0  0  0
  182.6770  178.8230  140.9920 C   0  0  0  0  0  0  0  0  0  0  0  0
  182.7470  178.9870  142.3770 C   0  0  0  0  0  3  0  0  0  0  0  0
  185.0260  178.3910  138.1370 C   0  0  0  0  0  3  0  0  0  0  0  0
  184.0630  179.1620  144.4880 C   0  0  0  0  0  2  0  0  0  0  0  0
  185.5160  179.3060  144.9290 C   0  0  0  0  0  2  0  0  0  0  0  0
  186.2480  179.7250  147.2790 C   0  0  0  0  0  1  0  0  0  0  0  0
  185.7980  178.6620  146.2870 C   0  0  0  0  0  0  0  0  0  0  0  0
  184.5370  177.9800  146.8030 C   0  0  0  0  0  1  0  0  0  0  0  0
  186.9140  177.6320  146.0820 C   0  0  0  0  0  2  0  0  0  0  0  0
  187.5720  177.6880  144.7050 C   0  0  2  0  0  3  0  0  0  0  0  0
  189.7300  176.0200  143.3980 C   0  0  0  0  0  2  0  0  0  0  0  0
  189.9320  176.7260  144.7580 C   0  0  2  0  0  3  0  0  0  0  0  0
  187.2880  176.3780  143.9610 C   0  0  0  0  0  2  0  0  0  0  0  0
  189.0710  177.9990  144.8400 C   0  0  1  0  0  3  0  0  0  0  0  0
  189.4510  178.9050  143.8640 F   0  0  0  0  0  0  0  0  0  0  0  0
  188.3060  176.1510  142.8440 C   0  0  0  0  0  2  0  0  0  0  0  0
  191.3550  177.0090  145.0140 N   0  0  0  0  0  0  0  0  0  0  0  0
  191.4760  176.0020  147.2840 C   0  0  0  0  0  2  0  0  0  0  0  0
  192.0550  174.6870  145.5520 C   0  0  0  0  0  2  0  0  0  0  0  0
  192.4370  175.0750  146.8470 O   0  0  0  0  0  0  0  0  0  0  0  0
  192.1970  175.8740  144.5910 C   0  0  0  0  0  2  0  0  0  0  0  0
  191.5750  177.2820  146.4480 C   0  0  0  0  0  2  0  0  0  0  0  0
  181.0590  178.8240  140.2150 S   0  0  0  0  0  0  0  0  0  0  0  0
  180.7000  177.1170  140.7430 C   0  0  1  0  0  3  0  0  0  0  0  0
  179.2000  176.8910  140.8090 C   0  0  0  0  0  1  0  0  0  0  0  0
  181.3950  176.0910  139.8450 C   0  0  0  0  0  2  0  0  0  0  0  0
  180.4760  175.5130  138.7690 C   0  0  2  0  0  3  0  0  0  0  0  0
  180.2240  174.1600  139.0130 O   0  0  0  0  0  1  0  0  0  0  0  0
  180.9290  177.1440  136.8790 C   0  0  0  0  0  1  0  0  0  0  0  0
  182.5500  175.3340  137.3880 C   0  0  0  0  0  1  0  0  0  0  0  0
  181.0830  175.7160  137.3810 C   0  0  0  0  0  3  0  0  0  0  0  0
  1  5  1  0  0  0  0
  2 11  1  0  0  0  0
  2 13  1  0  0  0  0
  3 16  1  0  0  0  0
  4  7  1  0  0  0  0
  5  9  2  0  0  0  0
  6  1  1  0  0  0  0
  7  9  1  0  0  0  0
  7 11  2  0  0  0  0
  8  1  2  0  0  0  0
  8  4  1  0  0  0  0
 10  3  2  0  0  0  0
 11 10  1  0  0  0  0
 12  2  2  0  0  0  0
 13 14  2  0  0  0  0
 14  3  1  0  0  0  0
 15  4  2  0  0  0  0
 15 12  1  0  0  0  0
 16 17  1  0  0  0  0
 17 19  1  0  0  0  0
 19 20  1  0  0  0  0
 19 18  1  0  0  0  0
 21 19  1  0  0  0  0
 22 26  1  0  0  0  0
 22 21  1  1  0  0  0
 24 23  1  6  0  0  0
 24 26  1  0  0  0  0
 24 29  1  0  0  0  0
 25 22  1  0  0  0  0
 26 27  1  6  0  0  0
 28 23  1  0  0  0  0
 28 25  1  0  0  0  0
 29 34  1  0  0  0  0
 31 32  1  0  0  0  0
 32 30  1  0  0  0  0
 33 29  1  0  0  0  0
 33 31  1  0  0  0  0
 34 30  1  0  0  0  0
 35 36  1  0  0  0  0
 35 13  1  0  0  0  0
 36 37  1  6  0  0  0
 38 36  1  0  0  0  0
 39 40  1  1  0  0  0
 39 38  1  0  0  0  0
 41 43  1  0  0  0  0
 43 42  1  0  0  0  0
 43 39  1  0  0  0  0
M  END
>  <MODEL>
7

>  <REMARK>
 VINA RESULT:      -7.2      2.907      6.683
  Name = 
  11 active torsions:
  status: ('A' for Active; 'I' for Inactive)
    1  A    between atoms: C_1  and  C_9
    2  A    between atoms: C_1  and  S_35
    3  A    between atoms: C_2  and  C_6
    4  A    between atoms: C_2  and  C_13
    5  A    between atoms: C_3  and  C_4
    6  A    between atoms: C_3  and  C_12
    7  A    between atoms: C_6  and  C_12
    8  A    between atoms: C_9  and  C_32
    9  A    between atoms: N_11  and  C_14
   10  A    between atoms: C_32  and  C_37
   11  A    between atoms: C_34  and  S_35
                            x       y       z     vdW  Elec       q    Type
                         _______ _______ _______ _____ _____    ______ ____

>  <TORSDO>
F 11

$$$$
=
 OpenBabel11052416243D

 43 47  0  0  1  0  0  0  0  0999 V2000
  189.4170  177.3040  136.1690 C   0  0  0  0  0  0  0  0  0  0  0  0
  184.8030  178.0350  138.1140 C   0  0  0  0  0  0  0  0  0  0  0  0
  185.2290  178.9000  140.7240 C   0  0  0  0  0  0  0  0  0  0  0  0
  187.0210  177.4620  136.4870 C   0  0  0  0  0  0  0  0  0  0  0  0
  189.6240  177.7190  137.4870 C   0  0  0  0  0  3  0  0  0  0  0  0
  190.5040  177.0200  135.3540 O   0  0  0  0  0  1  0  0  0  0  0  0
  187.2230  177.8840  137.8230 C   0  0  0  0  0  0  0  0  0  0  0  0
  188.1180  177.1760  135.6690 C   0  0  0  0  0  3  0  0  0  0  0  0
  188.5340  178.0090  138.3120 C   0  0  0  0  0  3  0  0  0  0  0  0
  186.2840  178.6000  139.9200 N   0  0  0  0  0  0  0  0  0  0  0  0
  186.1120  178.1760  138.6360 C   0  0  0  0  0  0  0  0  0  0  0  0
  184.6250  177.6150  136.7890 C   0  0  0  0  0  3  0  0  0  0  0  0
  183.7040  178.3280  138.9420 C   0  0  0  0  0  0  0  0  0  0  0  0
  183.9250  178.7640  140.2490 C   0  0  0  0  0  3  0  0  0  0  0  0
  185.7270  177.3300  135.9800 C   0  0  0  0  0  3  0  0  0  0  0  0
  185.4650  179.3540  142.1200 C   0  0  0  0  0  2  0  0  0  0  0  0
  184.7330  178.4410  143.0990 C   0  0  0  0  0  2  0  0  0  0  0  0
  183.7500  180.5080  144.0960 C   0  0  0  0  0  1  0  0  0  0  0  0
  184.3500  179.1430  144.4030 C   0  0  0  0  0  0  0  0  0  0  0  0
  183.3370  178.2960  145.1630 C   0  0  0  0  0  1  0  0  0  0  0  0
  185.6320  179.3080  145.2260 C   0  0  0  0  0  2  0  0  0  0  0  0
  186.2030  177.9990  145.7640 C   0  0  2  0  0  3  0  0  0  0  0  0
  189.0140  177.1260  146.4630 C   0  0  0  0  0  2  0  0  0  0  0  0
  188.6380  177.6900  145.0730 C   0  0  2  0  0  3  0  0  0  0  0  0
  186.8500  178.2590  147.1290 C   0  0  0  0  0  2  0  0  0  0  0  0
  187.1680  177.3760  144.7420 C   0  0  1  0  0  3  0  0  0  0  0  0
  186.9660  176.0070  144.6820 F   0  0  0  0  0  0  0  0  0  0  0  0
  187.8620  177.1660  147.4730 C   0  0  0  0  0  2  0  0  0  0  0  0
  189.5510  177.2010  144.0260 N   0  0  0  0  0  0  0  0  0  0  0  0
  190.9490  179.2490  143.8420 C   0  0  0  0  0  2  0  0  0  0  0  0
  191.6820  177.6350  145.2270 C   0  0  0  0  0  2  0  0  0  0  0  0
  192.0930  178.5320  144.2280 O   0  0  0  0  0  0  0  0  0  0  0  0
  190.7470  176.5790  144.6260 C   0  0  0  0  0  2  0  0  0  0  0  0
  189.9600  178.3100  143.1420 C   0  0  0  0  0  2  0  0  0  0  0  0
  182.0100  178.1780  138.3680 S   0  0  0  0  0  0  0  0  0  0  0  0
  181.4960  179.7230  139.1880 C   0  0  1  0  0  3  0  0  0  0  0  0
  181.1230  180.7690  138.1520 C   0  0  0  0  0  1  0  0  0  0  0  0
  180.3650  179.4810  140.1900 C   0  0  0  0  0  2  0  0  0  0  0  0
  180.7770  178.5820  141.3560 C   0  0  2  0  0  3  0  0  0  0  0  0
  180.0520  177.3860  141.3330 O   0  0  0  0  0  1  0  0  0  0  0  0
  179.6730  180.5180  142.5680 C   0  0  0  0  0  1  0  0  0  0  0  0
  180.0480  178.3600  143.7350 C   0  0  0  0  0  1  0  0  0  0  0  0
  180.5910  179.3100  142.6860 C   0  0  0  0  0  3  0  0  0  0  0  0
  1  5  1  0  0  0  0
  2 11  1  0  0  0  0
  2 13  1  0  0  0  0
  3 16  1  0  0  0  0
  4  7  1  0  0  0  0
  5  9  2  0  0  0  0
  6  1  1  0  0  0  0
  7  9  1  0  0  0  0
  7 11  2  0  0  0  0
  8  1  2  0  0  0  0
  8  4  1  0  0  0  0
 10  3  2  0  0  0  0
 11 10  1  0  0  0  0
 12  2  2  0  0  0  0
 13 14  2  0  0  0  0
 14  3  1  0  0  0  0
 15  4  2  0  0  0  0
 15 12  1  0  0  0  0
 16 17  1  0  0  0  0
 17 19  1  0  0  0  0
 18 19  1  0  0  0  0
 19 20  1  0  0  0  0
 19 21  1  0  0  0  0
 22 21  1  6  0  0  0
 22 25  1  0  0  0  0
 23 28  1  0  0  0  0
 24 29  1  6  0  0  0
 24 23  1  0  0  0  0
 25 28  1  0  0  0  0
 26 27  1  1  0  0  0
 26 24  1  0  0  0  0
 26 22  1  0  0  0  0
 29 33  1  0  0  0  0
 30 32  1  0  0  0  0
 32 31  1  0  0  0  0
 33 31  1  0  0  0  0
 34 30  1  0  0  0  0
 34 29  1  0  0  0  0
 35 13  1  0  0  0  0
 35 36  1  0  0  0  0
 36 37  1  6  0  0  0
 36 38  1  0  0  0  0
 38 39  1  0  0  0  0
 39 40  1  1  0  0  0
 39 43  1  0  0  0  0
 41 43  1  0  0  0  0
 43 42  1  0  0  0  0
M  END
>  <MODEL>
8

>  <REMARK>
 VINA RESULT:      -7.2      2.552      7.217
  Name = 
  11 active torsions:
  status: ('A' for Active; 'I' for Inactive)
    1  A    between atoms: C_1  and  C_9
    2  A    between atoms: C_1  and  S_35
    3  A    between atoms: C_2  and  C_6
    4  A    between atoms: C_2  and  C_13
    5  A    between atoms: C_3  and  C_4
    6  A    between atoms: C_3  and  C_12
    7  A    between atoms: C_6  and  C_12
    8  A    between atoms: C_9  and  C_32
    9  A    between atoms: N_11  and  C_14
   10  A    between atoms: C_32  and  C_37
   11  A    between atoms: C_34  and  S_35
                            x       y       z     vdW  Elec       q    Type
                         _______ _______ _______ _____ _____    ______ ____

>  <TORSDO>
F 11

$$$$
=
 OpenBabel11052416243D

 43 47  0  0  1  0  0  0  0  0999 V2000
  188.6510  177.3550  146.5360 C   0  0  0  0  0  0  0  0  0  0  0  0
  184.6190  178.5870  143.7370 C   0  0  0  0  0  0  0  0  0  0  0  0
  185.5150  178.5680  141.1020 C   0  0  0  0  0  0  0  0  0  0  0  0
  186.4260  177.9630  145.7970 C   0  0  0  0  0  0  0  0  0  0  0  0
  189.1000  177.3670  145.2130 C   0  0  0  0  0  3  0  0  0  0  0  0
  189.5330  177.0470  147.5630 O   0  0  0  0  0  1  0  0  0  0  0  0
  186.8730  177.9750  144.4530 C   0  0  0  0  0  0  0  0  0  0  0  0
  187.3170  177.6510  146.8280 C   0  0  0  0  0  3  0  0  0  0  0  0
  188.2160  177.6760  144.1740 C   0  0  0  0  0  3  0  0  0  0  0  0
  186.3720  178.2860  142.1190 N   0  0  0  0  0  0  0  0  0  0  0  0
  185.9670  178.2840  143.4210 C   0  0  0  0  0  0  0  0  0  0  0  0
  184.1980  178.5690  145.0730 C   0  0  0  0  0  3  0  0  0  0  0  0
  183.7280  178.8960  142.6930 C   0  0  0  0  0  0  0  0  0  0  0  0
  184.1840  178.8820  141.3730 C   0  0  0  0  0  3  0  0  0  0  0  0
  185.0950  178.2590  146.0960 C   0  0  0  0  0  3  0  0  0  0  0  0
  186.0030  178.5640  139.6980 C   0  0  0  0  0  2  0  0  0  0  0  0
  187.4870  178.2150  139.6580 C   0  0  0  0  0  2  0  0  0  0  0  0
  186.8810  178.1280  137.2370 C   0  0  0  0  0  1  0  0  0  0  0  0
  188.0260  178.0460  138.2370 C   0  0  0  0  0  0  0  0  0  0  0  0
  189.0450  179.1400  137.9410 C   0  0  0  0  0  1  0  0  0  0  0  0
  188.6890  176.6660  138.1610 C   0  0  0  0  0  2  0  0  0  0  0  0
  188.7280  176.0680  136.7570 C   0  0  2  0  0  3  0  0  0  0  0  0
  190.3770  173.8520  135.5220 C   0  0  0  0  0  2  0  0  0  0  0  0
  191.0140  175.0680  136.2320 C   0  0  2  0  0  3  0  0  0  0  0  0
  188.3400  174.5860  136.8340 C   0  0  0  0  0  2  0  0  0  0  0  0
  190.1030  176.3030  136.1120 C   0  0  1  0  0  3  0  0  0  0  0  0
  189.9420  176.6610  134.7840 F   0  0  0  0  0  0  0  0  0  0  0  0
  188.8460  173.8230  135.6110 C   0  0  0  0  0  2  0  0  0  0  0  0
  192.3720  175.3390  135.7280 N   0  0  0  0  0  0  0  0  0  0  0  0
  193.4240  175.8700  137.9170 C   0  0  0  0  0  2  0  0  0  0  0  0
  193.5850  173.7440  137.1970 C   0  0  0  0  0  2  0  0  0  0  0  0
  194.3160  174.7950  137.7760 O   0  0  0  0  0  0  0  0  0  0  0  0
  193.1930  174.1130  135.7620 C   0  0  0  0  0  2  0  0  0  0  0  0
  193.0190  176.3920  136.5340 C   0  0  0  0  0  2  0  0  0  0  0  0
  182.0040  179.2930  142.9960 S   0  0  0  0  0  0  0  0  0  0  0  0
  181.4840  178.7140  141.3480 C   0  0  1  0  0  3  0  0  0  0  0  0
  180.5380  177.5330  141.4790 C   0  0  0  0  0  1  0  0  0  0  0  0
  180.8730  179.8470  140.5190 C   0  0  0  0  0  2  0  0  0  0  0  0
  181.6800  180.1760  139.2620 C   0  0  2  0  0  3  0  0  0  0  0  0
  181.4030  181.4750  138.8280 O   0  0  0  0  0  1  0  0  0  0  0  0
  181.0510  179.8130  136.8310 C   0  0  0  0  0  1  0  0  0  0  0  0
  182.5830  178.2320  137.9790 C   0  0  0  0  0  1  0  0  0  0  0  0
  181.3950  179.1560  138.1610 C   0  0  0  0  0  3  0  0  0  0  0  0
  1  8  1  0  0  0  0
  1  6  1  0  0  0  0
  2 12  1  0  0  0  0
  3 14  2  0  0  0  0
  3 10  1  0  0  0  0
  4 15  1  0  0  0  0
  4  8  2  0  0  0  0
  5  1  2  0  0  0  0
  7  4  1  0  0  0  0
  9  7  2  0  0  0  0
  9  5  1  0  0  0  0
 10 11  2  0  0  0  0
 11  2  1  0  0  0  0
 11  7  1  0  0  0  0
 12 15  2  0  0  0  0
 13 35  1  0  0  0  0
 13  2  2  0  0  0  0
 14 13  1  0  0  0  0
 16  3  1  0  0  0  0
 17 16  1  0  0  0  0
 18 19  1  0  0  0  0
 19 17  1  0  0  0  0
 20 19  1  0  0  0  0
 21 19  1  0  0  0  0
 22 25  1  0  0  0  0
 22 21  1  1  0  0  0
 23 28  1  0  0  0  0
 24 23  1  6  0  0  0
 26 27  1  6  0  0  0
 26 24  1  0  0  0  0
 26 22  1  0  0  0  0
 28 25  1  0  0  0  0
 29 33  1  0  0  0  0
 29 24  1  0  0  0  0
 29 34  1  0  0  0  0
 31 32  1  0  0  0  0
 32 30  1  0  0  0  0
 33 31  1  0  0  0  0
 34 30  1  0  0  0  0
 36 37  1  1  0  0  0
 36 35  1  0  0  0  0
 38 36  1  0  0  0  0
 39 40  1  6  0  0  0
 39 38  1  0  0  0  0
 41 43  1  0  0  0  0
 42 43  1  0  0  0  0
 43 39  1  0  0  0  0
M  END
>  <MODEL>
9

>  <REMARK>
 VINA RESULT:      -7.1      1.995      2.858
  Name = 
  11 active torsions:
  status: ('A' for Active; 'I' for Inactive)
    1  A    between atoms: C_1  and  C_9
    2  A    between atoms: C_1  and  S_35
    3  A    between atoms: C_2  and  C_6
    4  A    between atoms: C_2  and  C_13
    5  A    between atoms: C_3  and  C_4
    6  A    between atoms: C_3  and  C_12
    7  A    between atoms: C_6  and  C_12
    8  A    between atoms: C_9  and  C_32
    9  A    between atoms: N_11  and  C_14
   10  A    between atoms: C_32  and  C_37
   11  A    between atoms: C_34  and  S_35
                            x       y       z     vdW  Elec       q    Type
                         _______ _______ _______ _____ _____    ______ ____

>  <TORSDO>
F 11

$$$$
