=
 OpenBabel11052413413D

 27 32  0  0  1  0  0  0  0  0999 V2000
  181.8040  178.7550  142.0430 C   0  0  2  0  0  0  0  0  0  0  0  0
  179.3060  178.6990  139.1690 S   0  0  0  0  0  0  0  0  0  0  0  0
  182.3050  176.7830  140.5360 N   0  0  0  0  0  2  0  0  0  0  0  0
  179.1000  174.0830  137.2700 C   0  0  0  0  0  2  0  0  0  0  0  0
  180.1650  172.4580  135.8230 O   0  0  0  0  0  0  0  0  0  0  0  0
  180.0790  177.0890  139.5550 C   0  0  2  0  0  3  0  0  0  0  0  0
  180.5440  181.7660  137.8400 C   0  0  0  0  0  3  0  0  0  0  0  0
  182.0830  176.0730  138.1730 C   0  0  0  0  0  2  0  0  0  0  0  0
  180.4010  179.9220  140.0580 C   0  0  2  0  0  0  0  0  0  0  0  0
  184.8950  179.2970  140.6030 C   0  0  0  0  0  1  0  0  0  0  0  0
  181.7130  180.1400  139.2680 C   0  0  0  0  0  2  0  0  0  0  0  0
  181.5190  173.9090  137.0820 N   0  0  0  0  0  2  0  0  0  0  0  0
  184.5470  178.1310  142.7940 C   0  0  0  0  0  2  0  0  0  0  0  0
  181.6030  177.0250  139.2870 C   0  0  2  0  0  3  0  0  0  0  0  0
  180.6640  179.6870  141.5860 C   0  0  1  0  0  3  0  0  0  0  0  0
  180.2650  173.3980  136.6520 C   0  0  0  0  0  0  0  0  0  0  0  0
  179.7920  175.3080  137.8370 C   0  0  2  0  0  3  0  0  0  0  0  0
  180.3650  178.2810  142.0840 C   0  0  0  0  0  2  0  0  0  0  0  0
  181.1980  174.8490  138.1350 C   0  0  2  0  0  3  0  0  0  0  0  0
  184.2350  178.1210  141.2990 C   0  0  1  0  0  3  0  0  0  0  0  0
  179.2160  175.8940  139.1050 C   0  0  0  0  0  2  0  0  0  0  0  0
  183.8050  179.2630  143.4900 C   0  0  0  0  0  2  0  0  0  0  0  0
  181.4900  180.8320  137.9490 C   0  0  0  0  0  3  0  0  0  0  0  0
  182.3120  178.9790  143.4650 C   0  0  0  0  0  2  0  0  0  0  0  0
  179.6650  182.0550  138.9840 C   0  0  0  0  0  3  0  0  0  0  0  0
  182.7350  178.0980  140.9870 C   0  0  2  0  0  3  0  0  0  0  0  0
  179.6260  181.2220  140.0320 C   0  0  0  0  0  3  0  0  0  0  0  0
  1 18  1  1  0  0  0
  1 24  1  0  0  0  0
  2  6  1  0  0  0  0
  2  9  1  0  0  0  0
  5 16  2  0  0  0  0
  6 21  1  6  0  0  0
  7 23  2  0  0  0  0
  7 25  1  0  0  0  0
  9 11  1  6  0  0  0
  9 15  1  0  0  0  0
 12 19  1  0  0  0  0
 13 22  1  0  0  0  0
 14  8  1  6  0  0  0
 14  6  1  0  0  0  0
 14  3  1  0  0  0  0
 15  1  1  0  0  0  0
 15 18  1  6  0  0  0
 16 12  1  0  0  0  0
 16  4  1  0  0  0  0
 17  4  1  1  0  0  0
 17 19  1  0  0  0  0
 17 21  1  0  0  0  0
 19  8  1  6  0  0  0
 20 10  1  6  0  0  0
 20 13  1  0  0  0  0
 23 11  1  0  0  0  0
 24 22  1  0  0  0  0
 25 27  2  0  0  0  0
 26  3  1  1  0  0  0
 26 20  1  0  0  0  0
 26  1  1  0  0  0  0
 27  9  1  0  0  0  0
M  END
>  <MODEL>
1

>  <REMARK>
 VINA RESULT:      -6.1      0.000      0.000
  Name = 
  0 active torsions:
  status: ('A' for Active; 'I' for Inactive)
                            x       y       z     vdW  Elec       q    Type
                         _______ _______ _______ _____ _____    ______ ____

>  <TORSDO>
F 0

$$$$
=
 OpenBabel11052413413D

 27 32  0  0  1  0  0  0  0  0999 V2000
  186.7930  177.0100  135.3860 C   0  0  2  0  0  0  0  0  0  0  0  0
  183.3720  175.4430  135.9660 S   0  0  0  0  0  0  0  0  0  0  0  0
  185.6770  178.1440  137.3550 N   0  0  0  0  0  2  0  0  0  0  0  0
  180.5190  178.6440  138.5290 C   0  0  0  0  0  2  0  0  0  0  0  0
  179.9990  179.5710  140.7070 O   0  0  0  0  0  0  0  0  0  0  0  0
  183.5660  177.1400  136.6130 C   0  0  2  0  0  3  0  0  0  0  0  0
  184.8010  172.2980  136.8460 C   0  0  0  0  0  3  0  0  0  0  0  0
  184.0350  177.6810  139.1520 C   0  0  0  0  0  2  0  0  0  0  0  0
  185.1310  174.9050  135.6470 C   0  0  2  0  0  0  0  0  0  0  0  0
  188.6580  176.2910  138.2020 C   0  0  0  0  0  1  0  0  0  0  0  0
  185.8260  174.5300  136.9770 C   0  0  0  0  0  2  0  0  0  0  0  0
  182.2320  179.0310  140.2120 N   0  0  0  0  0  2  0  0  0  0  0  0
  189.0690  178.2590  136.7050 C   0  0  0  0  0  2  0  0  0  0  0  0
  184.5870  177.2770  137.7700 C   0  0  2  0  0  3  0  0  0  0  0  0
  186.0260  175.8320  134.7540 C   0  0  1  0  0  3  0  0  0  0  0  0
  180.8520  179.1250  139.8960 C   0  0  0  0  0  0  0  0  0  0  0  0
  181.8030  177.9070  138.1970 C   0  0  2  0  0  3  0  0  0  0  0  0
  185.5230  177.2600  134.5990 C   0  0  0  0  0  2  0  0  0  0  0  0
  182.8720  178.6310  138.9770 C   0  0  2  0  0  3  0  0  0  0  0  0
  188.0610  177.5560  137.6140 C   0  0  1  0  0  3  0  0  0  0  0  0
  182.2220  177.8820  136.7460 C   0  0  0  0  0  2  0  0  0  0  0  0
  189.2720  177.4740  135.4180 C   0  0  0  0  0  2  0  0  0  0  0  0
  185.2400  173.2970  137.6130 C   0  0  0  0  0  3  0  0  0  0  0  0
  187.9960  177.5180  134.5940 C   0  0  0  0  0  2  0  0  0  0  0  0
  184.8100  172.4410  135.3810 C   0  0  0  0  0  3  0  0  0  0  0  0
  186.7310  177.2400  136.9210 C   0  0  2  0  0  3  0  0  0  0  0  0
  185.0030  173.6420  134.8220 C   0  0  0  0  0  3  0  0  0  0  0  0
  1 24  1  6  0  0  0
  1 26  1  0  0  0  0
  2  6  1  0  0  0  0
  3 14  1  0  0  0  0
  4 16  1  0  0  0  0
  6 21  1  1  0  0  0
  6 14  1  0  0  0  0
  7 23  2  0  0  0  0
  9 27  1  6  0  0  0
  9  2  1  0  0  0  0
  9 11  1  0  0  0  0
 11 23  1  0  0  0  0
 13 20  1  0  0  0  0
 14  8  1  1  0  0  0
 15 18  1  6  0  0  0
 15  1  1  0  0  0  0
 15  9  1  0  0  0  0
 16 12  1  0  0  0  0
 16  5  2  0  0  0  0
 17 21  1  6  0  0  0
 17  4  1  0  0  0  0
 17 19  1  0  0  0  0
 18  1  1  0  0  0  0
 19  8  1  1  0  0  0
 19 12  1  0  0  0  0
 20 10  1  6  0  0  0
 22 13  1  0  0  0  0
 24 22  1  0  0  0  0
 25  7  1  0  0  0  0
 26  3  1  6  0  0  0
 26 20  1  0  0  0  0
 27 25  2  0  0  0  0
M  END
>  <MODEL>
2

>  <REMARK>
 VINA RESULT:      -5.3      4.657      7.399
  Name = 
  0 active torsions:
  status: ('A' for Active; 'I' for Inactive)
                            x       y       z     vdW  Elec       q    Type
                         _______ _______ _______ _____ _____    ______ ____

>  <TORSDO>
F 0

$$$$
=
 OpenBabel11052413413D

 27 32  0  0  1  0  0  0  0  0999 V2000
  190.7420  176.2950  135.4610 C   0  0  2  0  0  0  0  0  0  0  0  0
  187.0700  175.7010  136.2780 S   0  0  0  0  0  0  0  0  0  0  0  0
  190.2220  177.2710  137.7390 N   0  0  0  0  0  2  0  0  0  0  0  0
  185.6110  178.9900  139.7430 C   0  0  0  0  0  2  0  0  0  0  0  0
  185.6090  179.5570  142.0990 O   0  0  0  0  0  0  0  0  0  0  0  0
  187.8440  177.0980  137.1650 C   0  0  2  0  0  3  0  0  0  0  0  0
  187.5160  172.1660  136.3900 C   0  0  0  0  0  3  0  0  0  0  0  0
  188.6910  176.9430  139.6580 C   0  0  0  0  0  2  0  0  0  0  0  0
  188.5350  174.7540  135.6110 C   0  0  2  0  0  0  0  0  0  0  0  0
  192.5370  174.5020  137.8030 C   0  0  0  0  0  1  0  0  0  0  0  0
  189.1970  173.9280  136.7390 C   0  0  0  0  0  2  0  0  0  0  0  0
  187.5060  178.5080  141.1900 N   0  0  0  0  0  2  0  0  0  0  0  0
  193.4050  176.5310  136.6150 C   0  0  0  0  0  2  0  0  0  0  0  0
  188.9580  176.6910  138.1610 C   0  0  2  0  0  3  0  0  0  0  0  0
  189.5890  175.5460  134.7640 C   0  0  1  0  0  3  0  0  0  0  0  0
  186.2010  179.0610  141.1050 C   0  0  0  0  0  0  0  0  0  0  0  0
  186.5630  177.9970  139.1020 C   0  0  2  0  0  3  0  0  0  0  0  0
  189.5470  177.0580  134.9280 C   0  0  0  0  0  2  0  0  0  0  0  0
  187.8720  178.2030  139.8230 C   0  0  2  0  0  3  0  0  0  0  0  0
  192.3160  175.9780  137.5330 C   0  0  1  0  0  3  0  0  0  0  0  0
  186.8180  178.1520  137.6210 C   0  0  0  0  0  2  0  0  0  0  0  0
  193.2320  176.0040  135.1980 C   0  0  0  0  0  2  0  0  0  0  0  0
  188.3150  172.8140  137.2390 C   0  0  0  0  0  3  0  0  0  0  0  0
  191.9650  176.5840  134.5940 C   0  0  0  0  0  2  0  0  0  0  0  0
  187.4360  172.5990  134.9850 C   0  0  0  0  0  3  0  0  0  0  0  0
  190.8960  176.2110  137.0050 C   0  0  2  0  0  3  0  0  0  0  0  0
  187.9430  173.7810  134.6140 C   0  0  0  0  0  3  0  0  0  0  0  0
  1 24  1  6  0  0  0
  1 26  1  0  0  0  0
  2  6  1  0  0  0  0
  3 14  1  0  0  0  0
  4 16  1  0  0  0  0
  6 21  1  1  0  0  0
  6 14  1  0  0  0  0
  7 23  2  0  0  0  0
  9 27  1  6  0  0  0
  9  2  1  0  0  0  0
  9 11  1  0  0  0  0
 11 23  1  0  0  0  0
 13 20  1  0  0  0  0
 14  8  1  1  0  0  0
 15 18  1  1  0  0  0
 15  1  1  0  0  0  0
 15  9  1  0  0  0  0
 16 12  1  0  0  0  0
 16  5  2  0  0  0  0
 17 21  1  6  0  0  0
 17  4  1  0  0  0  0
 17 19  1  0  0  0  0
 18  1  1  0  0  0  0
 19  8  1  1  0  0  0
 19 12  1  0  0  0  0
 20 10  1  6  0  0  0
 22 13  1  0  0  0  0
 24 22  1  0  0  0  0
 25  7  1  0  0  0  0
 26 20  1  0  0  0  0
 26  3  1  1  0  0  0
 27 25  2  0  0  0  0
M  END
>  <MODEL>
3

>  <REMARK>
 VINA RESULT:      -5.2      7.292     10.128
  Name = 
  0 active torsions:
  status: ('A' for Active; 'I' for Inactive)
                            x       y       z     vdW  Elec       q    Type
                         _______ _______ _______ _____ _____    ______ ____

>  <TORSDO>
F 0

$$$$
=
 OpenBabel11052413413D

 27 32  0  0  1  0  0  0  0  0999 V2000
  180.3920  177.1230  139.3450 C   0  0  2  0  0  0  0  0  0  0  0  0
  182.2870  177.3430  136.0500 S   0  0  0  0  0  0  0  0  0  0  0  0
  182.7870  177.8080  139.8010 N   0  0  0  0  0  2  0  0  0  0  0  0
  187.1850  176.9400  136.9480 C   0  0  0  0  0  2  0  0  0  0  0  0
  189.1900  178.0780  137.6930 O   0  0  0  0  0  0  0  0  0  0  0  0
  183.3290  177.0710  137.5250 C   0  0  2  0  0  3  0  0  0  0  0  0
  180.2910  180.0710  134.9170 C   0  0  0  0  0  3  0  0  0  0  0  0
  184.6760  178.9960  138.7250 C   0  0  0  0  0  2  0  0  0  0  0  0
  180.6560  177.8900  136.7740 C   0  0  2  0  0  0  0  0  0  0  0  0
  180.3390  180.3300  140.6260 C   0  0  0  0  0  1  0  0  0  0  0  0
  180.7390  179.3660  137.2300 C   0  0  0  0  0  2  0  0  0  0  0  0
  187.1380  178.6280  138.6990 N   0  0  0  0  0  2  0  0  0  0  0  0
  180.1760  178.2540  142.0200 C   0  0  0  0  0  2  0  0  0  0  0  0
  183.3410  178.2490  138.5320 C   0  0  2  0  0  3  0  0  0  0  0  0
  179.9980  176.9720  137.8630 C   0  0  1  0  0  3  0  0  0  0  0  0
  187.9460  177.9050  137.7830 C   0  0  0  0  0  0  0  0  0  0  0  0
  185.7740  177.4330  137.2100 C   0  0  2  0  0  3  0  0  0  0  0  0
  180.9400  175.9760  138.5220 C   0  0  0  0  0  2  0  0  0  0  0  0
  185.8260  178.0240  138.5970 C   0  0  2  0  0  3  0  0  0  0  0  0
  181.0270  179.0360  141.0210 C   0  0  1  0  0  3  0  0  0  0  0  0
  184.6730  176.3980  137.1870 C   0  0  0  0  0  2  0  0  0  0  0  0
  178.9480  177.6680  141.3390 C   0  0  0  0  0  2  0  0  0  0  0  0
  180.8980  180.3220  136.0780 C   0  0  0  0  0  3  0  0  0  0  0  0
  179.3790  176.5920  140.3570 C   0  0  0  0  0  2  0  0  0  0  0  0
  179.5420  178.8160  134.7380 C   0  0  0  0  0  3  0  0  0  0  0  0
  181.3950  178.2310  139.7700 C   0  0  2  0  0  3  0  0  0  0  0  0
  179.6790  177.8180  135.6200 C   0  0  0  0  0  3  0  0  0  0  0  0
  1 18  1  1  0  0  0
  1 26  1  0  0  0  0
  1 24  1  0  0  0  0
  2  9  1  0  0  0  0
  2  6  1  0  0  0  0
  4 16  1  0  0  0  0
  5 16  2  0  0  0  0
  6 21  1  6  0  0  0
  6 14  1  0  0  0  0
  7 23  2  0  0  0  0
  9 27  1  6  0  0  0
  9 11  1  0  0  0  0
  9 15  1  0  0  0  0
 14  8  1  1  0  0  0
 14  3  1  0  0  0  0
 15 18  1  6  0  0  0
 15  1  1  0  0  0  0
 16 12  1  0  0  0  0
 17  4  1  1  0  0  0
 17 19  1  0  0  0  0
 19 12  1  0  0  0  0
 19  8  1  6  0  0  0
 20 10  1  6  0  0  0
 20 13  1  0  0  0  0
 21 17  1  0  0  0  0
 22 13  1  0  0  0  0
 23 11  1  0  0  0  0
 24 22  1  0  0  0  0
 25  7  1  0  0  0  0
 25 27  2  0  0  0  0
 26  3  1  1  0  0  0
 26 20  1  0  0  0  0
M  END
>  <MODEL>
4

>  <REMARK>
 VINA RESULT:      -5.2      3.449      5.269
  Name = 
  0 active torsions:
  status: ('A' for Active; 'I' for Inactive)
                            x       y       z     vdW  Elec       q    Type
                         _______ _______ _______ _____ _____    ______ ____

>  <TORSDO>
F 0

$$$$
=
 OpenBabel11052413413D

 27 32  0  0  1  0  0  0  0  0999 V2000
  181.0310  177.3320  139.7690 C   0  0  2  0  0  0  0  0  0  0  0  0
  180.2300  175.6750  136.4360 S   0  0  0  0  0  0  0  0  0  0  0  0
  182.9140  175.7600  139.1420 N   0  0  0  0  0  2  0  0  0  0  0  0
  182.8690  171.4540  136.0290 C   0  0  0  0  0  2  0  0  0  0  0  0
  185.0270  170.4760  135.5190 O   0  0  0  0  0  0  0  0  0  0  0  0
  181.3990  174.7550  137.4960 C   0  0  2  0  0  3  0  0  0  0  0  0
  180.4140  178.7750  134.6860 C   0  0  0  0  0  3  0  0  0  0  0  0
  184.0130  174.7900  137.1440 C   0  0  0  0  0  2  0  0  0  0  0  0
  180.2050  177.3770  137.2040 C   0  0  2  0  0  0  0  0  0  0  0  0
  183.8540  179.2440  139.2250 C   0  0  0  0  0  1  0  0  0  0  0  0
  181.4820  178.1590  136.8140 C   0  0  0  0  0  2  0  0  0  0  0  0
  184.9590  172.5450  136.6320 N   0  0  0  0  0  2  0  0  0  0  0  0
  183.1940  178.3110  141.4550 C   0  0  0  0  0  2  0  0  0  0  0  0
  182.7560  175.4660  137.7270 C   0  0  2  0  0  3  0  0  0  0  0  0
  179.8960  177.4790  138.7380 C   0  0  1  0  0  3  0  0  0  0  0  0
  184.3550  171.4140  136.0210 C   0  0  0  0  0  0  0  0  0  0  0  0
  182.6540  172.9130  136.3840 C   0  0  2  0  0  3  0  0  0  0  0  0
  180.0720  176.1860  139.5200 C   0  0  0  0  0  2  0  0  0  0  0  0
  183.8590  173.2870  137.2110 C   0  0  2  0  0  3  0  0  0  0  0  0
  183.5590  177.9800  140.0100 C   0  0  1  0  0  3  0  0  0  0  0  0
  181.4180  173.2460  137.1870 C   0  0  0  0  0  2  0  0  0  0  0  0
  181.8190  178.9580  141.5280 C   0  0  0  0  0  2  0  0  0  0  0  0
  181.5370  178.4880  135.3450 C   0  0  0  0  0  3  0  0  0  0  0  0
  180.7600  177.9390  141.1440 C   0  0  0  0  0  2  0  0  0  0  0  0
  179.1160  178.6850  135.3750 C   0  0  0  0  0  3  0  0  0  0  0  0
  182.4960  177.1460  139.2870 C   0  0  2  0  0  3  0  0  0  0  0  0
  179.0240  178.0720  136.5610 C   0  0  0  0  0  3  0  0  0  0  0  0
  1 18  1  1  0  0  0
  1 24  1  0  0  0  0
  2  9  1  0  0  0  0
  2  6  1  0  0  0  0
  5 16  2  0  0  0  0
  6 21  1  6  0  0  0
  6 14  1  0  0  0  0
  7 23  2  0  0  0  0
  7 25  1  0  0  0  0
  9 27  1  6  0  0  0
  9 15  1  0  0  0  0
 11  9  1  0  0  0  0
 12 19  1  0  0  0  0
 13 22  1  0  0  0  0
 14  8  1  1  0  0  0
 14  3  1  0  0  0  0
 15 18  1  1  0  0  0
 15  1  1  0  0  0  0
 16  4  1  0  0  0  0
 16 12  1  0  0  0  0
 17  4  1  1  0  0  0
 17 21  1  0  0  0  0
 17 19  1  0  0  0  0
 19  8  1  6  0  0  0
 20 10  1  6  0  0  0
 20 13  1  0  0  0  0
 23 11  1  0  0  0  0
 24 22  1  0  0  0  0
 25 27  2  0  0  0  0
 26  3  1  1  0  0  0
 26  1  1  0  0  0  0
 26 20  1  0  0  0  0
M  END
>  <MODEL>
5

>  <REMARK>
 VINA RESULT:      -4.8      2.698      3.532
  Name = 
  0 active torsions:
  status: ('A' for Active; 'I' for Inactive)
                            x       y       z     vdW  Elec       q    Type
                         _______ _______ _______ _____ _____    ______ ____

>  <TORSDO>
F 0

$$$$
=
 OpenBabel11052413413D

 27 32  0  0  1  0  0  0  0  0999 V2000
  191.5340  176.0890  135.6660 C   0  0  2  0  0  0  0  0  0  0  0  0
  188.0620  176.0930  137.2300 S   0  0  0  0  0  0  0  0  0  0  0  0
  191.7360  176.5220  138.1530 N   0  0  0  0  0  2  0  0  0  0  0  0
  188.2150  178.5920  141.5520 C   0  0  0  0  0  2  0  0  0  0  0  0
  188.8130  178.5100  143.8990 O   0  0  0  0  0  0  0  0  0  0  0  0
  189.3320  177.0120  138.1650 C   0  0  2  0  0  3  0  0  0  0  0  0
  187.5670  172.6410  136.4920 C   0  0  0  0  0  3  0  0  0  0  0  0
  190.5670  176.0350  140.2820 C   0  0  0  0  0  2  0  0  0  0  0  0
  189.0680  175.0660  136.0390 C   0  0  2  0  0  0  0  0  0  0  0  0
  193.2020  173.4080  137.0640 C   0  0  0  0  0  1  0  0  0  0  0  0
  189.6900  173.8530  136.7700 C   0  0  0  0  0  2  0  0  0  0  0  0
  190.1540  177.3580  142.3500 N   0  0  0  0  0  2  0  0  0  0  0  0
  194.3330  175.4460  136.1440 C   0  0  0  0  0  2  0  0  0  0  0  0
  190.4680  176.1330  138.7470 C   0  0  2  0  0  3  0  0  0  0  0  0
  190.1130  175.8110  135.1380 C   0  0  1  0  0  3  0  0  0  0  0  0
  189.0510  178.1780  142.7090 C   0  0  0  0  0  0  0  0  0  0  0  0
  188.7290  177.6240  140.5040 C   0  0  2  0  0  3  0  0  0  0  0  0
  190.5050  177.2000  135.6170 C   0  0  0  0  0  2  0  0  0  0  0  0
  190.1590  177.3520  140.9020 C   0  0  2  0  0  3  0  0  0  0  0  0
  193.3320  174.9160  137.1690 C   0  0  1  0  0  3  0  0  0  0  0  0
  188.7290  178.1030  139.0710 C   0  0  0  0  0  2  0  0  0  0  0  0
  193.7600  175.3580  134.7370 C   0  0  0  0  0  2  0  0  0  0  0  0
  188.6560  172.8590  137.2320 C   0  0  0  0  0  3  0  0  0  0  0  0
  192.6010  176.3300  134.6010 C   0  0  0  0  0  2  0  0  0  0  0  0
  187.3380  173.4330  135.2730 C   0  0  0  0  0  3  0  0  0  0  0  0
  191.9510  175.5740  137.0710 C   0  0  2  0  0  3  0  0  0  0  0  0
  188.0600  174.5360  135.0410 C   0  0  0  0  0  3  0  0  0  0  0  0
  1 24  1  6  0  0  0
  1 26  1  0  0  0  0
  2  6  1  0  0  0  0
  3 14  1  0  0  0  0
  4 16  1  0  0  0  0
  6 14  1  0  0  0  0
  6 21  1  1  0  0  0
  7 23  2  0  0  0  0
  9 27  1  6  0  0  0
  9 11  1  0  0  0  0
  9  2  1  0  0  0  0
 11 23  1  0  0  0  0
 12 16  1  0  0  0  0
 13 20  1  0  0  0  0
 14  8  1  1  0  0  0
 15 18  1  1  0  0  0
 15  1  1  0  0  0  0
 15  9  1  0  0  0  0
 16  5  2  0  0  0  0
 17 21  1  6  0  0  0
 17 19  1  0  0  0  0
 17  4  1  0  0  0  0
 18  1  1  0  0  0  0
 19  8  1  1  0  0  0
 19 12  1  0  0  0  0
 20 10  1  6  0  0  0
 22 13  1  0  0  0  0
 24 22  1  0  0  0  0
 25  7  1  0  0  0  0
 26 20  1  0  0  0  0
 26  3  1  1  0  0  0
 27 25  2  0  0  0  0
M  END
>  <MODEL>
6

>  <REMARK>
 VINA RESULT:      -4.7      8.190     11.081
  Name = 
  0 active torsions:
  status: ('A' for Active; 'I' for Inactive)
                            x       y       z     vdW  Elec       q    Type
                         _______ _______ _______ _____ _____    ______ ____

>  <TORSDO>
F 0

$$$$
=
 OpenBabel11052413413D

 27 32  0  0  1  0  0  0  0  0999 V2000
  182.0090  176.3020  135.6070 C   0  0  2  0  0  0  0  0  0  0  0  0
  184.7900  177.8170  137.7220 S   0  0  0  0  0  0  0  0  0  0  0  0
  183.8960  174.6290  135.8330 N   0  0  0  0  0  2  0  0  0  0  0  0
  189.0670  175.4230  136.7620 C   0  0  0  0  0  2  0  0  0  0  0  0
  190.3980  173.4420  137.1840 O   0  0  0  0  0  0  0  0  0  0  0  0
  185.3150  176.4770  136.5980 C   0  0  2  0  0  3  0  0  0  0  0  0
  182.7220  177.9270  140.6240 C   0  0  0  0  0  3  0  0  0  0  0  0
  185.7140  173.9920  137.3900 C   0  0  0  0  0  2  0  0  0  0  0  0
  182.9320  177.6420  137.7570 C   0  0  2  0  0  0  0  0  0  0  0  0
  180.8100  173.6090  137.4050 C   0  0  0  0  0  1  0  0  0  0  0  0
  182.5230  176.4550  138.6630 C   0  0  0  0  0  2  0  0  0  0  0  0
  188.0600  173.2280  137.0620 N   0  0  0  0  0  2  0  0  0  0  0  0
  180.6670  173.8140  134.9110 C   0  0  0  0  0  2  0  0  0  0  0  0
  184.7250  175.0850  136.9360 C   0  0  2  0  0  3  0  0  0  0  0  0
  182.1750  177.6230  136.3840 C   0  0  1  0  0  3  0  0  0  0  0  0
  189.2690  173.9720  137.0170 C   0  0  0  0  0  0  0  0  0  0  0  0
  187.5770  175.5250  137.0270 C   0  0  2  0  0  3  0  0  0  0  0  0
  183.0440  177.3200  135.1720 C   0  0  0  0  0  2  0  0  0  0  0  0
  187.0300  174.1650  136.6670 C   0  0  2  0  0  3  0  0  0  0  0  0
  181.6010  173.7650  136.1190 C   0  0  1  0  0  3  0  0  0  0  0  0
  186.8100  176.5590  136.2360 C   0  0  0  0  0  2  0  0  0  0  0  0
  179.9010  175.1290  134.8770 C   0  0  0  0  0  2  0  0  0  0  0  0
  182.8350  176.6980  140.1160 C   0  0  0  0  0  3  0  0  0  0  0  0
  180.8660  176.2680  134.5960 C   0  0  0  0  0  2  0  0  0  0  0  0
  182.3790  179.0550  139.7430 C   0  0  0  0  0  3  0  0  0  0  0  0
  182.5360  174.9750  136.2180 C   0  0  2  0  0  3  0  0  0  0  0  0
  182.4370  178.9130  138.4130 C   0  0  0  0  0  3  0  0  0  0  0  0
  1 24  1  6  0  0  0
  1 26  1  0  0  0  0
  1 15  1  0  0  0  0
  2  9  1  0  0  0  0
  3 14  1  0  0  0  0
  4 16  1  0  0  0  0
  4 17  1  0  0  0  0
  6 21  1  1  0  0  0
  6 14  1  0  0  0  0
  6  2  1  0  0  0  0
  9 27  1  1  0  0  0
  9 11  1  0  0  0  0
 11 23  1  0  0  0  0
 13 20  1  0  0  0  0
 14  8  1  6  0  0  0
 15 18  1  6  0  0  0
 15  9  1  0  0  0  0
 16 12  1  0  0  0  0
 16  5  2  0  0  0  0
 17 21  1  6  0  0  0
 18  1  1  0  0  0  0
 19 17  1  0  0  0  0
 19 12  1  0  0  0  0
 19  8  1  1  0  0  0
 20 26  1  0  0  0  0
 20 10  1  1  0  0  0
 22 13  1  0  0  0  0
 23  7  2  0  0  0  0
 24 22  1  0  0  0  0
 25  7  1  0  0  0  0
 26  3  1  6  0  0  0
 27 25  2  0  0  0  0
M  END
>  <MODEL>
7

>  <REMARK>
 VINA RESULT:      -4.6      4.262      6.995
  Name = 
  0 active torsions:
  status: ('A' for Active; 'I' for Inactive)
                            x       y       z     vdW  Elec       q    Type
                         _______ _______ _______ _____ _____    ______ ____

>  <TORSDO>
F 0

$$$$
=
 OpenBabel11052413413D

 27 32  0  0  1  0  0  0  0  0999 V2000
  188.8520  177.4940  136.5730 C   0  0  2  0  0  0  0  0  0  0  0  0
  189.0570  174.2480  134.5940 S   0  0  0  0  0  0  0  0  0  0  0  0
  187.0520  175.9070  137.3790 N   0  0  0  0  0  2  0  0  0  0  0  0
  184.6590  171.8930  134.8490 C   0  0  0  0  0  2  0  0  0  0  0  0
  183.2060  170.4930  136.1900 O   0  0  0  0  0  0  0  0  0  0  0  0
  187.4280  174.5970  135.3390 C   0  0  2  0  0  3  0  0  0  0  0  0
  192.2620  173.4590  135.9410 C   0  0  0  0  0  3  0  0  0  0  0  0
  186.5860  173.4820  137.5770 C   0  0  0  0  0  2  0  0  0  0  0  0
  190.1970  175.4270  135.4860 C   0  0  2  0  0  0  0  0  0  0  0  0
  189.5800  176.6600  139.8430 C   0  0  0  0  0  1  0  0  0  0  0  0
  190.5130  174.8960  136.9050 C   0  0  0  0  0  2  0  0  0  0  0  0
  184.5380  172.1010  137.2700 N   0  0  0  0  0  2  0  0  0  0  0  0
  188.1910  178.6340  139.1690 C   0  0  0  0  0  2  0  0  0  0  0  0
  187.4120  174.5870  136.8890 C   0  0  2  0  0  3  0  0  0  0  0  0
  189.8100  176.9460  135.4970 C   0  0  1  0  0  3  0  0  0  0  0  0
  184.0580  171.4170  136.1220 C   0  0  0  0  0  0  0  0  0  0  0  0
  185.8290  172.6880  135.3990 C   0  0  2  0  0  3  0  0  0  0  0  0
  188.3560  177.2450  135.1630 C   0  0  0  0  0  2  0  0  0  0  0  0
  185.3600  173.1720  136.7490 C   0  0  2  0  0  3  0  0  0  0  0  0
  188.3300  177.1140  139.1130 C   0  0  1  0  0  3  0  0  0  0  0  0
  186.2740  173.8920  134.6020 C   0  0  0  0  0  2  0  0  0  0  0  0
  189.2350  179.3030  138.2870 C   0  0  0  0  0  2  0  0  0  0  0  0
  191.3340  173.6340  136.8840 C   0  0  0  0  0  3  0  0  0  0  0  0
  188.9350  178.9970  136.8300 C   0  0  0  0  0  2  0  0  0  0  0  0
  192.4190  174.4610  134.8750 C   0  0  0  0  0  3  0  0  0  0  0  0
  188.3190  176.5520  137.6870 C   0  0  2  0  0  3  0  0  0  0  0  0
  191.4830  175.3990  134.6870 C   0  0  0  0  0  3  0  0  0  0  0  0
  1 18  1  6  0  0  0
  1 24  1  0  0  0  0
  1 26  1  0  0  0  0
  2  6  1  0  0  0  0
  2  9  1  0  0  0  0
  4 17  1  0  0  0  0
  4 16  1  0  0  0  0
  6 21  1  6  0  0  0
  6 14  1  0  0  0  0
  7 23  2  0  0  0  0
  9 27  1  6  0  0  0
  9 15  1  0  0  0  0
  9 11  1  0  0  0  0
 14  3  1  0  0  0  0
 14  8  1  6  0  0  0
 15 18  1  6  0  0  0
 15  1  1  0  0  0  0
 16  5  2  0  0  0  0
 16 12  1  0  0  0  0
 17 21  1  6  0  0  0
 17 19  1  0  0  0  0
 19 12  1  0  0  0  0
 19  8  1  1  0  0  0
 20 13  1  0  0  0  0
 20 10  1  6  0  0  0
 22 13  1  0  0  0  0
 23 11  1  0  0  0  0
 24 22  1  0  0  0  0
 25  7  1  0  0  0  0
 26  3  1  6  0  0  0
 26 20  1  0  0  0  0
 27 25  2  0  0  0  0
M  END
>  <MODEL>
8

>  <REMARK>
 VINA RESULT:      -4.6      6.789      9.003
  Name = 
  0 active torsions:
  status: ('A' for Active; 'I' for Inactive)
                            x       y       z     vdW  Elec       q    Type
                         _______ _______ _______ _____ _____    ______ ____

>  <TORSDO>
F 0

$$$$
=
 OpenBabel11052413413D

 27 32  0  0  1  0  0  0  0  0999 V2000
  183.4010  175.4670  135.6460 C   0  0  2  0  0  0  0  0  0  0  0  0
  179.8910  175.9880  137.0260 S   0  0  0  0  0  0  0  0  0  0  0  0
  183.5520  176.5440  137.9320 N   0  0  0  0  0  2  0  0  0  0  0  0
  180.0200  179.5470  140.5290 C   0  0  0  0  0  2  0  0  0  0  0  0
  180.5510  180.0790  142.8320 O   0  0  0  0  0  0  0  0  0  0  0  0
  181.1690  177.0870  137.7280 C   0  0  2  0  0  3  0  0  0  0  0  0
  179.2890  172.4800  137.2180 C   0  0  0  0  0  3  0  0  0  0  0  0
  182.3090  176.6780  140.0710 C   0  0  0  0  0  2  0  0  0  0  0  0
  180.8900  174.6510  136.1890 C   0  0  2  0  0  0  0  0  0  0  0  0
  184.9310  173.2120  137.7660 C   0  0  0  0  0  1  0  0  0  0  0  0
  181.4470  173.6610  137.2390 C   0  0  0  0  0  2  0  0  0  0  0  0
  181.8900  178.5170  141.6950 N   0  0  0  0  0  2  0  0  0  0  0  0
  186.1610  174.8960  136.3780 C   0  0  0  0  0  2  0  0  0  0  0  0
  182.2550  176.3640  138.5630 C   0  0  2  0  0  3  0  0  0  0  0  0
  181.9860  175.0980  135.1600 C   0  0  1  0  0  3  0  0  0  0  0  0
  180.8090  179.4330  141.7830 C   0  0  0  0  0  0  0  0  0  0  0  0
  180.5260  178.3190  139.7950 C   0  0  2  0  0  3  0  0  0  0  0  0
  182.4160  176.5530  135.2650 C   0  0  0  0  0  2  0  0  0  0  0  0
  181.9340  178.1240  140.3030 C   0  0  2  0  0  3  0  0  0  0  0  0
  185.1140  174.6880  137.4700 C   0  0  1  0  0  3  0  0  0  0  0  0
  180.5830  178.3970  138.2870 C   0  0  0  0  0  2  0  0  0  0  0  0
  185.6240  174.4510  135.0260 C   0  0  0  0  0  2  0  0  0  0  0  0
  180.3650  172.8570  137.9110 C   0  0  0  0  0  3  0  0  0  0  0  0
  184.5050  175.3840  134.5940 C   0  0  0  0  0  2  0  0  0  0  0  0
  179.1230  172.9230  135.8250 C   0  0  0  0  0  3  0  0  0  0  0  0
  183.7620  175.3350  137.1510 C   0  0  2  0  0  3  0  0  0  0  0  0
  179.8910  173.9030  135.3330 C   0  0  0  0  0  3  0  0  0  0  0  0
  1 24  1  6  0  0  0
  1 26  1  0  0  0  0
  2  6  1  0  0  0  0
  3 14  1  0  0  0  0
  4 16  1  0  0  0  0
  6 21  1  1  0  0  0
  6 14  1  0  0  0  0
  7 23  2  0  0  0  0
  9 27  1  6  0  0  0
  9  2  1  0  0  0  0
  9 11  1  0  0  0  0
 11 23  1  0  0  0  0
 12 16  1  0  0  0  0
 13 20  1  0  0  0  0
 14  8  1  1  0  0  0
 15 18  1  1  0  0  0
 15  1  1  0  0  0  0
 15  9  1  0  0  0  0
 16  5  2  0  0  0  0
 17 21  1  6  0  0  0
 17 19  1  0  0  0  0
 17  4  1  0  0  0  0
 18  1  1  0  0  0  0
 19  8  1  1  0  0  0
 19 12  1  0  0  0  0
 20 10  1  6  0  0  0
 22 13  1  0  0  0  0
 24 22  1  0  0  0  0
 25  7  1  0  0  0  0
 26 20  1  0  0  0  0
 26  3  1  6  0  0  0
 27 25  2  0  0  0  0
M  END
>  <MODEL>
9

>  <REMARK>
 VINA RESULT:      -4.4      3.214      6.808
  Name = 
  0 active torsions:
  status: ('A' for Active; 'I' for Inactive)
                            x       y       z     vdW  Elec       q    Type
                         _______ _______ _______ _____ _____    ______ ____

>  <TORSDO>
F 0

$$$$
