=
 OpenBabel11052415513D

 34 39  0  0  1  0  0  0  0  0999 V2000
  187.5000  177.6470  144.9010 N   0  0  0  0  0  0  0  0  0  0  0  0
  190.9600  178.0120  143.7010 C   0  0  0  0  0  2  0  0  0  0  0  0
  190.1590  177.7320  145.8230 N   0  0  0  0  0  0  0  0  0  0  0  0
  186.9420  177.6600  147.2580 N   0  0  0  0  0  0  0  0  0  0  0  0
  187.7400  177.6770  148.3610 C   0  0  0  0  0  3  0  0  0  0  0  0
  189.1240  177.6660  146.6800 C   0  0  0  0  0  0  0  0  0  0  0  0
  187.7950  177.6650  146.2240 C   0  0  0  0  0  0  0  0  0  0  0  0
  189.1080  177.6910  148.0490 C   0  0  0  0  0  3  0  0  0  0  0  0
  190.9080  178.3700  142.2550 C   0  0  0  0  0  2  0  0  0  0  0  0
  190.3690  177.2680  141.4180 C   0  0  0  0  0  0  0  0  0  0  0  0
  189.1320  176.8190  141.6170 C   0  0  0  0  0  3  0  0  0  0  0  0
  189.9080  177.7340  144.4790 C   0  0  0  0  0  0  0  0  0  0  0  0
  188.2460  177.1740  142.7390 C   0  0  0  0  0  2  0  0  0  0  0  0
  188.5470  177.5660  143.9970 C   0  0  0  0  0  0  0  0  0  0  0  0
  191.1300  176.8020  140.2930 N   0  0  0  0  0  0  0  0  0  0  0  0
  192.4050  177.2710  140.0790 O   0  0  0  0  0  0  0  0  0  0  0  0
  190.6500  175.9640  139.5000 O   0  0  0  0  0  0  0  0  0  0  0  0
  186.0910  177.6660  144.4740 C   0  0  0  0  0  2  0  0  0  0  0  0
  180.9820  178.4330  143.2020 C   0  0  0  0  0  3  0  0  0  0  0  0
  183.6390  178.9810  142.5270 C   0  0  0  0  0  0  0  0  0  0  0  0
  180.9690  177.5560  139.6030 C   0  0  0  0  0  0  0  0  0  0  0  0
  185.5950  179.0770  144.1130 C   0  0  1  0  0  3  0  0  0  0  0  0
  180.5310  177.7720  140.9130 C   0  0  0  0  0  3  0  0  0  0  0  0
  181.4200  178.2400  141.8850 C   0  0  0  0  0  0  0  0  0  0  0  0
  185.3840  179.2810  142.3040 S   0  0  0  0  0  0  0  0  0  0  0  0
  184.2760  179.4370  144.8090 C   0  0  0  0  0  2  0  0  0  0  0  0
  183.2030  178.2810  140.2260 C   0  0  0  0  0  3  0  0  0  0  0  0
  182.7680  178.5030  141.5390 C   0  0  0  0  0  0  0  0  0  0  0  0
  182.3070  177.8100  139.2630 C   0  0  0  0  0  3  0  0  0  0  0  0
  183.2050  179.1300  143.8300 C   0  0  0  0  0  0  0  0  0  0  0  0
  181.8800  178.8670  144.1840 C   0  0  0  0  0  3  0  0  0  0  0  0
  179.9960  177.0600  138.5820 C   0  0  2  0  0  3  0  0  0  0  0  0
  179.7920  175.6890  138.7300 O   0  0  0  0  0  1  0  0  0  0  0  0
  180.4880  177.3610  137.1780 C   0  0  0  0  0  1  0  0  0  0  0  0
  1  7  1  0  0  0  0
  2 12  1  0  0  0  0
  3  6  2  0  0  0  0
  4  5  1  0  0  0  0
  6  8  1  0  0  0  0
  7  6  1  0  0  0  0
  7  4  2  0  0  0  0
  8  5  2  0  0  0  0
  9  2  1  0  0  0  0
 10 11  2  0  0  0  0
 10  9  1  0  0  0  0
 11 13  1  0  0  0  0
 12  3  1  0  0  0  0
 13 14  1  0  0  0  0
 14 12  2  0  0  0  0
 14  1  1  0  0  0  0
 15 10  1  0  0  0  0
 16 15  2  0  0  0  0
 17 15  2  0  0  0  0
 18  1  1  0  0  0  0
 19 31  1  0  0  0  0
 20 30  1  0  0  0  0
 21 23  2  0  0  0  0
 22 18  1  6  0  0  0
 22 26  1  0  0  0  0
 23 24  1  0  0  0  0
 24 19  2  0  0  0  0
 25 20  1  0  0  0  0
 25 22  1  0  0  0  0
 27 28  1  0  0  0  0
 28 24  1  0  0  0  0
 28 20  2  0  0  0  0
 29 21  1  0  0  0  0
 29 27  2  0  0  0  0
 30 31  2  0  0  0  0
 30 26  1  0  0  0  0
 32 34  1  6  0  0  0
 32 33  1  0  0  0  0
 32 21  1  0  0  0  0
M  END
>  <MODEL>
1

>  <REMARK>
 VINA RESULT:      -9.1      0.000      0.000
  Name = 
  4 active torsions:
  status: ('A' for Active; 'I' for Inactive)
    1  A    between atoms: N_1  and  C_9
    2  A    between atoms: N_3  and  C_25
    3  A    between atoms: C_7  and  C_11
    4  A    between atoms: C_8  and  C_9
                            x       y       z     vdW  Elec       q    Type
                         _______ _______ _______ _____ _____    ______ ____

>  <TORSDO>
F 4

$$$$
=
 OpenBabel11052415513D

 34 39  0  0  1  0  0  0  0  0999 V2000
  184.7500  178.1580  143.1660 N   0  0  0  0  0  0  0  0  0  0  0  0
  185.3750  179.1200  146.6640 C   0  0  0  0  0  2  0  0  0  0  0  0
  183.4250  179.0830  145.4720 N   0  0  0  0  0  0  0  0  0  0  0  0
  182.6050  178.5060  142.0950 N   0  0  0  0  0  0  0  0  0  0  0  0
  181.4190  178.9410  142.6000 C   0  0  0  0  0  3  0  0  0  0  0  0
  182.7740  178.9360  144.3050 C   0  0  0  0  0  0  0  0  0  0  0  0
  183.4410  178.5140  143.1420 C   0  0  0  0  0  0  0  0  0  0  0  0
  181.4780  179.2300  143.9720 C   0  0  0  0  0  3  0  0  0  0  0  0
  186.8500  179.1570  146.8720 C   0  0  0  0  0  2  0  0  0  0  0  0
  187.4700  177.8110  146.7710 C   0  0  0  0  0  0  0  0  0  0  0  0
  187.3860  177.1190  145.6370 C   0  0  0  0  0  3  0  0  0  0  0  0
  184.7500  178.7520  145.5400 C   0  0  0  0  0  0  0  0  0  0  0  0
  186.5610  177.4610  144.4660 C   0  0  0  0  0  2  0  0  0  0  0  0
  185.4070  178.1600  144.3870 C   0  0  0  0  0  0  0  0  0  0  0  0
  188.2920  177.3320  147.8460 N   0  0  0  0  0  0  0  0  0  0  0  0
  188.1810  177.8840  149.1010 O   0  0  0  0  0  0  0  0  0  0  0  0
  189.1120  176.4080  147.6600 O   0  0  0  0  0  0  0  0  0  0  0  0
  185.4090  177.7420  141.9180 C   0  0  0  0  0  2  0  0  0  0  0  0
  187.3750  176.9590  137.0360 C   0  0  0  0  0  3  0  0  0  0  0  0
  187.7890  178.1510  139.5310 C   0  0  0  0  0  0  0  0  0  0  0  0
  190.8070  175.7890  137.7920 C   0  0  0  0  0  0  0  0  0  0  0  0
  186.0050  178.9240  141.1330 C   0  0  1  0  0  3  0  0  0  0  0  0
  189.5980  175.9950  137.1210 C   0  0  0  0  0  3  0  0  0  0  0  0
  188.5940  176.7750  137.7020 C   0  0  0  0  0  0  0  0  0  0  0  0
  187.8370  178.8970  141.1510 S   0  0  0  0  0  0  0  0  0  0  0  0
  185.5250  178.9700  139.6780 C   0  0  0  0  0  2  0  0  0  0  0  0
  190.0170  177.1530  139.6420 C   0  0  0  0  0  3  0  0  0  0  0  0
  188.8060  177.3650  138.9720 C   0  0  0  0  0  0  0  0  0  0  0  0
  191.0130  176.3680  139.0540 C   0  0  0  0  0  3  0  0  0  0  0  0
  186.5780  178.2930  138.8820 C   0  0  0  0  0  0  0  0  0  0  0  0
  186.3550  177.7110  137.6330 C   0  0  0  0  0  3  0  0  0  0  0  0
  191.8660  174.9540  137.1460 C   0  0  2  0  0  3  0  0  0  0  0  0
  191.6070  173.5990  137.3460 O   0  0  0  0  0  1  0  0  0  0  0  0
  193.2370  175.3060  137.6930 C   0  0  0  0  0  1  0  0  0  0  0  0
  1 14  1  0  0  0  0
  2  9  1  0  0  0  0
  3 12  1  0  0  0  0
  4  5  1  0  0  0  0
  4  7  2  0  0  0  0
  5  8  2  0  0  0  0
  6  3  2  0  0  0  0
  7  1  1  0  0  0  0
  7  6  1  0  0  0  0
  8  6  1  0  0  0  0
 10  9  1  0  0  0  0
 10 15  1  0  0  0  0
 11 10  2  0  0  0  0
 12  2  1  0  0  0  0
 13 11  1  0  0  0  0
 14 13  1  0  0  0  0
 14 12  2  0  0  0  0
 15 16  2  0  0  0  0
 17 15  2  0  0  0  0
 18  1  1  0  0  0  0
 19 31  2  0  0  0  0
 19 24  1  0  0  0  0
 20 25  1  0  0  0  0
 21 29  1  0  0  0  0
 22 25  1  0  0  0  0
 22 18  1  6  0  0  0
 23 24  1  0  0  0  0
 23 21  2  0  0  0  0
 24 28  2  0  0  0  0
 26 22  1  0  0  0  0
 28 20  1  0  0  0  0
 28 27  1  0  0  0  0
 29 27  2  0  0  0  0
 30 20  2  0  0  0  0
 30 26  1  0  0  0  0
 31 30  1  0  0  0  0
 32 33  1  0  0  0  0
 32 34  1  1  0  0  0
 32 21  1  0  0  0  0
M  END
>  <MODEL>
2

>  <REMARK>
 VINA RESULT:      -8.7      3.705      7.502
  Name = 
  4 active torsions:
  status: ('A' for Active; 'I' for Inactive)
    1  A    between atoms: N_1  and  C_9
    2  A    between atoms: N_3  and  C_25
    3  A    between atoms: C_7  and  C_11
    4  A    between atoms: C_8  and  C_9
                            x       y       z     vdW  Elec       q    Type
                         _______ _______ _______ _____ _____    ______ ____

>  <TORSDO>
F 4

$$$$
=
 OpenBabel11052415513D

 34 39  0  0  1  0  0  0  0  0999 V2000
  187.1960  177.5840  144.2260 N   0  0  0  0  0  0  0  0  0  0  0  0
  189.0470  178.0780  147.3690 C   0  0  0  0  0  2  0  0  0  0  0  0
  186.8110  178.2570  146.9320 N   0  0  0  0  0  0  0  0  0  0  0  0
  184.8470  178.1360  144.0100 N   0  0  0  0  0  0  0  0  0  0  0  0
  183.9410  178.5450  144.9390 C   0  0  0  0  0  3  0  0  0  0  0  0
  185.7920  178.2800  146.0550 C   0  0  0  0  0  0  0  0  0  0  0  0
  185.9890  177.9840  144.6960 C   0  0  0  0  0  0  0  0  0  0  0  0
  184.4860  178.6570  146.2270 C   0  0  0  0  0  3  0  0  0  0  0  0
  190.5030  178.0380  147.0540 C   0  0  0  0  0  2  0  0  0  0  0  0
  190.9480  176.6950  146.6020 C   0  0  0  0  0  0  0  0  0  0  0  0
  190.4310  176.1540  145.5010 C   0  0  0  0  0  3  0  0  0  0  0  0
  188.0510  177.8760  146.5000 C   0  0  0  0  0  0  0  0  0  0  0  0
  189.2840  176.6680  144.7330 C   0  0  0  0  0  2  0  0  0  0  0  0
  188.2280  177.4100  145.1350 C   0  0  0  0  0  0  0  0  0  0  0  0
  192.0490  176.0570  147.2660 N   0  0  0  0  0  0  0  0  0  0  0  0
  192.5610  176.5930  148.4260 O   0  0  0  0  0  0  0  0  0  0  0  0
  192.5520  175.0090  146.8080 O   0  0  0  0  0  0  0  0  0  0  0  0
  187.3570  177.3050  142.7900 C   0  0  0  0  0  2  0  0  0  0  0  0
  188.8980  176.8350  137.7180 C   0  0  0  0  0  3  0  0  0  0  0  0
  189.3910  178.0680  140.1790 C   0  0  0  0  0  0  0  0  0  0  0  0
  192.5250  176.1830  138.0970 C   0  0  0  0  0  0  0  0  0  0  0  0
  187.6880  178.5650  141.9690 C   0  0  1  0  0  3  0  0  0  0  0  0
  191.2350  176.2100  137.5580 C   0  0  0  0  0  3  0  0  0  0  0  0
  190.1940  176.8310  138.2520 C   0  0  0  0  0  0  0  0  0  0  0  0
  189.4960  178.8080  141.7990 S   0  0  0  0  0  0  0  0  0  0  0  0
  187.0580  178.5430  140.5720 C   0  0  0  0  0  2  0  0  0  0  0  0
  191.7400  177.4100  140.0430 C   0  0  0  0  0  3  0  0  0  0  0  0
  190.4480  177.4430  139.5050 C   0  0  0  0  0  0  0  0  0  0  0  0
  192.7740  176.7820  139.3430 C   0  0  0  0  0  3  0  0  0  0  0  0
  188.1110  178.0320  139.6600 C   0  0  0  0  0  0  0  0  0  0  0  0
  187.8470  177.4270  138.4300 C   0  0  0  0  0  3  0  0  0  0  0  0
  193.6220  175.5160  137.3320 C   0  0  2  0  0  3  0  0  0  0  0  0
  194.7340  175.3160  138.1490 O   0  0  0  0  0  1  0  0  0  0  0  0
  194.0110  176.3400  136.1190 C   0  0  0  0  0  1  0  0  0  0  0  0
  1  7  1  0  0  0  0
  1 14  1  0  0  0  0
  4  7  2  0  0  0  0
  4  5  1  0  0  0  0
  5  8  2  0  0  0  0
  6  8  1  0  0  0  0
  6  3  2  0  0  0  0
  7  6  1  0  0  0  0
  9  2  1  0  0  0  0
 10  9  1  0  0  0  0
 10 15  1  0  0  0  0
 11 10  2  0  0  0  0
 12  3  1  0  0  0  0
 12  2  1  0  0  0  0
 13 14  1  0  0  0  0
 13 11  1  0  0  0  0
 14 12  2  0  0  0  0
 15 16  2  0  0  0  0
 17 15  2  0  0  0  0
 18  1  1  0  0  0  0
 19 24  2  0  0  0  0
 19 31  1  0  0  0  0
 20 25  1  0  0  0  0
 21 29  1  0  0  0  0
 22 18  1  6  0  0  0
 23 21  2  0  0  0  0
 23 24  1  0  0  0  0
 24 28  1  0  0  0  0
 25 22  1  0  0  0  0
 26 22  1  0  0  0  0
 28 27  1  0  0  0  0
 28 20  2  0  0  0  0
 29 27  2  0  0  0  0
 30 20  1  0  0  0  0
 30 26  1  0  0  0  0
 31 30  2  0  0  0  0
 32 34  1  6  0  0  0
 32 21  1  0  0  0  0
 32 33  1  0  0  0  0
M  END
>  <MODEL>
3

>  <REMARK>
 VINA RESULT:      -8.5      4.256      7.450
  Name = 
  4 active torsions:
  status: ('A' for Active; 'I' for Inactive)
    1  A    between atoms: N_1  and  C_9
    2  A    between atoms: N_3  and  C_25
    3  A    between atoms: C_7  and  C_11
    4  A    between atoms: C_8  and  C_9
                            x       y       z     vdW  Elec       q    Type
                         _______ _______ _______ _____ _____    ______ ____

>  <TORSDO>
F 4

$$$$
=
 OpenBabel11052415513D

 34 39  0  0  1  0  0  0  0  0999 V2000
  188.9070  176.9240  143.8120 N   0  0  0  0  0  0  0  0  0  0  0  0
  186.2250  177.8370  146.1620 C   0  0  0  0  0  2  0  0  0  0  0  0
  188.4790  177.6540  146.4980 N   0  0  0  0  0  0  0  0  0  0  0  0
  191.1830  176.5270  144.5400 N   0  0  0  0  0  0  0  0  0  0  0  0
  191.7670  176.6840  145.7600 C   0  0  0  0  0  3  0  0  0  0  0  0
  189.6980  177.2980  146.0570 C   0  0  0  0  0  0  0  0  0  0  0  0
  189.9070  176.8950  144.7270 C   0  0  0  0  0  0  0  0  0  0  0  0
  190.8780  177.1540  146.7380 C   0  0  0  0  0  3  0  0  0  0  0  0
  184.9210  177.6060  145.4820 C   0  0  0  0  0  2  0  0  0  0  0  0
  184.7050  178.5310  144.3400 C   0  0  0  0  0  0  0  0  0  0  0  0
  185.5420  178.5230  143.3050 C   0  0  0  0  0  3  0  0  0  0  0  0
  187.4350  177.6820  145.6150 C   0  0  0  0  0  0  0  0  0  0  0  0
  186.8230  177.8000  143.2240 C   0  0  0  0  0  2  0  0  0  0  0  0
  187.6760  177.4260  144.2040 C   0  0  0  0  0  0  0  0  0  0  0  0
  183.5060  179.3170  144.2870 N   0  0  0  0  0  0  0  0  0  0  0  0
  182.2840  178.7330  144.5310 O   0  0  0  0  0  0  0  0  0  0  0  0
  183.5520  180.5380  144.0270 O   0  0  0  0  0  0  0  0  0  0  0  0
  189.1710  176.4730  142.4360 C   0  0  0  0  0  2  0  0  0  0  0  0
  188.3020  176.1990  137.1940 C   0  0  0  0  0  3  0  0  0  0  0  0
  190.1670  176.7540  139.2020 C   0  0  0  0  0  0  0  0  0  0  0  0
  191.1550  174.1200  136.0720 C   0  0  0  0  0  0  0  0  0  0  0  0
  189.6600  177.6070  141.5190 C   0  0  1  0  0  3  0  0  0  0  0  0
  189.8990  174.7340  136.1070 C   0  0  0  0  0  3  0  0  0  0  0  0
  189.5700  175.6040  137.1500 C   0  0  0  0  0  0  0  0  0  0  0  0
  191.1850  177.1400  140.6160 S   0  0  0  0  0  0  0  0  0  0  0  0
  188.5980  178.0460  140.5030 C   0  0  0  0  0  2  0  0  0  0  0  0
  191.7700  175.2500  138.1340 C   0  0  0  0  0  3  0  0  0  0  0  0
  190.5150  175.8710  138.1710 C   0  0  0  0  0  0  0  0  0  0  0  0
  192.0880  174.3780  137.0890 C   0  0  0  0  0  3  0  0  0  0  0  0
  188.9000  177.3040  139.2540 C   0  0  0  0  0  0  0  0  0  0  0  0
  187.9590  177.0430  138.2580 C   0  0  0  0  0  3  0  0  0  0  0  0
  191.4830  173.1970  134.9430 C   0  0  2  0  0  3  0  0  0  0  0  0
  190.6590  172.0730  134.9770 O   0  0  0  0  0  1  0  0  0  0  0  0
  192.9390  172.7730  134.9990 C   0  0  0  0  0  1  0  0  0  0  0  0
  1 14  1  0  0  0  0
  1  7  1  0  0  0  0
  4  7  2  0  0  0  0
  4  5  1  0  0  0  0
  5  8  2  0  0  0  0
  6  3  2  0  0  0  0
  6  8  1  0  0  0  0
  7  6  1  0  0  0  0
  9  2  1  0  0  0  0
 10  9  1  0  0  0  0
 11 10  2  0  0  0  0
 12  2  1  0  0  0  0
 12  3  1  0  0  0  0
 13 11  1  0  0  0  0
 13 14  1  0  0  0  0
 14 12  2  0  0  0  0
 15 10  1  0  0  0  0
 15 16  2  0  0  0  0
 17 15  2  0  0  0  0
 18  1  1  0  0  0  0
 19 31  1  0  0  0  0
 20 30  1  0  0  0  0
 20 25  1  0  0  0  0
 21 23  2  0  0  0  0
 21 29  1  0  0  0  0
 22 18  1  6  0  0  0
 23 24  1  0  0  0  0
 24 19  2  0  0  0  0
 24 28  1  0  0  0  0
 25 22  1  0  0  0  0
 26 22  1  0  0  0  0
 27 28  1  0  0  0  0
 28 20  2  0  0  0  0
 29 27  2  0  0  0  0
 30 26  1  0  0  0  0
 31 30  2  0  0  0  0
 32 33  1  0  0  0  0
 32 34  1  1  0  0  0
 32 21  1  0  0  0  0
M  END
>  <MODEL>
4

>  <REMARK>
 VINA RESULT:      -8.5      4.111      7.724
  Name = 
  4 active torsions:
  status: ('A' for Active; 'I' for Inactive)
    1  A    between atoms: N_1  and  C_9
    2  A    between atoms: N_3  and  C_25
    3  A    between atoms: C_7  and  C_11
    4  A    between atoms: C_8  and  C_9
                            x       y       z     vdW  Elec       q    Type
                         _______ _______ _______ _____ _____    ______ ____

>  <TORSDO>
F 4

$$$$
=
 OpenBabel11052415513D

 34 39  0  0  1  0  0  0  0  0999 V2000
  190.7060  175.5210  137.5280 N   0  0  0  0  0  0  0  0  0  0  0  0
  193.1140  174.0220  135.1820 C   0  0  0  0  0  2  0  0  0  0  0  0
  191.0360  174.8940  134.8030 N   0  0  0  0  0  0  0  0  0  0  0  0
  188.4470  176.0940  136.8680 N   0  0  0  0  0  0  0  0  0  0  0  0
  187.8420  176.0670  135.6500 C   0  0  0  0  0  3  0  0  0  0  0  0
  189.8780  175.3940  135.2690 C   0  0  0  0  0  0  0  0  0  0  0  0
  189.6960  175.6690  136.6350 C   0  0  0  0  0  0  0  0  0  0  0  0
  188.6920  175.6280  134.6230 C   0  0  0  0  0  3  0  0  0  0  0  0
  194.2240  173.4300  135.9810 C   0  0  0  0  0  2  0  0  0  0  0  0
  195.0280  174.4610  136.6850 C   0  0  0  0  0  0  0  0  0  0  0  0
  194.4560  175.2560  137.5860 C   0  0  0  0  0  3  0  0  0  0  0  0
  192.0770  174.7120  135.6690 C   0  0  0  0  0  0  0  0  0  0  0  0
  193.0130  175.3670  137.8600 C   0  0  0  0  0  2  0  0  0  0  0  0
  191.9520  175.1480  137.0510 C   0  0  0  0  0  0  0  0  0  0  0  0
  196.4510  174.4890  136.5030 N   0  0  0  0  0  0  0  0  0  0  0  0
  197.1490  175.6620  136.6830 O   0  0  0  0  0  0  0  0  0  0  0  0
  197.0760  173.4540  136.1870 O   0  0  0  0  0  0  0  0  0  0  0  0
  190.4600  175.8030  138.9510 C   0  0  0  0  0  2  0  0  0  0  0  0
  190.8500  177.2830  144.0470 C   0  0  0  0  0  3  0  0  0  0  0  0
  189.6690  177.8150  141.5700 C   0  0  0  0  0  0  0  0  0  0  0  0
  187.2870  177.5310  145.0280 C   0  0  0  0  0  0  0  0  0  0  0  0
  190.6430  177.2900  139.3050 C   0  0  1  0  0  3  0  0  0  0  0  0
  188.6740  177.3750  145.1120 C   0  0  0  0  0  3  0  0  0  0  0  0
  189.4630  177.4640  143.9620 C   0  0  0  0  0  0  0  0  0  0  0  0
  189.0810  178.0420  139.9000 S   0  0  0  0  0  0  0  0  0  0  0  0
  191.7340  177.5180  140.3580 C   0  0  0  0  0  2  0  0  0  0  0  0
  187.4670  177.8730  142.6280 C   0  0  0  0  0  3  0  0  0  0  0  0
  188.8570  177.7210  142.7080 C   0  0  0  0  0  0  0  0  0  0  0  0
  186.6860  177.7780  143.7830 C   0  0  0  0  0  3  0  0  0  0  0  0
  191.0300  177.5970  141.6620 C   0  0  0  0  0  0  0  0  0  0  0  0
  191.6380  177.3370  142.8910 C   0  0  0  0  0  3  0  0  0  0  0  0
  186.4660  177.4360  146.2730 C   0  0  2  0  0  3  0  0  0  0  0  0
  185.3140  178.2130  146.1570 O   0  0  0  0  0  1  0  0  0  0  0  0
  187.2690  177.8770  147.4830 C   0  0  0  0  0  1  0  0  0  0  0  0
  1 18  1  0  0  0  0
  2 12  1  0  0  0  0
  2  9  1  0  0  0  0
  3  6  2  0  0  0  0
  3 12  1  0  0  0  0
  5  4  1  0  0  0  0
  6  7  1  0  0  0  0
  7  4  2  0  0  0  0
  7  1  1  0  0  0  0
  8  6  1  0  0  0  0
  8  5  2  0  0  0  0
  9 10  1  0  0  0  0
 10 11  2  0  0  0  0
 11 13  1  0  0  0  0
 12 14  2  0  0  0  0
 14  1  1  0  0  0  0
 14 13  1  0  0  0  0
 15 16  2  0  0  0  0
 15 10  1  0  0  0  0
 17 15  2  0  0  0  0
 20 30  2  0  0  0  0
 20 28  1  0  0  0  0
 21 23  1  0  0  0  0
 21 32  1  0  0  0  0
 22 18  1  1  0  0  0
 22 25  1  0  0  0  0
 22 26  1  0  0  0  0
 24 19  1  0  0  0  0
 24 23  2  0  0  0  0
 25 20  1  0  0  0  0
 26 30  1  0  0  0  0
 27 28  2  0  0  0  0
 27 29  1  0  0  0  0
 28 24  1  0  0  0  0
 29 21  2  0  0  0  0
 30 31  1  0  0  0  0
 31 19  2  0  0  0  0
 32 34  1  1  0  0  0
 33 32  1  0  0  0  0
M  END
>  <MODEL>
5

>  <REMARK>
 VINA RESULT:      -8.4      5.191      8.904
  Name = 
  4 active torsions:
  status: ('A' for Active; 'I' for Inactive)
    1  A    between atoms: N_1  and  C_9
    2  A    between atoms: N_3  and  C_25
    3  A    between atoms: C_7  and  C_11
    4  A    between atoms: C_8  and  C_9
                            x       y       z     vdW  Elec       q    Type
                         _______ _______ _______ _____ _____    ______ ____

>  <TORSDO>
F 4

$$$$
=
 OpenBabel11052415513D

 34 39  0  0  1  0  0  0  0  0999 V2000
  189.8940  175.8550  137.6160 N   0  0  0  0  0  0  0  0  0  0  0  0
  192.0260  175.0010  134.7400 C   0  0  0  0  0  2  0  0  0  0  0  0
  189.7840  175.4360  134.8340 N   0  0  0  0  0  0  0  0  0  0  0  0
  187.4800  175.9720  137.4440 N   0  0  0  0  0  0  0  0  0  0  0  0
  186.6590  175.8740  136.3630 C   0  0  0  0  0  3  0  0  0  0  0  0
  188.6690  175.6600  135.5500 C   0  0  0  0  0  0  0  0  0  0  0  0
  188.7150  175.8290  136.9450 C   0  0  0  0  0  0  0  0  0  0  0  0
  187.3550  175.6700  135.1610 C   0  0  0  0  0  3  0  0  0  0  0  0
  193.3680  174.6190  135.2620 C   0  0  0  0  0  2  0  0  0  0  0  0
  194.0790  175.7630  135.8880 C   0  0  0  0  0  0  0  0  0  0  0  0
  193.5560  176.3780  136.9460 C   0  0  0  0  0  3  0  0  0  0  0  0
  190.9940  175.4360  135.4700 C   0  0  0  0  0  0  0  0  0  0  0  0
  192.2040  176.1720  137.4940 C   0  0  0  0  0  2  0  0  0  0  0  0
  191.0670  175.7730  136.8830 C   0  0  0  0  0  0  0  0  0  0  0  0
  195.4030  176.0960  135.4450 N   0  0  0  0  0  0  0  0  0  0  0  0
  195.7870  177.4130  135.3430 O   0  0  0  0  0  0  0  0  0  0  0  0
  196.2240  175.2000  135.1540 O   0  0  0  0  0  0  0  0  0  0  0  0
  189.8890  176.0140  139.0790 C   0  0  0  0  0  2  0  0  0  0  0  0
  189.6030  177.3210  144.2290 C   0  0  0  0  0  3  0  0  0  0  0  0
  188.9500  178.0680  141.6150 C   0  0  0  0  0  0  0  0  0  0  0  0
  185.9950  178.0630  144.6120 C   0  0  0  0  0  0  0  0  0  0  0  0
  190.2140  177.4520  139.5240 C   0  0  1  0  0  3  0  0  0  0  0  0
  187.3110  177.7060  144.9190 C   0  0  0  0  0  3  0  0  0  0  0  0
  188.2900  177.7020  143.9220 C   0  0  0  0  0  0  0  0  0  0  0  0
  188.6940  178.4110  139.8830 S   0  0  0  0  0  0  0  0  0  0  0  0
  191.1300  177.4980  140.7530 C   0  0  0  0  0  2  0  0  0  0  0  0
  186.6290  178.4230  142.2930 C   0  0  0  0  0  3  0  0  0  0  0  0
  187.9490  178.0700  142.5970 C   0  0  0  0  0  0  0  0  0  0  0  0
  185.6560  178.4200  143.2960 C   0  0  0  0  0  3  0  0  0  0  0  0
  190.2310  177.6530  141.9230 C   0  0  0  0  0  0  0  0  0  0  0  0
  190.5770  177.2820  143.2230 C   0  0  0  0  0  3  0  0  0  0  0  0
  184.9670  178.0640  145.6970 C   0  0  2  0  0  3  0  0  0  0  0  0
  183.9710  179.0010  145.4250 O   0  0  0  0  0  1  0  0  0  0  0  0
  185.6040  178.3610  147.0430 C   0  0  0  0  0  1  0  0  0  0  0  0
  1 18  1  0  0  0  0
  2  9  1  0  0  0  0
  2 12  1  0  0  0  0
  3 12  1  0  0  0  0
  3  6  2  0  0  0  0
  5  4  1  0  0  0  0
  6  7  1  0  0  0  0
  7  4  2  0  0  0  0
  7  1  1  0  0  0  0
  8  6  1  0  0  0  0
  8  5  2  0  0  0  0
  9 10  1  0  0  0  0
 10 11  2  0  0  0  0
 11 13  1  0  0  0  0
 12 14  2  0  0  0  0
 14 13  1  0  0  0  0
 14  1  1  0  0  0  0
 15 10  1  0  0  0  0
 16 15  2  0  0  0  0
 17 15  2  0  0  0  0
 20 30  2  0  0  0  0
 20 28  1  0  0  0  0
 21 23  1  0  0  0  0
 21 32  1  0  0  0  0
 22 18  1  1  0  0  0
 22 25  1  0  0  0  0
 22 26  1  0  0  0  0
 24 19  1  0  0  0  0
 24 23  2  0  0  0  0
 25 20  1  0  0  0  0
 26 30  1  0  0  0  0
 27 28  2  0  0  0  0
 27 29  1  0  0  0  0
 28 24  1  0  0  0  0
 29 21  2  0  0  0  0
 30 31  1  0  0  0  0
 31 19  2  0  0  0  0
 32 34  1  1  0  0  0
 33 32  1  0  0  0  0
M  END
>  <MODEL>
6

>  <REMARK>
 VINA RESULT:      -8.4      4.627      8.263
  Name = 
  4 active torsions:
  status: ('A' for Active; 'I' for Inactive)
    1  A    between atoms: N_1  and  C_9
    2  A    between atoms: N_3  and  C_25
    3  A    between atoms: C_7  and  C_11
    4  A    between atoms: C_8  and  C_9
                            x       y       z     vdW  Elec       q    Type
                         _______ _______ _______ _____ _____    ______ ____

>  <TORSDO>
F 4

$$$$
=
 OpenBabel11052415513D

 34 39  0  0  1  0  0  0  0  0999 V2000
  188.9150  177.4110  142.5920 N   0  0  0  0  0  0  0  0  0  0  0  0
  190.9920  176.9860  145.6010 C   0  0  0  0  0  2  0  0  0  0  0  0
  191.6020  177.3440  143.4280 N   0  0  0  0  0  0  0  0  0  0  0  0
  189.8660  177.4840  140.3660 N   0  0  0  0  0  0  0  0  0  0  0  0
  191.1630  177.5020  139.9530 C   0  0  0  0  0  3  0  0  0  0  0  0
  191.2780  177.4460  142.1270 C   0  0  0  0  0  0  0  0  0  0  0  0
  189.9380  177.4390  141.7030 C   0  0  0  0  0  0  0  0  0  0  0  0
  192.0790  177.4700  141.0150 C   0  0  0  0  0  3  0  0  0  0  0  0
  190.0980  176.5760  146.7210 C   0  0  0  0  0  2  0  0  0  0  0  0
  189.1480  177.6510  147.1090 C   0  0  0  0  0  0  0  0  0  0  0  0
  188.2640  178.1130  146.2280 C   0  0  0  0  0  3  0  0  0  0  0  0
  190.6030  177.2970  144.3600 C   0  0  0  0  0  0  0  0  0  0  0  0
  188.2230  177.8030  144.7880 C   0  0  0  0  0  2  0  0  0  0  0  0
  189.2190  177.4540  143.9430 C   0  0  0  0  0  0  0  0  0  0  0  0
  189.0850  178.0730  148.4790 N   0  0  0  0  0  0  0  0  0  0  0  0
  187.9400  177.8660  149.2140 O   0  0  0  0  0  0  0  0  0  0  0  0
  190.0640  178.6260  149.0240 O   0  0  0  0  0  0  0  0  0  0  0  0
  187.5280  177.3840  142.0980 C   0  0  0  0  0  2  0  0  0  0  0  0
  182.6170  178.9880  143.3690 C   0  0  0  0  0  3  0  0  0  0  0  0
  184.5290  178.7840  141.3400 C   0  0  0  0  0  0  0  0  0  0  0  0
  180.6010  177.4200  140.6860 C   0  0  0  0  0  0  0  0  0  0  0  0
  187.0310  178.7670  141.6390 C   0  0  1  0  0  3  0  0  0  0  0  0
  180.9550  177.9900  141.9120 C   0  0  0  0  0  3  0  0  0  0  0  0
  182.2610  178.4380  142.1300 C   0  0  0  0  0  0  0  0  0  0  0  0
  185.8980  178.6380  140.2050 S   0  0  0  0  0  0  0  0  0  0  0  0
  186.3270  179.5430  142.7580 C   0  0  0  0  0  2  0  0  0  0  0  0
  182.8700  177.7430  139.8770 C   0  0  0  0  0  3  0  0  0  0  0  0
  183.2280  178.3200  141.1020 C   0  0  0  0  0  0  0  0  0  0  0  0
  181.5630  177.2950  139.6700 C   0  0  0  0  0  3  0  0  0  0  0  0
  184.8760  179.2880  142.5780 C   0  0  0  0  0  0  0  0  0  0  0  0
  183.9340  179.4040  143.6010 C   0  0  0  0  0  3  0  0  0  0  0  0
  179.1970  176.9530  140.4770 C   0  0  2  0  0  3  0  0  0  0  0  0
  178.9420  175.8170  141.2440 O   0  0  0  0  0  1  0  0  0  0  0  0
  178.9390  176.6580  139.0110 C   0  0  0  0  0  1  0  0  0  0  0  0
  1 14  1  0  0  0  0
  2  9  1  0  0  0  0
  3 12  1  0  0  0  0
  4  7  2  0  0  0  0
  5  4  1  0  0  0  0
  5  8  2  0  0  0  0
  6  3  2  0  0  0  0
  7  6  1  0  0  0  0
  7  1  1  0  0  0  0
  8  6  1  0  0  0  0
  9 10  1  0  0  0  0
 10 15  1  0  0  0  0
 11 10  2  0  0  0  0
 12  2  1  0  0  0  0
 13 11  1  0  0  0  0
 14 12  2  0  0  0  0
 14 13  1  0  0  0  0
 15 17  2  0  0  0  0
 15 16  2  0  0  0  0
 18  1  1  0  0  0  0
 19 31  1  0  0  0  0
 20 30  1  0  0  0  0
 21 23  2  0  0  0  0
 22 18  1  1  0  0  0
 22 26  1  0  0  0  0
 23 24  1  0  0  0  0
 24 19  2  0  0  0  0
 25 20  1  0  0  0  0
 25 22  1  0  0  0  0
 27 28  1  0  0  0  0
 28 20  2  0  0  0  0
 28 24  1  0  0  0  0
 29 27  2  0  0  0  0
 29 21  1  0  0  0  0
 30 26  1  0  0  0  0
 30 31  2  0  0  0  0
 32 34  1  6  0  0  0
 32 21  1  0  0  0  0
 32 33  1  0  0  0  0
M  END
>  <MODEL>
7

>  <REMARK>
 VINA RESULT:      -8.3      2.777      4.525
  Name = 
  4 active torsions:
  status: ('A' for Active; 'I' for Inactive)
    1  A    between atoms: N_1  and  C_9
    2  A    between atoms: N_3  and  C_25
    3  A    between atoms: C_7  and  C_11
    4  A    between atoms: C_8  and  C_9
                            x       y       z     vdW  Elec       q    Type
                         _______ _______ _______ _____ _____    ______ ____

>  <TORSDO>
F 4

$$$$
=
 OpenBabel11052415513D

 34 39  0  0  1  0  0  0  0  0999 V2000
  187.3080  178.3430  140.6990 N   0  0  0  0  0  0  0  0  0  0  0  0
  188.8850  176.7490  137.7800 C   0  0  0  0  0  2  0  0  0  0  0  0
  186.9270  177.9170  137.9420 N   0  0  0  0  0  0  0  0  0  0  0  0
  185.0700  179.2650  140.6150 N   0  0  0  0  0  0  0  0  0  0  0  0
  184.2110  179.4230  139.5710 C   0  0  0  0  0  3  0  0  0  0  0  0
  185.9890  178.5230  138.6910 C   0  0  0  0  0  0  0  0  0  0  0  0
  186.1590  178.7000  140.0750 C   0  0  0  0  0  0  0  0  0  0  0  0
  184.7380  178.9670  138.3530 C   0  0  0  0  0  3  0  0  0  0  0  0
  190.0440  175.9490  138.2650 C   0  0  0  0  0  2  0  0  0  0  0  0
  191.1280  176.8000  138.8180 C   0  0  0  0  0  0  0  0  0  0  0  0
  190.8960  177.5820  139.8700 C   0  0  0  0  0  3  0  0  0  0  0  0
  188.0970  177.5250  138.5320 C   0  0  0  0  0  0  0  0  0  0  0  0
  189.5820  177.8580  140.4770 C   0  0  0  0  0  2  0  0  0  0  0  0
  188.3480  177.8520  139.9250 C   0  0  0  0  0  0  0  0  0  0  0  0
  192.4640  176.6560  138.3120 N   0  0  0  0  0  0  0  0  0  0  0  0
  193.5430  176.8450  139.1450 O   0  0  0  0  0  0  0  0  0  0  0  0
  192.6660  176.3520  137.1170 O   0  0  0  0  0  0  0  0  0  0  0  0
  187.4300  178.5310  142.1540 C   0  0  0  0  0  2  0  0  0  0  0  0
  188.2740  178.2760  147.4010 C   0  0  0  0  0  3  0  0  0  0  0  0
  188.3330  176.8790  144.9800 C   0  0  0  0  0  0  0  0  0  0  0  0
  191.6720  176.8080  147.5400 C   0  0  0  0  0  0  0  0  0  0  0  0
  186.8980  177.3310  142.9580 C   0  0  1  0  0  3  0  0  0  0  0  0
  190.5220  177.5170  147.9000 C   0  0  0  0  0  3  0  0  0  0  0  0
  189.4160  177.5440  147.0470 C   0  0  0  0  0  0  0  0  0  0  0  0
  188.2310  176.1390  143.3590 S   0  0  0  0  0  0  0  0  0  0  0  0
  186.2020  177.7520  144.2580 C   0  0  0  0  0  2  0  0  0  0  0  0
  190.6120  176.1390  145.4580 C   0  0  0  0  0  3  0  0  0  0  0  0
  189.4570  176.8450  145.8150 C   0  0  0  0  0  0  0  0  0  0  0  0
  191.7150  176.1210  146.3160 C   0  0  0  0  0  3  0  0  0  0  0  0
  187.2280  177.6350  145.3230 C   0  0  0  0  0  0  0  0  0  0  0  0
  187.1790  178.3340  146.5300 C   0  0  0  0  0  3  0  0  0  0  0  0
  192.8400  176.7900  148.4730 C   0  0  2  0  0  3  0  0  0  0  0  0
  193.0770  175.4950  148.9310 O   0  0  0  0  0  1  0  0  0  0  0  0
  192.6050  177.7200  149.6490 C   0  0  0  0  0  1  0  0  0  0  0  0
  1 18  1  0  0  0  0
  2  9  1  0  0  0  0
  2 12  1  0  0  0  0
  3 12  1  0  0  0  0
  3  6  2  0  0  0  0
  5  4  1  0  0  0  0
  6  7  1  0  0  0  0
  7  4  2  0  0  0  0
  7  1  1  0  0  0  0
  8  6  1  0  0  0  0
  8  5  2  0  0  0  0
  9 10  1  0  0  0  0
 10 11  2  0  0  0  0
 11 13  1  0  0  0  0
 12 14  2  0  0  0  0
 14 13  1  0  0  0  0
 14  1  1  0  0  0  0
 15 10  1  0  0  0  0
 15 16  2  0  0  0  0
 17 15  2  0  0  0  0
 20 30  2  0  0  0  0
 20 28  1  0  0  0  0
 21 23  1  0  0  0  0
 21 32  1  0  0  0  0
 22 18  1  1  0  0  0
 22 25  1  0  0  0  0
 22 26  1  0  0  0  0
 24 19  1  0  0  0  0
 24 23  2  0  0  0  0
 25 20  1  0  0  0  0
 26 30  1  0  0  0  0
 27 28  2  0  0  0  0
 27 29  1  0  0  0  0
 28 24  1  0  0  0  0
 29 21  2  0  0  0  0
 30 31  1  0  0  0  0
 31 19  2  0  0  0  0
 32 33  1  0  0  0  0
 32 34  1  1  0  0  0
M  END
>  <MODEL>
8

>  <REMARK>
 VINA RESULT:      -8.2      3.876      8.364
  Name = 
  4 active torsions:
  status: ('A' for Active; 'I' for Inactive)
    1  A    between atoms: N_1  and  C_9
    2  A    between atoms: N_3  and  C_25
    3  A    between atoms: C_7  and  C_11
    4  A    between atoms: C_8  and  C_9
                            x       y       z     vdW  Elec       q    Type
                         _______ _______ _______ _____ _____    ______ ____

>  <TORSDO>
F 4

$$$$
=
 OpenBabel11052415513D

 34 39  0  0  1  0  0  0  0  0999 V2000
  190.2350  175.8150  137.7120 N   0  0  0  0  0  0  0  0  0  0  0  0
  188.3720  176.4060  134.5940 C   0  0  0  0  0  2  0  0  0  0  0  0
  190.4700  175.5590  134.9180 N   0  0  0  0  0  0  0  0  0  0  0  0
  192.5710  175.1740  137.7200 N   0  0  0  0  0  0  0  0  0  0  0  0
  193.4090  174.8550  136.6960 C   0  0  0  0  0  3  0  0  0  0  0  0
  191.5020  175.2820  135.7340 C   0  0  0  0  0  0  0  0  0  0  0  0
  191.4010  175.4480  137.1260 C   0  0  0  0  0  0  0  0  0  0  0  0
  192.7900  174.9180  135.4390 C   0  0  0  0  0  3  0  0  0  0  0  0
  187.1340  177.1610  134.9350 C   0  0  0  0  0  2  0  0  0  0  0  0
  186.1880  176.3580  135.7520 C   0  0  0  0  0  0  0  0  0  0  0  0
  186.5540  175.9060  136.9500 C   0  0  0  0  0  3  0  0  0  0  0  0
  189.2780  175.9490  135.4640 C   0  0  0  0  0  0  0  0  0  0  0  0
  187.9110  175.9530  137.5220 C   0  0  0  0  0  2  0  0  0  0  0  0
  189.1160  175.9630  136.9090 C   0  0  0  0  0  0  0  0  0  0  0  0
  184.8300  176.2080  135.3130 N   0  0  0  0  0  0  0  0  0  0  0  0
  184.1460  175.0410  135.5650 O   0  0  0  0  0  0  0  0  0  0  0  0
  184.2500  177.1320  134.7040 O   0  0  0  0  0  0  0  0  0  0  0  0
  190.1850  175.9940  139.1720 C   0  0  0  0  0  2  0  0  0  0  0  0
  190.9490  177.0930  144.3220 C   0  0  0  0  0  3  0  0  0  0  0  0
  189.6950  177.8830  141.9520 C   0  0  0  0  0  0  0  0  0  0  0  0
  187.4720  177.5590  145.5110 C   0  0  0  0  0  0  0  0  0  0  0  0
  190.5080  177.4340  139.6090 C   0  0  1  0  0  3  0  0  0  0  0  0
  188.8430  177.2870  145.5080 C   0  0  0  0  0  3  0  0  0  0  0  0
  189.5800  177.3890  144.3250 C   0  0  0  0  0  0  0  0  0  0  0  0
  189.0460  178.2680  140.3350 S   0  0  0  0  0  0  0  0  0  0  0  0
  191.6650  177.5030  140.6120 C   0  0  0  0  0  2  0  0  0  0  0  0
  187.5610  178.0450  143.1310 C   0  0  0  0  0  3  0  0  0  0  0  0
  188.9350  177.7780  143.1250 C   0  0  0  0  0  0  0  0  0  0  0  0
  186.8320  177.9360  144.3190 C   0  0  0  0  0  3  0  0  0  0  0  0
  191.0360  177.5510  141.9550 C   0  0  0  0  0  0  0  0  0  0  0  0
  191.6810  177.1600  143.1300 C   0  0  0  0  0  3  0  0  0  0  0  0
  186.7090  177.4460  146.7910 C   0  0  2  0  0  3  0  0  0  0  0  0
  185.5470  178.2150  146.7340 O   0  0  0  0  0  1  0  0  0  0  0  0
  187.5620  177.8830  147.9680 C   0  0  0  0  0  1  0  0  0  0  0  0
  1 18  1  0  0  0  0
  2  9  1  0  0  0  0
  2 12  1  0  0  0  0
  3 12  1  0  0  0  0
  3  6  2  0  0  0  0
  5  4  1  0  0  0  0
  6  7  1  0  0  0  0
  7  1  1  0  0  0  0
  7  4  2  0  0  0  0
  8  6  1  0  0  0  0
  8  5  2  0  0  0  0
  9 10  1  0  0  0  0
 10 11  2  0  0  0  0
 11 13  1  0  0  0  0
 12 14  2  0  0  0  0
 14 13  1  0  0  0  0
 14  1  1  0  0  0  0
 15 16  2  0  0  0  0
 15 10  1  0  0  0  0
 17 15  2  0  0  0  0
 19 24  1  0  0  0  0
 20 30  2  0  0  0  0
 20 28  1  0  0  0  0
 21 32  1  0  0  0  0
 22 18  1  1  0  0  0
 22 25  1  0  0  0  0
 22 26  1  0  0  0  0
 23 21  1  0  0  0  0
 24 23  2  0  0  0  0
 25 20  1  0  0  0  0
 26 30  1  0  0  0  0
 27 29  1  0  0  0  0
 28 27  2  0  0  0  0
 28 24  1  0  0  0  0
 29 21  2  0  0  0  0
 30 31  1  0  0  0  0
 31 19  2  0  0  0  0
 32 34  1  1  0  0  0
 33 32  1  0  0  0  0
M  END
>  <MODEL>
9

>  <REMARK>
 VINA RESULT:      -8.1      4.994      9.027
  Name = 
  4 active torsions:
  status: ('A' for Active; 'I' for Inactive)
    1  A    between atoms: N_1  and  C_9
    2  A    between atoms: N_3  and  C_25
    3  A    between atoms: C_7  and  C_11
    4  A    between atoms: C_8  and  C_9
                            x       y       z     vdW  Elec       q    Type
                         _______ _______ _______ _____ _____    ______ ____

>  <TORSDO>
F 4

$$$$
