=
 OpenBabel11052415373D

 34 39  0  0  1  0  0  0  0  0999 V2000
  186.0520  177.9880  144.8750 C   0  0  0  0  0  0  0  0  0  0  0  0
  188.1720  177.7260  146.0570 C   0  0  0  0  0  0  0  0  0  0  0  0
  186.1910  178.4500  147.3310 C   0  0  0  0  0  3  0  0  0  0  0  0
  184.8200  178.8520  141.7720 C   0  0  0  0  0  0  0  0  0  0  0  0
  185.8190  178.3320  142.4240 N   0  0  0  0  0  0  0  0  0  0  0  0
  184.0600  178.8440  143.8390 C   0  0  0  0  0  0  0  0  0  0  0  0
  183.4660  179.1730  145.0900 N   0  0  0  0  0  0  0  0  0  0  0  0
  183.6850  179.2430  142.6370 C   0  0  0  0  0  3  0  0  0  0  0  0
  185.2990  178.0290  146.2020 C   0  0  1  0  0  3  0  0  0  0  0  0
  185.3700  178.2920  143.7670 C   0  0  0  0  0  0  0  0  0  0  0  0
  184.0570  178.8320  146.1730 N   0  0  0  0  0  0  0  0  0  0  0  0
  189.6130  177.3100  146.1910 C   0  0  0  0  0  2  0  0  0  0  0  0
  190.3260  177.1900  144.8470 C   0  0  2  0  0  3  0  0  0  0  0  0
  189.4630  176.3790  143.8870 C   0  0  0  0  0  2  0  0  0  0  0  0
  187.5130  178.2640  147.2680 C   0  0  0  0  0  3  0  0  0  0  0  0
  188.1690  177.1370  143.6270 C   0  0  0  0  0  2  0  0  0  0  0  0
  187.4820  177.5820  144.8980 C   0  0  0  0  0  0  0  0  0  0  0  0
  191.7130  176.5780  145.0380 C   0  0  2  0  0  3  0  0  0  0  0  0
  191.8850  175.3480  144.1670 C   0  0  0  0  0  1  0  0  0  0  0  0
  191.9390  176.2470  146.3770 O   0  0  0  0  0  1  0  0  0  0  0  0
  184.8850  179.1380  140.3110 C   0  0  0  0  0  2  0  0  0  0  0  0
  187.0930  177.2720  137.9130 N   0  0  0  0  0  0  0  0  0  0  0  0
  187.2970  178.4670  140.4060 C   0  0  0  0  0  3  0  0  0  0  0  0
  190.6140  176.5620  138.6700 C   0  0  0  0  0  0  0  0  0  0  0  0
  189.3870  176.6020  137.9930 C   0  0  0  0  0  3  0  0  0  0  0  0
  188.2840  177.2360  138.5700 C   0  0  0  0  0  0  0  0  0  0  0  0
  189.6260  177.8000  140.5180 C   0  0  0  0  0  3  0  0  0  0  0  0
  188.4060  177.8380  139.8400 C   0  0  0  0  0  0  0  0  0  0  0  0
  190.7260  177.1640  139.9330 C   0  0  0  0  0  3  0  0  0  0  0  0
  186.0870  178.4950  139.7070 C   0  0  0  0  0  0  0  0  0  0  0  0
  186.0030  177.8810  138.4530 C   0  0  0  0  0  3  0  0  0  0  0  0
  191.7720  175.8930  138.0570 C   0  0  0  0  0  0  0  0  0  0  0  0
  192.7840  176.5580  137.7090 O   0  0  0  0  0  0  0  0  0  0  0  0
  191.7610  174.5170  137.8550 O   0  0  0  0  0  1  0  0  0  0  0  0
  1 17  1  0  0  0  0
  1  9  1  0  0  0  0
  2 12  1  0  0  0  0
  2 15  1  0  0  0  0
  4  5  2  0  0  0  0
  4  8  1  0  0  0  0
  5 10  1  0  0  0  0
  6  7  1  0  0  0  0
  7 11  2  0  0  0  0
  8  6  2  0  0  0  0
  9  3  1  1  0  0  0
 10  6  1  0  0  0  0
 10  1  2  0  0  0  0
 11  9  1  0  0  0  0
 13 18  1  1  0  0  0
 13 12  1  0  0  0  0
 14 13  1  0  0  0  0
 15  3  2  0  0  0  0
 16 14  1  0  0  0  0
 16 17  1  0  0  0  0
 17  2  2  0  0  0  0
 18 19  1  6  0  0  0
 18 20  1  0  0  0  0
 21  4  1  0  0  0  0
 22 31  2  0  0  0  0
 22 26  1  0  0  0  0
 24 29  1  0  0  0  0
 25 26  1  0  0  0  0
 25 24  2  0  0  0  0
 26 28  2  0  0  0  0
 28 23  1  0  0  0  0
 28 27  1  0  0  0  0
 29 27  2  0  0  0  0
 30 21  1  0  0  0  0
 30 23  2  0  0  0  0
 31 30  1  0  0  0  0
 32 24  1  0  0  0  0
 33 32  2  0  0  0  0
 34 32  1  0  0  0  0
M  END
>  <MODEL>
1

>  <REMARK>
 VINA RESULT:     -11.5      0.000      0.000
  Name = 
  4 active torsions:
  status: ('A' for Active; 'I' for Inactive)
    1  A    between atoms: C_3  and  C_25
    2  A    between atoms: C_7  and  C_11
    3  A    between atoms: C_8  and  C_18
    4  A    between atoms: C_18  and  C_30
                            x       y       z     vdW  Elec       q    Type
                         _______ _______ _______ _____ _____    ______ ____

>  <TORSDO>
F 4

$$$$
=
 OpenBabel11052415373D

 34 39  0  0  1  0  0  0  0  0999 V2000
  186.0940  177.8910  144.8670 C   0  0  0  0  0  0  0  0  0  0  0  0
  188.4570  177.7110  145.4530 C   0  0  0  0  0  0  0  0  0  0  0  0
  186.8440  178.3010  147.2190 C   0  0  0  0  0  3  0  0  0  0  0  0
  184.0650  178.7630  142.2190 C   0  0  0  0  0  0  0  0  0  0  0  0
  185.2210  178.2810  142.5720 N   0  0  0  0  0  0  0  0  0  0  0  0
  183.8670  178.6670  144.4090 C   0  0  0  0  0  0  0  0  0  0  0  0
  183.6030  178.9340  145.7820 N   0  0  0  0  0  0  0  0  0  0  0  0
  183.1760  179.0740  143.3600 C   0  0  0  0  0  3  0  0  0  0  0  0
  185.7100  177.8610  146.3430 C   0  0  1  0  0  3  0  0  0  0  0  0
  185.1360  178.1850  143.9830 C   0  0  0  0  0  0  0  0  0  0  0  0
  184.4690  178.5990  146.6630 N   0  0  0  0  0  0  0  0  0  0  0  0
  189.9010  177.3660  145.1960 C   0  0  0  0  0  2  0  0  0  0  0  0
  190.2460  177.3150  143.7110 C   0  0  2  0  0  3  0  0  0  0  0  0
  189.2010  176.4850  142.9760 C   0  0  0  0  0  2  0  0  0  0  0  0
  188.1110  178.1850  146.8110 C   0  0  0  0  0  3  0  0  0  0  0  0
  187.8520  177.1810  143.0860 C   0  0  0  0  0  2  0  0  0  0  0  0
  187.4980  177.5590  144.5060 C   0  0  0  0  0  0  0  0  0  0  0  0
  191.6610  176.7720  143.5160 C   0  0  2  0  0  3  0  0  0  0  0  0
  192.1250  176.9740  142.0860 C   0  0  0  0  0  1  0  0  0  0  0  0
  191.7320  175.4170  143.8510 O   0  0  0  0  0  1  0  0  0  0  0  0
  183.7370  179.0870  140.8010 C   0  0  0  0  0  2  0  0  0  0  0  0
  185.5450  177.6630  137.8330 N   0  0  0  0  0  0  0  0  0  0  0  0
  186.1690  178.7430  140.3090 C   0  0  0  0  0  3  0  0  0  0  0  0
  189.2050  177.3960  137.7360 C   0  0  0  0  0  0  0  0  0  0  0  0
  187.8600  177.3050  137.3520 C   0  0  0  0  0  3  0  0  0  0  0  0
  186.8510  177.7530  138.2060 C   0  0  0  0  0  0  0  0  0  0  0  0
  188.5250  178.3900  139.8510 C   0  0  0  0  0  3  0  0  0  0  0  0
  187.1870  178.2990  139.4630 C   0  0  0  0  0  0  0  0  0  0  0  0
  189.5300  177.9400  138.9890 C   0  0  0  0  0  3  0  0  0  0  0  0
  184.8370  178.6440  139.8980 C   0  0  0  0  0  0  0  0  0  0  0  0
  184.5430  178.0910  138.6470 C   0  0  0  0  0  3  0  0  0  0  0  0
  190.2640  176.9210  136.8320 C   0  0  0  0  0  0  0  0  0  0  0  0
  190.0300  176.7580  135.6050 O   0  0  0  0  0  0  0  0  0  0  0  0
  191.5350  176.6470  137.3240 O   0  0  0  0  0  1  0  0  0  0  0  0
  1  9  1  0  0  0  0
  2 15  1  0  0  0  0
  4  5  2  0  0  0  0
  4  8  1  0  0  0  0
  5 10  1  0  0  0  0
  6  7  1  0  0  0  0
  7 11  2  0  0  0  0
  8  6  2  0  0  0  0
  9 11  1  0  0  0  0
  9  3  1  1  0  0  0
 10  6  1  0  0  0  0
 10  1  2  0  0  0  0
 12  2  1  0  0  0  0
 13 18  1  1  0  0  0
 13 12  1  0  0  0  0
 14 16  1  0  0  0  0
 14 13  1  0  0  0  0
 15  3  2  0  0  0  0
 16 17  1  0  0  0  0
 17  1  1  0  0  0  0
 17  2  2  0  0  0  0
 18 19  1  6  0  0  0
 18 20  1  0  0  0  0
 21  4  1  0  0  0  0
 22 26  2  0  0  0  0
 22 31  1  0  0  0  0
 24 29  1  0  0  0  0
 25 24  2  0  0  0  0
 25 26  1  0  0  0  0
 26 28  1  0  0  0  0
 28 27  1  0  0  0  0
 28 23  2  0  0  0  0
 29 27  2  0  0  0  0
 30 23  1  0  0  0  0
 30 21  1  0  0  0  0
 31 30  2  0  0  0  0
 32 34  1  0  0  0  0
 32 24  1  0  0  0  0
 33 32  2  0  0  0  0
M  END
>  <MODEL>
2

>  <REMARK>
 VINA RESULT:     -11.0      1.255      1.462
  Name = 
  4 active torsions:
  status: ('A' for Active; 'I' for Inactive)
    1  A    between atoms: C_3  and  C_25
    2  A    between atoms: C_7  and  C_11
    3  A    between atoms: C_8  and  C_18
    4  A    between atoms: C_18  and  C_30
                            x       y       z     vdW  Elec       q    Type
                         _______ _______ _______ _____ _____    ______ ____

>  <TORSDO>
F 4

$$$$
=
 OpenBabel11052415373D

 34 39  0  0  1  0  0  0  0  0999 V2000
  188.8810  177.2990  145.3110 C   0  0  0  0  0  0  0  0  0  0  0  0
  190.5800  177.2720  143.5580 C   0  0  0  0  0  0  0  0  0  0  0  0
  191.3020  177.0930  145.9070 C   0  0  0  0  0  3  0  0  0  0  0  0
  185.7750  178.6350  145.9900 C   0  0  0  0  0  0  0  0  0  0  0  0
  186.5880  178.2290  145.0600 N   0  0  0  0  0  0  0  0  0  0  0  0
  187.4700  177.8710  147.1700 C   0  0  0  0  0  0  0  0  0  0  0  0
  188.5180  177.6840  148.1140 N   0  0  0  0  0  0  0  0  0  0  0  0
  186.3100  178.4740  147.3600 C   0  0  0  0  0  3  0  0  0  0  0  0
  189.8960  176.7840  146.3260 C   0  0  1  0  0  3  0  0  0  0  0  0
  187.6970  177.7100  145.7750 C   0  0  0  0  0  0  0  0  0  0  0  0
  189.6440  177.2220  147.7160 N   0  0  0  0  0  0  0  0  0  0  0  0
  191.0650  177.2140  142.1340 C   0  0  0  0  0  2  0  0  0  0  0  0
  190.0050  177.6500  141.1260 C   0  0  2  0  0  3  0  0  0  0  0  0
  188.6920  176.9420  141.4330 C   0  0  0  0  0  2  0  0  0  0  0  0
  191.6110  177.2730  144.6200 C   0  0  0  0  0  3  0  0  0  0  0  0
  188.1990  177.3870  142.8030 C   0  0  0  0  0  2  0  0  0  0  0  0
  189.2600  177.2790  143.8740 C   0  0  0  0  0  0  0  0  0  0  0  0
  190.4890  177.3820  139.7020 C   0  0  2  0  0  3  0  0  0  0  0  0
  189.5250  177.9620  138.6850 C   0  0  0  0  0  1  0  0  0  0  0  0
  190.6550  176.0140  139.4730 O   0  0  0  0  0  1  0  0  0  0  0  0
  184.4860  179.3160  145.6790 C   0  0  0  0  0  2  0  0  0  0  0  0
  182.4270  178.4710  142.6530 N   0  0  0  0  0  0  0  0  0  0  0  0
  185.0500  179.1470  143.2440 C   0  0  0  0  0  3  0  0  0  0  0  0
  183.8850  178.3580  139.2860 C   0  0  0  0  0  0  0  0  0  0  0  0
  182.9490  178.2830  140.3270 C   0  0  0  0  0  3  0  0  0  0  0  0
  183.3360  178.5460  141.6430 C   0  0  0  0  0  0  0  0  0  0  0  0
  185.6110  178.9630  140.8920 C   0  0  0  0  0  3  0  0  0  0  0  0
  184.6760  178.8880  141.9250 C   0  0  0  0  0  0  0  0  0  0  0  0
  185.2150  178.6990  139.5770 C   0  0  0  0  0  3  0  0  0  0  0  0
  184.0950  179.0700  144.2620 C   0  0  0  0  0  0  0  0  0  0  0  0
  182.7790  178.7210  143.9440 C   0  0  0  0  0  3  0  0  0  0  0  0
  183.4720  178.0790  137.9020 C   0  0  0  0  0  0  0  0  0  0  0  0
  182.3580  178.4840  137.4740 O   0  0  0  0  0  1  0  0  0  0  0  0
  184.3070  177.3640  137.0510 O   0  0  0  0  0  0  0  0  0  0  0  0
  1 10  2  0  0  0  0
  1  9  1  0  0  0  0
  2 17  2  0  0  0  0
  2 15  1  0  0  0  0
  4  8  1  0  0  0  0
  5 10  1  0  0  0  0
  5  4  2  0  0  0  0
  6  8  2  0  0  0  0
  6  7  1  0  0  0  0
  9  3  1  6  0  0  0
  9 11  1  0  0  0  0
 10  6  1  0  0  0  0
 11  7  2  0  0  0  0
 12  2  1  0  0  0  0
 13 18  1  6  0  0  0
 13 14  1  0  0  0  0
 13 12  1  0  0  0  0
 14 16  1  0  0  0  0
 15  3  2  0  0  0  0
 16 17  1  0  0  0  0
 17  1  1  0  0  0  0
 18 19  1  6  0  0  0
 20 18  1  0  0  0  0
 21  4  1  0  0  0  0
 22 31  1  0  0  0  0
 23 30  1  0  0  0  0
 24 29  1  0  0  0  0
 24 25  2  0  0  0  0
 25 26  1  0  0  0  0
 26 28  1  0  0  0  0
 26 22  2  0  0  0  0
 27 28  1  0  0  0  0
 28 23  2  0  0  0  0
 29 27  2  0  0  0  0
 30 21  1  0  0  0  0
 31 30  2  0  0  0  0
 32 24  1  0  0  0  0
 33 32  1  0  0  0  0
 34 32  2  0  0  0  0
M  END
>  <MODEL>
3

>  <REMARK>
 VINA RESULT:     -10.9      2.930      5.524
  Name = 
  4 active torsions:
  status: ('A' for Active; 'I' for Inactive)
    1  A    between atoms: C_3  and  C_25
    2  A    between atoms: C_7  and  C_11
    3  A    between atoms: C_8  and  C_18
    4  A    between atoms: C_18  and  C_30
                            x       y       z     vdW  Elec       q    Type
                         _______ _______ _______ _____ _____    ______ ____

>  <TORSDO>
F 4

$$$$
=
 OpenBabel11052415373D

 34 39  0  0  1  0  0  0  0  0999 V2000
  184.9290  178.8800  140.5000 C   0  0  0  0  0  0  0  0  0  0  0  0
  186.8450  178.0570  139.2300 C   0  0  0  0  0  0  0  0  0  0  0  0
  184.6680  178.2500  138.0920 C   0  0  0  0  0  3  0  0  0  0  0  0
  183.6610  178.8840  143.7070 C   0  0  0  0  0  0  0  0  0  0  0  0
  184.7380  178.8400  142.9780 N   0  0  0  0  0  2  0  0  0  0  0  0
  182.8460  179.1090  141.6740 C   0  0  0  0  0  0  0  0  0  0  0  0
  182.0800  179.0130  140.4780 N   0  0  0  0  0  0  0  0  0  0  0  0
  182.4150  179.0060  142.9180 C   0  0  0  0  0  3  0  0  0  0  0  0
  184.1500  179.1070  139.2080 C   0  0  0  0  0  0  0  0  0  0  0  0
  184.2640  178.9970  141.6520 C   0  0  0  0  0  0  0  0  0  0  0  0
  182.6840  178.9710  139.3500 N   0  0  0  0  0  0  0  0  0  0  0  0
  188.3040  177.7510  139.0120 C   0  0  0  0  0  2  0  0  0  0  0  0
  189.0850  177.6140  140.3160 C   0  0  2  0  0  3  0  0  0  0  0  0
  188.7590  178.7910  141.2270 C   0  0  0  0  0  2  0  0  0  0  0  0
  185.9300  177.8080  138.0950 C   0  0  0  0  0  3  0  0  0  0  0  0
  187.2840  178.7350  141.5960 C   0  0  0  0  0  2  0  0  0  0  0  0
  186.3810  178.5770  140.3940 C   0  0  0  0  0  0  0  0  0  0  0  0
  190.5810  177.5030  140.0250 C   0  0  2  0  0  3  0  0  0  0  0  0
  190.8580  176.3870  139.0360 C   0  0  0  0  0  1  0  0  0  0  0  0
  191.3090  177.2900  141.1980 O   0  0  0  0  0  1  0  0  0  0  0  0
  183.6910  178.6940  145.1850 C   0  0  0  0  0  2  0  0  0  0  0  0
  186.7280  178.3530  147.3680 N   0  0  0  0  0  0  0  0  0  0  0  0
  186.0020  177.8340  144.7440 C   0  0  0  0  0  3  0  0  0  0  0  0
  189.8980  177.0180  146.0860 C   0  0  0  0  0  0  0  0  0  0  0  0
  188.9460  177.5570  146.9630 C   0  0  0  0  0  3  0  0  0  0  0  0
  187.6510  177.8280  146.5170 C   0  0  0  0  0  0  0  0  0  0  0  0
  188.2440  177.0220  144.3010 C   0  0  0  0  0  3  0  0  0  0  0  0
  187.2990  177.5580  145.1770 C   0  0  0  0  0  0  0  0  0  0  0  0
  189.5390  176.7530  144.7550 C   0  0  0  0  0  3  0  0  0  0  0  0
  185.0720  178.3670  145.6400 C   0  0  0  0  0  0  0  0  0  0  0  0
  185.4600  178.6280  146.9590 C   0  0  0  0  0  3  0  0  0  0  0  0
  191.2610  176.7350  146.5620 C   0  0  0  0  0  0  0  0  0  0  0  0
  192.0560  176.0570  145.8580 O   0  0  0  0  0  0  0  0  0  0  0  0
  191.6870  177.2150  147.7950 O   0  0  0  0  0  1  0  0  0  0  0  0
  1 10  1  0  0  0  0
  2 17  1  0  0  0  0
  3 15  1  0  0  0  0
  3  9  2  0  0  0  0
  4 21  1  0  0  0  0
  5  4  1  0  0  0  0
  6  8  1  0  0  0  0
  7  6  1  0  0  0  0
  8  4  2  0  0  0  0
  9 11  1  0  0  0  0
  9  1  1  0  0  0  0
 10  6  2  0  0  0  0
 10  5  1  0  0  0  0
 11  7  2  0  0  0  0
 12  2  1  0  0  0  0
 12 13  1  0  0  0  0
 13 18  1  6  0  0  0
 13 14  1  0  0  0  0
 14 16  1  0  0  0  0
 15  2  2  0  0  0  0
 17  1  2  0  0  0  0
 17 16  1  0  0  0  0
 18 19  1  6  0  0  0
 18 20  1  0  0  0  0
 21 30  1  0  0  0  0
 23 28  2  0  0  0  0
 23 30  1  0  0  0  0
 24 32  1  0  0  0  0
 24 25  2  0  0  0  0
 26 25  1  0  0  0  0
 26 22  2  0  0  0  0
 27 29  2  0  0  0  0
 27 28  1  0  0  0  0
 28 26  1  0  0  0  0
 29 24  1  0  0  0  0
 30 31  2  0  0  0  0
 31 22  1  0  0  0  0
 32 34  1  0  0  0  0
 33 32  2  0  0  0  0
M  END
>  <MODEL>
4

>  <REMARK>
 VINA RESULT:     -10.8      1.740      6.318
  Name = 
  4 active torsions:
  status: ('A' for Active; 'I' for Inactive)
    1  A    between atoms: C_3  and  C_25
    2  A    between atoms: C_7  and  C_11
    3  A    between atoms: C_8  and  C_18
    4  A    between atoms: C_18  and  C_30
                            x       y       z     vdW  Elec       q    Type
                         _______ _______ _______ _____ _____    ______ ____

>  <TORSDO>
F 4

$$$$
=
 OpenBabel11052415373D

 34 39  0  0  1  0  0  0  0  0999 V2000
  186.1460  178.0070  144.9680 C   0  0  0  0  0  0  0  0  0  0  0  0
  187.9930  177.9160  146.5630 C   0  0  0  0  0  0  0  0  0  0  0  0
  185.7740  178.6300  147.3630 C   0  0  0  0  0  3  0  0  0  0  0  0
  185.5380  178.6140  141.6290 C   0  0  0  0  0  0  0  0  0  0  0  0
  186.4010  178.1830  142.5010 N   0  0  0  0  0  0  0  0  0  0  0  0
  184.3780  178.7050  143.4980 C   0  0  0  0  0  0  0  0  0  0  0  0
  183.5340  179.0860  144.5800 N   0  0  0  0  0  0  0  0  0  0  0  0
  184.2400  179.0090  142.2210 C   0  0  0  0  0  3  0  0  0  0  0  0
  185.1410  178.0980  146.1120 C   0  0  1  0  0  3  0  0  0  0  0  0
  185.6920  178.2080  143.7280 C   0  0  0  0  0  0  0  0  0  0  0  0
  183.9070  178.8420  145.7800 N   0  0  0  0  0  0  0  0  0  0  0  0
  189.3890  177.5740  147.0100 C   0  0  0  0  0  2  0  0  0  0  0  0
  190.3610  177.4010  145.8460 C   0  0  2  0  0  3  0  0  0  0  0  0
  189.7350  176.4930  144.7950 C   0  0  0  0  0  2  0  0  0  0  0  0
  187.0870  178.5000  147.5770 C   0  0  0  0  0  3  0  0  0  0  0  0
  188.4970  177.1740  144.2290 C   0  0  0  0  0  2  0  0  0  0  0  0
  187.5540  177.6670  145.3030 C   0  0  0  0  0  0  0  0  0  0  0  0
  191.7000  176.8650  146.3520 C   0  0  2  0  0  3  0  0  0  0  0  0
  191.9280  175.4430  145.8740 C   0  0  0  0  0  1  0  0  0  0  0  0
  191.7690  176.9140  147.7470 O   0  0  0  0  0  1  0  0  0  0  0  0
  185.8870  178.8100  140.1930 C   0  0  0  0  0  2  0  0  0  0  0  0
  189.4880  177.8510  140.6600 N   0  0  0  0  0  0  0  0  0  0  0  0
  187.5930  177.8380  138.6370 C   0  0  0  0  0  3  0  0  0  0  0  0
  191.5010  176.4770  137.9160 C   0  0  0  0  0  0  0  0  0  0  0  0
  191.1380  176.9450  139.1870 C   0  0  0  0  0  3  0  0  0  0  0  0
  189.8390  177.3960  139.4270 C   0  0  0  0  0  0  0  0  0  0  0  0
  189.2450  176.9190  137.1170 C   0  0  0  0  0  3  0  0  0  0  0  0
  188.8870  177.3830  138.3850 C   0  0  0  0  0  0  0  0  0  0  0  0
  190.5480  176.4680  136.8850 C   0  0  0  0  0  3  0  0  0  0  0  0
  187.2570  178.2940  139.9150 C   0  0  0  0  0  0  0  0  0  0  0  0
  188.2290  178.2990  140.9200 C   0  0  0  0  0  3  0  0  0  0  0  0
  192.8720  176.0030  137.6690 C   0  0  0  0  0  0  0  0  0  0  0  0
  193.1590  174.7830  137.7960 O   0  0  0  0  0  1  0  0  0  0  0  0
  193.8660  176.8990  137.2920 O   0  0  0  0  0  0  0  0  0  0  0  0
  1 17  1  0  0  0  0
  1  9  1  0  0  0  0
  2 12  1  0  0  0  0
  2 15  1  0  0  0  0
  3 15  2  0  0  0  0
  4  8  1  0  0  0  0
  4  5  2  0  0  0  0
  5 10  1  0  0  0  0
  6 10  1  0  0  0  0
  6  7  1  0  0  0  0
  7 11  2  0  0  0  0
  8  6  2  0  0  0  0
  9  3  1  1  0  0  0
 10  1  2  0  0  0  0
 11  9  1  0  0  0  0
 13 18  1  1  0  0  0
 13 12  1  0  0  0  0
 14 13  1  0  0  0  0
 16 14  1  0  0  0  0
 16 17  1  0  0  0  0
 17  2  2  0  0  0  0
 18 19  1  1  0  0  0
 18 20  1  0  0  0  0
 21  4  1  0  0  0  0
 22 31  1  0  0  0  0
 23 30  1  0  0  0  0
 24 25  2  0  0  0  0
 25 26  1  0  0  0  0
 26 22  2  0  0  0  0
 27 28  1  0  0  0  0
 28 23  2  0  0  0  0
 28 26  1  0  0  0  0
 29 27  2  0  0  0  0
 29 24  1  0  0  0  0
 30 21  1  0  0  0  0
 30 31  2  0  0  0  0
 32 33  1  0  0  0  0
 32 24  1  0  0  0  0
 34 32  2  0  0  0  0
M  END
>  <MODEL>
5

>  <REMARK>
 VINA RESULT:     -10.7      1.096      1.661
  Name = 
  4 active torsions:
  status: ('A' for Active; 'I' for Inactive)
    1  A    between atoms: C_3  and  C_25
    2  A    between atoms: C_7  and  C_11
    3  A    between atoms: C_8  and  C_18
    4  A    between atoms: C_18  and  C_30
                            x       y       z     vdW  Elec       q    Type
                         _______ _______ _______ _____ _____    ______ ____

>  <TORSDO>
F 4

$$$$
=
 OpenBabel11052415373D

 34 39  0  0  1  0  0  0  0  0999 V2000
  185.9840  177.9540  144.8150 C   0  0  0  0  0  0  0  0  0  0  0  0
  188.1770  177.7440  145.8670 C   0  0  0  0  0  0  0  0  0  0  0  0
  186.2670  178.4610  147.2490 C   0  0  0  0  0  3  0  0  0  0  0  0
  184.5510  178.7440  141.7800 C   0  0  0  0  0  0  0  0  0  0  0  0
  185.5960  178.2510  142.3770 N   0  0  0  0  0  0  0  0  0  0  0  0
  183.9190  178.7620  143.8890 C   0  0  0  0  0  0  0  0  0  0  0  0
  183.3980  179.1040  145.1690 N   0  0  0  0  0  0  0  0  0  0  0  0
  183.4650  179.1340  142.7060 C   0  0  0  0  0  3  0  0  0  0  0  0
  185.3140  178.0070  146.1840 C   0  0  1  0  0  3  0  0  0  0  0  0
  185.2310  178.2280  143.7460 C   0  0  0  0  0  0  0  0  0  0  0  0
  184.0610  178.7920  146.2190 N   0  0  0  0  0  0  0  0  0  0  0  0
  189.6300  177.3510  145.9200 C   0  0  0  0  0  2  0  0  0  0  0  0
  190.2600  177.2170  144.5360 C   0  0  2  0  0  3  0  0  0  0  0  0
  189.3530  176.3780  143.6450 C   0  0  0  0  0  2  0  0  0  0  0  0
  187.5850  178.2940  147.1080 C   0  0  0  0  0  3  0  0  0  0  0  0
  188.0340  177.1120  143.4530 C   0  0  0  0  0  2  0  0  0  0  0  0
  187.4190  177.5690  144.7560 C   0  0  0  0  0  0  0  0  0  0  0  0
  191.6660  176.6290  144.6510 C   0  0  2  0  0  3  0  0  0  0  0  0
  191.7430  175.2770  143.9680 C   0  0  0  0  0  1  0  0  0  0  0  0
  192.0560  176.5090  145.9880 O   0  0  0  0  0  1  0  0  0  0  0  0
  184.5210  179.0060  140.3120 C   0  0  0  0  0  2  0  0  0  0  0  0
  183.7880  176.3730  137.7350 N   0  0  0  0  0  0  0  0  0  0  0  0
  182.6760  177.3270  140.0890 C   0  0  0  0  0  3  0  0  0  0  0  0
  180.8350  174.2050  137.9650 C   0  0  0  0  0  0  0  0  0  0  0  0
  182.0230  174.7790  137.4910 C   0  0  0  0  0  3  0  0  0  0  0  0
  182.6360  175.8160  138.1970 C   0  0  0  0  0  0  0  0  0  0  0  0
  180.8710  175.7220  139.8680 C   0  0  0  0  0  3  0  0  0  0  0  0
  182.0550  176.2890  139.3930 C   0  0  0  0  0  0  0  0  0  0  0  0
  180.2640  174.6820  139.1550 C   0  0  0  0  0  3  0  0  0  0  0  0
  183.8620  177.8780  139.5960 C   0  0  0  0  0  0  0  0  0  0  0  0
  184.4030  177.3870  138.4030 C   0  0  0  0  0  3  0  0  0  0  0  0
  180.1940  173.1120  137.2160 C   0  0  0  0  0  0  0  0  0  0  0  0
  179.4260  173.3640  136.2500 O   0  0  0  0  0  0  0  0  0  0  0  0
  180.4300  171.7880  137.5690 O   0  0  0  0  0  1  0  0  0  0  0  0
  1  9  1  0  0  0  0
  2 12  1  0  0  0  0
  2 15  1  0  0  0  0
  4  5  2  0  0  0  0
  4  8  1  0  0  0  0
  5 10  1  0  0  0  0
  6  7  1  0  0  0  0
  7 11  2  0  0  0  0
  8  6  2  0  0  0  0
  9 11  1  0  0  0  0
  9  3  1  1  0  0  0
 10  6  1  0  0  0  0
 10  1  2  0  0  0  0
 13 18  1  1  0  0  0
 13 12  1  0  0  0  0
 14 13  1  0  0  0  0
 15  3  2  0  0  0  0
 16 14  1  0  0  0  0
 16 17  1  0  0  0  0
 17  1  1  0  0  0  0
 17  2  2  0  0  0  0
 18 19  1  1  0  0  0
 18 20  1  0  0  0  0
 21  4  1  0  0  0  0
 22 26  2  0  0  0  0
 22 31  1  0  0  0  0
 24 29  1  0  0  0  0
 25 24  2  0  0  0  0
 25 26  1  0  0  0  0
 26 28  1  0  0  0  0
 28 27  1  0  0  0  0
 28 23  2  0  0  0  0
 29 27  2  0  0  0  0
 30 23  1  0  0  0  0
 30 21  1  0  0  0  0
 31 30  2  0  0  0  0
 32 34  1  0  0  0  0
 32 24  1  0  0  0  0
 33 32  2  0  0  0  0
M  END
>  <MODEL>
6

>  <REMARK>
 VINA RESULT:     -10.6      4.012      5.278
  Name = 
  4 active torsions:
  status: ('A' for Active; 'I' for Inactive)
    1  A    between atoms: C_3  and  C_25
    2  A    between atoms: C_7  and  C_11
    3  A    between atoms: C_8  and  C_18
    4  A    between atoms: C_18  and  C_30
                            x       y       z     vdW  Elec       q    Type
                         _______ _______ _______ _____ _____    ______ ____

>  <TORSDO>
F 4

$$$$
=
 OpenBabel11052415373D

 34 39  0  0  1  0  0  0  0  0999 V2000
  186.4370  178.1890  139.1520 C   0  0  0  0  0  0  0  0  0  0  0  0
  188.7160  177.3240  139.2730 C   0  0  0  0  0  0  0  0  0  0  0  0
  187.4750  177.0910  137.1570 C   0  0  0  0  0  3  0  0  0  0  0  0
  183.6650  178.6830  141.1430 C   0  0  0  0  0  0  0  0  0  0  0  0
  184.9630  178.6030  141.1110 N   0  0  0  0  0  2  0  0  0  0  0  0
  184.0530  178.4400  138.9890 C   0  0  0  0  0  0  0  0  0  0  0  0
  184.0340  178.0460  137.6210 N   0  0  0  0  0  0  0  0  0  0  0  0
  183.0270  178.5350  139.8160 C   0  0  0  0  0  3  0  0  0  0  0  0
  186.4640  178.0920  137.6290 C   0  0  0  0  0  0  0  0  0  0  0  0
  185.2650  178.4600  139.7340 C   0  0  0  0  0  0  0  0  0  0  0  0
  185.1420  177.8480  137.0120 N   0  0  0  0  0  0  0  0  0  0  0  0
  190.0630  177.1210  139.9160 C   0  0  0  0  0  2  0  0  0  0  0  0
  190.0340  177.3090  141.4310 C   0  0  2  0  0  3  0  0  0  0  0  0
  189.3000  178.6010  141.7670 C   0  0  0  0  0  2  0  0  0  0  0  0
  188.5350  176.7790  137.9090 C   0  0  0  0  0  3  0  0  0  0  0  0
  187.8510  178.4780  141.3150 C   0  0  0  0  0  2  0  0  0  0  0  0
  187.7180  178.0100  139.8840 C   0  0  0  0  0  0  0  0  0  0  0  0
  191.4540  177.2860  141.9930 C   0  0  2  0  0  3  0  0  0  0  0  0
  191.5630  178.1680  143.2230 C   0  0  0  0  0  1  0  0  0  0  0  0
  192.3840  177.6930  141.0330 O   0  0  0  0  0  1  0  0  0  0  0  0
  182.9040  178.7810  142.4210 C   0  0  0  0  0  2  0  0  0  0  0  0
  184.3200  179.0990  145.8860 N   0  0  0  0  0  0  0  0  0  0  0  0
  185.0700  178.0380  143.4370 C   0  0  0  0  0  3  0  0  0  0  0  0
  187.6420  177.7990  146.7500 C   0  0  0  0  0  0  0  0  0  0  0  0
  186.3900  178.4180  146.8700 C   0  0  0  0  0  3  0  0  0  0  0  0
  185.5340  178.4970  145.7690 C   0  0  0  0  0  0  0  0  0  0  0  0
  187.1800  177.3350  144.4060 C   0  0  0  0  0  3  0  0  0  0  0  0
  185.9330  177.9510  144.5300 C   0  0  0  0  0  0  0  0  0  0  0  0
  188.0310  177.2600  145.5140 C   0  0  0  0  0  3  0  0  0  0  0  0
  183.8260  178.6560  143.5860 C   0  0  0  0  0  0  0  0  0  0  0  0
  183.4680  179.1910  144.8280 C   0  0  0  0  0  3  0  0  0  0  0  0
  188.5390  177.7200  147.9140 C   0  0  0  0  0  0  0  0  0  0  0  0
  188.1370  178.0670  149.0560 O   0  0  0  0  0  1  0  0  0  0  0  0
  189.8430  177.2610  147.7640 O   0  0  0  0  0  0  0  0  0  0  0  0
  1 10  1  0  0  0  0
  1 17  2  0  0  0  0
  2 17  1  0  0  0  0
  2 12  1  0  0  0  0
  3  9  2  0  0  0  0
  3 15  1  0  0  0  0
  4 21  1  0  0  0  0
  5  4  1  0  0  0  0
  6 10  2  0  0  0  0
  6  8  1  0  0  0  0
  7  6  1  0  0  0  0
  8  4  2  0  0  0  0
  9  1  1  0  0  0  0
 10  5  1  0  0  0  0
 11  7  2  0  0  0  0
 11  9  1  0  0  0  0
 12 13  1  0  0  0  0
 13 14  1  0  0  0  0
 13 18  1  6  0  0  0
 15  2  2  0  0  0  0
 16 14  1  0  0  0  0
 17 16  1  0  0  0  0
 18 19  1  1  0  0  0
 20 18  1  0  0  0  0
 21 30  1  0  0  0  0
 23 30  2  0  0  0  0
 23 28  1  0  0  0  0
 24 25  1  0  0  0  0
 24 32  1  0  0  0  0
 26 22  1  0  0  0  0
 26 25  2  0  0  0  0
 27 28  2  0  0  0  0
 27 29  1  0  0  0  0
 28 26  1  0  0  0  0
 29 24  2  0  0  0  0
 30 31  1  0  0  0  0
 31 22  2  0  0  0  0
 32 33  1  0  0  0  0
 34 32  2  0  0  0  0
M  END
>  <MODEL>
7

>  <REMARK>
 VINA RESULT:     -10.6      1.723      6.745
  Name = 
  4 active torsions:
  status: ('A' for Active; 'I' for Inactive)
    1  A    between atoms: C_3  and  C_25
    2  A    between atoms: C_7  and  C_11
    3  A    between atoms: C_8  and  C_18
    4  A    between atoms: C_18  and  C_30
                            x       y       z     vdW  Elec       q    Type
                         _______ _______ _______ _____ _____    ______ ____

>  <TORSDO>
F 4

$$$$
=
 OpenBabel11052415373D

 34 39  0  0  1  0  0  0  0  0999 V2000
  186.0280  177.7930  144.8560 C   0  0  0  0  0  0  0  0  0  0  0  0
  188.4090  177.4950  145.3080 C   0  0  0  0  0  0  0  0  0  0  0  0
  186.9400  178.2270  147.1460 C   0  0  0  0  0  3  0  0  0  0  0  0
  183.8940  178.7020  142.3040 C   0  0  0  0  0  0  0  0  0  0  0  0
  185.0400  178.1650  142.6050 N   0  0  0  0  0  0  0  0  0  0  0  0
  183.8230  178.6810  144.5050 C   0  0  0  0  0  0  0  0  0  0  0  0
  183.6570  179.0030  145.8820 N   0  0  0  0  0  0  0  0  0  0  0  0
  183.0940  179.0970  143.4850 C   0  0  0  0  0  3  0  0  0  0  0  0
  185.7320  177.8280  146.3520 C   0  0  1  0  0  3  0  0  0  0  0  0
  185.0360  178.1160  144.0210 C   0  0  0  0  0  0  0  0  0  0  0  0
  184.5550  178.6450  146.7210 N   0  0  0  0  0  0  0  0  0  0  0  0
  189.8130  177.0620  144.9790 C   0  0  0  0  0  2  0  0  0  0  0  0
  190.0640  176.9480  143.4770 C   0  0  2  0  0  3  0  0  0  0  0  0
  188.9330  176.1580  142.8330 C   0  0  0  0  0  2  0  0  0  0  0  0
  188.1720  178.0280  146.6680 C   0  0  0  0  0  3  0  0  0  0  0  0
  187.6330  176.9320  142.9990 C   0  0  0  0  0  2  0  0  0  0  0  0
  187.3870  177.3710  144.4240 C   0  0  0  0  0  0  0  0  0  0  0  0
  191.4320  176.3190  143.2180 C   0  0  2  0  0  3  0  0  0  0  0  0
  192.0430  175.8030  144.5070 C   0  0  0  0  0  1  0  0  0  0  0  0
  192.3010  177.2310  142.6120 O   0  0  0  0  0  1  0  0  0  0  0  0
  183.4990  179.0040  140.8990 C   0  0  0  0  0  2  0  0  0  0  0  0
  186.9290  178.6280  139.4140 N   0  0  0  0  0  0  0  0  0  0  0  0
  184.3080  178.0360  138.7340 C   0  0  0  0  0  3  0  0  0  0  0  0
  187.4580  177.1190  136.1100 C   0  0  0  0  0  0  0  0  0  0  0  0
  187.7200  177.7300  137.3450 C   0  0  0  0  0  3  0  0  0  0  0  0
  186.6730  178.0340  138.2170 C   0  0  0  0  0  0  0  0  0  0  0  0
  185.0790  177.1190  136.6250 C   0  0  0  0  0  3  0  0  0  0  0  0
  185.3450  177.7260  137.8540 C   0  0  0  0  0  0  0  0  0  0  0  0
  186.1330  176.8170  135.7570 C   0  0  0  0  0  3  0  0  0  0  0  0
  184.5990  178.6400  139.9600 C   0  0  0  0  0  0  0  0  0  0  0  0
  185.9270  178.9370  140.2820 C   0  0  0  0  0  3  0  0  0  0  0  0
  188.5650  176.8020  135.1950 C   0  0  0  0  0  0  0  0  0  0  0  0
  189.3320  177.7110  134.7790 O   0  0  0  0  0  1  0  0  0  0  0  0
  188.7760  175.4920  134.7780 O   0  0  0  0  0  0  0  0  0  0  0  0
  1  9  1  0  0  0  0
  2 15  1  0  0  0  0
  4  5  2  0  0  0  0
  4  8  1  0  0  0  0
  5 10  1  0  0  0  0
  6  7  1  0  0  0  0
  7 11  2  0  0  0  0
  8  6  2  0  0  0  0
  9 11  1  0  0  0  0
  9  3  1  1  0  0  0
 10  6  1  0  0  0  0
 10  1  2  0  0  0  0
 12  2  1  0  0  0  0
 13 18  1  1  0  0  0
 13 12  1  0  0  0  0
 14 16  1  0  0  0  0
 14 13  1  0  0  0  0
 15  3  2  0  0  0  0
 16 17  1  0  0  0  0
 17  1  1  0  0  0  0
 17  2  2  0  0  0  0
 18 19  1  1  0  0  0
 20 18  1  0  0  0  0
 21  4  1  0  0  0  0
 22 31  1  0  0  0  0
 23 30  1  0  0  0  0
 24 25  2  0  0  0  0
 25 26  1  0  0  0  0
 26 22  2  0  0  0  0
 27 28  1  0  0  0  0
 28 26  1  0  0  0  0
 28 23  2  0  0  0  0
 29 24  1  0  0  0  0
 29 27  2  0  0  0  0
 30 31  2  0  0  0  0
 30 21  1  0  0  0  0
 32 24  1  0  0  0  0
 33 32  1  0  0  0  0
 34 32  2  0  0  0  0
M  END
>  <MODEL>
8

>  <REMARK>
 VINA RESULT:     -10.3      2.019      2.606
  Name = 
  4 active torsions:
  status: ('A' for Active; 'I' for Inactive)
    1  A    between atoms: C_3  and  C_25
    2  A    between atoms: C_7  and  C_11
    3  A    between atoms: C_8  and  C_18
    4  A    between atoms: C_18  and  C_30
                            x       y       z     vdW  Elec       q    Type
                         _______ _______ _______ _____ _____    ______ ____

>  <TORSDO>
F 4

$$$$
=
 OpenBabel11052415373D

 34 39  0  0  1  0  0  0  0  0999 V2000
  188.5470  178.0600  141.7800 C   0  0  0  0  0  0  0  0  0  0  0  0
  187.1890  177.7760  143.7880 C   0  0  0  0  0  0  0  0  0  0  0  0
  189.5520  177.0800  143.8520 C   0  0  0  0  0  3  0  0  0  0  0  0
  188.2590  178.0430  138.3440 C   0  0  0  0  0  0  0  0  0  0  0  0
  187.6510  178.2730  139.4710 N   0  0  0  0  0  0  0  0  0  0  0  0
  189.8740  177.7220  139.8060 C   0  0  0  0  0  0  0  0  0  0  0  0
  190.9810  177.2240  140.5490 N   0  0  0  0  0  0  0  0  0  0  0  0
  189.6730  177.6390  138.5030 C   0  0  0  0  0  3  0  0  0  0  0  0
  189.8210  177.8460  142.5920 C   0  0  1  0  0  3  0  0  0  0  0  0
  188.6600  178.0920  140.4490 C   0  0  0  0  0  0  0  0  0  0  0  0
  190.9360  177.2450  141.8280 N   0  0  0  0  0  0  0  0  0  0  0  0
  185.9550  177.9530  144.6340 C   0  0  0  0  0  2  0  0  0  0  0  0
  184.7060  178.2530  143.8090 C   0  0  2  0  0  3  0  0  0  0  0  0
  185.0160  179.3570  142.8050 C   0  0  0  0  0  2  0  0  0  0  0  0
  188.3410  177.0910  144.4170 C   0  0  0  0  0  3  0  0  0  0  0  0
  186.0710  178.8550  141.8300 C   0  0  0  0  0  2  0  0  0  0  0  0
  187.2730  178.2530  142.5210 C   0  0  0  0  0  0  0  0  0  0  0  0
  183.5410  178.6150  144.7280 C   0  0  2  0  0  3  0  0  0  0  0  0
  182.4690  179.3730  143.9680 C   0  0  0  0  0  1  0  0  0  0  0  0
  183.9750  179.3720  145.8190 O   0  0  0  0  0  1  0  0  0  0  0  0
  187.5450  178.0630  137.0350 C   0  0  0  0  0  2  0  0  0  0  0  0
  184.2650  176.2370  136.9040 N   0  0  0  0  0  0  0  0  0  0  0  0
  186.9680  175.6260  136.9790 C   0  0  0  0  0  3  0  0  0  0  0  0
  184.0870  172.5710  136.8760 C   0  0  0  0  0  0  0  0  0  0  0  0
  183.6920  173.9160  136.8720 C   0  0  0  0  0  3  0  0  0  0  0  0
  184.6500  174.9320  136.9060 C   0  0  0  0  0  0  0  0  0  0  0  0
  186.4190  173.2640  136.9490 C   0  0  0  0  0  3  0  0  0  0  0  0
  186.0210  174.6020  136.9450 C   0  0  0  0  0  0  0  0  0  0  0  0
  185.4530  172.2530  136.9150 C   0  0  0  0  0  3  0  0  0  0  0  0
  186.5470  176.9590  136.9700 C   0  0  0  0  0  0  0  0  0  0  0  0
  185.1780  177.2460  136.9380 C   0  0  0  0  0  3  0  0  0  0  0  0
  183.0730  171.5050  136.8410 C   0  0  0  0  0  0  0  0  0  0  0  0
  183.3820  170.3420  136.4680 O   0  0  0  0  0  0  0  0  0  0  0  0
  181.7620  171.7720  137.2190 O   0  0  0  0  0  1  0  0  0  0  0  0
  1 17  1  0  0  0  0
  1  9  1  0  0  0  0
  2 15  1  0  0  0  0
  2 12  1  0  0  0  0
  3 15  2  0  0  0  0
  4  8  1  0  0  0  0
  4  5  2  0  0  0  0
  5 10  1  0  0  0  0
  6 10  1  0  0  0  0
  6  7  1  0  0  0  0
  7 11  2  0  0  0  0
  8  6  2  0  0  0  0
  9  3  1  1  0  0  0
 10  1  2  0  0  0  0
 11  9  1  0  0  0  0
 13 12  1  0  0  0  0
 13 18  1  1  0  0  0
 14 13  1  0  0  0  0
 16 17  1  0  0  0  0
 16 14  1  0  0  0  0
 17  2  2  0  0  0  0
 18 19  1  6  0  0  0
 18 20  1  0  0  0  0
 21  4  1  0  0  0  0
 22 26  2  0  0  0  0
 22 31  1  0  0  0  0
 24 29  1  0  0  0  0
 25 24  2  0  0  0  0
 25 26  1  0  0  0  0
 26 28  1  0  0  0  0
 28 27  1  0  0  0  0
 28 23  2  0  0  0  0
 29 27  2  0  0  0  0
 30 23  1  0  0  0  0
 30 21  1  0  0  0  0
 31 30  2  0  0  0  0
 32 24  1  0  0  0  0
 32 34  1  0  0  0  0
 33 32  2  0  0  0  0
M  END
>  <MODEL>
9

>  <REMARK>
 VINA RESULT:     -10.2      4.080      6.417
  Name = 
  4 active torsions:
  status: ('A' for Active; 'I' for Inactive)
    1  A    between atoms: C_3  and  C_25
    2  A    between atoms: C_7  and  C_11
    3  A    between atoms: C_8  and  C_18
    4  A    between atoms: C_18  and  C_30
                            x       y       z     vdW  Elec       q    Type
                         _______ _______ _______ _____ _____    ______ ____

>  <TORSDO>
F 4

$$$$
