=
 OpenBabel11052416543D

 32 36  0  0  1  0  0  0  0  0999 V2000
  186.5890  177.7630  143.1490 C   0  0  0  0  0  0  0  0  0  0  0  0
  190.6080  177.2490  140.4270 C   0  0  0  0  0  3  0  0  0  0  0  0
  189.7640  177.3530  139.1890 C   0  0  0  0  0  2  0  0  0  0  0  0
  184.4090  178.6210  142.1330 C   0  0  0  0  0  0  0  0  0  0  0  0
  183.5920  178.8930  140.9090 C   0  0  1  0  0  3  0  0  0  0  0  0
  190.0540  177.3490  141.6370 C   0  0  0  0  0  3  0  0  0  0  0  0
  187.9670  177.4830  143.0270 C   0  0  0  0  0  0  0  0  0  0  0  0
  187.8880  178.1080  140.6730 C   0  0  0  0  0  0  0  0  0  0  0  0
  186.5200  178.4090  140.7850 C   0  0  0  0  0  0  0  0  0  0  0  0
  188.6340  178.3650  139.3830 C   0  0  0  0  0  2  0  0  0  0  0  0
  188.6120  177.6540  141.7910 C   0  0  0  0  0  0  0  0  0  0  0  0
  185.7840  178.8450  139.5370 C   0  0  0  0  0  2  0  0  0  0  0  0
  183.8400  178.7330  143.2500 O   0  0  0  0  0  0  0  0  0  0  0  0
  184.0290  180.3550  139.1180 O   0  0  0  0  0  0  0  0  0  0  0  0
  185.8550  178.2430  142.0300 C   0  0  0  0  0  0  0  0  0  0  0  0
  184.4480  179.4510  139.8220 C   0  0  0  0  0  0  0  0  0  0  0  0
  181.6770  177.4780  140.8010 O   0  0  0  0  0  1  0  0  0  0  0  0
  183.5090  176.7270  139.6470 O   0  0  0  0  0  0  0  0  0  0  0  0
  182.8730  177.6620  140.4550 C   0  0  0  0  0  0  0  0  0  0  0  0
  188.7420  176.9710  144.2090 C   0  0  0  0  0  2  0  0  0  0  0  0
  189.4010  178.1230  144.9440 C   0  0  0  0  0  2  0  0  0  0  0  0
  190.8990  178.0730  144.7200 C   0  0  0  0  0  2  0  0  0  0  0  0
  191.5110  176.8910  145.4580 C   0  0  0  0  0  2  0  0  0  0  0  0
  190.9650  176.7730  146.8750 C   0  0  0  0  0  2  0  0  0  0  0  0
  192.7460  175.9740  148.2270 C   0  0  0  0  0  0  0  0  0  0  0  0
  193.3660  176.5540  149.1550 O   0  0  0  0  0  0  0  0  0  0  0  0
  192.7240  175.1700  146.9250 N   0  0  0  0  0  2  0  0  0  0  0  0
  191.5750  175.5830  147.5970 C   0  0  2  0  0  3  0  0  0  0  0  0
  185.9160  177.4960  144.4670 C   0  0  0  0  0  2  0  0  0  0  0  0
  186.0300  178.7100  145.3690 C   0  0  0  0  0  3  0  0  0  0  0  0
  184.9470  178.6350  146.4260 C   0  0  0  0  0  2  0  0  0  0  0  0
  186.3670  178.2510  146.7740 C   0  0  0  0  0  2  0  0  0  0  0  0
  1 29  1  0  0  0  0
  2  6  2  0  0  0  0
  3 10  1  0  0  0  0
  3  2  1  0  0  0  0
  4 13  2  0  0  0  0
  5 19  1  6  0  0  0
  5  4  1  0  0  0  0
  6 11  1  0  0  0  0
  7  1  1  0  0  0  0
  7 20  1  0  0  0  0
  8  9  2  0  0  0  0
  8 11  1  0  0  0  0
  9 15  1  0  0  0  0
 10  8  1  0  0  0  0
 11  7  2  0  0  0  0
 12 16  1  0  0  0  0
 12  9  1  0  0  0  0
 14 16  2  0  0  0  0
 15  4  1  0  0  0  0
 15  1  2  0  0  0  0
 16  5  1  0  0  0  0
 18 19  2  0  0  0  0
 19 17  1  0  0  0  0
 20 21  1  0  0  0  0
 22 21  1  0  0  0  0
 22 23  1  0  0  0  0
 23 24  1  0  0  0  0
 25 26  2  0  0  0  0
 27 28  1  0  0  0  0
 27 25  1  0  0  0  0
 28 24  1  6  0  0  0
 28 25  1  0  0  0  0
 29 30  1  0  0  0  0
 30 31  1  0  0  0  0
 30 32  1  0  0  0  0
 31 32  1  0  0  0  0
M  END
>  <MODEL>
1

>  <REMARK>
 VINA RESULT:      -8.6      0.000      0.000
  Name = 
  9 active torsions:
  status: ('A' for Active; 'I' for Inactive)
    1  A    between atoms: C_2  and  C_10
    2  A    between atoms: C_2  and  C_12
    3  A    between atoms: C_3  and  C_28
    4  A    between atoms: C_7  and  C_22
    5  A    between atoms: C_8  and  C_28
    6  A    between atoms: C_9  and  C_14
    7  A    between atoms: C_9  and  C_21
    8  A    between atoms: C_10  and  CA_24
    9  A    between atoms: C_12  and  C_21
                            x       y       z     vdW  Elec       q    Type
                         _______ _______ _______ _____ _____    ______ ____

>  <TORSDO>
F 9

$$$$
=
 OpenBabel11052416543D

 32 36  0  0  1  0  0  0  0  0999 V2000
  188.1790  178.4320  142.3160 C   0  0  0  0  0  0  0  0  0  0  0  0
  184.4380  178.5190  145.4500 C   0  0  0  0  0  3  0  0  0  0  0  0
  185.2220  177.6450  146.3870 C   0  0  0  0  0  2  0  0  0  0  0  0
  190.4980  177.6530  143.0520 C   0  0  0  0  0  0  0  0  0  0  0  0
  191.3420  176.9270  144.0510 C   0  0  1  0  0  3  0  0  0  0  0  0
  184.9690  178.9230  144.2940 C   0  0  0  0  0  3  0  0  0  0  0  0
  186.8450  178.7640  142.6330 C   0  0  0  0  0  0  0  0  0  0  0  0
  187.2240  178.0990  144.9460 C   0  0  0  0  0  0  0  0  0  0  0  0
  188.5610  177.7820  144.6490 C   0  0  0  0  0  0  0  0  0  0  0  0
  186.7060  178.0150  146.3640 C   0  0  0  0  0  2  0  0  0  0  0  0
  186.3710  178.5960  143.9440 C   0  0  0  0  0  0  0  0  0  0  0  0
  189.4170  177.2050  145.7550 C   0  0  0  0  0  2  0  0  0  0  0  0
  191.0470  178.0160  141.9780 O   0  0  0  0  0  0  0  0  0  0  0  0
  191.6910  177.3930  146.3300 O   0  0  0  0  0  0  0  0  0  0  0  0
  189.0550  177.9500  143.3280 C   0  0  0  0  0  0  0  0  0  0  0  0
  190.8770  177.2170  145.4390 C   0  0  0  0  0  0  0  0  0  0  0  0
  192.2550  174.7370  144.2840 O   0  0  0  0  0  1  0  0  0  0  0  0
  190.3710  174.8730  142.9860 O   0  0  0  0  0  0  0  0  0  0  0  0
  191.3540  175.4550  143.7800 C   0  0  0  0  0  0  0  0  0  0  0  0
  185.9170  179.2690  141.5630 C   0  0  0  0  0  2  0  0  0  0  0  0
  184.9430  178.1790  141.1540 C   0  0  0  0  0  2  0  0  0  0  0  0
  183.6890  178.8130  140.5870 C   0  0  0  0  0  2  0  0  0  0  0  0
  182.4820  177.9160  140.8260 C   0  0  0  0  0  2  0  0  0  0  0  0
  181.2680  178.7200  141.2720 C   0  0  0  0  0  2  0  0  0  0  0  0
  180.3230  178.6920  143.4510 C   0  0  0  0  0  0  0  0  0  0  0  0
  179.6920  177.7750  144.0360 O   0  0  0  0  0  0  0  0  0  0  0  0
  180.4650  180.1480  143.0000 N   0  0  0  0  0  2  0  0  0  0  0  0
  181.4060  179.1570  142.7210 C   0  0  2  0  0  3  0  0  0  0  0  0
  188.6290  178.5530  140.8870 C   0  0  0  0  0  2  0  0  0  0  0  0
  188.3860  177.2490  140.1490 C   0  0  0  0  0  3  0  0  0  0  0  0
  188.0260  177.5630  138.7110 C   0  0  0  0  0  2  0  0  0  0  0  0
  189.4230  177.1010  139.0550 C   0  0  0  0  0  2  0  0  0  0  0  0
  1  7  2  0  0  0  0
  1 15  1  0  0  0  0
  2  3  1  0  0  0  0
  4 15  1  0  0  0  0
  4  5  1  0  0  0  0
  5 19  1  6  0  0  0
  5 16  1  0  0  0  0
  6  2  2  0  0  0  0
  7 11  1  0  0  0  0
  8 10  1  0  0  0  0
  9  8  1  0  0  0  0
  9 12  1  0  0  0  0
 10  3  1  0  0  0  0
 11  6  1  0  0  0  0
 11  8  2  0  0  0  0
 13  4  2  0  0  0  0
 15  9  2  0  0  0  0
 16 12  1  0  0  0  0
 16 14  2  0  0  0  0
 18 19  2  0  0  0  0
 19 17  1  0  0  0  0
 20  7  1  0  0  0  0
 21 20  1  0  0  0  0
 22 23  1  0  0  0  0
 22 21  1  0  0  0  0
 23 24  1  0  0  0  0
 25 26  2  0  0  0  0
 27 25  1  0  0  0  0
 28 24  1  6  0  0  0
 28 27  1  0  0  0  0
 28 25  1  0  0  0  0
 29  1  1  0  0  0  0
 30 29  1  0  0  0  0
 31 32  1  0  0  0  0
 31 30  1  0  0  0  0
 32 30  1  0  0  0  0
M  END
>  <MODEL>
2

>  <REMARK>
 VINA RESULT:      -8.2      3.574      8.434
  Name = 
  9 active torsions:
  status: ('A' for Active; 'I' for Inactive)
    1  A    between atoms: C_2  and  C_10
    2  A    between atoms: C_2  and  C_12
    3  A    between atoms: C_3  and  C_28
    4  A    between atoms: C_7  and  C_22
    5  A    between atoms: C_8  and  C_28
    6  A    between atoms: C_9  and  C_14
    7  A    between atoms: C_9  and  C_21
    8  A    between atoms: C_10  and  CA_24
    9  A    between atoms: C_12  and  C_21
                            x       y       z     vdW  Elec       q    Type
                         _______ _______ _______ _____ _____    ______ ____

>  <TORSDO>
F 9

$$$$
=
 OpenBabel11052416543D

 32 36  0  0  1  0  0  0  0  0999 V2000
  186.7940  178.3440  140.9340 C   0  0  0  0  0  0  0  0  0  0  0  0
  186.0360  178.3530  145.7560 C   0  0  0  0  0  3  0  0  0  0  0  0
  184.6420  178.8600  145.5210 C   0  0  0  0  0  2  0  0  0  0  0  0
  184.8440  178.5080  139.2930 C   0  0  0  0  0  0  0  0  0  0  0  0
  183.4080  178.8490  139.0480 C   0  0  1  0  0  3  0  0  0  0  0  0
  186.8460  178.0920  144.7280 C   0  0  0  0  0  3  0  0  0  0  0  0
  187.2700  178.2160  142.2570 C   0  0  0  0  0  0  0  0  0  0  0  0
  184.9850  178.3270  143.0940 C   0  0  0  0  0  0  0  0  0  0  0  0
  184.4950  178.4370  141.7810 C   0  0  0  0  0  0  0  0  0  0  0  0
  184.0360  178.2270  144.2670 C   0  0  0  0  0  2  0  0  0  0  0  0
  186.3660  178.2090  143.3310 C   0  0  0  0  0  0  0  0  0  0  0  0
  183.0040  178.6100  141.5900 C   0  0  0  0  0  2  0  0  0  0  0  0
  185.5660  178.2660  138.2890 O   0  0  0  0  0  0  0  0  0  0  0  0
  181.4680  177.8840  139.9630 O   0  0  0  0  0  0  0  0  0  0  0  0
  185.3970  178.4420  140.6840 C   0  0  0  0  0  0  0  0  0  0  0  0
  182.5580  178.3840  140.1830 C   0  0  0  0  0  0  0  0  0  0  0  0
  184.2490  181.0600  138.7500 O   0  0  0  0  0  1  0  0  0  0  0  0
  181.9690  180.8600  138.6290 O   0  0  0  0  0  0  0  0  0  0  0  0
  183.2360  180.3150  138.8060 C   0  0  0  0  0  0  0  0  0  0  0  0
  188.7460  178.1170  142.5230 C   0  0  0  0  0  2  0  0  0  0  0  0
  189.1240  176.6890  142.8690 C   0  0  0  0  0  2  0  0  0  0  0  0
  190.6330  176.5560  142.8770 C   0  0  0  0  0  2  0  0  0  0  0  0
  191.2860  177.8860  143.2250 C   0  0  0  0  0  2  0  0  0  0  0  0
  191.4720  178.0420  144.7280 C   0  0  0  0  0  2  0  0  0  0  0  0
  190.4630  176.7910  146.4770 C   0  0  0  0  0  0  0  0  0  0  0  0
  189.2900  176.8490  146.9250 O   0  0  0  0  0  0  0  0  0  0  0  0
  191.9810  176.7800  146.6810 N   0  0  0  0  0  2  0  0  0  0  0  0
  191.3700  176.6990  145.4310 C   0  0  2  0  0  3  0  0  0  0  0  0
  187.7950  178.4240  139.8160 C   0  0  0  0  0  2  0  0  0  0  0  0
  188.3700  177.0490  139.5270 C   0  0  0  0  0  3  0  0  0  0  0  0
  188.8170  177.0020  138.0810 C   0  0  0  0  0  2  0  0  0  0  0  0
  189.8370  177.1920  139.1790 C   0  0  0  0  0  2  0  0  0  0  0  0
  1  7  1  0  0  0  0
  3  2  1  0  0  0  0
  4 15  1  0  0  0  0
  5 19  1  1  0  0  0
  5  4  1  0  0  0  0
  5 16  1  0  0  0  0
  6  2  2  0  0  0  0
  7 20  1  0  0  0  0
  7 11  2  0  0  0  0
  8 11  1  0  0  0  0
  8 10  1  0  0  0  0
  9  8  2  0  0  0  0
 10  3  1  0  0  0  0
 11  6  1  0  0  0  0
 12  9  1  0  0  0  0
 13  4  2  0  0  0  0
 14 16  2  0  0  0  0
 15  1  2  0  0  0  0
 15  9  1  0  0  0  0
 16 12  1  0  0  0  0
 17 19  1  0  0  0  0
 18 19  2  0  0  0  0
 20 21  1  0  0  0  0
 21 22  1  0  0  0  0
 22 23  1  0  0  0  0
 23 24  1  0  0  0  0
 25 27  1  0  0  0  0
 25 26  2  0  0  0  0
 28 24  1  6  0  0  0
 28 25  1  0  0  0  0
 28 27  1  0  0  0  0
 29  1  1  0  0  0  0
 30 29  1  0  0  0  0
 31 32  1  0  0  0  0
 31 30  1  0  0  0  0
 32 30  1  0  0  0  0
M  END
>  <MODEL>
3

>  <REMARK>
 VINA RESULT:      -8.1      1.657      4.471
  Name = 
  9 active torsions:
  status: ('A' for Active; 'I' for Inactive)
    1  A    between atoms: C_2  and  C_10
    2  A    between atoms: C_2  and  C_12
    3  A    between atoms: C_3  and  C_28
    4  A    between atoms: C_7  and  C_22
    5  A    between atoms: C_8  and  C_28
    6  A    between atoms: C_9  and  C_14
    7  A    between atoms: C_9  and  C_21
    8  A    between atoms: C_10  and  CA_24
    9  A    between atoms: C_12  and  C_21
                            x       y       z     vdW  Elec       q    Type
                         _______ _______ _______ _____ _____    ______ ____

>  <TORSDO>
F 9

$$$$
=
 OpenBabel11052416543D

 32 36  0  0  1  0  0  0  0  0999 V2000
  186.5300  178.5650  140.8650 C   0  0  0  0  0  0  0  0  0  0  0  0
  189.9600  177.0330  143.9810 C   0  0  0  0  0  3  0  0  0  0  0  0
  190.5340  176.1640  142.8990 C   0  0  0  0  0  2  0  0  0  0  0  0
  186.7690  178.1880  138.3500 C   0  0  0  0  0  0  0  0  0  0  0  0
  187.4370  177.4570  137.2280 C   0  0  1  0  0  3  0  0  0  0  0  0
  188.9050  177.8130  143.7380 C   0  0  0  0  0  3  0  0  0  0  0  0
  187.0680  178.4950  142.1670 C   0  0  0  0  0  0  0  0  0  0  0  0
  189.0590  177.4000  141.2890 C   0  0  0  0  0  0  0  0  0  0  0  0
  188.5440  177.4800  139.9840 C   0  0  0  0  0  0  0  0  0  0  0  0
  190.4500  176.8610  141.5400 C   0  0  0  0  0  2  0  0  0  0  0  0
  188.3290  177.9120  142.3760 C   0  0  0  0  0  0  0  0  0  0  0  0
  189.3530  176.8680  138.8610 C   0  0  0  0  0  2  0  0  0  0  0  0
  185.7810  178.9140  138.0670 O   0  0  0  0  0  0  0  0  0  0  0  0
  189.7050  177.4310  136.6040 O   0  0  0  0  0  0  0  0  0  0  0  0
  187.2710  178.0690  139.7570 C   0  0  0  0  0  0  0  0  0  0  0  0
  188.8930  177.2910  137.5040 C   0  0  0  0  0  0  0  0  0  0  0  0
  187.4650  175.1700  136.5560 O   0  0  0  0  0  0  0  0  0  0  0  0
  185.4190  175.9670  137.2130 O   0  0  0  0  0  1  0  0  0  0  0  0
  186.7780  176.1380  136.9760 C   0  0  0  0  0  0  0  0  0  0  0  0
  186.2830  179.0140  143.3390 C   0  0  0  0  0  2  0  0  0  0  0  0
  185.7580  177.8600  144.1740 C   0  0  0  0  0  2  0  0  0  0  0  0
  184.9220  178.4050  145.3150 C   0  0  0  0  0  2  0  0  0  0  0  0
  185.8010  178.7290  146.5140 C   0  0  0  0  0  2  0  0  0  0  0  0
  186.8850  177.6780  146.7150 C   0  0  0  0  0  2  0  0  0  0  0  0
  188.9750  177.2340  147.7500 C   0  0  0  0  0  0  0  0  0  0  0  0
  189.9250  176.5110  147.3540 O   0  0  0  0  0  0  0  0  0  0  0  0
  187.9800  177.6730  148.8280 N   0  0  0  0  0  2  0  0  0  0  0  0
  188.0290  178.2270  147.5500 C   0  0  2  0  0  3  0  0  0  0  0  0
  185.1460  179.1260  140.6890 C   0  0  0  0  0  2  0  0  0  0  0  0
  184.1090  178.0360  140.8920 C   0  0  0  0  0  3  0  0  0  0  0  0
  182.9710  178.5940  141.7200 C   0  0  0  0  0  2  0  0  0  0  0  0
  182.8160  178.4560  140.2230 C   0  0  0  0  0  2  0  0  0  0  0  0
  1  7  1  0  0  0  0
  3  2  1  0  0  0  0
  4 15  1  0  0  0  0
  5 19  1  1  0  0  0
  5 16  1  0  0  0  0
  5  4  1  0  0  0  0
  6  2  2  0  0  0  0
  7 11  2  0  0  0  0
  7 20  1  0  0  0  0
  8 10  1  0  0  0  0
  8 11  1  0  0  0  0
  9  8  2  0  0  0  0
 10  3  1  0  0  0  0
 11  6  1  0  0  0  0
 12  9  1  0  0  0  0
 13  4  2  0  0  0  0
 14 16  2  0  0  0  0
 15  9  1  0  0  0  0
 15  1  2  0  0  0  0
 16 12  1  0  0  0  0
 17 19  2  0  0  0  0
 19 18  1  0  0  0  0
 20 21  1  0  0  0  0
 21 22  1  0  0  0  0
 22 23  1  0  0  0  0
 23 24  1  0  0  0  0
 25 27  1  0  0  0  0
 26 25  2  0  0  0  0
 28 24  1  6  0  0  0
 28 25  1  0  0  0  0
 28 27  1  0  0  0  0
 29  1  1  0  0  0  0
 29 30  1  0  0  0  0
 30 31  1  0  0  0  0
 32 30  1  0  0  0  0
 32 31  1  0  0  0  0
M  END
>  <MODEL>
4

>  <REMARK>
 VINA RESULT:      -8.1      2.466      4.551
  Name = 
  9 active torsions:
  status: ('A' for Active; 'I' for Inactive)
    1  A    between atoms: C_2  and  C_10
    2  A    between atoms: C_2  and  C_12
    3  A    between atoms: C_3  and  C_28
    4  A    between atoms: C_7  and  C_22
    5  A    between atoms: C_8  and  C_28
    6  A    between atoms: C_9  and  C_14
    7  A    between atoms: C_9  and  C_21
    8  A    between atoms: C_10  and  CA_24
    9  A    between atoms: C_12  and  C_21
                            x       y       z     vdW  Elec       q    Type
                         _______ _______ _______ _____ _____    ______ ____

>  <TORSDO>
F 9

$$$$
=
 OpenBabel11052416543D

 32 36  0  0  1  0  0  0  0  0999 V2000
  187.8900  177.0990  144.7320 C   0  0  0  0  0  0  0  0  0  0  0  0
  190.4400  177.6890  140.6120 C   0  0  0  0  0  3  0  0  0  0  0  0
  191.6870  177.8710  141.4280 C   0  0  0  0  0  2  0  0  0  0  0  0
  189.0620  176.6260  146.9520 C   0  0  0  0  0  0  0  0  0  0  0  0
  190.3230  176.6380  147.7560 C   0  0  1  0  0  3  0  0  0  0  0  0
  189.2710  177.4400  141.2050 C   0  0  0  0  0  3  0  0  0  0  0  0
  187.9470  177.2690  143.3320 C   0  0  0  0  0  0  0  0  0  0  0  0
  190.3730  177.0540  143.4020 C   0  0  0  0  0  0  0  0  0  0  0  0
  190.3290  176.8650  144.7940 C   0  0  0  0  0  0  0  0  0  0  0  0
  191.6800  176.9480  142.6480 C   0  0  0  0  0  2  0  0  0  0  0  0
  189.1870  177.2470  142.6720 C   0  0  0  0  0  0  0  0  0  0  0  0
  191.6410  176.7120  145.5330 C   0  0  0  0  0  2  0  0  0  0  0  0
  187.9850  176.3820  147.5580 O   0  0  0  0  0  0  0  0  0  0  0  0
  192.3290  175.4610  147.4020 O   0  0  0  0  0  0  0  0  0  0  0  0
  189.0830  176.8820  145.4750 C   0  0  0  0  0  0  0  0  0  0  0  0
  191.4790  176.1930  146.9240 C   0  0  0  0  0  0  0  0  0  0  0  0
  191.6990  178.2530  148.8430 O   0  0  0  0  0  1  0  0  0  0  0  0
  189.5730  178.9550  148.3540 O   0  0  0  0  0  0  0  0  0  0  0  0
  190.5710  177.9880  148.3510 C   0  0  0  0  0  0  0  0  0  0  0  0
  186.6870  177.5030  142.5460 C   0  0  0  0  0  2  0  0  0  0  0  0
  186.5710  178.9670  142.1640 C   0  0  0  0  0  2  0  0  0  0  0  0
  185.1480  179.4350  142.3910 C   0  0  0  0  0  2  0  0  0  0  0  0
  184.1880  178.2530  142.3780 C   0  0  0  0  0  2  0  0  0  0  0  0
  183.0410  178.4740  141.4020 C   0  0  0  0  0  2  0  0  0  0  0  0
  183.7690  179.1940  139.2600 C   0  0  0  0  0  0  0  0  0  0  0  0
  184.5550  180.1280  138.9550 O   0  0  0  0  0  0  0  0  0  0  0  0
  182.4400  178.4520  139.0990 N   0  0  0  0  0  2  0  0  0  0  0  0
  183.4370  178.0660  139.9940 C   0  0  2  0  0  3  0  0  0  0  0  0
  186.5540  177.2040  145.4130 C   0  0  0  0  0  2  0  0  0  0  0  0
  186.2960  178.6360  145.8440 C   0  0  0  0  0  3  0  0  0  0  0  0
  184.8010  178.8820  145.8480 C   0  0  0  0  0  2  0  0  0  0  0  0
  185.5280  178.6280  147.1490 C   0  0  0  0  0  2  0  0  0  0  0  0
  1 29  1  0  0  0  0
  1 15  1  0  0  0  0
  2  6  2  0  0  0  0
  2  3  1  0  0  0  0
  3 10  1  0  0  0  0
  4 13  2  0  0  0  0
  4  5  1  0  0  0  0
  5 19  1  6  0  0  0
  6 11  1  0  0  0  0
  7  1  2  0  0  0  0
  8  9  1  0  0  0  0
  9 15  2  0  0  0  0
  9 12  1  0  0  0  0
 10  8  1  0  0  0  0
 11  7  1  0  0  0  0
 11  8  2  0  0  0  0
 12 16  1  0  0  0  0
 15  4  1  0  0  0  0
 16 14  2  0  0  0  0
 16  5  1  0  0  0  0
 19 18  2  0  0  0  0
 19 17  1  0  0  0  0
 20  7  1  0  0  0  0
 21 22  1  0  0  0  0
 21 20  1  0  0  0  0
 23 22  1  0  0  0  0
 24 23  1  0  0  0  0
 25 28  1  0  0  0  0
 26 25  2  0  0  0  0
 27 25  1  0  0  0  0
 27 28  1  0  0  0  0
 28 24  1  1  0  0  0
 29 30  1  0  0  0  0
 30 31  1  0  0  0  0
 30 32  1  0  0  0  0
 31 32  1  0  0  0  0
M  END
>  <MODEL>
5

>  <REMARK>
 VINA RESULT:      -8.0      2.935      7.807
  Name = 
  9 active torsions:
  status: ('A' for Active; 'I' for Inactive)
    1  A    between atoms: C_2  and  C_10
    2  A    between atoms: C_2  and  C_12
    3  A    between atoms: C_3  and  C_28
    4  A    between atoms: C_7  and  C_22
    5  A    between atoms: C_8  and  C_28
    6  A    between atoms: C_9  and  C_14
    7  A    between atoms: C_9  and  C_21
    8  A    between atoms: C_10  and  CA_24
    9  A    between atoms: C_12  and  C_21
                            x       y       z     vdW  Elec       q    Type
                         _______ _______ _______ _____ _____    ______ ____

>  <TORSDO>
F 9

$$$$
=
 OpenBabel11052416543D

 32 36  0  0  1  0  0  0  0  0999 V2000
  186.9930  177.8460  142.3050 C   0  0  0  0  0  0  0  0  0  0  0  0
  191.4740  176.4900  143.6850 C   0  0  0  0  0  3  0  0  0  0  0  0
  191.8680  176.3750  142.2400 C   0  0  0  0  0  2  0  0  0  0  0  0
  186.5230  178.6010  139.9100 C   0  0  0  0  0  0  0  0  0  0  0  0
  186.9590  178.6520  138.4800 C   0  0  1  0  0  3  0  0  0  0  0  0
  190.2460  176.8880  144.0250 C   0  0  0  0  0  3  0  0  0  0  0  0
  187.9090  177.4570  143.3050 C   0  0  0  0  0  0  0  0  0  0  0  0
  189.7260  177.5560  141.6850 C   0  0  0  0  0  0  0  0  0  0  0  0
  188.8280  177.9630  140.6830 C   0  0  0  0  0  0  0  0  0  0  0  0
  191.2100  177.4760  141.4070 C   0  0  0  0  0  2  0  0  0  0  0  0
  189.2700  177.3120  142.9930 C   0  0  0  0  0  0  0  0  0  0  0  0
  189.3680  178.1630  139.2840 C   0  0  0  0  0  2  0  0  0  0  0  0
  185.3560  178.9920  140.1790 O   0  0  0  0  0  0  0  0  0  0  0  0
  188.8650  179.6550  137.5360 O   0  0  0  0  0  0  0  0  0  0  0  0
  187.4480  178.1170  140.9840 C   0  0  0  0  0  0  0  0  0  0  0  0
  188.4270  178.9020  138.3880 C   0  0  0  0  0  0  0  0  0  0  0  0
  187.4370  176.5030  137.5640 O   0  0  0  0  0  1  0  0  0  0  0  0
  185.2750  177.2160  137.2990 O   0  0  0  0  0  0  0  0  0  0  0  0
  186.5750  177.4010  137.7540 C   0  0  0  0  0  0  0  0  0  0  0  0
  187.4280  177.1660  144.6990 C   0  0  0  0  0  2  0  0  0  0  0  0
  187.9090  178.2410  145.6560 C   0  0  0  0  0  2  0  0  0  0  0  0
  187.5970  177.8240  147.0790 C   0  0  0  0  0  2  0  0  0  0  0  0
  188.8540  177.8680  147.9370 C   0  0  0  0  0  2  0  0  0  0  0  0
  189.7670  176.6830  147.6520 C   0  0  0  0  0  2  0  0  0  0  0  0
  192.0190  176.0570  147.2330 C   0  0  0  0  0  0  0  0  0  0  0  0
  192.4700  175.0280  146.6680 O   0  0  0  0  0  0  0  0  0  0  0  0
  191.9970  177.0490  148.3990 N   0  0  0  0  0  2  0  0  0  0  0  0
  191.1660  177.1480  147.2850 C   0  0  2  0  0  3  0  0  0  0  0  0
  185.5330  177.9170  142.6560 C   0  0  0  0  0  2  0  0  0  0  0  0
  185.2440  179.1850  143.4390 C   0  0  0  0  0  3  0  0  0  0  0  0
  183.7430  179.3770  143.5180 C   0  0  0  0  0  2  0  0  0  0  0  0
  184.4950  178.8210  144.7060 C   0  0  0  0  0  2  0  0  0  0  0  0
  1 29  1  0  0  0  0
  1  7  1  0  0  0  0
  2  6  2  0  0  0  0
  3  2  1  0  0  0  0
  4 13  2  0  0  0  0
  4 15  1  0  0  0  0
  5 19  1  1  0  0  0
  5  4  1  0  0  0  0
  7 20  1  0  0  0  0
  8 11  1  0  0  0  0
  9 15  1  0  0  0  0
  9  8  2  0  0  0  0
 10  8  1  0  0  0  0
 10  3  1  0  0  0  0
 11  7  2  0  0  0  0
 11  6  1  0  0  0  0
 12  9  1  0  0  0  0
 14 16  2  0  0  0  0
 15  1  2  0  0  0  0
 16  5  1  0  0  0  0
 16 12  1  0  0  0  0
 17 19  1  0  0  0  0
 18 19  2  0  0  0  0
 20 21  1  0  0  0  0
 21 22  1  0  0  0  0
 22 23  1  0  0  0  0
 24 23  1  0  0  0  0
 25 28  1  0  0  0  0
 25 27  1  0  0  0  0
 26 25  2  0  0  0  0
 28 24  1  1  0  0  0
 28 27  1  0  0  0  0
 29 30  1  0  0  0  0
 30 31  1  0  0  0  0
 30 32  1  0  0  0  0
 31 32  1  0  0  0  0
M  END
>  <MODEL>
6

>  <REMARK>
 VINA RESULT:      -7.8      1.995      3.142
  Name = 
  9 active torsions:
  status: ('A' for Active; 'I' for Inactive)
    1  A    between atoms: C_2  and  C_10
    2  A    between atoms: C_2  and  C_12
    3  A    between atoms: C_3  and  C_28
    4  A    between atoms: C_7  and  C_22
    5  A    between atoms: C_8  and  C_28
    6  A    between atoms: C_9  and  C_14
    7  A    between atoms: C_9  and  C_21
    8  A    between atoms: C_10  and  CA_24
    9  A    between atoms: C_12  and  C_21
                            x       y       z     vdW  Elec       q    Type
                         _______ _______ _______ _____ _____    ______ ____

>  <TORSDO>
F 9

$$$$
=
 OpenBabel11052416543D

 32 36  0  0  1  0  0  0  0  0999 V2000
  184.3480  178.8820  141.2610 C   0  0  0  0  0  0  0  0  0  0  0  0
  186.2720  178.6280  145.7400 C   0  0  0  0  0  3  0  0  0  0  0  0
  184.9280  178.9640  146.3200 C   0  0  0  0  0  2  0  0  0  0  0  0
  181.8180  178.8570  140.9090 C   0  0  0  0  0  0  0  0  0  0  0  0
  180.4490  179.0240  141.4870 C   0  0  1  0  0  3  0  0  0  0  0  0
  186.4310  178.5070  144.4210 C   0  0  0  0  0  3  0  0  0  0  0  0
  185.4630  178.7690  142.1180 C   0  0  0  0  0  0  0  0  0  0  0  0
  183.9730  178.5630  144.0350 C   0  0  0  0  0  0  0  0  0  0  0  0
  182.8530  178.6560  143.1910 C   0  0  0  0  0  0  0  0  0  0  0  0
  183.8070  178.3040  145.5160 C   0  0  0  0  0  2  0  0  0  0  0  0
  185.2740  178.6110  143.5010 C   0  0  0  0  0  0  0  0  0  0  0  0
  181.4810  178.6480  143.8280 C   0  0  0  0  0  2  0  0  0  0  0  0
  181.9150  178.7420  139.6590 O   0  0  0  0  0  0  0  0  0  0  0  0
  179.3860  177.7920  143.1860 O   0  0  0  0  0  0  0  0  0  0  0  0
  183.0300  178.8130  141.7900 C   0  0  0  0  0  0  0  0  0  0  0  0
  180.3770  178.4170  142.8480 C   0  0  0  0  0  0  0  0  0  0  0  0
  179.7020  180.9940  142.6020 O   0  0  0  0  0  1  0  0  0  0  0  0
  180.0590  181.2250  140.3500 O   0  0  0  0  0  0  0  0  0  0  0  0
  180.0460  180.4640  141.5130 C   0  0  0  0  0  0  0  0  0  0  0  0
  186.8570  178.8470  141.5610 C   0  0  0  0  0  2  0  0  0  0  0  0
  187.5960  177.5450  141.8090 C   0  0  0  0  0  2  0  0  0  0  0  0
  188.8930  177.5460  141.0250 C   0  0  0  0  0  2  0  0  0  0  0  0
  189.9750  176.7850  141.7800 C   0  0  0  0  0  2  0  0  0  0  0  0
  189.5120  176.3960  143.1770 C   0  0  0  0  0  2  0  0  0  0  0  0
  189.7470  177.1650  145.4120 C   0  0  0  0  0  0  0  0  0  0  0  0
  189.1890  176.7530  146.4610 O   0  0  0  0  0  0  0  0  0  0  0  0
  190.1530  178.2950  144.4620 N   0  0  0  0  0  2  0  0  0  0  0  0
  190.4500  176.9520  144.2360 C   0  0  2  0  0  3  0  0  0  0  0  0
  184.5900  179.1260  139.7980 C   0  0  0  0  0  2  0  0  0  0  0  0
  184.9870  177.8330  139.1090 C   0  0  0  0  0  3  0  0  0  0  0  0
  184.5370  177.8920  137.6640 C   0  0  0  0  0  2  0  0  0  0  0  0
  185.9850  178.1450  138.0130 C   0  0  0  0  0  2  0  0  0  0  0  0
  1 15  2  0  0  0  0
  1  7  1  0  0  0  0
  2  3  1  0  0  0  0
  4  5  1  0  0  0  0
  4 15  1  0  0  0  0
  5 19  1  1  0  0  0
  5 16  1  0  0  0  0
  6  2  2  0  0  0  0
  7 11  2  0  0  0  0
  8 10  1  0  0  0  0
  9 12  1  0  0  0  0
  9  8  2  0  0  0  0
 10  3  1  0  0  0  0
 11  8  1  0  0  0  0
 11  6  1  0  0  0  0
 13  4  2  0  0  0  0
 15  9  1  0  0  0  0
 16 14  2  0  0  0  0
 16 12  1  0  0  0  0
 18 19  2  0  0  0  0
 19 17  1  0  0  0  0
 20 21  1  0  0  0  0
 20  7  1  0  0  0  0
 22 23  1  0  0  0  0
 22 21  1  0  0  0  0
 23 24  1  0  0  0  0
 25 26  2  0  0  0  0
 27 25  1  0  0  0  0
 28 24  1  6  0  0  0
 28 27  1  0  0  0  0
 28 25  1  0  0  0  0
 29  1  1  0  0  0  0
 30 29  1  0  0  0  0
 31 32  1  0  0  0  0
 31 30  1  0  0  0  0
 32 30  1  0  0  0  0
M  END
>  <MODEL>
7

>  <REMARK>
 VINA RESULT:      -7.8      2.392      5.269
  Name = 
  9 active torsions:
  status: ('A' for Active; 'I' for Inactive)
    1  A    between atoms: C_2  and  C_10
    2  A    between atoms: C_2  and  C_12
    3  A    between atoms: C_3  and  C_28
    4  A    between atoms: C_7  and  C_22
    5  A    between atoms: C_8  and  C_28
    6  A    between atoms: C_9  and  C_14
    7  A    between atoms: C_9  and  C_21
    8  A    between atoms: C_10  and  CA_24
    9  A    between atoms: C_12  and  C_21
                            x       y       z     vdW  Elec       q    Type
                         _______ _______ _______ _____ _____    ______ ____

>  <TORSDO>
F 9

$$$$
=
 OpenBabel11052416543D

 32 36  0  0  1  0  0  0  0  0999 V2000
  188.1320  178.4770  142.4440 C   0  0  0  0  0  0  0  0  0  0  0  0
  184.4390  178.5080  145.6370 C   0  0  0  0  0  3  0  0  0  0  0  0
  185.2260  177.5960  146.5330 C   0  0  0  0  0  2  0  0  0  0  0  0
  190.4510  177.6480  143.1200 C   0  0  0  0  0  0  0  0  0  0  0  0
  191.3010  176.8810  144.0820 C   0  0  1  0  0  3  0  0  0  0  0  0
  184.9570  178.9420  144.4850 C   0  0  0  0  0  3  0  0  0  0  0  0
  186.8060  178.8140  142.7920 C   0  0  0  0  0  0  0  0  0  0  0  0
  187.2120  178.0720  145.0760 C   0  0  0  0  0  0  0  0  0  0  0  0
  188.5400  177.7490  144.7490 C   0  0  0  0  0  0  0  0  0  0  0  0
  186.7140  177.9490  146.4990 C   0  0  0  0  0  2  0  0  0  0  0  0
  186.3500  178.6100  144.1040 C   0  0  0  0  0  0  0  0  0  0  0  0
  189.4060  177.1280  145.8240 C   0  0  0  0  0  2  0  0  0  0  0  0
  190.9880  178.0380  142.0500 O   0  0  0  0  0  0  0  0  0  0  0  0
  191.6900  177.2710  146.3690 O   0  0  0  0  0  0  0  0  0  0  0  0
  189.0170  177.9520  143.4270 C   0  0  0  0  0  0  0  0  0  0  0  0
  190.8610  177.1320  145.4850 C   0  0  0  0  0  0  0  0  0  0  0  0
  192.1030  174.6510  144.3430 O   0  0  0  0  0  1  0  0  0  0  0  0
  190.3860  174.8990  142.8460 O   0  0  0  0  0  0  0  0  0  0  0  0
  191.2910  175.4190  143.7650 C   0  0  0  0  0  0  0  0  0  0  0  0
  185.8680  179.3630  141.7530 C   0  0  0  0  0  2  0  0  0  0  0  0
  184.8520  178.3100  141.3520 C   0  0  0  0  0  2  0  0  0  0  0  0
  183.7250  178.9660  140.5810 C   0  0  0  0  0  2  0  0  0  0  0  0
  184.1970  179.3820  139.1950 C   0  0  0  0  0  2  0  0  0  0  0  0
  184.4330  178.1750  138.2980 C   0  0  0  0  0  2  0  0  0  0  0  0
  182.9180  176.3470  138.2370 C   0  0  0  0  0  0  0  0  0  0  0  0
  182.6020  175.5410  139.1480 O   0  0  0  0  0  0  0  0  0  0  0  0
  183.3810  176.6450  136.8080 N   0  0  0  0  0  2  0  0  0  0  0  0
  183.1210  177.6320  137.7570 C   0  0  2  0  0  3  0  0  0  0  0  0
  188.5620  178.6370  141.0130 C   0  0  0  0  0  2  0  0  0  0  0  0
  188.3100  177.3540  140.2430 C   0  0  0  0  0  3  0  0  0  0  0  0
  188.0170  177.7020  138.7980 C   0  0  0  0  0  2  0  0  0  0  0  0
  189.3860  177.1920  139.1880 C   0  0  0  0  0  2  0  0  0  0  0  0
  1  7  2  0  0  0  0
  1 15  1  0  0  0  0
  2  3  1  0  0  0  0
  4 15  1  0  0  0  0
  4  5  1  0  0  0  0
  5 19  1  6  0  0  0
  5 16  1  0  0  0  0
  6  2  2  0  0  0  0
  7 11  1  0  0  0  0
  8 10  1  0  0  0  0
  9  8  1  0  0  0  0
  9 12  1  0  0  0  0
 10  3  1  0  0  0  0
 11  6  1  0  0  0  0
 11  8  2  0  0  0  0
 13  4  2  0  0  0  0
 15  9  2  0  0  0  0
 16 12  1  0  0  0  0
 16 14  2  0  0  0  0
 18 19  2  0  0  0  0
 19 17  1  0  0  0  0
 20  7  1  0  0  0  0
 21 20  1  0  0  0  0
 22 21  1  0  0  0  0
 23 22  1  0  0  0  0
 24 23  1  0  0  0  0
 25 26  2  0  0  0  0
 27 28  1  0  0  0  0
 27 25  1  0  0  0  0
 28 25  1  0  0  0  0
 28 24  1  1  0  0  0
 29  1  1  0  0  0  0
 30 29  1  0  0  0  0
 31 32  1  0  0  0  0
 31 30  1  0  0  0  0
 32 30  1  0  0  0  0
M  END
>  <MODEL>
8

>  <REMARK>
 VINA RESULT:      -7.7      3.475      8.491
  Name = 
  9 active torsions:
  status: ('A' for Active; 'I' for Inactive)
    1  A    between atoms: C_2  and  C_10
    2  A    between atoms: C_2  and  C_12
    3  A    between atoms: C_3  and  C_28
    4  A    between atoms: C_7  and  C_22
    5  A    between atoms: C_8  and  C_28
    6  A    between atoms: C_9  and  C_14
    7  A    between atoms: C_9  and  C_21
    8  A    between atoms: C_10  and  CA_24
    9  A    between atoms: C_12  and  C_21
                            x       y       z     vdW  Elec       q    Type
                         _______ _______ _______ _____ _____    ______ ____

>  <TORSDO>
F 9

$$$$
=
 OpenBabel11052416543D

 32 36  0  0  1  0  0  0  0  0999 V2000
  188.4990  178.0510  139.3240 C   0  0  0  0  0  0  0  0  0  0  0  0
  189.6720  177.5230  144.0320 C   0  0  0  0  0  3  0  0  0  0  0  0
  190.7810  176.5910  143.6360 C   0  0  0  0  0  2  0  0  0  0  0  0
  190.1090  177.3330  137.4750 C   0  0  0  0  0  0  0  0  0  0  0  0
  191.3130  176.5440  137.0680 C   0  0  1  0  0  3  0  0  0  0  0  0
  188.9030  178.0960  143.1050 C   0  0  0  0  0  3  0  0  0  0  0  0
  188.2250  178.2580  140.6930 C   0  0  0  0  0  0  0  0  0  0  0  0
  190.4060  177.3410  141.2720 C   0  0  0  0  0  0  0  0  0  0  0  0
  190.7000  177.1460  139.9110 C   0  0  0  0  0  0  0  0  0  0  0  0
  191.4420  177.0530  142.3360 C   0  0  0  0  0  2  0  0  0  0  0  0
  189.1770  177.9020  141.6620 C   0  0  0  0  0  0  0  0  0  0  0  0
  192.0180  176.4930  139.5550 C   0  0  0  0  0  2  0  0  0  0  0  0
  189.4180  177.8580  136.5620 O   0  0  0  0  0  0  0  0  0  0  0  0
  193.5440  176.7500  137.7830 O   0  0  0  0  0  0  0  0  0  0  0  0
  189.7480  177.5040  138.9200 C   0  0  0  0  0  0  0  0  0  0  0  0
  192.3750  176.6330  138.1110 C   0  0  0  0  0  0  0  0  0  0  0  0
  190.7720  174.7520  135.5910 O   0  0  0  0  0  0  0  0  0  0  0  0
  190.8280  174.1980  137.8140 O   0  0  0  0  0  1  0  0  0  0  0  0
  190.9530  175.1200  136.7810 C   0  0  0  0  0  0  0  0  0  0  0  0
  186.9030  178.8310  141.1210 C   0  0  0  0  0  2  0  0  0  0  0  0
  186.2500  177.9330  142.1550 C   0  0  0  0  0  2  0  0  0  0  0  0
  184.8030  178.3460  142.3390 C   0  0  0  0  0  2  0  0  0  0  0  0
  184.5330  178.7150  143.7900 C   0  0  0  0  0  2  0  0  0  0  0  0
  185.5870  178.1310  144.7220 C   0  0  0  0  0  2  0  0  0  0  0  0
  186.4370  178.2890  146.9330 C   0  0  0  0  0  0  0  0  0  0  0  0
  187.4780  177.7840  147.4270 O   0  0  0  0  0  0  0  0  0  0  0  0
  184.9320  178.5650  146.9690 N   0  0  0  0  0  2  0  0  0  0  0  0
  185.7740  179.0060  145.9500 C   0  0  2  0  0  3  0  0  0  0  0  0
  187.4270  178.3720  138.3200 C   0  0  0  0  0  2  0  0  0  0  0  0
  186.5580  177.1530  138.0720 C   0  0  0  0  0  3  0  0  0  0  0  0
  185.1140  177.5970  137.9640 C   0  0  0  0  0  2  0  0  0  0  0  0
  185.9010  177.2840  136.7130 C   0  0  0  0  0  2  0  0  0  0  0  0
  1  7  1  0  0  0  0
  3  2  1  0  0  0  0
  4 15  1  0  0  0  0
  5 19  1  1  0  0  0
  5  4  1  0  0  0  0
  5 16  1  0  0  0  0
  6  2  2  0  0  0  0
  7 20  1  0  0  0  0
  7 11  2  0  0  0  0
  8 11  1  0  0  0  0
  8 10  1  0  0  0  0
  9  8  2  0  0  0  0
 10  3  1  0  0  0  0
 11  6  1  0  0  0  0
 12  9  1  0  0  0  0
 13  4  2  0  0  0  0
 14 16  2  0  0  0  0
 15  1  2  0  0  0  0
 15  9  1  0  0  0  0
 16 12  1  0  0  0  0
 17 19  2  0  0  0  0
 19 18  1  0  0  0  0
 20 21  1  0  0  0  0
 21 22  1  0  0  0  0
 22 23  1  0  0  0  0
 23 24  1  0  0  0  0
 25 27  1  0  0  0  0
 25 26  2  0  0  0  0
 28 24  1  6  0  0  0
 28 25  1  0  0  0  0
 28 27  1  0  0  0  0
 29  1  1  0  0  0  0
 30 29  1  0  0  0  0
 31 30  1  0  0  0  0
 32 31  1  0  0  0  0
 32 30  1  0  0  0  0
M  END
>  <MODEL>
9

>  <REMARK>
 VINA RESULT:      -7.7      3.785      6.806
  Name = 
  9 active torsions:
  status: ('A' for Active; 'I' for Inactive)
    1  A    between atoms: C_2  and  C_10
    2  A    between atoms: C_2  and  C_12
    3  A    between atoms: C_3  and  C_28
    4  A    between atoms: C_7  and  C_22
    5  A    between atoms: C_8  and  C_28
    6  A    between atoms: C_9  and  C_14
    7  A    between atoms: C_9  and  C_21
    8  A    between atoms: C_10  and  CA_24
    9  A    between atoms: C_12  and  C_21
                            x       y       z     vdW  Elec       q    Type
                         _______ _______ _______ _____ _____    ______ ____

>  <TORSDO>
F 9

$$$$
