=
 OpenBabel11052415153D

 37 42  0  0  1  0  0  0  0  0999 V2000
  188.4320  176.9140  144.6770 C   0  0  0  0  0  2  0  0  0  0  0  0
  186.5660  178.2170  140.6750 C   0  0  1  0  0  3  0  0  0  0  0  0
  191.3470  176.6020  139.3040 C   0  0  2  0  0  3  0  0  0  0  0  0
  188.2380  178.0680  137.6340 C   0  0  1  0  0  3  0  0  0  0  0  0
  186.7480  177.9210  143.1080 C   0  0  2  0  0  3  0  0  0  0  0  0
  187.0250  178.9210  139.5610 O   0  0  0  0  0  0  0  0  0  0  0  0
  187.3440  178.6650  141.9110 C   0  0  1  0  0  3  0  0  0  0  0  0
  186.9680  178.0000  138.5060 C   0  0  1  0  0  3  0  0  0  0  0  0
  185.3730  178.2750  143.2330 O   0  0  0  0  0  0  0  0  0  0  0  0
  191.9610  176.3780  137.6040 S   0  0  0  0  0  0  0  0  0  0  0  0
  188.8250  178.3780  141.7080 C   0  0  0  0  0  2  0  0  0  0  0  0
  190.0900  176.4480  142.7700 C   0  0  0  0  0  2  0  0  0  0  0  0
  184.1310  178.1660  139.7000 C   0  0  0  0  0  2  0  0  0  0  0  0
  184.5490  178.3490  142.0960 C   0  0  0  0  0  3  0  0  0  0  0  0
  189.0560  176.8740  141.7410 C   0  0  2  0  0  3  0  0  0  0  0  0
  190.4670  177.1570  136.9320 C   0  0  0  0  0  2  0  0  0  0  0  0
  188.8290  179.4780  137.5780 C   0  0  0  0  0  1  0  0  0  0  0  0
  185.0680  178.3610  140.8580 C   0  0  0  0  0  0  0  0  0  0  0  0
  189.1300  176.2080  140.3680 C   0  0  0  0  0  2  0  0  0  0  0  0
  187.5190  178.1170  144.4110 C   0  0  0  0  0  2  0  0  0  0  0  0
  185.7080  178.2550  137.6650 C   0  0  2  0  0  3  0  0  0  0  0  0
  189.8480  177.1260  144.1300 C   0  0  0  0  0  2  0  0  0  0  0  0
  189.2930  176.9520  137.8920 C   0  0  1  0  0  0  0  0  0  0  0  0
  189.8830  177.0360  139.3220 C   0  0  2  0  0  3  0  0  0  0  0  0
  184.5560  178.9250  138.4390 C   0  0  0  0  0  2  0  0  0  0  0  0
  184.9030  177.1180  135.5890 C   0  0  0  0  0  3  0  0  0  0  0  0
  185.2570  177.0230  136.9400 C   0  0  0  0  0  0  0  0  0  0  0  0
  185.1720  175.7850  137.5940 C   0  0  0  0  0  3  0  0  0  0  0  0
  184.6640  173.3400  137.5920 C   0  0  0  0  0  1  0  0  0  0  0  0
  184.3980  174.7500  135.5470 C   0  0  0  0  0  3  0  0  0  0  0  0
  184.7460  174.6500  136.8980 C   0  0  0  0  0  0  0  0  0  0  0  0
  184.4750  175.9840  134.8940 C   0  0  0  0  0  3  0  0  0  0  0  0
  188.6830  175.5610  137.6180 C   0  0  0  0  0  2  0  0  0  0  0  0
  188.5010  175.2630  136.1350 C   0  0  0  0  0  1  0  0  0  0  0  0
  192.1850  177.4090  140.1050 O   0  0  0  0  0  0  0  0  0  0  0  0
  193.4470  177.5040  139.4940 C   0  0  0  0  0  2  0  0  0  0  0  0
  194.3700  176.7530  140.2180 O   0  0  0  0  0  1  0  0  0  0  0  0
  2  6  1  6  0  0  0
  2 18  1  0  0  0  0
  2  7  1  0  0  0  0
  3 24  1  0  0  0  0
  3 35  1  6  0  0  0
  4 17  1  1  0  0  0
  4 23  1  0  0  0  0
  4  8  1  0  0  0  0
  5  9  1  0  0  0  0
  5 20  1  1  0  0  0
  7 11  1  6  0  0  0
  7  5  1  0  0  0  0
  8  6  1  1  0  0  0
 10  3  1  0  0  0  0
 11 15  1  0  0  0  0
 12 22  1  0  0  0  0
 13 18  1  0  0  0  0
 14  9  1  0  0  0  0
 15 19  1  6  0  0  0
 15 12  1  0  0  0  0
 16 10  1  0  0  0  0
 16 23  1  0  0  0  0
 18 14  2  0  0  0  0
 20  1  1  0  0  0  0
 21 27  1  1  0  0  0
 21 25  1  0  0  0  0
 21  8  1  0  0  0  0
 22  1  1  0  0  0  0
 23 33  1  6  0  0  0
 23 24  1  0  0  0  0
 24 19  1  1  0  0  0
 25 13  1  0  0  0  0
 26 27  1  0  0  0  0
 27 28  2  0  0  0  0
 30 31  2  0  0  0  0
 31 29  1  0  0  0  0
 31 28  1  0  0  0  0
 32 30  1  0  0  0  0
 32 26  2  0  0  0  0
 34 33  1  0  0  0  0
 36 35  1  0  0  0  0
 36 37  1  0  0  0  0
M  END
>  <MODEL>
1

>  <REMARK>
 VINA RESULT:      -6.6      0.000      0.000
  Name = 
  4 active torsions:
  status: ('A' for Active; 'I' for Inactive)
    1  A    between atoms: O_1  and  C_5
    2  A    between atoms: O_1  and  C_12
    3  A    between atoms: C_6  and  C_31
    4  A    between atoms: C_11  and  C_33
                            x       y       z     vdW  Elec       q    Type
                         _______ _______ _______ _____ _____    ______ ____

>  <TORSDO>
F 4

$$$$
=
 OpenBabel11052415153D

 37 42  0  0  1  0  0  0  0  0999 V2000
  186.8000  177.4960  144.8870 C   0  0  0  0  0  2  0  0  0  0  0  0
  185.9350  178.2040  140.4210 C   0  0  1  0  0  3  0  0  0  0  0  0
  191.0290  177.0250  140.4880 C   0  0  2  0  0  3  0  0  0  0  0  0
  188.3470  177.9660  137.9340 C   0  0  1  0  0  3  0  0  0  0  0  0
  185.5020  178.1560  142.8410 C   0  0  2  0  0  3  0  0  0  0  0  0
  186.6050  178.8500  139.3810 O   0  0  0  0  0  0  0  0  0  0  0  0
  186.3220  178.8500  141.7500 C   0  0  1  0  0  3  0  0  0  0  0  0
  186.9050  177.8350  138.4630 C   0  0  1  0  0  3  0  0  0  0  0  0
  184.1160  178.3610  142.5750 O   0  0  0  0  0  0  0  0  0  0  0  0
  192.0810  176.7160  139.0340 S   0  0  0  0  0  0  0  0  0  0  0  0
  187.8240  178.7150  141.9590 C   0  0  0  0  0  2  0  0  0  0  0  0
  188.9310  177.0490  143.5240 C   0  0  0  0  0  2  0  0  0  0  0  0
  183.8510  177.7860  138.8820 C   0  0  0  0  0  2  0  0  0  0  0  0
  183.6140  178.2350  141.2680 C   0  0  0  0  0  3  0  0  0  0  0  0
  188.1670  177.2570  142.2260 C   0  0  2  0  0  3  0  0  0  0  0  0
  190.7530  177.2540  137.9230 C   0  0  0  0  0  2  0  0  0  0  0  0
  188.8080  179.4230  137.8610 C   0  0  0  0  0  1  0  0  0  0  0  0
  184.4330  178.1930  140.2060 C   0  0  0  0  0  0  0  0  0  0  0  0
  188.6540  176.4800  141.0040 C   0  0  0  0  0  2  0  0  0  0  0  0
  185.8860  178.5580  144.2620 C   0  0  0  0  0  2  0  0  0  0  0  0
  185.8900  177.8660  137.3090 C   0  0  2  0  0  3  0  0  0  0  0  0
  188.2850  177.8170  144.6900 C   0  0  0  0  0  2  0  0  0  0  0  0
  189.3910  177.0070  138.5770 C   0  0  1  0  0  0  0  0  0  0  0  0
  189.5790  177.2880  140.0880 C   0  0  2  0  0  3  0  0  0  0  0  0
  184.5220  178.4690  137.6860 C   0  0  0  0  0  2  0  0  0  0  0  0
  185.8070  176.4520  135.2490 C   0  0  0  0  0  3  0  0  0  0  0  0
  185.7510  176.5290  136.6460 C   0  0  0  0  0  0  0  0  0  0  0  0
  185.5560  175.3610  137.3980 C   0  0  0  0  0  3  0  0  0  0  0  0
  185.2250  172.8910  137.5570 C   0  0  0  0  0  1  0  0  0  0  0  0
  185.4870  174.0550  135.3610 C   0  0  0  0  0  3  0  0  0  0  0  0
  185.4260  174.1260  136.7570 C   0  0  0  0  0  0  0  0  0  0  0  0
  185.6760  175.2170  134.6080 C   0  0  0  0  0  3  0  0  0  0  0  0
  188.9960  175.5350  138.3260 C   0  0  0  0  0  2  0  0  0  0  0  0
  189.2230  175.0870  136.8880 C   0  0  0  0  0  1  0  0  0  0  0  0
  191.5560  177.9920  141.3710 O   0  0  0  0  0  0  0  0  0  0  0  0
  192.0260  177.3460  142.5270 C   0  0  0  0  0  2  0  0  0  0  0  0
  191.9830  178.2310  143.6030 O   0  0  0  0  0  1  0  0  0  0  0  0
  2  6  1  6  0  0  0
  2  7  1  0  0  0  0
  3 35  1  6  0  0  0
  4 17  1  1  0  0  0
  4  8  1  0  0  0  0
  4 23  1  0  0  0  0
  5 20  1  1  0  0  0
  7 11  1  1  0  0  0
  7  5  1  0  0  0  0
  8  6  1  1  0  0  0
  9  5  1  0  0  0  0
 10  3  1  0  0  0  0
 11 15  1  0  0  0  0
 12 22  1  0  0  0  0
 13 18  1  0  0  0  0
 14  9  1  0  0  0  0
 15 19  1  6  0  0  0
 15 12  1  0  0  0  0
 16 23  1  0  0  0  0
 16 10  1  0  0  0  0
 18  2  1  0  0  0  0
 18 14  2  0  0  0  0
 20  1  1  0  0  0  0
 21 27  1  1  0  0  0
 21 25  1  0  0  0  0
 21  8  1  0  0  0  0
 22  1  1  0  0  0  0
 23 33  1  6  0  0  0
 23 24  1  0  0  0  0
 24  3  1  0  0  0  0
 24 19  1  1  0  0  0
 25 13  1  0  0  0  0
 26 27  1  0  0  0  0
 27 28  2  0  0  0  0
 30 31  2  0  0  0  0
 31 28  1  0  0  0  0
 31 29  1  0  0  0  0
 32 26  2  0  0  0  0
 32 30  1  0  0  0  0
 34 33  1  0  0  0  0
 35 36  1  0  0  0  0
 36 37  1  0  0  0  0
M  END
>  <MODEL>
2

>  <REMARK>
 VINA RESULT:      -6.1      1.188      1.403
  Name = 
  4 active torsions:
  status: ('A' for Active; 'I' for Inactive)
    1  A    between atoms: O_1  and  C_5
    2  A    between atoms: O_1  and  C_12
    3  A    between atoms: C_6  and  C_31
    4  A    between atoms: C_11  and  C_33
                            x       y       z     vdW  Elec       q    Type
                         _______ _______ _______ _____ _____    ______ ____

>  <TORSDO>
F 4

$$$$
=
 OpenBabel11052415153D

 37 42  0  0  1  0  0  0  0  0999 V2000
  189.6900  177.0040  143.3490 C   0  0  0  0  0  2  0  0  0  0  0  0
  186.6290  178.1570  140.1100 C   0  0  1  0  0  3  0  0  0  0  0  0
  190.6980  176.3870  137.3430 C   0  0  2  0  0  3  0  0  0  0  0  0
  187.2200  177.8340  136.7020 C   0  0  1  0  0  3  0  0  0  0  0  0
  187.5910  177.9700  142.3640 C   0  0  2  0  0  3  0  0  0  0  0  0
  186.7020  178.7990  138.8730 O   0  0  0  0  0  0  0  0  0  0  0  0
  187.7670  178.6460  141.0020 C   0  0  1  0  0  3  0  0  0  0  0  0
  186.3020  177.8320  137.9420 C   0  0  1  0  0  3  0  0  0  0  0  0
  186.3320  178.3570  142.9100 O   0  0  0  0  0  0  0  0  0  0  0  0
  190.7240  176.0720  135.5490 S   0  0  0  0  0  0  0  0  0  0  0  0
  189.1010  178.3210  140.3440 C   0  0  0  0  0  2  0  0  0  0  0  0
  190.6360  176.4180  141.0330 C   0  0  0  0  0  2  0  0  0  0  0  0
  184.0080  178.1080  139.9820 C   0  0  0  0  0  2  0  0  0  0  0  0
  185.1840  178.3940  142.1000 C   0  0  0  0  0  3  0  0  0  0  0  0
  189.3240  176.8160  140.3750 C   0  0  2  0  0  3  0  0  0  0  0  0
  189.0960  176.8480  135.3610 C   0  0  0  0  0  2  0  0  0  0  0  0
  187.7660  179.2280  136.3870 C   0  0  0  0  0  1  0  0  0  0  0  0
  185.2710  178.3390  140.7620 C   0  0  0  0  0  0  0  0  0  0  0  0
  188.9460  176.0860  139.0880 C   0  0  0  0  0  2  0  0  0  0  0  0
  188.7440  178.2110  143.3340 C   0  0  0  0  0  2  0  0  0  0  0  0
  184.8380  178.0720  137.5430 C   0  0  2  0  0  3  0  0  0  0  0  0
  190.8520  177.1620  142.3620 C   0  0  0  0  0  2  0  0  0  0  0  0
  188.2970  176.7110  136.6590 C   0  0  1  0  0  0  0  0  0  0  0  0
  189.3210  176.8490  137.8140 C   0  0  2  0  0  3  0  0  0  0  0  0
  184.0020  178.8000  138.6150 C   0  0  0  0  0  2  0  0  0  0  0  0
  183.1560  176.9070  136.1070 C   0  0  0  0  0  3  0  0  0  0  0  0
  184.1710  176.8170  137.0670 C   0  0  0  0  0  0  0  0  0  0  0  0
  184.5380  175.5620  137.5740 C   0  0  0  0  0  3  0  0  0  0  0  0
  184.2960  173.0780  137.6520 C   0  0  0  0  0  1  0  0  0  0  0  0
  182.8900  174.5010  136.1540 C   0  0  0  0  0  3  0  0  0  0  0  0
  183.9000  174.4060  137.1160 C   0  0  0  0  0  0  0  0  0  0  0  0
  182.5170  175.7510  135.6510 C   0  0  0  0  0  3  0  0  0  0  0  0
  187.6270  175.3210  136.6680 C   0  0  0  0  0  2  0  0  0  0  0  0
  187.1900  174.8530  135.2860 C   0  0  0  0  0  1  0  0  0  0  0  0
  191.7540  177.2130  137.7870 O   0  0  0  0  0  0  0  0  0  0  0  0
  192.8850  176.4170  138.0290 C   0  0  0  0  0  2  0  0  0  0  0  0
  193.9310  176.8370  137.2090 O   0  0  0  0  0  1  0  0  0  0  0  0
  2  6  1  6  0  0  0
  2 18  1  0  0  0  0
  2  7  1  0  0  0  0
  3 35  1  6  0  0  0
  3 24  1  0  0  0  0
  4 17  1  1  0  0  0
  4  8  1  0  0  0  0
  5  9  1  0  0  0  0
  5 20  1  1  0  0  0
  7 11  1  6  0  0  0
  7  5  1  0  0  0  0
  8  6  1  1  0  0  0
 10  3  1  0  0  0  0
 11 15  1  0  0  0  0
 12 22  1  0  0  0  0
 13 18  1  0  0  0  0
 14  9  1  0  0  0  0
 15 19  1  6  0  0  0
 15 12  1  0  0  0  0
 16 10  1  0  0  0  0
 16 23  1  0  0  0  0
 18 14  2  0  0  0  0
 20  1  1  0  0  0  0
 21 27  1  1  0  0  0
 21  8  1  0  0  0  0
 21 25  1  0  0  0  0
 22  1  1  0  0  0  0
 23 33  1  1  0  0  0
 23  4  1  0  0  0  0
 23 24  1  0  0  0  0
 24 19  1  1  0  0  0
 25 13  1  0  0  0  0
 26 27  1  0  0  0  0
 27 28  2  0  0  0  0
 30 31  2  0  0  0  0
 31 28  1  0  0  0  0
 31 29  1  0  0  0  0
 32 26  2  0  0  0  0
 32 30  1  0  0  0  0
 34 33  1  0  0  0  0
 35 36  1  0  0  0  0
 37 36  1  0  0  0  0
M  END
>  <MODEL>
3

>  <REMARK>
 VINA RESULT:      -5.8      1.375      1.530
  Name = 
  4 active torsions:
  status: ('A' for Active; 'I' for Inactive)
    1  A    between atoms: O_1  and  C_5
    2  A    between atoms: O_1  and  C_12
    3  A    between atoms: C_6  and  C_31
    4  A    between atoms: C_11  and  C_33
                            x       y       z     vdW  Elec       q    Type
                         _______ _______ _______ _____ _____    ______ ____

>  <TORSDO>
F 4

$$$$
=
 OpenBabel11052415153D

 37 42  0  0  1  0  0  0  0  0999 V2000
  186.8690  173.5710  136.8410 C   0  0  0  0  0  2  0  0  0  0  0  0
  184.2290  177.2320  137.7490 C   0  0  1  0  0  3  0  0  0  0  0  0
  180.7700  173.3360  137.2970 C   0  0  2  0  0  3  0  0  0  0  0  0
  180.7650  177.0970  137.9740 C   0  0  1  0  0  3  0  0  0  0  0  0
  186.2790  175.9830  137.2180 C   0  0  2  0  0  3  0  0  0  0  0  0
  183.0090  177.7070  137.2650 O   0  0  0  0  0  0  0  0  0  0  0  0
  184.9190  176.4120  136.6610 C   0  0  1  0  0  3  0  0  0  0  0  0
  182.1450  177.6640  138.3660 C   0  0  1  0  0  3  0  0  0  0  0  0
  187.0420  177.1500  137.5180 O   0  0  0  0  0  0  0  0  0  0  0  0
  178.9930  173.4230  137.6900 S   0  0  0  0  0  0  0  0  0  0  0  0
  184.0350  175.2330  136.2790 C   0  0  0  0  0  2  0  0  0  0  0  0
  184.4150  172.8320  137.0140 C   0  0  0  0  0  2  0  0  0  0  0  0
  184.5560  179.3990  139.1910 C   0  0  0  0  0  2  0  0  0  0  0  0
  186.4430  178.2480  138.1600 C   0  0  0  0  0  3  0  0  0  0  0  0
  184.0010  174.2350  137.4270 C   0  0  2  0  0  3  0  0  0  0  0  0
  179.1030  175.2190  137.9140 C   0  0  0  0  0  2  0  0  0  0  0  0
  180.3840  177.4410  136.5330 C   0  0  0  0  0  1  0  0  0  0  0  0
  185.1090  178.3540  138.2650 C   0  0  0  0  0  0  0  0  0  0  0  0
  182.7860  174.3570  138.3450 C   0  0  0  0  0  2  0  0  0  0  0  0
  187.0390  175.0060  136.3260 C   0  0  0  0  0  2  0  0  0  0  0  0
  182.0100  179.0700  138.9720 C   0  0  2  0  0  3  0  0  0  0  0  0
  185.6990  172.8460  136.1680 C   0  0  0  0  0  2  0  0  0  0  0  0
  180.5170  175.6070  138.3520 C   0  0  1  0  0  0  0  0  0  0  0  0
  181.4790  174.6530  137.6020 C   0  0  2  0  0  3  0  0  0  0  0  0
  183.2220  179.9870  138.7190 C   0  0  0  0  0  2  0  0  0  0  0  0
  180.2890  179.1650  140.7830 C   0  0  0  0  0  3  0  0  0  0  0  0
  181.6340  179.0230  140.4230 C   0  0  0  0  0  0  0  0  0  0  0  0
  182.6060  178.8520  141.4200 C   0  0  0  0  0  3  0  0  0  0  0  0
  183.2630  178.6280  143.8190 C   0  0  0  0  0  1  0  0  0  0  0  0
  180.8860  178.9530  143.1210 C   0  0  0  0  0  3  0  0  0  0  0  0
  182.2320  178.8150  142.7660 C   0  0  0  0  0  0  0  0  0  0  0  0
  179.9160  179.1290  142.1300 C   0  0  0  0  0  3  0  0  0  0  0  0
  180.6180  175.4160  139.8810 C   0  0  0  0  0  2  0  0  0  0  0  0
  179.3170  175.7190  140.6130 C   0  0  0  0  0  1  0  0  0  0  0  0
  181.0390  172.8350  136.0050 O   0  0  0  0  0  0  0  0  0  0  0  0
  180.7270  171.4660  135.9720 C   0  0  0  0  0  2  0  0  0  0  0  0
  181.8840  170.7320  135.7180 O   0  0  0  0  0  1  0  0  0  0  0  0
  2  6  1  6  0  0  0
  2 18  1  0  0  0  0
  3 35  1  6  0  0  0
  3 24  1  0  0  0  0
  3 10  1  0  0  0  0
  4 17  1  6  0  0  0
  4 23  1  0  0  0  0
  4  8  1  0  0  0  0
  5 20  1  6  0  0  0
  5  9  1  0  0  0  0
  7 11  1  1  0  0  0
  7  5  1  0  0  0  0
  7  2  1  0  0  0  0
  8  6  1  6  0  0  0
  8 21  1  0  0  0  0
  9 14  1  0  0  0  0
 10 16  1  0  0  0  0
 12 15  1  0  0  0  0
 14 18  2  0  0  0  0
 15 11  1  6  0  0  0
 15 19  1  0  0  0  0
 16 23  1  0  0  0  0
 18 13  1  0  0  0  0
 20  1  1  0  0  0  0
 21 27  1  1  0  0  0
 22  1  1  0  0  0  0
 22 12  1  0  0  0  0
 23 33  1  1  0  0  0
 24 19  1  1  0  0  0
 24 23  1  0  0  0  0
 25 21  1  0  0  0  0
 25 13  1  0  0  0  0
 26 32  1  0  0  0  0
 27 26  2  0  0  0  0
 27 28  1  0  0  0  0
 28 31  2  0  0  0  0
 31 30  1  0  0  0  0
 31 29  1  0  0  0  0
 32 30  2  0  0  0  0
 33 34  1  0  0  0  0
 36 35  1  0  0  0  0
 37 36  1  0  0  0  0
M  END
>  <MODEL>
4

>  <REMARK>
 VINA RESULT:      -5.6      4.367      8.398
  Name = 
  4 active torsions:
  status: ('A' for Active; 'I' for Inactive)
    1  A    between atoms: O_1  and  C_5
    2  A    between atoms: O_1  and  C_12
    3  A    between atoms: C_6  and  C_31
    4  A    between atoms: C_11  and  C_33
                            x       y       z     vdW  Elec       q    Type
                         _______ _______ _______ _____ _____    ______ ____

>  <TORSDO>
F 4

$$$$
=
 OpenBabel11052415153D

 37 42  0  0  1  0  0  0  0  0999 V2000
  187.8310  171.7830  136.1000 C   0  0  0  0  0  2  0  0  0  0  0  0
  186.4850  176.0730  137.0900 C   0  0  1  0  0  3  0  0  0  0  0  0
  181.9700  173.5090  136.4710 C   0  0  2  0  0  3  0  0  0  0  0  0
  183.1570  177.0530  137.2670 C   0  0  1  0  0  3  0  0  0  0  0  0
  188.0370  174.2470  136.5470 C   0  0  2  0  0  3  0  0  0  0  0  0
  185.4930  176.9280  136.6060 O   0  0  0  0  0  0  0  0  0  0  0  0
  186.8990  175.1040  135.9860 C   0  0  1  0  0  3  0  0  0  0  0  0
  184.6370  177.1360  137.6950 C   0  0  1  0  0  3  0  0  0  0  0  0
  189.1270  175.0980  136.8930 O   0  0  0  0  0  0  0  0  0  0  0  0
  180.3070  174.1520  136.8440 S   0  0  0  0  0  0  0  0  0  0  0  0
  185.6920  174.2820  135.5550 C   0  0  0  0  0  2  0  0  0  0  0  0
  185.2660  171.8670  136.2190 C   0  0  0  0  0  2  0  0  0  0  0  0
  187.4580  177.9820  138.6050 C   0  0  0  0  0  2  0  0  0  0  0  0
  188.8990  176.3130  137.5620 C   0  0  0  0  0  3  0  0  0  0  0  0
  185.3150  173.3190  136.6700 C   0  0  2  0  0  3  0  0  0  0  0  0
  180.9820  175.8110  137.1270 C   0  0  0  0  0  2  0  0  0  0  0  0
  182.9390  177.5390  135.8330 C   0  0  0  0  0  1  0  0  0  0  0  0
  187.6670  176.8390  137.6530 C   0  0  0  0  0  0  0  0  0  0  0  0
  184.1830  173.8000  137.5760 C   0  0  0  0  0  2  0  0  0  0  0  0
  188.4630  173.1000  135.6340 C   0  0  0  0  0  2  0  0  0  0  0  0
  184.9460  178.4950  138.3430 C   0  0  2  0  0  3  0  0  0  0  0  0
  186.5050  171.4900  135.3890 C   0  0  0  0  0  2  0  0  0  0  0  0
  182.4360  175.7130  137.5950 C   0  0  1  0  0  0  0  0  0  0  0  0
  183.0570  174.5200  136.8270 C   0  0  2  0  0  3  0  0  0  0  0  0
  186.3940  178.9800  138.1340 C   0  0  0  0  0  2  0  0  0  0  0  0
  183.2240  178.8650  140.1170 C   0  0  0  0  0  3  0  0  0  0  0  0
  184.5440  178.5340  139.7870 C   0  0  0  0  0  0  0  0  0  0  0  0
  185.4660  178.2560  140.8070 C   0  0  0  0  0  3  0  0  0  0  0  0
  186.0470  178.0010  143.2220 C   0  0  0  0  0  1  0  0  0  0  0  0
  183.7480  178.6290  142.4700 C   0  0  0  0  0  3  0  0  0  0  0  0
  185.0680  178.3010  142.1450 C   0  0  0  0  0  0  0  0  0  0  0  0
  182.8270  178.9110  141.4570 C   0  0  0  0  0  3  0  0  0  0  0  0
  182.4360  175.4590  139.1180 C   0  0  0  0  0  2  0  0  0  0  0  0
  181.1830  175.9750  139.8150 C   0  0  0  0  0  1  0  0  0  0  0  0
  182.0930  172.9820  135.1670 O   0  0  0  0  0  0  0  0  0  0  0  0
  181.7460  171.6210  135.1910 C   0  0  0  0  0  2  0  0  0  0  0  0
  181.9000  171.1260  136.4840 O   0  0  0  0  0  1  0  0  0  0  0  0
  2  6  1  6  0  0  0
  2 18  1  0  0  0  0
  3 35  1  6  0  0  0
  3 24  1  0  0  0  0
  3 10  1  0  0  0  0
  4 17  1  6  0  0  0
  4 23  1  0  0  0  0
  4  8  1  0  0  0  0
  5 20  1  6  0  0  0
  5  9  1  0  0  0  0
  7 11  1  1  0  0  0
  7  5  1  0  0  0  0
  7  2  1  0  0  0  0
  8  6  1  6  0  0  0
  8 21  1  0  0  0  0
  9 14  1  0  0  0  0
 10 16  1  0  0  0  0
 12 15  1  0  0  0  0
 14 18  2  0  0  0  0
 15 11  1  6  0  0  0
 15 19  1  0  0  0  0
 16 23  1  0  0  0  0
 18 13  1  0  0  0  0
 20  1  1  0  0  0  0
 21 27  1  1  0  0  0
 22  1  1  0  0  0  0
 22 12  1  0  0  0  0
 23 33  1  1  0  0  0
 24 19  1  1  0  0  0
 24 23  1  0  0  0  0
 25 21  1  0  0  0  0
 25 13  1  0  0  0  0
 26 32  1  0  0  0  0
 27 26  2  0  0  0  0
 27 28  1  0  0  0  0
 28 31  2  0  0  0  0
 31 30  1  0  0  0  0
 31 29  1  0  0  0  0
 32 30  2  0  0  0  0
 33 34  1  0  0  0  0
 35 36  1  0  0  0  0
 36 37  1  0  0  0  0
M  END
>  <MODEL>
5

>  <REMARK>
 VINA RESULT:      -5.1      3.658      7.855
  Name = 
  4 active torsions:
  status: ('A' for Active; 'I' for Inactive)
    1  A    between atoms: O_1  and  C_5
    2  A    between atoms: O_1  and  C_12
    3  A    between atoms: C_6  and  C_31
    4  A    between atoms: C_11  and  C_33
                            x       y       z     vdW  Elec       q    Type
                         _______ _______ _______ _____ _____    ______ ____

>  <TORSDO>
F 4

$$$$
=
 OpenBabel11052415153D

 37 42  0  0  1  0  0  0  0  0999 V2000
  185.3930  170.3460  135.5310 C   0  0  0  0  0  2  0  0  0  0  0  0
  185.8880  174.9110  135.8520 C   0  0  1  0  0  3  0  0  0  0  0  0
  180.9220  174.1360  137.2940 C   0  0  2  0  0  3  0  0  0  0  0  0
  183.3370  177.0590  136.8220 C   0  0  1  0  0  3  0  0  0  0  0  0
  186.4900  172.5930  135.2980 C   0  0  2  0  0  3  0  0  0  0  0  0
  185.0980  176.0110  135.5140 O   0  0  0  0  0  0  0  0  0  0  0  0
  185.5430  173.7410  134.9340 C   0  0  1  0  0  3  0  0  0  0  0  0
  184.8180  176.6400  136.7350 C   0  0  1  0  0  3  0  0  0  0  0  0
  187.8330  173.0170  135.0760 O   0  0  0  0  0  0  0  0  0  0  0  0
  179.8000  175.3830  138.0040 S   0  0  0  0  0  0  0  0  0  0  0  0
  184.0750  173.3780  135.1080 C   0  0  0  0  0  2  0  0  0  0  0  0
  183.2160  171.3800  136.4210 C   0  0  0  0  0  2  0  0  0  0  0  0
  187.8880  176.4850  136.4940 C   0  0  0  0  0  2  0  0  0  0  0  0
  188.2520  174.2980  135.4770 C   0  0  0  0  0  3  0  0  0  0  0  0
  183.8690  172.7520  136.4790 C   0  0  2  0  0  3  0  0  0  0  0  0
  181.0010  176.6980  137.6630 C   0  0  0  0  0  2  0  0  0  0  0  0
  182.7560  177.4280  135.4550 C   0  0  0  0  0  1  0  0  0  0  0  0
  187.3670  175.2470  135.8210 C   0  0  0  0  0  0  0  0  0  0  0  0
  183.3630  173.7140  137.5530 C   0  0  0  0  0  2  0  0  0  0  0  0
  186.1730  171.2760  134.5940 C   0  0  0  0  0  2  0  0  0  0  0  0
  185.7450  177.8520  136.9150 C   0  0  2  0  0  3  0  0  0  0  0  0
  183.8770  170.4830  135.3590 C   0  0  0  0  0  2  0  0  0  0  0  0
  182.4210  176.1240  137.6640 C   0  0  1  0  0  0  0  0  0  0  0  0
  182.3150  174.7090  137.0440 C   0  0  2  0  0  3  0  0  0  0  0  0
  187.0830  177.7440  136.1570 C   0  0  0  0  0  2  0  0  0  0  0  0
  184.8780  178.7420  139.0840 C   0  0  0  0  0  3  0  0  0  0  0  0
  185.9450  178.1970  138.3600 C   0  0  0  0  0  0  0  0  0  0  0  0
  187.1810  177.9950  138.9920 C   0  0  0  0  0  3  0  0  0  0  0  0
  188.6530  178.1060  141.0060 C   0  0  0  0  0  1  0  0  0  0  0  0
  186.2740  178.8670  141.0590 C   0  0  0  0  0  3  0  0  0  0  0  0
  187.3440  178.3270  140.3400 C   0  0  0  0  0  0  0  0  0  0  0  0
  185.0420  179.0750  140.4320 C   0  0  0  0  0  3  0  0  0  0  0  0
  182.9140  176.0600  139.1260 C   0  0  0  0  0  2  0  0  0  0  0  0
  182.1140  176.9470  140.0710 C   0  0  0  0  0  1  0  0  0  0  0  0
  180.3810  173.4580  136.1790 O   0  0  0  0  0  0  0  0  0  0  0  0
  179.1810  172.8360  136.5620 C   0  0  0  0  0  2  0  0  0  0  0  0
  179.4660  171.6290  137.1960 O   0  0  0  0  0  1  0  0  0  0  0  0
  2  6  1  6  0  0  0
  3 35  1  6  0  0  0
  3 10  1  0  0  0  0
  4 17  1  6  0  0  0
  4 23  1  0  0  0  0
  5 20  1  6  0  0  0
  7 11  1  1  0  0  0
  7  5  1  0  0  0  0
  7  2  1  0  0  0  0
  8  6  1  6  0  0  0
  8  4  1  0  0  0  0
  8 21  1  0  0  0  0
  9  5  1  0  0  0  0
  9 14  1  0  0  0  0
 12 15  1  0  0  0  0
 14 18  2  0  0  0  0
 15 11  1  6  0  0  0
 15 19  1  0  0  0  0
 16 23  1  0  0  0  0
 16 10  1  0  0  0  0
 18  2  1  0  0  0  0
 18 13  1  0  0  0  0
 20  1  1  0  0  0  0
 21 27  1  1  0  0  0
 22  1  1  0  0  0  0
 22 12  1  0  0  0  0
 23 33  1  1  0  0  0
 24  3  1  0  0  0  0
 24 19  1  1  0  0  0
 24 23  1  0  0  0  0
 25 13  1  0  0  0  0
 25 21  1  0  0  0  0
 26 32  1  0  0  0  0
 27 28  1  0  0  0  0
 27 26  2  0  0  0  0
 28 31  2  0  0  0  0
 31 29  1  0  0  0  0
 31 30  1  0  0  0  0
 32 30  2  0  0  0  0
 33 34  1  0  0  0  0
 35 36  1  0  0  0  0
 36 37  1  0  0  0  0
M  END
>  <MODEL>
6

>  <REMARK>
 VINA RESULT:      -4.6      4.076      8.637
  Name = 
  4 active torsions:
  status: ('A' for Active; 'I' for Inactive)
    1  A    between atoms: O_1  and  C_5
    2  A    between atoms: O_1  and  C_12
    3  A    between atoms: C_6  and  C_31
    4  A    between atoms: C_11  and  C_33
                            x       y       z     vdW  Elec       q    Type
                         _______ _______ _______ _____ _____    ______ ____

>  <TORSDO>
F 4

$$$$
=
 OpenBabel11052415153D

 37 42  0  0  1  0  0  0  0  0999 V2000
  190.0590  177.3460  142.2490 C   0  0  0  0  0  2  0  0  0  0  0  0
  186.5240  178.2380  139.4380 C   0  0  1  0  0  3  0  0  0  0  0  0
  189.9420  175.7860  136.3310 C   0  0  2  0  0  3  0  0  0  0  0  0
  186.4780  177.3780  136.0730 C   0  0  1  0  0  3  0  0  0  0  0  0
  187.8660  178.3110  141.4960 C   0  0  2  0  0  3  0  0  0  0  0  0
  186.4050  178.6850  138.1210 O   0  0  0  0  0  0  0  0  0  0  0  0
  187.8260  178.7660  140.0350 C   0  0  1  0  0  3  0  0  0  0  0  0
  185.7990  177.6250  137.4360 C   0  0  1  0  0  3  0  0  0  0  0  0
  186.7450  178.8660  142.1820 O   0  0  0  0  0  0  0  0  0  0  0  0
  189.6320  175.2120  134.6310 S   0  0  0  0  0  0  0  0  0  0  0  0
  189.0030  178.2500  139.2200 C   0  0  0  0  0  2  0  0  0  0  0  0
  190.5460  176.3600  139.9270 C   0  0  0  0  0  2  0  0  0  0  0  0
  183.9240  178.3660  139.7670 C   0  0  0  0  0  2  0  0  0  0  0  0
  185.4730  178.8690  141.5830 C   0  0  0  0  0  3  0  0  0  0  0  0
  189.1570  176.7540  139.4480 C   0  0  2  0  0  3  0  0  0  0  0  0
  188.0350  176.0700  134.6030 C   0  0  0  0  0  2  0  0  0  0  0  0
  187.0240  178.6670  135.4550 C   0  0  0  0  0  1  0  0  0  0  0  0
  185.3160  178.6130  140.2750 C   0  0  0  0  0  0  0  0  0  0  0  0
  188.5200  175.8740  138.3740 C   0  0  0  0  0  2  0  0  0  0  0  0
  189.1840  178.6050  142.2070 C   0  0  0  0  0  2  0  0  0  0  0  0
  184.3000  177.9130  137.2590 C   0  0  2  0  0  3  0  0  0  0  0  0
  191.0310  177.2720  141.0670 C   0  0  0  0  0  2  0  0  0  0  0  0
  187.4760  176.1840  136.0240 C   0  0  1  0  0  0  0  0  0  0  0  0
  188.6960  176.4130  136.9510 C   0  0  2  0  0  3  0  0  0  0  0  0
  183.7060  178.8490  138.3300 C   0  0  0  0  0  2  0  0  0  0  0  0
  183.6500  175.8880  135.9440 C   0  0  0  0  0  3  0  0  0  0  0  0
  183.5000  176.6550  137.1060 C   0  0  0  0  0  0  0  0  0  0  0  0
  182.5980  176.2410  138.0980 C   0  0  0  0  0  3  0  0  0  0  0  0
  180.9120  174.6280  138.9880 C   0  0  0  0  0  1  0  0  0  0  0  0
  182.0180  174.3020  136.7710 C   0  0  0  0  0  3  0  0  0  0  0  0
  181.8610  175.0650  137.9320 C   0  0  0  0  0  0  0  0  0  0  0  0
  182.9120  174.7140  135.7770 C   0  0  0  0  0  3  0  0  0  0  0  0
  186.7530  174.8640  136.3650 C   0  0  0  0  0  2  0  0  0  0  0  0
  186.5200  173.9730  135.1510 C   0  0  0  0  0  1  0  0  0  0  0  0
  191.0990  176.5880  136.4550 O   0  0  0  0  0  0  0  0  0  0  0  0
  192.1620  175.9600  135.7860 C   0  0  0  0  0  2  0  0  0  0  0  0
  193.0230  175.3870  136.7190 O   0  0  0  0  0  1  0  0  0  0  0  0
  2  6  1  6  0  0  0
  2  7  1  0  0  0  0
  2 18  1  0  0  0  0
  3 35  1  6  0  0  0
  3 24  1  0  0  0  0
  4 17  1  1  0  0  0
  4  8  1  0  0  0  0
  5  9  1  0  0  0  0
  5 20  1  1  0  0  0
  7 11  1  6  0  0  0
  7  5  1  0  0  0  0
  8  6  1  6  0  0  0
 10  3  1  0  0  0  0
 11 15  1  0  0  0  0
 12 22  1  0  0  0  0
 13 18  1  0  0  0  0
 14  9  1  0  0  0  0
 15 19  1  6  0  0  0
 15 12  1  0  0  0  0
 16 10  1  0  0  0  0
 16 23  1  0  0  0  0
 18 14  2  0  0  0  0
 20  1  1  0  0  0  0
 21 27  1  1  0  0  0
 21  8  1  0  0  0  0
 21 25  1  0  0  0  0
 22  1  1  0  0  0  0
 23  4  1  0  0  0  0
 23 33  1  1  0  0  0
 23 24  1  0  0  0  0
 24 19  1  1  0  0  0
 25 13  1  0  0  0  0
 26 27  1  0  0  0  0
 27 28  2  0  0  0  0
 30 31  2  0  0  0  0
 31 28  1  0  0  0  0
 31 29  1  0  0  0  0
 32 26  2  0  0  0  0
 32 30  1  0  0  0  0
 34 33  1  0  0  0  0
 36 35  1  0  0  0  0
 36 37  1  0  0  0  0
M  END
>  <MODEL>
7

>  <REMARK>
 VINA RESULT:      -4.0      2.025      2.638
  Name = 
  4 active torsions:
  status: ('A' for Active; 'I' for Inactive)
    1  A    between atoms: O_1  and  C_5
    2  A    between atoms: O_1  and  C_12
    3  A    between atoms: C_6  and  C_31
    4  A    between atoms: C_11  and  C_33
                            x       y       z     vdW  Elec       q    Type
                         _______ _______ _______ _____ _____    ______ ____

>  <TORSDO>
F 4

$$$$
=
 OpenBabel11052415153D

 37 42  0  0  1  0  0  0  0  0999 V2000
  188.4820  178.5610  138.8960 C   0  0  0  0  0  2  0  0  0  0  0  0
  184.4200  177.5130  137.0020 C   0  0  1  0  0  3  0  0  0  0  0  0
  183.1620  178.7870  141.9150 C   0  0  2  0  0  3  0  0  0  0  0  0
  181.4080  177.6120  138.7300 C   0  0  1  0  0  3  0  0  0  0  0  0
  186.8630  177.7300  137.1660 C   0  0  2  0  0  3  0  0  0  0  0  0
  183.2930  176.8050  137.4230 O   0  0  0  0  0  0  0  0  0  0  0  0
  185.6530  176.9730  137.7220 C   0  0  1  0  0  3  0  0  0  0  0  0
  182.2640  177.7550  137.4540 C   0  0  1  0  0  3  0  0  0  0  0  0
  186.9580  177.4800  135.7650 O   0  0  0  0  0  0  0  0  0  0  0  0
  181.4770  179.0080  142.5720 S   0  0  0  0  0  0  0  0  0  0  0  0
  185.4800  177.1500  139.2240 C   0  0  0  0  0  2  0  0  0  0  0  0
  186.6130  178.9470  140.6170 C   0  0  0  0  0  2  0  0  0  0  0  0
  183.4120  177.7780  134.5940 C   0  0  0  0  0  2  0  0  0  0  0  0
  185.8080  177.5000  134.9570 C   0  0  0  0  0  3  0  0  0  0  0  0
  185.5570  178.6300  139.5690 C   0  0  2  0  0  3  0  0  0  0  0  0
  180.7640  178.3650  141.0340 C   0  0  0  0  0  2  0  0  0  0  0  0
  181.3220  176.1620  139.2110 C   0  0  0  0  0  1  0  0  0  0  0  0
  184.5770  177.4800  135.4930 C   0  0  0  0  0  0  0  0  0  0  0  0
  184.2050  179.3240  139.7180 C   0  0  0  0  0  2  0  0  0  0  0  0
  188.1700  177.4400  137.8980 C   0  0  0  0  0  2  0  0  0  0  0  0
  181.3980  177.6200  136.1920 C   0  0  2  0  0  3  0  0  0  0  0  0
  187.9500  178.2550  140.3010 C   0  0  0  0  0  2  0  0  0  0  0  0
  181.7120  178.6350  139.8630 C   0  0  1  0  0  0  0  0  0  0  0  0
  183.1470  178.4680  140.4220 C   0  0  2  0  0  3  0  0  0  0  0  0
  182.1360  177.0220  134.9790 C   0  0  0  0  0  2  0  0  0  0  0  0
  179.5970  178.8690  134.9890 C   0  0  0  0  0  3  0  0  0  0  0  0
  180.7000  178.9020  135.8490 C   0  0  0  0  0  0  0  0  0  0  0  0
  181.1410  180.1300  136.3660 C   0  0  0  0  0  3  0  0  0  0  0  0
  180.9430  182.6100  136.5830 C   0  0  0  0  0  1  0  0  0  0  0  0
  179.3720  181.2730  135.1720 C   0  0  0  0  0  3  0  0  0  0  0  0
  180.4760  181.3130  136.0290 C   0  0  0  0  0  0  0  0  0  0  0  0
  178.9340  180.0520  134.6510 C   0  0  0  0  0  3  0  0  0  0  0  0
  181.4680  180.0770  139.3670 C   0  0  0  0  0  2  0  0  0  0  0  0
  180.0650  180.5880  139.6680 C   0  0  0  0  0  1  0  0  0  0  0  0
  183.9520  177.8970  142.6750 O   0  0  0  0  0  0  0  0  0  0  0  0
  184.5150  178.5970  143.7550 C   0  0  0  0  0  2  0  0  0  0  0  0
  185.8090  178.1330  143.9840 O   0  0  0  0  0  1  0  0  0  0  0  0
  1 22  1  0  0  0  0
  2 18  1  6  0  0  0
  2  6  1  0  0  0  0
  2  7  1  0  0  0  0
  3 10  1  0  0  0  0
  3 35  1  1  0  0  0
  4 17  1  1  0  0  0
  4 23  1  0  0  0  0
  5  7  1  0  0  0  0
  5 20  1  1  0  0  0
  7 11  1  1  0  0  0
  8  6  1  6  0  0  0
  8  4  1  0  0  0  0
  9  5  1  0  0  0  0
 13 25  1  0  0  0  0
 13 18  1  0  0  0  0
 14 18  2  0  0  0  0
 14  9  1  0  0  0  0
 15 11  1  1  0  0  0
 15 19  1  0  0  0  0
 15 12  1  0  0  0  0
 16 10  1  0  0  0  0
 20  1  1  0  0  0  0
 21 27  1  6  0  0  0
 21  8  1  0  0  0  0
 22 12  1  0  0  0  0
 23 33  1  6  0  0  0
 23 24  1  0  0  0  0
 23 16  1  0  0  0  0
 24 19  1  6  0  0  0
 24  3  1  0  0  0  0
 25 21  1  0  0  0  0
 26 27  1  0  0  0  0
 27 28  2  0  0  0  0
 30 31  2  0  0  0  0
 31 28  1  0  0  0  0
 31 29  1  0  0  0  0
 32 26  2  0  0  0  0
 32 30  1  0  0  0  0
 33 34  1  0  0  0  0
 35 36  1  0  0  0  0
 36 37  1  0  0  0  0
M  END
>  <MODEL>
8

>  <REMARK>
 VINA RESULT:      -3.6      3.776      7.198
  Name = 
  4 active torsions:
  status: ('A' for Active; 'I' for Inactive)
    1  A    between atoms: O_1  and  C_5
    2  A    between atoms: O_1  and  C_12
    3  A    between atoms: C_6  and  C_31
    4  A    between atoms: C_11  and  C_33
                            x       y       z     vdW  Elec       q    Type
                         _______ _______ _______ _____ _____    ______ ____

>  <TORSDO>
F 4

$$$$
=
 OpenBabel11052415153D

 37 42  0  0  1  0  0  0  0  0999 V2000
  186.1380  177.8420  145.2310 C   0  0  0  0  0  2  0  0  0  0  0  0
  182.7210  178.9440  142.3490 C   0  0  1  0  0  3  0  0  0  0  0  0
  186.7520  178.0370  139.1430 C   0  0  2  0  0  3  0  0  0  0  0  0
  183.0850  179.0840  138.8980 C   0  0  1  0  0  3  0  0  0  0  0  0
  183.8690  178.6320  144.5000 C   0  0  2  0  0  3  0  0  0  0  0  0
  182.6220  179.7250  141.1970 O   0  0  0  0  0  0  0  0  0  0  0  0
  183.8570  179.4740  143.2220 C   0  0  1  0  0  3  0  0  0  0  0  0
  182.2720  178.8250  140.1820 C   0  0  1  0  0  3  0  0  0  0  0  0
  182.6180  178.7890  145.1660 O   0  0  0  0  0  0  0  0  0  0  0  0
  186.6800  177.9310  137.3270 S   0  0  0  0  0  0  0  0  0  0  0  0
  185.1660  179.3990  142.4490 C   0  0  0  0  0  2  0  0  0  0  0  0
  186.9690  177.6460  142.8070 C   0  0  0  0  0  2  0  0  0  0  0  0
  180.1240  178.5720  142.3780 C   0  0  0  0  0  2  0  0  0  0  0  0
  181.4150  178.7680  144.4390 C   0  0  0  0  0  3  0  0  0  0  0  0
  185.5720  177.9430  142.2840 C   0  0  2  0  0  3  0  0  0  0  0  0
  184.9600  178.5060  137.3340 C   0  0  0  0  0  2  0  0  0  0  0  0
  183.4330  180.5640  138.7200 C   0  0  0  0  0  1  0  0  0  0  0  0
  181.4060  178.8750  143.1010 C   0  0  0  0  0  0  0  0  0  0  0  0
  185.1880  177.3180  140.9440 C   0  0  0  0  0  2  0  0  0  0  0  0
  185.0550  178.9100  145.4200 C   0  0  0  0  0  2  0  0  0  0  0  0
  180.7640  178.9170  139.9070 C   0  0  2  0  0  3  0  0  0  0  0  0
  187.1940  178.2590  144.2000 C   0  0  0  0  0  2  0  0  0  0  0  0
  184.2850  178.1220  138.6530 C   0  0  1  0  0  0  0  0  0  0  0  0
  185.3690  178.2620  139.7500 C   0  0  2  0  0  3  0  0  0  0  0  0
  179.9300  179.4060  141.1070 C   0  0  0  0  0  2  0  0  0  0  0  0
  179.6890  177.6640  138.0290 C   0  0  0  0  0  3  0  0  0  0  0  0
  180.2190  177.6480  139.3240 C   0  0  0  0  0  0  0  0  0  0  0  0
  180.2230  176.4510  140.0570 C   0  0  0  0  0  3  0  0  0  0  0  0
  179.7180  174.0150  140.2720 C   0  0  0  0  0  1  0  0  0  0  0  0
  179.1820  175.3020  138.1980 C   0  0  0  0  0  3  0  0  0  0  0  0
  179.7070  175.2810  139.4940 C   0  0  0  0  0  0  0  0  0  0  0  0
  179.1720  176.4940  137.4670 C   0  0  0  0  0  3  0  0  0  0  0  0
  183.7910  176.6650  138.5360 C   0  0  0  0  0  2  0  0  0  0  0  0
  183.0360  176.3870  137.2420 C   0  0  0  0  0  1  0  0  0  0  0  0
  187.7310  178.9380  139.6180 O   0  0  0  0  0  0  0  0  0  0  0  0
  188.9040  178.2240  139.9100 C   0  0  0  0  0  2  0  0  0  0  0  0
  188.7600  176.9030  139.4890 O   0  0  0  0  0  1  0  0  0  0  0  0
  1 20  1  0  0  0  0
  2  6  1  6  0  0  0
  2 18  1  0  0  0  0
  2  7  1  0  0  0  0
  3 35  1  6  0  0  0
  3 24  1  0  0  0  0
  4 17  1  1  0  0  0
  4  8  1  0  0  0  0
  5  9  1  0  0  0  0
  5 20  1  1  0  0  0
  7 11  1  6  0  0  0
  7  5  1  0  0  0  0
  8  6  1  1  0  0  0
 10 16  1  0  0  0  0
 10  3  1  0  0  0  0
 12 22  1  0  0  0  0
 13 18  1  0  0  0  0
 14  9  1  0  0  0  0
 15 19  1  6  0  0  0
 15 11  1  0  0  0  0
 15 12  1  0  0  0  0
 16 23  1  0  0  0  0
 18 14  2  0  0  0  0
 21 27  1  1  0  0  0
 21  8  1  0  0  0  0
 21 25  1  0  0  0  0
 22  1  1  0  0  0  0
 23 33  1  6  0  0  0
 23  4  1  0  0  0  0
 23 24  1  0  0  0  0
 24 19  1  1  0  0  0
 25 13  1  0  0  0  0
 26 27  1  0  0  0  0
 27 28  2  0  0  0  0
 30 31  2  0  0  0  0
 31 28  1  0  0  0  0
 31 29  1  0  0  0  0
 32 26  2  0  0  0  0
 32 30  1  0  0  0  0
 34 33  1  0  0  0  0
 35 36  1  0  0  0  0
 37 36  1  0  0  0  0
M  END
>  <MODEL>
9

>  <REMARK>
 VINA RESULT:      -3.6      3.197      4.818
  Name = 
  4 active torsions:
  status: ('A' for Active; 'I' for Inactive)
    1  A    between atoms: O_1  and  C_5
    2  A    between atoms: O_1  and  C_12
    3  A    between atoms: C_6  and  C_31
    4  A    between atoms: C_11  and  C_33
                            x       y       z     vdW  Elec       q    Type
                         _______ _______ _______ _____ _____    ______ ____

>  <TORSDO>
F 4

$$$$
