=
 OpenBabel11052416473D

 32 38  0  0  1  0  0  0  0  0999 V2000
  186.6580  177.7990  146.6620 C   0  0  0  0  0  2  0  0  0  0  0  0
  184.8460  178.6750  141.7660 C   0  0  0  0  0  0  0  0  0  0  0  0
  180.4190  178.6220  143.8210 C   0  0  0  0  0  3  0  0  0  0  0  0
  180.0140  177.9050  142.7730 C   0  0  0  0  0  3  0  0  0  0  0  0
  185.1310  178.2400  139.3580 C   0  0  0  0  0  0  0  0  0  0  0  0
  184.5790  177.8820  138.1220 C   0  0  0  0  0  0  0  0  0  0  0  0
  186.4650  178.1730  143.6160 C   0  0  1  0  0  3  0  0  0  0  0  0
  184.5780  179.7360  144.0770 C   0  0  0  0  0  2  0  0  0  0  0  0
  182.7410  177.2940  136.6560 C   0  0  2  0  0  3  0  0  0  0  0  0
  185.8540  178.9020  145.9920 C   0  0  0  0  0  2  0  0  0  0  0  0
  181.6910  179.4220  143.7720 C   0  0  0  0  0  2  0  0  0  0  0  0
  183.9720  179.4940  142.6880 C   0  0  2  0  0  3  0  0  0  0  0  0
  182.6180  178.9300  142.7430 N   0  0  0  0  0  0  0  0  0  0  0  0
  182.9560  178.1490  140.3550 C   0  0  0  0  0  0  0  0  0  0  0  0
  184.2190  177.0570  135.6080 S   0  0  0  0  0  0  0  0  0  0  0  0
  188.2950  176.9560  144.9040 C   0  0  0  0  0  2  0  0  0  0  0  0
  185.3360  178.5250  144.6030 C   0  0  2  0  0  3  0  0  0  0  0  0
  185.3610  177.7160  136.8730 C   0  0  0  0  0  2  0  0  0  0  0  0
  187.0800  176.8290  143.9860 C   0  0  0  0  0  2  0  0  0  0  0  0
  188.0880  177.8420  146.1350 C   0  0  2  0  0  3  0  0  0  0  0  0
  180.8450  177.8050  141.5660 C   0  0  0  0  0  3  0  0  0  0  0  0
  182.0880  178.2980  141.5530 C   0  0  0  0  0  0  0  0  0  0  0  0
  182.3960  177.7920  139.1170 C   0  0  0  0  0  3  0  0  0  0  0  0
  185.9340  178.0370  142.2200 C   0  0  0  0  0  3  0  0  0  0  0  0
  186.3700  178.4620  139.4430 O   0  0  0  0  0  0  0  0  0  0  0  0
  181.8940  178.4120  136.0760 C   0  0  0  0  0  1  0  0  0  0  0  0
  184.3140  178.3570  140.4610 N   0  0  0  0  0  0  0  0  0  0  0  0
  183.2250  177.6660  138.0080 C   0  0  0  0  0  0  0  0  0  0  0  0
  189.0670  177.4210  147.2170 C   0  0  0  0  0  2  0  0  0  0  0  0
  190.3990  177.0280  146.6070 C   0  0  0  0  0  3  0  0  0  0  0  0
  190.9010  175.9300  147.2670 O   0  0  0  0  0  0  0  0  0  0  0  0
  191.3900  177.1450  147.5540 O   0  0  0  0  0  0  0  0  0  0  0  0
  2 24  2  0  0  0  0
  2 12  1  0  0  0  0
  4  3  2  0  0  0  0
  5 25  2  0  0  0  0
  5 27  1  0  0  0  0
  6  5  1  0  0  0  0
  7 24  1  6  0  0  0
  7 19  1  0  0  0  0
  7 17  1  0  0  0  0
  9 26  1  6  0  0  0
  9 28  1  0  0  0  0
 10  1  1  0  0  0  0
 11  3  1  0  0  0  0
 12 13  1  0  0  0  0
 12  8  1  1  0  0  0
 13 11  1  0  0  0  0
 14 27  1  0  0  0  0
 14 22  1  0  0  0  0
 15  9  1  0  0  0  0
 15 18  1  0  0  0  0
 16 20  1  0  0  0  0
 17  8  1  6  0  0  0
 17 10  1  0  0  0  0
 18  6  1  0  0  0  0
 19 16  1  0  0  0  0
 20  1  1  0  0  0  0
 20 29  1  1  0  0  0
 21  4  1  0  0  0  0
 22 21  2  0  0  0  0
 22 13  1  0  0  0  0
 23 14  2  0  0  0  0
 27  2  1  0  0  0  0
 28  6  2  0  0  0  0
 28 23  1  0  0  0  0
 30 29  1  0  0  0  0
 30 31  1  0  0  0  0
 30 32  1  0  0  0  0
 31 32  1  0  0  0  0
M  END
>  <MODEL>
1

>  <REMARK>
 VINA RESULT:      -9.5      0.000      0.000
  Name = 
  2 active torsions:
  status: ('A' for Active; 'I' for Inactive)
    1  A    between atoms: C_1  and  C_10
    2  A    between atoms: C_10  and  C_24
                            x       y       z     vdW  Elec       q    Type
                         _______ _______ _______ _____ _____    ______ ____

>  <TORSDO>
F 2

$$$$
=
 OpenBabel11052416473D

 32 38  0  0  1  0  0  0  0  0999 V2000
  184.5450  178.2420  146.1410 C   0  0  0  0  0  2  0  0  0  0  0  0
  184.2450  178.5230  140.8630 C   0  0  0  0  0  0  0  0  0  0  0  0
  179.6270  177.0530  141.4430 C   0  0  0  0  0  3  0  0  0  0  0  0
  179.8220  176.2500  140.3960 C   0  0  0  0  0  3  0  0  0  0  0  0
  185.4140  178.2140  138.7170 C   0  0  0  0  0  0  0  0  0  0  0  0
  185.4290  177.7060  137.4130 C   0  0  0  0  0  0  0  0  0  0  0  0
  185.2470  178.5510  143.1640 C   0  0  1  0  0  3  0  0  0  0  0  0
  182.9330  179.4310  142.8620 C   0  0  0  0  0  2  0  0  0  0  0  0
  184.4350  176.5730  135.5150 C   0  0  2  0  0  3  0  0  0  0  0  0
  183.7080  179.0350  145.1500 C   0  0  0  0  0  2  0  0  0  0  0  0
  180.5400  178.2160  141.7110 C   0  0  0  0  0  2  0  0  0  0  0  0
  182.9140  179.0160  141.3850 C   0  0  2  0  0  3  0  0  0  0  0  0
  181.8540  178.0500  141.0740 N   0  0  0  0  0  0  0  0  0  0  0  0
  183.1690  177.4310  138.9960 C   0  0  0  0  0  0  0  0  0  0  0  0
  186.1720  176.8240  135.0040 S   0  0  0  0  0  0  0  0  0  0  0  0
  186.8370  177.9740  145.0680 C   0  0  0  0  0  2  0  0  0  0  0  0
  183.8080  178.5210  143.7130 C   0  0  2  0  0  3  0  0  0  0  0  0
  186.5850  177.8050  136.4900 C   0  0  0  0  0  2  0  0  0  0  0  0
  186.0850  177.4720  143.8360 C   0  0  0  0  0  2  0  0  0  0  0  0
  185.9840  178.7410  146.0810 C   0  0  2  0  0  3  0  0  0  0  0  0
  180.9880  176.4260  139.5220 C   0  0  0  0  0  3  0  0  0  0  0  0
  181.9570  177.2890  139.8460 C   0  0  0  0  0  0  0  0  0  0  0  0
  183.1770  176.9210  137.6870 C   0  0  0  0  0  3  0  0  0  0  0  0
  185.2660  178.2620  141.6920 C   0  0  0  0  0  3  0  0  0  0  0  0
  186.4290  178.8190  139.1590 O   0  0  0  0  0  0  0  0  0  0  0  0
  183.5260  177.3660  134.5940 C   0  0  0  0  0  1  0  0  0  0  0  0
  184.2890  178.0600  139.4960 N   0  0  0  0  0  0  0  0  0  0  0  0
  184.3180  177.0720  136.9070 C   0  0  0  0  0  0  0  0  0  0  0  0
  186.6370  178.6470  147.4490 C   0  0  0  0  0  2  0  0  0  0  0  0
  187.8110  177.6850  147.4140 C   0  0  0  0  0  3  0  0  0  0  0  0
  188.1820  177.3660  148.7010 O   0  0  0  0  0  0  0  0  0  0  0  0
  188.9010  178.2690  148.0180 O   0  0  0  0  0  0  0  0  0  0  0  0
  2 12  1  0  0  0  0
  2 24  2  0  0  0  0
  3 11  1  0  0  0  0
  4  3  2  0  0  0  0
  5 25  2  0  0  0  0
  5 27  1  0  0  0  0
  6  5  1  0  0  0  0
  7 24  1  6  0  0  0
  7 17  1  0  0  0  0
  7 19  1  0  0  0  0
  9 26  1  6  0  0  0
  9 28  1  0  0  0  0
 10  1  1  0  0  0  0
 12  8  1  1  0  0  0
 13 12  1  0  0  0  0
 13 11  1  0  0  0  0
 14 27  1  0  0  0  0
 14 22  1  0  0  0  0
 15  9  1  0  0  0  0
 15 18  1  0  0  0  0
 16 20  1  0  0  0  0
 17  8  1  6  0  0  0
 17 10  1  0  0  0  0
 18  6  1  0  0  0  0
 19 16  1  0  0  0  0
 20  1  1  0  0  0  0
 20 29  1  1  0  0  0
 21 22  2  0  0  0  0
 21  4  1  0  0  0  0
 22 13  1  0  0  0  0
 23 14  2  0  0  0  0
 27  2  1  0  0  0  0
 28  6  2  0  0  0  0
 28 23  1  0  0  0  0
 30 29  1  0  0  0  0
 30 32  1  0  0  0  0
 30 31  1  0  0  0  0
 32 31  1  0  0  0  0
M  END
>  <MODEL>
2

>  <REMARK>
 VINA RESULT:      -9.2      1.523      2.056
  Name = 
  2 active torsions:
  status: ('A' for Active; 'I' for Inactive)
    1  A    between atoms: C_1  and  C_10
    2  A    between atoms: C_10  and  C_24
                            x       y       z     vdW  Elec       q    Type
                         _______ _______ _______ _____ _____    ______ ____

>  <TORSDO>
F 2

$$$$
=
 OpenBabel11052416473D

 32 38  0  0  1  0  0  0  0  0999 V2000
  186.2620  177.6720  144.3790 C   0  0  0  0  0  2  0  0  0  0  0  0
  189.3250  177.5350  140.0640 C   0  0  0  0  0  0  0  0  0  0  0  0
  185.1330  177.3030  137.5770 C   0  0  0  0  0  3  0  0  0  0  0  0
  185.7170  176.3850  136.8080 C   0  0  0  0  0  3  0  0  0  0  0  0
  191.4370  176.7550  139.0640 C   0  0  0  0  0  0  0  0  0  0  0  0
  192.1180  176.1420  138.0060 C   0  0  0  0  0  0  0  0  0  0  0  0
  188.6830  177.5270  142.4900 C   0  0  1  0  0  3  0  0  0  0  0  0
  187.3450  178.9160  140.9090 C   0  0  0  0  0  2  0  0  0  0  0  0
  192.2460  175.1180  135.8120 C   0  0  2  0  0  3  0  0  0  0  0  0
  186.4340  178.5530  143.1510 C   0  0  0  0  0  2  0  0  0  0  0  0
  185.9450  178.2260  138.4410 C   0  0  0  0  0  2  0  0  0  0  0  0
  188.1290  178.3860  139.7010 C   0  0  2  0  0  3  0  0  0  0  0  0
  187.2810  177.6850  138.7290 N   0  0  0  0  0  0  0  0  0  0  0  0
  189.3830  176.5760  137.8480 C   0  0  0  0  0  0  0  0  0  0  0  0
  193.9260  174.8880  136.4920 S   0  0  0  0  0  0  0  0  0  0  0  0
  188.5740  176.7530  144.9140 C   0  0  0  0  0  2  0  0  0  0  0  0
  187.2580  177.9010  142.0400 C   0  0  2  0  0  3  0  0  0  0  0  0
  193.5750  175.8690  137.9940 C   0  0  0  0  0  2  0  0  0  0  0  0
  188.6350  176.3400  143.4440 C   0  0  0  0  0  2  0  0  0  0  0  0
  187.5060  177.7940  145.2520 C   0  0  2  0  0  3  0  0  0  0  0  0
  187.1720  176.1880  136.8460 C   0  0  0  0  0  3  0  0  0  0  0  0
  187.9180  176.8140  137.7640 C   0  0  0  0  0  0  0  0  0  0  0  0
  190.0610  175.9620  136.7810 C   0  0  0  0  0  3  0  0  0  0  0  0
  189.5230  177.1090  141.3200 C   0  0  0  0  0  3  0  0  0  0  0  0
  192.0820  177.1300  140.0820 O   0  0  0  0  0  0  0  0  0  0  0  0
  192.3210  176.0230  134.5960 C   0  0  0  0  0  1  0  0  0  0  0  0
  190.0770  176.9530  138.9770 N   0  0  0  0  0  0  0  0  0  0  0  0
  191.4320  175.7560  136.8770 C   0  0  0  0  0  0  0  0  0  0  0  0
  187.1390  177.6690  146.7210 C   0  0  0  0  0  2  0  0  0  0  0  0
  188.1040  178.4640  147.5800 C   0  0  0  0  0  3  0  0  0  0  0  0
  188.9910  177.6070  148.1900 O   0  0  0  0  0  0  0  0  0  0  0  0
  187.9590  178.0930  148.8970 O   0  0  0  0  0  0  0  0  0  0  0  0
  1 20  1  0  0  0  0
  2 24  2  0  0  0  0
  3 11  1  0  0  0  0
  4 21  1  0  0  0  0
  4  3  2  0  0  0  0
  5 25  2  0  0  0  0
  6  5  1  0  0  0  0
  7 24  1  6  0  0  0
  7 19  1  0  0  0  0
  9 26  1  6  0  0  0
  9 15  1  0  0  0  0
  9 28  1  0  0  0  0
 10  1  1  0  0  0  0
 11 13  1  0  0  0  0
 12  2  1  0  0  0  0
 12  8  1  1  0  0  0
 13 12  1  0  0  0  0
 14 27  1  0  0  0  0
 15 18  1  0  0  0  0
 16 20  1  0  0  0  0
 17  8  1  6  0  0  0
 17  7  1  0  0  0  0
 17 10  1  0  0  0  0
 18  6  1  0  0  0  0
 19 16  1  0  0  0  0
 20 29  1  1  0  0  0
 21 22  2  0  0  0  0
 22 14  1  0  0  0  0
 22 13  1  0  0  0  0
 23 28  1  0  0  0  0
 23 14  2  0  0  0  0
 27  5  1  0  0  0  0
 27  2  1  0  0  0  0
 28  6  2  0  0  0  0
 29 30  1  0  0  0  0
 30 31  1  0  0  0  0
 30 32  1  0  0  0  0
 31 32  1  0  0  0  0
M  END
>  <MODEL>
3

>  <REMARK>
 VINA RESULT:      -9.0      4.473      6.221
  Name = 
  2 active torsions:
  status: ('A' for Active; 'I' for Inactive)
    1  A    between atoms: C_1  and  C_10
    2  A    between atoms: C_10  and  C_24
                            x       y       z     vdW  Elec       q    Type
                         _______ _______ _______ _____ _____    ______ ____

>  <TORSDO>
F 2

$$$$
=
 OpenBabel11052416473D

 32 38  0  0  1  0  0  0  0  0999 V2000
  192.6280  175.0090  137.5480 C   0  0  0  0  0  2  0  0  0  0  0  0
  188.9950  177.7610  140.2400 C   0  0  0  0  0  0  0  0  0  0  0  0
  191.6180  176.6070  144.1890 C   0  0  0  0  0  3  0  0  0  0  0  0
  190.4610  176.3750  144.8090 C   0  0  0  0  0  3  0  0  0  0  0  0
  186.6220  178.3950  140.4340 C   0  0  0  0  0  0  0  0  0  0  0  0
  185.4780  178.5600  141.2230 C   0  0  0  0  0  0  0  0  0  0  0  0
  190.1220  176.6170  138.3110 C   0  0  1  0  0  3  0  0  0  0  0  0
  191.5430  177.7360  140.0280 C   0  0  0  0  0  2  0  0  0  0  0  0
  184.2710  178.5430  143.3250 C   0  0  2  0  0  3  0  0  0  0  0  0
  192.6510  176.2450  138.4340 C   0  0  0  0  0  2  0  0  0  0  0  0
  191.6770  177.4210  142.9280 C   0  0  0  0  0  2  0  0  0  0  0  0
  190.3220  178.0670  140.8960 C   0  0  2  0  0  3  0  0  0  0  0  0
  190.3840  177.4580  142.2300 N   0  0  0  0  0  0  0  0  0  0  0  0
  187.8720  177.7740  142.3790 C   0  0  0  0  0  0  0  0  0  0  0  0
  182.9660  178.8500  142.0830 S   0  0  0  0  0  0  0  0  0  0  0  0
  190.4090  175.0750  136.3050 C   0  0  0  0  0  2  0  0  0  0  0  0
  191.3560  176.4590  139.2190 C   0  0  2  0  0  3  0  0  0  0  0  0
  184.1540  178.9780  140.7010 C   0  0  0  0  0  2  0  0  0  0  0  0
  189.7670  175.2790  137.6760 C   0  0  0  0  0  2  0  0  0  0  0  0
  191.9140  175.3480  136.2450 C   0  0  2  0  0  3  0  0  0  0  0  0
  189.1940  176.8370  144.2290 C   0  0  0  0  0  3  0  0  0  0  0  0
  189.1600  177.3580  142.9960 C   0  0  0  0  0  0  0  0  0  0  0  0
  186.7280  177.9410  143.1770 C   0  0  0  0  0  3  0  0  0  0  0  0
  188.9250  177.0530  139.1030 C   0  0  0  0  0  3  0  0  0  0  0  0
  186.5610  178.6280  139.1960 O   0  0  0  0  0  0  0  0  0  0  0  0
  184.3870  179.7530  144.2350 C   0  0  0  0  0  1  0  0  0  0  0  0
  187.8020  177.9920  141.0200 N   0  0  0  0  0  0  0  0  0  0  0  0
  185.5370  178.3380  142.5790 C   0  0  0  0  0  0  0  0  0  0  0  0
  192.5130  174.5660  135.0900 C   0  0  0  0  0  2  0  0  0  0  0  0
  193.2570  173.3460  135.6030 C   0  0  0  0  0  3  0  0  0  0  0  0
  193.3290  172.3990  134.6060 O   0  0  0  0  0  0  0  0  0  0  0  0
  192.4190  172.2550  135.5810 O   0  0  0  0  0  0  0  0  0  0  0  0
  1 10  1  0  0  0  0
  2 12  1  0  0  0  0
  2 27  1  0  0  0  0
  3  4  2  0  0  0  0
  5 27  1  0  0  0  0
  5  6  1  0  0  0  0
  6 28  2  0  0  0  0
  7 19  1  1  0  0  0
  7 24  1  0  0  0  0
  7 17  1  0  0  0  0
  9 26  1  1  0  0  0
 11  3  1  0  0  0  0
 12  8  1  6  0  0  0
 12 13  1  0  0  0  0
 13 11  1  0  0  0  0
 13 22  1  0  0  0  0
 14 22  1  0  0  0  0
 14 23  2  0  0  0  0
 15  9  1  0  0  0  0
 16 19  1  0  0  0  0
 17 10  1  6  0  0  0
 17  8  1  0  0  0  0
 18  6  1  0  0  0  0
 18 15  1  0  0  0  0
 20 29  1  6  0  0  0
 20 16  1  0  0  0  0
 20  1  1  0  0  0  0
 21  4  1  0  0  0  0
 22 21  2  0  0  0  0
 24  2  2  0  0  0  0
 25  5  2  0  0  0  0
 27 14  1  0  0  0  0
 28 23  1  0  0  0  0
 28  9  1  0  0  0  0
 29 30  1  0  0  0  0
 31 32  1  0  0  0  0
 31 30  1  0  0  0  0
 32 30  1  0  0  0  0
M  END
>  <MODEL>
4

>  <REMARK>
 VINA RESULT:      -8.1      5.209      8.403
  Name = 
  2 active torsions:
  status: ('A' for Active; 'I' for Inactive)
    1  A    between atoms: C_1  and  C_10
    2  A    between atoms: C_10  and  C_24
                            x       y       z     vdW  Elec       q    Type
                         _______ _______ _______ _____ _____    ______ ____

>  <TORSDO>
F 2

$$$$
=
 OpenBabel11052416473D

 32 38  0  0  1  0  0  0  0  0999 V2000
  193.2280  175.9990  138.8880 C   0  0  0  0  0  2  0  0  0  0  0  0
  189.0600  178.1820  141.3150 C   0  0  0  0  0  0  0  0  0  0  0  0
  191.3070  176.9120  145.4570 C   0  0  0  0  0  3  0  0  0  0  0  0
  190.1130  176.5290  145.9090 C   0  0  0  0  0  3  0  0  0  0  0  0
  186.6320  178.5900  141.2640 C   0  0  0  0  0  0  0  0  0  0  0  0
  185.3930  178.5860  141.9150 C   0  0  0  0  0  0  0  0  0  0  0  0
  190.5080  177.3130  139.4580 C   0  0  1  0  0  3  0  0  0  0  0  0
  191.6070  178.3940  141.4180 C   0  0  0  0  0  2  0  0  0  0  0  0
  183.9580  178.2810  143.8450 C   0  0  2  0  0  3  0  0  0  0  0  0
  193.0290  177.1510  139.8620 C   0  0  0  0  0  2  0  0  0  0  0  0
  191.4330  177.8370  144.2790 C   0  0  0  0  0  2  0  0  0  0  0  0
  190.2670  178.5420  142.1510 C   0  0  2  0  0  3  0  0  0  0  0  0
  190.2320  177.8250  143.4320 N   0  0  0  0  0  0  0  0  0  0  0  0
  187.7020  177.9100  143.2940 C   0  0  0  0  0  0  0  0  0  0  0  0
  182.7820  178.5840  142.4790 S   0  0  0  0  0  0  0  0  0  0  0  0
  191.1720  175.9850  137.3880 C   0  0  0  0  0  2  0  0  0  0  0  0
  191.6380  177.1830  140.4960 C   0  0  2  0  0  3  0  0  0  0  0  0
  184.1050  178.9340  141.2680 C   0  0  0  0  0  2  0  0  0  0  0  0
  190.3580  176.0110  138.6820 C   0  0  0  0  0  2  0  0  0  0  0  0
  192.6400  176.3900  137.5370 C   0  0  2  0  0  3  0  0  0  0  0  0
  188.8830  176.9300  145.2140 C   0  0  0  0  0  3  0  0  0  0  0  0
  188.9420  177.5520  144.0310 C   0  0  0  0  0  0  0  0  0  0  0  0
  186.4620  177.9070  143.9540 C   0  0  0  0  0  3  0  0  0  0  0  0
  189.1910  177.5730  140.1270 C   0  0  0  0  0  3  0  0  0  0  0  0
  186.6930  178.9270  140.0490 O   0  0  0  0  0  0  0  0  0  0  0  0
  183.8510  179.4110  144.8520 C   0  0  0  0  0  1  0  0  0  0  0  0
  187.7680  178.2400  141.9580 N   0  0  0  0  0  0  0  0  0  0  0  0
  185.3160  178.2520  143.2470 C   0  0  0  0  0  0  0  0  0  0  0  0
  193.4410  175.7670  136.4070 C   0  0  0  0  0  2  0  0  0  0  0  0
  194.6490  175.0290  136.9560 C   0  0  0  0  0  3  0  0  0  0  0  0
  195.8000  175.6100  136.4750 O   0  0  0  0  0  0  0  0  0  0  0  0
  195.3580  174.4730  135.9160 O   0  0  0  0  0  0  0  0  0  0  0  0
  1 10  1  0  0  0  0
  2 27  1  0  0  0  0
  2 12  1  0  0  0  0
  3  4  2  0  0  0  0
  5  6  1  0  0  0  0
  5 27  1  0  0  0  0
  6 28  2  0  0  0  0
  7 19  1  1  0  0  0
  7 24  1  0  0  0  0
  7 17  1  0  0  0  0
  9 26  1  1  0  0  0
 11  3  1  0  0  0  0
 12  8  1  6  0  0  0
 12 13  1  0  0  0  0
 13 22  1  0  0  0  0
 13 11  1  0  0  0  0
 14 23  2  0  0  0  0
 14 22  1  0  0  0  0
 15  9  1  0  0  0  0
 16 20  1  0  0  0  0
 16 19  1  0  0  0  0
 17 10  1  6  0  0  0
 17  8  1  0  0  0  0
 18  6  1  0  0  0  0
 18 15  1  0  0  0  0
 20 29  1  6  0  0  0
 20  1  1  0  0  0  0
 21  4  1  0  0  0  0
 22 21  2  0  0  0  0
 24  2  2  0  0  0  0
 25  5  2  0  0  0  0
 27 14  1  0  0  0  0
 28  9  1  0  0  0  0
 28 23  1  0  0  0  0
 29 30  1  0  0  0  0
 31 30  1  0  0  0  0
 32 31  1  0  0  0  0
 32 30  1  0  0  0  0
M  END
>  <MODEL>
5

>  <REMARK>
 VINA RESULT:      -7.9      5.208      8.016
  Name = 
  2 active torsions:
  status: ('A' for Active; 'I' for Inactive)
    1  A    between atoms: C_1  and  C_10
    2  A    between atoms: C_10  and  C_24
                            x       y       z     vdW  Elec       q    Type
                         _______ _______ _______ _____ _____    ______ ____

>  <TORSDO>
F 2

$$$$
=
 OpenBabel11052416473D

 32 38  0  0  1  0  0  0  0  0999 V2000
  187.5460  177.0960  146.0070 C   0  0  0  0  0  2  0  0  0  0  0  0
  187.1910  178.4350  140.8980 C   0  0  0  0  0  0  0  0  0  0  0  0
  182.3670  178.0830  141.5490 C   0  0  0  0  0  3  0  0  0  0  0  0
  182.3190  177.4700  140.3660 C   0  0  0  0  0  3  0  0  0  0  0  0
  188.1830  178.2560  138.6510 C   0  0  0  0  0  0  0  0  0  0  0  0
  188.0320  178.0160  137.2800 C   0  0  0  0  0  0  0  0  0  0  0  0
  188.2260  177.7770  143.0880 C   0  0  1  0  0  3  0  0  0  0  0  0
  186.2120  179.2470  143.1170 C   0  0  0  0  0  2  0  0  0  0  0  0
  186.7300  177.5460  135.2910 C   0  0  2  0  0  3  0  0  0  0  0  0
  186.9170  178.2460  145.2360 C   0  0  0  0  0  2  0  0  0  0  0  0
  183.5570  178.9090  141.9500 C   0  0  0  0  0  2  0  0  0  0  0  0
  186.0480  179.1380  141.5950 C   0  0  2  0  0  3  0  0  0  0  0  0
  184.7660  178.5430  141.1980 N   0  0  0  0  0  0  0  0  0  0  0  0
  185.8200  178.0200  138.9520 C   0  0  0  0  0  0  0  0  0  0  0  0
  188.4580  177.4480  134.7060 S   0  0  0  0  0  0  0  0  0  0  0  0
  189.6610  176.4720  144.7380 C   0  0  0  0  0  2  0  0  0  0  0  0
  186.8430  178.0040  143.7280 C   0  0  2  0  0  3  0  0  0  0  0  0
  189.1500  177.9960  136.3060 C   0  0  0  0  0  2  0  0  0  0  0  0
  188.7730  176.4160  143.4950 C   0  0  0  0  0  2  0  0  0  0  0  0
  189.0630  177.2220  145.9300 C   0  0  2  0  0  3  0  0  0  0  0  0
  183.4680  177.5100  139.4530 C   0  0  0  0  0  3  0  0  0  0  0  0
  184.6360  178.0270  139.8510 C   0  0  0  0  0  0  0  0  0  0  0  0
  185.6620  177.7810  137.5780 C   0  0  0  0  0  3  0  0  0  0  0  0
  188.1310  177.7760  141.5910 C   0  0  0  0  0  3  0  0  0  0  0  0
  189.3320  178.4930  139.1170 O   0  0  0  0  0  0  0  0  0  0  0  0
  186.0330  178.7010  134.5940 C   0  0  0  0  0  1  0  0  0  0  0  0
  187.0770  178.2430  139.4720 N   0  0  0  0  0  0  0  0  0  0  0  0
  186.7820  177.7860  136.7540 C   0  0  0  0  0  0  0  0  0  0  0  0
  189.7050  176.7110  147.2080 C   0  0  0  0  0  2  0  0  0  0  0  0
  191.2180  176.7370  147.0910 C   0  0  0  0  0  3  0  0  0  0  0  0
  191.7660  175.8970  148.0330 O   0  0  0  0  0  0  0  0  0  0  0  0
  191.7600  177.2190  148.2600 O   0  0  0  0  0  0  0  0  0  0  0  0
  2 24  2  0  0  0  0
  2 12  1  0  0  0  0
  3 11  1  0  0  0  0
  4  3  2  0  0  0  0
  5 25  2  0  0  0  0
  5 27  1  0  0  0  0
  6  5  1  0  0  0  0
  7 24  1  6  0  0  0
  7 19  1  0  0  0  0
  7 17  1  0  0  0  0
  9 26  1  6  0  0  0
  9 28  1  0  0  0  0
 10  1  1  0  0  0  0
 12  8  1  1  0  0  0
 13 12  1  0  0  0  0
 13 11  1  0  0  0  0
 14 27  1  0  0  0  0
 14 22  1  0  0  0  0
 15  9  1  0  0  0  0
 15 18  1  0  0  0  0
 16 20  1  0  0  0  0
 17  8  1  6  0  0  0
 17 10  1  0  0  0  0
 18  6  1  0  0  0  0
 19 16  1  0  0  0  0
 20  1  1  0  0  0  0
 20 29  1  1  0  0  0
 21 22  2  0  0  0  0
 21  4  1  0  0  0  0
 22 13  1  0  0  0  0
 23 14  2  0  0  0  0
 27  2  1  0  0  0  0
 28  6  2  0  0  0  0
 28 23  1  0  0  0  0
 30 29  1  0  0  0  0
 30 31  1  0  0  0  0
 30 32  1  0  0  0  0
 31 32  1  0  0  0  0
M  END
>  <MODEL>
6

>  <REMARK>
 VINA RESULT:      -7.8      1.899      2.775
  Name = 
  2 active torsions:
  status: ('A' for Active; 'I' for Inactive)
    1  A    between atoms: C_1  and  C_10
    2  A    between atoms: C_10  and  C_24
                            x       y       z     vdW  Elec       q    Type
                         _______ _______ _______ _____ _____    ______ ____

>  <TORSDO>
F 2

$$$$
=
 OpenBabel11052416473D

 32 38  0  0  1  0  0  0  0  0999 V2000
  187.8780  177.4660  143.5970 C   0  0  0  0  0  2  0  0  0  0  0  0
  191.1170  176.5700  139.5070 C   0  0  0  0  0  0  0  0  0  0  0  0
  187.0530  175.4720  137.0380 C   0  0  0  0  0  3  0  0  0  0  0  0
  187.7270  174.4480  136.5160 C   0  0  0  0  0  3  0  0  0  0  0  0
  193.3140  175.7380  138.7670 C   0  0  0  0  0  0  0  0  0  0  0  0
  194.0760  174.9500  137.8950 C   0  0  0  0  0  0  0  0  0  0  0  0
  190.3790  177.0690  141.8530 C   0  0  1  0  0  3  0  0  0  0  0  0
  189.0190  177.9600  139.9620 C   0  0  0  0  0  2  0  0  0  0  0  0
  194.3590  173.4650  136.0010 C   0  0  2  0  0  3  0  0  0  0  0  0
  188.0420  178.0540  142.2040 C   0  0  0  0  0  2  0  0  0  0  0  0
  187.7680  176.6240  137.6860 C   0  0  0  0  0  2  0  0  0  0  0  0
  189.8840  177.2260  138.9280 C   0  0  2  0  0  3  0  0  0  0  0  0
  189.1230  176.2620  138.1240 N   0  0  0  0  0  0  0  0  0  0  0  0
  191.3280  175.1360  137.5740 C   0  0  0  0  0  0  0  0  0  0  0  0
  196.0220  173.5190  136.7570 S   0  0  0  0  0  0  0  0  0  0  0  0
  190.2210  176.8640  144.3870 C   0  0  0  0  0  2  0  0  0  0  0  0
  188.9520  177.2260  141.2940 C   0  0  2  0  0  3  0  0  0  0  0  0
  195.5470  174.7890  137.9820 C   0  0  0  0  0  2  0  0  0  0  0  0
  190.3690  176.1320  143.0530 C   0  0  0  0  0  2  0  0  0  0  0  0
  189.0750  177.8750  144.4490 C   0  0  2  0  0  3  0  0  0  0  0  0
  189.1880  174.3710  136.6350 C   0  0  0  0  0  3  0  0  0  0  0  0
  189.8540  175.2420  137.4020 C   0  0  0  0  0  0  0  0  0  0  0  0
  192.0860  174.3470  136.6940 C   0  0  0  0  0  3  0  0  0  0  0  0
  191.2910  176.4570  140.8320 C   0  0  0  0  0  3  0  0  0  0  0  0
  193.8910  176.3810  139.6860 O   0  0  0  0  0  0  0  0  0  0  0  0
  194.4240  174.0710  134.6110 C   0  0  0  0  0  1  0  0  0  0  0  0
  191.9480  175.8110  138.6020 N   0  0  0  0  0  0  0  0  0  0  0  0
  193.4630  174.2680  136.8690 C   0  0  0  0  0  0  0  0  0  0  0  0
  188.6580  178.0620  145.8970 C   0  0  0  0  0  2  0  0  0  0  0  0
  189.6660  177.4160  146.8290 C   0  0  0  0  0  3  0  0  0  0  0  0
  189.0040  176.6870  147.7900 O   0  0  0  0  0  0  0  0  0  0  0  0
  189.4860  177.8980  148.1050 O   0  0  0  0  0  0  0  0  0  0  0  0
  1 20  1  0  0  0  0
  2 24  2  0  0  0  0
  3 11  1  0  0  0  0
  4 21  1  0  0  0  0
  4  3  2  0  0  0  0
  5 25  2  0  0  0  0
  6 18  1  0  0  0  0
  6  5  1  0  0  0  0
  7 24  1  6  0  0  0
  7 19  1  0  0  0  0
  9 26  1  6  0  0  0
  9 15  1  0  0  0  0
  9 28  1  0  0  0  0
 10  1  1  0  0  0  0
 11 13  1  0  0  0  0
 12  2  1  0  0  0  0
 12  8  1  1  0  0  0
 13 12  1  0  0  0  0
 14 27  1  0  0  0  0
 15 18  1  0  0  0  0
 16 20  1  0  0  0  0
 17  8  1  6  0  0  0
 17  7  1  0  0  0  0
 17 10  1  0  0  0  0
 19 16  1  0  0  0  0
 20 29  1  1  0  0  0
 21 22  2  0  0  0  0
 22 14  1  0  0  0  0
 22 13  1  0  0  0  0
 23 28  1  0  0  0  0
 23 14  2  0  0  0  0
 27  5  1  0  0  0  0
 27  2  1  0  0  0  0
 28  6  2  0  0  0  0
 29 30  1  0  0  0  0
 30 31  1  0  0  0  0
 30 32  1  0  0  0  0
 31 32  1  0  0  0  0
M  END
>  <MODEL>
7

>  <REMARK>
 VINA RESULT:      -7.8      6.087      8.009
  Name = 
  2 active torsions:
  status: ('A' for Active; 'I' for Inactive)
    1  A    between atoms: C_1  and  C_10
    2  A    between atoms: C_10  and  C_24
                            x       y       z     vdW  Elec       q    Type
                         _______ _______ _______ _____ _____    ______ ____

>  <TORSDO>
F 2

$$$$
=
 OpenBabel11052416473D

 32 38  0  0  1  0  0  0  0  0999 V2000
  179.5870  181.9800  139.1710 C   0  0  0  0  0  2  0  0  0  0  0  0
  183.8620  178.9510  139.9270 C   0  0  0  0  0  0  0  0  0  0  0  0
  182.6130  179.0530  144.6440 C   0  0  0  0  0  3  0  0  0  0  0  0
  183.9080  179.2190  144.9150 C   0  0  0  0  0  3  0  0  0  0  0  0
  186.1720  178.4430  139.2380 C   0  0  0  0  0  0  0  0  0  0  0  0
  187.5040  178.1860  139.5800 C   0  0  0  0  0  0  0  0  0  0  0  0
  182.1960  180.4100  138.7470 C   0  0  1  0  0  3  0  0  0  0  0  0
  181.3750  178.8570  140.5170 C   0  0  0  0  0  2  0  0  0  0  0  0
  189.3080  177.8250  141.1580 C   0  0  2  0  0  3  0  0  0  0  0  0
  179.8340  180.5830  139.7180 C   0  0  0  0  0  2  0  0  0  0  0  0
  182.1580  178.5290  143.3120 C   0  0  0  0  0  2  0  0  0  0  0  0
  182.8050  178.4250  140.8710 C   0  0  2  0  0  3  0  0  0  0  0  0
  183.1670  178.7260  142.2620 N   0  0  0  0  0  0  0  0  0  0  0  0
  185.5970  178.5470  141.5590 C   0  0  0  0  0  0  0  0  0  0  0  0
  190.1570  177.8780  139.5400 S   0  0  0  0  0  0  0  0  0  0  0  0
  181.3060  182.3280  137.3260 C   0  0  0  0  0  2  0  0  0  0  0  0
  181.3080  180.2880  140.0000 C   0  0  2  0  0  3  0  0  0  0  0  0
  188.5950  177.9760  138.5970 C   0  0  0  0  0  2  0  0  0  0  0  0
  182.3440  181.8730  138.3520 C   0  0  0  0  0  2  0  0  0  0  0  0
  179.8570  181.9770  137.6710 C   0  0  2  0  0  3  0  0  0  0  0  0
  184.9270  178.9760  143.8860 C   0  0  0  0  0  3  0  0  0  0  0  0
  184.5700  178.7370  142.6180 C   0  0  0  0  0  0  0  0  0  0  0  0
  186.9320  178.2860  141.9090 C   0  0  0  0  0  3  0  0  0  0  0  0
  183.5780  179.8910  139.0150 C   0  0  0  0  0  3  0  0  0  0  0  0
  185.8400  178.4870  138.0210 O   0  0  0  0  0  0  0  0  0  0  0  0
  189.4740  176.4420  141.7620 C   0  0  0  0  0  1  0  0  0  0  0  0
  185.2370  178.6330  140.2320 N   0  0  0  0  0  0  0  0  0  0  0  0
  187.8740  178.1040  140.9020 C   0  0  0  0  0  0  0  0  0  0  0  0
  178.9310  182.9510  136.9620 C   0  0  0  0  0  2  0  0  0  0  0  0
  179.7120  184.1410  136.4360 C   0  0  0  0  0  3  0  0  0  0  0  0
  179.0170  185.2990  136.6990 O   0  0  0  0  0  0  0  0  0  0  0  0
  178.9760  184.7780  135.4630 O   0  0  0  0  0  0  0  0  0  0  0  0
  1 10  1  0  0  0  0
  2 27  1  0  0  0  0
  2 12  1  0  0  0  0
  3  4  2  0  0  0  0
  5  6  1  0  0  0  0
  5 27  1  0  0  0  0
  6 28  2  0  0  0  0
  7 19  1  1  0  0  0
  7 24  1  0  0  0  0
  7 17  1  0  0  0  0
  9 26  1  6  0  0  0
 11  3  1  0  0  0  0
 12  8  1  6  0  0  0
 12 13  1  0  0  0  0
 13 22  1  0  0  0  0
 13 11  1  0  0  0  0
 14 23  2  0  0  0  0
 14 22  1  0  0  0  0
 15  9  1  0  0  0  0
 16 20  1  0  0  0  0
 16 19  1  0  0  0  0
 17 10  1  6  0  0  0
 17  8  1  0  0  0  0
 18 15  1  0  0  0  0
 18  6  1  0  0  0  0
 20 29  1  6  0  0  0
 20  1  1  0  0  0  0
 21  4  1  0  0  0  0
 22 21  2  0  0  0  0
 24  2  2  0  0  0  0
 25  5  2  0  0  0  0
 27 14  1  0  0  0  0
 28  9  1  0  0  0  0
 28 23  1  0  0  0  0
 30 31  1  0  0  0  0
 30 29  1  0  0  0  0
 32 30  1  0  0  0  0
 32 31  1  0  0  0  0
M  END
>  <MODEL>
8

>  <REMARK>
 VINA RESULT:      -7.6      4.000      8.449
  Name = 
  2 active torsions:
  status: ('A' for Active; 'I' for Inactive)
    1  A    between atoms: C_1  and  C_10
    2  A    between atoms: C_10  and  C_24
                            x       y       z     vdW  Elec       q    Type
                         _______ _______ _______ _____ _____    ______ ____

>  <TORSDO>
F 2

$$$$
=
 OpenBabel11052416473D

 32 38  0  0  1  0  0  0  0  0999 V2000
  182.7050  177.7040  138.1520 C   0  0  0  0  0  2  0  0  0  0  0  0
  185.8180  178.5340  142.3520 C   0  0  0  0  0  0  0  0  0  0  0  0
  189.4690  177.1550  139.4220 C   0  0  0  0  0  3  0  0  0  0  0  0
  189.9450  176.4580  140.4540 C   0  0  0  0  0  3  0  0  0  0  0  0
  186.0430  178.4120  144.8020 C   0  0  0  0  0  0  0  0  0  0  0  0
  186.7850  178.0400  145.9290 C   0  0  0  0  0  0  0  0  0  0  0  0
  183.7220  178.2960  140.9920 C   0  0  1  0  0  3  0  0  0  0  0  0
  185.7430  179.2720  139.9040 C   0  0  0  0  0  2  0  0  0  0  0  0
  188.7440  177.1380  147.0350 C   0  0  2  0  0  3  0  0  0  0  0  0
  183.8790  178.6210  138.4580 C   0  0  0  0  0  2  0  0  0  0  0  0
  188.4660  178.2560  139.6230 C   0  0  0  0  0  2  0  0  0  0  0  0
  186.6010  179.0120  141.1500 C   0  0  2  0  0  3  0  0  0  0  0  0
  187.7340  178.1160  140.8900 N   0  0  0  0  0  0  0  0  0  0  0  0
  187.8250  177.6730  143.3850 C   0  0  0  0  0  0  0  0  0  0  0  0
  187.5550  177.3870  148.4010 S   0  0  0  0  0  0  0  0  0  0  0  0
  181.4030  177.4780  140.3270 C   0  0  0  0  0  2  0  0  0  0  0  0
  184.6230  178.2530  139.7430 C   0  0  2  0  0  3  0  0  0  0  0  0
  186.3190  178.1980  147.3270 C   0  0  0  0  0  2  0  0  0  0  0  0
  182.7450  177.1280  140.9700 C   0  0  0  0  0  2  0  0  0  0  0  0
  181.4970  178.1620  138.9620 C   0  0  2  0  0  3  0  0  0  0  0  0
  189.4370  176.6860  141.8130 C   0  0  0  0  0  3  0  0  0  0  0  0
  188.3810  177.4820  142.0190 C   0  0  0  0  0  0  0  0  0  0  0  0
  188.5760  177.3000  144.5110 C   0  0  0  0  0  3  0  0  0  0  0  0
  184.5350  178.1590  142.2450 C   0  0  0  0  0  3  0  0  0  0  0  0
  184.9050  178.9370  144.9530 O   0  0  0  0  0  0  0  0  0  0  0  0
  189.9400  178.0490  147.2440 C   0  0  0  0  0  1  0  0  0  0  0  0
  186.5670  178.2120  143.5440 N   0  0  0  0  0  0  0  0  0  0  0  0
  188.0390  177.4950  145.7790 C   0  0  0  0  0  0  0  0  0  0  0  0
  180.2130  177.9090  138.1920 C   0  0  0  0  0  2  0  0  0  0  0  0
  180.3830  176.7360  137.2440 C   0  0  0  0  0  3  0  0  0  0  0  0
  179.1480  176.3170  136.8050 O   0  0  0  0  0  0  0  0  0  0  0  0
  179.7670  175.6250  137.7740 O   0  0  0  0  0  0  0  0  0  0  0  0
  1 10  1  0  0  0  0
  1 20  1  0  0  0  0
  2 27  1  0  0  0  0
  3 11  1  0  0  0  0
  3  4  2  0  0  0  0
  4 21  1  0  0  0  0
  5 25  2  0  0  0  0
  5  6  1  0  0  0  0
  6 18  1  0  0  0  0
  7 19  1  6  0  0  0
  7 24  1  0  0  0  0
  9 26  1  1  0  0  0
  9 15  1  0  0  0  0
 11 13  1  0  0  0  0
 12  8  1  6  0  0  0
 12  2  1  0  0  0  0
 13 12  1  0  0  0  0
 13 22  1  0  0  0  0
 14 27  1  0  0  0  0
 14 23  2  0  0  0  0
 16 19  1  0  0  0  0
 17 10  1  6  0  0  0
 17  8  1  0  0  0  0
 17  7  1  0  0  0  0
 18 15  1  0  0  0  0
 20 29  1  6  0  0  0
 20 16  1  0  0  0  0
 21 22  2  0  0  0  0
 22 14  1  0  0  0  0
 23 28  1  0  0  0  0
 24  2  2  0  0  0  0
 27  5  1  0  0  0  0
 28  6  2  0  0  0  0
 28  9  1  0  0  0  0
 30 32  1  0  0  0  0
 30 29  1  0  0  0  0
 31 30  1  0  0  0  0
 31 32  1  0  0  0  0
M  END
>  <MODEL>
9

>  <REMARK>
 VINA RESULT:      -7.5      3.752      9.025
  Name = 
  2 active torsions:
  status: ('A' for Active; 'I' for Inactive)
    1  A    between atoms: C_1  and  C_10
    2  A    between atoms: C_10  and  C_24
                            x       y       z     vdW  Elec       q    Type
                         _______ _______ _______ _____ _____    ______ ____

>  <TORSDO>
F 2

$$$$
