=
 OpenBabel11052413373D

 28 30  0  0  1  0  0  0  0  0999 V2000
  182.6820  177.6540  137.7740 N   0  0  0  0  0  2  0  0  0  0  0  0
  182.6290  176.3550  135.2920 C   0  0  0  0  0  1  0  0  0  0  0  0
  183.1930  175.5970  136.4950 C   0  0  1  0  0  0  0  0  0  0  0  0
  184.9120  179.7770  139.7720 O   0  0  0  0  0  0  0  0  0  0  0  0
  180.9240  175.7720  137.3510 O   0  0  0  0  0  1  0  0  0  0  0  0
  185.4610  175.1030  135.3970 C   0  0  0  0  0  2  0  0  0  0  0  0
  186.3880  176.0130  136.1960 C   0  0  2  0  0  3  0  0  0  0  0  0
  184.2910  174.5480  136.2130 C   0  0  1  0  0  3  0  0  0  0  0  0
  185.6400  177.8170  138.6690 C   0  0  0  0  0  2  0  0  0  0  0  0
  185.8660  177.4540  136.2030 C   0  0  0  0  0  2  0  0  0  0  0  0
  182.5490  179.8630  138.4460 O   0  0  0  0  0  0  0  0  0  0  0  0
  186.3880  178.2180  137.4090 C   0  0  0  0  0  2  0  0  0  0  0  0
  184.5990  178.8350  138.9960 C   0  0  0  0  0  0  0  0  0  0  0  0
  183.2460  178.8150  138.3970 C   0  0  0  0  0  0  0  0  0  0  0  0
  183.2520  176.3130  137.8420 C   0  0  2  0  0  3  0  0  0  0  0  0
  182.1930  175.2260  137.5880 C   0  0  2  0  0  3  0  0  0  0  0  0
  189.7410  177.1680  136.2880 C   0  0  0  0  0  3  0  0  0  0  0  0
  188.6830  175.1780  136.5830 N   0  0  0  0  0  0  0  0  0  0  0  0
  189.7970  175.9950  136.8910 C   0  0  0  0  0  0  0  0  0  0  0  0
  187.8200  175.8870  135.6530 C   0  0  2  0  0  3  0  0  0  0  0  0
  188.5070  177.2470  135.4440 C   0  0  0  0  0  2  0  0  0  0  0  0
  190.7760  175.7130  139.0410 O   0  0  0  0  0  0  0  0  0  0  0  0
  190.8800  175.5830  137.7930 C   0  0  0  0  0  3  0  0  0  0  0  0
  188.5620  173.7620  136.9120 C   0  0  0  0  0  2  0  0  0  0  0  0
  188.5280  172.9130  135.6550 C   0  0  0  0  0  2  0  0  0  0  0  0
  187.6770  171.6780  135.8640 C   0  0  0  0  0  1  0  0  0  0  0  0
  184.3520  172.3000  137.3050 C   0  0  0  0  0  1  0  0  0  0  0  0
  184.7870  173.7470  137.4190 C   0  0  0  0  0  2  0  0  0  0  0  0
  1 14  1  0  0  0  0
  3  2  1  6  0  0  0
  3 16  1  0  0  0  0
  3 15  1  0  0  0  0
  6  8  1  0  0  0  0
  7  6  1  6  0  0  0
  7 10  1  0  0  0  0
  8  3  1  0  0  0  0
  8 28  1  1  0  0  0
  9 13  1  0  0  0  0
 10 12  1  0  0  0  0
 12  9  1  0  0  0  0
 13  4  2  0  0  0  0
 14 11  2  0  0  0  0
 14 13  1  0  0  0  0
 15  1  1  6  0  0  0
 16  5  1  6  0  0  0
 16 15  1  0  0  0  0
 17 19  2  0  0  0  0
 18 19  1  0  0  0  0
 18 24  1  0  0  0  0
 19 23  1  0  0  0  0
 20 21  1  1  0  0  0
 20  7  1  0  0  0  0
 20 18  1  0  0  0  0
 21 17  1  0  0  0  0
 23 22  2  0  0  0  0
 25 26  1  0  0  0  0
 25 24  1  0  0  0  0
 27 28  1  0  0  0  0
M  END
>  <MODEL>
1

>  <REMARK>
 VINA RESULT:      -4.7      0.000      0.000
  Name = 
  5 active torsions:
  status: ('A' for Active; 'I' for Inactive)
    1  A    between atoms: N_9  and  C_18
    2  A    between atoms: C_10  and  C_13
    3  A    between atoms: C_11  and  C_22
    4  A    between atoms: C_12  and  C_23
    5  A    between atoms: C_14  and  C_18
                            x       y       z     vdW  Elec       q    Type
                         _______ _______ _______ _____ _____    ______ ____

>  <TORSDO>
F 5

$$$$
=
 OpenBabel11052413373D

 28 30  0  0  1  0  0  0  0  0999 V2000
  187.9680  177.3040  138.0690 N   0  0  0  0  0  2  0  0  0  0  0  0
  187.7570  177.3280  135.2750 C   0  0  0  0  0  1  0  0  0  0  0  0
  187.9130  175.9790  135.9790 C   0  0  1  0  0  0  0  0  0  0  0  0
  190.5430  177.4430  140.6800 O   0  0  0  0  0  0  0  0  0  0  0  0
  185.7470  176.5160  136.9450 O   0  0  0  0  0  1  0  0  0  0  0  0
  190.0000  175.2830  134.6540 C   0  0  0  0  0  2  0  0  0  0  0  0
  191.0820  175.3770  135.7230 C   0  0  2  0  0  3  0  0  0  0  0  0
  188.6330  174.8580  135.1980 C   0  0  1  0  0  3  0  0  0  0  0  0
  190.7050  176.0480  138.7790 C   0  0  0  0  0  2  0  0  0  0  0  0
  191.0600  176.7510  136.4030 C   0  0  0  0  0  2  0  0  0  0  0  0
  188.4900  178.8950  139.6640 O   0  0  0  0  0  0  0  0  0  0  0  0
  191.6710  176.6820  137.7930 C   0  0  0  0  0  2  0  0  0  0  0  0
  190.0240  177.1050  139.5840 C   0  0  0  0  0  0  0  0  0  0  0  0
  188.8090  177.8080  139.1140 C   0  0  0  0  0  0  0  0  0  0  0  0
  188.0590  175.9650  137.4990 C   0  0  2  0  0  3  0  0  0  0  0  0
  186.7370  175.5280  136.8430 C   0  0  2  0  0  3  0  0  0  0  0  0
  194.5530  176.0810  135.5210 C   0  0  0  0  0  3  0  0  0  0  0  0
  193.2730  174.2730  136.0300 N   0  0  0  0  0  0  0  0  0  0  0  0
  194.5020  174.9540  136.2060 C   0  0  0  0  0  0  0  0  0  0  0  0
  192.4440  175.0270  135.1040 C   0  0  2  0  0  3  0  0  0  0  0  0
  193.2830  176.2660  134.7510 C   0  0  0  0  0  2  0  0  0  0  0  0
  195.7360  174.9000  138.2390 O   0  0  0  0  0  0  0  0  0  0  0  0
  195.5840  174.4630  137.0680 C   0  0  0  0  0  3  0  0  0  0  0  0
  192.9950  172.9110  136.4720 C   0  0  0  0  0  2  0  0  0  0  0  0
  193.1040  171.9320  135.3170 C   0  0  0  0  0  2  0  0  0  0  0  0
  191.7300  171.5210  134.8320 C   0  0  0  0  0  1  0  0  0  0  0  0
  187.9940  172.4450  135.0640 C   0  0  0  0  0  1  0  0  0  0  0  0
  188.7110  173.4950  135.8890 C   0  0  0  0  0  2  0  0  0  0  0  0
  1 14  1  0  0  0  0
  3  2  1  6  0  0  0
  3 16  1  0  0  0  0
  3 15  1  0  0  0  0
  6  8  1  0  0  0  0
  7  6  1  6  0  0  0
  7 10  1  0  0  0  0
  8 28  1  1  0  0  0
  8  3  1  0  0  0  0
  9 13  1  0  0  0  0
 10 12  1  0  0  0  0
 12  9  1  0  0  0  0
 13  4  2  0  0  0  0
 14 13  1  0  0  0  0
 14 11  2  0  0  0  0
 15  1  1  1  0  0  0
 16  5  1  1  0  0  0
 16 15  1  0  0  0  0
 17 19  2  0  0  0  0
 18 19  1  0  0  0  0
 18 24  1  0  0  0  0
 19 23  1  0  0  0  0
 20 21  1  1  0  0  0
 20  7  1  0  0  0  0
 20 18  1  0  0  0  0
 21 17  1  0  0  0  0
 23 22  2  0  0  0  0
 25 24  1  0  0  0  0
 26 25  1  0  0  0  0
 27 28  1  0  0  0  0
M  END
>  <MODEL>
2

>  <REMARK>
 VINA RESULT:      -4.7      3.165      5.006
  Name = 
  5 active torsions:
  status: ('A' for Active; 'I' for Inactive)
    1  A    between atoms: N_9  and  C_18
    2  A    between atoms: C_10  and  C_13
    3  A    between atoms: C_11  and  C_22
    4  A    between atoms: C_12  and  C_23
    5  A    between atoms: C_14  and  C_18
                            x       y       z     vdW  Elec       q    Type
                         _______ _______ _______ _____ _____    ______ ____

>  <TORSDO>
F 5

$$$$
=
 OpenBabel11052413373D

 28 30  0  0  1  0  0  0  0  0999 V2000
  185.3680  175.0160  135.5630 N   0  0  0  0  0  2  0  0  0  0  0  0
  186.3360  177.5770  134.9610 C   0  0  0  0  0  1  0  0  0  0  0  0
  186.7480  176.9390  136.2890 C   0  0  1  0  0  0  0  0  0  0  0  0
  182.5110  173.4280  137.2320 O   0  0  0  0  0  0  0  0  0  0  0  0
  187.8680  175.3100  134.8720 O   0  0  0  0  0  1  0  0  0  0  0  0
  185.8830  178.8740  137.7380 C   0  0  0  0  0  2  0  0  0  0  0  0
  184.6710  178.2340  138.4040 C   0  0  2  0  0  3  0  0  0  0  0  0
  187.0280  177.8930  137.4710 C   0  0  1  0  0  3  0  0  0  0  0  0
  183.7050  175.2440  138.1620 C   0  0  0  0  0  2  0  0  0  0  0  0
  183.7350  177.6140  137.3600 C   0  0  0  0  0  2  0  0  0  0  0  0
  183.6200  173.7230  134.7750 O   0  0  0  0  0  0  0  0  0  0  0  0
  182.8880  176.5100  137.9710 C   0  0  0  0  0  2  0  0  0  0  0  0
  183.4240  174.2790  137.0590 C   0  0  0  0  0  0  0  0  0  0  0  0
  184.1270  174.3270  135.7580 C   0  0  0  0  0  0  0  0  0  0  0  0
  186.1980  175.5570  136.6340 C   0  0  2  0  0  3  0  0  0  0  0  0
  187.6640  175.7200  136.1970 C   0  0  2  0  0  3  0  0  0  0  0  0
  181.6270  179.6780  139.5160 C   0  0  0  0  0  3  0  0  0  0  0  0
  183.4040  178.6470  140.4880 N   0  0  0  0  0  0  0  0  0  0  0  0
  182.0230  178.9530  140.5450 C   0  0  0  0  0  0  0  0  0  0  0  0
  183.9770  179.2680  139.3050 C   0  0  2  0  0  3  0  0  0  0  0  0
  182.7910  179.9650  138.6180 C   0  0  0  0  0  2  0  0  0  0  0  0
  180.8860  179.2250  142.6180 O   0  0  0  0  0  0  0  0  0  0  0  0
  181.1360  178.4960  141.6220 C   0  0  0  0  0  3  0  0  0  0  0  0
  184.1800  178.0550  141.5720 C   0  0  0  0  0  2  0  0  0  0  0  0
  185.3780  178.9200  141.9170 C   0  0  0  0  0  2  0  0  0  0  0  0
  186.3960  178.1340  142.7150 C   0  0  0  0  0  1  0  0  0  0  0  0
  188.4290  178.1840  139.5200 C   0  0  0  0  0  1  0  0  0  0  0  0
  187.5120  177.2410  138.7680 C   0  0  0  0  0  2  0  0  0  0  0  0
  1 14  1  0  0  0  0
  3  2  1  6  0  0  0
  3 15  1  0  0  0  0
  3  8  1  0  0  0  0
  6  7  1  0  0  0  0
  7 10  1  6  0  0  0
  7 20  1  0  0  0  0
  8  6  1  0  0  0  0
  8 28  1  1  0  0  0
 10 12  1  0  0  0  0
 11 14  2  0  0  0  0
 12  9  1  0  0  0  0
 13  4  2  0  0  0  0
 13  9  1  0  0  0  0
 14 13  1  0  0  0  0
 15  1  1  6  0  0  0
 16  5  1  6  0  0  0
 16  3  1  0  0  0  0
 16 15  1  0  0  0  0
 17 19  2  0  0  0  0
 18 19  1  0  0  0  0
 18 24  1  0  0  0  0
 19 23  1  0  0  0  0
 20 21  1  6  0  0  0
 20 18  1  0  0  0  0
 21 17  1  0  0  0  0
 23 22  2  0  0  0  0
 24 25  1  0  0  0  0
 25 26  1  0  0  0  0
 28 27  1  0  0  0  0
M  END
>  <MODEL>
3

>  <REMARK>
 VINA RESULT:      -4.7      2.572      6.690
  Name = 
  5 active torsions:
  status: ('A' for Active; 'I' for Inactive)
    1  A    between atoms: N_9  and  C_18
    2  A    between atoms: C_10  and  C_13
    3  A    between atoms: C_11  and  C_22
    4  A    between atoms: C_12  and  C_23
    5  A    between atoms: C_14  and  C_18
                            x       y       z     vdW  Elec       q    Type
                         _______ _______ _______ _____ _____    ______ ____

>  <TORSDO>
F 5

$$$$
=
 OpenBabel11052413373D

 28 30  0  0  1  0  0  0  0  0999 V2000
  182.1690  174.0540  136.8560 N   0  0  0  0  0  2  0  0  0  0  0  0
  183.5360  173.1210  134.5940 C   0  0  0  0  0  1  0  0  0  0  0  0
  184.2220  173.0030  135.9560 C   0  0  1  0  0  0  0  0  0  0  0  0
  181.7880  177.1290  138.8220 O   0  0  0  0  0  0  0  0  0  0  0  0
  182.3940  171.4820  136.4650 O   0  0  0  0  0  1  0  0  0  0  0  0
  186.3230  174.3020  135.2550 C   0  0  0  0  0  2  0  0  0  0  0  0
  186.1500  175.5990  136.0370 C   0  0  2  0  0  3  0  0  0  0  0  0
  185.7650  173.0710  135.9740 C   0  0  1  0  0  3  0  0  0  0  0  0
  183.8850  176.3020  138.1120 C   0  0  0  0  0  2  0  0  0  0  0  0
  184.7740  176.2190  135.7730 C   0  0  0  0  0  2  0  0  0  0  0  0
  180.3820  175.4820  137.1890 O   0  0  0  0  0  0  0  0  0  0  0  0
  184.3510  177.1220  136.9210 C   0  0  0  0  0  2  0  0  0  0  0  0
  182.3930  176.2530  138.1500 C   0  0  0  0  0  0  0  0  0  0  0  0
  181.6070  175.2620  137.3820 C   0  0  0  0  0  0  0  0  0  0  0  0
  183.4930  173.5380  137.1860 C   0  0  2  0  0  3  0  0  0  0  0  0
  183.5960  172.0220  136.9450 C   0  0  2  0  0  3  0  0  0  0  0  0
  187.5160  178.8630  136.2940 C   0  0  0  0  0  3  0  0  0  0  0  0
  188.1640  176.7640  136.8760 N   0  0  0  0  0  0  0  0  0  0  0  0
  188.2420  178.1540  137.1370 C   0  0  0  0  0  0  0  0  0  0  0  0
  187.3160  176.5480  135.7160 C   0  0  2  0  0  3  0  0  0  0  0  0
  186.8520  177.9560  135.3060 C   0  0  0  0  0  2  0  0  0  0  0  0
  188.5810  178.7740  139.4090 O   0  0  0  0  0  0  0  0  0  0  0  0
  189.0310  178.7290  138.2340 C   0  0  0  0  0  3  0  0  0  0  0  0
  189.0120  175.7450  137.4850 C   0  0  0  0  0  2  0  0  0  0  0  0
  189.9540  175.1390  136.4600 C   0  0  0  0  0  2  0  0  0  0  0  0
  191.1750  176.0130  136.2720 C   0  0  0  0  0  1  0  0  0  0  0  0
  187.8090  172.2600  137.1620 C   0  0  0  0  0  1  0  0  0  0  0  0
  186.4350  172.8740  137.3360 C   0  0  0  0  0  2  0  0  0  0  0  0
  1 14  1  0  0  0  0
  3  2  1  6  0  0  0
  3  8  1  0  0  0  0
  3 16  1  0  0  0  0
  3 15  1  0  0  0  0
  6  8  1  0  0  0  0
  7  6  1  6  0  0  0
  8 28  1  1  0  0  0
  9 13  1  0  0  0  0
 10  7  1  0  0  0  0
 10 12  1  0  0  0  0
 11 14  2  0  0  0  0
 12  9  1  0  0  0  0
 13  4  2  0  0  0  0
 14 13  1  0  0  0  0
 15  1  1  6  0  0  0
 16  5  1  6  0  0  0
 16 15  1  0  0  0  0
 17 19  2  0  0  0  0
 18 19  1  0  0  0  0
 18 24  1  0  0  0  0
 19 23  1  0  0  0  0
 20 21  1  1  0  0  0
 20  7  1  0  0  0  0
 20 18  1  0  0  0  0
 21 17  1  0  0  0  0
 23 22  2  0  0  0  0
 25 24  1  0  0  0  0
 26 25  1  0  0  0  0
 27 28  1  0  0  0  0
M  END
>  <MODEL>
4

>  <REMARK>
 VINA RESULT:      -4.4      1.995      3.142
  Name = 
  5 active torsions:
  status: ('A' for Active; 'I' for Inactive)
    1  A    between atoms: N_9  and  C_18
    2  A    between atoms: C_10  and  C_13
    3  A    between atoms: C_11  and  C_22
    4  A    between atoms: C_12  and  C_23
    5  A    between atoms: C_14  and  C_18
                            x       y       z     vdW  Elec       q    Type
                         _______ _______ _______ _____ _____    ______ ____

>  <TORSDO>
F 5

$$$$
=
 OpenBabel11052413373D

 28 30  0  0  1  0  0  0  0  0999 V2000
  186.3900  175.1150  136.1340 N   0  0  0  0  0  2  0  0  0  0  0  0
  184.1410  174.2700  137.5760 C   0  0  0  0  0  1  0  0  0  0  0  0
  183.9460  175.3120  136.4740 C   0  0  1  0  0  0  0  0  0  0  0  0
  188.9840  177.7080  136.2650 O   0  0  0  0  0  0  0  0  0  0  0  0
  184.6650  173.5190  134.9970 O   0  0  0  0  0  1  0  0  0  0  0  0
  182.8350  177.0460  138.0080 C   0  0  0  0  0  2  0  0  0  0  0  0
  183.9240  178.1090  138.1010 C   0  0  2  0  0  3  0  0  0  0  0  0
  182.7930  176.3240  136.6590 C   0  0  1  0  0  3  0  0  0  0  0  0
  186.6860  178.1620  136.5850 C   0  0  0  0  0  2  0  0  0  0  0  0
  185.2590  177.4890  138.5280 C   0  0  0  0  0  2  0  0  0  0  0  0
  188.6710  175.0240  136.4990 O   0  0  0  0  0  0  0  0  0  0  0  0
  186.4290  178.3440  138.0710 C   0  0  0  0  0  2  0  0  0  0  0  0
  187.8260  177.2230  136.3710 C   0  0  0  0  0  0  0  0  0  0  0  0
  187.6550  175.7530  136.3430 C   0  0  0  0  0  0  0  0  0  0  0  0
  185.1730  175.7980  135.7070 C   0  0  2  0  0  3  0  0  0  0  0  0
  184.1760  174.8320  135.0420 C   0  0  2  0  0  3  0  0  0  0  0  0
  181.2030  179.8850  139.5240 C   0  0  0  0  0  3  0  0  0  0  0  0
  182.9950  178.7280  140.3070 N   0  0  0  0  0  0  0  0  0  0  0  0
  181.6680  179.1690  140.5290 C   0  0  0  0  0  0  0  0  0  0  0  0
  183.4550  179.2410  139.0280 C   0  0  2  0  0  3  0  0  0  0  0  0
  182.2540  180.0210  138.4670 C   0  0  0  0  0  2  0  0  0  0  0  0
  180.9360  179.5840  142.7550 O   0  0  0  0  0  0  0  0  0  0  0  0
  180.8980  178.8440  141.7370 C   0  0  0  0  0  3  0  0  0  0  0  0
  183.8550  178.1100  141.3100 C   0  0  0  0  0  2  0  0  0  0  0  0
  184.8930  179.0930  141.8170 C   0  0  0  0  0  2  0  0  0  0  0  0
  186.1720  178.3770  142.1950 C   0  0  0  0  0  1  0  0  0  0  0  0
  181.0830  177.5220  135.2840 C   0  0  0  0  0  1  0  0  0  0  0  0
  182.5670  177.3090  135.5100 C   0  0  0  0  0  2  0  0  0  0  0  0
  1 14  1  0  0  0  0
  3  8  1  0  0  0  0
  3  2  1  1  0  0  0
  4 13  2  0  0  0  0
  7  6  1  1  0  0  0
  7 10  1  0  0  0  0
  7 20  1  0  0  0  0
  8 28  1  6  0  0  0
  8  6  1  0  0  0  0
  9 12  1  0  0  0  0
 12 10  1  0  0  0  0
 13  9  1  0  0  0  0
 14 13  1  0  0  0  0
 14 11  2  0  0  0  0
 15  1  1  1  0  0  0
 15  3  1  0  0  0  0
 16  5  1  1  0  0  0
 16 15  1  0  0  0  0
 16  3  1  0  0  0  0
 17 19  2  0  0  0  0
 18 19  1  0  0  0  0
 18 24  1  0  0  0  0
 19 23  1  0  0  0  0
 20 21  1  6  0  0  0
 20 18  1  0  0  0  0
 21 17  1  0  0  0  0
 23 22  2  0  0  0  0
 24 25  1  0  0  0  0
 25 26  1  0  0  0  0
 27 28  1  0  0  0  0
M  END
>  <MODEL>
5

>  <REMARK>
 VINA RESULT:      -4.3      2.436      6.456
  Name = 
  5 active torsions:
  status: ('A' for Active; 'I' for Inactive)
    1  A    between atoms: N_9  and  C_18
    2  A    between atoms: C_10  and  C_13
    3  A    between atoms: C_11  and  C_22
    4  A    between atoms: C_12  and  C_23
    5  A    between atoms: C_14  and  C_18
                            x       y       z     vdW  Elec       q    Type
                         _______ _______ _______ _____ _____    ______ ____

>  <TORSDO>
F 5

$$$$
=
 OpenBabel11052413373D

 28 30  0  0  1  0  0  0  0  0999 V2000
  191.3830  177.1280  141.3810 N   0  0  0  0  0  2  0  0  0  0  0  0
  190.5530  179.1070  143.1820 C   0  0  0  0  0  1  0  0  0  0  0  0
  189.7960  177.7790  143.1650 C   0  0  1  0  0  0  0  0  0  0  0  0
  190.7130  176.0110  137.9500 O   0  0  0  0  0  0  0  0  0  0  0  0
  191.9110  176.8480  143.9220 O   0  0  0  0  0  1  0  0  0  0  0  0
  187.4990  178.8450  142.7370 C   0  0  0  0  0  2  0  0  0  0  0  0
  187.2310  178.4190  141.2980 C   0  0  2  0  0  3  0  0  0  0  0  0
  188.2990  177.8180  143.5440 C   0  0  1  0  0  3  0  0  0  0  0  0
  189.0030  176.5380  139.4940 C   0  0  0  0  0  2  0  0  0  0  0  0
  188.4050  178.7980  140.3890 C   0  0  0  0  0  2  0  0  0  0  0  0
  192.6690  177.1280  139.4590 O   0  0  0  0  0  0  0  0  0  0  0  0
  188.4490  177.9110  139.1550 C   0  0  0  0  0  2  0  0  0  0  0  0
  190.4390  176.4500  139.0980 C   0  0  0  0  0  0  0  0  0  0  0  0
  191.5380  176.9170  139.9720 C   0  0  0  0  0  0  0  0  0  0  0  0
  190.2250  176.7090  142.1630 C   0  0  2  0  0  3  0  0  0  0  0  0
  190.5660  176.5550  143.6560 C   0  0  2  0  0  3  0  0  0  0  0  0
  184.5230  178.2590  139.0120 C   0  0  0  0  0  3  0  0  0  0  0  0
  184.7700  178.1840  141.2700 N   0  0  0  0  0  0  0  0  0  0  0  0
  184.0080  177.8040  140.1390 C   0  0  0  0  0  0  0  0  0  0  0  0
  185.8880  179.0030  140.8330 C   0  0  2  0  0  3  0  0  0  0  0  0
  185.7540  179.0610  139.3030 C   0  0  0  0  0  2  0  0  0  0  0  0
  182.6400  175.9710  139.4840 O   0  0  0  0  0  0  0  0  0  0  0  0
  182.7940  176.9820  140.2190 C   0  0  0  0  0  3  0  0  0  0  0  0
  184.3500  178.0270  142.6590 C   0  0  0  0  0  2  0  0  0  0  0  0
  184.1540  179.3760  143.3240 C   0  0  0  0  0  2  0  0  0  0  0  0
  184.3940  179.2800  144.8150 C   0  0  0  0  0  1  0  0  0  0  0  0
  186.7130  176.3810  144.8360 C   0  0  0  0  0  1  0  0  0  0  0  0
  187.5770  176.4690  143.5950 C   0  0  0  0  0  2  0  0  0  0  0  0
  3  2  1  6  0  0  0
  3  8  1  0  0  0  0
  3 16  1  0  0  0  0
  4 13  2  0  0  0  0
  6  8  1  0  0  0  0
  7 10  1  6  0  0  0
  7  6  1  0  0  0  0
  8 28  1  6  0  0  0
 11 14  2  0  0  0  0
 12  9  1  0  0  0  0
 12 10  1  0  0  0  0
 13  9  1  0  0  0  0
 13 14  1  0  0  0  0
 14  1  1  0  0  0  0
 15  1  1  6  0  0  0
 15  3  1  0  0  0  0
 15 16  1  0  0  0  0
 16  5  1  6  0  0  0
 17 21  1  0  0  0  0
 17 19  2  0  0  0  0
 18 24  1  0  0  0  0
 19 23  1  0  0  0  0
 19 18  1  0  0  0  0
 20 21  1  6  0  0  0
 20 18  1  0  0  0  0
 20  7  1  0  0  0  0
 22 23  2  0  0  0  0
 24 25  1  0  0  0  0
 25 26  1  0  0  0  0
 28 27  1  0  0  0  0
M  END
>  <MODEL>
6

>  <REMARK>
 VINA RESULT:      -4.3      4.126      8.386
  Name = 
  5 active torsions:
  status: ('A' for Active; 'I' for Inactive)
    1  A    between atoms: N_9  and  C_18
    2  A    between atoms: C_10  and  C_13
    3  A    between atoms: C_11  and  C_22
    4  A    between atoms: C_12  and  C_23
    5  A    between atoms: C_14  and  C_18
                            x       y       z     vdW  Elec       q    Type
                         _______ _______ _______ _____ _____    ______ ____

>  <TORSDO>
F 5

$$$$
=
 OpenBabel11052413373D

 28 30  0  0  1  0  0  0  0  0999 V2000
  186.7580  177.6340  143.3080 N   0  0  0  0  0  2  0  0  0  0  0  0
  188.6500  175.5790  143.5320 C   0  0  0  0  0  1  0  0  0  0  0  0
  189.1420  177.0260  143.5890 C   0  0  1  0  0  0  0  0  0  0  0  0
  185.1620  179.6970  140.7260 O   0  0  0  0  0  0  0  0  0  0  0  0
  187.8300  177.1270  145.6340 O   0  0  0  0  0  1  0  0  0  0  0  0
  190.8060  176.7670  141.6500 C   0  0  0  0  0  2  0  0  0  0  0  0
  190.1280  177.5890  140.5590 C   0  0  2  0  0  3  0  0  0  0  0  0
  190.5670  177.3060  143.0630 C   0  0  1  0  0  3  0  0  0  0  0  0
  187.4910  179.2960  140.8020 C   0  0  0  0  0  2  0  0  0  0  0  0
  188.6780  177.1380  140.3560 C   0  0  0  0  0  2  0  0  0  0  0  0
  184.5860  177.7530  142.5270 O   0  0  0  0  0  0  0  0  0  0  0  0
  187.8380  178.2530  139.7540 C   0  0  0  0  0  2  0  0  0  0  0  0
  186.1000  179.0820  141.3000 C   0  0  0  0  0  0  0  0  0  0  0  0
  185.7790  178.1330  142.3900 C   0  0  0  0  0  0  0  0  0  0  0  0
  188.1180  178.1490  143.4360 C   0  0  2  0  0  3  0  0  0  0  0  0
  188.7230  177.8330  144.8160 C   0  0  2  0  0  3  0  0  0  0  0  0
  192.9540  176.2420  138.8900 C   0  0  0  0  0  3  0  0  0  0  0  0
  190.7120  176.3090  138.5260 N   0  0  0  0  0  0  0  0  0  0  0  0
  191.9340  175.6220  138.3280 C   0  0  0  0  0  0  0  0  0  0  0  0
  190.9700  177.5270  139.2750 C   0  0  2  0  0  3  0  0  0  0  0  0
  192.4830  177.5030  139.5470 C   0  0  0  0  0  2  0  0  0  0  0  0
  193.1610  173.8930  137.2470 O   0  0  0  0  0  0  0  0  0  0  0  0
  192.0420  174.3550  137.5930 C   0  0  0  0  0  3  0  0  0  0  0  0
  189.4550  176.0000  137.8520 C   0  0  0  0  0  2  0  0  0  0  0  0
  189.4720  176.4950  136.4180 C   0  0  0  0  0  2  0  0  0  0  0  0
  188.8860  177.8880  136.3250 C   0  0  0  0  0  1  0  0  0  0  0  0
  192.0550  178.8520  144.3450 C   0  0  0  0  0  1  0  0  0  0  0  0
  191.0680  178.7450  143.2000 C   0  0  0  0  0  2  0  0  0  0  0  0
  3  2  1  6  0  0  0
  3 16  1  0  0  0  0
  4 13  2  0  0  0  0
  6  8  1  0  0  0  0
  7 10  1  6  0  0  0
  7  6  1  0  0  0  0
  8 28  1  6  0  0  0
  8  3  1  0  0  0  0
  9 13  1  0  0  0  0
 12 10  1  0  0  0  0
 12  9  1  0  0  0  0
 13 14  1  0  0  0  0
 14 11  2  0  0  0  0
 14  1  1  0  0  0  0
 15  1  1  1  0  0  0
 15  3  1  0  0  0  0
 15 16  1  0  0  0  0
 16  5  1  1  0  0  0
 17 21  1  0  0  0  0
 18 20  1  0  0  0  0
 19 18  1  0  0  0  0
 19 17  2  0  0  0  0
 20 21  1  1  0  0  0
 20  7  1  0  0  0  0
 22 23  2  0  0  0  0
 23 19  1  0  0  0  0
 24 18  1  0  0  0  0
 25 24  1  0  0  0  0
 26 25  1  0  0  0  0
 28 27  1  0  0  0  0
M  END
>  <MODEL>
7

>  <REMARK>
 VINA RESULT:      -4.3      4.286      6.644
  Name = 
  5 active torsions:
  status: ('A' for Active; 'I' for Inactive)
    1  A    between atoms: N_9  and  C_18
    2  A    between atoms: C_10  and  C_13
    3  A    between atoms: C_11  and  C_22
    4  A    between atoms: C_12  and  C_23
    5  A    between atoms: C_14  and  C_18
                            x       y       z     vdW  Elec       q    Type
                         _______ _______ _______ _____ _____    ______ ____

>  <TORSDO>
F 5

$$$$
=
 OpenBabel11052413373D

 28 30  0  0  1  0  0  0  0  0999 V2000
  187.3870  174.3870  135.6590 N   0  0  0  0  0  2  0  0  0  0  0  0
  187.7300  177.0790  134.9600 C   0  0  0  0  0  1  0  0  0  0  0  0
  187.8510  176.6920  136.4350 C   0  0  1  0  0  0  0  0  0  0  0  0
  184.7170  172.0770  136.6600 O   0  0  0  0  0  0  0  0  0  0  0  0
  189.7840  175.4210  135.6860 O   0  0  0  0  0  1  0  0  0  0  0  0
  186.0490  178.3360  137.2390 C   0  0  0  0  0  2  0  0  0  0  0  0
  184.9200  177.3850  137.6190 C   0  0  2  0  0  3  0  0  0  0  0  0
  187.4470  177.7580  137.4770 C   0  0  1  0  0  3  0  0  0  0  0  0
  184.9750  174.2340  137.5920 C   0  0  0  0  0  2  0  0  0  0  0  0
  184.5930  176.4340  136.4620 C   0  0  0  0  0  2  0  0  0  0  0  0
  186.4340  172.5560  134.6170 O   0  0  0  0  0  0  0  0  0  0  0  0
  183.9420  175.1580  136.9710 C   0  0  0  0  0  2  0  0  0  0  0  0
  185.3550  173.1620  136.6250 C   0  0  0  0  0  0  0  0  0  0  0  0
  186.4000  173.3510  135.5940 C   0  0  0  0  0  0  0  0  0  0  0  0
  187.6330  175.2310  136.8230 C   0  0  2  0  0  3  0  0  0  0  0  0
  189.0520  175.8270  136.8100 C   0  0  2  0  0  3  0  0  0  0  0  0
  181.3910  177.6340  137.8800 C   0  0  0  0  0  3  0  0  0  0  0  0
  183.1470  177.6450  139.3230 N   0  0  0  0  0  0  0  0  0  0  0  0
  181.7770  177.3590  139.1120 C   0  0  0  0  0  0  0  0  0  0  0  0
  183.7080  178.1970  138.1010 C   0  0  2  0  0  3  0  0  0  0  0  0
  182.5410  178.1900  137.0990 C   0  0  0  0  0  2  0  0  0  0  0  0
  180.5190  175.6010  140.1060 O   0  0  0  0  0  0  0  0  0  0  0  0
  180.8960  176.8010  140.1470 C   0  0  0  0  0  3  0  0  0  0  0  0
  183.8140  177.6570  140.6210 C   0  0  0  0  0  2  0  0  0  0  0  0
  184.4610  179.0030  140.8870 C   0  0  0  0  0  2  0  0  0  0  0  0
  185.6920  178.8440  141.7530 C   0  0  0  0  0  1  0  0  0  0  0  0
  188.7110  178.2530  139.5760 C   0  0  0  0  0  1  0  0  0  0  0  0
  187.6470  177.3780  138.9460 C   0  0  0  0  0  2  0  0  0  0  0  0
  3  2  1  6  0  0  0
  3 16  1  0  0  0  0
  3 15  1  0  0  0  0
  3  8  1  0  0  0  0
  6  8  1  0  0  0  0
  6  7  1  0  0  0  0
  7 10  1  6  0  0  0
  7 20  1  0  0  0  0
  8 28  1  1  0  0  0
 10 12  1  0  0  0  0
 11 14  2  0  0  0  0
 12  9  1  0  0  0  0
 13  4  2  0  0  0  0
 13  9  1  0  0  0  0
 14  1  1  0  0  0  0
 14 13  1  0  0  0  0
 15  1  1  6  0  0  0
 16  5  1  6  0  0  0
 16 15  1  0  0  0  0
 17 19  2  0  0  0  0
 18 24  1  0  0  0  0
 19 18  1  0  0  0  0
 19 23  1  0  0  0  0
 20 21  1  6  0  0  0
 20 18  1  0  0  0  0
 21 17  1  0  0  0  0
 22 23  2  0  0  0  0
 24 25  1  0  0  0  0
 25 26  1  0  0  0  0
 28 27  1  0  0  0  0
M  END
>  <MODEL>
8

>  <REMARK>
 VINA RESULT:      -4.3      2.500      6.878
  Name = 
  5 active torsions:
  status: ('A' for Active; 'I' for Inactive)
    1  A    between atoms: N_9  and  C_18
    2  A    between atoms: C_10  and  C_13
    3  A    between atoms: C_11  and  C_22
    4  A    between atoms: C_12  and  C_23
    5  A    between atoms: C_14  and  C_18
                            x       y       z     vdW  Elec       q    Type
                         _______ _______ _______ _____ _____    ______ ____

>  <TORSDO>
F 5

$$$$
=
 OpenBabel11052413373D

 28 30  0  0  1  0  0  0  0  0999 V2000
  181.4000  177.5010  139.8660 N   0  0  0  0  0  2  0  0  0  0  0  0
  181.1670  177.1560  137.0940 C   0  0  0  0  0  1  0  0  0  0  0  0
  181.9410  176.1060  137.8930 C   0  0  1  0  0  0  0  0  0  0  0  0
  183.6480  179.0640  142.3100 O   0  0  0  0  0  0  0  0  0  0  0  0
  179.7870  175.6720  138.9340 O   0  0  0  0  0  1  0  0  0  0  0  0
  184.0960  176.3280  136.5130 C   0  0  0  0  0  2  0  0  0  0  0  0
  185.0230  177.0140  137.5100 C   0  0  2  0  0  3  0  0  0  0  0  0
  183.0900  175.3750  137.1650 C   0  0  1  0  0  3  0  0  0  0  0  0
  184.4170  177.7260  140.5190 C   0  0  0  0  0  2  0  0  0  0  0  0
  184.3740  178.2810  138.0790 C   0  0  0  0  0  2  0  0  0  0  0  0
  181.1430  179.2980  141.2980 O   0  0  0  0  0  0  0  0  0  0  0  0
  184.9640  178.6360  139.4340 C   0  0  0  0  0  2  0  0  0  0  0  0
  183.3320  178.4200  141.2740 C   0  0  0  0  0  0  0  0  0  0  0  0
  181.9240  178.4340  140.8180 C   0  0  0  0  0  0  0  0  0  0  0  0
  182.0970  176.3070  139.3990 C   0  0  2  0  0  3  0  0  0  0  0  0
  181.1210  175.2490  138.8550 C   0  0  2  0  0  3  0  0  0  0  0  0
  188.2310  178.5140  137.7340 C   0  0  0  0  0  3  0  0  0  0  0  0
  187.4200  176.4170  137.3980 N   0  0  0  0  0  0  0  0  0  0  0  0
  188.4770  177.2260  137.8820 C   0  0  0  0  0  0  0  0  0  0  0  0
  186.3840  177.2740  136.8460 C   0  0  2  0  0  3  0  0  0  0  0  0
  186.9020  178.7050  137.0710 C   0  0  0  0  0  2  0  0  0  0  0  0
  189.8910  176.7530  139.7360 O   0  0  0  0  0  0  0  0  0  0  0  0
  189.6970  176.6840  138.4940 C   0  0  0  0  0  3  0  0  0  0  0  0
  187.4820  174.9710  137.2190 C   0  0  0  0  0  2  0  0  0  0  0  0
  187.9760  174.6150  135.8290 C   0  0  0  0  0  2  0  0  0  0  0  0
  186.8250  174.1940  134.9410 C   0  0  0  0  0  1  0  0  0  0  0  0
  184.0290  173.0590  137.0810 C   0  0  0  0  0  1  0  0  0  0  0  0
  183.8020  174.2750  137.9570 C   0  0  0  0  0  2  0  0  0  0  0  0
  1 14  1  0  0  0  0
  3  2  1  6  0  0  0
  3 16  1  0  0  0  0
  3 15  1  0  0  0  0
  6  8  1  0  0  0  0
  7  6  1  6  0  0  0
  7 10  1  0  0  0  0
  8  3  1  0  0  0  0
  8 28  1  1  0  0  0
  9 13  1  0  0  0  0
 10 12  1  0  0  0  0
 12  9  1  0  0  0  0
 13  4  2  0  0  0  0
 14 13  1  0  0  0  0
 14 11  2  0  0  0  0
 15  1  1  6  0  0  0
 16  5  1  6  0  0  0
 16 15  1  0  0  0  0
 17 19  2  0  0  0  0
 18 19  1  0  0  0  0
 19 23  1  0  0  0  0
 20 21  1  1  0  0  0
 20 18  1  0  0  0  0
 20  7  1  0  0  0  0
 21 17  1  0  0  0  0
 23 22  2  0  0  0  0
 24 18  1  0  0  0  0
 25 24  1  0  0  0  0
 26 25  1  0  0  0  0
 27 28  1  0  0  0  0
M  END
>  <MODEL>
9

>  <REMARK>
 VINA RESULT:      -4.3      1.825      2.223
  Name = 
  5 active torsions:
  status: ('A' for Active; 'I' for Inactive)
    1  A    between atoms: N_9  and  C_18
    2  A    between atoms: C_10  and  C_13
    3  A    between atoms: C_11  and  C_22
    4  A    between atoms: C_12  and  C_23
    5  A    between atoms: C_14  and  C_18
                            x       y       z     vdW  Elec       q    Type
                         _______ _______ _______ _____ _____    ______ ____

>  <TORSDO>
F 5

$$$$
