=
 OpenBabel11052413363D

 28 30  0  0  1  0  0  0  0  0999 V2000
  184.7550  177.7610  137.7390 O   0  0  0  0  0  0  0  0  0  0  0  0
  183.3380  178.5860  140.9400 C   0  0  2  0  0  3  0  0  0  0  0  0
  185.6380  179.0030  140.0430 C   0  0  0  0  0  1  0  0  0  0  0  0
  182.6630  176.9770  138.5720 C   0  0  1  0  0  0  0  0  0  0  0  0
  181.9830  177.8880  140.7180 C   0  0  0  0  0  2  0  0  0  0  0  0
  182.7410  175.7170  139.1750 O   0  0  0  0  0  1  0  0  0  0  0  0
  184.0140  177.6380  138.7050 C   0  0  0  0  0  0  0  0  0  0  0  0
  182.2860  176.7230  137.1120 C   0  0  0  0  0  1  0  0  0  0  0  0
  184.4850  178.0070  140.0920 C   0  0  2  0  0  3  0  0  0  0  0  0
  181.6390  177.7860  139.2840 N   0  0  1  0  0  0  0  0  0  0  0  0
  181.1560  179.0640  138.6440 C   0  0  1  0  0  0  0  0  0  0  0  0
  179.0070  179.0130  140.0100 C   0  0  0  0  0  1  0  0  0  0  0  0
  179.5970  179.0510  138.6050 C   0  0  0  0  0  0  0  0  0  0  0  0
  179.7080  181.7600  138.7730 C   0  0  1  0  0  3  0  0  0  0  0  0
  179.0930  177.8190  137.8720 C   0  0  0  0  0  1  0  0  0  0  0  0
  181.2160  181.6230  138.7080 C   0  0  0  0  0  2  0  0  0  0  0  0
  181.6470  180.3320  139.3860 C   0  0  0  0  0  2  0  0  0  0  0  0
  179.3080  183.1390  138.2940 C   0  0  0  0  0  1  0  0  0  0  0  0
  181.6300  179.1780  137.3430 F   0  0  0  0  0  0  0  0  0  0  0  0
  178.9310  180.5050  137.7070 S   0  0  0  0  0  0  0  0  0  0  0  0
  184.9670  178.2500  142.8280 C   0  0  0  0  0  3  0  0  0  0  0  0
  182.7170  178.9910  143.3610 C   0  0  0  0  0  0  0  0  0  0  0  0
  184.3380  178.6400  145.1310 C   0  0  0  0  0  0  0  0  0  0  0  0
  183.6800  178.6140  142.4030 C   0  0  0  0  0  0  0  0  0  0  0  0
  183.0520  179.0020  144.7180 C   0  0  0  0  0  3  0  0  0  0  0  0
  181.3330  179.3810  142.9640 C   0  0  0  0  0  1  0  0  0  0  0  0
  184.6540  178.6510  146.4480 F   0  0  0  0  0  0  0  0  0  0  0  0
  185.2950  178.2630  144.1860 C   0  0  0  0  0  3  0  0  0  0  0  0
  1  7  2  0  0  0  0
  2 24  1  1  0  0  0
  4  8  1  6  0  0  0
  4  7  1  0  0  0  0
  4  6  1  0  0  0  0
  4 10  1  0  0  0  0
  5  2  1  0  0  0  0
  7  9  1  0  0  0  0
  9  3  1  6  0  0  0
  9  2  1  0  0  0  0
 10  5  1  1  0  0  0
 11 19  1  6  0  0  0
 11 10  1  0  0  0  0
 11 17  1  0  0  0  0
 13 11  1  0  0  0  0
 13 12  1  0  0  0  0
 14 18  1  6  0  0  0
 15 13  1  0  0  0  0
 16 14  1  0  0  0  0
 16 17  1  0  0  0  0
 20 13  1  0  0  0  0
 20 14  1  0  0  0  0
 21 28  1  0  0  0  0
 22 25  2  0  0  0  0
 23 27  1  0  0  0  0
 24 21  2  0  0  0  0
 24 22  1  0  0  0  0
 25 23  1  0  0  0  0
 26 22  1  0  0  0  0
 28 23  2  0  0  0  0
M  END
>  <MODEL>
1

>  <REMARK>
 VINA RESULT:      -6.6      0.000      0.000
  Name = 
  2 active torsions:
  status: ('A' for Active; 'I' for Inactive)
    1  A    between atoms: C_1  and  N_27
    2  A    between atoms: C_10  and  C_13
                            x       y       z     vdW  Elec       q    Type
                         _______ _______ _______ _____ _____    ______ ____

>  <TORSDO>
F 2

$$$$
=
 OpenBabel11052413363D

 28 30  0  0  1  0  0  0  0  0999 V2000
  189.5850  177.9460  135.1350 O   0  0  0  0  0  0  0  0  0  0  0  0
  188.4790  177.1310  138.4580 C   0  0  2  0  0  3  0  0  0  0  0  0
  189.0520  179.3500  137.4530 C   0  0  0  0  0  1  0  0  0  0  0  0
  189.4270  175.7470  136.0420 C   0  0  1  0  0  0  0  0  0  0  0  0
  188.4840  175.6010  138.2760 C   0  0  0  0  0  2  0  0  0  0  0  0
  190.6350  175.2710  136.5630 O   0  0  0  0  0  1  0  0  0  0  0  0
  189.4450  177.2540  136.1350 C   0  0  0  0  0  0  0  0  0  0  0  0
  189.3690  175.2580  134.5950 C   0  0  0  0  0  1  0  0  0  0  0  0
  189.4350  177.8760  137.5110 C   0  0  2  0  0  3  0  0  0  0  0  0
  188.3080  175.2090  136.8610 N   0  0  1  0  0  0  0  0  0  0  0  0
  186.9020  175.3310  136.3300 C   0  0  1  0  0  0  0  0  0  0  0  0
  186.1840  173.2220  137.5630 C   0  0  0  0  0  1  0  0  0  0  0  0
  186.2850  173.9040  136.2040 C   0  0  0  0  0  0  0  0  0  0  0  0
  183.8680  175.0590  136.6530 C   0  0  1  0  0  3  0  0  0  0  0  0
  187.1550  173.0230  135.3240 C   0  0  0  0  0  1  0  0  0  0  0  0
  184.5930  176.3890  136.6560 C   0  0  0  0  0  2  0  0  0  0  0  0
  185.9940  176.2120  137.2220 C   0  0  0  0  0  2  0  0  0  0  0  0
  182.4140  175.2800  136.2960 C   0  0  0  0  0  1  0  0  0  0  0  0
  186.8950  175.9260  135.0740 F   0  0  0  0  0  0  0  0  0  0  0  0
  184.6250  173.9490  135.4240 S   0  0  0  0  0  0  0  0  0  0  0  0
  189.9280  177.1180  140.5150 C   0  0  0  0  0  3  0  0  0  0  0  0
  187.7470  178.1790  140.6440 C   0  0  0  0  0  0  0  0  0  0  0  0
  189.1950  178.1240  142.5900 C   0  0  0  0  0  0  0  0  0  0  0  0
  188.7220  177.4870  139.8980 C   0  0  0  0  0  0  0  0  0  0  0  0
  187.9900  178.4940  141.9840 C   0  0  0  0  0  3  0  0  0  0  0  0
  186.4470  178.5890  140.0380 C   0  0  0  0  0  1  0  0  0  0  0  0
  189.4220  178.4310  143.8890 F   0  0  0  0  0  0  0  0  0  0  0  0
  190.1630  177.4360  141.8550 C   0  0  0  0  0  3  0  0  0  0  0  0
  1  7  2  0  0  0  0
  2 24  1  1  0  0  0
  4  8  1  6  0  0  0
  4  7  1  0  0  0  0
  4  6  1  0  0  0  0
  4 10  1  0  0  0  0
  5  2  1  0  0  0  0
  7  9  1  0  0  0  0
  9  3  1  6  0  0  0
  9  2  1  0  0  0  0
 10  5  1  1  0  0  0
 11 19  1  6  0  0  0
 11 10  1  0  0  0  0
 11 17  1  0  0  0  0
 13 11  1  0  0  0  0
 13 12  1  0  0  0  0
 14 18  1  6  0  0  0
 14 16  1  0  0  0  0
 15 13  1  0  0  0  0
 16 17  1  0  0  0  0
 20 13  1  0  0  0  0
 20 14  1  0  0  0  0
 21 28  1  0  0  0  0
 22 25  2  0  0  0  0
 23 27  1  0  0  0  0
 24 21  2  0  0  0  0
 24 22  1  0  0  0  0
 25 23  1  0  0  0  0
 26 22  1  0  0  0  0
 28 23  2  0  0  0  0
M  END
>  <MODEL>
2

>  <REMARK>
 VINA RESULT:      -6.5      5.398      6.974
  Name = 
  2 active torsions:
  status: ('A' for Active; 'I' for Inactive)
    1  A    between atoms: C_1  and  N_27
    2  A    between atoms: C_10  and  C_13
                            x       y       z     vdW  Elec       q    Type
                         _______ _______ _______ _____ _____    ______ ____

>  <TORSDO>
F 2

$$$$
=
 OpenBabel11052413363D

 28 30  0  0  1  0  0  0  0  0999 V2000
  181.1730  175.9050  139.8880 O   0  0  0  0  0  0  0  0  0  0  0  0
  183.7260  177.8420  138.2560 C   0  0  2  0  0  3  0  0  0  0  0  0
  183.2190  175.3960  138.1040 C   0  0  0  0  0  1  0  0  0  0  0  0
  181.7530  178.1570  140.4150 C   0  0  1  0  0  0  0  0  0  0  0  0
  183.4280  179.1710  138.9770 C   0  0  0  0  0  2  0  0  0  0  0  0
  182.6570  178.2660  141.4780 O   0  0  0  0  0  1  0  0  0  0  0  0
  181.9770  176.8190  139.7530 C   0  0  0  0  0  0  0  0  0  0  0  0
  180.3590  178.2700  141.0320 C   0  0  0  0  0  1  0  0  0  0  0  0
  183.2910  176.5930  139.0430 C   0  0  2  0  0  3  0  0  0  0  0  0
  182.0260  179.2480  139.4420 N   0  0  1  0  0  0  0  0  0  0  0  0
  181.0060  179.5280  138.3680 C   0  0  1  0  0  0  0  0  0  0  0  0
  181.6970  181.9770  138.2590 C   0  0  0  0  0  1  0  0  0  0  0  0
  180.5400  181.0120  138.4890 C   0  0  0  0  0  0  0  0  0  0  0  0
  180.1130  180.9530  135.8070 C   0  0  1  0  0  3  0  0  0  0  0  0
  179.9960  181.2870  139.8810 C   0  0  0  0  0  1  0  0  0  0  0  0
  180.5010  179.4890  135.8570 C   0  0  0  0  0  2  0  0  0  0  0  0
  181.5460  179.2690  136.9400 C   0  0  0  0  0  2  0  0  0  0  0  0
  179.2420  181.2010  134.5940 C   0  0  0  0  0  1  0  0  0  0  0  0
  179.8960  178.7040  138.5090 F   0  0  0  0  0  0  0  0  0  0  0  0
  179.1870  181.3950  137.3110 S   0  0  0  0  0  0  0  0  0  0  0  0
  186.1720  178.1010  138.7880 C   0  0  0  0  0  3  0  0  0  0  0  0
  185.5430  177.4070  136.5470 C   0  0  0  0  0  0  0  0  0  0  0  0
  187.8820  177.6830  137.1280 C   0  0  0  0  0  0  0  0  0  0  0  0
  185.1740  177.7770  137.8560 C   0  0  0  0  0  0  0  0  0  0  0  0
  186.8950  177.3610  136.1920 C   0  0  0  0  0  3  0  0  0  0  0  0
  184.5220  177.0600  135.5170 C   0  0  0  0  0  1  0  0  0  0  0  0
  189.1890  177.6380  136.7760 F   0  0  0  0  0  0  0  0  0  0  0  0
  187.5210  178.0530  138.4260 C   0  0  0  0  0  3  0  0  0  0  0  0
  2 24  1  1  0  0  0
  2  5  1  0  0  0  0
  2  9  1  0  0  0  0
  4  8  1  1  0  0  0
  4  6  1  0  0  0  0
  7  1  2  0  0  0  0
  7  4  1  0  0  0  0
  9  3  1  6  0  0  0
  9  7  1  0  0  0  0
 10  5  1  6  0  0  0
 10  4  1  0  0  0  0
 11 13  1  0  0  0  0
 11 19  1  1  0  0  0
 11 10  1  0  0  0  0
 12 13  1  0  0  0  0
 13 15  1  0  0  0  0
 14 18  1  6  0  0  0
 14 16  1  0  0  0  0
 14 20  1  0  0  0  0
 16 17  1  0  0  0  0
 17 11  1  0  0  0  0
 20 13  1  0  0  0  0
 22 24  1  0  0  0  0
 23 28  2  0  0  0  0
 24 21  2  0  0  0  0
 25 22  2  0  0  0  0
 25 23  1  0  0  0  0
 26 22  1  0  0  0  0
 27 23  1  0  0  0  0
 28 21  1  0  0  0  0
M  END
>  <MODEL>
3

>  <REMARK>
 VINA RESULT:      -6.3      3.102      4.979
  Name = 
  2 active torsions:
  status: ('A' for Active; 'I' for Inactive)
    1  A    between atoms: C_1  and  N_27
    2  A    between atoms: C_10  and  C_13
                            x       y       z     vdW  Elec       q    Type
                         _______ _______ _______ _____ _____    ______ ____

>  <TORSDO>
F 2

$$$$
=
 OpenBabel11052413363D

 28 30  0  0  1  0  0  0  0  0999 V2000
  183.7990  173.6340  137.8640 O   0  0  0  0  0  0  0  0  0  0  0  0
  183.7320  177.2050  137.4370 C   0  0  2  0  0  3  0  0  0  0  0  0
  182.7080  175.7790  139.2210 C   0  0  0  0  0  1  0  0  0  0  0  0
  184.5160  174.8110  135.9180 C   0  0  1  0  0  0  0  0  0  0  0  0
  184.4590  177.2340  136.0790 C   0  0  0  0  0  2  0  0  0  0  0  0
  183.5350  174.8920  134.9230 O   0  0  0  0  0  1  0  0  0  0  0  0
  183.8150  174.6930  137.2500 C   0  0  0  0  0  0  0  0  0  0  0  0
  185.3470  173.5700  135.5920 C   0  0  0  0  0  1  0  0  0  0  0  0
  183.0110  175.8780  137.7310 C   0  0  2  0  0  3  0  0  0  0  0  0
  185.3310  176.0540  135.8900 N   0  0  1  0  0  0  0  0  0  0  0  0
  186.6290  176.0840  136.6570 C   0  0  1  0  0  0  0  0  0  0  0  0
  187.6960  177.6110  134.9200 C   0  0  0  0  0  1  0  0  0  0  0  0
  187.8050  176.2780  135.6510 C   0  0  0  0  0  0  0  0  0  0  0  0
  189.1330  177.5370  137.6580 C   0  0  1  0  0  3  0  0  0  0  0  0
  187.7890  175.1850  134.5950 C   0  0  0  0  0  1  0  0  0  0  0  0
  187.9540  177.1950  138.5460 C   0  0  0  0  0  2  0  0  0  0  0  0
  186.6720  177.2020  137.7280 C   0  0  0  0  0  2  0  0  0  0  0  0
  190.3640  177.7400  138.5140 C   0  0  0  0  0  1  0  0  0  0  0  0
  186.8280  174.8920  137.3440 F   0  0  0  0  0  0  0  0  0  0  0  0
  189.4350  176.1770  136.4860 S   0  0  0  0  0  0  0  0  0  0  0  0
  181.7240  178.5220  136.6850 C   0  0  0  0  0  3  0  0  0  0  0  0
  183.0310  179.3700  138.5470 C   0  0  0  0  0  0  0  0  0  0  0  0
  181.0860  180.5910  137.7650 C   0  0  0  0  0  0  0  0  0  0  0  0
  182.8110  178.3860  137.5630 C   0  0  0  0  0  0  0  0  0  0  0  0
  182.1670  180.4650  138.6430 C   0  0  0  0  0  3  0  0  0  0  0  0
  184.1740  179.2770  139.5010 C   0  0  0  0  0  1  0  0  0  0  0  0
  180.2550  181.6550  137.8620 F   0  0  0  0  0  0  0  0  0  0  0  0
  180.8660  179.6190  136.7860 C   0  0  0  0  0  3  0  0  0  0  0  0
  2 24  1  6  0  0  0
  2  9  1  0  0  0  0
  4  8  1  6  0  0  0
  4  7  1  0  0  0  0
  5  2  1  0  0  0  0
  6  4  1  0  0  0  0
  7  9  1  0  0  0  0
  7  1  2  0  0  0  0
  9  3  1  1  0  0  0
 10  4  1  0  0  0  0
 10  5  1  1  0  0  0
 10 11  1  0  0  0  0
 11 19  1  1  0  0  0
 11 17  1  0  0  0  0
 12 13  1  0  0  0  0
 13 20  1  0  0  0  0
 13 11  1  0  0  0  0
 14 18  1  1  0  0  0
 14 16  1  0  0  0  0
 15 13  1  0  0  0  0
 17 16  1  0  0  0  0
 20 14  1  0  0  0  0
 21 28  2  0  0  0  0
 21 24  1  0  0  0  0
 22 25  1  0  0  0  0
 22 26  1  0  0  0  0
 23 27  1  0  0  0  0
 23 25  2  0  0  0  0
 24 22  2  0  0  0  0
 28 23  1  0  0  0  0
M  END
>  <MODEL>
4

>  <REMARK>
 VINA RESULT:      -6.1      4.237      7.200
  Name = 
  2 active torsions:
  status: ('A' for Active; 'I' for Inactive)
    1  A    between atoms: C_1  and  N_27
    2  A    between atoms: C_10  and  C_13
                            x       y       z     vdW  Elec       q    Type
                         _______ _______ _______ _____ _____    ______ ____

>  <TORSDO>
F 2

$$$$
=
 OpenBabel11052413363D

 28 30  0  0  1  0  0  0  0  0999 V2000
  178.9310  179.1700  140.8140 O   0  0  0  0  0  0  0  0  0  0  0  0
  182.3680  178.5310  141.6570 C   0  0  2  0  0  3  0  0  0  0  0  0
  180.2950  178.2460  143.0310 C   0  0  0  0  0  1  0  0  0  0  0  0
  180.8210  179.8330  139.5210 C   0  0  1  0  0  0  0  0  0  0  0  0
  182.9740  179.0750  140.3490 C   0  0  0  0  0  2  0  0  0  0  0  0
  181.2320  181.1480  139.7680 O   0  0  0  0  0  1  0  0  0  0  0  0
  180.1450  179.3170  140.7680 C   0  0  0  0  0  0  0  0  0  0  0  0
  179.8610  179.9080  138.3330 C   0  0  0  0  0  1  0  0  0  0  0  0
  180.9930  179.1290  142.0040 C   0  0  2  0  0  3  0  0  0  0  0  0
  182.0190  179.0060  139.2230 N   0  0  1  0  0  0  0  0  0  0  0  0
  181.8190  177.6320  138.6320 C   0  0  1  0  0  0  0  0  0  0  0  0
  183.9930  177.8090  137.3180 C   0  0  0  0  0  1  0  0  0  0  0  0
  182.4880  177.5850  137.2240 C   0  0  0  0  0  0  0  0  0  0  0  0
  182.8980  174.9360  137.6590 C   0  0  1  0  0  3  0  0  0  0  0  0
  181.9270  178.6790  136.3320 C   0  0  0  0  0  1  0  0  0  0  0  0
  182.1430  175.1130  138.9600 C   0  0  0  0  0  2  0  0  0  0  0  0
  182.3990  176.5040  139.5210 C   0  0  0  0  0  2  0  0  0  0  0  0
  182.8150  173.4890  137.2220 C   0  0  0  0  0  1  0  0  0  0  0  0
  180.4670  177.3460  138.4880 F   0  0  0  0  0  0  0  0  0  0  0  0
  182.1630  175.9940  136.3720 S   0  0  0  0  0  0  0  0  0  0  0  0
  182.8780  178.8990  144.0940 C   0  0  0  0  0  3  0  0  0  0  0  0
  184.7340  178.6080  142.5550 C   0  0  0  0  0  0  0  0  0  0  0  0
  185.1520  178.9730  144.9160 C   0  0  0  0  0  0  0  0  0  0  0  0
  183.3460  178.6780  142.7890 C   0  0  0  0  0  0  0  0  0  0  0  0
  185.6280  178.7550  143.6200 C   0  0  0  0  0  3  0  0  0  0  0  0
  185.2840  178.3810  141.1870 C   0  0  0  0  0  1  0  0  0  0  0  0
  186.0240  179.1160  145.9420 F   0  0  0  0  0  0  0  0  0  0  0  0
  183.7780  179.0460  145.1530 C   0  0  0  0  0  3  0  0  0  0  0  0
  2  9  1  0  0  0  0
  2 24  1  1  0  0  0
  4  8  1  6  0  0  0
  4  6  1  0  0  0  0
  4  7  1  0  0  0  0
  5  2  1  0  0  0  0
  7  1  2  0  0  0  0
  7  9  1  0  0  0  0
  9  3  1  1  0  0  0
 10  4  1  0  0  0  0
 10  5  1  1  0  0  0
 11 19  1  6  0  0  0
 11 10  1  0  0  0  0
 11 17  1  0  0  0  0
 13 12  1  0  0  0  0
 13 11  1  0  0  0  0
 14 18  1  6  0  0  0
 14 16  1  0  0  0  0
 15 13  1  0  0  0  0
 16 17  1  0  0  0  0
 20 13  1  0  0  0  0
 20 14  1  0  0  0  0
 21 28  1  0  0  0  0
 22 24  1  0  0  0  0
 22 25  2  0  0  0  0
 23 28  2  0  0  0  0
 23 27  1  0  0  0  0
 24 21  2  0  0  0  0
 25 23  1  0  0  0  0
 26 22  1  0  0  0  0
M  END
>  <MODEL>
5

>  <REMARK>
 VINA RESULT:      -5.8      2.254      4.463
  Name = 
  2 active torsions:
  status: ('A' for Active; 'I' for Inactive)
    1  A    between atoms: C_1  and  N_27
    2  A    between atoms: C_10  and  C_13
                            x       y       z     vdW  Elec       q    Type
                         _______ _______ _______ _____ _____    ______ ____

>  <TORSDO>
F 2

$$$$
=
 OpenBabel11052413363D

 28 30  0  0  1  0  0  0  0  0999 V2000
  187.4740  178.3750  134.7540 O   0  0  0  0  0  0  0  0  0  0  0  0
  187.6910  177.6080  138.2610 C   0  0  2  0  0  3  0  0  0  0  0  0
  188.8770  179.3590  136.9210 C   0  0  0  0  0  1  0  0  0  0  0  0
  186.5540  176.4450  135.8100 C   0  0  1  0  0  0  0  0  0  0  0  0
  186.7770  176.3680  138.2280 C   0  0  0  0  0  2  0  0  0  0  0  0
  187.3830  175.3200  135.7360 O   0  0  0  0  0  1  0  0  0  0  0  0
  187.4320  177.6720  135.7560 C   0  0  0  0  0  0  0  0  0  0  0  0
  185.6130  176.3560  134.6090 C   0  0  0  0  0  1  0  0  0  0  0  0
  188.3670  177.9220  136.9160 C   0  0  2  0  0  3  0  0  0  0  0  0
  185.8190  176.4140  137.1030 N   0  0  1  0  0  0  0  0  0  0  0  0
  184.6500  177.3480  137.2910 C   0  0  1  0  0  0  0  0  0  0  0  0
  183.4250  175.6320  138.7190 C   0  0  0  0  0  1  0  0  0  0  0  0
  183.3520  176.5020  137.4700 C   0  0  0  0  0  0  0  0  0  0  0  0
  182.4010  178.5370  138.9960 C   0  0  1  0  0  3  0  0  0  0  0  0
  183.1560  175.5710  136.2850 C   0  0  0  0  0  1  0  0  0  0  0  0
  183.6760  179.2820  138.6580 C   0  0  0  0  0  2  0  0  0  0  0  0
  184.8240  178.2950  138.5030 C   0  0  0  0  0  2  0  0  0  0  0  0
  181.3200  179.5320  139.3600 C   0  0  0  0  0  1  0  0  0  0  0  0
  184.4900  178.1730  136.1840 F   0  0  0  0  0  0  0  0  0  0  0  0
  181.8580  177.5630  137.5570 S   0  0  0  0  0  0  0  0  0  0  0  0
  189.9320  176.8840  139.1460 C   0  0  0  0  0  3  0  0  0  0  0  0
  188.3880  177.9780  140.6670 C   0  0  0  0  0  0  0  0  0  0  0  0
  190.5640  177.2480  141.4530 C   0  0  0  0  0  0  0  0  0  0  0  0
  188.6890  177.4930  139.3790 C   0  0  0  0  0  0  0  0  0  0  0  0
  189.3270  177.8540  141.6950 C   0  0  0  0  0  3  0  0  0  0  0  0
  187.0800  178.6280  140.9700 C   0  0  0  0  0  1  0  0  0  0  0  0
  191.4670  177.1300  142.4550 F   0  0  0  0  0  0  0  0  0  0  0  0
  190.8660  176.7630  140.1790 C   0  0  0  0  0  3  0  0  0  0  0  0
  1  7  2  0  0  0  0
  2 24  1  1  0  0  0
  4  8  1  6  0  0  0
  4 10  1  0  0  0  0
  5  2  1  0  0  0  0
  6  4  1  0  0  0  0
  7  4  1  0  0  0  0
  7  9  1  0  0  0  0
  9  3  1  1  0  0  0
  9  2  1  0  0  0  0
 10 11  1  0  0  0  0
 10  5  1  1  0  0  0
 11 19  1  6  0  0  0
 11 13  1  0  0  0  0
 11 17  1  0  0  0  0
 13 20  1  0  0  0  0
 13 12  1  0  0  0  0
 14 18  1  6  0  0  0
 15 13  1  0  0  0  0
 16 14  1  0  0  0  0
 17 16  1  0  0  0  0
 20 14  1  0  0  0  0
 21 24  2  0  0  0  0
 21 28  1  0  0  0  0
 22 26  1  0  0  0  0
 22 25  2  0  0  0  0
 23 25  1  0  0  0  0
 23 27  1  0  0  0  0
 24 22  1  0  0  0  0
 28 23  2  0  0  0  0
M  END
>  <MODEL>
6

>  <REMARK>
 VINA RESULT:      -5.7      3.801      5.334
  Name = 
  2 active torsions:
  status: ('A' for Active; 'I' for Inactive)
    1  A    between atoms: C_1  and  N_27
    2  A    between atoms: C_10  and  C_13
                            x       y       z     vdW  Elec       q    Type
                         _______ _______ _______ _____ _____    ______ ____

>  <TORSDO>
F 2

$$$$
=
 OpenBabel11052413363D

 28 30  0  0  1  0  0  0  0  0999 V2000
  185.1770  174.5570  136.3180 O   0  0  0  0  0  0  0  0  0  0  0  0
  184.4810  177.5250  138.2260 C   0  0  2  0  0  3  0  0  0  0  0  0
  183.4330  175.2540  138.3430 C   0  0  0  0  0  1  0  0  0  0  0  0
  186.0120  176.7380  135.8410 C   0  0  1  0  0  0  0  0  0  0  0  0
  185.4400  178.4560  137.4600 C   0  0  0  0  0  2  0  0  0  0  0  0
  185.2500  177.4320  134.8940 O   0  0  0  0  0  1  0  0  0  0  0  0
  185.1010  175.7580  136.5400 C   0  0  0  0  0  0  0  0  0  0  0  0
  187.1220  176.0370  135.0580 C   0  0  0  0  0  1  0  0  0  0  0  0
  183.9970  176.3160  137.4060 C   0  0  2  0  0  3  0  0  0  0  0  0
  186.5500  177.7120  136.8280 N   0  0  1  0  0  0  0  0  0  0  0  0
  187.6400  177.2590  137.7670 C   0  0  1  0  0  0  0  0  0  0  0  0
  189.0530  179.3050  137.2180 C   0  0  0  0  0  1  0  0  0  0  0  0
  189.0110  177.7810  137.2390 C   0  0  0  0  0  0  0  0  0  0  0  0
  189.8310  177.8370  139.8270 C   0  0  1  0  0  3  0  0  0  0  0  0
  189.2490  177.3070  135.8150 C   0  0  0  0  0  1  0  0  0  0  0  0
  188.4860  177.2390  140.1840 C   0  0  0  0  0  2  0  0  0  0  0  0
  187.4230  177.7460  139.2210 C   0  0  0  0  0  2  0  0  0  0  0  0
  190.8330  177.5030  140.9120 C   0  0  0  0  0  1  0  0  0  0  0  0
  187.6930  175.8720  137.8350 F   0  0  0  0  0  0  0  0  0  0  0  0
  190.4090  177.1500  138.2440 S   0  0  0  0  0  0  0  0  0  0  0  0
  182.3920  178.8980  137.9430 C   0  0  0  0  0  3  0  0  0  0  0  0
  183.2020  178.4760  140.1930 C   0  0  0  0  0  0  0  0  0  0  0  0
  181.1970  179.7970  139.8450 C   0  0  0  0  0  0  0  0  0  0  0  0
  183.3350  178.3100  138.8000 C   0  0  0  0  0  0  0  0  0  0  0  0
  182.1330  179.2170  140.7070 C   0  0  0  0  0  3  0  0  0  0  0  0
  184.1800  177.8780  141.1470 C   0  0  0  0  0  1  0  0  0  0  0  0
  180.1670  180.5160  140.3500 F   0  0  0  0  0  0  0  0  0  0  0  0
  181.3270  179.6380  138.4640 C   0  0  0  0  0  3  0  0  0  0  0  0
  1  7  2  0  0  0  0
  2 24  1  6  0  0  0
  4  8  1  6  0  0  0
  4  7  1  0  0  0  0
  4 10  1  0  0  0  0
  5  2  1  0  0  0  0
  6  4  1  0  0  0  0
  7  9  1  0  0  0  0
  9  2  1  0  0  0  0
  9  3  1  1  0  0  0
 10  5  1  1  0  0  0
 10 11  1  0  0  0  0
 11 19  1  1  0  0  0
 11 17  1  0  0  0  0
 12 13  1  0  0  0  0
 13 11  1  0  0  0  0
 13 20  1  0  0  0  0
 14 16  1  0  0  0  0
 14 18  1  1  0  0  0
 15 13  1  0  0  0  0
 17 16  1  0  0  0  0
 20 14  1  0  0  0  0
 21 28  2  0  0  0  0
 21 24  1  0  0  0  0
 22 25  1  0  0  0  0
 22 26  1  0  0  0  0
 23 27  1  0  0  0  0
 23 25  2  0  0  0  0
 24 22  2  0  0  0  0
 28 23  1  0  0  0  0
M  END
>  <MODEL>
7

>  <REMARK>
 VINA RESULT:      -5.7      4.116      7.014
  Name = 
  2 active torsions:
  status: ('A' for Active; 'I' for Inactive)
    1  A    between atoms: C_1  and  N_27
    2  A    between atoms: C_10  and  C_13
                            x       y       z     vdW  Elec       q    Type
                         _______ _______ _______ _____ _____    ______ ____

>  <TORSDO>
F 2

$$$$
=
 OpenBabel11052413363D

 28 30  0  0  1  0  0  0  0  0999 V2000
  179.3280  181.0030  139.1650 O   0  0  0  0  0  0  0  0  0  0  0  0
  181.5580  178.9690  141.1200 C   0  0  2  0  0  3  0  0  0  0  0  0
  179.6740  180.4480  141.8490 C   0  0  0  0  0  1  0  0  0  0  0  0
  181.2990  179.9340  138.3540 C   0  0  1  0  0  0  0  0  0  0  0  0
  182.4540  178.5160  139.9520 C   0  0  0  0  0  2  0  0  0  0  0  0
  182.4220  180.7700  138.3430 O   0  0  0  0  0  1  0  0  0  0  0  0
  180.3700  180.4220  139.4390 C   0  0  0  0  0  0  0  0  0  0  0  0
  180.6730  180.0500  136.9640 C   0  0  0  0  0  1  0  0  0  0  0  0
  180.8350  180.3040  140.8710 C   0  0  2  0  0  3  0  0  0  0  0  0
  181.7380  178.5470  138.6580 N   0  0  1  0  0  0  0  0  0  0  0  0
  180.7650  177.4160  138.4330 C   0  0  1  0  0  0  0  0  0  0  0  0
  182.6670  175.7380  138.2070 C   0  0  0  0  0  1  0  0  0  0  0  0
  181.4410  176.3410  137.5290 C   0  0  0  0  0  0  0  0  0  0  0  0
  179.8930  174.5030  138.7930 C   0  0  1  0  0  3  0  0  0  0  0  0
  181.9100  176.9610  136.2240 C   0  0  0  0  0  1  0  0  0  0  0  0
  179.2580  175.6630  139.5330 C   0  0  0  0  0  2  0  0  0  0  0  0
  180.2870  176.7610  139.7520 C   0  0  0  0  0  2  0  0  0  0  0  0
  178.9310  173.3340  138.7710 C   0  0  0  0  0  1  0  0  0  0  0  0
  179.6160  177.8690  137.7960 F   0  0  0  0  0  0  0  0  0  0  0  0
  180.2740  174.9980  137.0840 S   0  0  0  0  0  0  0  0  0  0  0  0
  183.6940  179.3500  142.3950 C   0  0  0  0  0  3  0  0  0  0  0  0
  181.7300  178.6180  143.6220 C   0  0  0  0  0  0  0  0  0  0  0  0
  183.8250  178.9990  144.7850 C   0  0  0  0  0  0  0  0  0  0  0  0
  182.3390  178.9830  142.4040 C   0  0  0  0  0  0  0  0  0  0  0  0
  182.4770  178.6290  144.8040 C   0  0  0  0  0  3  0  0  0  0  0  0
  180.2960  178.2130  143.6870 C   0  0  0  0  0  1  0  0  0  0  0  0
  184.5420  179.0060  145.9340 F   0  0  0  0  0  0  0  0  0  0  0  0
  184.4330  179.3590  143.5800 C   0  0  0  0  0  3  0  0  0  0  0  0
  1  7  2  0  0  0  0
  2 24  1  1  0  0  0
  4  8  1  6  0  0  0
  4 10  1  0  0  0  0
  4  7  1  0  0  0  0
  5  2  1  0  0  0  0
  6  4  1  0  0  0  0
  7  9  1  0  0  0  0
  9  2  1  0  0  0  0
  9  3  1  1  0  0  0
 10  5  1  1  0  0  0
 11 19  1  6  0  0  0
 11 10  1  0  0  0  0
 11 17  1  0  0  0  0
 13 12  1  0  0  0  0
 13 11  1  0  0  0  0
 14 18  1  6  0  0  0
 14 16  1  0  0  0  0
 15 13  1  0  0  0  0
 16 17  1  0  0  0  0
 20 13  1  0  0  0  0
 20 14  1  0  0  0  0
 21 24  2  0  0  0  0
 21 28  1  0  0  0  0
 22 26  1  0  0  0  0
 22 25  2  0  0  0  0
 23 25  1  0  0  0  0
 23 27  1  0  0  0  0
 24 22  1  0  0  0  0
 28 23  2  0  0  0  0
M  END
>  <MODEL>
8

>  <REMARK>
 VINA RESULT:      -5.7      2.485      4.178
  Name = 
  2 active torsions:
  status: ('A' for Active; 'I' for Inactive)
    1  A    between atoms: C_1  and  N_27
    2  A    between atoms: C_10  and  C_13
                            x       y       z     vdW  Elec       q    Type
                         _______ _______ _______ _____ _____    ______ ____

>  <TORSDO>
F 2

$$$$
=
 OpenBabel11052413363D

 28 30  0  0  1  0  0  0  0  0999 V2000
  187.1400  178.2620  139.8970 O   0  0  0  0  0  0  0  0  0  0  0  0
  188.9830  176.1580  137.6350 C   0  0  2  0  0  3  0  0  0  0  0  0
  189.3680  176.6380  140.0620 C   0  0  0  0  0  1  0  0  0  0  0  0
  186.8600  178.1930  137.5300 C   0  0  1  0  0  0  0  0  0  0  0  0
  188.1870  176.5220  136.3670 C   0  0  0  0  0  2  0  0  0  0  0  0
  187.5840  179.1810  136.8540 O   0  0  0  0  0  1  0  0  0  0  0  0
  187.5850  177.8890  138.8190 C   0  0  0  0  0  0  0  0  0  0  0  0
  185.4700  178.7790  137.7730 C   0  0  0  0  0  1  0  0  0  0  0  0
  188.9470  177.2420  138.7270 C   0  0  2  0  0  3  0  0  0  0  0  0
  186.8140  176.9710  136.6830 N   0  0  1  0  0  0  0  0  0  0  0  0
  185.8460  175.8740  137.0520 C   0  0  1  0  0  0  0  0  0  0  0  0
  185.3730  175.3770  134.5990 C   0  0  0  0  0  1  0  0  0  0  0  0
  184.7590  175.7650  135.9390 C   0  0  0  0  0  0  0  0  0  0  0  0
  184.5760  173.1300  136.5690 C   0  0  1  0  0  3  0  0  0  0  0  0
  184.0620  177.1010  135.7430 C   0  0  0  0  0  1  0  0  0  0  0  0
  185.5740  173.4050  137.6750 C   0  0  0  0  0  2  0  0  0  0  0  0
  186.5360  174.5010  137.2410 C   0  0  0  0  0  2  0  0  0  0  0  0
  183.7650  171.9000  136.9180 C   0  0  0  0  0  1  0  0  0  0  0  0
  185.2160  176.1520  138.2590 F   0  0  0  0  0  0  0  0  0  0  0  0
  183.4560  174.5530  136.3820 S   0  0  0  0  0  0  0  0  0  0  0  0
  191.4090  176.7330  137.2950 C   0  0  0  0  0  3  0  0  0  0  0  0
  190.6970  174.4430  136.9070 C   0  0  0  0  0  0  0  0  0  0  0  0
  193.0200  175.0700  136.5930 C   0  0  0  0  0  0  0  0  0  0  0  0
  190.3890  175.7680  137.2760 C   0  0  0  0  0  0  0  0  0  0  0  0
  192.0110  174.1030  136.5690 C   0  0  0  0  0  3  0  0  0  0  0  0
  189.6510  173.3820  136.8660 C   0  0  0  0  0  1  0  0  0  0  0  0
  194.2890  174.7320  136.2620 F   0  0  0  0  0  0  0  0  0  0  0  0
  192.7180  176.3850  136.9550 C   0  0  0  0  0  3  0  0  0  0  0  0
  2 24  1  6  0  0  0
  2  9  1  0  0  0  0
  4  8  1  1  0  0  0
  4  7  1  0  0  0  0
  5  2  1  0  0  0  0
  6  4  1  0  0  0  0
  7  1  2  0  0  0  0
  9  7  1  0  0  0  0
  9  3  1  1  0  0  0
 10  5  1  1  0  0  0
 10 11  1  0  0  0  0
 10  4  1  0  0  0  0
 11 17  1  0  0  0  0
 11 19  1  1  0  0  0
 12 13  1  0  0  0  0
 13 20  1  0  0  0  0
 13 11  1  0  0  0  0
 14 18  1  1  0  0  0
 14 16  1  0  0  0  0
 15 13  1  0  0  0  0
 17 16  1  0  0  0  0
 20 14  1  0  0  0  0
 22 24  2  0  0  0  0
 23 28  1  0  0  0  0
 24 21  1  0  0  0  0
 25 23  2  0  0  0  0
 25 22  1  0  0  0  0
 26 22  1  0  0  0  0
 27 23  1  0  0  0  0
 28 21  2  0  0  0  0
M  END
>  <MODEL>
9

>  <REMARK>
 VINA RESULT:      -5.7      5.875      8.523
  Name = 
  2 active torsions:
  status: ('A' for Active; 'I' for Inactive)
    1  A    between atoms: C_1  and  N_27
    2  A    between atoms: C_10  and  C_13
                            x       y       z     vdW  Elec       q    Type
                         _______ _______ _______ _____ _____    ______ ____

>  <TORSDO>
F 2

$$$$
