=
 OpenBabel11052415173D

 37 42  0  0  1  0  0  0  0  0999 V2000
  184.3890  176.2850  137.2790 C   0  0  0  0  0  2  0  0  0  0  0  0
  181.0660  177.0430  140.7050 C   0  0  0  0  0  0  0  0  0  0  0  0
  185.7490  176.4460  136.6070 C   0  0  0  0  0  2  0  0  0  0  0  0
  183.9090  179.4760  140.3520 O   0  0  0  0  0  0  0  0  0  0  0  0
  181.2070  175.1710  139.1320 C   0  0  0  0  0  2  0  0  0  0  0  0
  182.4240  177.5190  140.2590 C   0  0  2  0  0  3  0  0  0  0  0  0
  187.1710  178.0260  137.9240 C   0  0  2  0  0  3  0  0  0  0  0  0
  180.5010  175.9430  140.1700 C   0  0  0  0  0  0  0  0  0  0  0  0
  182.6460  178.9860  140.7080 C   0  0  1  0  0  3  0  0  0  0  0  0
  179.2530  175.8550  140.5470 O   0  0  0  0  0  0  0  0  0  0  0  0
  186.8850  176.5560  137.6110 C   0  0  2  0  0  3  0  0  0  0  0  0
  181.8350  176.1960  138.1600 C   0  0  2  0  0  3  0  0  0  0  0  0
  180.0050  179.0650  141.8720 C   0  0  0  0  0  2  0  0  0  0  0  0
  178.9310  176.8790  141.2880 N   0  0  0  0  0  0  0  0  0  0  0  0
  186.1240  178.6330  138.8500 C   0  0  0  0  0  2  0  0  0  0  0  0
  183.9010  179.7200  138.9770 C   0  0  0  0  0  2  0  0  0  0  0  0
  180.0330  177.6500  141.3960 C   0  0  0  0  0  0  0  0  0  0  0  0
  182.6130  177.3130  138.7870 N   0  0  2  0  0  0  0  0  0  0  0  0
  182.4860  179.0800  142.1720 N   0  0  0  0  0  0  0  0  0  0  0  0
  184.7010  178.6240  138.2810 C   0  0  2  0  0  3  0  0  0  0  0  0
  187.2980  178.7870  136.7560 O   0  0  0  0  0  1  0  0  0  0  0  0
  184.0660  177.2270  138.4720 C   0  0  2  0  0  3  0  0  0  0  0  0
  181.1870  179.3830  142.7800 C   0  0  0  0  0  2  0  0  0  0  0  0
  183.4290  178.9530  144.4420 C   0  0  0  0  0  3  0  0  0  0  0  0
  183.5580  178.7280  143.0650 C   0  0  0  0  0  0  0  0  0  0  0  0
  184.7620  178.1990  142.5720 C   0  0  0  0  0  3  0  0  0  0  0  0
  186.9670  177.3850  142.9540 F   0  0  0  0  0  0  0  0  0  0  0  0
  185.6670  178.1110  144.8110 C   0  0  0  0  0  3  0  0  0  0  0  0
  185.8100  177.8890  143.4400 C   0  0  0  0  0  0  0  0  0  0  0  0
  184.4770  178.6430  145.3120 C   0  0  0  0  0  3  0  0  0  0  0  0
  189.1920  176.0490  137.9470 O   0  0  0  0  0  1  0  0  0  0  0  0
  188.1340  175.9010  137.0480 C   0  0  0  0  0  2  0  0  0  0  0  0
  180.7940  176.7770  137.2160 C   0  0  0  0  0  2  0  0  0  0  0  0
  181.1860  178.1380  136.7620 C   0  0  0  0  0  0  0  0  0  0  0  0
  181.9630  178.2620  135.7800 O   0  0  0  0  0  0  0  0  0  0  0  0
  180.6520  179.2560  137.3980 O   0  0  0  0  0  0  0  0  0  0  0  0
  179.4270  179.1970  138.1160 C   0  0  0  0  0  1  0  0  0  0  0  0
  1 22  1  0  0  0  0
  2 17  1  0  0  0  0
  3  1  1  0  0  0  0
  3 11  1  0  0  0  0
  5  8  1  0  0  0  0
  6  2  1  6  0  0  0
  6  9  1  0  0  0  0
  7 21  1  6  0  0  0
  7 15  1  0  0  0  0
  8 10  1  0  0  0  0
  8  2  2  0  0  0  0
  9  4  1  1  0  0  0
  9 19  1  0  0  0  0
 10 14  1  0  0  0  0
 11 32  1  6  0  0  0
 11  7  1  0  0  0  0
 12 33  1  1  0  0  0
 12 18  1  0  0  0  0
 12  5  1  0  0  0  0
 13 23  1  0  0  0  0
 14 17  2  0  0  0  0
 16  4  1  0  0  0  0
 17 13  1  0  0  0  0
 18  6  1  0  0  0  0
 19 23  1  0  0  0  0
 19 25  1  0  0  0  0
 20 22  1  0  0  0  0
 20 15  1  0  0  0  0
 20 16  1  0  0  0  0
 22 18  1  0  0  0  0
 24 30  1  0  0  0  0
 25 24  2  0  0  0  0
 26 25  1  0  0  0  0
 26 29  2  0  0  0  0
 27 29  1  0  0  0  0
 28 30  2  0  0  0  0
 29 28  1  0  0  0  0
 32 31  1  0  0  0  0
 34 33  1  0  0  0  0
 34 36  1  0  0  0  0
 35 34  2  0  0  0  0
 36 37  1  0  0  0  0
M  END
>  <MODEL>
1

>  <REMARK>
 VINA RESULT:      -7.1      0.000      0.000
  Name = 
  5 active torsions:
  status: ('A' for Active; 'I' for Inactive)
    1  A    between atoms: O_3  and  C_21
    2  A    between atoms: C_6  and  N_31
    3  A    between atoms: C_17  and  C_23
    4  A    between atoms: C_20  and  C_25
    5  A    between atoms: C_21  and  C_25
                            x       y       z     vdW  Elec       q    Type
                         _______ _______ _______ _____ _____    ______ ____

>  <TORSDO>
F 5

$$$$
=
 OpenBabel11052415173D

 37 42  0  0  1  0  0  0  0  0999 V2000
  186.0560  175.9090  137.0540 C   0  0  0  0  0  2  0  0  0  0  0  0
  182.0790  176.6790  139.6880 C   0  0  0  0  0  0  0  0  0  0  0  0
  187.5150  176.1080  136.6550 C   0  0  0  0  0  2  0  0  0  0  0  0
  184.8200  179.2520  139.7280 O   0  0  0  0  0  0  0  0  0  0  0  0
  182.6200  174.7240  138.3160 C   0  0  0  0  0  2  0  0  0  0  0  0
  183.4750  177.2070  139.4870 C   0  0  2  0  0  3  0  0  0  0  0  0
  188.5680  177.8490  138.1080 C   0  0  2  0  0  3  0  0  0  0  0  0
  181.6850  175.5170  139.1350 C   0  0  0  0  0  0  0  0  0  0  0  0
  183.5340  178.7100  139.8620 C   0  0  1  0  0  3  0  0  0  0  0  0
  180.3920  175.3770  139.2630 O   0  0  0  0  0  0  0  0  0  0  0  0
  188.4180  176.3490  137.8530 C   0  0  2  0  0  3  0  0  0  0  0  0
  183.3840  175.7220  137.4160 C   0  0  2  0  0  3  0  0  0  0  0  0
  180.7120  178.7040  140.4710 C   0  0  0  0  0  2  0  0  0  0  0  0
  179.8800  176.4250  139.8480 N   0  0  0  0  0  0  0  0  0  0  0  0
  187.3290  178.4490  138.7620 C   0  0  0  0  0  2  0  0  0  0  0  0
  185.0790  179.4080  138.3650 C   0  0  0  0  0  2  0  0  0  0  0  0
  180.9010  177.2660  140.1150 C   0  0  0  0  0  0  0  0  0  0  0  0
  183.9670  176.9210  138.1010 N   0  0  2  0  0  0  0  0  0  0  0  0
  183.0780  178.8850  141.2540 N   0  0  0  0  0  0  0  0  0  0  0  0
  186.0510  178.3200  137.9240 C   0  0  2  0  0  3  0  0  0  0  0  0
  188.8930  178.5420  136.9360 O   0  0  0  0  0  1  0  0  0  0  0  0
  185.4560  176.9030  138.0870 C   0  0  2  0  0  3  0  0  0  0  0  0
  181.6710  179.1480  141.5690 C   0  0  0  0  0  2  0  0  0  0  0  0
  185.2720  178.2060  142.1410 C   0  0  0  0  0  3  0  0  0  0  0  0
  183.9630  178.6550  142.3660 C   0  0  0  0  0  0  0  0  0  0  0  0
  183.5200  178.8290  143.6860 C   0  0  0  0  0  3  0  0  0  0  0  0
  183.9350  178.7400  146.0310 F   0  0  0  0  0  0  0  0  0  0  0  0
  185.6780  178.1340  144.5260 C   0  0  0  0  0  3  0  0  0  0  0  0
  184.3740  178.5740  144.7620 C   0  0  0  0  0  0  0  0  0  0  0  0
  186.1270  177.9510  143.2170 C   0  0  0  0  0  3  0  0  0  0  0  0
  190.7250  176.3020  138.4610 O   0  0  0  0  0  1  0  0  0  0  0  0
  189.7850  175.7350  137.5990 C   0  0  0  0  0  2  0  0  0  0  0  0
  182.5290  176.1800  136.2440 C   0  0  0  0  0  2  0  0  0  0  0  0
  181.9160  175.0200  135.5460 C   0  0  0  0  0  0  0  0  0  0  0  0
  180.6620  174.9070  135.5170 O   0  0  0  0  0  0  0  0  0  0  0  0
  182.7320  174.1000  134.8910 O   0  0  0  0  0  0  0  0  0  0  0  0
  182.2890  172.7830  134.5950 C   0  0  0  0  0  1  0  0  0  0  0  0
  1 22  1  0  0  0  0
  2 17  1  0  0  0  0
  3  1  1  0  0  0  0
  3 11  1  0  0  0  0
  5  8  1  0  0  0  0
  6  2  1  6  0  0  0
  6  9  1  0  0  0  0
  7 21  1  6  0  0  0
  7 15  1  0  0  0  0
  8 10  1  0  0  0  0
  8  2  2  0  0  0  0
  9  4  1  1  0  0  0
  9 19  1  0  0  0  0
 10 14  1  0  0  0  0
 11 32  1  6  0  0  0
 11  7  1  0  0  0  0
 12 33  1  6  0  0  0
 12 18  1  0  0  0  0
 12  5  1  0  0  0  0
 13 23  1  0  0  0  0
 14 17  2  0  0  0  0
 16  4  1  0  0  0  0
 17 13  1  0  0  0  0
 18  6  1  0  0  0  0
 19 23  1  0  0  0  0
 19 25  1  0  0  0  0
 20 22  1  0  0  0  0
 20 16  1  0  0  0  0
 20 15  1  0  0  0  0
 22 18  1  0  0  0  0
 24 25  2  0  0  0  0
 24 30  1  0  0  0  0
 25 26  1  0  0  0  0
 26 29  2  0  0  0  0
 28 29  1  0  0  0  0
 29 27  1  0  0  0  0
 30 28  2  0  0  0  0
 32 31  1  0  0  0  0
 34 33  1  0  0  0  0
 35 34  2  0  0  0  0
 36 34  1  0  0  0  0
 37 36  1  0  0  0  0
M  END
>  <MODEL>
2

>  <REMARK>
 VINA RESULT:      -5.8      1.883      2.508
  Name = 
  5 active torsions:
  status: ('A' for Active; 'I' for Inactive)
    1  A    between atoms: O_3  and  C_21
    2  A    between atoms: C_6  and  N_31
    3  A    between atoms: C_17  and  C_23
    4  A    between atoms: C_20  and  C_25
    5  A    between atoms: C_21  and  C_25
                            x       y       z     vdW  Elec       q    Type
                         _______ _______ _______ _____ _____    ______ ____

>  <TORSDO>
F 5

$$$$
=
 OpenBabel11052415173D

 37 42  0  0  1  0  0  0  0  0999 V2000
  188.1060  174.9870  137.2860 C   0  0  0  0  0  2  0  0  0  0  0  0
  183.4010  173.9340  136.9640 C   0  0  0  0  0  0  0  0  0  0  0  0
  189.3120  175.9020  137.4700 C   0  0  0  0  0  2  0  0  0  0  0  0
  184.5160  177.4820  136.4240 O   0  0  0  0  0  0  0  0  0  0  0  0
  185.2470  172.4240  137.5220 C   0  0  0  0  0  2  0  0  0  0  0  0
  184.3390  175.1090  137.0440 C   0  0  2  0  0  3  0  0  0  0  0  0
  188.5550  178.2710  137.7290 C   0  0  2  0  0  3  0  0  0  0  0  0
  183.8340  172.6780  137.1870 C   0  0  0  0  0  0  0  0  0  0  0  0
  183.7040  176.3430  136.3530 C   0  0  1  0  0  3  0  0  0  0  0  0
  182.9070  171.8200  136.8510 O   0  0  0  0  0  0  0  0  0  0  0  0
  189.0470  177.0220  138.4620 C   0  0  2  0  0  3  0  0  0  0  0  0
  186.0960  173.3180  136.5910 C   0  0  2  0  0  3  0  0  0  0  0  0
  181.3740  174.7910  135.6460 C   0  0  0  0  0  2  0  0  0  0  0  0
  181.8690  172.4430  136.3650 N   0  0  0  0  0  0  0  0  0  0  0  0
  187.1020  178.1470  137.2880 C   0  0  0  0  0  2  0  0  0  0  0  0
  185.5720  177.3120  135.5270 C   0  0  0  0  0  2  0  0  0  0  0  0
  182.1460  173.7630  136.4060 C   0  0  0  0  0  0  0  0  0  0  0  0
  185.6920  174.7590  136.5060 N   0  0  2  0  0  0  0  0  0  0  0  0
  182.4010  176.6380  136.9790 N   0  0  0  0  0  0  0  0  0  0  0  0
  186.8370  176.9920  136.3150 C   0  0  2  0  0  3  0  0  0  0  0  0
  189.3760  178.5880  136.6410 O   0  0  0  0  0  1  0  0  0  0  0  0
  186.7190  175.6630  137.0950 C   0  0  2  0  0  3  0  0  0  0  0  0
  181.1570  176.0580  136.4650 C   0  0  0  0  0  2  0  0  0  0  0  0
  181.4310  178.4650  138.3140 C   0  0  0  0  0  3  0  0  0  0  0  0
  182.3140  177.3810  138.2090 C   0  0  0  0  0  0  0  0  0  0  0  0
  183.1380  177.0660  139.3000 C   0  0  0  0  0  3  0  0  0  0  0  0
  183.8730  177.5000  141.5250 F   0  0  0  0  0  0  0  0  0  0  0  0
  182.1840  178.8830  140.5760 C   0  0  0  0  0  3  0  0  0  0  0  0
  183.0710  177.8100  140.4800 C   0  0  0  0  0  0  0  0  0  0  0  0
  181.3640  179.2110  139.4950 C   0  0  0  0  0  3  0  0  0  0  0  0
  190.6070  176.3180  140.1240 O   0  0  0  0  0  1  0  0  0  0  0  0
  190.3200  177.3460  139.2250 C   0  0  0  0  0  2  0  0  0  0  0  0
  186.1810  172.7370  135.1880 C   0  0  0  0  0  2  0  0  0  0  0  0
  187.0440  171.5260  135.1640 C   0  0  0  0  0  0  0  0  0  0  0  0
  188.1830  171.5670  135.6980 O   0  0  0  0  0  0  0  0  0  0  0  0
  186.5620  170.3490  134.5940 O   0  0  0  0  0  0  0  0  0  0  0  0
  185.2140  169.9330  134.7600 C   0  0  0  0  0  1  0  0  0  0  0  0
  1  3  1  0  0  0  0
  2  8  2  0  0  0  0
  3 11  1  0  0  0  0
  6  2  1  6  0  0  0
  7 21  1  6  0  0  0
  7 11  1  0  0  0  0
  8  5  1  0  0  0  0
  9  4  1  1  0  0  0
  9 19  1  0  0  0  0
  9  6  1  0  0  0  0
 10  8  1  0  0  0  0
 11 32  1  6  0  0  0
 12 33  1  6  0  0  0
 12  5  1  0  0  0  0
 13 17  1  0  0  0  0
 13 23  1  0  0  0  0
 14 17  2  0  0  0  0
 14 10  1  0  0  0  0
 15  7  1  0  0  0  0
 16 20  1  0  0  0  0
 16  4  1  0  0  0  0
 17  2  1  0  0  0  0
 18 12  1  0  0  0  0
 18  6  1  0  0  0  0
 18 22  1  0  0  0  0
 19 25  1  0  0  0  0
 20 22  1  0  0  0  0
 20 15  1  0  0  0  0
 22  1  1  0  0  0  0
 23 19  1  0  0  0  0
 24 30  1  0  0  0  0
 25 24  2  0  0  0  0
 25 26  1  0  0  0  0
 26 29  2  0  0  0  0
 29 28  1  0  0  0  0
 29 27  1  0  0  0  0
 30 28  2  0  0  0  0
 32 31  1  0  0  0  0
 34 33  1  0  0  0  0
 34 35  2  0  0  0  0
 36 37  1  0  0  0  0
 36 34  1  0  0  0  0
M  END
>  <MODEL>
3

>  <REMARK>
 VINA RESULT:      -5.7      3.254      5.799
  Name = 
  5 active torsions:
  status: ('A' for Active; 'I' for Inactive)
    1  A    between atoms: O_3  and  C_21
    2  A    between atoms: C_6  and  N_31
    3  A    between atoms: C_17  and  C_23
    4  A    between atoms: C_20  and  C_25
    5  A    between atoms: C_21  and  C_25
                            x       y       z     vdW  Elec       q    Type
                         _______ _______ _______ _____ _____    ______ ____

>  <TORSDO>
F 5

$$$$
=
 OpenBabel11052415173D

 37 42  0  0  1  0  0  0  0  0999 V2000
  186.6480  178.0720  140.7110 C   0  0  0  0  0  2  0  0  0  0  0  0
  184.0890  176.8660  136.7930 C   0  0  0  0  0  0  0  0  0  0  0  0
  186.8420  178.4950  142.1630 C   0  0  0  0  0  2  0  0  0  0  0  0
  182.4010  178.7720  139.5570 O   0  0  0  0  0  0  0  0  0  0  0  0
  186.4260  176.3270  137.2890 C   0  0  0  0  0  2  0  0  0  0  0  0
  183.9170  177.4020  138.1890 C   0  0  2  0  0  3  0  0  0  0  0  0
  184.6200  178.8300  143.2600 C   0  0  2  0  0  3  0  0  0  0  0  0
  185.2690  176.3670  136.3770 C   0  0  0  0  0  0  0  0  0  0  0  0
  182.6360  178.2720  138.2700 C   0  0  1  0  0  3  0  0  0  0  0  0
  185.2400  176.1700  135.0850 O   0  0  0  0  0  0  0  0  0  0  0  0
  185.8080  177.8810  143.0920 C   0  0  2  0  0  3  0  0  0  0  0  0
  186.4470  177.6760  138.0440 C   0  0  2  0  0  3  0  0  0  0  0  0
  182.1290  177.8450  135.4600 C   0  0  0  0  0  2  0  0  0  0  0  0
  184.0950  176.5570  134.5940 N   0  0  0  0  0  0  0  0  0  0  0  0
  183.7080  178.8340  142.0400 C   0  0  0  0  0  2  0  0  0  0  0  0
  183.3180  179.8000  139.7910 C   0  0  0  0  0  2  0  0  0  0  0  0
  183.3570  177.0120  135.6280 C   0  0  0  0  0  0  0  0  0  0  0  0
  185.1500  178.1160  138.6510 N   0  0  2  0  0  0  0  0  0  0  0  0
  181.4730  177.4720  137.8420 N   0  0  0  0  0  0  0  0  0  0  0  0
  184.3910  179.2890  140.7450 C   0  0  2  0  0  3  0  0  0  0  0  0
  185.0380  180.1290  143.5690 O   0  0  0  0  0  1  0  0  0  0  0  0
  185.2030  178.1200  140.1400 C   0  0  2  0  0  3  0  0  0  0  0  0
  181.0340  177.4490  136.4440 C   0  0  0  0  0  2  0  0  0  0  0  0
  180.2910  177.0350  139.9570 C   0  0  0  0  0  3  0  0  0  0  0  0
  180.8170  176.5640  138.7460 C   0  0  0  0  0  0  0  0  0  0  0  0
  180.7330  175.1930  138.4550 C   0  0  0  0  0  3  0  0  0  0  0  0
  180.0510  172.9930  139.0620 F   0  0  0  0  0  0  0  0  0  0  0  0
  179.5970  174.7940  140.5510 C   0  0  0  0  0  3  0  0  0  0  0  0
  180.1230  174.3120  139.3500 C   0  0  0  0  0  0  0  0  0  0  0  0
  179.6800  176.1540  140.8540 C   0  0  0  0  0  3  0  0  0  0  0  0
  187.5780  176.8170  144.2870 O   0  0  0  0  0  1  0  0  0  0  0  0
  186.4340  177.6010  144.4470 C   0  0  0  0  0  2  0  0  0  0  0  0
  186.9970  178.7930  137.1710 C   0  0  0  0  0  2  0  0  0  0  0  0
  188.4820  178.8380  137.2350 C   0  0  0  0  0  0  0  0  0  0  0  0
  189.0430  179.3720  138.2280 O   0  0  0  0  0  0  0  0  0  0  0  0
  189.2330  178.2470  136.2210 O   0  0  0  0  0  0  0  0  0  0  0  0
  189.8170  176.9610  136.3740 C   0  0  0  0  0  1  0  0  0  0  0  0
  1  3  1  0  0  0  0
  3 11  1  0  0  0  0
  4 16  1  0  0  0  0
  5 12  1  0  0  0  0
  6  2  1  6  0  0  0
  6  9  1  0  0  0  0
  6 18  1  0  0  0  0
  7 21  1  6  0  0  0
  8  2  2  0  0  0  0
  8  5  1  0  0  0  0
  9  4  1  1  0  0  0
 10  8  1  0  0  0  0
 11  7  1  0  0  0  0
 11 32  1  1  0  0  0
 12 33  1  6  0  0  0
 12 18  1  0  0  0  0
 13 17  1  0  0  0  0
 13 23  1  0  0  0  0
 14 10  1  0  0  0  0
 14 17  2  0  0  0  0
 15  7  1  0  0  0  0
 16 20  1  0  0  0  0
 17  2  1  0  0  0  0
 18 22  1  0  0  0  0
 19  9  1  0  0  0  0
 19 25  1  0  0  0  0
 20 15  1  0  0  0  0
 22  1  1  0  0  0  0
 22 20  1  0  0  0  0
 23 19  1  0  0  0  0
 24 30  1  0  0  0  0
 25 24  2  0  0  0  0
 26 25  1  0  0  0  0
 26 29  2  0  0  0  0
 27 29  1  0  0  0  0
 28 30  2  0  0  0  0
 29 28  1  0  0  0  0
 31 32  1  0  0  0  0
 33 34  1  0  0  0  0
 34 35  2  0  0  0  0
 36 37  1  0  0  0  0
 36 34  1  0  0  0  0
M  END
>  <MODEL>
4

>  <REMARK>
 VINA RESULT:      -5.7      2.548      6.279
  Name = 
  5 active torsions:
  status: ('A' for Active; 'I' for Inactive)
    1  A    between atoms: O_3  and  C_21
    2  A    between atoms: C_6  and  N_31
    3  A    between atoms: C_17  and  C_23
    4  A    between atoms: C_20  and  C_25
    5  A    between atoms: C_21  and  C_25
                            x       y       z     vdW  Elec       q    Type
                         _______ _______ _______ _____ _____    ______ ____

>  <TORSDO>
F 5

$$$$
=
 OpenBabel11052415173D

 37 42  0  0  1  0  0  0  0  0999 V2000
  190.5970  176.3480  140.8350 C   0  0  0  0  0  2  0  0  0  0  0  0
  188.1770  175.6940  136.7040 C   0  0  0  0  0  0  0  0  0  0  0  0
  190.8220  176.9060  142.2360 C   0  0  0  0  0  2  0  0  0  0  0  0
  187.3140  178.6370  138.8770 O   0  0  0  0  0  0  0  0  0  0  0  0
  189.9250  174.2730  137.6650 C   0  0  0  0  0  2  0  0  0  0  0  0
  188.1370  176.5030  137.9730 C   0  0  2  0  0  3  0  0  0  0  0  0
  188.9200  178.3970  142.8760 C   0  0  2  0  0  3  0  0  0  0  0  0
  189.0190  174.6520  136.5660 C   0  0  0  0  0  0  0  0  0  0  0  0
  187.4140  177.8510  137.7210 C   0  0  1  0  0  3  0  0  0  0  0  0
  189.0290  174.2480  135.3230 O   0  0  0  0  0  0  0  0  0  0  0  0
  189.5340  177.0060  143.0360 C   0  0  2  0  0  3  0  0  0  0  0  0
  190.5010  175.5860  138.2420 C   0  0  2  0  0  3  0  0  0  0  0  0
  187.0480  177.1730  134.9380 C   0  0  0  0  0  2  0  0  0  0  0  0
  188.2550  175.0050  134.5950 N   0  0  0  0  0  0  0  0  0  0  0  0
  188.2430  178.5770  141.5240 C   0  0  0  0  0  2  0  0  0  0  0  0
  188.5780  179.1710  139.1410 C   0  0  0  0  0  2  0  0  0  0  0  0
  187.7180  175.9280  135.4200 C   0  0  0  0  0  0  0  0  0  0  0  0
  189.5080  176.6650  138.5540 N   0  0  2  0  0  0  0  0  0  0  0  0
  186.0600  177.5900  137.1960 N   0  0  0  0  0  0  0  0  0  0  0  0
  189.1850  178.4250  140.3240 C   0  0  2  0  0  3  0  0  0  0  0  0
  189.8660  179.4060  143.0940 O   0  0  0  0  0  1  0  0  0  0  0  0
  189.4090  176.9270  140.0170 C   0  0  2  0  0  3  0  0  0  0  0  0
  185.8040  177.5010  135.7550 C   0  0  0  0  0  2  0  0  0  0  0  0
  184.2300  176.0860  137.8680 C   0  0  0  0  0  3  0  0  0  0  0  0
  184.9690  177.2590  138.0740 C   0  0  0  0  0  0  0  0  0  0  0  0
  184.5970  178.1230  139.1160 C   0  0  0  0  0  3  0  0  0  0  0  0
  183.1640  178.6540  140.9440 F   0  0  0  0  0  0  0  0  0  0  0  0
  182.7930  176.6370  139.7350 C   0  0  0  0  0  3  0  0  0  0  0  0
  183.5170  177.8130  139.9450 C   0  0  0  0  0  0  0  0  0  0  0  0
  183.1500  175.7740  138.6970 C   0  0  0  0  0  3  0  0  0  0  0  0
  188.7040  177.0850  145.2720 O   0  0  0  0  0  1  0  0  0  0  0  0
  189.8170  176.7380  144.5050 C   0  0  0  0  0  2  0  0  0  0  0  0
  191.5950  176.1530  137.3510 C   0  0  0  0  0  2  0  0  0  0  0  0
  192.9410  175.8740  137.9160 C   0  0  0  0  0  0  0  0  0  0  0  0
  193.5140  176.7510  138.6150 O   0  0  0  0  0  0  0  0  0  0  0  0
  193.5320  174.6300  137.7060 O   0  0  0  0  0  0  0  0  0  0  0  0
  194.8970  174.5000  137.3360 C   0  0  0  0  0  1  0  0  0  0  0  0
  1  3  1  0  0  0  0
  3 11  1  0  0  0  0
  4 16  1  0  0  0  0
  5 12  1  0  0  0  0
  6  2  1  6  0  0  0
  6 18  1  0  0  0  0
  7 11  1  0  0  0  0
  7 21  1  6  0  0  0
  8  2  2  0  0  0  0
  8  5  1  0  0  0  0
  9  6  1  0  0  0  0
  9  4  1  1  0  0  0
 10  8  1  0  0  0  0
 11 32  1  1  0  0  0
 12 33  1  6  0  0  0
 12 18  1  0  0  0  0
 13 17  1  0  0  0  0
 13 23  1  0  0  0  0
 14 10  1  0  0  0  0
 14 17  2  0  0  0  0
 15  7  1  0  0  0  0
 16 20  1  0  0  0  0
 17  2  1  0  0  0  0
 18 22  1  0  0  0  0
 19  9  1  0  0  0  0
 19 25  1  0  0  0  0
 20 15  1  0  0  0  0
 22 20  1  0  0  0  0
 22  1  1  0  0  0  0
 23 19  1  0  0  0  0
 24 25  2  0  0  0  0
 24 30  1  0  0  0  0
 25 26  1  0  0  0  0
 26 29  2  0  0  0  0
 28 29  1  0  0  0  0
 29 27  1  0  0  0  0
 30 28  2  0  0  0  0
 32 31  1  0  0  0  0
 33 34  1  0  0  0  0
 34 35  2  0  0  0  0
 36 34  1  0  0  0  0
 37 36  1  0  0  0  0
M  END
>  <MODEL>
5

>  <REMARK>
 VINA RESULT:      -5.6      3.831      8.248
  Name = 
  5 active torsions:
  status: ('A' for Active; 'I' for Inactive)
    1  A    between atoms: O_3  and  C_21
    2  A    between atoms: C_6  and  N_31
    3  A    between atoms: C_17  and  C_23
    4  A    between atoms: C_20  and  C_25
    5  A    between atoms: C_21  and  C_25
                            x       y       z     vdW  Elec       q    Type
                         _______ _______ _______ _____ _____    ______ ____

>  <TORSDO>
F 5

$$$$
=
 OpenBabel11052415173D

 37 42  0  0  1  0  0  0  0  0999 V2000
  186.8270  178.0370  140.6200 C   0  0  0  0  0  2  0  0  0  0  0  0
  184.2080  176.7120  136.7820 C   0  0  0  0  0  0  0  0  0  0  0  0
  187.0450  178.5100  142.0540 C   0  0  0  0  0  2  0  0  0  0  0  0
  182.5700  178.7260  139.5010 O   0  0  0  0  0  0  0  0  0  0  0  0
  186.5480  176.1740  137.2650 C   0  0  0  0  0  2  0  0  0  0  0  0
  184.0580  177.2970  138.1610 C   0  0  2  0  0  3  0  0  0  0  0  0
  184.8410  178.8980  143.1680 C   0  0  2  0  0  3  0  0  0  0  0  0
  185.3780  176.1900  136.3690 C   0  0  0  0  0  0  0  0  0  0  0  0
  182.7850  178.1790  138.2280 C   0  0  1  0  0  3  0  0  0  0  0  0
  185.3300  175.9470  135.0850 O   0  0  0  0  0  0  0  0  0  0  0  0
  186.0190  177.9360  143.0180 C   0  0  2  0  0  3  0  0  0  0  0  0
  186.5880  177.5480  137.9720 C   0  0  2  0  0  3  0  0  0  0  0  0
  182.2350  177.6570  135.4420 C   0  0  0  0  0  2  0  0  0  0  0  0
  184.1810  176.3250  134.5960 N   0  0  0  0  0  0  0  0  0  0  0  0
  183.9110  178.8660  141.9610 C   0  0  0  0  0  2  0  0  0  0  0  0
  183.4970  179.7540  139.6850 C   0  0  0  0  0  2  0  0  0  0  0  0
  183.4600  176.8210  135.6230 C   0  0  0  0  0  0  0  0  0  0  0  0
  185.3020  178.0190  138.5810 N   0  0  2  0  0  0  0  0  0  0  0  0
  181.6100  177.3720  137.8450 N   0  0  0  0  0  0  0  0  0  0  0  0
  184.5800  179.2700  140.6420 C   0  0  2  0  0  3  0  0  0  0  0  0
  185.2710  180.2050  143.4250 O   0  0  0  0  0  1  0  0  0  0  0  0
  185.3750  178.0750  140.0680 C   0  0  2  0  0  3  0  0  0  0  0  0
  181.1520  177.3030  136.4550 C   0  0  0  0  0  2  0  0  0  0  0  0
  180.7850  175.1440  138.4890 C   0  0  0  0  0  3  0  0  0  0  0  0
  180.9600  176.5010  138.7890 C   0  0  0  0  0  0  0  0  0  0  0  0
  180.4530  177.0020  139.9990 C   0  0  0  0  0  3  0  0  0  0  0  0
  179.3070  176.6520  142.0580 F   0  0  0  0  0  0  0  0  0  0  0  0
  179.6330  174.8060  140.5900 C   0  0  0  0  0  3  0  0  0  0  0  0
  179.7960  176.1580  140.8970 C   0  0  0  0  0  0  0  0  0  0  0  0
  180.1280  174.2990  139.3870 C   0  0  0  0  0  3  0  0  0  0  0  0
  187.7950  176.8980  144.2270 O   0  0  0  0  0  1  0  0  0  0  0  0
  186.6630  177.7000  144.3740 C   0  0  0  0  0  2  0  0  0  0  0  0
  187.1330  178.6300  137.0530 C   0  0  0  0  0  2  0  0  0  0  0  0
  188.6030  178.7810  137.2190 C   0  0  0  0  0  0  0  0  0  0  0  0
  189.0550  179.7530  137.8780 O   0  0  0  0  0  0  0  0  0  0  0  0
  189.4580  177.8180  136.6860 O   0  0  0  0  0  0  0  0  0  0  0  0
  190.3750  177.0990  137.4980 C   0  0  0  0  0  1  0  0  0  0  0  0
  1  3  1  0  0  0  0
  3 11  1  0  0  0  0
  4 16  1  0  0  0  0
  5 12  1  0  0  0  0
  6  2  1  6  0  0  0
  6  9  1  0  0  0  0
  6 18  1  0  0  0  0
  7 21  1  6  0  0  0
  8  2  2  0  0  0  0
  8  5  1  0  0  0  0
  9  4  1  1  0  0  0
 10  8  1  0  0  0  0
 11  7  1  0  0  0  0
 11 32  1  1  0  0  0
 12 33  1  6  0  0  0
 12 18  1  0  0  0  0
 13 17  1  0  0  0  0
 13 23  1  0  0  0  0
 14 10  1  0  0  0  0
 14 17  2  0  0  0  0
 15  7  1  0  0  0  0
 16 20  1  0  0  0  0
 17  2  1  0  0  0  0
 18 22  1  0  0  0  0
 19  9  1  0  0  0  0
 19 25  1  0  0  0  0
 20 15  1  0  0  0  0
 22  1  1  0  0  0  0
 22 20  1  0  0  0  0
 23 19  1  0  0  0  0
 24 25  2  0  0  0  0
 24 30  1  0  0  0  0
 25 26  1  0  0  0  0
 26 29  2  0  0  0  0
 28 29  1  0  0  0  0
 29 27  1  0  0  0  0
 30 28  2  0  0  0  0
 31 32  1  0  0  0  0
 33 34  1  0  0  0  0
 34 35  2  0  0  0  0
 36 34  1  0  0  0  0
 36 37  1  0  0  0  0
M  END
>  <MODEL>
6

>  <REMARK>
 VINA RESULT:      -5.5      2.446      6.290
  Name = 
  5 active torsions:
  status: ('A' for Active; 'I' for Inactive)
    1  A    between atoms: O_3  and  C_21
    2  A    between atoms: C_6  and  N_31
    3  A    between atoms: C_17  and  C_23
    4  A    between atoms: C_20  and  C_25
    5  A    between atoms: C_21  and  C_25
                            x       y       z     vdW  Elec       q    Type
                         _______ _______ _______ _____ _____    ______ ____

>  <TORSDO>
F 5

$$$$
=
 OpenBabel11052415173D

 37 42  0  0  1  0  0  0  0  0999 V2000
  190.5740  176.5240  141.1760 C   0  0  0  0  0  2  0  0  0  0  0  0
  189.2810  175.5660  136.6200 C   0  0  0  0  0  0  0  0  0  0  0  0
  190.3840  177.0820  142.5830 C   0  0  0  0  0  2  0  0  0  0  0  0
  187.4780  178.2800  138.4950 O   0  0  0  0  0  0  0  0  0  0  0  0
  190.9810  174.4350  137.9710 C   0  0  0  0  0  2  0  0  0  0  0  0
  188.8250  176.3310  137.8340 C   0  0  2  0  0  3  0  0  0  0  0  0
  188.1670  178.2250  142.7560 C   0  0  2  0  0  3  0  0  0  0  0  0
  190.2940  174.6810  136.6910 C   0  0  0  0  0  0  0  0  0  0  0  0
  187.9630  177.5460  137.4040 C   0  0  1  0  0  3  0  0  0  0  0  0
  190.6490  174.3110  135.4890 O   0  0  0  0  0  0  0  0  0  0  0  0
  188.9510  176.9510  143.0730 C   0  0  2  0  0  3  0  0  0  0  0  0
  191.1870  175.8130  138.6410 C   0  0  2  0  0  3  0  0  0  0  0  0
  188.3460  176.8750  134.6220 C   0  0  0  0  0  2  0  0  0  0  0  0
  189.9420  174.9450  134.5940 N   0  0  0  0  0  0  0  0  0  0  0  0
  187.7880  178.3190  141.2830 C   0  0  0  0  0  2  0  0  0  0  0  0
  188.5440  179.0090  139.0270 C   0  0  0  0  0  2  0  0  0  0  0  0
  189.0880  175.7480  135.2620 C   0  0  0  0  0  0  0  0  0  0  0  0
  189.9850  176.7050  138.7050 N   0  0  2  0  0  0  0  0  0  0  0  0
  186.8230  177.0750  136.5940 N   0  0  0  0  0  0  0  0  0  0  0  0
  188.9870  178.3500  140.3270 C   0  0  2  0  0  3  0  0  0  0  0  0
  188.8590  179.3710  143.1630 O   0  0  0  0  0  1  0  0  0  0  0  0
  189.5190  176.9160  140.1040 C   0  0  2  0  0  3  0  0  0  0  0  0
  186.9140  176.9750  135.1340 C   0  0  0  0  0  2  0  0  0  0  0  0
  184.7210  177.4160  137.8290 C   0  0  0  0  0  3  0  0  0  0  0  0
  185.6340  176.5500  137.2110 C   0  0  0  0  0  0  0  0  0  0  0  0
  185.3910  175.1670  137.2450 C   0  0  0  0  0  3  0  0  0  0  0  0
  184.0280  173.3270  137.9030 F   0  0  0  0  0  0  0  0  0  0  0  0
  183.3450  175.5340  138.4790 C   0  0  0  0  0  3  0  0  0  0  0  0
  184.2500  174.6610  137.8720 C   0  0  0  0  0  0  0  0  0  0  0  0
  183.5800  176.9100  138.4570 C   0  0  0  0  0  3  0  0  0  0  0  0
  187.7490  177.1800  145.1210 O   0  0  0  0  0  1  0  0  0  0  0  0
  188.9400  176.7030  144.5710 C   0  0  0  0  0  2  0  0  0  0  0  0
  192.3430  176.5720  138.0080 C   0  0  0  0  0  2  0  0  0  0  0  0
  193.6230  176.2710  138.7020 C   0  0  0  0  0  0  0  0  0  0  0  0
  194.0100  177.0180  139.6380 O   0  0  0  0  0  0  0  0  0  0  0  0
  194.3530  175.1400  138.3400 O   0  0  0  0  0  0  0  0  0  0  0  0
  195.4960  174.7210  139.0710 C   0  0  0  0  0  1  0  0  0  0  0  0
  1  3  1  0  0  0  0
  2  8  2  0  0  0  0
  3 11  1  0  0  0  0
  4 16  1  0  0  0  0
  5 12  1  0  0  0  0
  6  2  1  6  0  0  0
  6 18  1  0  0  0  0
  7 11  1  0  0  0  0
  7 21  1  6  0  0  0
  8  5  1  0  0  0  0
  9  6  1  0  0  0  0
  9  4  1  1  0  0  0
 10  8  1  0  0  0  0
 11 32  1  1  0  0  0
 12 33  1  6  0  0  0
 12 18  1  0  0  0  0
 13 23  1  0  0  0  0
 13 17  1  0  0  0  0
 14 17  2  0  0  0  0
 14 10  1  0  0  0  0
 15  7  1  0  0  0  0
 16 20  1  0  0  0  0
 17  2  1  0  0  0  0
 18 22  1  0  0  0  0
 19 25  1  0  0  0  0
 19  9  1  0  0  0  0
 20 15  1  0  0  0  0
 22 20  1  0  0  0  0
 22  1  1  0  0  0  0
 23 19  1  0  0  0  0
 24 30  1  0  0  0  0
 25 26  1  0  0  0  0
 25 24  2  0  0  0  0
 26 29  2  0  0  0  0
 29 27  1  0  0  0  0
 29 28  1  0  0  0  0
 30 28  2  0  0  0  0
 32 31  1  0  0  0  0
 33 34  1  0  0  0  0
 34 35  2  0  0  0  0
 36 34  1  0  0  0  0
 36 37  1  0  0  0  0
M  END
>  <MODEL>
7

>  <REMARK>
 VINA RESULT:      -5.3      4.315      8.933
  Name = 
  5 active torsions:
  status: ('A' for Active; 'I' for Inactive)
    1  A    between atoms: O_3  and  C_21
    2  A    between atoms: C_6  and  N_31
    3  A    between atoms: C_17  and  C_23
    4  A    between atoms: C_20  and  C_25
    5  A    between atoms: C_21  and  C_25
                            x       y       z     vdW  Elec       q    Type
                         _______ _______ _______ _____ _____    ______ ____

>  <TORSDO>
F 5

$$$$
=
 OpenBabel11052415173D

 37 42  0  0  1  0  0  0  0  0999 V2000
  182.3390  178.1750  141.8310 C   0  0  0  0  0  2  0  0  0  0  0  0
  187.1530  177.8420  141.5730 C   0  0  0  0  0  0  0  0  0  0  0  0
  180.9220  178.2500  141.2700 C   0  0  0  0  0  2  0  0  0  0  0  0
  185.2390  178.9830  138.5450 O   0  0  0  0  0  0  0  0  0  0  0  0
  185.7050  177.2820  143.4670 C   0  0  0  0  0  2  0  0  0  0  0  0
  185.9400  178.0270  140.7000 C   0  0  2  0  0  3  0  0  0  0  0  0
  180.9920  178.2400  138.7710 C   0  0  2  0  0  3  0  0  0  0  0  0
  187.0350  177.4960  142.8690 C   0  0  0  0  0  0  0  0  0  0  0  0
  186.3220  178.8090  139.4180 C   0  0  1  0  0  3  0  0  0  0  0  0
  188.1910  177.6090  143.4680 O   0  0  0  0  0  0  0  0  0  0  0  0
  180.7450  177.3990  140.0240 C   0  0  2  0  0  3  0  0  0  0  0  0
  184.7920  178.4130  142.9430 C   0  0  2  0  0  3  0  0  0  0  0  0
  189.0510  179.0410  140.3310 C   0  0  0  0  0  2  0  0  0  0  0  0
  189.0890  178.0620  142.6370 N   0  0  0  0  0  0  0  0  0  0  0  0
  182.4750  178.5010  138.5350 C   0  0  0  0  0  2  0  0  0  0  0  0
  184.4010  179.9560  139.0940 C   0  0  0  0  0  2  0  0  0  0  0  0
  188.4740  178.2340  141.4480 C   0  0  0  0  0  0  0  0  0  0  0  0
  184.8140  178.6530  141.4640 N   0  0  2  0  0  0  0  0  0  0  0  0
  187.4020  178.0930  138.7110 N   0  0  0  0  0  0  0  0  0  0  0  0
  183.1650  179.2720  139.6660 C   0  0  2  0  0  3  0  0  0  0  0  0
  180.2790  179.4430  138.8080 O   0  0  0  0  0  1  0  0  0  0  0  0
  183.5140  178.3080  140.8230 C   0  0  2  0  0  3  0  0  0  0  0  0
  188.8130  178.3870  138.9760 C   0  0  0  0  0  2  0  0  0  0  0  0
  188.1080  176.0160  137.5940 C   0  0  0  0  0  3  0  0  0  0  0  0
  187.1180  176.9760  137.8490 C   0  0  0  0  0  0  0  0  0  0  0  0
  185.8710  176.8530  137.2160 C   0  0  0  0  0  3  0  0  0  0  0  0
  184.4090  175.6770  135.7490 F   0  0  0  0  0  0  0  0  0  0  0  0
  186.6030  174.8290  136.1150 C   0  0  0  0  0  3  0  0  0  0  0  0
  185.6130  175.7830  136.3570 C   0  0  0  0  0  0  0  0  0  0  0  0
  187.8500  174.9450  136.7330 C   0  0  0  0  0  3  0  0  0  0  0  0
  179.0040  176.3080  141.2380 O   0  0  0  0  0  1  0  0  0  0  0  0
  179.3370  176.8280  139.9860 C   0  0  0  0  0  2  0  0  0  0  0  0
  185.0590  179.7240  143.6680 C   0  0  0  0  0  2  0  0  0  0  0  0
  184.6920  179.6230  145.1050 C   0  0  0  0  0  0  0  0  0  0  0  0
  183.4990  179.3780  145.4240 O   0  0  0  0  0  0  0  0  0  0  0  0
  185.6810  179.7530  146.0790 O   0  0  0  0  0  0  0  0  0  0  0  0
  186.0150  178.6850  146.9540 C   0  0  0  0  0  1  0  0  0  0  0  0
  2  8  2  0  0  0  0
  3  1  1  0  0  0  0
  4 16  1  0  0  0  0
  6 18  1  0  0  0  0
  6  2  1  1  0  0  0
  7 21  1  1  0  0  0
  7 11  1  0  0  0  0
  8  5  1  0  0  0  0
  8 10  1  0  0  0  0
  9  4  1  6  0  0  0
  9  6  1  0  0  0  0
 11 32  1  6  0  0  0
 11  3  1  0  0  0  0
 12  5  1  0  0  0  0
 12 33  1  1  0  0  0
 13 17  1  0  0  0  0
 14 10  1  0  0  0  0
 15  7  1  0  0  0  0
 15 20  1  0  0  0  0
 16 20  1  0  0  0  0
 17  2  1  0  0  0  0
 17 14  2  0  0  0  0
 18 12  1  0  0  0  0
 19 23  1  0  0  0  0
 19  9  1  0  0  0  0
 20 22  1  0  0  0  0
 22 18  1  0  0  0  0
 22  1  1  0  0  0  0
 23 13  1  0  0  0  0
 24 25  1  0  0  0  0
 25 19  1  0  0  0  0
 26 25  2  0  0  0  0
 27 29  1  0  0  0  0
 28 29  2  0  0  0  0
 28 30  1  0  0  0  0
 29 26  1  0  0  0  0
 30 24  2  0  0  0  0
 32 31  1  0  0  0  0
 33 34  1  0  0  0  0
 34 35  2  0  0  0  0
 34 36  1  0  0  0  0
 36 37  1  0  0  0  0
M  END
>  <MODEL>
8

>  <REMARK>
 VINA RESULT:      -5.2      2.882      7.442
  Name = 
  5 active torsions:
  status: ('A' for Active; 'I' for Inactive)
    1  A    between atoms: O_3  and  C_21
    2  A    between atoms: C_6  and  N_31
    3  A    between atoms: C_17  and  C_23
    4  A    between atoms: C_20  and  C_25
    5  A    between atoms: C_21  and  C_25
                            x       y       z     vdW  Elec       q    Type
                         _______ _______ _______ _____ _____    ______ ____

>  <TORSDO>
F 5

$$$$
=
 OpenBabel11052415173D

 37 42  0  0  1  0  0  0  0  0999 V2000
  186.6640  178.2320  139.9270 C   0  0  0  0  0  2  0  0  0  0  0  0
  183.1670  179.2210  143.1120 C   0  0  0  0  0  0  0  0  0  0  0  0
  187.2380  177.9410  138.5440 C   0  0  0  0  0  2  0  0  0  0  0  0
  182.2400  177.7160  139.7950 O   0  0  0  0  0  0  0  0  0  0  0  0
  185.5690  179.6440  143.3340 C   0  0  0  0  0  2  0  0  0  0  0  0
  183.3680  178.8380  141.6700 C   0  0  2  0  0  3  0  0  0  0  0  0
  185.3960  177.8690  136.8540 C   0  0  2  0  0  3  0  0  0  0  0  0
  184.2040  179.5950  143.8870 C   0  0  0  0  0  0  0  0  0  0  0  0
  182.1280  178.0700  141.1460 C   0  0  1  0  0  3  0  0  0  0  0  0
  183.8250  179.6660  145.1360 O   0  0  0  0  0  0  0  0  0  0  0  0
  186.5260  178.7130  137.4450 C   0  0  2  0  0  3  0  0  0  0  0  0
  185.7470  178.3780  142.4660 C   0  0  2  0  0  3  0  0  0  0  0  0
  180.8770  178.2530  143.7420 C   0  0  0  0  0  2  0  0  0  0  0  0
  182.5740  179.3120  145.2500 N   0  0  0  0  0  0  0  0  0  0  0  0
  184.1810  177.8080  137.7710 C   0  0  0  0  0  2  0  0  0  0  0  0
  183.1450  176.6560  139.7050 C   0  0  0  0  0  2  0  0  0  0  0  0
  182.1350  179.0120  144.0100 C   0  0  0  0  0  0  0  0  0  0  0  0
  184.6520  178.0900  141.4820 N   0  0  2  0  0  0  0  0  0  0  0  0
  180.9230  178.9020  141.3290 N   0  0  0  0  0  0  0  0  0  0  0  0
  184.4600  177.1820  139.1430 C   0  0  2  0  0  3  0  0  0  0  0  0
  185.8320  176.5800  136.5250 O   0  0  0  0  0  1  0  0  0  0  0  0
  185.1170  178.2280  140.0740 C   0  0  2  0  0  3  0  0  0  0  0  0
  180.1150  178.8180  142.5490 C   0  0  0  0  0  2  0  0  0  0  0  0
  179.6100  180.8940  140.7200 C   0  0  0  0  0  3  0  0  0  0  0  0
  180.5800  179.9380  140.3900 C   0  0  0  0  0  0  0  0  0  0  0  0
  181.1720  179.9800  139.1180 C   0  0  0  0  0  3  0  0  0  0  0  0
  181.3850  180.9970  136.9740 F   0  0  0  0  0  0  0  0  0  0  0  0
  179.8500  181.9200  138.5410 C   0  0  0  0  0  3  0  0  0  0  0  0
  180.8120  180.9680  138.1990 C   0  0  0  0  0  0  0  0  0  0  0  0
  179.2490  181.8830  139.8020 C   0  0  0  0  0  3  0  0  0  0  0  0
  188.7400  179.4310  136.9200 O   0  0  0  0  0  1  0  0  0  0  0  0
  187.5150  179.0800  136.3510 C   0  0  0  0  0  2  0  0  0  0  0  0
  185.9890  177.1450  143.3230 C   0  0  0  0  0  2  0  0  0  0  0  0
  187.4330  176.9900  143.6390 C   0  0  0  0  0  0  0  0  0  0  0  0
  188.2310  176.6380  142.7310 O   0  0  0  0  0  0  0  0  0  0  0  0
  187.8920  177.2820  144.9210 O   0  0  0  0  0  0  0  0  0  0  0  0
  187.0020  177.6060  145.9800 C   0  0  0  0  0  1  0  0  0  0  0  0
  1 22  1  0  0  0  0
  2  8  2  0  0  0  0
  2 17  1  0  0  0  0
  3  1  1  0  0  0  0
  5  8  1  0  0  0  0
  6  2  1  1  0  0  0
  7 21  1  1  0  0  0
  7 11  1  0  0  0  0
  7 15  1  0  0  0  0
  8 10  1  0  0  0  0
  9  4  1  6  0  0  0
  9 19  1  0  0  0  0
  9  6  1  0  0  0  0
 10 14  1  0  0  0  0
 11 32  1  6  0  0  0
 11  3  1  0  0  0  0
 12 33  1  1  0  0  0
 12  5  1  0  0  0  0
 13 17  1  0  0  0  0
 15 20  1  0  0  0  0
 16  4  1  0  0  0  0
 17 14  2  0  0  0  0
 18  6  1  0  0  0  0
 18 12  1  0  0  0  0
 19 23  1  0  0  0  0
 20 16  1  0  0  0  0
 20 22  1  0  0  0  0
 22 18  1  0  0  0  0
 23 13  1  0  0  0  0
 25 24  1  0  0  0  0
 25 19  1  0  0  0  0
 26 25  2  0  0  0  0
 27 29  1  0  0  0  0
 28 30  1  0  0  0  0
 29 28  2  0  0  0  0
 29 26  1  0  0  0  0
 30 24  2  0  0  0  0
 32 31  1  0  0  0  0
 33 34  1  0  0  0  0
 34 36  1  0  0  0  0
 35 34  2  0  0  0  0
 36 37  1  0  0  0  0
M  END
>  <MODEL>
9

>  <REMARK>
 VINA RESULT:      -5.0      2.723      5.764
  Name = 
  5 active torsions:
  status: ('A' for Active; 'I' for Inactive)
    1  A    between atoms: O_3  and  C_21
    2  A    between atoms: C_6  and  N_31
    3  A    between atoms: C_17  and  C_23
    4  A    between atoms: C_20  and  C_25
    5  A    between atoms: C_21  and  C_25
                            x       y       z     vdW  Elec       q    Type
                         _______ _______ _______ _____ _____    ______ ____

>  <TORSDO>
F 5

$$$$
