=
 OpenBabel11052414213D

 34 39  0  0  1  0  0  0  0  0999 V2000
  191.1750  176.7590  145.3370 C   0  0  0  0  0  0  0  0  0  0  0  0
  189.5950  177.1380  147.0220 C   0  0  2  0  0  3  0  0  0  0  0  0
  188.9710  177.3470  144.4600 C   0  0  0  0  0  0  0  0  0  0  0  0
  186.8220  177.9300  143.4570 C   0  0  1  0  0  3  0  0  0  0  0  0
  191.9310  176.4700  146.5790 C   0  0  1  0  0  3  0  0  0  0  0  0
  190.9130  176.7090  147.6930 C   0  0  2  0  0  3  0  0  0  0  0  0
  186.9250  177.3520  145.9500 C   0  0  0  0  0  3  0  0  0  0  0  0
  189.8570  177.0930  145.5490 C   0  0  0  0  0  0  0  0  0  0  0  0
  185.5480  177.9550  146.0020 C   0  0  0  0  0  3  0  0  0  0  0  0
  185.5410  178.2730  143.5820 C   0  0  0  0  0  3  0  0  0  0  0  0
  191.3100  175.2930  147.3160 C   0  0  0  0  0  2  0  0  0  0  0  0
  189.5350  177.3320  143.1350 C   0  0  0  0  0  0  0  0  0  0  0  0
  191.7230  176.7390  144.0650 C   0  0  0  0  0  3  0  0  0  0  0  0
  189.3060  178.5660  147.4550 C   0  0  0  0  0  1  0  0  0  0  0  0
  187.4150  177.9220  142.2030 O   0  0  0  0  0  0  0  0  0  0  0  0
  188.7660  177.5950  142.0390 C   0  0  0  0  0  0  0  0  0  0  0  0
  184.8910  178.3310  144.9010 C   0  0  0  0  0  0  0  0  0  0  0  0
  187.6410  177.5820  144.6360 C   0  0  0  0  0  0  0  0  0  0  0  0
  190.9050  177.0360  142.9790 C   0  0  0  0  0  3  0  0  0  0  0  0
  189.1500  178.4660  138.3790 C   0  0  0  0  0  0  0  0  0  0  0  0
  190.0870  177.5230  137.9490 C   0  0  0  0  0  3  0  0  0  0  0  0
  189.2680  177.5730  140.6390 C   0  0  0  0  0  0  0  0  0  0  0  0
  190.6070  176.5960  138.8550 C   0  0  0  0  0  3  0  0  0  0  0  0
  188.7390  178.4860  139.7150 C   0  0  0  0  0  3  0  0  0  0  0  0
  190.1950  176.6170  140.1900 C   0  0  0  0  0  3  0  0  0  0  0  0
  188.6380  179.3610  137.5000 F   0  0  0  0  0  0  0  0  0  0  0  0
  183.5190  178.8950  145.0200 C   0  0  0  0  0  2  0  0  0  0  0  0
  183.1340  179.6070  143.7340 C   0  0  0  0  0  2  0  0  0  0  0  0
  182.4630  178.6080  141.5500 C   0  0  0  0  0  1  0  0  0  0  0  0
  182.0550  178.8290  142.9960 C   0  0  2  0  0  3  0  0  0  0  0  0
  180.6790  179.4990  143.0900 C   0  0  0  0  0  2  0  0  0  0  0  0
  179.2450  177.5390  142.4970 O   0  0  0  0  0  0  0  0  0  0  0  0
  179.5770  178.5370  143.4040 C   0  0  0  0  0  0  0  0  0  0  0  0
  178.9640  178.6160  144.5000 O   0  0  0  0  0  1  0  0  0  0  0  0
  1  8  2  0  0  0  0
  1  5  1  0  0  0  0
  2 14  1  1  0  0  0
  2  6  1  0  0  0  0
  3 18  2  0  0  0  0
  3  8  1  0  0  0  0
  4 10  1  1  0  0  0
  4 18  1  0  0  0  0
  5 11  1  6  0  0  0
  5  6  1  0  0  0  0
  6 11  1  6  0  0  0
  7  9  2  0  0  0  0
  8  2  1  0  0  0  0
 10 17  2  0  0  0  0
 12  3  1  0  0  0  0
 13  1  1  0  0  0  0
 15  4  1  0  0  0  0
 16 15  1  0  0  0  0
 16 12  2  0  0  0  0
 17 27  1  0  0  0  0
 17  9  1  0  0  0  0
 18  7  1  0  0  0  0
 19 12  1  0  0  0  0
 19 13  2  0  0  0  0
 20 24  1  0  0  0  0
 21 20  2  0  0  0  0
 21 23  1  0  0  0  0
 22 16  1  0  0  0  0
 23 25  2  0  0  0  0
 24 22  2  0  0  0  0
 25 22  1  0  0  0  0
 26 20  1  0  0  0  0
 28 27  1  0  0  0  0
 30 29  1  6  0  0  0
 30 31  1  0  0  0  0
 30 28  1  0  0  0  0
 31 33  1  0  0  0  0
 32 33  2  0  0  0  0
 33 34  1  0  0  0  0
M  END
>  <MODEL>
1

>  <REMARK>
 VINA RESULT:     -11.0      0.000      0.000
  Name = 
  6 active torsions:
  status: ('A' for Active; 'I' for Inactive)
    1  A    between atoms: C_3  and  C_13
    2  A    between atoms: C_3  and  C_29
    3  A    between atoms: C_12  and  C_28
    4  A    between atoms: C_13  and  C_33
    5  A    between atoms: C_20  and  C_22
    6  A    between atoms: C_22  and  C_33
                            x       y       z     vdW  Elec       q    Type
                         _______ _______ _______ _____ _____    ______ ____

>  <TORSDO>
F 6

$$$$
=
 OpenBabel11052414213D

 34 39  0  0  1  0  0  0  0  0999 V2000
  188.8790  177.7620  146.2650 C   0  0  0  0  0  0  0  0  0  0  0  0
  186.8150  178.2620  147.2490 C   0  0  2  0  0  3  0  0  0  0  0  0
  187.0950  178.0780  144.6250 C   0  0  0  0  0  0  0  0  0  0  0  0
  185.4050  178.3750  142.8860 C   0  0  1  0  0  3  0  0  0  0  0  0
  189.1720  177.6950  147.7160 C   0  0  1  0  0  3  0  0  0  0  0  0
  187.8320  178.0170  148.3770 C   0  0  2  0  0  3  0  0  0  0  0  0
  184.6640  178.1510  145.3270 C   0  0  0  0  0  3  0  0  0  0  0  0
  187.5620  178.0340  145.9720 C   0  0  0  0  0  0  0  0  0  0  0  0
  183.3420  178.6640  144.8250 C   0  0  0  0  0  3  0  0  0  0  0  0
  184.1530  178.6470  142.5230 C   0  0  0  0  0  3  0  0  0  0  0  0
  188.3570  176.5920  148.3730 C   0  0  0  0  0  2  0  0  0  0  0  0
  188.0750  177.9190  143.5820 C   0  0  0  0  0  0  0  0  0  0  0  0
  189.8270  177.6050  145.2670 C   0  0  0  0  0  3  0  0  0  0  0  0
  186.3730  179.7140  147.3400 C   0  0  0  0  0  1  0  0  0  0  0  0
  186.3900  178.2350  141.9190 O   0  0  0  0  0  0  0  0  0  0  0  0
  187.7210  177.9790  142.2660 C   0  0  0  0  0  0  0  0  0  0  0  0
  183.0930  178.8420  143.5250 C   0  0  0  0  0  0  0  0  0  0  0  0
  185.7810  178.2470  144.3090 C   0  0  0  0  0  0  0  0  0  0  0  0
  189.4220  177.6960  143.9390 C   0  0  0  0  0  3  0  0  0  0  0  0
  189.3140  178.3690  138.8580 C   0  0  0  0  0  0  0  0  0  0  0  0
  190.3530  177.4370  138.9120 C   0  0  0  0  0  3  0  0  0  0  0  0
  188.6690  177.7990  141.1340 C   0  0  0  0  0  0  0  0  0  0  0  0
  190.5470  176.6760  140.0670 C   0  0  0  0  0  3  0  0  0  0  0  0
  188.4730  178.5430  139.9620 C   0  0  0  0  0  3  0  0  0  0  0  0
  189.7060  176.8510  141.1680 C   0  0  0  0  0  3  0  0  0  0  0  0
  189.1190  179.1030  137.7370 F   0  0  0  0  0  0  0  0  0  0  0  0
  181.7530  179.3250  143.0940 C   0  0  0  0  0  2  0  0  0  0  0  0
  181.2570  178.5040  141.9150 C   0  0  0  0  0  2  0  0  0  0  0  0
  179.6660  179.3590  140.1960 C   0  0  0  0  0  1  0  0  0  0  0  0
  181.1060  179.3800  140.6810 C   0  0  2  0  0  3  0  0  0  0  0  0
  182.0770  178.9910  139.5600 C   0  0  0  0  0  2  0  0  0  0  0  0
  184.2590  180.1170  139.0930 O   0  0  0  0  0  1  0  0  0  0  0  0
  182.8710  180.1470  139.0420 C   0  0  0  0  0  0  0  0  0  0  0  0
  182.2840  181.1400  138.5380 O   0  0  0  0  0  0  0  0  0  0  0  0
  1  5  1  0  0  0  0
  2 14  1  6  0  0  0
  2  6  1  0  0  0  0
  3  8  1  0  0  0  0
  4 10  1  1  0  0  0
  4 18  1  0  0  0  0
  5 11  1  1  0  0  0
  5  6  1  0  0  0  0
  6 11  1  6  0  0  0
  8  1  2  0  0  0  0
  8  2  1  0  0  0  0
  9  7  2  0  0  0  0
 10 17  2  0  0  0  0
 12 19  1  0  0  0  0
 12  3  1  0  0  0  0
 13  1  1  0  0  0  0
 15 16  1  0  0  0  0
 15  4  1  0  0  0  0
 16 12  2  0  0  0  0
 17  9  1  0  0  0  0
 18  3  2  0  0  0  0
 18  7  1  0  0  0  0
 19 13  2  0  0  0  0
 20 21  2  0  0  0  0
 20 24  1  0  0  0  0
 21 23  1  0  0  0  0
 22 25  1  0  0  0  0
 22 16  1  0  0  0  0
 23 25  2  0  0  0  0
 24 22  2  0  0  0  0
 26 20  1  0  0  0  0
 27 17  1  0  0  0  0
 28 27  1  0  0  0  0
 30 29  1  6  0  0  0
 30 28  1  0  0  0  0
 31 30  1  0  0  0  0
 33 32  1  0  0  0  0
 33 31  1  0  0  0  0
 34 33  2  0  0  0  0
M  END
>  <MODEL>
2

>  <REMARK>
 VINA RESULT:     -10.9      2.083      2.936
  Name = 
  6 active torsions:
  status: ('A' for Active; 'I' for Inactive)
    1  A    between atoms: C_3  and  C_13
    2  A    between atoms: C_3  and  C_29
    3  A    between atoms: C_12  and  C_28
    4  A    between atoms: C_13  and  C_33
    5  A    between atoms: C_20  and  C_22
    6  A    between atoms: C_22  and  C_33
                            x       y       z     vdW  Elec       q    Type
                         _______ _______ _______ _____ _____    ______ ____

>  <TORSDO>
F 6

$$$$
=
 OpenBabel11052414213D

 34 39  0  0  1  0  0  0  0  0999 V2000
  190.9860  176.8360  145.3320 C   0  0  0  0  0  0  0  0  0  0  0  0
  189.3410  177.2540  146.9440 C   0  0  2  0  0  3  0  0  0  0  0  0
  188.8210  177.4140  144.3560 C   0  0  0  0  0  0  0  0  0  0  0  0
  186.7170  177.9840  143.2550 C   0  0  1  0  0  3  0  0  0  0  0  0
  191.6900  176.5690  146.6090 C   0  0  1  0  0  3  0  0  0  0  0  0
  190.6290  176.8340  147.6760 C   0  0  2  0  0  3  0  0  0  0  0  0
  186.7170  177.4560  145.7610 C   0  0  0  0  0  3  0  0  0  0  0  0
  189.6620  177.1790  145.4840 C   0  0  0  0  0  0  0  0  0  0  0  0
  185.3420  178.0650  145.7460 C   0  0  0  0  0  3  0  0  0  0  0  0
  185.4330  178.3340  143.3210 C   0  0  0  0  0  3  0  0  0  0  0  0
  191.0350  175.4100  147.3440 C   0  0  0  0  0  2  0  0  0  0  0  0
  189.4380  177.3700  143.0540 C   0  0  0  0  0  0  0  0  0  0  0  0
  191.5850  176.7890  144.0840 C   0  0  0  0  0  3  0  0  0  0  0  0
  189.0410  178.6920  147.3370 C   0  0  0  0  0  1  0  0  0  0  0  0
  187.3610  177.9490  142.0260 O   0  0  0  0  0  0  0  0  0  0  0  0
  188.7160  177.6140  141.9230 C   0  0  0  0  0  0  0  0  0  0  0  0
  184.7310  178.4210  144.6120 C   0  0  0  0  0  0  0  0  0  0  0  0
  187.4870  177.6570  144.4730 C   0  0  0  0  0  0  0  0  0  0  0  0
  190.8130  177.0670  142.9600 C   0  0  0  0  0  3  0  0  0  0  0  0
  189.2610  178.4220  138.2690 C   0  0  0  0  0  0  0  0  0  0  0  0
  190.1990  177.4580  137.8920 C   0  0  0  0  0  3  0  0  0  0  0  0
  189.2730  177.5620  140.5460 C   0  0  0  0  0  0  0  0  0  0  0  0
  190.6670  176.5370  138.8330 C   0  0  0  0  0  3  0  0  0  0  0  0
  188.7970  178.4690  139.5870 C   0  0  0  0  0  3  0  0  0  0  0  0
  190.2020  176.5850  140.1500 C   0  0  0  0  0  3  0  0  0  0  0  0
  188.7990  179.3110  137.3570 F   0  0  0  0  0  0  0  0  0  0  0  0
  183.3580  178.9920  144.6650 C   0  0  0  0  0  2  0  0  0  0  0  0
  182.6490  178.7680  143.3390 C   0  0  0  0  0  2  0  0  0  0  0  0
  180.3440  178.2300  144.1250 C   0  0  0  0  0  1  0  0  0  0  0  0
  181.2100  179.2570  143.4150 C   0  0  2  0  0  3  0  0  0  0  0  0
  180.6360  179.6140  142.0400 C   0  0  0  0  0  2  0  0  0  0  0  0
  180.7040  177.4720  140.7520 O   0  0  0  0  0  1  0  0  0  0  0  0
  181.1810  178.7640  140.9360 C   0  0  0  0  0  0  0  0  0  0  0  0
  182.0560  179.2250  140.1580 O   0  0  0  0  0  0  0  0  0  0  0  0
  1  8  2  0  0  0  0
  1  5  1  0  0  0  0
  2 14  1  1  0  0  0
  2  6  1  0  0  0  0
  3 18  2  0  0  0  0
  3  8  1  0  0  0  0
  4 10  1  1  0  0  0
  4 18  1  0  0  0  0
  5 11  1  6  0  0  0
  5  6  1  0  0  0  0
  6 11  1  6  0  0  0
  8  2  1  0  0  0  0
  9  7  2  0  0  0  0
 10 17  2  0  0  0  0
 12  3  1  0  0  0  0
 13  1  1  0  0  0  0
 15  4  1  0  0  0  0
 16 15  1  0  0  0  0
 16 12  2  0  0  0  0
 17 27  1  0  0  0  0
 17  9  1  0  0  0  0
 18  7  1  0  0  0  0
 19 12  1  0  0  0  0
 19 13  2  0  0  0  0
 20 24  1  0  0  0  0
 21 20  2  0  0  0  0
 21 23  1  0  0  0  0
 22 16  1  0  0  0  0
 23 25  2  0  0  0  0
 24 22  2  0  0  0  0
 25 22  1  0  0  0  0
 26 20  1  0  0  0  0
 28 30  1  0  0  0  0
 28 27  1  0  0  0  0
 30 29  1  6  0  0  0
 31 30  1  0  0  0  0
 32 33  1  0  0  0  0
 33 31  1  0  0  0  0
 34 33  2  0  0  0  0
M  END
>  <MODEL>
3

>  <REMARK>
 VINA RESULT:     -10.6      0.944      1.314
  Name = 
  6 active torsions:
  status: ('A' for Active; 'I' for Inactive)
    1  A    between atoms: C_3  and  C_13
    2  A    between atoms: C_3  and  C_29
    3  A    between atoms: C_12  and  C_28
    4  A    between atoms: C_13  and  C_33
    5  A    between atoms: C_20  and  C_22
    6  A    between atoms: C_22  and  C_33
                            x       y       z     vdW  Elec       q    Type
                         _______ _______ _______ _____ _____    ______ ____

>  <TORSDO>
F 6

$$$$
=
 OpenBabel11052414213D

 34 39  0  0  1  0  0  0  0  0999 V2000
  189.4380  176.8830  146.2500 C   0  0  0  0  0  0  0  0  0  0  0  0
  191.2920  176.4960  144.8740 C   0  0  2  0  0  3  0  0  0  0  0  0
  188.9860  177.3410  143.8920 C   0  0  0  0  0  0  0  0  0  0  0  0
  188.4040  177.8280  141.5710 C   0  0  1  0  0  3  0  0  0  0  0  0
  190.4970  176.4980  147.2120 C   0  0  1  0  0  3  0  0  0  0  0  0
  191.7200  176.2430  146.3310 C   0  0  2  0  0  3  0  0  0  0  0  0
  190.8640  177.4990  142.2020 C   0  0  0  0  0  3  0  0  0  0  0  0
  189.8620  176.9330  144.9410 C   0  0  0  0  0  0  0  0  0  0  0  0
  191.0820  177.3790  140.7190 C   0  0  0  0  0  3  0  0  0  0  0  0
  188.7350  177.8860  140.2820 C   0  0  0  0  0  3  0  0  0  0  0  0
  191.6390  177.5020  147.1760 C   0  0  0  0  0  2  0  0  0  0  0  0
  187.6150  177.6080  144.2450 C   0  0  0  0  0  0  0  0  0  0  0  0
  188.1220  177.1420  146.5970 C   0  0  0  0  0  3  0  0  0  0  0  0
  191.3970  175.1740  144.1320 C   0  0  0  0  0  1  0  0  0  0  0  0
  187.0910  178.0560  141.9570 O   0  0  0  0  0  0  0  0  0  0  0  0
  186.7020  177.9730  143.2990 C   0  0  0  0  0  0  0  0  0  0  0  0
  190.1090  177.6100  139.8330 C   0  0  0  0  0  0  0  0  0  0  0  0
  189.4040  177.4950  142.6050 C   0  0  0  0  0  0  0  0  0  0  0  0
  187.2210  177.4890  145.5940 C   0  0  0  0  0  3  0  0  0  0  0  0
  183.0180  178.6330  142.7520 C   0  0  0  0  0  0  0  0  0  0  0  0
  182.5900  178.9840  144.0340 C   0  0  0  0  0  3  0  0  0  0  0  0
  185.2780  178.2900  143.5880 C   0  0  0  0  0  0  0  0  0  0  0  0
  183.5010  179.0030  145.0930 C   0  0  0  0  0  3  0  0  0  0  0  0
  184.3570  178.2940  142.5300 C   0  0  0  0  0  3  0  0  0  0  0  0
  184.8390  178.6640  144.8690 C   0  0  0  0  0  3  0  0  0  0  0  0
  182.1380  178.6220  141.7230 F   0  0  0  0  0  0  0  0  0  0  0  0
  190.3990  177.5030  138.3780 C   0  0  0  0  0  2  0  0  0  0  0  0
  189.4310  178.3660  137.5870 C   0  0  0  0  0  2  0  0  0  0  0  0
  189.2940  177.1030  135.4420 C   0  0  0  0  0  1  0  0  0  0  0  0
  188.5460  177.5020  136.7020 C   0  0  2  0  0  3  0  0  0  0  0  0
  187.2100  178.1760  136.3670 C   0  0  0  0  0  2  0  0  0  0  0  0
  185.3470  176.7440  137.2170 O   0  0  0  0  0  0  0  0  0  0  0  0
  186.1340  177.8780  137.3630 C   0  0  0  0  0  0  0  0  0  0  0  0
  185.9570  178.6430  138.3460 O   0  0  0  0  0  1  0  0  0  0  0  0
  1 13  1  0  0  0  0
  1  5  1  0  0  0  0
  2 14  1  6  0  0  0
  2  8  1  0  0  0  0
  2  6  1  0  0  0  0
  3 12  1  0  0  0  0
  3  8  1  0  0  0  0
  4 10  1  6  0  0  0
  4 15  1  0  0  0  0
  4 18  1  0  0  0  0
  5 11  1  1  0  0  0
  6 11  1  1  0  0  0
  6  5  1  0  0  0  0
  7 18  1  0  0  0  0
  8  1  2  0  0  0  0
  9  7  2  0  0  0  0
 12 19  1  0  0  0  0
 15 16  1  0  0  0  0
 16 22  1  0  0  0  0
 16 12  2  0  0  0  0
 17 10  2  0  0  0  0
 17  9  1  0  0  0  0
 18  3  2  0  0  0  0
 19 13  2  0  0  0  0
 20 21  1  0  0  0  0
 21 23  2  0  0  0  0
 22 25  2  0  0  0  0
 24 20  2  0  0  0  0
 24 22  1  0  0  0  0
 25 23  1  0  0  0  0
 26 20  1  0  0  0  0
 27 17  1  0  0  0  0
 28 27  1  0  0  0  0
 30 29  1  6  0  0  0
 30 28  1  0  0  0  0
 31 30  1  0  0  0  0
 31 33  1  0  0  0  0
 32 33  2  0  0  0  0
 33 34  1  0  0  0  0
M  END
>  <MODEL>
4

>  <REMARK>
 VINA RESULT:     -10.3      2.613      6.317
  Name = 
  6 active torsions:
  status: ('A' for Active; 'I' for Inactive)
    1  A    between atoms: C_3  and  C_13
    2  A    between atoms: C_3  and  C_29
    3  A    between atoms: C_12  and  C_28
    4  A    between atoms: C_13  and  C_33
    5  A    between atoms: C_20  and  C_22
    6  A    between atoms: C_22  and  C_33
                            x       y       z     vdW  Elec       q    Type
                         _______ _______ _______ _____ _____    ______ ____

>  <TORSDO>
F 6

$$$$
=
 OpenBabel11052414213D

 34 39  0  0  1  0  0  0  0  0999 V2000
  189.4940  176.8780  146.3440 C   0  0  0  0  0  0  0  0  0  0  0  0
  191.3710  176.4590  145.0110 C   0  0  2  0  0  3  0  0  0  0  0  0
  189.0910  177.3030  143.9710 C   0  0  0  0  0  0  0  0  0  0  0  0
  188.5560  177.7570  141.6320 C   0  0  1  0  0  3  0  0  0  0  0  0
  190.5320  176.5010  147.3320 C   0  0  1  0  0  3  0  0  0  0  0  0
  191.7700  176.2260  146.4790 C   0  0  2  0  0  3  0  0  0  0  0  0
  191.0010  177.4230  142.3160 C   0  0  0  0  0  3  0  0  0  0  0  0
  189.9430  176.9050  145.0430 C   0  0  0  0  0  0  0  0  0  0  0  0
  191.2470  177.2800  140.8390 C   0  0  0  0  0  3  0  0  0  0  0  0
  188.9120  177.7940  140.3490 C   0  0  0  0  0  3  0  0  0  0  0  0
  191.6800  177.4980  147.3030 C   0  0  0  0  0  2  0  0  0  0  0  0
  187.7150  177.5840  144.2930 C   0  0  0  0  0  0  0  0  0  0  0  0
  188.1730  177.1500  146.6620 C   0  0  0  0  0  3  0  0  0  0  0  0
  191.4820  175.1250  144.2900 C   0  0  0  0  0  1  0  0  0  0  0  0
  187.2370  177.9990  141.9900 O   0  0  0  0  0  0  0  0  0  0  0  0
  186.8220  177.9400  143.3250 C   0  0  0  0  0  0  0  0  0  0  0  0
  190.2930  177.5030  139.9310 C   0  0  0  0  0  0  0  0  0  0  0  0
  189.5340  177.4340  142.6910 C   0  0  0  0  0  0  0  0  0  0  0  0
  187.2940  177.4880  145.6370 C   0  0  0  0  0  3  0  0  0  0  0  0
  183.1570  178.6280  142.6950 C   0  0  0  0  0  0  0  0  0  0  0  0
  182.7040  178.9880  143.9660 C   0  0  0  0  0  3  0  0  0  0  0  0
  185.3950  178.2700  143.5810 C   0  0  0  0  0  0  0  0  0  0  0  0
  183.5920  179.0030  145.0440 C   0  0  0  0  0  3  0  0  0  0  0  0
  184.4970  178.2780  142.5040 C   0  0  0  0  0  3  0  0  0  0  0  0
  184.9310  178.6520  144.8510 C   0  0  0  0  0  3  0  0  0  0  0  0
  182.3000  178.6210  141.6460 F   0  0  0  0  0  0  0  0  0  0  0  0
  190.6110  177.3710  138.4840 C   0  0  0  0  0  2  0  0  0  0  0  0
  190.4020  175.9350  138.0320 C   0  0  0  0  0  2  0  0  0  0  0  0
  190.8270  174.7210  135.8960 C   0  0  0  0  0  1  0  0  0  0  0  0
  191.4570  175.5390  137.0100 C   0  0  2  0  0  3  0  0  0  0  0  0
  192.6410  174.7990  137.6420 C   0  0  0  0  0  2  0  0  0  0  0  0
  195.0100  175.1430  138.3630 O   0  0  0  0  0  1  0  0  0  0  0  0
  193.8860  175.6270  137.7060 C   0  0  0  0  0  0  0  0  0  0  0  0
  193.9230  176.7520  137.1440 O   0  0  0  0  0  0  0  0  0  0  0  0
  1 13  1  0  0  0  0
  1  5  1  0  0  0  0
  2 14  1  6  0  0  0
  2  8  1  0  0  0  0
  2  6  1  0  0  0  0
  3 12  1  0  0  0  0
  3  8  1  0  0  0  0
  4 10  1  6  0  0  0
  4 15  1  0  0  0  0
  4 18  1  0  0  0  0
  5 11  1  1  0  0  0
  6 11  1  1  0  0  0
  6  5  1  0  0  0  0
  7 18  1  0  0  0  0
  8  1  2  0  0  0  0
  9  7  2  0  0  0  0
 12 19  1  0  0  0  0
 15 16  1  0  0  0  0
 16 22  1  0  0  0  0
 16 12  2  0  0  0  0
 17 10  2  0  0  0  0
 17  9  1  0  0  0  0
 18  3  2  0  0  0  0
 19 13  2  0  0  0  0
 20 21  1  0  0  0  0
 21 23  2  0  0  0  0
 22 25  2  0  0  0  0
 24 20  2  0  0  0  0
 24 22  1  0  0  0  0
 25 23  1  0  0  0  0
 26 20  1  0  0  0  0
 27 17  1  0  0  0  0
 28 27  1  0  0  0  0
 30 29  1  6  0  0  0
 30 31  1  0  0  0  0
 30 28  1  0  0  0  0
 31 33  1  0  0  0  0
 33 32  1  0  0  0  0
 34 33  2  0  0  0  0
M  END
>  <MODEL>
5

>  <REMARK>
 VINA RESULT:     -10.2      2.794      7.897
  Name = 
  6 active torsions:
  status: ('A' for Active; 'I' for Inactive)
    1  A    between atoms: C_3  and  C_13
    2  A    between atoms: C_3  and  C_29
    3  A    between atoms: C_12  and  C_28
    4  A    between atoms: C_13  and  C_33
    5  A    between atoms: C_20  and  C_22
    6  A    between atoms: C_22  and  C_33
                            x       y       z     vdW  Elec       q    Type
                         _______ _______ _______ _____ _____    ______ ____

>  <TORSDO>
F 6

$$$$
=
 OpenBabel11052414213D

 34 39  0  0  1  0  0  0  0  0999 V2000
  187.6130  177.8840  147.1570 C   0  0  0  0  0  0  0  0  0  0  0  0
  189.8110  177.4230  146.4960 C   0  0  2  0  0  3  0  0  0  0  0  0
  187.8930  177.8660  144.7300 C   0  0  0  0  0  0  0  0  0  0  0  0
  188.0370  177.8700  142.2910 C   0  0  1  0  0  3  0  0  0  0  0  0
  188.3380  177.7760  148.4460 C   0  0  1  0  0  3  0  0  0  0  0  0
  189.7790  177.4770  148.0350 C   0  0  2  0  0  3  0  0  0  0  0  0
  190.1930  177.8830  143.6730 C   0  0  0  0  0  3  0  0  0  0  0  0
  188.4170  177.7340  146.0500 C   0  0  0  0  0  0  0  0  0  0  0  0
  190.8600  177.5170  142.3750 C   0  0  0  0  0  3  0  0  0  0  0  0
  188.7460  177.7240  141.1730 C   0  0  0  0  0  3  0  0  0  0  0  0
  189.4030  178.8560  148.5490 C   0  0  0  0  0  2  0  0  0  0  0  0
  186.4730  178.0670  144.6010 C   0  0  0  0  0  0  0  0  0  0  0  0
  186.2470  178.0820  147.0420 C   0  0  0  0  0  3  0  0  0  0  0  0
  190.1800  176.0030  146.0980 C   0  0  0  0  0  1  0  0  0  0  0  0
  186.6620  178.0450  142.2200 O   0  0  0  0  0  0  0  0  0  0  0  0
  185.8830  178.1720  143.3750 C   0  0  0  0  0  0  0  0  0  0  0  0
  190.1990  177.4960  141.2150 C   0  0  0  0  0  0  0  0  0  0  0  0
  188.6810  177.8210  143.6200 C   0  0  0  0  0  0  0  0  0  0  0  0
  185.6870  178.1600  145.7700 C   0  0  0  0  0  3  0  0  0  0  0  0
  182.5720  178.6280  141.6070 C   0  0  0  0  0  0  0  0  0  0  0  0
  181.7160  178.9450  142.6640 C   0  0  0  0  0  3  0  0  0  0  0  0
  184.4300  178.4060  143.1620 C   0  0  0  0  0  0  0  0  0  0  0  0
  182.2130  179.0070  143.9680 C   0  0  0  0  0  3  0  0  0  0  0  0
  183.9230  178.3670  141.8550 C   0  0  0  0  0  3  0  0  0  0  0  0
  183.5630  178.7450  144.2140 C   0  0  0  0  0  3  0  0  0  0  0  0
  182.0940  178.5760  140.3410 F   0  0  0  0  0  0  0  0  0  0  0  0
  190.9260  177.1530  139.9620 C   0  0  0  0  0  2  0  0  0  0  0  0
  190.1350  177.6290  138.7540 C   0  0  0  0  0  2  0  0  0  0  0  0
  190.2780  175.4260  137.5950 C   0  0  0  0  0  1  0  0  0  0  0  0
  189.3390  176.4810  138.1530 C   0  0  2  0  0  3  0  0  0  0  0  0
  188.3380  176.9520  137.0910 C   0  0  0  0  0  2  0  0  0  0  0  0
  187.8790  179.3970  136.8440 O   0  0  0  0  0  0  0  0  0  0  0  0
  187.6040  178.1950  137.4840 C   0  0  0  0  0  0  0  0  0  0  0  0
  186.7210  178.1490  138.3800 O   0  0  0  0  0  1  0  0  0  0  0  0
  1  5  1  0  0  0  0
  2 14  1  1  0  0  0
  2  6  1  0  0  0  0
  3  8  1  0  0  0  0
  4 10  1  1  0  0  0
  4 18  1  0  0  0  0
  5 11  1  6  0  0  0
  6  5  1  0  0  0  0
  6 11  1  6  0  0  0
  8  2  1  0  0  0  0
  8  1  2  0  0  0  0
  9  7  2  0  0  0  0
 10 17  2  0  0  0  0
 12  3  1  0  0  0  0
 12 19  1  0  0  0  0
 13  1  1  0  0  0  0
 15  4  1  0  0  0  0
 15 16  1  0  0  0  0
 16 12  2  0  0  0  0
 17  9  1  0  0  0  0
 18  7  1  0  0  0  0
 18  3  2  0  0  0  0
 19 13  2  0  0  0  0
 20 24  2  0  0  0  0
 20 21  1  0  0  0  0
 21 23  2  0  0  0  0
 22 16  1  0  0  0  0
 22 25  2  0  0  0  0
 23 25  1  0  0  0  0
 24 22  1  0  0  0  0
 26 20  1  0  0  0  0
 27 17  1  0  0  0  0
 28 27  1  0  0  0  0
 30 29  1  6  0  0  0
 30 28  1  0  0  0  0
 31 33  1  0  0  0  0
 31 30  1  0  0  0  0
 32 33  2  0  0  0  0
 33 34  1  0  0  0  0
M  END
>  <MODEL>
6

>  <REMARK>
 VINA RESULT:     -10.1      2.514      6.540
  Name = 
  6 active torsions:
  status: ('A' for Active; 'I' for Inactive)
    1  A    between atoms: C_3  and  C_13
    2  A    between atoms: C_3  and  C_29
    3  A    between atoms: C_12  and  C_28
    4  A    between atoms: C_13  and  C_33
    5  A    between atoms: C_20  and  C_22
    6  A    between atoms: C_22  and  C_33
                            x       y       z     vdW  Elec       q    Type
                         _______ _______ _______ _____ _____    ______ ____

>  <TORSDO>
F 6

$$$$
=
 OpenBabel11052414213D

 34 39  0  0  1  0  0  0  0  0999 V2000
  181.4420  178.8900  142.4640 C   0  0  0  0  0  0  0  0  0  0  0  0
  181.6110  178.9440  140.1300 C   0  0  2  0  0  3  0  0  0  0  0  0
  183.7360  178.6120  141.6690 C   0  0  0  0  0  0  0  0  0  0  0  0
  186.0700  178.3310  141.0060 C   0  0  0  0  0  0  0  0  0  0  0  0
  180.0320  179.0230  142.0270 C   0  0  1  0  0  3  0  0  0  0  0  0
  180.1210  179.0570  140.5020 C   0  0  2  0  0  3  0  0  0  0  0  0
  184.2330  178.1390  139.2330 C   0  0  0  0  0  2  0  0  0  0  0  0
  182.3430  178.8010  141.4270 C   0  0  0  0  0  0  0  0  0  0  0  0
  185.3650  178.2630  138.2500 C   0  0  0  0  0  3  0  0  0  0  0  0
  187.0030  178.2510  140.0590 C   0  0  0  0  0  3  0  0  0  0  0  0
  179.6140  177.8120  141.2070 C   0  0  0  0  0  2  0  0  0  0  0  0
  184.1730  178.6130  143.0420 C   0  0  0  0  0  0  0  0  0  0  0  0
  181.8550  178.8880  143.7870 C   0  0  0  0  0  3  0  0  0  0  0  0
  182.0100  180.2430  139.4490 C   0  0  0  0  0  1  0  0  0  0  0  0
  186.4430  178.3580  142.3420 O   0  0  0  0  0  0  0  0  0  0  0  0
  185.4910  178.4700  143.3620 C   0  0  0  0  0  0  0  0  0  0  0  0
  186.6450  178.2610  138.6310 C   0  0  0  0  0  0  0  0  0  0  0  0
  184.6360  178.4210  140.6650 C   0  0  0  0  0  0  0  0  0  0  0  0
  183.2130  178.7630  144.0640 C   0  0  0  0  0  3  0  0  0  0  0  0
  187.6400  177.5540  146.3360 C   0  0  0  0  0  0  0  0  0  0  0  0
  187.0050  178.2320  147.3780 C   0  0  0  0  0  3  0  0  0  0  0  0
  186.0160  178.4360  144.7530 C   0  0  0  0  0  0  0  0  0  0  0  0
  185.8690  179.0030  147.1160 C   0  0  0  0  0  3  0  0  0  0  0  0
  187.1440  177.6500  145.0320 C   0  0  0  0  0  3  0  0  0  0  0  0
  185.3740  179.0980  145.8130 C   0  0  0  0  0  3  0  0  0  0  0  0
  188.7370  176.7990  146.5880 F   0  0  0  0  0  0  0  0  0  0  0  0
  187.7170  178.3580  137.6050 C   0  0  0  0  0  2  0  0  0  0  0  0
  189.0560  178.6280  138.2730 C   0  0  0  0  0  2  0  0  0  0  0  0
  189.6440  176.7990  136.6840 C   0  0  0  0  0  1  0  0  0  0  0  0
  190.0400  177.5090  137.9670 C   0  0  2  0  0  3  0  0  0  0  0  0
  190.1860  176.5200  139.1290 C   0  0  0  0  0  2  0  0  0  0  0  0
  190.0490  177.2710  141.5100 O   0  0  0  0  0  1  0  0  0  0  0  0
  190.7990  177.1320  140.3490 C   0  0  0  0  0  0  0  0  0  0  0  0
  192.0020  177.5010  140.3330 O   0  0  0  0  0  0  0  0  0  0  0  0
  1 13  1  0  0  0  0
  2 14  1  1  0  0  0
  2  6  1  0  0  0  0
  2  8  1  0  0  0  0
  3 12  1  0  0  0  0
  4 15  1  0  0  0  0
  5 11  1  6  0  0  0
  5  1  1  0  0  0  0
  6 11  1  6  0  0  0
  6  5  1  0  0  0  0
  7 18  1  0  0  0  0
  8  3  1  0  0  0  0
  8  1  2  0  0  0  0
  9 17  2  0  0  0  0
  9  7  1  0  0  0  0
 10  4  2  0  0  0  0
 12 16  2  0  0  0  0
 12 19  1  0  0  0  0
 13 19  2  0  0  0  0
 15 16  1  0  0  0  0
 16 22  1  0  0  0  0
 17 10  1  0  0  0  0
 18  4  1  0  0  0  0
 18  3  2  0  0  0  0
 20 26  1  0  0  0  0
 20 21  1  0  0  0  0
 22 24  1  0  0  0  0
 22 25  2  0  0  0  0
 23 21  2  0  0  0  0
 24 20  2  0  0  0  0
 25 23  1  0  0  0  0
 27 28  1  0  0  0  0
 27 17  1  0  0  0  0
 30 29  1  6  0  0  0
 30 28  1  0  0  0  0
 30 31  1  0  0  0  0
 31 33  1  0  0  0  0
 33 32  1  0  0  0  0
 34 33  2  0  0  0  0
M  END
>  <MODEL>
7

>  <REMARK>
 VINA RESULT:      -9.5      3.187      8.960
  Name = 
  6 active torsions:
  status: ('A' for Active; 'I' for Inactive)
    1  A    between atoms: C_3  and  C_13
    2  A    between atoms: C_3  and  C_29
    3  A    between atoms: C_12  and  C_28
    4  A    between atoms: C_13  and  C_33
    5  A    between atoms: C_20  and  C_22
    6  A    between atoms: C_22  and  C_33
                            x       y       z     vdW  Elec       q    Type
                         _______ _______ _______ _____ _____    ______ ____

>  <TORSDO>
F 6

$$$$
=
 OpenBabel11052414213D

 34 39  0  0  1  0  0  0  0  0999 V2000
  189.3570  176.9740  146.0290 C   0  0  0  0  0  0  0  0  0  0  0  0
  191.2710  176.4670  144.7800 C   0  0  2  0  0  3  0  0  0  0  0  0
  189.0470  177.3210  143.6300 C   0  0  0  0  0  0  0  0  0  0  0  0
  188.6060  177.7020  141.2580 C   0  0  1  0  0  3  0  0  0  0  0  0
  190.3510  176.6110  147.0670 C   0  0  1  0  0  3  0  0  0  0  0  0
  191.6120  176.2790  146.2690 C   0  0  2  0  0  3  0  0  0  0  0  0
  191.0180  177.3410  142.0410 C   0  0  0  0  0  3  0  0  0  0  0  0
  189.8530  176.9440  144.7460 C   0  0  0  0  0  0  0  0  0  0  0  0
  191.3120  177.1390  140.5800 C   0  0  0  0  0  3  0  0  0  0  0  0
  189.0080  177.6840  139.9880 C   0  0  0  0  0  3  0  0  0  0  0  0
  191.5220  177.5820  147.0440 C   0  0  0  0  0  2  0  0  0  0  0  0
  187.6680  177.6420  143.8920 C   0  0  0  0  0  0  0  0  0  0  0  0
  188.0330  177.2850  146.2890 C   0  0  0  0  0  3  0  0  0  0  0  0
  191.3780  175.1060  144.1120 C   0  0  0  0  0  1  0  0  0  0  0  0
  187.2810  177.9840  141.5590 O   0  0  0  0  0  0  0  0  0  0  0  0
  186.8180  177.9810  142.8800 C   0  0  0  0  0  0  0  0  0  0  0  0
  190.3960  177.3490  139.6310 C   0  0  0  0  0  0  0  0  0  0  0  0
  189.5390  177.3970  142.3620 C   0  0  0  0  0  0  0  0  0  0  0  0
  187.1980  177.6030  145.2220 C   0  0  0  0  0  3  0  0  0  0  0  0
  183.5940  178.9630  144.5950 C   0  0  0  0  0  0  0  0  0  0  0  0
  182.6830  178.9520  143.5360 C   0  0  0  0  0  3  0  0  0  0  0  0
  185.3900  178.3500  143.0730 C   0  0  0  0  0  0  0  0  0  0  0  0
  183.1170  178.6280  142.2480 C   0  0  0  0  0  3  0  0  0  0  0  0
  184.9390  178.6580  144.3640 C   0  0  0  0  0  3  0  0  0  0  0  0
  184.4610  178.3230  142.0200 C   0  0  0  0  0  3  0  0  0  0  0  0
  183.1740  179.2690  145.8460 F   0  0  0  0  0  0  0  0  0  0  0  0
  190.7620  177.1590  138.2020 C   0  0  0  0  0  2  0  0  0  0  0  0
  190.1320  175.8830  137.6680 C   0  0  0  0  0  2  0  0  0  0  0  0
  189.1540  177.6740  136.2360 C   0  0  0  0  0  1  0  0  0  0  0  0
  189.0800  176.2060  136.6170 C   0  0  2  0  0  3  0  0  0  0  0  0
  187.6660  175.8160  137.0610 C   0  0  0  0  0  2  0  0  0  0  0  0
  186.4080  173.7120  137.5550 O   0  0  0  0  0  1  0  0  0  0  0  0
  187.3290  174.3890  136.7640 C   0  0  0  0  0  0  0  0  0  0  0  0
  187.8610  173.8060  135.7840 O   0  0  0  0  0  0  0  0  0  0  0  0
  1 13  1  0  0  0  0
  1  5  1  0  0  0  0
  2 14  1  6  0  0  0
  2  6  1  0  0  0  0
  3 12  1  0  0  0  0
  3  8  1  0  0  0  0
  4 10  1  6  0  0  0
  4 15  1  0  0  0  0
  4 18  1  0  0  0  0
  5 11  1  1  0  0  0
  6 11  1  1  0  0  0
  6  5  1  0  0  0  0
  7 18  1  0  0  0  0
  8  2  1  0  0  0  0
  8  1  2  0  0  0  0
  9  7  2  0  0  0  0
 12 19  1  0  0  0  0
 15 16  1  0  0  0  0
 16 22  1  0  0  0  0
 16 12  2  0  0  0  0
 17 10  2  0  0  0  0
 17  9  1  0  0  0  0
 18  3  2  0  0  0  0
 19 13  2  0  0  0  0
 20 26  1  0  0  0  0
 21 20  2  0  0  0  0
 22 24  2  0  0  0  0
 23 21  1  0  0  0  0
 24 20  1  0  0  0  0
 25 23  2  0  0  0  0
 25 22  1  0  0  0  0
 27 17  1  0  0  0  0
 28 27  1  0  0  0  0
 30 29  1  1  0  0  0
 30 31  1  0  0  0  0
 30 28  1  0  0  0  0
 33 31  1  0  0  0  0
 33 32  1  0  0  0  0
 34 33  2  0  0  0  0
M  END
>  <MODEL>
8

>  <REMARK>
 VINA RESULT:      -9.4      2.901      6.822
  Name = 
  6 active torsions:
  status: ('A' for Active; 'I' for Inactive)
    1  A    between atoms: C_3  and  C_13
    2  A    between atoms: C_3  and  C_29
    3  A    between atoms: C_12  and  C_28
    4  A    between atoms: C_13  and  C_33
    5  A    between atoms: C_20  and  C_22
    6  A    between atoms: C_22  and  C_33
                            x       y       z     vdW  Elec       q    Type
                         _______ _______ _______ _____ _____    ______ ____

>  <TORSDO>
F 6

$$$$
=
 OpenBabel11052414213D

 34 39  0  0  1  0  0  0  0  0999 V2000
  187.6820  177.4570  144.9770 C   0  0  0  0  0  0  0  0  0  0  0  0
  189.6850  177.0940  143.8210 C   0  0  2  0  0  3  0  0  0  0  0  0
  187.4780  177.8460  142.5730 C   0  0  0  0  0  0  0  0  0  0  0  0
  187.1400  178.2600  140.1890 C   0  0  1  0  0  3  0  0  0  0  0  0
  188.6400  177.1270  146.0580 C   0  0  1  0  0  3  0  0  0  0  0  0
  189.9580  176.8890  145.3220 C   0  0  2  0  0  3  0  0  0  0  0  0
  189.5240  178.0210  141.0930 C   0  0  0  0  0  3  0  0  0  0  0  0
  188.2450  177.4890  143.7210 C   0  0  0  0  0  0  0  0  0  0  0  0
  189.9070  177.8730  139.6460 C   0  0  0  0  0  3  0  0  0  0  0  0
  187.6080  178.2980  138.9430 C   0  0  0  0  0  3  0  0  0  0  0  0
  189.7510  178.1640  146.1200 C   0  0  0  0  0  2  0  0  0  0  0  0
  186.0700  178.0800  142.7670 C   0  0  0  0  0  0  0  0  0  0  0  0
  186.3300  177.6840  145.1720 C   0  0  0  0  0  3  0  0  0  0  0  0
  189.9070  175.7590  143.1300 C   0  0  0  0  0  1  0  0  0  0  0  0
  185.7870  178.4570  140.4250 O   0  0  0  0  0  0  0  0  0  0  0  0
  185.2560  178.3950  141.7190 C   0  0  0  0  0  0  0  0  0  0  0  0
  189.0310  178.0540  138.6540 C   0  0  0  0  0  0  0  0  0  0  0  0
  188.0300  177.9820  141.3350 C   0  0  0  0  0  0  0  0  0  0  0  0
  185.5350  177.9810  144.0680 C   0  0  0  0  0  3  0  0  0  0  0  0
  181.8630  178.9850  143.2810 C   0  0  0  0  0  0  0  0  0  0  0  0
  181.0390  179.0950  142.1590 C   0  0  0  0  0  3  0  0  0  0  0  0
  183.8010  178.6750  141.8420 C   0  0  0  0  0  0  0  0  0  0  0  0
  181.5860  178.9840  140.8790 C   0  0  0  0  0  3  0  0  0  0  0  0
  183.2360  178.7690  143.1220 C   0  0  0  0  0  3  0  0  0  0  0  0
  182.9580  178.7690  140.7220 C   0  0  0  0  0  3  0  0  0  0  0  0
  181.3340  179.0840  144.5240 F   0  0  0  0  0  0  0  0  0  0  0  0
  189.4810  177.9210  137.2420 C   0  0  0  0  0  2  0  0  0  0  0  0
  189.6710  176.4540  136.8910 C   0  0  0  0  0  2  0  0  0  0  0  0
  191.1220  175.2640  135.2490 C   0  0  0  0  0  1  0  0  0  0  0  0
  191.1030  176.1920  136.4510 C   0  0  2  0  0  3  0  0  0  0  0  0
  191.9780  175.6490  137.5870 C   0  0  0  0  0  2  0  0  0  0  0  0
  194.0630  176.7610  136.7720 O   0  0  0  0  0  0  0  0  0  0  0  0
  193.2070  176.4680  137.8260 C   0  0  0  0  0  0  0  0  0  0  0  0
  193.4560  176.9100  138.9770 O   0  0  0  0  0  1  0  0  0  0  0  0
  1 13  1  0  0  0  0
  1  5  1  0  0  0  0
  2 14  1  6  0  0  0
  2  6  1  0  0  0  0
  3 12  1  0  0  0  0
  3  8  1  0  0  0  0
  4 10  1  6  0  0  0
  4 15  1  0  0  0  0
  4 18  1  0  0  0  0
  5 11  1  1  0  0  0
  6  5  1  0  0  0  0
  6 11  1  1  0  0  0
  7 18  1  0  0  0  0
  8  2  1  0  0  0  0
  8  1  2  0  0  0  0
  9  7  2  0  0  0  0
 12 19  1  0  0  0  0
 15 16  1  0  0  0  0
 16 22  1  0  0  0  0
 16 12  2  0  0  0  0
 17 10  2  0  0  0  0
 17  9  1  0  0  0  0
 18  3  2  0  0  0  0
 19 13  2  0  0  0  0
 20 26  1  0  0  0  0
 21 20  2  0  0  0  0
 22 24  2  0  0  0  0
 23 21  1  0  0  0  0
 24 20  1  0  0  0  0
 25 23  2  0  0  0  0
 25 22  1  0  0  0  0
 27 17  1  0  0  0  0
 28 27  1  0  0  0  0
 30 29  1  6  0  0  0
 30 28  1  0  0  0  0
 30 31  1  0  0  0  0
 31 33  1  0  0  0  0
 32 33  2  0  0  0  0
 33 34  1  0  0  0  0
M  END
>  <MODEL>
9

>  <REMARK>
 VINA RESULT:      -9.4      2.949      8.099
  Name = 
  6 active torsions:
  status: ('A' for Active; 'I' for Inactive)
    1  A    between atoms: C_3  and  C_13
    2  A    between atoms: C_3  and  C_29
    3  A    between atoms: C_12  and  C_28
    4  A    between atoms: C_13  and  C_33
    5  A    between atoms: C_20  and  C_22
    6  A    between atoms: C_22  and  C_33
                            x       y       z     vdW  Elec       q    Type
                         _______ _______ _______ _____ _____    ______ ____

>  <TORSDO>
F 6

$$$$
