=
 OpenBabel11052412503D

 25 28  0  0  0  0  0  0  0  0999 V2000
  187.2420  178.0170  145.6750 N   0  0  0  0  0  0  0  0  0  0  0  0
  188.5360  177.7040  145.3740 C   0  0  0  0  0  0  0  0  0  0  0  0
  187.6780  177.9430  148.0110 C   0  0  0  0  0  3  0  0  0  0  0  0
  186.1730  178.2630  144.8980 C   0  0  0  0  0  0  0  0  0  0  0  0
  190.3160  177.2580  143.7830 C   0  0  0  0  0  0  0  0  0  0  0  0
  183.7210  178.8350  143.7380 C   0  0  0  0  0  3  0  0  0  0  0  0
  188.9750  177.6300  147.7320 N   0  0  0  0  0  0  0  0  0  0  0  0
  185.0790  178.5350  145.6890 C   0  0  0  0  0  0  0  0  0  0  0  0
  183.8330  178.8260  145.1400 C   0  0  0  0  0  3  0  0  0  0  0  0
  188.9820  177.5810  144.0550 C   0  0  0  0  0  3  0  0  0  0  0  0
  184.8410  178.5570  142.9250 C   0  0  0  0  0  3  0  0  0  0  0  0
  186.8050  178.1380  146.9480 C   0  0  0  0  0  0  0  0  0  0  0  0
  185.4530  178.4630  147.0230 C   0  0  0  0  0  3  0  0  0  0  0  0
  190.7910  177.1750  146.1780 C   0  0  0  0  0  0  0  0  0  0  0  0
  186.0880  178.2650  143.5040 C   0  0  0  0  0  3  0  0  0  0  0  0
  191.2040  177.0600  144.8470 C   0  0  0  0  0  3  0  0  0  0  0  0
  189.4380  177.5020  146.4510 C   0  0  0  0  0  0  0  0  0  0  0  0
  190.1450  176.8990  139.9370 C   0  0  0  0  0  0  0  0  0  0  0  0
  189.1200  176.8100  139.0060 O   0  0  0  0  0  0  0  0  0  0  0  0
  191.3420  176.8660  139.5460 O   0  0  0  0  0  1  0  0  0  0  0  0
  190.7810  177.1290  142.3910 C   0  0  0  0  0  0  0  0  0  0  0  0
  189.8250  177.0280  141.3260 N   0  0  0  0  0  2  0  0  0  0  0  0
  192.0180  177.1090  142.1420 O   0  0  0  0  0  0  0  0  0  0  0  0
  191.7640  176.9550  147.1660 O   0  0  0  0  0  0  0  0  0  0  0  0
  192.3220  175.6920  147.4980 C   0  0  0  0  0  1  0  0  0  0  0  0
  1 12  1  0  0  0  0
  2  1  1  0  0  0  0
  2 17  1  0  0  0  0
  4  1  1  0  0  0  0
  4  8  1  0  0  0  0
  5 10  1  0  0  0  0
  5 16  2  0  0  0  0
  6  9  1  0  0  0  0
  7  3  2  0  0  0  0
  8 13  1  0  0  0  0
  9  8  2  0  0  0  0
 10  2  2  0  0  0  0
 11 15  1  0  0  0  0
 11  6  2  0  0  0  0
 12 13  2  0  0  0  0
 12  3  1  0  0  0  0
 14 17  2  0  0  0  0
 14 24  1  0  0  0  0
 15  4  2  0  0  0  0
 16 14  1  0  0  0  0
 17  7  1  0  0  0  0
 18 22  1  0  0  0  0
 19 18  2  0  0  0  0
 20 18  1  0  0  0  0
 21  5  1  0  0  0  0
 22 21  1  0  0  0  0
 23 21  2  0  0  0  0
 24 25  1  0  0  0  0
M  END
>  <MODEL>
1

>  <REMARK>
 VINA RESULT:     -11.0      0.000      0.000
  Name = 
  2 active torsions:
  status: ('A' for Active; 'I' for Inactive)
    1  A    between atoms: C_6  and  C_15
    2  A    between atoms: O_13  and  C_20
                            x       y       z     vdW  Elec       q    Type
                         _______ _______ _______ _____ _____    ______ ____

>  <TORSDO>
F 2

$$$$
=
 OpenBabel11052412503D

 25 28  0  0  0  0  0  0  0  0999 V2000
  185.5590  178.2310  144.6220 N   0  0  0  0  0  0  0  0  0  0  0  0
  186.8640  177.8330  144.6350 C   0  0  0  0  0  0  0  0  0  0  0  0
  185.5550  178.5880  146.9730 C   0  0  0  0  0  3  0  0  0  0  0  0
  184.6660  178.3530  143.6240 C   0  0  0  0  0  0  0  0  0  0  0  0
  188.8740  177.0500  143.5200 C   0  0  0  0  0  0  0  0  0  0  0  0
  182.5060  178.7570  141.9340 C   0  0  0  0  0  3  0  0  0  0  0  0
  186.8600  178.1950  147.0070 N   0  0  0  0  0  0  0  0  0  0  0  0
  183.4650  178.7970  144.1300 C   0  0  0  0  0  0  0  0  0  0  0  0
  182.3600  179.0110  143.3090 C   0  0  0  0  0  3  0  0  0  0  0  0
  187.5350  177.4520  143.4700 C   0  0  0  0  0  3  0  0  0  0  0  0
  183.7370  178.3020  141.4140 C   0  0  0  0  0  3  0  0  0  0  0  0
  184.9050  178.6010  145.7450 C   0  0  0  0  0  0  0  0  0  0  0  0
  183.5830  178.9680  145.5010 C   0  0  0  0  0  3  0  0  0  0  0  0
  188.8980  177.4090  145.9360 C   0  0  0  0  0  0  0  0  0  0  0  0
  184.8370  178.0930  142.2620 C   0  0  0  0  0  3  0  0  0  0  0  0
  189.5390  177.0340  144.7510 C   0  0  0  0  0  3  0  0  0  0  0  0
  187.5400  177.8160  145.8830 C   0  0  0  0  0  0  0  0  0  0  0  0
  189.9940  177.1050  139.8190 C   0  0  0  0  0  0  0  0  0  0  0  0
  189.7090  177.9060  138.7220 O   0  0  0  0  0  0  0  0  0  0  0  0
  190.7940  176.1410  139.6930 O   0  0  0  0  0  1  0  0  0  0  0  0
  189.5770  176.6490  142.2880 C   0  0  0  0  0  0  0  0  0  0  0  0
  189.3740  177.3900  141.0780 N   0  0  0  0  0  2  0  0  0  0  0  0
  190.3540  175.6550  142.3050 O   0  0  0  0  0  0  0  0  0  0  0  0
  189.6590  177.3550  147.1150 O   0  0  0  0  0  0  0  0  0  0  0  0
  190.9010  176.6800  147.2570 C   0  0  0  0  0  1  0  0  0  0  0  0
  1  2  1  0  0  0  0
  1 12  1  0  0  0  0
  2 17  1  0  0  0  0
  3  7  2  0  0  0  0
  4  8  1  0  0  0  0
  4  1  1  0  0  0  0
  5 16  2  0  0  0  0
  6  9  1  0  0  0  0
  8 13  1  0  0  0  0
  9  8  2  0  0  0  0
 10  5  1  0  0  0  0
 10  2  2  0  0  0  0
 11  6  2  0  0  0  0
 11 15  1  0  0  0  0
 12  3  1  0  0  0  0
 13 12  2  0  0  0  0
 14 24  1  0  0  0  0
 15  4  2  0  0  0  0
 16 14  1  0  0  0  0
 17 14  2  0  0  0  0
 17  7  1  0  0  0  0
 18 22  1  0  0  0  0
 19 18  2  0  0  0  0
 20 18  1  0  0  0  0
 21 23  2  0  0  0  0
 21  5  1  0  0  0  0
 22 21  1  0  0  0  0
 24 25  1  0  0  0  0
M  END
>  <MODEL>
2

>  <REMARK>
 VINA RESULT:     -10.4      1.298      1.880
  Name = 
  2 active torsions:
  status: ('A' for Active; 'I' for Inactive)
    1  A    between atoms: C_6  and  C_15
    2  A    between atoms: O_13  and  C_20
                            x       y       z     vdW  Elec       q    Type
                         _______ _______ _______ _____ _____    ______ ____

>  <TORSDO>
F 2

$$$$
=
 OpenBabel11052412503D

 25 28  0  0  0  0  0  0  0  0999 V2000
  187.3990  177.9130  145.7100 N   0  0  0  0  0  0  0  0  0  0  0  0
  186.5640  178.2590  144.6880 C   0  0  0  0  0  0  0  0  0  0  0  0
  185.6990  178.2660  147.3340 C   0  0  0  0  0  3  0  0  0  0  0  0
  188.6870  177.5260  145.7250 C   0  0  0  0  0  0  0  0  0  0  0  0
  186.0990  178.6210  142.3320 C   0  0  0  0  0  0  0  0  0  0  0  0
  191.2780  176.7010  146.2650 C   0  0  0  0  0  3  0  0  0  0  0  0
  184.8480  178.6160  146.3280 N   0  0  0  0  0  0  0  0  0  0  0  0
  189.0810  177.2850  147.0230 C   0  0  0  0  0  0  0  0  0  0  0  0
  190.3750  176.8700  147.3290 C   0  0  0  0  0  3  0  0  0  0  0  0
  186.9830  178.2600  143.3540 C   0  0  0  0  0  3  0  0  0  0  0  0
  190.8760  176.9470  144.9350 C   0  0  0  0  0  3  0  0  0  0  0  0
  187.0000  177.9100  147.0000 C   0  0  0  0  0  0  0  0  0  0  0  0
  188.0130  177.5240  147.8750 C   0  0  0  0  0  3  0  0  0  0  0  0
  184.3340  178.9920  143.9800 C   0  0  0  0  0  0  0  0  0  0  0  0
  189.5650  177.3660  144.6510 C   0  0  0  0  0  3  0  0  0  0  0  0
  184.7860  178.9820  142.6560 C   0  0  0  0  0  3  0  0  0  0  0  0
  185.2320  178.6260  145.0150 C   0  0  0  0  0  0  0  0  0  0  0  0
  188.4630  178.2540  139.2940 C   0  0  0  0  0  0  0  0  0  0  0  0
  189.7990  177.9180  139.1280 O   0  0  0  0  0  1  0  0  0  0  0  0
  187.7600  178.5210  138.2840 O   0  0  0  0  0  0  0  0  0  0  0  0
  186.5450  178.6210  140.9270 C   0  0  0  0  0  0  0  0  0  0  0  0
  187.9050  178.2920  140.6120 N   0  0  0  0  0  2  0  0  0  0  0  0
  185.7290  178.9100  140.0100 O   0  0  0  0  0  0  0  0  0  0  0  0
  182.9990  179.3710  144.1920 O   0  0  0  0  0  0  0  0  0  0  0  0
  181.8980  178.9800  143.3830 C   0  0  0  0  0  1  0  0  0  0  0  0
  1  4  1  0  0  0  0
  1 12  1  0  0  0  0
  2 17  1  0  0  0  0
  2  1  1  0  0  0  0
  4  8  1  0  0  0  0
  5 16  2  0  0  0  0
  5 10  1  0  0  0  0
  6  9  1  0  0  0  0
  7  3  2  0  0  0  0
  8  9  2  0  0  0  0
  8 13  1  0  0  0  0
 10  2  2  0  0  0  0
 11  6  2  0  0  0  0
 12  3  1  0  0  0  0
 12 13  2  0  0  0  0
 14 24  1  0  0  0  0
 14 17  2  0  0  0  0
 15 11  1  0  0  0  0
 15  4  2  0  0  0  0
 16 14  1  0  0  0  0
 17  7  1  0  0  0  0
 18 22  1  0  0  0  0
 19 18  1  0  0  0  0
 20 18  2  0  0  0  0
 21  5  1  0  0  0  0
 22 21  1  0  0  0  0
 23 21  2  0  0  0  0
 25 24  1  0  0  0  0
M  END
>  <MODEL>
3

>  <REMARK>
 VINA RESULT:     -10.3      2.285      5.350
  Name = 
  2 active torsions:
  status: ('A' for Active; 'I' for Inactive)
    1  A    between atoms: C_6  and  C_15
    2  A    between atoms: O_13  and  C_20
                            x       y       z     vdW  Elec       q    Type
                         _______ _______ _______ _____ _____    ______ ____

>  <TORSDO>
F 2

$$$$
=
 OpenBabel11052412503D

 25 28  0  0  0  0  0  0  0  0999 V2000
  186.9970  178.0390  144.9950 N   0  0  0  0  0  0  0  0  0  0  0  0
  188.1810  177.7580  144.3800 C   0  0  0  0  0  0  0  0  0  0  0  0
  187.9740  177.8490  147.1540 C   0  0  0  0  0  3  0  0  0  0  0  0
  185.7730  178.3130  144.5070 C   0  0  0  0  0  0  0  0  0  0  0  0
  189.5330  177.4180  142.3910 C   0  0  0  0  0  0  0  0  0  0  0  0
  183.1160  178.9130  143.9940 C   0  0  0  0  0  3  0  0  0  0  0  0
  189.1670  177.5660  146.5590 N   0  0  0  0  0  0  0  0  0  0  0  0
  184.8990  178.5290  145.5490 C   0  0  0  0  0  0  0  0  0  0  0  0
  183.5580  178.8330  145.3270 C   0  0  0  0  0  3  0  0  0  0  0  0
  188.3020  177.7100  142.9880 C   0  0  0  0  0  3  0  0  0  0  0  0
  184.0120  178.6920  142.9250 C   0  0  0  0  0  3  0  0  0  0  0  0
  186.8740  178.0880  146.3400 C   0  0  0  0  0  0  0  0  0  0  0  0
  185.5780  178.3920  146.7500 C   0  0  0  0  0  3  0  0  0  0  0  0
  190.5630  177.2160  144.5970 C   0  0  0  0  0  0  0  0  0  0  0  0
  185.3600  178.3860  143.1750 C   0  0  0  0  0  3  0  0  0  0  0  0
  190.6480  177.1750  143.2020 C   0  0  0  0  0  3  0  0  0  0  0  0
  189.3130  177.5110  145.2000 C   0  0  0  0  0  0  0  0  0  0  0  0
  190.6470  176.1840  138.9000 C   0  0  0  0  0  0  0  0  0  0  0  0
  191.4410  175.1450  138.4360 O   0  0  0  0  0  1  0  0  0  0  0  0
  190.1120  176.9710  138.0750 O   0  0  0  0  0  0  0  0  0  0  0  0
  189.6550  177.3680  140.9230 C   0  0  0  0  0  0  0  0  0  0  0  0
  190.4480  176.3430  140.3090 N   0  0  0  0  0  2  0  0  0  0  0  0
  189.0610  178.2260  140.2140 O   0  0  0  0  0  0  0  0  0  0  0  0
  191.7420  176.9570  145.3130 O   0  0  0  0  0  0  0  0  0  0  0  0
  191.9160  175.9060  146.2540 C   0  0  0  0  0  1  0  0  0  0  0  0
  1 12  1  0  0  0  0
  2  1  1  0  0  0  0
  2 17  1  0  0  0  0
  4  1  1  0  0  0  0
  4  8  1  0  0  0  0
  5 10  1  0  0  0  0
  5 16  2  0  0  0  0
  6  9  1  0  0  0  0
  7  3  2  0  0  0  0
  8 13  1  0  0  0  0
  9  8  2  0  0  0  0
 10  2  2  0  0  0  0
 11 15  1  0  0  0  0
 11  6  2  0  0  0  0
 12 13  2  0  0  0  0
 12  3  1  0  0  0  0
 14 17  2  0  0  0  0
 14 24  1  0  0  0  0
 15  4  2  0  0  0  0
 16 14  1  0  0  0  0
 17  7  1  0  0  0  0
 18 22  1  0  0  0  0
 19 18  1  0  0  0  0
 20 18  2  0  0  0  0
 21  5  1  0  0  0  0
 22 21  1  0  0  0  0
 23 21  2  0  0  0  0
 24 25  1  0  0  0  0
M  END
>  <MODEL>
4

>  <REMARK>
 VINA RESULT:     -10.0      1.210      1.500
  Name = 
  2 active torsions:
  status: ('A' for Active; 'I' for Inactive)
    1  A    between atoms: C_6  and  C_15
    2  A    between atoms: O_13  and  C_20
                            x       y       z     vdW  Elec       q    Type
                         _______ _______ _______ _____ _____    ______ ____

>  <TORSDO>
F 2

$$$$
=
 OpenBabel11052412503D

 25 28  0  0  0  0  0  0  0  0999 V2000
  186.9900  178.1240  142.8190 N   0  0  0  0  0  0  0  0  0  0  0  0
  188.2550  177.6670  142.5900 C   0  0  0  0  0  0  0  0  0  0  0  0
  186.6650  178.6280  140.5180 C   0  0  0  0  0  3  0  0  0  0  0  0
  186.2610  178.2260  143.9440 C   0  0  0  0  0  0  0  0  0  0  0  0
  190.3580  176.7180  143.3490 C   0  0  0  0  0  0  0  0  0  0  0  0
  184.3960  178.6270  145.9560 C   0  0  0  0  0  3  0  0  0  0  0  0
  187.9260  178.1750  140.2690 N   0  0  0  0  0  0  0  0  0  0  0  0
  185.0260  178.7580  143.6480 C   0  0  0  0  0  0  0  0  0  0  0  0
  184.0660  178.9730  144.6340 C   0  0  0  0  0  3  0  0  0  0  0  0
  189.0650  177.1800  143.6200 C   0  0  0  0  0  3  0  0  0  0  0  0
  185.6610  178.0810  146.2620 C   0  0  0  0  0  3  0  0  0  0  0  0
  186.2020  178.5960  141.8280 C   0  0  0  0  0  0  0  0  0  0  0  0
  184.9530  179.0090  142.2860 C   0  0  0  0  0  3  0  0  0  0  0  0
  190.0500  177.2260  140.9800 C   0  0  0  0  0  0  0  0  0  0  0  0
  186.6140  177.8750  145.2490 C   0  0  0  0  0  3  0  0  0  0  0  0
  190.8340  176.7460  142.0340 C   0  0  0  0  0  3  0  0  0  0  0  0
  188.7410  177.6940  141.2570 C   0  0  0  0  0  0  0  0  0  0  0  0
  191.8920  176.3900  146.8840 C   0  0  0  0  0  0  0  0  0  0  0  0
  191.7100  177.0430  148.0950 O   0  0  0  0  0  1  0  0  0  0  0  0
  192.7280  175.4510  146.8050 O   0  0  0  0  0  0  0  0  0  0  0  0
  191.2090  176.2060  144.4390 C   0  0  0  0  0  0  0  0  0  0  0  0
  191.1240  176.7930  145.7450 N   0  0  0  0  0  2  0  0  0  0  0  0
  192.0080  175.2550  144.2170 O   0  0  0  0  0  0  0  0  0  0  0  0
  190.6280  177.2090  139.7000 O   0  0  0  0  0  0  0  0  0  0  0  0
  190.5590  176.1260  138.7850 C   0  0  0  0  0  1  0  0  0  0  0  0
  1  4  1  0  0  0  0
  2  1  1  0  0  0  0
  2 10  1  0  0  0  0
  3 12  1  0  0  0  0
  4 15  1  0  0  0  0
  5 10  2  0  0  0  0
  5 21  1  0  0  0  0
  6 11  1  0  0  0  0
  7  3  2  0  0  0  0
  7 17  1  0  0  0  0
  8  4  2  0  0  0  0
  8  9  1  0  0  0  0
  9  6  2  0  0  0  0
 12 13  2  0  0  0  0
 12  1  1  0  0  0  0
 13  8  1  0  0  0  0
 14 17  1  0  0  0  0
 14 16  2  0  0  0  0
 15 11  2  0  0  0  0
 16  5  1  0  0  0  0
 17  2  2  0  0  0  0
 18 19  1  0  0  0  0
 20 18  2  0  0  0  0
 21 22  1  0  0  0  0
 22 18  1  0  0  0  0
 23 21  2  0  0  0  0
 24 14  1  0  0  0  0
 25 24  1  0  0  0  0
M  END
>  <MODEL>
5

>  <REMARK>
 VINA RESULT:      -9.8      1.627      5.056
  Name = 
  2 active torsions:
  status: ('A' for Active; 'I' for Inactive)
    1  A    between atoms: C_6  and  C_15
    2  A    between atoms: O_13  and  C_20
                            x       y       z     vdW  Elec       q    Type
                         _______ _______ _______ _____ _____    ______ ____

>  <TORSDO>
F 2

$$$$
=
 OpenBabel11052412503D

 25 28  0  0  0  0  0  0  0  0999 V2000
  186.0760  178.3840  144.8050 N   0  0  0  0  0  0  0  0  0  0  0  0
  185.9900  178.4590  143.4460 C   0  0  0  0  0  0  0  0  0  0  0  0
  183.7830  178.9530  145.0680 C   0  0  0  0  0  3  0  0  0  0  0  0
  187.1010  178.0920  145.6260 C   0  0  0  0  0  0  0  0  0  0  0  0
  186.9640  178.3000  141.2270 C   0  0  0  0  0  0  0  0  0  0  0  0
  188.8720  177.5620  147.6910 C   0  0  0  0  0  3  0  0  0  0  0  0
  183.6750  179.0340  143.7120 N   0  0  0  0  0  0  0  0  0  0  0  0
  186.6750  178.1480  146.9340 C   0  0  0  0  0  0  0  0  0  0  0  0
  187.5380  177.8870  147.9960 C   0  0  0  0  0  3  0  0  0  0  0  0
  187.0890  178.2130  142.6170 C   0  0  0  0  0  3  0  0  0  0  0  0
  189.3100  177.5040  146.3510 C   0  0  0  0  0  3  0  0  0  0  0  0
  185.0180  178.6200  145.6110 C   0  0  0  0  0  0  0  0  0  0  0  0
  185.3310  178.4870  146.9620 C   0  0  0  0  0  3  0  0  0  0  0  0
  184.6050  178.8870  141.4690 C   0  0  0  0  0  0  0  0  0  0  0  0
  188.4200  177.7720  145.2970 C   0  0  0  0  0  3  0  0  0  0  0  0
  185.7250  178.6350  140.6690 C   0  0  0  0  0  3  0  0  0  0  0  0
  184.7340  178.7990  142.8780 C   0  0  0  0  0  0  0  0  0  0  0  0
  189.2440  178.4440  138.1070 C   0  0  0  0  0  0  0  0  0  0  0  0
  189.1690  179.0620  136.8670 O   0  0  0  0  0  0  0  0  0  0  0  0
  190.2500  177.7400  138.3900 O   0  0  0  0  0  1  0  0  0  0  0  0
  188.1260  178.0400  140.3580 C   0  0  0  0  0  0  0  0  0  0  0  0
  188.1770  178.6170  139.0460 N   0  0  0  0  0  2  0  0  0  0  0  0
  189.0690  177.3110  140.7720 O   0  0  0  0  0  0  0  0  0  0  0  0
  183.4120  179.2150  140.8050 O   0  0  0  0  0  0  0  0  0  0  0  0
  183.2680  179.3500  139.3980 C   0  0  0  0  0  1  0  0  0  0  0  0
  1 12  1  0  0  0  0
  1  4  1  0  0  0  0
  2  1  1  0  0  0  0
  3 12  1  0  0  0  0
  4  8  1  0  0  0  0
  5 10  1  0  0  0  0
  6  9  1  0  0  0  0
  7  3  2  0  0  0  0
  8 13  1  0  0  0  0
  8  9  2  0  0  0  0
 10  2  2  0  0  0  0
 11  6  2  0  0  0  0
 12 13  2  0  0  0  0
 14 17  2  0  0  0  0
 15  4  2  0  0  0  0
 15 11  1  0  0  0  0
 16  5  2  0  0  0  0
 16 14  1  0  0  0  0
 17  2  1  0  0  0  0
 17  7  1  0  0  0  0
 18 20  1  0  0  0  0
 18 22  1  0  0  0  0
 19 18  2  0  0  0  0
 21 23  2  0  0  0  0
 21  5  1  0  0  0  0
 22 21  1  0  0  0  0
 24 14  1  0  0  0  0
 25 24  1  0  0  0  0
M  END
>  <MODEL>
6

>  <REMARK>
 VINA RESULT:      -9.6      2.417      5.318
  Name = 
  2 active torsions:
  status: ('A' for Active; 'I' for Inactive)
    1  A    between atoms: C_6  and  C_15
    2  A    between atoms: O_13  and  C_20
                            x       y       z     vdW  Elec       q    Type
                         _______ _______ _______ _____ _____    ______ ____

>  <TORSDO>
F 2

$$$$
=
 OpenBabel11052412503D

 25 28  0  0  0  0  0  0  0  0999 V2000
  188.0490  177.6710  144.7620 N   0  0  0  0  0  0  0  0  0  0  0  0
  187.5860  177.9420  143.5080 C   0  0  0  0  0  0  0  0  0  0  0  0
  185.9450  178.1850  145.7430 C   0  0  0  0  0  3  0  0  0  0  0  0
  189.2520  177.2690  145.2090 C   0  0  0  0  0  0  0  0  0  0  0  0
  187.8890  178.1100  141.1040 C   0  0  0  0  0  0  0  0  0  0  0  0
  191.5130  176.4550  146.5910 C   0  0  0  0  0  3  0  0  0  0  0  0
  185.4630  178.4600  144.4980 N   0  0  0  0  0  0  0  0  0  0  0  0
  189.2150  177.1330  146.5790 C   0  0  0  0  0  0  0  0  0  0  0  0
  190.3320  176.7260  147.3040 C   0  0  0  0  0  3  0  0  0  0  0  0
  188.3980  177.8240  142.3760 C   0  0  0  0  0  3  0  0  0  0  0  0
  191.5530  176.5940  145.1870 C   0  0  0  0  0  3  0  0  0  0  0  0
  187.2700  177.7830  145.8600 C   0  0  0  0  0  0  0  0  0  0  0  0
  187.9460  177.4570  147.0340 C   0  0  0  0  0  3  0  0  0  0  0  0
  185.7170  178.6440  142.0860 C   0  0  0  0  0  0  0  0  0  0  0  0
  190.4130  177.0060  144.4770 C   0  0  0  0  0  3  0  0  0  0  0  0
  186.5560  178.5160  140.9740 C   0  0  0  0  0  3  0  0  0  0  0  0
  186.2350  178.3540  143.3730 C   0  0  0  0  0  0  0  0  0  0  0  0
  190.3950  176.5490  138.6070 C   0  0  0  0  0  0  0  0  0  0  0  0
  191.0890  175.3490  138.5380 O   0  0  0  0  0  1  0  0  0  0  0  0
  190.5400  177.4030  137.6930 O   0  0  0  0  0  0  0  0  0  0  0  0
  188.7490  177.9850  139.9130 C   0  0  0  0  0  0  0  0  0  0  0  0
  189.5240  176.7950  139.7170 N   0  0  0  0  0  2  0  0  0  0  0  0
  188.7990  178.9250  139.0740 O   0  0  0  0  0  0  0  0  0  0  0  0
  184.3980  179.0590  141.8400 O   0  0  0  0  0  0  0  0  0  0  0  0
  183.3560  178.2280  141.3510 C   0  0  0  0  0  1  0  0  0  0  0  0
  1  4  1  0  0  0  0
  1 12  1  0  0  0  0
  2  1  1  0  0  0  0
  3 12  1  0  0  0  0
  4  8  1  0  0  0  0
  5 10  1  0  0  0  0
  6  9  1  0  0  0  0
  7  3  2  0  0  0  0
  8 13  1  0  0  0  0
  8  9  2  0  0  0  0
 10  2  2  0  0  0  0
 11  6  2  0  0  0  0
 12 13  2  0  0  0  0
 14 17  2  0  0  0  0
 15 11  1  0  0  0  0
 15  4  2  0  0  0  0
 16  5  2  0  0  0  0
 16 14  1  0  0  0  0
 17  2  1  0  0  0  0
 17  7  1  0  0  0  0
 18 22  1  0  0  0  0
 19 18  1  0  0  0  0
 20 18  2  0  0  0  0
 21  5  1  0  0  0  0
 22 21  1  0  0  0  0
 23 21  2  0  0  0  0
 24 14  1  0  0  0  0
 25 24  1  0  0  0  0
M  END
>  <MODEL>
7

>  <REMARK>
 VINA RESULT:      -9.6      2.437      5.138
  Name = 
  2 active torsions:
  status: ('A' for Active; 'I' for Inactive)
    1  A    between atoms: C_6  and  C_15
    2  A    between atoms: O_13  and  C_20
                            x       y       z     vdW  Elec       q    Type
                         _______ _______ _______ _____ _____    ______ ____

>  <TORSDO>
F 2

$$$$
=
 OpenBabel11052412503D

 25 28  0  0  0  0  0  0  0  0999 V2000
  189.6810  177.4270  142.9840 N   0  0  0  0  0  0  0  0  0  0  0  0
  188.6160  177.7810  142.2080 C   0  0  0  0  0  0  0  0  0  0  0  0
  191.1300  177.3280  141.1010 C   0  0  0  0  0  3  0  0  0  0  0  0
  189.8010  177.2270  144.3090 C   0  0  0  0  0  0  0  0  0  0  0  0
  186.2790  178.3740  141.9230 C   0  0  0  0  0  0  0  0  0  0  0  0
  190.5380  176.7120  146.9310 C   0  0  0  0  0  3  0  0  0  0  0  0
  190.0790  177.6810  140.3080 N   0  0  0  0  0  0  0  0  0  0  0  0
  191.1000  176.8800  144.6070 C   0  0  0  0  0  0  0  0  0  0  0  0
  191.5040  176.6150  145.9140 C   0  0  0  0  0  3  0  0  0  0  0  0
  187.3480  178.0130  142.7490 C   0  0  0  0  0  3  0  0  0  0  0  0
  189.2070  177.0680  146.6260 C   0  0  0  0  0  3  0  0  0  0  0  0
  190.9090  177.2020  142.4670 C   0  0  0  0  0  0  0  0  0  0  0  0
  191.8450  176.8550  143.4380 C   0  0  0  0  0  3  0  0  0  0  0  0
  187.7450  178.2790  139.9710 C   0  0  0  0  0  0  0  0  0  0  0  0
  188.8230  177.3310  145.3000 C   0  0  0  0  0  3  0  0  0  0  0  0
  186.4890  178.5030  140.5450 C   0  0  0  0  0  3  0  0  0  0  0  0
  188.8270  177.9120  140.8100 C   0  0  0  0  0  0  0  0  0  0  0  0
  183.5540  178.9730  144.6010 C   0  0  0  0  0  0  0  0  0  0  0  0
  183.5470  179.0710  145.9850 O   0  0  0  0  0  1  0  0  0  0  0  0
  182.4740  179.0940  143.9650 O   0  0  0  0  0  0  0  0  0  0  0  0
  184.9430  178.6170  142.4980 C   0  0  0  0  0  0  0  0  0  0  0  0
  184.7910  178.7380  143.9190 N   0  0  0  0  0  2  0  0  0  0  0  0
  183.9410  178.7160  141.7380 O   0  0  0  0  0  0  0  0  0  0  0  0
  187.8430  178.4360  138.5800 O   0  0  0  0  0  0  0  0  0  0  0  0
  186.8420  178.0700  137.6410 C   0  0  0  0  0  1  0  0  0  0  0  0
  1  4  1  0  0  0  0
  2 10  1  0  0  0  0
  2  1  1  0  0  0  0
  3 12  1  0  0  0  0
  4  8  2  0  0  0  0
  4 15  1  0  0  0  0
  5 21  1  0  0  0  0
  5 10  2  0  0  0  0
  7 17  1  0  0  0  0
  7  3  2  0  0  0  0
  8  9  1  0  0  0  0
  9  6  2  0  0  0  0
 11  6  1  0  0  0  0
 12  1  1  0  0  0  0
 12 13  2  0  0  0  0
 13  8  1  0  0  0  0
 14 16  2  0  0  0  0
 14 17  1  0  0  0  0
 15 11  2  0  0  0  0
 16  5  1  0  0  0  0
 17  2  2  0  0  0  0
 18 19  1  0  0  0  0
 20 18  2  0  0  0  0
 21 22  1  0  0  0  0
 22 18  1  0  0  0  0
 23 21  2  0  0  0  0
 24 14  1  0  0  0  0
 25 24  1  0  0  0  0
M  END
>  <MODEL>
8

>  <REMARK>
 VINA RESULT:      -9.6      3.206      7.019
  Name = 
  2 active torsions:
  status: ('A' for Active; 'I' for Inactive)
    1  A    between atoms: C_6  and  C_15
    2  A    between atoms: O_13  and  C_20
                            x       y       z     vdW  Elec       q    Type
                         _______ _______ _______ _____ _____    ______ ____

>  <TORSDO>
F 2

$$$$
=
 OpenBabel11052412503D

 25 28  0  0  0  0  0  0  0  0999 V2000
  189.4860  177.4260  144.2090 N   0  0  0  0  0  0  0  0  0  0  0  0
  189.1200  177.6740  142.9190 C   0  0  0  0  0  0  0  0  0  0  0  0
  191.6600  176.7260  143.5480 C   0  0  0  0  0  3  0  0  0  0  0  0
  188.8210  177.5510  145.3720 C   0  0  0  0  0  0  0  0  0  0  0  0
  187.5080  178.3940  141.2510 C   0  0  0  0  0  0  0  0  0  0  0  0
  187.8840  177.6370  147.9790 C   0  0  0  0  0  3  0  0  0  0  0  0
  191.3150  176.9680  142.2530 N   0  0  0  0  0  0  0  0  0  0  0  0
  189.6370  177.1690  146.4130 C   0  0  0  0  0  0  0  0  0  0  0  0
  189.1980  177.2000  147.7350 C   0  0  0  0  0  3  0  0  0  0  0  0
  187.8490  178.1510  142.5860 C   0  0  0  0  0  3  0  0  0  0  0  0
  187.0470  178.0300  146.9130 C   0  0  0  0  0  3  0  0  0  0  0  0
  190.7130  176.9660  144.5370 C   0  0  0  0  0  0  0  0  0  0  0  0
  190.8700  176.7840  145.9090 C   0  0  0  0  0  3  0  0  0  0  0  0
  189.7350  177.6800  140.5450 C   0  0  0  0  0  0  0  0  0  0  0  0
  187.5130  177.9890  145.5870 C   0  0  0  0  0  3  0  0  0  0  0  0
  188.4540  178.1570  140.2470 C   0  0  0  0  0  3  0  0  0  0  0  0
  190.0780  177.4340  141.8990 C   0  0  0  0  0  0  0  0  0  0  0  0
  184.2950  178.9850  139.1820 C   0  0  0  0  0  0  0  0  0  0  0  0
  183.8510  178.5890  137.9290 O   0  0  0  0  0  0  0  0  0  0  0  0
  183.5570  179.7090  139.9010 O   0  0  0  0  0  1  0  0  0  0  0  0
  186.1660  178.8970  140.9060 C   0  0  0  0  0  0  0  0  0  0  0  0
  185.5850  178.5630  139.6380 N   0  0  0  0  0  2  0  0  0  0  0  0
  185.5350  179.6180  141.7270 O   0  0  0  0  0  0  0  0  0  0  0  0
  190.6040  177.4760  139.4610 O   0  0  0  0  0  0  0  0  0  0  0  0
  190.7510  176.2570  138.7480 C   0  0  0  0  0  1  0  0  0  0  0  0
  1 12  1  0  0  0  0
  1  4  1  0  0  0  0
  2  1  1  0  0  0  0
  3 12  1  0  0  0  0
  4 15  2  0  0  0  0
  4  8  1  0  0  0  0
  5 10  2  0  0  0  0
  7  3  2  0  0  0  0
  8  9  2  0  0  0  0
  9  6  1  0  0  0  0
 10  2  1  0  0  0  0
 11  6  2  0  0  0  0
 12 13  2  0  0  0  0
 13  8  1  0  0  0  0
 14 17  1  0  0  0  0
 15 11  1  0  0  0  0
 16 14  2  0  0  0  0
 16  5  1  0  0  0  0
 17  7  1  0  0  0  0
 17  2  2  0  0  0  0
 18 22  1  0  0  0  0
 18 20  1  0  0  0  0
 19 18  2  0  0  0  0
 21  5  1  0  0  0  0
 21 23  2  0  0  0  0
 22 21  1  0  0  0  0
 24 14  1  0  0  0  0
 25 24  1  0  0  0  0
M  END
>  <MODEL>
9

>  <REMARK>
 VINA RESULT:      -9.6      2.701      5.508
  Name = 
  2 active torsions:
  status: ('A' for Active; 'I' for Inactive)
    1  A    between atoms: C_6  and  C_15
    2  A    between atoms: O_13  and  C_20
                            x       y       z     vdW  Elec       q    Type
                         _______ _______ _______ _____ _____    ______ ____

>  <TORSDO>
F 2

$$$$
