=
 OpenBabel11052415493D

 34 37  0  0  0  0  0  0  0  0999 V2000
  187.8020  177.8860  143.5360 C   0  0  0  0  0  0  0  0  0  0  0  0
  184.5210  178.3730  145.2310 C   0  0  0  0  0  3  0  0  0  0  0  0
  186.6410  177.6000  146.0880 C   0  0  0  0  0  3  0  0  0  0  0  0
  189.2500  177.3180  141.6620 C   0  0  0  0  0  0  0  0  0  0  0  0
  188.3780  178.0920  142.2330 N   0  0  0  0  0  0  0  0  0  0  0  0
  190.5810  176.3070  143.4900 C   0  0  0  0  0  2  0  0  0  0  0  0
  190.8960  177.6580  145.5430 C   0  0  0  0  0  1  0  0  0  0  0  0
  189.6520  176.0340  142.3190 C   0  0  0  0  0  2  0  0  0  0  0  0
  189.7530  177.6920  140.3710 N   0  0  0  0  0  2  0  0  0  0  0  0
  187.9870  177.2990  145.8930 C   0  0  0  0  0  3  0  0  0  0  0  0
  188.5830  177.4320  144.6290 C   0  0  0  0  0  0  0  0  0  0  0  0
  189.9990  177.1970  144.4960 N   0  0  0  0  0  0  0  0  0  0  0  0
  183.7400  178.8440  144.1690 C   0  0  0  0  0  0  0  0  0  0  0  0
  184.3070  179.0040  142.9020 C   0  0  0  0  0  3  0  0  0  0  0  0
  185.8670  178.0580  145.0250 C   0  0  0  0  0  0  0  0  0  0  0  0
  185.6520  178.6900  142.6890 C   0  0  0  0  0  3  0  0  0  0  0  0
  186.4470  178.2160  143.7430 C   0  0  0  0  0  0  0  0  0  0  0  0
  193.1190  176.7890  139.0540 C   0  0  0  0  0  3  0  0  0  0  0  0
  190.4590  176.0460  138.6480 C   0  0  0  0  0  3  0  0  0  0  0  0
  192.8130  175.7920  138.1210 C   0  0  0  0  0  0  0  0  0  0  0  0
  191.4700  175.4260  137.9080 C   0  0  0  0  0  0  0  0  0  0  0  0
  190.7640  177.0440  139.5850 C   0  0  0  0  0  0  0  0  0  0  0  0
  192.1000  177.4080  139.7830 C   0  0  0  0  0  3  0  0  0  0  0  0
  191.0950  174.3590  136.9330 C   0  0  0  0  0  2  0  0  0  0  0  0
  190.0820  173.5640  137.4710 O   0  0  0  0  0  1  0  0  0  0  0  0
  193.9270  175.1640  137.3480 C   0  0  0  0  0  2  0  0  0  0  0  0
  194.8610  174.4220  138.2900 C   0  0  0  0  0  2  0  0  0  0  0  0
  194.9040  172.9720  137.9370 C   0  0  0  0  0  0  0  0  0  0  0  0
  194.4000  172.5170  136.6110 C   0  0  0  0  0  1  0  0  0  0  0  0
  195.3720  172.1610  138.7200 O   0  0  0  0  0  0  0  0  0  0  0  0
  182.3050  179.1930  144.3910 C   0  0  0  0  0  2  0  0  0  0  0  0
  180.1320  178.0050  144.1000 C   0  0  0  0  0  1  0  0  0  0  0  0
  181.0400  179.3940  142.2730 C   0  0  0  0  0  1  0  0  0  0  0  0
  181.4030  178.4620  143.4100 C   0  0  0  0  0  3  0  0  0  0  0  0
  1 17  2  0  0  0  0
  1 11  1  0  0  0  0
  4  5  2  0  0  0  0
  4  8  1  0  0  0  0
  5  1  1  0  0  0  0
  6 12  1  0  0  0  0
  8  6  1  0  0  0  0
  9  4  1  0  0  0  0
 10  3  1  0  0  0  0
 11 10  2  0  0  0  0
 12 11  1  0  0  0  0
 12  7  1  0  0  0  0
 13 31  1  0  0  0  0
 13  2  2  0  0  0  0
 14 13  1  0  0  0  0
 15  2  1  0  0  0  0
 15  3  2  0  0  0  0
 16 14  2  0  0  0  0
 16 17  1  0  0  0  0
 17 15  1  0  0  0  0
 18 23  1  0  0  0  0
 19 22  1  0  0  0  0
 20 18  2  0  0  0  0
 21 20  1  0  0  0  0
 21 19  2  0  0  0  0
 22 23  2  0  0  0  0
 22  9  1  0  0  0  0
 24 25  1  0  0  0  0
 24 21  1  0  0  0  0
 26 20  1  0  0  0  0
 26 27  1  0  0  0  0
 28 27  1  0  0  0  0
 28 30  2  0  0  0  0
 29 28  1  0  0  0  0
 33 34  1  0  0  0  0
 34 32  1  0  0  0  0
 34 31  1  0  0  0  0
M  END
>  <MODEL>
1

>  <REMARK>
 VINA RESULT:      -9.2      0.000      0.000
  Name = 
  7 active torsions:
  status: ('A' for Active; 'I' for Inactive)
    1  A    between atoms: C_7  and  C_11
    2  A    between atoms: C_7  and  C_14
    3  A    between atoms: C_14  and  C_16
    4  A    between atoms: N_18  and  C_30
    5  A    between atoms: C_23  and  C_24
    6  A    between atoms: C_23  and  C_25
    7  A    between atoms: C_26  and  C_28
                            x       y       z     vdW  Elec       q    Type
                         _______ _______ _______ _____ _____    ______ ____

>  <TORSDO>
F 7

$$$$
=
 OpenBabel11052415493D

 34 37  0  0  0  0  0  0  0  0999 V2000
  187.6600  177.9240  143.5050 C   0  0  0  0  0  0  0  0  0  0  0  0
  184.3850  178.4280  145.2040 C   0  0  0  0  0  3  0  0  0  0  0  0
  186.5110  177.6820  146.0670 C   0  0  0  0  0  3  0  0  0  0  0  0
  189.1040  177.3260  141.6370 C   0  0  0  0  0  0  0  0  0  0  0  0
  188.2290  178.1080  142.1960 N   0  0  0  0  0  0  0  0  0  0  0  0
  190.4470  176.3570  143.4780 C   0  0  0  0  0  2  0  0  0  0  0  0
  190.7640  177.7500  145.5030 C   0  0  0  0  0  1  0  0  0  0  0  0
  189.5140  176.0570  142.3160 C   0  0  0  0  0  2  0  0  0  0  0  0
  189.5990  177.6780  140.3370 N   0  0  0  0  0  2  0  0  0  0  0  0
  187.8580  177.3840  145.8730 C   0  0  0  0  0  3  0  0  0  0  0  0
  188.4480  177.4950  144.6040 C   0  0  0  0  0  0  0  0  0  0  0  0
  189.8650  177.2640  144.4690 N   0  0  0  0  0  0  0  0  0  0  0  0
  183.5970  178.8740  144.1370 C   0  0  0  0  0  0  0  0  0  0  0  0
  184.1570  179.0120  142.8650 C   0  0  0  0  0  3  0  0  0  0  0  0
  185.7310  178.1150  144.9990 C   0  0  0  0  0  0  0  0  0  0  0  0
  185.5030  178.7010  142.6530 C   0  0  0  0  0  3  0  0  0  0  0  0
  186.3050  178.2510  143.7120 C   0  0  0  0  0  0  0  0  0  0  0  0
  192.9650  176.7500  139.0380 C   0  0  0  0  0  3  0  0  0  0  0  0
  190.3030  176.0170  138.6270 C   0  0  0  0  0  3  0  0  0  0  0  0
  192.6590  175.7480  138.1110 C   0  0  0  0  0  0  0  0  0  0  0  0
  191.3150  175.3860  137.8960 C   0  0  0  0  0  0  0  0  0  0  0  0
  190.6100  177.0200  139.5590 C   0  0  0  0  0  0  0  0  0  0  0  0
  191.9460  177.3790  139.7590 C   0  0  0  0  0  3  0  0  0  0  0  0
  190.9380  174.3150  136.9270 C   0  0  0  0  0  2  0  0  0  0  0  0
  189.8410  173.6030  137.4150 O   0  0  0  0  0  1  0  0  0  0  0  0
  193.7730  175.1090  137.3470 C   0  0  0  0  0  2  0  0  0  0  0  0
  194.2520  176.0430  136.2470 C   0  0  0  0  0  2  0  0  0  0  0  0
  195.5590  175.5690  135.7020 C   0  0  0  0  0  0  0  0  0  0  0  0
  195.6020  174.3720  134.8160 C   0  0  0  0  0  1  0  0  0  0  0  0
  196.5880  176.1710  135.9600 O   0  0  0  0  0  0  0  0  0  0  0  0
  182.1610  179.2210  144.3590 C   0  0  0  0  0  2  0  0  0  0  0  0
  180.0850  177.8900  143.9840 C   0  0  0  0  0  1  0  0  0  0  0  0
  180.7620  179.6180  142.3550 C   0  0  0  0  0  1  0  0  0  0  0  0
  181.2700  178.5640  143.3160 C   0  0  0  0  0  3  0  0  0  0  0  0
  1 17  2  0  0  0  0
  1 11  1  0  0  0  0
  4  5  2  0  0  0  0
  4  8  1  0  0  0  0
  5  1  1  0  0  0  0
  6 12  1  0  0  0  0
  8  6  1  0  0  0  0
  9  4  1  0  0  0  0
 10  3  1  0  0  0  0
 11 10  2  0  0  0  0
 12 11  1  0  0  0  0
 12  7  1  0  0  0  0
 13 31  1  0  0  0  0
 13  2  2  0  0  0  0
 14 13  1  0  0  0  0
 15  2  1  0  0  0  0
 15  3  2  0  0  0  0
 16 14  2  0  0  0  0
 16 17  1  0  0  0  0
 17 15  1  0  0  0  0
 18 23  1  0  0  0  0
 19 22  1  0  0  0  0
 20 18  2  0  0  0  0
 21 20  1  0  0  0  0
 21 19  2  0  0  0  0
 22 23  2  0  0  0  0
 22  9  1  0  0  0  0
 24 25  1  0  0  0  0
 24 21  1  0  0  0  0
 26 20  1  0  0  0  0
 27 26  1  0  0  0  0
 28 30  2  0  0  0  0
 28 27  1  0  0  0  0
 29 28  1  0  0  0  0
 33 34  1  0  0  0  0
 34 32  1  0  0  0  0
 34 31  1  0  0  0  0
M  END
>  <MODEL>
2

>  <REMARK>
 VINA RESULT:      -8.9      1.118      1.255
  Name = 
  7 active torsions:
  status: ('A' for Active; 'I' for Inactive)
    1  A    between atoms: C_7  and  C_11
    2  A    between atoms: C_7  and  C_14
    3  A    between atoms: C_14  and  C_16
    4  A    between atoms: N_18  and  C_30
    5  A    between atoms: C_23  and  C_24
    6  A    between atoms: C_23  and  C_25
    7  A    between atoms: C_26  and  C_28
                            x       y       z     vdW  Elec       q    Type
                         _______ _______ _______ _____ _____    ______ ____

>  <TORSDO>
F 7

$$$$
=
 OpenBabel11052415493D

 34 37  0  0  0  0  0  0  0  0999 V2000
  191.6480  176.6430  138.3150 C   0  0  0  0  0  0  0  0  0  0  0  0
  193.4830  174.9530  135.5510 C   0  0  0  0  0  3  0  0  0  0  0  0
  191.3400  176.0620  135.5750 C   0  0  0  0  0  3  0  0  0  0  0  0
  190.9470  176.9540  140.6280 C   0  0  0  0  0  0  0  0  0  0  0  0
  191.8580  176.9690  139.7010 N   0  0  0  0  0  0  0  0  0  0  0  0
  188.8100  177.5090  139.5060 C   0  0  0  0  0  2  0  0  0  0  0  0
  188.9200  179.0110  137.5380 C   0  0  0  0  0  1  0  0  0  0  0  0
  189.5680  176.4660  140.3110 C   0  0  0  0  0  2  0  0  0  0  0  0
  191.3200  177.3460  141.9570 N   0  0  0  0  0  2  0  0  0  0  0  0
  190.3530  176.7720  136.2560 C   0  0  0  0  0  3  0  0  0  0  0  0
  190.4860  177.0680  137.6210 C   0  0  0  0  0  0  0  0  0  0  0  0
  189.4830  177.8820  138.2610 N   0  0  0  0  0  0  0  0  0  0  0  0
  194.6460  174.5440  136.2130 C   0  0  0  0  0  0  0  0  0  0  0  0
  194.8180  174.8380  137.5680 C   0  0  0  0  0  3  0  0  0  0  0  0
  192.4890  175.6500  136.2430 C   0  0  0  0  0  0  0  0  0  0  0  0
  193.8280  175.5350  138.2670 C   0  0  0  0  0  3  0  0  0  0  0  0
  192.6560  175.9500  137.6170 C   0  0  0  0  0  0  0  0  0  0  0  0
  188.3250  178.0900  144.0440 C   0  0  0  0  0  3  0  0  0  0  0  0
  190.9190  177.1210  144.3990 C   0  0  0  0  0  3  0  0  0  0  0  0
  188.7600  177.7300  145.3240 C   0  0  0  0  0  0  0  0  0  0  0  0
  190.0720  177.2520  145.5050 C   0  0  0  0  0  0  0  0  0  0  0  0
  190.4830  177.4800  143.1150 C   0  0  0  0  0  0  0  0  0  0  0  0
  189.1810  177.9620  142.9470 C   0  0  0  0  0  3  0  0  0  0  0  0
  190.5790  176.8430  146.8480 C   0  0  0  0  0  2  0  0  0  0  0  0
  191.9740  176.8150  146.8370 O   0  0  0  0  0  1  0  0  0  0  0  0
  187.8220  177.8950  146.4760 C   0  0  0  0  0  2  0  0  0  0  0  0
  186.4080  177.5340  146.0520 C   0  0  0  0  0  2  0  0  0  0  0  0
  185.5010  178.7060  146.2290 C   0  0  0  0  0  0  0  0  0  0  0  0
  184.3640  178.9130  145.2890 C   0  0  0  0  0  1  0  0  0  0  0  0
  185.6720  179.4830  147.1550 O   0  0  0  0  0  0  0  0  0  0  0  0
  195.7140  173.8100  135.4710 C   0  0  0  0  0  2  0  0  0  0  0  0
  197.6900  172.6310  136.4320 C   0  0  0  0  0  1  0  0  0  0  0  0
  197.9850  174.7620  135.2210 C   0  0  0  0  0  1  0  0  0  0  0  0
  197.0680  173.9840  136.1400 C   0  0  0  0  0  3  0  0  0  0  0  0
  1  5  1  0  0  0  0
  2 13  2  0  0  0  0
  2 15  1  0  0  0  0
  3 15  2  0  0  0  0
  3 10  1  0  0  0  0
  4  9  1  0  0  0  0
  5  4  2  0  0  0  0
  6  8  1  0  0  0  0
  7 12  1  0  0  0  0
  8  4  1  0  0  0  0
  9 22  1  0  0  0  0
 10 11  2  0  0  0  0
 11 12  1  0  0  0  0
 11  1  1  0  0  0  0
 12  6  1  0  0  0  0
 13 14  1  0  0  0  0
 14 16  2  0  0  0  0
 15 17  1  0  0  0  0
 17 16  1  0  0  0  0
 17  1  2  0  0  0  0
 18 20  1  0  0  0  0
 19 21  1  0  0  0  0
 20 21  2  0  0  0  0
 20 26  1  0  0  0  0
 21 24  1  0  0  0  0
 22 19  2  0  0  0  0
 23 22  1  0  0  0  0
 23 18  2  0  0  0  0
 25 24  1  0  0  0  0
 27 28  1  0  0  0  0
 27 26  1  0  0  0  0
 28 30  2  0  0  0  0
 29 28  1  0  0  0  0
 31 34  1  0  0  0  0
 31 13  1  0  0  0  0
 33 34  1  0  0  0  0
 34 32  1  0  0  0  0
M  END
>  <MODEL>
3

>  <REMARK>
 VINA RESULT:      -8.2      3.266     10.919
  Name = 
  7 active torsions:
  status: ('A' for Active; 'I' for Inactive)
    1  A    between atoms: C_7  and  C_11
    2  A    between atoms: C_7  and  C_14
    3  A    between atoms: C_14  and  C_16
    4  A    between atoms: N_18  and  C_30
    5  A    between atoms: C_23  and  C_24
    6  A    between atoms: C_23  and  C_25
    7  A    between atoms: C_26  and  C_28
                            x       y       z     vdW  Elec       q    Type
                         _______ _______ _______ _____ _____    ______ ____

>  <TORSDO>
F 7

$$$$
=
 OpenBabel11052415493D

 34 37  0  0  0  0  0  0  0  0999 V2000
  187.4420  178.0880  143.0270 C   0  0  0  0  0  0  0  0  0  0  0  0
  184.3660  178.4440  145.0960 C   0  0  0  0  0  3  0  0  0  0  0  0
  186.6180  177.8290  145.7090 C   0  0  0  0  0  3  0  0  0  0  0  0
  188.6870  177.5360  141.0070 C   0  0  0  0  0  0  0  0  0  0  0  0
  187.8420  178.2790  141.6570 N   0  0  0  0  0  0  0  0  0  0  0  0
  190.2890  176.6730  142.6870 C   0  0  0  0  0  2  0  0  0  0  0  0
  190.7640  178.1160  144.6450 C   0  0  0  0  0  1  0  0  0  0  0  0
  189.2440  176.3030  141.6470 C   0  0  0  0  0  2  0  0  0  0  0  0
  189.0050  177.8910  139.6540 N   0  0  0  0  0  2  0  0  0  0  0  0
  187.9470  177.6010  145.3600 C   0  0  0  0  0  3  0  0  0  0  0  0
  188.3760  177.7210  144.0290 C   0  0  0  0  0  0  0  0  0  0  0  0
  189.7780  177.5640  143.7300 N   0  0  0  0  0  0  0  0  0  0  0  0
  183.4340  178.8290  144.1250 C   0  0  0  0  0  0  0  0  0  0  0  0
  183.8330  178.9740  142.7940 C   0  0  0  0  0  3  0  0  0  0  0  0
  185.6940  178.2010  144.7360 C   0  0  0  0  0  0  0  0  0  0  0  0
  185.1600  178.7320  142.4270 C   0  0  0  0  0  3  0  0  0  0  0  0
  186.1040  178.3450  143.3890 C   0  0  0  0  0  0  0  0  0  0  0  0
  190.4200  176.3070  136.5930 C   0  0  0  0  0  3  0  0  0  0  0  0
  191.2910  177.0660  139.1330 C   0  0  0  0  0  3  0  0  0  0  0  0
  191.7550  176.1020  136.9560 C   0  0  0  0  0  0  0  0  0  0  0  0
  192.1920  176.4750  138.2420 C   0  0  0  0  0  0  0  0  0  0  0  0
  189.9530  177.2750  138.7690 C   0  0  0  0  0  0  0  0  0  0  0  0
  189.5260  176.8930  137.4930 C   0  0  0  0  0  3  0  0  0  0  0  0
  193.6090  176.2880  138.6720 C   0  0  0  0  0  2  0  0  0  0  0  0
  193.9070  177.1730  139.7090 O   0  0  0  0  0  1  0  0  0  0  0  0
  192.6780  175.4580  135.9720 C   0  0  0  0  0  2  0  0  0  0  0  0
  191.8780  174.6890  134.9340 C   0  0  0  0  0  2  0  0  0  0  0  0
  191.9790  173.2210  135.1890 C   0  0  0  0  0  0  0  0  0  0  0  0
  190.7760  172.3560  135.0260 C   0  0  0  0  0  1  0  0  0  0  0  0
  193.0460  172.7230  135.5060 O   0  0  0  0  0  0  0  0  0  0  0  0
  182.0180  179.1010  144.5110 C   0  0  0  0  0  2  0  0  0  0  0  0
  179.9960  177.7670  143.9180 C   0  0  0  0  0  1  0  0  0  0  0  0
  180.3910  179.9600  142.8550 C   0  0  0  0  0  1  0  0  0  0  0  0
  181.0600  178.7140  143.3950 C   0  0  0  0  0  3  0  0  0  0  0  0
  1 17  2  0  0  0  0
  1 11  1  0  0  0  0
  4  8  1  0  0  0  0
  4  5  2  0  0  0  0
  5  1  1  0  0  0  0
  6 12  1  0  0  0  0
  8  6  1  0  0  0  0
  9  4  1  0  0  0  0
 10  3  1  0  0  0  0
 11 10  2  0  0  0  0
 12 11  1  0  0  0  0
 12  7  1  0  0  0  0
 13 31  1  0  0  0  0
 13  2  2  0  0  0  0
 14 13  1  0  0  0  0
 15  2  1  0  0  0  0
 15  3  2  0  0  0  0
 16 14  2  0  0  0  0
 16 17  1  0  0  0  0
 17 15  1  0  0  0  0
 18 20  2  0  0  0  0
 18 23  1  0  0  0  0
 20 21  1  0  0  0  0
 21 24  1  0  0  0  0
 21 19  2  0  0  0  0
 22 19  1  0  0  0  0
 22  9  1  0  0  0  0
 23 22  2  0  0  0  0
 24 25  1  0  0  0  0
 26 20  1  0  0  0  0
 27 28  1  0  0  0  0
 27 26  1  0  0  0  0
 28 30  2  0  0  0  0
 29 28  1  0  0  0  0
 33 34  1  0  0  0  0
 34 32  1  0  0  0  0
 34 31  1  0  0  0  0
M  END
>  <MODEL>
4

>  <REMARK>
 VINA RESULT:      -8.0      1.572      2.174
  Name = 
  7 active torsions:
  status: ('A' for Active; 'I' for Inactive)
    1  A    between atoms: C_7  and  C_11
    2  A    between atoms: C_7  and  C_14
    3  A    between atoms: C_14  and  C_16
    4  A    between atoms: N_18  and  C_30
    5  A    between atoms: C_23  and  C_24
    6  A    between atoms: C_23  and  C_25
    7  A    between atoms: C_26  and  C_28
                            x       y       z     vdW  Elec       q    Type
                         _______ _______ _______ _____ _____    ______ ____

>  <TORSDO>
F 7

$$$$
=
 OpenBabel11052415493D

 34 37  0  0  0  0  0  0  0  0999 V2000
  191.5300  176.2330  137.3680 C   0  0  0  0  0  0  0  0  0  0  0  0
  194.2000  174.4980  135.4360 C   0  0  0  0  0  3  0  0  0  0  0  0
  192.0000  175.2390  134.7730 C   0  0  0  0  0  3  0  0  0  0  0  0
  190.2320  176.7420  139.3660 C   0  0  0  0  0  0  0  0  0  0  0  0
  191.3400  176.7760  138.6870 N   0  0  0  0  0  0  0  0  0  0  0  0
  188.3980  176.7850  137.7030 C   0  0  0  0  0  2  0  0  0  0  0  0
  188.8180  177.9990  135.5840 C   0  0  0  0  0  1  0  0  0  0  0  0
  189.0490  175.9980  138.8280 C   0  0  0  0  0  2  0  0  0  0  0  0
  190.2050  177.3680  140.6570 N   0  0  0  0  0  2  0  0  0  0  0  0
  190.7940  175.8670  135.0740 C   0  0  0  0  0  3  0  0  0  0  0  0
  190.5390  176.3650  136.3610 C   0  0  0  0  0  0  0  0  0  0  0  0
  189.3140  177.0870  136.6010 N   0  0  0  0  0  0  0  0  0  0  0  0
  195.1980  174.3790  136.4100 C   0  0  0  0  0  0  0  0  0  0  0  0
  194.9820  174.8800  137.6960 C   0  0  0  0  0  3  0  0  0  0  0  0
  192.9850  175.1140  135.7490 C   0  0  0  0  0  0  0  0  0  0  0  0
  193.7700  175.4960  138.0160 C   0  0  0  0  0  3  0  0  0  0  0  0
  192.7600  175.6230  137.0510 C   0  0  0  0  0  0  0  0  0  0  0  0
  188.0650  176.9850  143.6820 C   0  0  0  0  0  3  0  0  0  0  0  0
  187.9950  178.3420  141.2440 C   0  0  0  0  0  3  0  0  0  0  0  0
  186.9720  177.8040  143.3780 C   0  0  0  0  0  0  0  0  0  0  0  0
  186.9320  178.4800  142.1430 C   0  0  0  0  0  0  0  0  0  0  0  0
  189.0910  177.5220  141.5500 C   0  0  0  0  0  0  0  0  0  0  0  0
  189.1180  176.8480  142.7740 C   0  0  0  0  0  3  0  0  0  0  0  0
  185.7950  179.3750  141.7770 C   0  0  0  0  0  2  0  0  0  0  0  0
  185.3910  179.1130  140.4670 O   0  0  0  0  0  1  0  0  0  0  0  0
  185.8570  177.9140  144.3660 C   0  0  0  0  0  2  0  0  0  0  0  0
  186.2660  177.2790  145.6850 C   0  0  0  0  0  2  0  0  0  0  0  0
  186.3030  178.3110  146.7640 C   0  0  0  0  0  0  0  0  0  0  0  0
  187.4270  178.3210  147.7420 C   0  0  0  0  0  1  0  0  0  0  0  0
  185.4290  179.1600  146.8340 O   0  0  0  0  0  0  0  0  0  0  0  0
  196.5010  173.7320  136.0720 C   0  0  0  0  0  2  0  0  0  0  0  0
  198.5340  174.0680  137.4760 C   0  0  0  0  0  1  0  0  0  0  0  0
  198.5070  174.8330  135.1290 C   0  0  0  0  0  1  0  0  0  0  0  0
  197.6690  174.6560  136.3780 C   0  0  0  0  0  3  0  0  0  0  0  0
  1  5  1  0  0  0  0
  2 15  2  0  0  0  0
  2 13  1  0  0  0  0
  3 10  2  0  0  0  0
  3 15  1  0  0  0  0
  4  9  1  0  0  0  0
  5  4  2  0  0  0  0
  6  8  1  0  0  0  0
  7 12  1  0  0  0  0
  8  4  1  0  0  0  0
  9 22  1  0  0  0  0
 10 11  1  0  0  0  0
 11 12  1  0  0  0  0
 11  1  2  0  0  0  0
 12  6  1  0  0  0  0
 13 14  2  0  0  0  0
 14 16  1  0  0  0  0
 15 17  1  0  0  0  0
 17  1  1  0  0  0  0
 17 16  2  0  0  0  0
 19 22  2  0  0  0  0
 19 21  1  0  0  0  0
 20 18  1  0  0  0  0
 20 26  1  0  0  0  0
 21 20  2  0  0  0  0
 22 23  1  0  0  0  0
 23 18  2  0  0  0  0
 24 21  1  0  0  0  0
 25 24  1  0  0  0  0
 26 27  1  0  0  0  0
 27 28  1  0  0  0  0
 28 30  2  0  0  0  0
 28 29  1  0  0  0  0
 31 34  1  0  0  0  0
 31 13  1  0  0  0  0
 33 34  1  0  0  0  0
 34 32  1  0  0  0  0
M  END
>  <MODEL>
5

>  <REMARK>
 VINA RESULT:      -7.5      3.361     11.086
  Name = 
  7 active torsions:
  status: ('A' for Active; 'I' for Inactive)
    1  A    between atoms: C_7  and  C_11
    2  A    between atoms: C_7  and  C_14
    3  A    between atoms: C_14  and  C_16
    4  A    between atoms: N_18  and  C_30
    5  A    between atoms: C_23  and  C_24
    6  A    between atoms: C_23  and  C_25
    7  A    between atoms: C_26  and  C_28
                            x       y       z     vdW  Elec       q    Type
                         _______ _______ _______ _____ _____    ______ ____

>  <TORSDO>
F 7

$$$$
=
 OpenBabel11052415493D

 34 37  0  0  0  0  0  0  0  0999 V2000
  181.8370  179.3670  138.5930 C   0  0  0  0  0  0  0  0  0  0  0  0
  180.0850  181.4150  136.0220 C   0  0  0  0  0  3  0  0  0  0  0  0
  181.1660  179.2630  135.8580 C   0  0  0  0  0  3  0  0  0  0  0  0
  183.2160  179.0240  140.5720 C   0  0  0  0  0  0  0  0  0  0  0  0
  182.1190  179.4270  140.0030 N   0  0  0  0  0  0  0  0  0  0  0  0
  184.0680  177.1550  139.1870 C   0  0  0  0  0  2  0  0  0  0  0  0
  182.3900  175.7610  138.0110 C   0  0  0  0  0  1  0  0  0  0  0  0
  184.3590  178.5430  139.7330 C   0  0  0  0  0  2  0  0  0  0  0  0
  183.3180  179.1200  142.0000 N   0  0  0  0  0  2  0  0  0  0  0  0
  181.8560  178.2080  136.4500 C   0  0  0  0  0  3  0  0  0  0  0  0
  182.2030  178.2420  137.8100 C   0  0  0  0  0  0  0  0  0  0  0  0
  182.8360  177.0890  138.3990 N   0  0  0  0  0  0  0  0  0  0  0  0
  179.6970  182.5230  136.7830 C   0  0  0  0  0  0  0  0  0  0  0  0
  180.0110  182.5810  138.1440 C   0  0  0  0  0  3  0  0  0  0  0  0
  180.7920  180.3670  136.6190 C   0  0  0  0  0  0  0  0  0  0  0  0
  180.7170  181.5370  138.7470 C   0  0  0  0  0  3  0  0  0  0  0  0
  181.1150  180.4200  137.9960 C   0  0  0  0  0  0  0  0  0  0  0  0
  186.6590  177.8470  143.0470 C   0  0  0  0  0  3  0  0  0  0  0  0
  184.2740  178.6610  144.2470 C   0  0  0  0  0  3  0  0  0  0  0  0
  186.5470  177.8340  144.4410 C   0  0  0  0  0  0  0  0  0  0  0  0
  185.3400  178.2340  145.0460 C   0  0  0  0  0  0  0  0  0  0  0  0
  184.3870  178.6760  142.8490 C   0  0  0  0  0  0  0  0  0  0  0  0
  185.5860  178.2690  142.2570 C   0  0  0  0  0  3  0  0  0  0  0  0
  185.1760  178.2500  146.5300 C   0  0  0  0  0  2  0  0  0  0  0  0
  185.6820  179.4430  147.0470 O   0  0  0  0  0  1  0  0  0  0  0  0
  187.7100  177.3620  145.2520 C   0  0  0  0  0  2  0  0  0  0  0  0
  188.7750  176.7730  144.3420 C   0  0  0  0  0  2  0  0  0  0  0  0
  190.0930  177.4250  144.6010 C   0  0  0  0  0  0  0  0  0  0  0  0
  190.4180  178.7240  143.9480 C   0  0  0  0  0  1  0  0  0  0  0  0
  190.8950  176.9110  145.3640 O   0  0  0  0  0  0  0  0  0  0  0  0
  178.9310  183.6370  136.1490 C   0  0  0  0  0  2  0  0  0  0  0  0
  179.3710  185.8390  137.2350 C   0  0  0  0  0  1  0  0  0  0  0  0
  181.2250  184.5630  136.2210 C   0  0  0  0  0  1  0  0  0  0  0  0
  179.7570  184.9130  136.0970 C   0  0  0  0  0  3  0  0  0  0  0  0
  1  5  1  0  0  0  0
  2 15  2  0  0  0  0
  2 13  1  0  0  0  0
  3 10  2  0  0  0  0
  3 15  1  0  0  0  0
  4  9  1  0  0  0  0
  5  4  2  0  0  0  0
  6  8  1  0  0  0  0
  7 12  1  0  0  0  0
  8  4  1  0  0  0  0
  9 22  1  0  0  0  0
 10 11  1  0  0  0  0
 11 12  1  0  0  0  0
 11  1  2  0  0  0  0
 12  6  1  0  0  0  0
 13 14  2  0  0  0  0
 14 16  1  0  0  0  0
 15 17  1  0  0  0  0
 17  1  1  0  0  0  0
 17 16  2  0  0  0  0
 18 20  1  0  0  0  0
 19 21  1  0  0  0  0
 20 21  2  0  0  0  0
 20 26  1  0  0  0  0
 21 24  1  0  0  0  0
 22 19  2  0  0  0  0
 23 22  1  0  0  0  0
 23 18  2  0  0  0  0
 24 25  1  0  0  0  0
 27 28  1  0  0  0  0
 27 26  1  0  0  0  0
 28 30  2  0  0  0  0
 29 28  1  0  0  0  0
 31 13  1  0  0  0  0
 34 31  1  0  0  0  0
 34 33  1  0  0  0  0
 34 32  1  0  0  0  0
M  END
>  <MODEL>
6

>  <REMARK>
 VINA RESULT:      -7.2      5.363      9.208
  Name = 
  7 active torsions:
  status: ('A' for Active; 'I' for Inactive)
    1  A    between atoms: C_7  and  C_11
    2  A    between atoms: C_7  and  C_14
    3  A    between atoms: C_14  and  C_16
    4  A    between atoms: N_18  and  C_30
    5  A    between atoms: C_23  and  C_24
    6  A    between atoms: C_23  and  C_25
    7  A    between atoms: C_26  and  C_28
                            x       y       z     vdW  Elec       q    Type
                         _______ _______ _______ _____ _____    ______ ____

>  <TORSDO>
F 7

$$$$
=
 OpenBabel11052415493D

 34 37  0  0  0  0  0  0  0  0999 V2000
  181.8920  179.3430  138.2760 C   0  0  0  0  0  0  0  0  0  0  0  0
  180.0910  181.3340  135.6960 C   0  0  0  0  0  3  0  0  0  0  0  0
  181.1750  179.1820  135.5560 C   0  0  0  0  0  3  0  0  0  0  0  0
  183.3050  179.0420  140.2380 C   0  0  0  0  0  0  0  0  0  0  0  0
  182.1980  179.4310  139.6800 N   0  0  0  0  0  0  0  0  0  0  0  0
  184.1390  177.1490  138.8770 C   0  0  0  0  0  2  0  0  0  0  0  0
  182.4470  175.7270  137.7570 C   0  0  0  0  0  1  0  0  0  0  0  0
  184.4350  178.5490  139.3900 C   0  0  0  0  0  2  0  0  0  0  0  0
  183.4310  179.1680  141.6620 N   0  0  0  0  0  2  0  0  0  0  0  0
  181.8790  178.1410  136.1570 C   0  0  0  0  0  3  0  0  0  0  0  0
  182.2480  178.2030  137.5100 C   0  0  0  0  0  0  0  0  0  0  0  0
  182.8940  177.0640  138.1110 N   0  0  0  0  0  0  0  0  0  0  0  0
  179.7110  182.4560  136.4420 C   0  0  0  0  0  0  0  0  0  0  0  0
  180.0480  182.5410  137.7950 C   0  0  0  0  0  3  0  0  0  0  0  0
  180.8100  180.3000  136.3010 C   0  0  0  0  0  0  0  0  0  0  0  0
  180.7680  181.5110  138.4060 C   0  0  0  0  0  3  0  0  0  0  0  0
  181.1560  180.3810  137.6710 C   0  0  0  0  0  0  0  0  0  0  0  0
  185.3080  178.1910  144.7280 C   0  0  0  0  0  3  0  0  0  0  0  0
  185.7820  178.4280  141.9870 C   0  0  0  0  0  3  0  0  0  0  0  0
  186.5710  177.8740  144.2140 C   0  0  0  0  0  0  0  0  0  0  0  0
  186.8120  178.0050  142.8330 C   0  0  0  0  0  0  0  0  0  0  0  0
  184.5150  178.7430  142.5020 C   0  0  0  0  0  0  0  0  0  0  0  0
  184.2870  178.6190  143.8760 C   0  0  0  0  0  3  0  0  0  0  0  0
  188.1380  177.6680  142.2350 C   0  0  0  0  0  2  0  0  0  0  0  0
  188.2900  178.3370  141.0190 O   0  0  0  0  0  1  0  0  0  0  0  0
  187.6430  177.4350  145.1580 C   0  0  0  0  0  2  0  0  0  0  0  0
  187.2370  177.7480  146.5890 C   0  0  0  0  0  2  0  0  0  0  0  0
  188.4000  177.5630  147.5070 C   0  0  0  0  0  0  0  0  0  0  0  0
  189.6940  177.0570  146.9700 C   0  0  0  0  0  1  0  0  0  0  0  0
  188.3020  177.8460  148.6900 O   0  0  0  0  0  0  0  0  0  0  0  0
  178.9310  183.5550  135.7980 C   0  0  0  0  0  2  0  0  0  0  0  0
  179.2590  185.7000  137.0280 C   0  0  0  0  0  1  0  0  0  0  0  0
  181.1790  184.5800  135.9530 C   0  0  0  0  0  1  0  0  0  0  0  0
  179.6970  184.8680  135.8370 C   0  0  0  0  0  3  0  0  0  0  0  0
  1  5  1  0  0  0  0
  2 15  2  0  0  0  0
  2 13  1  0  0  0  0
  3 10  2  0  0  0  0
  3 15  1  0  0  0  0
  4  9  1  0  0  0  0
  5  4  2  0  0  0  0
  6  8  1  0  0  0  0
  7 12  1  0  0  0  0
  8  4  1  0  0  0  0
  9 22  1  0  0  0  0
 10 11  1  0  0  0  0
 11 12  1  0  0  0  0
 11  1  2  0  0  0  0
 12  6  1  0  0  0  0
 13 14  2  0  0  0  0
 14 16  1  0  0  0  0
 15 17  1  0  0  0  0
 17  1  1  0  0  0  0
 17 16  2  0  0  0  0
 19 22  2  0  0  0  0
 19 21  1  0  0  0  0
 20 18  1  0  0  0  0
 20 26  1  0  0  0  0
 21 20  2  0  0  0  0
 22 23  1  0  0  0  0
 23 18  2  0  0  0  0
 24 21  1  0  0  0  0
 25 24  1  0  0  0  0
 26 27  1  0  0  0  0
 27 28  1  0  0  0  0
 28 30  2  0  0  0  0
 29 28  1  0  0  0  0
 31 34  1  0  0  0  0
 31 13  1  0  0  0  0
 34 33  1  0  0  0  0
 34 32  1  0  0  0  0
M  END
>  <MODEL>
7

>  <REMARK>
 VINA RESULT:      -7.1      5.419      9.366
  Name = 
  7 active torsions:
  status: ('A' for Active; 'I' for Inactive)
    1  A    between atoms: C_7  and  C_11
    2  A    between atoms: C_7  and  C_14
    3  A    between atoms: C_14  and  C_16
    4  A    between atoms: N_18  and  C_30
    5  A    between atoms: C_23  and  C_24
    6  A    between atoms: C_23  and  C_25
    7  A    between atoms: C_26  and  C_28
                            x       y       z     vdW  Elec       q    Type
                         _______ _______ _______ _____ _____    ______ ____

>  <TORSDO>
F 7

$$$$
=
 OpenBabel11052415493D

 34 37  0  0  0  0  0  0  0  0999 V2000
  187.8750  177.5920  141.2640 C   0  0  0  0  0  0  0  0  0  0  0  0
  186.2910  178.4710  144.5180 C   0  0  0  0  0  3  0  0  0  0  0  0
  185.6830  179.0580  142.2570 C   0  0  0  0  0  3  0  0  0  0  0  0
  189.7480  177.0940  139.7890 C   0  0  0  0  0  0  0  0  0  0  0  0
  188.9720  176.7920  140.7860 N   0  0  0  0  0  0  0  0  0  0  0  0
  188.3730  178.4270  138.2180 C   0  0  0  0  0  2  0  0  0  0  0  0
  185.9480  177.9230  138.1290 C   0  0  0  0  0  1  0  0  0  0  0  0
  189.6060  178.4190  139.1070 C   0  0  0  0  0  2  0  0  0  0  0  0
  190.7750  176.1630  139.4180 N   0  0  0  0  0  2  0  0  0  0  0  0
  185.9080  178.9780  140.8840 C   0  0  0  0  0  3  0  0  0  0  0  0
  186.9960  178.2560  140.3700 C   0  0  0  0  0  0  0  0  0  0  0  0
  187.1360  178.1260  138.9420 N   0  0  0  0  0  0  0  0  0  0  0  0
  187.1340  177.8040  145.4140 C   0  0  0  0  0  0  0  0  0  0  0  0
  188.2160  177.0620  144.9340 C   0  0  0  0  0  3  0  0  0  0  0  0
  186.5320  178.4010  143.1430 C   0  0  0  0  0  0  0  0  0  0  0  0
  188.4630  176.9870  143.5600 C   0  0  0  0  0  3  0  0  0  0  0  0
  187.6270  177.6520  142.6500 C   0  0  0  0  0  0  0  0  0  0  0  0
  193.9390  176.7320  137.5350 C   0  0  0  0  0  3  0  0  0  0  0  0
  191.3300  175.8880  137.0110 C   0  0  0  0  0  3  0  0  0  0  0  0
  193.5750  176.3780  136.2310 C   0  0  0  0  0  0  0  0  0  0  0  0
  192.2560  175.9630  135.9660 C   0  0  0  0  0  0  0  0  0  0  0  0
  191.6950  176.2400  138.3190 C   0  0  0  0  0  0  0  0  0  0  0  0
  193.0040  176.6600  138.5720 C   0  0  0  0  0  3  0  0  0  0  0  0
  191.8230  175.5630  134.5940 C   0  0  0  0  0  2  0  0  0  0  0  0
  191.3900  174.2360  134.6050 O   0  0  0  0  0  1  0  0  0  0  0  0
  194.5960  176.4820  135.1460 C   0  0  0  0  0  2  0  0  0  0  0  0
  195.4160  175.2040  135.0760 C   0  0  0  0  0  2  0  0  0  0  0  0
  196.5640  175.2750  136.0280 C   0  0  0  0  0  0  0  0  0  0  0  0
  196.8130  174.1510  136.9730 C   0  0  0  0  0  1  0  0  0  0  0  0
  197.3130  176.2380  136.0190 O   0  0  0  0  0  0  0  0  0  0  0  0
  186.8690  177.8690  146.8820 C   0  0  0  0  0  2  0  0  0  0  0  0
  187.9550  178.3910  149.0650 C   0  0  0  0  0  1  0  0  0  0  0  0
  188.6200  176.3780  147.8000 C   0  0  0  0  0  1  0  0  0  0  0  0
  188.1650  177.8170  147.6770 C   0  0  0  0  0  3  0  0  0  0  0  0
  1 17  1  0  0  0  0
  2 13  1  0  0  0  0
  3 15  1  0  0  0  0
  4  5  2  0  0  0  0
  5  1  1  0  0  0  0
  6 12  1  0  0  0  0
  6  8  1  0  0  0  0
  7 12  1  0  0  0  0
  8  4  1  0  0  0  0
  9  4  1  0  0  0  0
 10  3  2  0  0  0  0
 11 10  1  0  0  0  0
 11  1  2  0  0  0  0
 12 11  1  0  0  0  0
 13 31  1  0  0  0  0
 14 13  2  0  0  0  0
 15  2  2  0  0  0  0
 16 14  1  0  0  0  0
 17 15  1  0  0  0  0
 17 16  2  0  0  0  0
 18 23  1  0  0  0  0
 19 22  1  0  0  0  0
 20 18  2  0  0  0  0
 21 20  1  0  0  0  0
 21 19  2  0  0  0  0
 22 23  2  0  0  0  0
 22  9  1  0  0  0  0
 24 25  1  0  0  0  0
 24 21  1  0  0  0  0
 26 20  1  0  0  0  0
 27 26  1  0  0  0  0
 27 28  1  0  0  0  0
 28 29  1  0  0  0  0
 30 28  2  0  0  0  0
 31 34  1  0  0  0  0
 34 33  1  0  0  0  0
 34 32  1  0  0  0  0
M  END
>  <MODEL>
8

>  <REMARK>
 VINA RESULT:      -7.1      2.547      4.547
  Name = 
  7 active torsions:
  status: ('A' for Active; 'I' for Inactive)
    1  A    between atoms: C_7  and  C_11
    2  A    between atoms: C_7  and  C_14
    3  A    between atoms: C_14  and  C_16
    4  A    between atoms: N_18  and  C_30
    5  A    between atoms: C_23  and  C_24
    6  A    between atoms: C_23  and  C_25
    7  A    between atoms: C_26  and  C_28
                            x       y       z     vdW  Elec       q    Type
                         _______ _______ _______ _____ _____    ______ ____

>  <TORSDO>
F 7

$$$$
=
 OpenBabel11052415493D

 34 37  0  0  0  0  0  0  0  0999 V2000
  184.3280  178.2190  143.0290 C   0  0  0  0  0  0  0  0  0  0  0  0
  186.9920  178.2380  145.6300 C   0  0  0  0  0  3  0  0  0  0  0  0
  184.6470  178.7910  145.7690 C   0  0  0  0  0  3  0  0  0  0  0  0
  183.4480  178.4960  140.7740 C   0  0  0  0  0  0  0  0  0  0  0  0
  184.1870  177.8690  141.6390 N   0  0  0  0  0  0  0  0  0  0  0  0
  181.5400  179.4370  142.0430 C   0  0  0  0  0  2  0  0  0  0  0  0
  180.7720  178.1770  144.0340 C   0  0  0  0  0  1  0  0  0  0  0  0
  182.7420  179.7560  141.1680 C   0  0  0  0  0  2  0  0  0  0  0  0
  183.3900  177.9890  139.4330 N   0  0  0  0  0  2  0  0  0  0  0  0
  183.3950  178.9120  145.1700 C   0  0  0  0  0  3  0  0  0  0  0  0
  183.2160  178.6340  143.8060 C   0  0  0  0  0  0  0  0  0  0  0  0
  181.8870  178.6850  143.2510 N   0  0  0  0  0  0  0  0  0  0  0  0
  188.0960  177.8080  144.8850 C   0  0  0  0  0  0  0  0  0  0  0  0
  187.9480  177.5070  143.5290 C   0  0  0  0  0  3  0  0  0  0  0  0
  185.7420  178.3730  145.0190 C   0  0  0  0  0  0  0  0  0  0  0  0
  186.7010  177.6400  142.9110 C   0  0  0  0  0  3  0  0  0  0  0  0
  185.5860  178.0710  143.6450 C   0  0  0  0  0  0  0  0  0  0  0  0
  181.1730  180.1980  137.4110 C   0  0  0  0  0  3  0  0  0  0  0  0
  182.4770  177.7450  137.1340 C   0  0  0  0  0  3  0  0  0  0  0  0
  181.0560  179.4830  136.2130 C   0  0  0  0  0  0  0  0  0  0  0  0
  181.7050  178.2410  136.0790 C   0  0  0  0  0  0  0  0  0  0  0  0
  182.5960  178.4620  138.3340 C   0  0  0  0  0  0  0  0  0  0  0  0
  181.9410  179.6900  138.4620 C   0  0  0  0  0  3  0  0  0  0  0  0
  181.6210  177.4470  134.8170 C   0  0  0  0  0  2  0  0  0  0  0  0
  182.7430  176.6240  134.7020 O   0  0  0  0  0  1  0  0  0  0  0  0
  180.2140  180.0490  135.1170 C   0  0  0  0  0  2  0  0  0  0  0  0
  180.8350  181.3350  134.5940 C   0  0  0  0  0  2  0  0  0  0  0  0
  180.1140  182.5180  135.1480 C   0  0  0  0  0  0  0  0  0  0  0  0
  180.8260  183.8190  135.2910 C   0  0  0  0  0  1  0  0  0  0  0  0
  178.9390  182.4320  135.4640 O   0  0  0  0  0  0  0  0  0  0  0  0
  189.4290  177.6520  145.5400 C   0  0  0  0  0  2  0  0  0  0  0  0
  191.2330  178.6200  144.1180 C   0  0  0  0  0  1  0  0  0  0  0  0
  191.5100  176.3810  145.1190 C   0  0  0  0  0  1  0  0  0  0  0  0
  190.5120  177.3470  144.5180 C   0  0  0  0  0  3  0  0  0  0  0  0
  1 17  2  0  0  0  0
  1 11  1  0  0  0  0
  4  8  1  0  0  0  0
  4  5  2  0  0  0  0
  5  1  1  0  0  0  0
  6 12  1  0  0  0  0
  8  6  1  0  0  0  0
  9  4  1  0  0  0  0
 10  3  1  0  0  0  0
 11 10  2  0  0  0  0
 12 11  1  0  0  0  0
 12  7  1  0  0  0  0
 13 31  1  0  0  0  0
 13  2  2  0  0  0  0
 14 13  1  0  0  0  0
 15  2  1  0  0  0  0
 15  3  2  0  0  0  0
 16 14  2  0  0  0  0
 16 17  1  0  0  0  0
 17 15  1  0  0  0  0
 18 23  1  0  0  0  0
 19 22  1  0  0  0  0
 20 18  2  0  0  0  0
 21 20  1  0  0  0  0
 21 19  2  0  0  0  0
 22 23  2  0  0  0  0
 22  9  1  0  0  0  0
 24 21  1  0  0  0  0
 25 24  1  0  0  0  0
 26 20  1  0  0  0  0
 27 26  1  0  0  0  0
 27 28  1  0  0  0  0
 28 29  1  0  0  0  0
 28 30  2  0  0  0  0
 32 34  1  0  0  0  0
 34 33  1  0  0  0  0
 34 31  1  0  0  0  0
M  END
>  <MODEL>
9

>  <REMARK>
 VINA RESULT:      -7.1      5.281      9.809
  Name = 
  7 active torsions:
  status: ('A' for Active; 'I' for Inactive)
    1  A    between atoms: C_7  and  C_11
    2  A    between atoms: C_7  and  C_14
    3  A    between atoms: C_14  and  C_16
    4  A    between atoms: N_18  and  C_30
    5  A    between atoms: C_23  and  C_24
    6  A    between atoms: C_23  and  C_25
    7  A    between atoms: C_26  and  C_28
                            x       y       z     vdW  Elec       q    Type
                         _______ _______ _______ _____ _____    ______ ____

>  <TORSDO>
F 7

$$$$
