=
 OpenBabel11052413273D

 28 32  0  0  1  0  0  0  0  0999 V2000
  190.2210  176.3550  143.5000 C   0  0  0  0  0  0  0  0  0  0  0  0
  185.2330  177.7630  143.0920 C   0  0  0  0  0  3  0  0  0  0  0  0
  189.0230  177.8340  148.0960 C   0  0  0  0  0  1  0  0  0  0  0  0
  184.8770  178.9630  145.1720 C   0  0  0  0  0  0  0  0  0  0  0  0
  187.0460  177.7770  144.8340 C   0  0  0  0  0  0  0  0  0  0  0  0
  183.1460  178.9280  143.4780 C   0  0  0  0  0  0  0  0  0  0  0  0
  185.7030  178.1710  144.3500 C   0  0  0  0  0  0  0  0  0  0  0  0
  186.3340  178.4820  147.1440 C   0  0  0  0  0  2  0  0  0  0  0  0
  183.6090  179.3470  144.7280 C   0  0  0  0  0  3  0  0  0  0  0  0
  189.6180  177.0920  145.7550 C   0  0  0  0  0  0  0  0  0  0  0  0
  187.9880  177.2330  143.9570 C   0  0  0  0  0  3  0  0  0  0  0  0
  185.3930  179.4880  146.4790 C   0  0  0  0  0  2  0  0  0  0  0  0
  191.8370  176.2060  145.3040 C   0  0  0  0  0  3  0  0  0  0  0  0
  188.6720  177.6330  146.6520 C   0  0  0  0  0  0  0  0  0  0  0  0
  190.9050  176.7420  146.1930 C   0  0  0  0  0  3  0  0  0  0  0  0
  181.9130  179.2960  143.0540 F   0  0  0  0  0  0  0  0  0  0  0  0
  183.9580  178.1390  142.6590 C   0  0  0  0  0  3  0  0  0  0  0  0
  187.3890  177.9840  146.1860 C   0  0  0  0  0  0  0  0  0  0  0  0
  191.4960  176.0150  143.9650 C   0  0  0  0  0  3  0  0  0  0  0  0
  189.2720  176.8920  144.3950 C   0  0  0  0  0  0  0  0  0  0  0  0
  189.9110  176.1520  142.0410 C   0  0  0  0  0  2  0  0  0  0  0  0
  190.2020  177.3900  141.1870 C   0  0  2  0  0  3  0  0  0  0  0  0
  190.4300  177.7600  138.8720 N   0  0  0  0  0  0  0  0  0  0  0  0
  189.0170  177.9810  140.7390 O   0  0  0  0  0  0  0  0  0  0  0  0
  192.4570  177.5420  140.1830 C   0  0  0  0  0  1  0  0  0  0  0  0
  191.0350  177.0560  139.9780 C   0  0  1  0  0  3  0  0  0  0  0  0
  189.8640  176.7540  137.9890 C   0  0  0  0  0  1  0  0  0  0  0  0
  189.3120  178.4870  139.4620 C   0  0  0  0  0  2  0  0  0  0  0  0
  1 19  2  0  0  0  0
  1 20  1  0  0  0  0
  2  7  1  0  0  0  0
  4 12  1  0  0  0  0
  5 18  1  0  0  0  0
  6  9  2  0  0  0  0
  7  5  1  0  0  0  0
  7  4  2  0  0  0  0
  9  4  1  0  0  0  0
 10 15  1  0  0  0  0
 10 14  1  0  0  0  0
 11 20  1  0  0  0  0
 11  5  2  0  0  0  0
 12  8  1  0  0  0  0
 13 15  2  0  0  0  0
 14  3  1  0  0  0  0
 16  6  1  0  0  0  0
 17  2  2  0  0  0  0
 17  6  1  0  0  0  0
 18 14  2  0  0  0  0
 18  8  1  0  0  0  0
 19 13  1  0  0  0  0
 20 10  2  0  0  0  0
 21  1  1  0  0  0  0
 22 21  1  6  0  0  0
 23 28  1  0  0  0  0
 23 26  1  0  0  0  0
 24 22  1  0  0  0  0
 26 25  1  1  0  0  0
 26 22  1  0  0  0  0
 27 23  1  0  0  0  0
 28 24  1  0  0  0  0
M  END
>  <MODEL>
1

>  <REMARK>
 VINA RESULT:     -11.9      0.000      0.000
  Name = 
  2 active torsions:
  status: ('A' for Active; 'I' for Inactive)
    1  A    between atoms: C_1  and  C_2
    2  A    between atoms: C_2  and  C_3
                            x       y       z     vdW  Elec       q    Type
                         _______ _______ _______ _____ _____    ______ ____

>  <TORSDO>
F 2

$$$$
=
 OpenBabel11052413273D

 28 32  0  0  1  0  0  0  0  0999 V2000
  189.4330  177.2000  141.4110 C   0  0  0  0  0  0  0  0  0  0  0  0
  184.4900  178.0860  142.7560 C   0  0  0  0  0  3  0  0  0  0  0  0
  189.5770  177.4440  146.3780 C   0  0  0  0  0  1  0  0  0  0  0  0
  184.7100  178.7310  145.0870 C   0  0  0  0  0  0  0  0  0  0  0  0
  186.7330  177.9090  143.8790 C   0  0  0  0  0  0  0  0  0  0  0  0
  182.5600  178.8860  143.9810 C   0  0  0  0  0  0  0  0  0  0  0  0
  185.2910  178.2480  143.8970 C   0  0  0  0  0  0  0  0  0  0  0  0
  186.7010  177.9820  146.3960 C   0  0  0  0  0  2  0  0  0  0  0  0
  183.3520  179.0590  145.1190 C   0  0  0  0  0  3  0  0  0  0  0  0
  189.4890  177.3300  143.8560 C   0  0  0  0  0  0  0  0  0  0  0  0
  187.3980  177.6900  142.6690 C   0  0  0  0  0  3  0  0  0  0  0  0
  185.5650  178.9990  146.2890 C   0  0  0  0  0  2  0  0  0  0  0  0
  191.5130  176.8290  142.6050 C   0  0  0  0  0  3  0  0  0  0  0  0
  188.8260  177.5400  145.0840 C   0  0  0  0  0  0  0  0  0  0  0  0
  190.8620  177.0380  143.8200 C   0  0  0  0  0  3  0  0  0  0  0  0
  181.2430  179.1980  144.0180 F   0  0  0  0  0  0  0  0  0  0  0  0
  183.1290  178.4030  142.7990 C   0  0  0  0  0  3  0  0  0  0  0  0
  187.4490  177.8390  145.0920 C   0  0  0  0  0  0  0  0  0  0  0  0
  190.8020  176.9110  141.4070 C   0  0  0  0  0  3  0  0  0  0  0  0
  188.7670  177.4070  142.6380 C   0  0  0  0  0  0  0  0  0  0  0  0
  188.7170  177.3020  140.0920 C   0  0  0  0  0  2  0  0  0  0  0  0
  189.5380  178.0210  139.0160 C   0  0  2  0  0  3  0  0  0  0  0  0
  189.5000  178.0210  136.6610 N   0  0  0  0  0  0  0  0  0  0  0  0
  188.9070  179.2000  138.6080 O   0  0  0  0  0  0  0  0  0  0  0  0
  191.1690  176.6500  137.7620 C   0  0  0  0  0  1  0  0  0  0  0  0
  189.7430  177.1620  137.7970 C   0  0  1  0  0  3  0  0  0  0  0  0
  188.2820  177.5480  136.0250 C   0  0  0  0  0  1  0  0  0  0  0  0
  189.2010  179.3250  137.2390 C   0  0  0  0  0  2  0  0  0  0  0  0
  1 20  1  0  0  0  0
  2 17  2  0  0  0  0
  2  7  1  0  0  0  0
  4  9  1  0  0  0  0
  4 12  1  0  0  0  0
  5  7  1  0  0  0  0
  5 18  1  0  0  0  0
  6 16  1  0  0  0  0
  6  9  2  0  0  0  0
  7  4  2  0  0  0  0
 10 14  1  0  0  0  0
 11  5  2  0  0  0  0
 12  8  1  0  0  0  0
 13 15  2  0  0  0  0
 14 18  2  0  0  0  0
 14  3  1  0  0  0  0
 15 10  1  0  0  0  0
 17  6  1  0  0  0  0
 18  8  1  0  0  0  0
 19  1  2  0  0  0  0
 19 13  1  0  0  0  0
 20 11  1  0  0  0  0
 20 10  2  0  0  0  0
 21  1  1  0  0  0  0
 22 21  1  1  0  0  0
 23 28  1  0  0  0  0
 23 26  1  0  0  0  0
 24 22  1  0  0  0  0
 26 25  1  6  0  0  0
 26 22  1  0  0  0  0
 27 23  1  0  0  0  0
 28 24  1  0  0  0  0
M  END
>  <MODEL>
2

>  <REMARK>
 VINA RESULT:     -11.5      1.289      1.905
  Name = 
  2 active torsions:
  status: ('A' for Active; 'I' for Inactive)
    1  A    between atoms: C_1  and  C_2
    2  A    between atoms: C_2  and  C_3
                            x       y       z     vdW  Elec       q    Type
                         _______ _______ _______ _____ _____    ______ ____

>  <TORSDO>
F 2

$$$$
=
 OpenBabel11052413273D

 28 32  0  0  1  0  0  0  0  0999 V2000
  184.6470  178.8400  143.9740 C   0  0  0  0  0  0  0  0  0  0  0  0
  188.2080  178.2810  140.2270 C   0  0  0  0  0  3  0  0  0  0  0  0
  188.6080  177.0060  146.3610 C   0  0  0  0  0  1  0  0  0  0  0  0
  189.8790  176.9020  141.3230 C   0  0  0  0  0  0  0  0  0  0  0  0
  187.9730  177.7710  142.6780 C   0  0  0  0  0  0  0  0  0  0  0  0
  190.0830  177.4140  138.9640 C   0  0  0  0  0  0  0  0  0  0  0  0
  188.6880  177.6520  141.3860 C   0  0  0  0  0  0  0  0  0  0  0  0
  190.0460  176.9040  143.8150 C   0  0  0  0  0  2  0  0  0  0  0  0
  190.5630  176.7760  140.1110 C   0  0  0  0  0  3  0  0  0  0  0  0
  186.6030  177.9310  145.1330 C   0  0  0  0  0  0  0  0  0  0  0  0
  186.6680  178.2670  142.7270 C   0  0  0  0  0  3  0  0  0  0  0  0
  190.3600  176.1460  142.5250 C   0  0  0  0  0  2  0  0  0  0  0  0
  184.5960  178.5120  146.3780 C   0  0  0  0  0  3  0  0  0  0  0  0
  187.9240  177.4360  145.0980 C   0  0  0  0  0  0  0  0  0  0  0  0
  185.9010  178.0210  146.3460 C   0  0  0  0  0  3  0  0  0  0  0  0
  190.7520  177.2960  137.7920 F   0  0  0  0  0  0  0  0  0  0  0  0
  188.9040  178.1630  139.0210 C   0  0  0  0  0  3  0  0  0  0  0  0
  188.6040  177.3480  143.8660 C   0  0  0  0  0  0  0  0  0  0  0  0
  183.9730  178.9180  145.1970 C   0  0  0  0  0  3  0  0  0  0  0  0
  185.9700  178.3490  143.9360 C   0  0  0  0  0  0  0  0  0  0  0  0
  183.9220  179.2660  142.7270 C   0  0  0  0  0  2  0  0  0  0  0  0
  182.7370  178.3590  142.3790 C   0  0  2  0  0  3  0  0  0  0  0  0
  180.6520  178.7210  141.3460 N   0  0  0  0  0  0  0  0  0  0  0  0
  182.8340  177.8880  141.0660 O   0  0  0  0  0  0  0  0  0  0  0  0
  180.7060  178.6060  143.7670 C   0  0  0  0  0  1  0  0  0  0  0  0
  181.4210  179.0770  142.5160 C   0  0  1  0  0  3  0  0  0  0  0  0
  180.5170  179.9260  140.5450 C   0  0  0  0  0  1  0  0  0  0  0  0
  181.5100  177.8070  140.6010 C   0  0  0  0  0  2  0  0  0  0  0  0
  1 19  1  0  0  0  0
  2  7  1  0  0  0  0
  4  7  2  0  0  0  0
  4 12  1  0  0  0  0
  5 11  2  0  0  0  0
  5 18  1  0  0  0  0
  6 17  1  0  0  0  0
  6  9  2  0  0  0  0
  7  5  1  0  0  0  0
  8 18  1  0  0  0  0
  9  4  1  0  0  0  0
 10 15  2  0  0  0  0
 11 20  1  0  0  0  0
 12  8  1  0  0  0  0
 14 10  1  0  0  0  0
 14  3  1  0  0  0  0
 15 13  1  0  0  0  0
 16  6  1  0  0  0  0
 17  2  2  0  0  0  0
 18 14  2  0  0  0  0
 19 13  2  0  0  0  0
 20  1  2  0  0  0  0
 20 10  1  0  0  0  0
 21  1  1  0  0  0  0
 22 26  1  0  0  0  0
 22 21  1  6  0  0  0
 23 26  1  0  0  0  0
 24 22  1  0  0  0  0
 26 25  1  1  0  0  0
 27 23  1  0  0  0  0
 28 24  1  0  0  0  0
 28 23  1  0  0  0  0
M  END
>  <MODEL>
3

>  <REMARK>
 VINA RESULT:     -10.9      3.326      6.960
  Name = 
  2 active torsions:
  status: ('A' for Active; 'I' for Inactive)
    1  A    between atoms: C_1  and  C_2
    2  A    between atoms: C_2  and  C_3
                            x       y       z     vdW  Elec       q    Type
                         _______ _______ _______ _____ _____    ______ ____

>  <TORSDO>
F 2

$$$$
=
 OpenBabel11052413273D

 28 32  0  0  1  0  0  0  0  0999 V2000
  187.0750  178.2620  140.8940 C   0  0  0  0  0  0  0  0  0  0  0  0
  190.4250  177.3400  144.7610 C   0  0  0  0  0  3  0  0  0  0  0  0
  184.3620  178.9480  145.0070 C   0  0  0  0  0  1  0  0  0  0  0  0
  188.9440  177.1510  146.6760 C   0  0  0  0  0  0  0  0  0  0  0  0
  187.9800  177.8580  144.4850 C   0  0  0  0  0  0  0  0  0  0  0  0
  191.3050  176.6640  146.9130 C   0  0  0  0  0  0  0  0  0  0  0  0
  189.1380  177.4410  145.3110 C   0  0  0  0  0  0  0  0  0  0  0  0
  186.7010  178.2490  146.6190 C   0  0  0  0  0  2  0  0  0  0  0  0
  190.0260  176.7530  147.4660 C   0  0  0  0  0  3  0  0  0  0  0  0
  185.7520  178.5890  142.9270 C   0  0  0  0  0  0  0  0  0  0  0  0
  188.0740  177.8890  143.0920 C   0  0  0  0  0  3  0  0  0  0  0  0
  187.5640  177.1630  147.2610 C   0  0  0  0  0  2  0  0  0  0  0  0
  184.7600  178.9720  140.7400 C   0  0  0  0  0  3  0  0  0  0  0  0
  185.6480  178.5700  144.3340 C   0  0  0  0  0  0  0  0  0  0  0  0
  184.6540  178.9520  142.1310 C   0  0  0  0  0  3  0  0  0  0  0  0
  192.3520  176.2850  147.6840 F   0  0  0  0  0  0  0  0  0  0  0  0
  191.5050  176.9550  145.5600 C   0  0  0  0  0  3  0  0  0  0  0  0
  186.7620  178.1940  145.1120 C   0  0  0  0  0  0  0  0  0  0  0  0
  185.9650  178.6280  140.1260 C   0  0  0  0  0  3  0  0  0  0  0  0
  186.9760  178.2450  142.3010 C   0  0  0  0  0  0  0  0  0  0  0  0
  188.3430  177.8740  140.1820 C   0  0  0  0  0  2  0  0  0  0  0  0
  188.1550  177.6930  138.6730 C   0  0  2  0  0  3  0  0  0  0  0  0
  189.6050  177.1390  136.9010 N   0  0  0  0  0  0  0  0  0  0  0  0
  187.9310  176.3500  138.3530 O   0  0  0  0  0  0  0  0  0  0  0  0
  189.0550  179.4790  137.2190 C   0  0  0  0  0  1  0  0  0  0  0  0
  189.3590  178.1560  137.8960 C   0  0  1  0  0  3  0  0  0  0  0  0
  190.8580  176.4940  137.2570 C   0  0  0  0  0  1  0  0  0  0  0  0
  188.5470  176.1570  137.1040 C   0  0  0  0  0  2  0  0  0  0  0  0
  1 20  1  0  0  0  0
  2  7  2  0  0  0  0
  2 17  1  0  0  0  0
  4 12  1  0  0  0  0
  4  9  2  0  0  0  0
  5 18  1  0  0  0  0
  5  7  1  0  0  0  0
  6  9  1  0  0  0  0
  6 16  1  0  0  0  0
  7  4  1  0  0  0  0
  8 12  1  0  0  0  0
 10 14  1  0  0  0  0
 11  5  2  0  0  0  0
 13 15  2  0  0  0  0
 14  3  1  0  0  0  0
 14 18  2  0  0  0  0
 15 10  1  0  0  0  0
 17  6  2  0  0  0  0
 18  8  1  0  0  0  0
 19 13  1  0  0  0  0
 19  1  2  0  0  0  0
 20 10  2  0  0  0  0
 20 11  1  0  0  0  0
 21  1  1  0  0  0  0
 22 21  1  1  0  0  0
 23 28  1  0  0  0  0
 23 27  1  0  0  0  0
 23 26  1  0  0  0  0
 24 22  1  0  0  0  0
 26 25  1  6  0  0  0
 26 22  1  0  0  0  0
 28 24  1  0  0  0  0
M  END
>  <MODEL>
4

>  <REMARK>
 VINA RESULT:     -10.8      2.768      5.349
  Name = 
  2 active torsions:
  status: ('A' for Active; 'I' for Inactive)
    1  A    between atoms: C_1  and  C_2
    2  A    between atoms: C_2  and  C_3
                            x       y       z     vdW  Elec       q    Type
                         _______ _______ _______ _____ _____    ______ ____

>  <TORSDO>
F 2

$$$$
=
 OpenBabel11052413273D

 28 32  0  0  1  0  0  0  0  0999 V2000
  188.8240  176.9150  143.6140 C   0  0  0  0  0  0  0  0  0  0  0  0
  184.2020  177.5840  141.3300 C   0  0  0  0  0  3  0  0  0  0  0  0
  185.9790  178.8190  147.2230 C   0  0  0  0  0  1  0  0  0  0  0  0
  183.0460  178.9920  142.9350 C   0  0  0  0  0  0  0  0  0  0  0  0
  185.2820  178.0700  143.5480 C   0  0  0  0  0  0  0  0  0  0  0  0
  182.0270  178.5040  140.7930 C   0  0  0  0  0  0  0  0  0  0  0  0
  184.1670  178.2150  142.5830 C   0  0  0  0  0  0  0  0  0  0  0  0
  183.7520  178.9740  145.3320 C   0  0  0  0  0  2  0  0  0  0  0  0
  181.9880  179.1430  142.0350 C   0  0  0  0  0  3  0  0  0  0  0  0
  187.4130  177.8590  145.3770 C   0  0  0  0  0  0  0  0  0  0  0  0
  186.5110  177.5430  143.1420 C   0  0  0  0  0  3  0  0  0  0  0  0
  183.0290  179.7490  144.2300 C   0  0  0  0  0  2  0  0  0  0  0  0
  189.7110  177.2230  145.8510 C   0  0  0  0  0  3  0  0  0  0  0  0
  186.1730  178.3840  145.8010 C   0  0  0  0  0  0  0  0  0  0  0  0
  188.4880  177.7440  146.2720 C   0  0  0  0  0  3  0  0  0  0  0  0
  180.9960  178.6460  139.9260 F   0  0  0  0  0  0  0  0  0  0  0  0
  183.1340  177.7280  140.4390 C   0  0  0  0  0  3  0  0  0  0  0  0
  185.1110  178.4970  144.8810 C   0  0  0  0  0  0  0  0  0  0  0  0
  189.8770  176.8120  144.5280 C   0  0  0  0  0  3  0  0  0  0  0  0
  187.5820  177.4360  144.0350 C   0  0  0  0  0  0  0  0  0  0  0  0
  189.0620  176.4820  142.1920 C   0  0  0  0  0  2  0  0  0  0  0  0
  189.5830  177.6120  141.2980 C   0  0  2  0  0  3  0  0  0  0  0  0
  190.2510  177.7330  139.0430 N   0  0  0  0  0  0  0  0  0  0  0  0
  188.5390  178.2080  140.5840 O   0  0  0  0  0  0  0  0  0  0  0  0
  191.9880  177.5550  140.7250 C   0  0  0  0  0  1  0  0  0  0  0  0
  190.5990  177.1180  140.3020 C   0  0  1  0  0  3  0  0  0  0  0  0
  189.7920  176.6700  138.1650 C   0  0  0  0  0  1  0  0  0  0  0  0
  189.0940  178.5670  139.3430 C   0  0  0  0  0  2  0  0  0  0  0  0
  1 20  2  0  0  0  0
  1 19  1  0  0  0  0
  2  7  1  0  0  0  0
  4 12  1  0  0  0  0
  5 18  1  0  0  0  0
  6  9  2  0  0  0  0
  7  4  2  0  0  0  0
  7  5  1  0  0  0  0
  9  4  1  0  0  0  0
 10 14  1  0  0  0  0
 10 15  2  0  0  0  0
 11  5  2  0  0  0  0
 11 20  1  0  0  0  0
 12  8  1  0  0  0  0
 13 15  1  0  0  0  0
 14  3  1  0  0  0  0
 16  6  1  0  0  0  0
 17  6  1  0  0  0  0
 17  2  2  0  0  0  0
 18  8  1  0  0  0  0
 18 14  2  0  0  0  0
 19 13  2  0  0  0  0
 20 10  1  0  0  0  0
 21  1  1  0  0  0  0
 22 21  1  6  0  0  0
 23 28  1  0  0  0  0
 23 26  1  0  0  0  0
 24 22  1  0  0  0  0
 26 25  1  1  0  0  0
 26 22  1  0  0  0  0
 27 23  1  0  0  0  0
 28 24  1  0  0  0  0
M  END
>  <MODEL>
5

>  <REMARK>
 VINA RESULT:     -10.8      1.202      2.219
  Name = 
  2 active torsions:
  status: ('A' for Active; 'I' for Inactive)
    1  A    between atoms: C_1  and  C_2
    2  A    between atoms: C_2  and  C_3
                            x       y       z     vdW  Elec       q    Type
                         _______ _______ _______ _____ _____    ______ ____

>  <TORSDO>
F 2

$$$$
=
 OpenBabel11052413273D

 28 32  0  0  1  0  0  0  0  0999 V2000
  183.8560  178.5420  142.1390 C   0  0  0  0  0  0  0  0  0  0  0  0
  188.9950  177.7590  142.0850 C   0  0  0  0  0  3  0  0  0  0  0  0
  185.1050  178.5080  146.9540 C   0  0  0  0  0  1  0  0  0  0  0  0
  189.4460  177.2120  144.4070 C   0  0  0  0  0  0  0  0  0  0  0  0
  187.1510  177.9630  143.7810 C   0  0  0  0  0  0  0  0  0  0  0  0
  191.2060  177.0290  142.7520 C   0  0  0  0  0  0  0  0  0  0  0  0
  188.5480  177.6390  143.4090 C   0  0  0  0  0  0  0  0  0  0  0  0
  187.8830  177.9980  146.1900 C   0  0  0  0  0  2  0  0  0  0  0  0
  190.7660  176.8980  144.0720 C   0  0  0  0  0  3  0  0  0  0  0  0
  184.4860  178.5160  144.5050 C   0  0  0  0  0  0  0  0  0  0  0  0
  186.1710  178.1240  142.7970 C   0  0  0  0  0  3  0  0  0  0  0  0
  188.9660  176.9880  145.8090 C   0  0  0  0  0  2  0  0  0  0  0  0
  182.1840  178.9440  143.8500 C   0  0  0  0  0  3  0  0  0  0  0  0
  185.4680  178.3650  145.5060 C   0  0  0  0  0  0  0  0  0  0  0  0
  183.1520  178.7930  144.8430 C   0  0  0  0  0  3  0  0  0  0  0  0
  192.4880  176.7310  142.4320 F   0  0  0  0  0  0  0  0  0  0  0  0
  190.3210  177.4570  141.7580 C   0  0  0  0  0  3  0  0  0  0  0  0
  186.8000  178.0780  145.1420 C   0  0  0  0  0  0  0  0  0  0  0  0
  182.5350  178.8180  142.5060 C   0  0  0  0  0  3  0  0  0  0  0  0
  184.8420  178.3940  143.1380 C   0  0  0  0  0  0  0  0  0  0  0  0
  184.1790  178.3900  140.6770 C   0  0  0  0  0  2  0  0  0  0  0  0
  182.9840  177.9130  139.8440 C   0  0  2  0  0  3  0  0  0  0  0  0
  182.7050  177.3150  137.5830 N   0  0  0  0  0  0  0  0  0  0  0  0
  182.9400  176.5170  139.7830 O   0  0  0  0  0  0  0  0  0  0  0  0
  182.0200  179.5430  138.2520 C   0  0  0  0  0  1  0  0  0  0  0  0
  183.0400  178.4350  138.4320 C   0  0  1  0  0  3  0  0  0  0  0  0
  183.9080  176.9720  136.8430 C   0  0  0  0  0  1  0  0  0  0  0  0
  182.4430  176.2160  138.5030 C   0  0  0  0  0  2  0  0  0  0  0  0
  1 19  2  0  0  0  0
  1 20  1  0  0  0  0
  2  7  1  0  0  0  0
  4 12  1  0  0  0  0
  5 18  1  0  0  0  0
  6  9  2  0  0  0  0
  7  5  1  0  0  0  0
  7  4  2  0  0  0  0
  9  4  1  0  0  0  0
 10 15  1  0  0  0  0
 10 14  1  0  0  0  0
 11 20  1  0  0  0  0
 11  5  2  0  0  0  0
 12  8  1  0  0  0  0
 13 15  2  0  0  0  0
 14  3  1  0  0  0  0
 16  6  1  0  0  0  0
 17  2  2  0  0  0  0
 17  6  1  0  0  0  0
 18 14  2  0  0  0  0
 18  8  1  0  0  0  0
 19 13  1  0  0  0  0
 20 10  2  0  0  0  0
 21  1  1  0  0  0  0
 22 21  1  1  0  0  0
 23 26  1  0  0  0  0
 23 28  1  0  0  0  0
 24 22  1  0  0  0  0
 26 25  1  1  0  0  0
 26 22  1  0  0  0  0
 27 23  1  0  0  0  0
 28 24  1  0  0  0  0
M  END
>  <MODEL>
6

>  <REMARK>
 VINA RESULT:     -10.5      3.547      6.619
  Name = 
  2 active torsions:
  status: ('A' for Active; 'I' for Inactive)
    1  A    between atoms: C_1  and  C_2
    2  A    between atoms: C_2  and  C_3
                            x       y       z     vdW  Elec       q    Type
                         _______ _______ _______ _____ _____    ______ ____

>  <TORSDO>
F 2

$$$$
=
 OpenBabel11052413273D

 28 32  0  0  1  0  0  0  0  0999 V2000
  189.5400  177.5820  141.1950 C   0  0  0  0  0  0  0  0  0  0  0  0
  184.5320  178.3500  142.3610 C   0  0  0  0  0  3  0  0  0  0  0  0
  189.3810  177.0870  146.1430 C   0  0  0  0  0  1  0  0  0  0  0  0
  184.6150  178.6400  144.7710 C   0  0  0  0  0  0  0  0  0  0  0  0
  186.7000  177.9680  143.5760 C   0  0  0  0  0  0  0  0  0  0  0  0
  182.5380  178.9960  143.5750 C   0  0  0  0  0  0  0  0  0  0  0  0
  185.2630  178.3270  143.5590 C   0  0  0  0  0  0  0  0  0  0  0  0
  186.5150  177.6690  146.0700 C   0  0  0  0  0  2  0  0  0  0  0  0
  183.2600  178.9840  144.7710 C   0  0  0  0  0  3  0  0  0  0  0  0
  189.4460  177.3480  143.6300 C   0  0  0  0  0  0  0  0  0  0  0  0
  187.4360  177.9190  142.3890 C   0  0  0  0  0  3  0  0  0  0  0  0
  185.3970  178.7110  146.0480 C   0  0  0  0  0  2  0  0  0  0  0  0
  191.5390  177.0010  142.4410 C   0  0  0  0  0  3  0  0  0  0  0  0
  188.7120  177.3870  144.8340 C   0  0  0  0  0  0  0  0  0  0  0  0
  190.8160  177.0400  143.6330 C   0  0  0  0  0  3  0  0  0  0  0  0
  181.2240  179.3230  143.5800 F   0  0  0  0  0  0  0  0  0  0  0  0
  183.1740  178.6820  142.3700 C   0  0  0  0  0  3  0  0  0  0  0  0
  187.3390  177.7070  144.8060 C   0  0  0  0  0  0  0  0  0  0  0  0
  190.9030  177.2720  141.2290 C   0  0  0  0  0  3  0  0  0  0  0  0
  188.8020  177.6180  142.3970 C   0  0  0  0  0  0  0  0  0  0  0  0
  188.9070  177.8910  139.8650 C   0  0  0  0  0  2  0  0  0  0  0  0
  188.9390  176.7070  138.8940 C   0  0  2  0  0  3  0  0  0  0  0  0
  189.0150  176.5210  136.5470 N   0  0  0  0  0  0  0  0  0  0  0  0
  190.2520  176.3800  138.5430 O   0  0  0  0  0  0  0  0  0  0  0  0
  186.8620  176.2520  137.6300 C   0  0  0  0  0  1  0  0  0  0  0  0
  188.1820  176.9990  137.6260 C   0  0  1  0  0  3  0  0  0  0  0  0
  189.4680  177.6890  135.8120 C   0  0  0  0  0  1  0  0  0  0  0  0
  190.1840  175.9520  137.2060 C   0  0  0  0  0  2  0  0  0  0  0  0
  1 19  2  0  0  0  0
  1 20  1  0  0  0  0
  2 17  2  0  0  0  0
  2  7  1  0  0  0  0
  4 12  1  0  0  0  0
  5 18  1  0  0  0  0
  6 16  1  0  0  0  0
  6  9  2  0  0  0  0
  7  5  1  0  0  0  0
  7  4  2  0  0  0  0
  9  4  1  0  0  0  0
 10 15  1  0  0  0  0
 10 14  1  0  0  0  0
 11 20  1  0  0  0  0
 11  5  2  0  0  0  0
 12  8  1  0  0  0  0
 13 15  2  0  0  0  0
 14  3  1  0  0  0  0
 17  6  1  0  0  0  0
 18 14  2  0  0  0  0
 18  8  1  0  0  0  0
 19 13  1  0  0  0  0
 20 10  2  0  0  0  0
 21  1  1  0  0  0  0
 22 21  1  1  0  0  0
 23 28  1  0  0  0  0
 23 26  1  0  0  0  0
 24 22  1  0  0  0  0
 26 25  1  1  0  0  0
 26 22  1  0  0  0  0
 27 23  1  0  0  0  0
 28 24  1  0  0  0  0
M  END
>  <MODEL>
7

>  <REMARK>
 VINA RESULT:     -10.4      1.467      2.458
  Name = 
  2 active torsions:
  status: ('A' for Active; 'I' for Inactive)
    1  A    between atoms: C_1  and  C_2
    2  A    between atoms: C_2  and  C_3
                            x       y       z     vdW  Elec       q    Type
                         _______ _______ _______ _____ _____    ______ ____

>  <TORSDO>
F 2

$$$$
=
 OpenBabel11052413273D

 28 32  0  0  1  0  0  0  0  0999 V2000
  187.1280  178.3330  140.1760 C   0  0  0  0  0  0  0  0  0  0  0  0
  187.1980  177.6190  145.3250 C   0  0  0  0  0  3  0  0  0  0  0  0
  191.8630  177.1570  141.1500 C   0  0  0  0  0  1  0  0  0  0  0  0
  189.5800  177.5950  145.7980 C   0  0  0  0  0  0  0  0  0  0  0  0
  188.8350  177.6510  143.4170 C   0  0  0  0  0  0  0  0  0  0  0  0
  187.9800  177.5590  147.6170 C   0  0  0  0  0  0  0  0  0  0  0  0
  188.5240  177.6250  144.8650 C   0  0  0  0  0  0  0  0  0  0  0  0
  191.1940  176.9830  143.9930 C   0  0  0  0  0  2  0  0  0  0  0  0
  189.3020  177.5750  147.1680 C   0  0  0  0  0  3  0  0  0  0  0  0
  189.4560  177.7600  140.6730 C   0  0  0  0  0  0  0  0  0  0  0  0
  187.8430  177.9520  142.4810 C   0  0  0  0  0  3  0  0  0  0  0  0
  191.0010  177.6940  145.3320 C   0  0  0  0  0  2  0  0  0  0  0  0
  188.7430  178.1270  138.3770 C   0  0  0  0  0  3  0  0  0  0  0  0
  190.4640  177.4460  141.6080 C   0  0  0  0  0  0  0  0  0  0  0  0
  189.7420  177.8180  139.2990 C   0  0  0  0  0  3  0  0  0  0  0  0
  187.7150  177.5320  148.9450 F   0  0  0  0  0  0  0  0  0  0  0  0
  186.9280  177.5840  146.6960 C   0  0  0  0  0  3  0  0  0  0  0  0
  190.1530  177.4010  142.9820 C   0  0  0  0  0  0  0  0  0  0  0  0
  187.4430  178.3840  138.8150 C   0  0  0  0  0  3  0  0  0  0  0  0
  188.1340  178.0160  141.1140 C   0  0  0  0  0  0  0  0  0  0  0  0
  185.7180  178.6430  140.5990 C   0  0  0  0  0  2  0  0  0  0  0  0
  184.7630  178.8340  139.4150 C   0  0  2  0  0  3  0  0  0  0  0  0
  182.4180  178.8610  139.1960 N   0  0  0  0  0  0  0  0  0  0  0  0
  184.3690  180.1710  139.2980 O   0  0  0  0  0  0  0  0  0  0  0  0
  183.5820  176.8180  138.6050 C   0  0  0  0  0  1  0  0  0  0  0  0
  183.5190  177.9980  139.5560 C   0  0  1  0  0  3  0  0  0  0  0  0
  181.6500  179.0930  140.4080 C   0  0  0  0  0  1  0  0  0  0  0  0
  183.0420  180.1290  138.8380 C   0  0  0  0  0  2  0  0  0  0  0  0
  1 21  1  0  0  0  0
  1 20  1  0  0  0  0
  2 17  1  0  0  0  0
  3 14  1  0  0  0  0
  4  9  2  0  0  0  0
  5  7  1  0  0  0  0
  6 16  1  0  0  0  0
  7  2  2  0  0  0  0
  7  4  1  0  0  0  0
  8 12  1  0  0  0  0
  9  6  1  0  0  0  0
 10 20  2  0  0  0  0
 10 14  1  0  0  0  0
 11  5  2  0  0  0  0
 12  4  1  0  0  0  0
 13 19  1  0  0  0  0
 13 15  2  0  0  0  0
 14 18  2  0  0  0  0
 15 10  1  0  0  0  0
 17  6  2  0  0  0  0
 18  5  1  0  0  0  0
 18  8  1  0  0  0  0
 19  1  2  0  0  0  0
 20 11  1  0  0  0  0
 22 26  1  0  0  0  0
 22 21  1  1  0  0  0
 23 26  1  0  0  0  0
 23 27  1  0  0  0  0
 24 22  1  0  0  0  0
 26 25  1  6  0  0  0
 28 23  1  0  0  0  0
 28 24  1  0  0  0  0
M  END
>  <MODEL>
8

>  <REMARK>
 VINA RESULT:     -10.1      3.129      6.110
  Name = 
  2 active torsions:
  status: ('A' for Active; 'I' for Inactive)
    1  A    between atoms: C_1  and  C_2
    2  A    between atoms: C_2  and  C_3
                            x       y       z     vdW  Elec       q    Type
                         _______ _______ _______ _____ _____    ______ ____

>  <TORSDO>
F 2

$$$$
=
 OpenBabel11052413273D

 28 32  0  0  1  0  0  0  0  0999 V2000
  183.5410  178.7430  141.4580 C   0  0  0  0  0  0  0  0  0  0  0  0
  186.3670  177.5860  145.6660 C   0  0  0  0  0  3  0  0  0  0  0  0
  188.1670  178.2640  139.6910 C   0  0  0  0  0  1  0  0  0  0  0  0
  188.6330  177.9040  144.8550 C   0  0  0  0  0  0  0  0  0  0  0  0
  186.7490  178.0550  143.2250 C   0  0  0  0  0  0  0  0  0  0  0  0
  188.2360  177.4460  147.2000 C   0  0  0  0  0  0  0  0  0  0  0  0
  187.2470  177.8470  144.6050 C   0  0  0  0  0  0  0  0  0  0  0  0
  189.1080  177.7280  142.4080 C   0  0  0  0  0  2  0  0  0  0  0  0
  189.1180  177.7160  146.1510 C   0  0  0  0  0  3  0  0  0  0  0  0
  185.8240  178.5100  140.6050 C   0  0  0  0  0  0  0  0  0  0  0  0
  185.3900  178.2750  142.9850 C   0  0  0  0  0  3  0  0  0  0  0  0
  189.5830  178.2740  143.7550 C   0  0  0  0  0  2  0  0  0  0  0  0
  183.9830  178.9640  139.0830 C   0  0  0  0  0  3  0  0  0  0  0  0
  187.1970  178.2800  140.8350 C   0  0  0  0  0  0  0  0  0  0  0  0
  185.3410  178.7380  139.3070 C   0  0  0  0  0  3  0  0  0  0  0  0
  188.7110  177.2560  148.4540 F   0  0  0  0  0  0  0  0  0  0  0  0
  186.8600  177.3840  146.9580 C   0  0  0  0  0  3  0  0  0  0  0  0
  187.6590  178.0620  142.1490 C   0  0  0  0  0  0  0  0  0  0  0  0
  183.0890  178.9670  140.1540 C   0  0  0  0  0  3  0  0  0  0  0  0
  184.9130  178.5080  141.6910 C   0  0  0  0  0  0  0  0  0  0  0  0
  182.5410  178.7810  142.5810 C   0  0  0  0  0  2  0  0  0  0  0  0
  181.1230  179.1230  142.1120 C   0  0  2  0  0  3  0  0  0  0  0  0
  178.9970  179.0030  143.1190 N   0  0  0  0  0  0  0  0  0  0  0  0
  180.7670  180.4200  142.4940 O   0  0  0  0  0  0  0  0  0  0  0  0
  179.6310  177.2160  141.6070 C   0  0  0  0  0  1  0  0  0  0  0  0
  180.0990  178.1780  142.6830 C   0  0  1  0  0  3  0  0  0  0  0  0
  178.9620  178.9300  144.5700 C   0  0  0  0  0  1  0  0  0  0  0  0
  179.3900  180.3620  142.7700 C   0  0  0  0  0  2  0  0  0  0  0  0
  1 20  1  0  0  0  0
  1 21  1  0  0  0  0
  2 17  1  0  0  0  0
  3 14  1  0  0  0  0
  4  9  2  0  0  0  0
  5  7  1  0  0  0  0
  6 16  1  0  0  0  0
  7  4  1  0  0  0  0
  7  2  2  0  0  0  0
  8 12  1  0  0  0  0
  9  6  1  0  0  0  0
 10 14  2  0  0  0  0
 10 20  1  0  0  0  0
 11  5  1  0  0  0  0
 12  4  1  0  0  0  0
 13 15  2  0  0  0  0
 13 19  1  0  0  0  0
 14 18  1  0  0  0  0
 15 10  1  0  0  0  0
 17  6  2  0  0  0  0
 18  8  1  0  0  0  0
 18  5  2  0  0  0  0
 19  1  2  0  0  0  0
 20 11  2  0  0  0  0
 22 24  1  0  0  0  0
 22 21  1  1  0  0  0
 22 26  1  0  0  0  0
 23 27  1  0  0  0  0
 24 28  1  0  0  0  0
 26 25  1  6  0  0  0
 26 23  1  0  0  0  0
 28 23  1  0  0  0  0
M  END
>  <MODEL>
9

>  <REMARK>
 VINA RESULT:      -9.6      4.006      7.936
  Name = 
  2 active torsions:
  status: ('A' for Active; 'I' for Inactive)
    1  A    between atoms: C_1  and  C_2
    2  A    between atoms: C_2  and  C_3
                            x       y       z     vdW  Elec       q    Type
                         _______ _______ _______ _____ _____    ______ ____

>  <TORSDO>
F 2

$$$$
