=
 OpenBabel11052415413D

 34 37  0  0  1  0  0  0  0  0999 V2000
  190.9150  177.0970  138.1780 C   0  0  2  0  0  3  0  0  0  0  0  0
  191.7920  173.7720  137.0230 C   0  0  0  0  0  2  0  0  0  0  0  0
  189.7890  175.0670  136.4020 C   0  0  0  0  0  2  0  0  0  0  0  0
  188.9760  178.5810  137.6050 C   0  0  0  0  0  3  0  0  0  0  0  0
  187.2870  177.8890  136.0120 C   0  0  0  0  0  3  0  0  0  0  0  0
  187.8010  178.8450  136.8940 C   0  0  0  0  0  3  0  0  0  0  0  0
  189.1310  176.4080  136.5350 C   0  0  0  0  0  0  0  0  0  0  0  0
  189.6430  177.3640  137.4300 C   0  0  0  0  0  0  0  0  0  0  0  0
  187.9470  176.6690  135.8380 C   0  0  0  0  0  3  0  0  0  0  0  0
  193.2750  173.4910  136.9570 C   0  0  0  0  0  3  0  0  0  0  0  0
  194.2960  174.3620  136.8010 C   0  0  0  0  0  0  0  0  0  0  0  0
  194.1210  175.8200  136.4810 C   0  0  0  0  0  2  0  0  0  0  0  0
  191.3230  175.1180  136.4820 C   0  0  1  0  0  3  0  0  0  0  0  0
  193.1500  176.5280  137.3750 C   0  0  0  0  0  3  0  0  0  0  0  0
  191.8470  176.2310  137.3740 C   0  0  0  0  0  0  0  0  0  0  0  0
  195.7090  173.8510  136.8050 C   0  0  0  0  0  3  0  0  0  0  0  0
  196.6350  174.7870  136.0490 C   0  0  0  0  0  1  0  0  0  0  0  0
  196.2220  173.6370  138.2200 C   0  0  0  0  0  1  0  0  0  0  0  0
  190.6730  176.5580  139.5880 C   0  0  0  0  0  2  0  0  0  0  0  0
  191.2430  177.4420  140.6030 N   0  0  0  0  0  0  0  0  0  0  0  0
  191.2320  176.6750  141.8580 C   0  0  0  0  0  2  0  0  0  0  0  0
  190.3010  177.7900  141.7050 C   0  0  2  0  0  3  0  0  0  0  0  0
  188.8580  177.2940  141.5160 C   0  0  2  0  0  3  0  0  0  0  0  0
  187.9540  178.4800  141.2440 C   0  0  0  0  0  1  0  0  0  0  0  0
  188.5110  177.1090  143.9240 C   0  0  0  0  0  0  0  0  0  0  0  0
  188.3670  176.5870  142.7360 C   0  0  0  0  0  3  0  0  0  0  0  0
  188.6540  177.6400  145.1090 C   0  0  0  0  0  3  0  0  0  0  0  0
  187.5310  177.8100  146.0410 C   0  0  0  0  0  0  0  0  0  0  0  0
  186.3920  178.2980  145.5300 C   0  0  0  0  0  3  0  0  0  0  0  0
  187.7100  177.4580  147.5020 C   0  0  0  0  0  3  0  0  0  0  0  0
  188.8240  176.4490  147.7230 C   0  0  0  0  0  1  0  0  0  0  0  0
  187.9010  178.6860  148.3730 C   0  0  0  0  0  1  0  0  0  0  0  0
  183.9860  178.8190  145.3680 C   0  0  0  0  0  1  0  0  0  0  0  0
  185.1390  178.5340  146.3100 C   0  0  0  0  0  2  0  0  0  0  0  0
  1 19  1  1  0  0  0
  3  7  1  0  0  0  0
  5  6  1  0  0  0  0
  6  4  2  0  0  0  0
  7  8  2  0  0  0  0
  8  4  1  0  0  0  0
  8  1  1  0  0  0  0
  9  5  2  0  0  0  0
  9  7  1  0  0  0  0
 10  2  1  0  0  0  0
 11 16  1  0  0  0  0
 11 10  2  0  0  0  0
 12 11  1  0  0  0  0
 12 14  1  0  0  0  0
 13  3  1  1  0  0  0
 13  2  1  0  0  0  0
 13 15  1  0  0  0  0
 15 14  2  0  0  0  0
 15  1  1  0  0  0  0
 16 18  1  0  0  0  0
 17 16  1  0  0  0  0
 19 20  1  0  0  0  0
 20 22  1  0  0  0  0
 20 21  1  0  0  0  0
 22 23  1  6  0  0  0
 22 21  1  0  0  0  0
 23 24  1  1  0  0  0
 23 26  1  0  0  0  0
 25 27  2  0  0  0  0
 26 25  2  0  0  0  0
 27 28  1  0  0  0  0
 28 30  1  0  0  0  0
 29 28  2  0  0  0  0
 29 34  1  0  0  0  0
 30 31  1  0  0  0  0
 30 32  1  0  0  0  0
 33 34  1  0  0  0  0
M  END
>  <MODEL>
1

>  <REMARK>
 VINA RESULT:      -8.5      0.000      0.000
  Name = 
  8 active torsions:
  status: ('A' for Active; 'I' for Inactive)
    1  A    between atoms: C_1  and  C_9
    2  A    between atoms: C_3  and  C_25
    3  A    between atoms: C_6  and  C_28
    4  A    between atoms: C_6  and  C_30
    5  A    between atoms: C_7  and  C_11
    6  A    between atoms: C_7  and  C_29
    7  A    between atoms: N_8  and  C_9
    8  A    between atoms: C_14  and  C_16
                            x       y       z     vdW  Elec       q    Type
                         _______ _______ _______ _____ _____    ______ ____

>  <TORSDO>
F 8

$$$$
=
 OpenBabel11052415413D

 34 37  0  0  1  0  0  0  0  0999 V2000
  183.5920  179.1350  138.8370 C   0  0  2  0  0  3  0  0  0  0  0  0
  182.6190  175.6440  138.6730 C   0  0  0  0  0  2  0  0  0  0  0  0
  181.1190  177.5980  138.5820 C   0  0  0  0  0  2  0  0  0  0  0  0
  182.2260  181.2340  138.6910 C   0  0  0  0  0  3  0  0  0  0  0  0
  179.8280  181.1570  138.3610 C   0  0  0  0  0  3  0  0  0  0  0  0
  181.0050  181.8930  138.5270 C   0  0  0  0  0  3  0  0  0  0  0  0
  181.0930  179.0950  138.5070 C   0  0  0  0  0  0  0  0  0  0  0  0
  182.2750  179.8360  138.6840 C   0  0  0  0  0  0  0  0  0  0  0  0
  179.8700  179.7590  138.3590 C   0  0  0  0  0  3  0  0  0  0  0  0
  183.6510  174.7230  138.0670 C   0  0  0  0  0  3  0  0  0  0  0  0
  184.6300  175.0130  137.1820 C   0  0  0  0  0  0  0  0  0  0  0  0
  184.7680  176.3340  136.4790 C   0  0  0  0  0  2  0  0  0  0  0  0
  182.3730  176.9680  137.9570 C   0  0  1  0  0  3  0  0  0  0  0  0
  184.7180  177.5200  137.3930 C   0  0  0  0  0  3  0  0  0  0  0  0
  183.6120  177.8410  138.0690 C   0  0  0  0  0  0  0  0  0  0  0  0
  185.5760  173.9300  136.7450 C   0  0  0  0  0  3  0  0  0  0  0  0
  187.0210  174.3710  136.8870 C   0  0  0  0  0  1  0  0  0  0  0  0
  185.3430  172.6400  137.5140 C   0  0  0  0  0  1  0  0  0  0  0  0
  184.0070  178.9650  140.2980 C   0  0  0  0  0  2  0  0  0  0  0  0
  185.2600  179.6630  140.5830 N   0  0  0  0  0  0  0  0  0  0  0  0
  186.2830  178.6160  140.7190 C   0  0  0  0  0  2  0  0  0  0  0  0
  185.8490  179.3370  141.9130 C   0  0  2  0  0  3  0  0  0  0  0  0
  184.9780  178.4500  142.8180 C   0  0  2  0  0  3  0  0  0  0  0  0
  184.2700  179.3190  143.8380 C   0  0  0  0  0  1  0  0  0  0  0  0
  187.1040  177.5520  143.6060 C   0  0  0  0  0  0  0  0  0  0  0  0
  185.8060  177.4390  143.5410 C   0  0  0  0  0  3  0  0  0  0  0  0
  188.4030  177.6720  143.6710 C   0  0  0  0  0  3  0  0  0  0  0  0
  189.1400  177.6330  144.9410 C   0  0  0  0  0  0  0  0  0  0  0  0
  188.4150  177.4470  146.0530 C   0  0  0  0  0  3  0  0  0  0  0  0
  190.6410  177.8200  144.9440 C   0  0  0  0  0  3  0  0  0  0  0  0
  191.3840  176.5540  144.5510 C   0  0  0  0  0  1  0  0  0  0  0  0
  191.0780  178.9990  144.0940 C   0  0  0  0  0  1  0  0  0  0  0  0
  188.0690  178.0940  148.4090 C   0  0  0  0  0  1  0  0  0  0  0  0
  188.9760  177.3670  147.4360 C   0  0  0  0  0  2  0  0  0  0  0  0
  1 19  1  1  0  0  0
  5  6  1  0  0  0  0
  6  4  2  0  0  0  0
  7  3  1  0  0  0  0
  7  8  2  0  0  0  0
  8  4  1  0  0  0  0
  8  1  1  0  0  0  0
  9  5  2  0  0  0  0
  9  7  1  0  0  0  0
 10  2  1  0  0  0  0
 11 10  2  0  0  0  0
 12 11  1  0  0  0  0
 12 14  1  0  0  0  0
 13 15  1  0  0  0  0
 13  3  1  1  0  0  0
 13  2  1  0  0  0  0
 14 15  2  0  0  0  0
 15  1  1  0  0  0  0
 16 17  1  0  0  0  0
 16 11  1  0  0  0  0
 16 18  1  0  0  0  0
 19 20  1  0  0  0  0
 20 21  1  0  0  0  0
 20 22  1  0  0  0  0
 21 22  1  0  0  0  0
 22 23  1  1  0  0  0
 23 26  1  0  0  0  0
 23 24  1  1  0  0  0
 25 27  2  0  0  0  0
 26 25  2  0  0  0  0
 27 28  1  0  0  0  0
 28 30  1  0  0  0  0
 28 29  2  0  0  0  0
 29 34  1  0  0  0  0
 31 30  1  0  0  0  0
 32 30  1  0  0  0  0
 34 33  1  0  0  0  0
M  END
>  <MODEL>
2

>  <REMARK>
 VINA RESULT:      -8.1      4.564      7.209
  Name = 
  8 active torsions:
  status: ('A' for Active; 'I' for Inactive)
    1  A    between atoms: C_1  and  C_9
    2  A    between atoms: C_3  and  C_25
    3  A    between atoms: C_6  and  C_28
    4  A    between atoms: C_6  and  C_30
    5  A    between atoms: C_7  and  C_11
    6  A    between atoms: C_7  and  C_29
    7  A    between atoms: N_8  and  C_9
    8  A    between atoms: C_14  and  C_16
                            x       y       z     vdW  Elec       q    Type
                         _______ _______ _______ _____ _____    ______ ____

>  <TORSDO>
F 8

$$$$
=
 OpenBabel11052415413D

 34 37  0  0  1  0  0  0  0  0999 V2000
  184.7090  178.8670  138.6560 C   0  0  2  0  0  3  0  0  0  0  0  0
  185.2860  175.4570  137.5630 C   0  0  0  0  0  2  0  0  0  0  0  0
  183.1250  176.6420  137.6160 C   0  0  0  0  0  2  0  0  0  0  0  0
  182.6150  180.2460  138.7130 C   0  0  0  0  0  3  0  0  0  0  0  0
  180.5010  179.3600  137.9300 C   0  0  0  0  0  3  0  0  0  0  0  0
  181.2480  180.4120  138.4690 C   0  0  0  0  0  3  0  0  0  0  0  0
  182.4890  177.9760  137.8620 C   0  0  0  0  0  0  0  0  0  0  0  0
  183.2380  179.0310  138.4130 C   0  0  0  0  0  0  0  0  0  0  0  0
  181.1180  178.1410  137.6340 C   0  0  0  0  0  3  0  0  0  0  0  0
  186.6550  175.1980  136.9780 C   0  0  0  0  0  3  0  0  0  0  0  0
  187.4960  176.0670  136.3760 C   0  0  0  0  0  0  0  0  0  0  0  0
  187.1330  177.4800  136.0130 C   0  0  0  0  0  2  0  0  0  0  0  0
  184.5760  176.7300  137.1170 C   0  0  1  0  0  3  0  0  0  0  0  0
  186.5210  178.2600  137.1360 C   0  0  0  0  0  3  0  0  0  0  0  0
  185.3280  177.9400  137.6450 C   0  0  0  0  0  0  0  0  0  0  0  0
  188.8380  175.5870  135.9010 C   0  0  0  0  0  3  0  0  0  0  0  0
  189.5910  176.6860  135.1730 C   0  0  0  0  0  1  0  0  0  0  0  0
  189.6780  175.0490  137.0480 C   0  0  0  0  0  1  0  0  0  0  0  0
  185.0320  178.4740  140.0980 C   0  0  0  0  0  2  0  0  0  0  0  0
  185.8690  179.4800  140.7510 N   0  0  0  0  0  0  0  0  0  0  0  0
  186.9680  178.7390  141.3870 C   0  0  0  0  0  2  0  0  0  0  0  0
  185.9420  179.3410  142.2330 C   0  0  2  0  0  3  0  0  0  0  0  0
  185.0170  178.2730  142.8390 C   0  0  2  0  0  3  0  0  0  0  0  0
  183.6640  178.8910  143.1300 C   0  0  0  0  0  1  0  0  0  0  0  0
  186.7870  177.2350  144.1580 C   0  0  0  0  0  0  0  0  0  0  0  0
  185.5800  177.7290  144.1110 C   0  0  0  0  0  3  0  0  0  0  0  0
  187.9970  176.7460  144.2000 C   0  0  0  0  0  3  0  0  0  0  0  0
  188.9980  177.1900  145.1800 C   0  0  0  0  0  0  0  0  0  0  0  0
  188.6070  177.2370  146.4610 C   0  0  0  0  0  3  0  0  0  0  0  0
  190.3810  177.5850  144.7120 C   0  0  0  0  0  3  0  0  0  0  0  0
  191.2660  176.3810  144.4370 C   0  0  0  0  0  1  0  0  0  0  0  0
  190.3430  178.5220  143.5190 C   0  0  0  0  0  1  0  0  0  0  0  0
  188.6380  178.3050  148.6850 C   0  0  0  0  0  1  0  0  0  0  0  0
  189.4760  177.6500  147.6040 C   0  0  0  0  0  2  0  0  0  0  0  0
  1 19  1  1  0  0  0
  3  7  1  0  0  0  0
  5  6  2  0  0  0  0
  6  4  1  0  0  0  0
  7  8  1  0  0  0  0
  8  1  1  0  0  0  0
  8  4  2  0  0  0  0
  9  7  2  0  0  0  0
  9  5  1  0  0  0  0
 10  2  1  0  0  0  0
 11 10  2  0  0  0  0
 12 11  1  0  0  0  0
 12 14  1  0  0  0  0
 13  2  1  1  0  0  0
 13  3  1  0  0  0  0
 13 15  1  0  0  0  0
 14 15  2  0  0  0  0
 15  1  1  0  0  0  0
 16 11  1  0  0  0  0
 16 18  1  0  0  0  0
 17 16  1  0  0  0  0
 19 20  1  0  0  0  0
 20 21  1  0  0  0  0
 20 22  1  0  0  0  0
 21 22  1  0  0  0  0
 22 23  1  6  0  0  0
 23 24  1  1  0  0  0
 23 26  1  0  0  0  0
 25 27  2  0  0  0  0
 26 25  2  0  0  0  0
 27 28  1  0  0  0  0
 28 29  2  0  0  0  0
 29 34  1  0  0  0  0
 30 28  1  0  0  0  0
 31 30  1  0  0  0  0
 32 30  1  0  0  0  0
 34 33  1  0  0  0  0
M  END
>  <MODEL>
3

>  <REMARK>
 VINA RESULT:      -7.7      3.360      5.840
  Name = 
  8 active torsions:
  status: ('A' for Active; 'I' for Inactive)
    1  A    between atoms: C_1  and  C_9
    2  A    between atoms: C_3  and  C_25
    3  A    between atoms: C_6  and  C_28
    4  A    between atoms: C_6  and  C_30
    5  A    between atoms: C_7  and  C_11
    6  A    between atoms: C_7  and  C_29
    7  A    between atoms: N_8  and  C_9
    8  A    between atoms: C_14  and  C_16
                            x       y       z     vdW  Elec       q    Type
                         _______ _______ _______ _____ _____    ______ ____

>  <TORSDO>
F 8

$$$$
=
 OpenBabel11052415413D

 34 37  0  0  1  0  0  0  0  0999 V2000
  187.7700  177.1160  137.5490 C   0  0  2  0  0  3  0  0  0  0  0  0
  189.5360  173.9760  137.1220 C   0  0  0  0  0  2  0  0  0  0  0  0
  187.1250  174.3670  136.7930 C   0  0  0  0  0  2  0  0  0  0  0  0
  185.3600  177.7110  137.1960 C   0  0  0  0  0  3  0  0  0  0  0  0
  183.7580  176.0700  136.4140 C   0  0  0  0  0  3  0  0  0  0  0  0
  184.0560  177.3750  136.8180 C   0  0  0  0  0  3  0  0  0  0  0  0
  186.0720  175.4340  136.7490 C   0  0  0  0  0  0  0  0  0  0  0  0
  186.3690  176.7440  137.1650 C   0  0  0  0  0  0  0  0  0  0  0  0
  184.7630  175.0980  136.3870 C   0  0  0  0  0  3  0  0  0  0  0  0
  190.9810  174.1110  136.7020 C   0  0  0  0  0  3  0  0  0  0  0  0
  191.5770  175.1180  136.0260 C   0  0  0  0  0  0  0  0  0  0  0  0
  190.8380  176.2630  135.3930 C   0  0  0  0  0  2  0  0  0  0  0  0
  188.5260  174.8640  136.4040 C   0  0  1  0  0  3  0  0  0  0  0  0
  189.8660  176.9420  136.3090 C   0  0  0  0  0  3  0  0  0  0  0  0
  188.7790  176.3170  136.7700 C   0  0  0  0  0  0  0  0  0  0  0  0
  193.0530  175.0510  135.7520 C   0  0  0  0  0  3  0  0  0  0  0  0
  193.4860  176.1500  134.7980 C   0  0  0  0  0  1  0  0  0  0  0  0
  193.8640  175.1210  137.0350 C   0  0  0  0  0  1  0  0  0  0  0  0
  188.0060  177.0590  139.0590 C   0  0  0  0  0  2  0  0  0  0  0  0
  188.6580  178.2740  139.5440 N   0  0  0  0  0  0  0  0  0  0  0  0
  189.2230  177.9320  140.8580 C   0  0  0  0  0  2  0  0  0  0  0  0
  188.0670  178.8230  140.7980 C   0  0  2  0  0  3  0  0  0  0  0  0
  186.7910  178.1170  141.2860 C   0  0  2  0  0  3  0  0  0  0  0  0
  185.5780  178.8520  140.7490 C   0  0  0  0  0  1  0  0  0  0  0  0
  187.5540  177.3870  143.4840 C   0  0  0  0  0  0  0  0  0  0  0  0
  186.7200  178.0990  142.7770 C   0  0  0  0  0  3  0  0  0  0  0  0
  188.3950  176.6760  144.1860 C   0  0  0  0  0  3  0  0  0  0  0  0
  189.1910  177.2440  145.2830 C   0  0  0  0  0  0  0  0  0  0  0  0
  188.5480  177.4810  146.4340 C   0  0  0  0  0  3  0  0  0  0  0  0
  190.6560  177.5500  145.0650 C   0  0  0  0  0  3  0  0  0  0  0  0
  191.4020  176.3910  144.4260 C   0  0  0  0  0  1  0  0  0  0  0  0
  190.8690  178.8350  144.2860 C   0  0  0  0  0  1  0  0  0  0  0  0
  188.2300  177.9250  148.8400 C   0  0  0  0  0  1  0  0  0  0  0  0
  189.1800  178.0450  147.6660 C   0  0  0  0  0  2  0  0  0  0  0  0
  1 19  1  1  0  0  0
  5  6  1  0  0  0  0
  6  4  2  0  0  0  0
  7  3  1  0  0  0  0
  7  8  2  0  0  0  0
  8  4  1  0  0  0  0
  8  1  1  0  0  0  0
  9  5  2  0  0  0  0
  9  7  1  0  0  0  0
 10  2  1  0  0  0  0
 11 10  2  0  0  0  0
 12 11  1  0  0  0  0
 12 14  1  0  0  0  0
 13 15  1  0  0  0  0
 13  3  1  1  0  0  0
 13  2  1  0  0  0  0
 14 15  2  0  0  0  0
 15  1  1  0  0  0  0
 16 11  1  0  0  0  0
 16 18  1  0  0  0  0
 17 16  1  0  0  0  0
 19 20  1  0  0  0  0
 20 22  1  0  0  0  0
 20 21  1  0  0  0  0
 22 21  1  0  0  0  0
 22 23  1  1  0  0  0
 23 24  1  6  0  0  0
 23 26  1  0  0  0  0
 25 27  2  0  0  0  0
 26 25  2  0  0  0  0
 27 28  1  0  0  0  0
 28 29  2  0  0  0  0
 29 34  1  0  0  0  0
 30 28  1  0  0  0  0
 31 30  1  0  0  0  0
 32 30  1  0  0  0  0
 34 33  1  0  0  0  0
M  END
>  <MODEL>
4

>  <REMARK>
 VINA RESULT:      -7.3      1.960      3.242
  Name = 
  8 active torsions:
  status: ('A' for Active; 'I' for Inactive)
    1  A    between atoms: C_1  and  C_9
    2  A    between atoms: C_3  and  C_25
    3  A    between atoms: C_6  and  C_28
    4  A    between atoms: C_6  and  C_30
    5  A    between atoms: C_7  and  C_11
    6  A    between atoms: C_7  and  C_29
    7  A    between atoms: N_8  and  C_9
    8  A    between atoms: C_14  and  C_16
                            x       y       z     vdW  Elec       q    Type
                         _______ _______ _______ _____ _____    ______ ____

>  <TORSDO>
F 8

$$$$
=
 OpenBabel11052415413D

 34 37  0  0  1  0  0  0  0  0999 V2000
  190.8220  174.6120  137.5540 C   0  0  2  0  0  3  0  0  0  0  0  0
  187.9210  175.7090  135.6710 C   0  0  0  0  0  2  0  0  0  0  0  0
  190.2840  176.1410  135.1210 C   0  0  0  0  0  2  0  0  0  0  0  0
  193.2740  174.8950  137.1130 C   0  0  0  0  0  3  0  0  0  0  0  0
  194.0750  176.0460  135.1380 C   0  0  0  0  0  3  0  0  0  0  0  0
  194.3340  175.3520  136.3240 C   0  0  0  0  0  3  0  0  0  0  0  0
  191.6930  175.8140  135.5160 C   0  0  0  0  0  0  0  0  0  0  0  0
  191.9540  175.1250  136.7140 C   0  0  0  0  0  0  0  0  0  0  0  0
  192.7570  176.2830  134.7380 C   0  0  0  0  0  3  0  0  0  0  0  0
  186.7170  174.8020  135.7720 C   0  0  0  0  0  3  0  0  0  0  0  0
  186.6730  173.4770  136.0340 C   0  0  0  0  0  0  0  0  0  0  0  0
  187.8850  172.5920  136.1110 C   0  0  0  0  0  2  0  0  0  0  0  0
  189.2730  175.0350  135.4610 C   0  0  1  0  0  3  0  0  0  0  0  0
  188.9700  173.1200  136.9980 C   0  0  0  0  0  3  0  0  0  0  0  0
  189.6390  174.2380  136.7020 C   0  0  0  0  0  0  0  0  0  0  0  0
  185.3420  172.7860  136.1240 C   0  0  0  0  0  3  0  0  0  0  0  0
  185.4140  171.3770  135.5650 C   0  0  0  0  0  1  0  0  0  0  0  0
  184.8220  172.7580  137.5520 C   0  0  0  0  0  1  0  0  0  0  0  0
  190.4540  175.5580  138.6970 C   0  0  0  0  0  2  0  0  0  0  0  0
  190.9710  176.9060  138.4620 N   0  0  0  0  0  0  0  0  0  0  0  0
  191.1790  177.4950  139.7930 C   0  0  0  0  0  2  0  0  0  0  0  0
  190.0840  177.9930  138.9650 C   0  0  2  0  0  3  0  0  0  0  0  0
  188.7200  177.5320  139.5030 C   0  0  2  0  0  3  0  0  0  0  0  0
  187.6380  177.9080  138.5100 C   0  0  0  0  0  1  0  0  0  0  0  0
  188.3250  177.4700  141.9100 C   0  0  0  0  0  0  0  0  0  0  0  0
  188.4110  178.1760  140.8150 C   0  0  0  0  0  3  0  0  0  0  0  0
  188.2440  176.7590  143.0020 C   0  0  0  0  0  3  0  0  0  0  0  0
  189.0030  177.0840  144.2170 C   0  0  0  0  0  0  0  0  0  0  0  0
  188.2900  177.3550  145.3190 C   0  0  0  0  0  3  0  0  0  0  0  0
  190.5150  177.1180  144.1690 C   0  0  0  0  0  3  0  0  0  0  0  0
  191.0970  175.9610  143.3760 C   0  0  0  0  0  1  0  0  0  0  0  0
  191.0470  178.4490  143.6690 C   0  0  0  0  0  1  0  0  0  0  0  0
  187.7780  177.7820  147.6940 C   0  0  0  0  0  1  0  0  0  0  0  0
  188.8740  177.6980  146.6510 C   0  0  0  0  0  2  0  0  0  0  0  0
  1 19  1  1  0  0  0
  2 10  1  0  0  0  0
  3  7  1  0  0  0  0
  5  6  1  0  0  0  0
  6  4  2  0  0  0  0
  7  8  2  0  0  0  0
  8  4  1  0  0  0  0
  8  1  1  0  0  0  0
  9  5  2  0  0  0  0
  9  7  1  0  0  0  0
 10 11  2  0  0  0  0
 11 12  1  0  0  0  0
 11 16  1  0  0  0  0
 12 14  1  0  0  0  0
 13  3  1  1  0  0  0
 13  2  1  0  0  0  0
 13 15  1  0  0  0  0
 15 14  2  0  0  0  0
 15  1  1  0  0  0  0
 16 18  1  0  0  0  0
 17 16  1  0  0  0  0
 20 19  1  0  0  0  0
 20 22  1  0  0  0  0
 20 21  1  0  0  0  0
 22 23  1  1  0  0  0
 22 21  1  0  0  0  0
 23 24  1  6  0  0  0
 23 26  1  0  0  0  0
 25 27  2  0  0  0  0
 26 25  2  0  0  0  0
 27 28  1  0  0  0  0
 28 29  2  0  0  0  0
 29 34  1  0  0  0  0
 30 28  1  0  0  0  0
 31 30  1  0  0  0  0
 32 30  1  0  0  0  0
 34 33  1  0  0  0  0
M  END
>  <MODEL>
5

>  <REMARK>
 VINA RESULT:      -7.2      2.211      5.305
  Name = 
  8 active torsions:
  status: ('A' for Active; 'I' for Inactive)
    1  A    between atoms: C_1  and  C_9
    2  A    between atoms: C_3  and  C_25
    3  A    between atoms: C_6  and  C_28
    4  A    between atoms: C_6  and  C_30
    5  A    between atoms: C_7  and  C_11
    6  A    between atoms: C_7  and  C_29
    7  A    between atoms: N_8  and  C_9
    8  A    between atoms: C_14  and  C_16
                            x       y       z     vdW  Elec       q    Type
                         _______ _______ _______ _____ _____    ______ ____

>  <TORSDO>
F 8

$$$$
=
 OpenBabel11052415413D

 34 37  0  0  1  0  0  0  0  0999 V2000
  189.5970  175.0770  137.3500 C   0  0  2  0  0  3  0  0  0  0  0  0
  187.9000  177.8770  135.7880 C   0  0  0  0  0  2  0  0  0  0  0  0
  190.1770  177.0720  135.2940 C   0  0  0  0  0  2  0  0  0  0  0  0
  191.8600  174.0820  136.9310 C   0  0  0  0  0  3  0  0  0  0  0  0
  193.3290  174.9660  135.2200 C   0  0  0  0  0  3  0  0  0  0  0  0
  193.0710  174.0380  136.2330 C   0  0  0  0  0  3  0  0  0  0  0  0
  191.1580  175.9770  135.5870 C   0  0  0  0  0  0  0  0  0  0  0  0
  190.9030  175.0500  136.6130 C   0  0  0  0  0  0  0  0  0  0  0  0
  192.3770  175.9390  134.9020 C   0  0  0  0  0  3  0  0  0  0  0  0
  186.3960  177.7540  135.7220 C   0  0  0  0  0  3  0  0  0  0  0  0
  185.6370  176.6360  135.7070 C   0  0  0  0  0  0  0  0  0  0  0  0
  186.1880  175.2440  135.5780 C   0  0  0  0  0  2  0  0  0  0  0  0
  188.7080  176.6380  135.4190 C   0  0  1  0  0  3  0  0  0  0  0  0
  187.3000  174.9370  136.5340 C   0  0  0  0  0  3  0  0  0  0  0  0
  188.4810  175.5570  136.4620 C   0  0  0  0  0  0  0  0  0  0  0  0
  184.1400  176.7600  135.6790 C   0  0  0  0  0  3  0  0  0  0  0  0
  183.4820  175.4240  135.3860 C   0  0  0  0  0  1  0  0  0  0  0  0
  183.6010  177.3360  136.9780 C   0  0  0  0  0  1  0  0  0  0  0  0
  189.6760  175.8440  138.6700 C   0  0  0  0  0  2  0  0  0  0  0  0
  190.2790  177.1640  138.4860 N   0  0  0  0  0  0  0  0  0  0  0  0
  190.8120  177.5510  139.8000 C   0  0  0  0  0  2  0  0  0  0  0  0
  189.6340  178.2440  139.2850 C   0  0  2  0  0  3  0  0  0  0  0  0
  188.3630  177.8300  140.0450 C   0  0  2  0  0  3  0  0  0  0  0  0
  187.1450  178.2530  139.2470 C   0  0  0  0  0  1  0  0  0  0  0  0
  188.2360  177.7600  142.4800 C   0  0  0  0  0  0  0  0  0  0  0  0
  188.3040  178.4750  141.3900 C   0  0  0  0  0  3  0  0  0  0  0  0
  188.1730  177.0380  143.5670 C   0  0  0  0  0  3  0  0  0  0  0  0
  189.1040  177.2140  144.6890 C   0  0  0  0  0  0  0  0  0  0  0  0
  188.5620  177.3270  145.9100 C   0  0  0  0  0  3  0  0  0  0  0  0
  190.5930  177.2810  144.4250 C   0  0  0  0  0  3  0  0  0  0  0  0
  191.0590  176.2020  143.4630 C   0  0  0  0  0  1  0  0  0  0  0  0
  191.0370  178.6570  143.9660 C   0  0  0  0  0  1  0  0  0  0  0  0
  188.4670  178.1480  148.2340 C   0  0  0  0  0  1  0  0  0  0  0  0
  189.3370  177.5010  147.1760 C   0  0  0  0  0  2  0  0  0  0  0  0
  1 19  1  1  0  0  0
  3  7  1  0  0  0  0
  5  6  1  0  0  0  0
  6  4  2  0  0  0  0
  7  8  2  0  0  0  0
  8  4  1  0  0  0  0
  8  1  1  0  0  0  0
  9  5  2  0  0  0  0
  9  7  1  0  0  0  0
 10  2  1  0  0  0  0
 11 10  2  0  0  0  0
 12 11  1  0  0  0  0
 12 14  1  0  0  0  0
 13  3  1  1  0  0  0
 13  2  1  0  0  0  0
 13 15  1  0  0  0  0
 15 14  2  0  0  0  0
 15  1  1  0  0  0  0
 16 11  1  0  0  0  0
 16 18  1  0  0  0  0
 17 16  1  0  0  0  0
 20 19  1  0  0  0  0
 20 22  1  0  0  0  0
 20 21  1  0  0  0  0
 22 21  1  0  0  0  0
 22 23  1  1  0  0  0
 23 24  1  6  0  0  0
 23 26  1  0  0  0  0
 25 27  2  0  0  0  0
 26 25  2  0  0  0  0
 27 28  1  0  0  0  0
 28 29  2  0  0  0  0
 29 34  1  0  0  0  0
 30 28  1  0  0  0  0
 31 30  1  0  0  0  0
 32 30  1  0  0  0  0
 34 33  1  0  0  0  0
M  END
>  <MODEL>
6

>  <REMARK>
 VINA RESULT:      -7.0      1.948      5.782
  Name = 
  8 active torsions:
  status: ('A' for Active; 'I' for Inactive)
    1  A    between atoms: C_1  and  C_9
    2  A    between atoms: C_3  and  C_25
    3  A    between atoms: C_6  and  C_28
    4  A    between atoms: C_6  and  C_30
    5  A    between atoms: C_7  and  C_11
    6  A    between atoms: C_7  and  C_29
    7  A    between atoms: N_8  and  C_9
    8  A    between atoms: C_14  and  C_16
                            x       y       z     vdW  Elec       q    Type
                         _______ _______ _______ _____ _____    ______ ____

>  <TORSDO>
F 8

$$$$
=
 OpenBabel11052415413D

 34 37  0  0  1  0  0  0  0  0999 V2000
  189.2520  176.8830  137.5830 C   0  0  2  0  0  3  0  0  0  0  0  0
  190.1730  173.4780  136.7360 C   0  0  0  0  0  2  0  0  0  0  0  0
  187.8980  174.4260  136.7620 C   0  0  0  0  0  2  0  0  0  0  0  0
  187.0220  178.0310  137.5960 C   0  0  0  0  0  3  0  0  0  0  0  0
  185.0000  176.8660  136.9450 C   0  0  0  0  0  3  0  0  0  0  0  0
  185.6400  178.0300  137.3800 C   0  0  0  0  0  3  0  0  0  0  0  0
  187.1250  175.7010  136.9250 C   0  0  0  0  0  0  0  0  0  0  0  0
  187.7670  176.8690  137.3720 C   0  0  0  0  0  0  0  0  0  0  0  0
  185.7400  175.7000  136.7240 C   0  0  0  0  0  3  0  0  0  0  0  0
  191.5490  173.3220  136.1330 C   0  0  0  0  0  3  0  0  0  0  0  0
  192.2790  174.2260  135.4420 C   0  0  0  0  0  0  0  0  0  0  0  0
  191.7570  175.5590  134.9840 C   0  0  0  0  0  2  0  0  0  0  0  0
  189.3190  174.6300  136.2150 C   0  0  1  0  0  3  0  0  0  0  0  0
  191.0870  176.3550  136.0620 C   0  0  0  0  0  3  0  0  0  0  0  0
  189.9460  175.9500  136.6280 C   0  0  0  0  0  0  0  0  0  0  0  0
  193.6550  173.8560  134.9660 C   0  0  0  0  0  3  0  0  0  0  0  0
  194.7230  174.6300  135.7160 C   0  0  0  0  0  1  0  0  0  0  0  0
  193.9060  172.3620  135.0890 C   0  0  0  0  0  1  0  0  0  0  0  0
  189.6450  176.6410  139.0410 C   0  0  0  0  0  2  0  0  0  0  0  0
  190.3610  177.7880  139.5990 N   0  0  0  0  0  0  0  0  0  0  0  0
  191.3400  177.2320  140.5440 C   0  0  0  0  0  2  0  0  0  0  0  0
  190.1860  177.9580  141.0690 C   0  0  2  0  0  3  0  0  0  0  0  0
  189.1750  177.0020  141.7250 C   0  0  2  0  0  3  0  0  0  0  0  0
  188.0090  177.8050  142.2670 C   0  0  0  0  0  1  0  0  0  0  0  0
  190.1890  176.8500  143.9380 C   0  0  0  0  0  0  0  0  0  0  0  0
  189.8000  176.2440  142.8500 C   0  0  0  0  0  3  0  0  0  0  0  0
  190.5730  177.4620  145.0270 C   0  0  0  0  0  3  0  0  0  0  0  0
  190.1500  177.0330  146.3670 C   0  0  0  0  0  0  0  0  0  0  0  0
  188.8990  177.3450  146.7330 C   0  0  0  0  0  3  0  0  0  0  0  0
  191.1240  176.2980  147.2610 C   0  0  0  0  0  3  0  0  0  0  0  0
  192.2290  175.6140  146.4740 C   0  0  0  0  0  1  0  0  0  0  0  0
  191.6950  177.1880  148.3490 C   0  0  0  0  0  1  0  0  0  0  0  0
  188.0570  178.2430  148.8710 C   0  0  0  0  0  1  0  0  0  0  0  0
  188.2800  176.9910  148.0460 C   0  0  0  0  0  2  0  0  0  0  0  0
  1 19  1  1  0  0  0
  3  7  1  0  0  0  0
  5  6  2  0  0  0  0
  6  4  1  0  0  0  0
  7  8  1  0  0  0  0
  8  1  1  0  0  0  0
  8  4  2  0  0  0  0
  9  7  2  0  0  0  0
  9  5  1  0  0  0  0
 10  2  1  0  0  0  0
 11 10  2  0  0  0  0
 12 11  1  0  0  0  0
 12 14  1  0  0  0  0
 13 15  1  0  0  0  0
 13  2  1  1  0  0  0
 13  3  1  0  0  0  0
 14 15  2  0  0  0  0
 15  1  1  0  0  0  0
 16 18  1  0  0  0  0
 16 11  1  0  0  0  0
 16 17  1  0  0  0  0
 19 20  1  0  0  0  0
 20 21  1  0  0  0  0
 20 22  1  0  0  0  0
 21 22  1  0  0  0  0
 22 23  1  1  0  0  0
 23 24  1  1  0  0  0
 23 26  1  0  0  0  0
 25 27  2  0  0  0  0
 26 25  2  0  0  0  0
 27 28  1  0  0  0  0
 28 29  2  0  0  0  0
 28 30  1  0  0  0  0
 29 34  1  0  0  0  0
 30 32  1  0  0  0  0
 31 30  1  0  0  0  0
 34 33  1  0  0  0  0
M  END
>  <MODEL>
7

>  <REMARK>
 VINA RESULT:      -7.0      1.870      2.559
  Name = 
  8 active torsions:
  status: ('A' for Active; 'I' for Inactive)
    1  A    between atoms: C_1  and  C_9
    2  A    between atoms: C_3  and  C_25
    3  A    between atoms: C_6  and  C_28
    4  A    between atoms: C_6  and  C_30
    5  A    between atoms: C_7  and  C_11
    6  A    between atoms: C_7  and  C_29
    7  A    between atoms: N_8  and  C_9
    8  A    between atoms: C_14  and  C_16
                            x       y       z     vdW  Elec       q    Type
                         _______ _______ _______ _____ _____    ______ ____

>  <TORSDO>
F 8

$$$$
=
 OpenBabel11052415413D

 34 37  0  0  1  0  0  0  0  0999 V2000
  188.8640  178.5470  141.6050 C   0  0  2  0  0  3  0  0  0  0  0  0
  190.2090  175.5810  143.2030 C   0  0  0  0  0  2  0  0  0  0  0  0
  190.1620  176.0590  140.7860 C   0  0  0  0  0  2  0  0  0  0  0  0
  188.7940  179.2290  139.1930 C   0  0  0  0  0  3  0  0  0  0  0  0
  189.7490  177.8320  137.4590 C   0  0  0  0  0  3  0  0  0  0  0  0
  189.0890  179.0030  137.8450 C   0  0  0  0  0  3  0  0  0  0  0  0
  189.8360  177.1150  139.7720 C   0  0  0  0  0  0  0  0  0  0  0  0
  189.1630  178.2870  140.1590 C   0  0  0  0  0  0  0  0  0  0  0  0
  190.1160  176.8860  138.4210 C   0  0  0  0  0  3  0  0  0  0  0  0
  190.7470  175.7970  144.5980 C   0  0  0  0  0  3  0  0  0  0  0  0
  191.2330  176.9300  145.1530 C   0  0  0  0  0  0  0  0  0  0  0  0
  191.4930  178.1990  144.3900 C   0  0  0  0  0  2  0  0  0  0  0  0
  190.5810  176.6220  142.1530 C   0  0  1  0  0  3  0  0  0  0  0  0
  190.3400  178.6510  143.5470 C   0  0  0  0  0  3  0  0  0  0  0  0
  189.9180  177.9450  142.4950 C   0  0  0  0  0  0  0  0  0  0  0  0
  191.6810  176.9170  146.5870 C   0  0  0  0  0  3  0  0  0  0  0  0
  190.5120  177.1320  147.5300 C   0  0  0  0  0  1  0  0  0  0  0  0
  192.4060  175.6280  146.9350 C   0  0  0  0  0  1  0  0  0  0  0  0
  187.4460  178.1330  142.0010 C   0  0  0  0  0  2  0  0  0  0  0  0
  187.3540  177.8430  143.4310 N   0  0  0  0  0  0  0  0  0  0  0  0
  186.2490  176.8840  143.5780 C   0  0  0  0  0  2  0  0  0  0  0  0
  186.0630  178.2530  144.0530 C   0  0  2  0  0  3  0  0  0  0  0  0
  185.1130  179.0400  143.1360 C   0  0  2  0  0  3  0  0  0  0  0  0
  184.0960  179.7780  143.9840 C   0  0  0  0  0  1  0  0  0  0  0  0
  184.0550  178.5190  141.0000 C   0  0  0  0  0  0  0  0  0  0  0  0
  184.3870  178.1290  142.2010 C   0  0  0  0  0  3  0  0  0  0  0  0
  183.7290  178.9140  139.7990 C   0  0  0  0  0  3  0  0  0  0  0  0
  184.0780  178.1510  138.5930 C   0  0  0  0  0  0  0  0  0  0  0  0
  185.3430  178.2490  138.1630 C   0  0  0  0  0  3  0  0  0  0  0  0
  183.0180  177.3280  137.8930 C   0  0  0  0  0  3  0  0  0  0  0  0
  182.6890  176.0490  138.6440 C   0  0  0  0  0  1  0  0  0  0  0  0
  181.7640  178.1300  137.5980 C   0  0  0  0  0  1  0  0  0  0  0  0
  186.5350  176.2350  137.3800 C   0  0  0  0  0  1  0  0  0  0  0  0
  185.8960  177.5460  136.9660 C   0  0  0  0  0  2  0  0  0  0  0  0
  1 19  1  1  0  0  0
  1 15  1  0  0  0  0
  2 10  1  0  0  0  0
  4  8  1  0  0  0  0
  5  6  1  0  0  0  0
  5  9  2  0  0  0  0
  6  4  2  0  0  0  0
  7  8  2  0  0  0  0
  7  3  1  0  0  0  0
  8  1  1  0  0  0  0
  9  7  1  0  0  0  0
 10 11  2  0  0  0  0
 11 16  1  0  0  0  0
 12 11  1  0  0  0  0
 13  3  1  6  0  0  0
 13 15  1  0  0  0  0
 13  2  1  0  0  0  0
 14 12  1  0  0  0  0
 15 14  2  0  0  0  0
 16 18  1  0  0  0  0
 16 17  1  0  0  0  0
 19 20  1  0  0  0  0
 20 21  1  0  0  0  0
 20 22  1  0  0  0  0
 21 22  1  0  0  0  0
 22 23  1  6  0  0  0
 23 24  1  1  0  0  0
 25 26  2  0  0  0  0
 26 23  1  0  0  0  0
 27 25  2  0  0  0  0
 28 27  1  0  0  0  0
 29 28  2  0  0  0  0
 30 28  1  0  0  0  0
 30 31  1  0  0  0  0
 32 30  1  0  0  0  0
 34 33  1  0  0  0  0
 34 29  1  0  0  0  0
M  END
>  <MODEL>
8

>  <REMARK>
 VINA RESULT:      -6.9      3.236      7.246
  Name = 
  8 active torsions:
  status: ('A' for Active; 'I' for Inactive)
    1  A    between atoms: C_1  and  C_9
    2  A    between atoms: C_3  and  C_25
    3  A    between atoms: C_6  and  C_28
    4  A    between atoms: C_6  and  C_30
    5  A    between atoms: C_7  and  C_11
    6  A    between atoms: C_7  and  C_29
    7  A    between atoms: N_8  and  C_9
    8  A    between atoms: C_14  and  C_16
                            x       y       z     vdW  Elec       q    Type
                         _______ _______ _______ _____ _____    ______ ____

>  <TORSDO>
F 8

$$$$
=
 OpenBabel11052415413D

 34 37  0  0  1  0  0  0  0  0999 V2000
  188.6030  178.5180  141.0930 C   0  0  2  0  0  3  0  0  0  0  0  0
  190.0330  175.6800  142.8430 C   0  0  0  0  0  2  0  0  0  0  0  0
  190.1200  176.1130  140.4180 C   0  0  0  0  0  2  0  0  0  0  0  0
  188.6520  179.1520  138.6670 C   0  0  0  0  0  3  0  0  0  0  0  0
  189.8180  177.7950  137.0340 C   0  0  0  0  0  3  0  0  0  0  0  0
  189.0540  178.9240  137.3480 C   0  0  0  0  0  3  0  0  0  0  0  0
  189.7940  177.1260  139.3620 C   0  0  0  0  0  0  0  0  0  0  0  0
  189.0180  178.2550  139.6760 C   0  0  0  0  0  0  0  0  0  0  0  0
  190.1810  176.8930  138.0380 C   0  0  0  0  0  3  0  0  0  0  0  0
  190.4580  175.9580  144.2660 C   0  0  0  0  0  3  0  0  0  0  0  0
  190.8260  177.1310  144.8270 C   0  0  0  0  0  0  0  0  0  0  0  0
  191.0520  178.4010  144.0560 C   0  0  0  0  0  2  0  0  0  0  0  0
  190.4050  176.7260  141.7980 C   0  0  1  0  0  3  0  0  0  0  0  0
  189.9310  178.7580  143.1280 C   0  0  0  0  0  3  0  0  0  0  0  0
  189.6310  178.0060  142.0650 C   0  0  0  0  0  0  0  0  0  0  0  0
  191.1740  177.1740  146.2880 C   0  0  0  0  0  3  0  0  0  0  0  0
  189.9260  177.2080  147.1500 C   0  0  0  0  0  1  0  0  0  0  0  0
  192.0560  176.0020  146.6880 C   0  0  0  0  0  1  0  0  0  0  0  0
  187.1930  178.0140  141.4020 C   0  0  0  0  0  2  0  0  0  0  0  0
  186.4880  178.9190  142.3090 N   0  0  0  0  0  0  0  0  0  0  0  0
  185.4860  178.0960  143.0030 C   0  0  0  0  0  2  0  0  0  0  0  0
  185.0350  179.0690  142.0120 C   0  0  2  0  0  3  0  0  0  0  0  0
  184.5530  178.3760  140.7260 C   0  0  2  0  0  3  0  0  0  0  0  0
  184.5580  179.3770  139.5870 C   0  0  0  0  0  1  0  0  0  0  0  0
  182.5080  177.3570  139.8710 C   0  0  0  0  0  0  0  0  0  0  0  0
  183.1680  177.8410  140.8880 C   0  0  0  0  0  3  0  0  0  0  0  0
  181.8550  176.8710  138.8500 C   0  0  0  0  0  3  0  0  0  0  0  0
  181.2400  175.5370  138.8660 C   0  0  0  0  0  0  0  0  0  0  0  0
  180.4030  175.2710  139.8790 C   0  0  0  0  0  3  0  0  0  0  0  0
  181.5830  174.5400  137.7810 C   0  0  0  0  0  3  0  0  0  0  0  0
  180.8020  174.7840  136.5010 C   0  0  0  0  0  1  0  0  0  0  0  0
  183.0750  174.4710  137.5100 C   0  0  0  0  0  1  0  0  0  0  0  0
  179.3910  173.7530  141.5390 C   0  0  0  0  0  1  0  0  0  0  0  0
  179.6730  173.9810  140.0680 C   0  0  0  0  0  2  0  0  0  0  0  0
  1 19  1  1  0  0  0
  1 15  1  0  0  0  0
  2 10  1  0  0  0  0
  4  8  1  0  0  0  0
  5  6  1  0  0  0  0
  5  9  2  0  0  0  0
  6  4  2  0  0  0  0
  7  8  2  0  0  0  0
  7  3  1  0  0  0  0
  8  1  1  0  0  0  0
  9  7  1  0  0  0  0
 10 11  2  0  0  0  0
 11 16  1  0  0  0  0
 12 11  1  0  0  0  0
 13  3  1  6  0  0  0
 13 15  1  0  0  0  0
 13  2  1  0  0  0  0
 14 12  1  0  0  0  0
 15 14  2  0  0  0  0
 16 18  1  0  0  0  0
 16 17  1  0  0  0  0
 19 20  1  0  0  0  0
 20 21  1  0  0  0  0
 22 23  1  6  0  0  0
 22 20  1  0  0  0  0
 22 21  1  0  0  0  0
 23 24  1  6  0  0  0
 23 26  1  0  0  0  0
 25 26  2  0  0  0  0
 27 28  1  0  0  0  0
 27 25  2  0  0  0  0
 28 29  2  0  0  0  0
 29 34  1  0  0  0  0
 30 28  1  0  0  0  0
 31 30  1  0  0  0  0
 32 30  1  0  0  0  0
 34 33  1  0  0  0  0
M  END
>  <MODEL>
9

>  <REMARK>
 VINA RESULT:      -6.8      4.160      7.610
  Name = 
  8 active torsions:
  status: ('A' for Active; 'I' for Inactive)
    1  A    between atoms: C_1  and  C_9
    2  A    between atoms: C_3  and  C_25
    3  A    between atoms: C_6  and  C_28
    4  A    between atoms: C_6  and  C_30
    5  A    between atoms: C_7  and  C_11
    6  A    between atoms: C_7  and  C_29
    7  A    between atoms: N_8  and  C_9
    8  A    between atoms: C_14  and  C_16
                            x       y       z     vdW  Elec       q    Type
                         _______ _______ _______ _____ _____    ______ ____

>  <TORSDO>
F 8

$$$$
