=
 OpenBabel11052413143D

 31 34  0  0  1  0  0  0  0  0999 V2000
  187.4510  178.3020  136.5710 C   0  0  0  0  0  0  0  0  0  0  0  0
  190.6540  177.2270  138.2950 C   0  0  1  0  0  3  0  0  0  0  0  0
  190.9080  175.8200  137.8090 C   0  0  0  0  0  0  0  0  0  0  0  0
  190.6330  173.6400  137.0540 N   0  0  0  0  0  0  0  0  0  0  0  0
  189.2240  177.6540  138.0950 C   0  0  0  0  0  0  0  0  0  0  0  0
  186.5440  178.3250  137.6310 C   0  0  0  0  0  3  0  0  0  0  0  0
  189.8560  174.8080  137.4550 C   0  0  0  0  0  3  0  0  0  0  0  0
  190.1300  176.8440  140.7390 C   0  0  1  0  0  3  0  0  0  0  0  0
  187.0150  178.6140  135.2540 N   0  0  0  0  0  1  0  0  0  0  0  0
  193.4610  177.1330  138.7900 C   0  0  0  0  0  2  0  0  0  0  0  0
  191.8850  173.9230  137.1720 C   0  0  0  0  0  0  0  0  0  0  0  0
  188.7270  177.4440  140.5900 C   0  0  0  0  0  2  0  0  0  0  0  0
  191.1320  177.4570  139.7450 C   0  0  1  0  0  3  0  0  0  0  0  0
  188.7870  177.9680  136.8020 C   0  0  0  0  0  3  0  0  0  0  0  0
  192.9170  172.9940  136.8560 N   0  0  0  0  0  1  0  0  0  0  0  0
  188.3030  177.6690  139.1650 C   0  0  0  0  0  0  0  0  0  0  0  0
  186.9710  178.0170  138.9240 C   0  0  0  0  0  3  0  0  0  0  0  0
  192.5620  176.9570  140.0080 C   0  0  0  0  0  2  0  0  0  0  0  0
  193.4630  175.8780  137.9130 C   0  0  0  0  0  2  0  0  0  0  0  0
  192.1080  175.2710  137.6460 C   0  0  2  0  0  3  0  0  0  0  0  0
  190.5840  176.9180  142.1340 N   0  0  0  0  0  2  0  0  0  0  0  0
  189.6440  177.6850  142.9510 C   0  0  2  0  0  3  0  0  0  0  0  0
  191.5890  178.7750  143.7280 O   0  0  0  0  0  0  0  0  0  0  0  0
  190.3770  178.8160  143.5970 C   0  0  0  0  0  3  0  0  0  0  0  0
  189.0320  176.7710  144.0100 C   0  0  0  0  0  2  0  0  0  0  0  0
  188.8680  177.2530  146.3660 O   0  0  0  0  0  1  0  0  0  0  0  0
  188.3100  177.5370  145.1190 C   0  0  2  0  0  3  0  0  0  0  0  0
  186.8150  177.2520  145.1390 C   0  0  0  0  0  2  0  0  0  0  0  0
  186.0670  178.4970  145.0660 N   0  0  0  0  0  0  0  0  0  0  0  0
  185.2210  178.5520  146.2460 C   0  0  0  0  0  1  0  0  0  0  0  0
  185.1750  178.3830  143.9270 C   0  0  0  0  0  1  0  0  0  0  0  0
  1 14  2  0  0  0  0
  1  6  1  0  0  0  0
  2  3  1  1  0  0  0
  2 13  1  0  0  0  0
  4 11  2  0  0  0  0
  4  7  1  0  0  0  0
  5  2  1  0  0  0  0
  5 16  2  0  0  0  0
  6 17  2  0  0  0  0
  7  3  2  0  0  0  0
  8 21  1  1  0  0  0
  9  1  1  0  0  0  0
 10 18  1  0  0  0  0
 11 20  1  0  0  0  0
 12  8  1  0  0  0  0
 13 18  1  6  0  0  0
 13  8  1  0  0  0  0
 14  5  1  0  0  0  0
 15 11  1  0  0  0  0
 16 12  1  0  0  0  0
 17 16  1  0  0  0  0
 19 10  1  0  0  0  0
 20  3  1  0  0  0  0
 20 19  1  1  0  0  0
 21 22  1  0  0  0  0
 22 24  1  1  0  0  0
 22 25  1  0  0  0  0
 24 23  2  0  0  0  0
 25 27  1  0  0  0  0
 27 28  1  0  0  0  0
 27 26  1  1  0  0  0
 29 28  1  0  0  0  0
 29 30  1  0  0  0  0
 31 29  1  0  0  0  0
M  END
>  <MODEL>
1

>  <REMARK>
 VINA RESULT:      -6.6      0.000      0.000
  Name = 
  7 active torsions:
  status: ('A' for Active; 'I' for Inactive)
    1  A    between atoms: N_1  and  C_24
    2  A    between atoms: C_7  and  CA_9
    3  A    between atoms: C_7  and  C_19
    4  A    between atoms: CA_9  and  C_22
    5  A    between atoms: CA_9  and  N_23
    6  A    between atoms: C_15  and  N_23
    7  A    between atoms: C_19  and  C_24
                            x       y       z     vdW  Elec       q    Type
                         _______ _______ _______ _____ _____    ______ ____

>  <TORSDO>
F 7

$$$$
=
 OpenBabel11052413143D

 31 34  0  0  1  0  0  0  0  0999 V2000
  192.2070  177.5640  140.6270 C   0  0  0  0  0  0  0  0  0  0  0  0
  190.5860  177.6110  144.0550 C   0  0  1  0  0  3  0  0  0  0  0  0
  191.2780  176.5150  144.8320 C   0  0  0  0  0  0  0  0  0  0  0  0
  192.3690  174.5510  145.4210 N   0  0  0  0  0  0  0  0  0  0  0  0
  190.7560  177.4550  142.5680 C   0  0  0  0  0  0  0  0  0  0  0  0
  191.1800  177.0600  139.8270 C   0  0  0  0  0  3  0  0  0  0  0  0
  191.8130  175.2340  144.2590 C   0  0  0  0  0  3  0  0  0  0  0  0
  188.2460  176.6810  143.8220 C   0  0  1  0  0  3  0  0  0  0  0  0
  193.4710  177.8740  140.0520 N   0  0  0  0  0  1  0  0  0  0  0  0
  190.0370  178.5730  146.6830 C   0  0  0  0  0  2  0  0  0  0  0  0
  192.1760  175.2900  146.4590 C   0  0  0  0  0  0  0  0  0  0  0  0
  188.3380  176.6840  142.2910 C   0  0  0  0  0  2  0  0  0  0  0  0
  189.1060  177.7870  144.4570 C   0  0  1  0  0  3  0  0  0  0  0  0
  191.9950  177.7610  141.9920 C   0  0  0  0  0  3  0  0  0  0  0  0
  192.6050  174.9110  147.7630 N   0  0  0  0  0  1  0  0  0  0  0  0
  189.7210  176.9370  141.7590 C   0  0  0  0  0  0  0  0  0  0  0  0
  189.9400  176.7540  140.3910 C   0  0  0  0  0  3  0  0  0  0  0  0
  188.8860  177.8670  145.9770 C   0  0  0  0  0  2  0  0  0  0  0  0
  191.0990  177.5740  147.1530 C   0  0  0  0  0  2  0  0  0  0  0  0
  191.4920  176.5240  146.1430 C   0  0  2  0  0  3  0  0  0  0  0  0
  186.8450  176.7160  144.2610 N   0  0  0  0  0  2  0  0  0  0  0  0
  186.2300  178.0060  143.9490 C   0  0  2  0  0  3  0  0  0  0  0  0
  184.4590  179.0250  145.1340 O   0  0  0  0  0  0  0  0  0  0  0  0
  185.5770  178.5400  145.1830 C   0  0  0  0  0  3  0  0  0  0  0  0
  185.1990  177.8180  142.8380 C   0  0  0  0  0  2  0  0  0  0  0  0
  185.8440  180.0030  142.0470 O   0  0  0  0  0  1  0  0  0  0  0  0
  185.4430  178.7310  141.6350 C   0  0  2  0  0  3  0  0  0  0  0  0
  184.2210  178.8350  140.7340 C   0  0  0  0  0  2  0  0  0  0  0  0
  184.5670  179.5190  139.4980 N   0  0  0  0  0  0  0  0  0  0  0  0
  183.3280  180.0300  138.9360 C   0  0  0  0  0  1  0  0  0  0  0  0
  185.0460  178.5040  138.5780 C   0  0  0  0  0  1  0  0  0  0  0  0
  1 14  1  0  0  0  0
  2  5  1  6  0  0  0
  2 13  1  0  0  0  0
  2  3  1  0  0  0  0
  3 20  1  0  0  0  0
  4 11  2  0  0  0  0
  6 17  1  0  0  0  0
  6  1  2  0  0  0  0
  7  3  2  0  0  0  0
  7  4  1  0  0  0  0
  8 21  1  6  0  0  0
  8 13  1  0  0  0  0
  9  1  1  0  0  0  0
 10 19  1  0  0  0  0
 11 15  1  0  0  0  0
 12  8  1  0  0  0  0
 13 18  1  1  0  0  0
 14  5  2  0  0  0  0
 16 12  1  0  0  0  0
 16  5  1  0  0  0  0
 17 16  2  0  0  0  0
 18 10  1  0  0  0  0
 20 11  1  0  0  0  0
 20 19  1  1  0  0  0
 22 25  1  6  0  0  0
 22 21  1  0  0  0  0
 22 24  1  0  0  0  0
 23 24  2  0  0  0  0
 27 26  1  1  0  0  0
 27 25  1  0  0  0  0
 28 27  1  0  0  0  0
 29 28  1  0  0  0  0
 30 29  1  0  0  0  0
 31 29  1  0  0  0  0
M  END
>  <MODEL>
2

>  <REMARK>
 VINA RESULT:      -6.5      3.076      6.488
  Name = 
  7 active torsions:
  status: ('A' for Active; 'I' for Inactive)
    1  A    between atoms: N_1  and  C_24
    2  A    between atoms: C_7  and  CA_9
    3  A    between atoms: C_7  and  C_19
    4  A    between atoms: CA_9  and  C_22
    5  A    between atoms: CA_9  and  N_23
    6  A    between atoms: C_15  and  N_23
    7  A    between atoms: C_19  and  C_24
                            x       y       z     vdW  Elec       q    Type
                         _______ _______ _______ _____ _____    ______ ____

>  <TORSDO>
F 7

$$$$
=
 OpenBabel11052413143D

 31 34  0  0  1  0  0  0  0  0999 V2000
  182.0770  176.1200  137.2010 C   0  0  0  0  0  0  0  0  0  0  0  0
  182.2590  177.9450  140.5200 C   0  0  1  0  0  3  0  0  0  0  0  0
  181.3410  179.1350  140.3640 C   0  0  0  0  0  0  0  0  0  0  0  0
  180.1420  180.9240  139.4940 N   0  0  0  0  0  0  0  0  0  0  0  0
  182.6750  177.3650  139.1960 C   0  0  0  0  0  0  0  0  0  0  0  0
  183.3410  176.3690  136.6630 C   0  0  0  0  0  3  0  0  0  0  0  0
  181.0890  179.8910  139.0910 C   0  0  0  0  0  3  0  0  0  0  0  0
  184.5250  179.0560  140.6740 C   0  0  1  0  0  3  0  0  0  0  0  0
  181.1250  175.3640  136.4630 N   0  0  0  0  0  1  0  0  0  0  0  0
  181.7420  178.4180  143.2850 C   0  0  0  0  0  2  0  0  0  0  0  0
  179.9100  180.7950  140.7550 C   0  0  0  0  0  0  0  0  0  0  0  0
  185.0280  178.3300  139.4190 C   0  0  0  0  0  2  0  0  0  0  0  0
  183.4680  178.2360  141.4340 C   0  0  1  0  0  3  0  0  0  0  0  0
  181.7460  176.6150  138.4630 C   0  0  0  0  0  3  0  0  0  0  0  0
  179.0200  181.6510  141.4650 N   0  0  0  0  0  1  0  0  0  0  0  0
  183.9500  177.6230  138.6460 C   0  0  0  0  0  0  0  0  0  0  0  0
  184.2750  177.1110  137.3870 C   0  0  0  0  0  3  0  0  0  0  0  0
  183.0880  178.9070  142.7650 C   0  0  0  0  0  2  0  0  0  0  0  0
  180.5990  179.3180  142.8050 C   0  0  0  0  0  2  0  0  0  0  0  0
  180.6410  179.6960  141.3450 C   0  0  2  0  0  3  0  0  0  0  0  0
  185.6500  179.4730  141.5210 N   0  0  0  0  0  2  0  0  0  0  0  0
  186.6190  178.3890  141.6780 C   0  0  2  0  0  3  0  0  0  0  0  0
  187.2600  176.9720  143.4540 O   0  0  0  0  0  0  0  0  0  0  0  0
  186.6360  177.9610  143.1100 C   0  0  0  0  0  3  0  0  0  0  0  0
  188.0000  178.8800  141.2510 C   0  0  0  0  0  2  0  0  0  0  0  0
  189.8940  177.4390  140.8630 O   0  0  0  0  0  1  0  0  0  0  0  0
  188.7110  177.9160  140.2980 C   0  0  2  0  0  3  0  0  0  0  0  0
  188.9970  178.5510  138.9450 C   0  0  0  0  0  2  0  0  0  0  0  0
  189.2190  177.5180  137.9450 N   0  0  0  0  0  0  0  0  0  0  0  0
  189.2140  178.1760  136.6490 C   0  0  0  0  0  1  0  0  0  0  0  0
  188.0530  176.6540  137.9700 C   0  0  0  0  0  1  0  0  0  0  0  0
  1 14  1  0  0  0  0
  2  5  1  6  0  0  0
  2 13  1  0  0  0  0
  3  2  1  0  0  0  0
  3 20  1  0  0  0  0
  4 11  2  0  0  0  0
  6  1  2  0  0  0  0
  6 17  1  0  0  0  0
  7  4  1  0  0  0  0
  7  3  2  0  0  0  0
  8 13  1  0  0  0  0
  8 21  1  1  0  0  0
  9  1  1  0  0  0  0
 11 20  1  0  0  0  0
 11 15  1  0  0  0  0
 12  8  1  0  0  0  0
 13 18  1  1  0  0  0
 14  5  2  0  0  0  0
 16  5  1  0  0  0  0
 16 12  1  0  0  0  0
 17 16  2  0  0  0  0
 18 10  1  0  0  0  0
 19 10  1  0  0  0  0
 20 19  1  1  0  0  0
 21 22  1  0  0  0  0
 22 25  1  1  0  0  0
 22 24  1  0  0  0  0
 24 23  2  0  0  0  0
 27 26  1  1  0  0  0
 27 25  1  0  0  0  0
 28 27  1  0  0  0  0
 29 31  1  0  0  0  0
 29 28  1  0  0  0  0
 30 29  1  0  0  0  0
M  END
>  <MODEL>
3

>  <REMARK>
 VINA RESULT:      -6.2      4.315      8.661
  Name = 
  7 active torsions:
  status: ('A' for Active; 'I' for Inactive)
    1  A    between atoms: N_1  and  C_24
    2  A    between atoms: C_7  and  CA_9
    3  A    between atoms: C_7  and  C_19
    4  A    between atoms: CA_9  and  C_22
    5  A    between atoms: CA_9  and  N_23
    6  A    between atoms: C_15  and  N_23
    7  A    between atoms: C_19  and  C_24
                            x       y       z     vdW  Elec       q    Type
                         _______ _______ _______ _____ _____    ______ ____

>  <TORSDO>
F 7

$$$$
=
 OpenBabel11052413143D

 31 34  0  0  1  0  0  0  0  0999 V2000
  190.7960  176.5680  143.7900 C   0  0  0  0  0  0  0  0  0  0  0  0
  190.1580  176.2740  140.0630 C   0  0  1  0  0  3  0  0  0  0  0  0
  191.4740  176.6230  139.4110 C   0  0  0  0  0  0  0  0  0  0  0  0
  193.5470  177.5600  138.9390 N   0  0  0  0  0  0  0  0  0  0  0  0
  190.0720  176.7670  141.4830 C   0  0  0  0  0  0  0  0  0  0  0  0
  190.0650  177.7110  144.1210 C   0  0  0  0  0  3  0  0  0  0  0  0
  192.4840  177.6040  139.9360 C   0  0  0  0  0  2  0  0  0  0  0  0
  188.7020  178.2210  139.3680 C   0  0  1  0  0  3  0  0  0  0  0  0
  191.5410  175.8860  144.7910 N   0  0  0  0  0  1  0  0  0  0  0  0
  189.7340  174.9520  137.5720 C   0  0  0  0  0  2  0  0  0  0  0  0
  193.2050  176.7300  138.0150 C   0  0  0  0  0  0  0  0  0  0  0  0
  188.4580  178.6310  140.8250 C   0  0  0  0  0  2  0  0  0  0  0  0
  188.9380  176.7070  139.2220 C   0  0  1  0  0  3  0  0  0  0  0  0
  190.7990  176.0980  142.4760 C   0  0  0  0  0  3  0  0  0  0  0  0
  194.0300  176.4520  136.8870 N   0  0  0  0  0  1  0  0  0  0  0  0
  189.3400  177.9270  141.8180 C   0  0  0  0  0  0  0  0  0  0  0  0
  189.3340  178.3820  143.1390 C   0  0  0  0  0  3  0  0  0  0  0  0
  189.0290  176.2920  137.7450 C   0  0  0  0  0  2  0  0  0  0  0  0
  191.2370  175.1380  137.3420 C   0  0  0  0  0  2  0  0  0  0  0  0
  191.9160  176.1240  138.2610 C   0  0  0  0  0  0  0  0  0  0  0  0
  187.6310  178.7240  138.4980 N   0  0  0  0  0  2  0  0  0  0  0  0
  186.3640  178.0520  138.7850 C   0  0  2  0  0  3  0  0  0  0  0  0
  186.2870  177.8660  136.4320 O   0  0  0  0  0  0  0  0  0  0  0  0
  185.7510  177.6060  137.4960 C   0  0  0  0  0  3  0  0  0  0  0  0
  185.4320  179.0190  139.5120 C   0  0  0  0  0  2  0  0  0  0  0  0
  183.3620  178.2940  140.5130 O   0  0  0  0  0  1  0  0  0  0  0  0
  184.7390  178.3880  140.7210 C   0  0  2  0  0  3  0  0  0  0  0  0
  185.0220  179.1490  142.0090 C   0  0  0  0  0  2  0  0  0  0  0  0
  184.5450  178.3890  143.1540 N   0  0  0  0  0  0  0  0  0  0  0  0
  183.6830  179.2720  143.9190 C   0  0  0  0  0  1  0  0  0  0  0  0
  185.7020  178.1210  143.9890 C   0  0  0  0  0  1  0  0  0  0  0  0
  1  6  1  0  0  0  0
  1  9  1  0  0  0  0
  2  3  1  6  0  0  0
  2  5  1  0  0  0  0
  3  7  1  0  0  0  0
  4  7  1  0  0  0  0
  5 16  2  0  0  0  0
  5 14  1  0  0  0  0
  8 21  1  6  0  0  0
  8 12  1  0  0  0  0
 10 18  1  0  0  0  0
 11 20  1  0  0  0  0
 11  4  2  0  0  0  0
 12 16  1  0  0  0  0
 13 18  1  6  0  0  0
 13  8  1  0  0  0  0
 13  2  1  0  0  0  0
 14  1  2  0  0  0  0
 15 11  1  0  0  0  0
 16 17  1  0  0  0  0
 17  6  2  0  0  0  0
 19 10  1  0  0  0  0
 19 20  1  0  0  0  0
 20  3  2  0  0  0  0
 21 22  1  0  0  0  0
 22 24  1  6  0  0  0
 22 25  1  0  0  0  0
 23 24  2  0  0  0  0
 25 27  1  0  0  0  0
 27 26  1  6  0  0  0
 27 28  1  0  0  0  0
 28 29  1  0  0  0  0
 29 30  1  0  0  0  0
 29 31  1  0  0  0  0
M  END
>  <MODEL>
4

>  <REMARK>
 VINA RESULT:      -6.1      2.836      5.162
  Name = 
  7 active torsions:
  status: ('A' for Active; 'I' for Inactive)
    1  A    between atoms: N_1  and  C_24
    2  A    between atoms: C_7  and  CA_9
    3  A    between atoms: C_7  and  C_19
    4  A    between atoms: CA_9  and  C_22
    5  A    between atoms: CA_9  and  N_23
    6  A    between atoms: C_15  and  N_23
    7  A    between atoms: C_19  and  C_24
                            x       y       z     vdW  Elec       q    Type
                         _______ _______ _______ _____ _____    ______ ____

>  <TORSDO>
F 7

$$$$
=
 OpenBabel11052413143D

 31 34  0  0  1  0  0  0  0  0999 V2000
  187.3060  178.0670  136.0880 C   0  0  0  0  0  0  0  0  0  0  0  0
  190.5700  177.0320  137.7170 C   0  0  1  0  0  3  0  0  0  0  0  0
  190.7620  175.5850  137.3260 C   0  0  0  0  0  0  0  0  0  0  0  0
  190.3930  173.3640  136.7550 N   0  0  0  0  0  0  0  0  0  0  0  0
  189.1430  177.4830  137.5610 C   0  0  0  0  0  0  0  0  0  0  0  0
  186.4580  178.1950  137.1900 C   0  0  0  0  0  3  0  0  0  0  0  0
  189.6680  174.5800  137.1060 C   0  0  0  0  0  3  0  0  0  0  0  0
  190.1720  176.8460  140.2080 C   0  0  1  0  0  3  0  0  0  0  0  0
  186.8060  178.2930  134.7760 N   0  0  0  0  0  1  0  0  0  0  0  0
  193.3970  176.8940  138.0700 C   0  0  0  0  0  2  0  0  0  0  0  0
  191.6550  173.6190  136.7840 C   0  0  0  0  0  0  0  0  0  0  0  0
  188.7770  177.4730  140.0880 C   0  0  0  0  0  2  0  0  0  0  0  0
  191.1320  177.3540  139.1190 C   0  0  1  0  0  3  0  0  0  0  0  0
  188.6430  177.7130  136.2730 C   0  0  0  0  0  3  0  0  0  0  0  0
  192.6450  172.6390  136.4860 N   0  0  0  0  0  1  0  0  0  0  0  0
  188.2820  177.6040  138.6740 C   0  0  0  0  0  0  0  0  0  0  0  0
  186.9480  177.9710  138.4780 C   0  0  0  0  0  3  0  0  0  0  0  0
  192.5620  176.8340  139.3440 C   0  0  0  0  0  2  0  0  0  0  0  0
  193.3200  175.5770  137.2910 C   0  0  0  0  0  2  0  0  0  0  0  0
  191.9370  174.9910  137.1430 C   0  0  2  0  0  3  0  0  0  0  0  0
  190.7020  177.0100  141.5670 N   0  0  0  0  0  2  0  0  0  0  0  0
  189.6260  176.9790  142.5570 C   0  0  2  0  0  3  0  0  0  0  0  0
  190.3830  179.1140  143.2240 O   0  0  0  0  0  0  0  0  0  0  0  0
  189.4350  178.3550  143.1070 C   0  0  0  0  0  3  0  0  0  0  0  0
  189.9960  176.0050  143.6740 C   0  0  0  0  0  2  0  0  0  0  0  0
  192.0230  174.7970  144.1720 O   0  0  0  0  0  1  0  0  0  0  0  0
  191.4730  176.0760  144.0660 C   0  0  2  0  0  3  0  0  0  0  0  0
  191.6890  176.8460  145.3610 C   0  0  0  0  0  2  0  0  0  0  0  0
  191.2420  176.0540  146.4960 N   0  0  0  0  0  0  0  0  0  0  0  0
  190.1880  176.8090  147.1510 C   0  0  0  0  0  1  0  0  0  0  0  0
  192.3500  176.0010  147.4320 C   0  0  0  0  0  1  0  0  0  0  0  0
  1 14  2  0  0  0  0
  1  6  1  0  0  0  0
  2  3  1  1  0  0  0
  2 13  1  0  0  0  0
  4 11  2  0  0  0  0
  4  7  1  0  0  0  0
  5  2  1  0  0  0  0
  5 16  2  0  0  0  0
  6 17  2  0  0  0  0
  7  3  2  0  0  0  0
  8 21  1  1  0  0  0
  9  1  1  0  0  0  0
 10 18  1  0  0  0  0
 11 20  1  0  0  0  0
 12  8  1  0  0  0  0
 13 18  1  1  0  0  0
 13  8  1  0  0  0  0
 14  5  1  0  0  0  0
 15 11  1  0  0  0  0
 16 12  1  0  0  0  0
 17 16  1  0  0  0  0
 19 10  1  0  0  0  0
 20 19  1  1  0  0  0
 20  3  1  0  0  0  0
 21 22  1  0  0  0  0
 22 24  1  1  0  0  0
 22 25  1  0  0  0  0
 24 23  2  0  0  0  0
 25 27  1  0  0  0  0
 27 26  1  1  0  0  0
 27 28  1  0  0  0  0
 28 29  1  0  0  0  0
 29 30  1  0  0  0  0
 29 31  1  0  0  0  0
M  END
>  <MODEL>
5

>  <REMARK>
 VINA RESULT:      -6.0      2.027      2.560
  Name = 
  7 active torsions:
  status: ('A' for Active; 'I' for Inactive)
    1  A    between atoms: N_1  and  C_24
    2  A    between atoms: C_7  and  CA_9
    3  A    between atoms: C_7  and  C_19
    4  A    between atoms: CA_9  and  C_22
    5  A    between atoms: CA_9  and  N_23
    6  A    between atoms: C_15  and  N_23
    7  A    between atoms: C_19  and  C_24
                            x       y       z     vdW  Elec       q    Type
                         _______ _______ _______ _____ _____    ______ ____

>  <TORSDO>
F 7

$$$$
=
 OpenBabel11052413143D

 31 34  0  0  1  0  0  0  0  0999 V2000
  183.2970  176.6060  136.2470 C   0  0  0  0  0  0  0  0  0  0  0  0
  182.5950  178.1630  139.6330 C   0  0  1  0  0  3  0  0  0  0  0  0
  181.7820  179.4010  139.3340 C   0  0  0  0  0  0  0  0  0  0  0  0
  180.9100  181.3030  138.3260 N   0  0  0  0  0  0  0  0  0  0  0  0
  183.3480  177.6670  138.4280 C   0  0  0  0  0  0  0  0  0  0  0  0
  184.6660  176.8390  136.0970 C   0  0  0  0  0  3  0  0  0  0  0  0
  181.9080  180.2630  138.1100 C   0  0  0  0  0  3  0  0  0  0  0  0
  184.7540  179.1570  140.4940 C   0  0  1  0  0  3  0  0  0  0  0  0
  182.5700  175.9520  135.2140 N   0  0  0  0  0  1  0  0  0  0  0  0
  181.3450  178.4460  142.1800 C   0  0  0  0  0  2  0  0  0  0  0  0
  180.3350  181.0890  139.4590 C   0  0  0  0  0  0  0  0  0  0  0  0
  185.5680  178.5080  139.3680 C   0  0  0  0  0  2  0  0  0  0  0  0
  183.5110  178.3300  140.8640 C   0  0  1  0  0  3  0  0  0  0  0  0
  182.6410  177.0180  137.4080 C   0  0  0  0  0  3  0  0  0  0  0  0
  179.3030  181.9270  139.9700 N   0  0  0  0  0  1  0  0  0  0  0  0
  184.7310  177.9100  138.2720 C   0  0  0  0  0  0  0  0  0  0  0  0
  185.3800  177.4820  137.1100 C   0  0  0  0  0  3  0  0  0  0  0  0
  182.7930  178.9130  142.0920 C   0  0  0  0  0  2  0  0  0  0  0  0
  180.3990  179.4300  141.4850 C   0  0  0  0  0  2  0  0  0  0  0  0
  180.8510  179.9160  140.1300 C   0  0  2  0  0  3  0  0  0  0  0  0
  185.6110  179.4580  141.6490 N   0  0  0  0  0  2  0  0  0  0  0  0
  186.5620  178.3740  141.8930 C   0  0  2  0  0  3  0  0  0  0  0  0
  186.5230  178.0800  144.2360 O   0  0  0  0  0  0  0  0  0  0  0  0
  186.1690  177.6610  143.1470 C   0  0  0  0  0  3  0  0  0  0  0  0
  187.9670  178.9570  142.0280 C   0  0  0  0  0  2  0  0  0  0  0  0
  188.5290  177.2590  140.4120 O   0  0  0  0  0  1  0  0  0  0  0  0
  189.0500  178.0540  141.4330 C   0  0  2  0  0  3  0  0  0  0  0  0
  189.7150  177.1810  142.4870 C   0  0  0  0  0  2  0  0  0  0  0  0
  190.0720  177.9810  143.6480 N   0  0  0  0  0  0  0  0  0  0  0  0
  191.5050  178.2070  143.5830 C   0  0  0  0  0  1  0  0  0  0  0  0
  189.8410  177.1500  144.8160 C   0  0  0  0  0  1  0  0  0  0  0  0
  1 14  1  0  0  0  0
  2  5  1  6  0  0  0
  2 13  1  0  0  0  0
  3  2  1  0  0  0  0
  3 20  1  0  0  0  0
  4 11  2  0  0  0  0
  6  1  2  0  0  0  0
  6 17  1  0  0  0  0
  7  4  1  0  0  0  0
  7  3  2  0  0  0  0
  8 13  1  0  0  0  0
  8 21  1  1  0  0  0
  9  1  1  0  0  0  0
 11 15  1  0  0  0  0
 11 20  1  0  0  0  0
 12  8  1  0  0  0  0
 13 18  1  1  0  0  0
 14  5  2  0  0  0  0
 16  5  1  0  0  0  0
 16 12  1  0  0  0  0
 17 16  2  0  0  0  0
 18 10  1  0  0  0  0
 19 10  1  0  0  0  0
 20 19  1  1  0  0  0
 21 22  1  0  0  0  0
 22 25  1  1  0  0  0
 22 24  1  0  0  0  0
 24 23  2  0  0  0  0
 27 26  1  6  0  0  0
 27 25  1  0  0  0  0
 27 28  1  0  0  0  0
 28 29  1  0  0  0  0
 29 31  1  0  0  0  0
 30 29  1  0  0  0  0
M  END
>  <MODEL>
6

>  <REMARK>
 VINA RESULT:      -5.9      4.123      8.035
  Name = 
  7 active torsions:
  status: ('A' for Active; 'I' for Inactive)
    1  A    between atoms: N_1  and  C_24
    2  A    between atoms: C_7  and  CA_9
    3  A    between atoms: C_7  and  C_19
    4  A    between atoms: CA_9  and  C_22
    5  A    between atoms: CA_9  and  N_23
    6  A    between atoms: C_15  and  N_23
    7  A    between atoms: C_19  and  C_24
                            x       y       z     vdW  Elec       q    Type
                         _______ _______ _______ _____ _____    ______ ____

>  <TORSDO>
F 7

$$$$
=
 OpenBabel11052413143D

 31 34  0  0  1  0  0  0  0  0999 V2000
  182.1590  178.3250  140.8800 C   0  0  0  0  0  0  0  0  0  0  0  0
  185.4550  177.7400  142.6640 C   0  0  1  0  0  3  0  0  0  0  0  0
  185.3820  178.5900  143.9110 C   0  0  0  0  0  0  0  0  0  0  0  0
  184.9140  180.2890  145.4240 N   0  0  0  0  0  0  0  0  0  0  0  0
  184.4670  178.1740  141.6150 C   0  0  0  0  0  0  0  0  0  0  0  0
  182.5580  179.0700  139.7700 C   0  0  0  0  0  3  0  0  0  0  0  0
  184.6700  179.9060  144.0380 C   0  0  0  0  0  3  0  0  0  0  0  0
  187.2700  178.9060  141.3460 C   0  0  1  0  0  3  0  0  0  0  0  0
  180.7840  178.0230  141.0780 N   0  0  0  0  0  1  0  0  0  0  0  0
  187.3760  176.3240  144.2260 C   0  0  0  0  0  2  0  0  0  0  0  0
  185.6380  179.3780  145.9770 C   0  0  0  0  0  0  0  0  0  0  0  0
  186.3140  179.2010  140.1840 C   0  0  0  0  0  2  0  0  0  0  0  0
  186.8870  177.6210  142.1010 C   0  0  1  0  0  3  0  0  0  0  0  0
  183.1100  177.8780  141.8000 C   0  0  0  0  0  3  0  0  0  0  0  0
  186.0550  179.4470  147.3370 N   0  0  0  0  0  1  0  0  0  0  0  0
  184.8680  178.9360  140.4960 C   0  0  0  0  0  0  0  0  0  0  0  0
  183.9080  179.3680  139.5760 C   0  0  0  0  0  3  0  0  0  0  0  0
  187.9390  177.2590  143.1630 C   0  0  0  0  0  2  0  0  0  0  0  0
  186.8210  177.1080  145.4200 C   0  0  0  0  0  2  0  0  0  0  0  0
  185.9630  178.2990  145.0710 C   0  0  2  0  0  3  0  0  0  0  0  0
  188.6660  178.9110  140.8880 N   0  0  0  0  0  2  0  0  0  0  0  0
  188.8750  177.9190  139.8340 C   0  0  2  0  0  3  0  0  0  0  0  0
  190.4720  176.2170  139.4750 O   0  0  0  0  0  0  0  0  0  0  0  0
  189.9340  176.9610  140.2770 C   0  0  0  0  0  3  0  0  0  0  0  0
  189.2990  178.6280  138.5500 C   0  0  0  0  0  2  0  0  0  0  0  0
  187.6740  179.3560  136.9250 O   0  0  0  0  0  1  0  0  0  0  0  0
  188.4280  178.2610  137.3470 C   0  0  2  0  0  3  0  0  0  0  0  0
  187.5150  177.0780  137.6370 C   0  0  0  0  0  2  0  0  0  0  0  0
  188.0670  175.8650  137.0570 N   0  0  0  0  0  0  0  0  0  0  0  0
  188.5800  176.2180  135.7440 C   0  0  0  0  0  1  0  0  0  0  0  0
  186.9520  174.9630  136.8310 C   0  0  0  0  0  1  0  0  0  0  0  0
  1  9  1  0  0  0  0
  1 14  1  0  0  0  0
  2  5  1  6  0  0  0
  2  3  1  0  0  0  0
  3  7  2  0  0  0  0
  3 20  1  0  0  0  0
  4 11  2  0  0  0  0
  5 14  2  0  0  0  0
  6  1  2  0  0  0  0
  7  4  1  0  0  0  0
  8 21  1  6  0  0  0
  8 13  1  0  0  0  0
 10 19  1  0  0  0  0
 11 15  1  0  0  0  0
 12 16  1  0  0  0  0
 12  8  1  0  0  0  0
 13  2  1  0  0  0  0
 13 18  1  1  0  0  0
 16  5  1  0  0  0  0
 17  6  1  0  0  0  0
 17 16  2  0  0  0  0
 18 10  1  0  0  0  0
 20 19  1  6  0  0  0
 20 11  1  0  0  0  0
 22 25  1  6  0  0  0
 22 24  1  0  0  0  0
 22 21  1  0  0  0  0
 23 24  2  0  0  0  0
 27 26  1  1  0  0  0
 27 28  1  0  0  0  0
 27 25  1  0  0  0  0
 29 28  1  0  0  0  0
 30 29  1  0  0  0  0
 31 29  1  0  0  0  0
M  END
>  <MODEL>
7

>  <REMARK>
 VINA RESULT:      -5.9      3.011      7.811
  Name = 
  7 active torsions:
  status: ('A' for Active; 'I' for Inactive)
    1  A    between atoms: N_1  and  C_24
    2  A    between atoms: C_7  and  CA_9
    3  A    between atoms: C_7  and  C_19
    4  A    between atoms: CA_9  and  C_22
    5  A    between atoms: CA_9  and  N_23
    6  A    between atoms: C_15  and  N_23
    7  A    between atoms: C_19  and  C_24
                            x       y       z     vdW  Elec       q    Type
                         _______ _______ _______ _____ _____    ______ ____

>  <TORSDO>
F 7

$$$$
=
 OpenBabel11052413143D

 31 34  0  0  1  0  0  0  0  0999 V2000
  180.8040  174.4840  138.3820 C   0  0  0  0  0  0  0  0  0  0  0  0
  182.5980  177.1380  140.4120 C   0  0  1  0  0  3  0  0  0  0  0  0
  181.5590  178.2030  140.6710 C   0  0  0  0  0  0  0  0  0  0  0  0
  179.7460  179.6420  140.4710 N   0  0  0  0  0  0  0  0  0  0  0  0
  182.2270  176.2420  139.2610 C   0  0  0  0  0  0  0  0  0  0  0  0
  181.3920  174.6330  137.1250 C   0  0  0  0  0  3  0  0  0  0  0  0
  180.4350  178.5790  139.7480 C   0  0  0  0  0  3  0  0  0  0  0  0
  184.2020  178.3430  138.8730 C   0  0  1  0  0  3  0  0  0  0  0  0
  179.7780  173.5190  138.5780 N   0  0  0  0  0  1  0  0  0  0  0  0
  183.7940  178.3110  142.7200 C   0  0  0  0  0  2  0  0  0  0  0  0
  180.3640  179.8450  141.5840 C   0  0  0  0  0  0  0  0  0  0  0  0
  183.9680  177.3300  137.7450 C   0  0  0  0  0  2  0  0  0  0  0  0
  184.0230  177.7130  140.2650 C   0  0  1  0  0  3  0  0  0  0  0  0
  181.2200  175.2850  139.4460 C   0  0  0  0  0  3  0  0  0  0  0  0
  179.9430  180.8220  142.5300 N   0  0  0  0  0  1  0  0  0  0  0  0
  182.8150  176.3970  137.9870 C   0  0  0  0  0  0  0  0  0  0  0  0
  182.3990  175.5810  136.9310 C   0  0  0  0  0  3  0  0  0  0  0  0
  184.4080  178.6990  141.3810 C   0  0  0  0  0  2  0  0  0  0  0  0
  182.4430  179.0010  142.9350 C   0  0  0  0  0  2  0  0  0  0  0  0
  181.5070  178.9760  141.7520 C   0  0  2  0  0  3  0  0  0  0  0  0
  185.4950  179.0190  138.7070 N   0  0  0  0  0  2  0  0  0  0  0  0
  186.5660  178.0510  138.4740 C   0  0  2  0  0  3  0  0  0  0  0  0
  188.6570  178.8510  139.2270 O   0  0  0  0  0  0  0  0  0  0  0  0
  187.6310  178.2520  139.5040 C   0  0  0  0  0  3  0  0  0  0  0  0
  187.1350  178.2540  137.0710 C   0  0  0  0  0  2  0  0  0  0  0  0
  187.0600  175.8450  137.1240 O   0  0  0  0  0  1  0  0  0  0  0  0
  187.4820  176.9400  136.3690 C   0  0  2  0  0  3  0  0  0  0  0  0
  188.9690  176.8240  136.0660 C   0  0  0  0  0  2  0  0  0  0  0  0
  189.6190  175.9880  137.0620 N   0  0  0  0  0  0  0  0  0  0  0  0
  190.7340  176.7520  137.5950 C   0  0  0  0  0  1  0  0  0  0  0  0
  190.1970  174.8620  136.3520 C   0  0  0  0  0  1  0  0  0  0  0  0
  1  9  1  0  0  0  0
  1 14  1  0  0  0  0
  2  5  1  6  0  0  0
  2  3  1  0  0  0  0
  3 20  1  0  0  0  0
  4 11  2  0  0  0  0
  5 14  2  0  0  0  0
  6  1  2  0  0  0  0
  7  4  1  0  0  0  0
  7  3  2  0  0  0  0
  8 21  1  1  0  0  0
  8 13  1  0  0  0  0
 10 19  1  0  0  0  0
 11 20  1  0  0  0  0
 11 15  1  0  0  0  0
 12 16  1  0  0  0  0
 12  8  1  0  0  0  0
 13  2  1  0  0  0  0
 13 18  1  1  0  0  0
 16  5  1  0  0  0  0
 17  6  1  0  0  0  0
 17 16  2  0  0  0  0
 18 10  1  0  0  0  0
 20 19  1  6  0  0  0
 22 25  1  6  0  0  0
 22 21  1  0  0  0  0
 22 24  1  0  0  0  0
 23 24  2  0  0  0  0
 27 25  1  0  0  0  0
 27 26  1  1  0  0  0
 28 27  1  0  0  0  0
 28 29  1  0  0  0  0
 29 30  1  0  0  0  0
 31 29  1  0  0  0  0
M  END
>  <MODEL>
8

>  <REMARK>
 VINA RESULT:      -5.8      4.776      9.155
  Name = 
  7 active torsions:
  status: ('A' for Active; 'I' for Inactive)
    1  A    between atoms: N_1  and  C_24
    2  A    between atoms: C_7  and  CA_9
    3  A    between atoms: C_7  and  C_19
    4  A    between atoms: CA_9  and  C_22
    5  A    between atoms: CA_9  and  N_23
    6  A    between atoms: C_15  and  N_23
    7  A    between atoms: C_19  and  C_24
                            x       y       z     vdW  Elec       q    Type
                         _______ _______ _______ _____ _____    ______ ____

>  <TORSDO>
F 7

$$$$
=
 OpenBabel11052413143D

 31 34  0  0  1  0  0  0  0  0999 V2000
  184.0560  176.9670  136.4040 C   0  0  0  0  0  0  0  0  0  0  0  0
  182.7510  178.1810  139.7520 C   0  0  1  0  0  3  0  0  0  0  0  0
  181.9470  179.4190  139.4340 C   0  0  0  0  0  0  0  0  0  0  0  0
  181.1710  181.3830  138.4670 N   0  0  0  0  0  0  0  0  0  0  0  0
  183.7100  177.8200  138.6490 C   0  0  0  0  0  0  0  0  0  0  0  0
  185.4200  177.2480  136.5040 C   0  0  0  0  0  3  0  0  0  0  0  0
  182.2340  180.3940  138.3280 C   0  0  0  0  0  3  0  0  0  0  0  0
  184.7000  179.1460  141.0420 C   0  0  1  0  0  3  0  0  0  0  0  0
  183.5330  176.3930  135.2120 N   0  0  0  0  0  1  0  0  0  0  0  0
  181.0950  178.1900  142.0740 C   0  0  0  0  0  2  0  0  0  0  0  0
  180.4300  181.0490  139.4670 C   0  0  0  0  0  0  0  0  0  0  0  0
  185.7110  178.6270  140.0120 C   0  0  0  0  0  2  0  0  0  0  0  0
  183.4490  178.2550  141.1270 C   0  0  1  0  0  3  0  0  0  0  0  0
  183.2040  177.2510  137.4730 C   0  0  0  0  0  3  0  0  0  0  0  0
  179.2950  181.8080  139.8720 N   0  0  0  0  0  1  0  0  0  0  0  0
  185.0880  178.1120  138.7450 C   0  0  0  0  0  0  0  0  0  0  0  0
  185.9330  177.8120  137.6730 C   0  0  0  0  0  3  0  0  0  0  0  0
  182.5180  178.7020  142.2670 C   0  0  0  0  0  2  0  0  0  0  0  0
  180.2340  179.2090  141.3210 C   0  0  0  0  0  2  0  0  0  0  0  0
  180.8790  179.8320  140.1080 C   0  0  2  0  0  3  0  0  0  0  0  0
  185.3450  179.3600  142.3440 N   0  0  0  0  0  2  0  0  0  0  0  0
  185.9270  178.1180  142.8520 C   0  0  2  0  0  3  0  0  0  0  0  0
  185.5560  178.7330  145.1010 O   0  0  0  0  0  0  0  0  0  0  0  0
  185.4240  177.8810  144.2390 C   0  0  0  0  0  3  0  0  0  0  0  0
  187.4500  178.2360  142.8490 C   0  0  0  0  0  2  0  0  0  0  0  0
  188.7250  177.6110  144.7970 O   0  0  0  0  0  1  0  0  0  0  0  0
  188.1390  177.1170  143.6310 C   0  0  2  0  0  3  0  0  0  0  0  0
  189.1780  176.3850  142.7940 C   0  0  0  0  0  2  0  0  0  0  0  0
  189.9630  177.3380  142.0250 N   0  0  0  0  0  0  0  0  0  0  0  0
  189.9970  176.8510  140.6560 C   0  0  0  0  0  1  0  0  0  0  0  0
  191.3240  177.2570  142.5220 C   0  0  0  0  0  1  0  0  0  0  0  0
  1  6  2  0  0  0  0
  1 14  1  0  0  0  0
  2  5  1  6  0  0  0
  2 13  1  0  0  0  0
  3  2  1  0  0  0  0
  3 20  1  0  0  0  0
  4 11  2  0  0  0  0
  5 16  1  0  0  0  0
  6 17  1  0  0  0  0
  7  4  1  0  0  0  0
  7  3  2  0  0  0  0
  8 13  1  0  0  0  0
  8 21  1  1  0  0  0
  9  1  1  0  0  0  0
 10 18  1  0  0  0  0
 11 15  1  0  0  0  0
 11 20  1  0  0  0  0
 12  8  1  0  0  0  0
 13 18  1  1  0  0  0
 14  5  2  0  0  0  0
 16 12  1  0  0  0  0
 17 16  2  0  0  0  0
 19 10  1  0  0  0  0
 20 19  1  1  0  0  0
 21 22  1  0  0  0  0
 22 25  1  1  0  0  0
 22 24  1  0  0  0  0
 24 23  2  0  0  0  0
 25 27  1  0  0  0  0
 27 26  1  1  0  0  0
 28 27  1  0  0  0  0
 29 31  1  0  0  0  0
 29 28  1  0  0  0  0
 30 29  1  0  0  0  0
M  END
>  <MODEL>
9

>  <REMARK>
 VINA RESULT:      -5.8      3.884      7.957
  Name = 
  7 active torsions:
  status: ('A' for Active; 'I' for Inactive)
    1  A    between atoms: N_1  and  C_24
    2  A    between atoms: C_7  and  CA_9
    3  A    between atoms: C_7  and  C_19
    4  A    between atoms: CA_9  and  C_22
    5  A    between atoms: CA_9  and  N_23
    6  A    between atoms: C_15  and  N_23
    7  A    between atoms: C_19  and  C_24
                            x       y       z     vdW  Elec       q    Type
                         _______ _______ _______ _____ _____    ______ ____

>  <TORSDO>
F 7

$$$$
