=
 OpenBabel11052412343D

 30 34  0  0  1  0  0  0  0  0999 V2000
  188.0210  178.3930  141.9550 C   0  0  2  0  0  3  0  0  0  0  0  0
  191.0620  175.5360  143.2740 C   0  0  0  0  0  2  0  0  0  0  0  0
  187.5560  177.1220  142.6940 C   0  0  2  0  0  3  0  0  0  0  0  0
  186.8760  179.2010  141.3250 C   0  0  0  0  0  2  0  0  0  0  0  0
  185.6730  178.5150  145.8230 C   0  0  0  0  0  0  0  0  0  0  0  0
  185.2080  178.1100  142.8590 C   0  0  0  0  0  2  0  0  0  0  0  0
  187.9500  177.5150  145.5870 C   0  0  2  0  0  3  0  0  0  0  0  0
  190.2860  176.5940  145.3980 C   0  0  0  0  0  2  0  0  0  0  0  0
  185.5400  178.4670  141.4040 C   0  0  1  0  0  3  0  0  0  0  0  0
  186.3580  177.4140  143.6200 C   0  0  2  0  0  3  0  0  0  0  0  0
  188.3250  178.3000  146.8500 C   0  0  0  0  0  2  0  0  0  0  0  0
  185.7840  178.0500  147.2440 C   0  0  0  0  0  2  0  0  0  0  0  0
  189.9000  176.1690  142.4980 C   0  0  1  0  0  3  0  0  0  0  0  0
  189.1420  178.0800  140.9580 C   0  0  1  0  0  3  0  0  0  0  0  0
  188.7190  176.4650  143.4480 C   0  0  1  0  0  3  0  0  0  0  0  0
  191.4730  176.3990  144.4640 C   0  0  0  0  0  2  0  0  0  0  0  0
  189.1510  177.3080  144.6620 C   0  0  1  0  0  3  0  0  0  0  0  0
  187.1470  178.4370  147.8340 C   0  0  0  0  0  2  0  0  0  0  0  0
  184.7010  179.1690  145.4800 O   0  0  0  0  0  0  0  0  0  0  0  0
  190.3310  177.4160  141.6970 C   0  0  2  0  0  3  0  0  0  0  0  0
  186.8010  178.2340  144.8510 C   0  0  1  0  0  3  0  0  0  0  0  0
  184.6970  178.4640  138.6710 O   0  0  0  0  0  0  0  0  0  0  0  0
  184.4900  179.3050  140.8430 N   0  0  0  0  0  2  0  0  0  0  0  0
  183.0110  180.1130  138.9720 C   0  0  0  0  0  1  0  0  0  0  0  0
  184.1090  179.2440  139.4680 C   0  0  0  0  0  0  0  0  0  0  0  0
  188.6220  177.3700  139.6850 C   0  0  0  0  0  3  0  0  0  0  0  0
  189.5100  176.2460  139.1760 C   0  0  0  0  0  1  0  0  0  0  0  0
  188.3210  178.3570  138.5740 C   0  0  0  0  0  1  0  0  0  0  0  0
  192.6540  177.7730  140.9690 C   0  0  0  0  0  2  0  0  0  0  0  0
  191.4970  177.1390  140.7950 C   0  0  0  0  0  3  0  0  0  0  0  0
  1  4  1  6  0  0  0
  1  3  1  0  0  0  0
  2 16  1  0  0  0  0
  3 15  1  0  0  0  0
  3 10  1  0  0  0  0
  4  9  1  0  0  0  0
  5 12  1  0  0  0  0
  6 10  1  0  0  0  0
  7 11  1  0  0  0  0
  9  6  1  0  0  0  0
 10 21  1  0  0  0  0
 11 18  1  0  0  0  0
 12 18  1  0  0  0  0
 13  2  1  0  0  0  0
 13 15  1  0  0  0  0
 14 20  1  0  0  0  0
 14  1  1  0  0  0  0
 15 17  1  0  0  0  0
 16  8  1  0  0  0  0
 17  8  1  0  0  0  0
 17  7  1  0  0  0  0
 19  5  2  0  0  0  0
 20 13  1  0  0  0  0
 21  7  1  0  0  0  0
 21  5  1  0  0  0  0
 22 25  2  0  0  0  0
 23  9  1  0  0  0  0
 24 25  1  0  0  0  0
 25 23  1  0  0  0  0
 26 14  1  0  0  0  0
 27 26  1  0  0  0  0
 28 26  1  0  0  0  0
 30 29  2  0  0  0  0
 30 20  1  0  0  0  0
M  END
>  <MODEL>
1

>  <REMARK>
 VINA RESULT:      -9.3      0.000      0.000
  Name = 
  3 active torsions:
  status: ('A' for Active; 'I' for Inactive)
    1  A    between atoms: C_2  and  C_22
    2  A    between atoms: N_9  and  C_12
    3  A    between atoms: C_28  and  C_29
                            x       y       z     vdW  Elec       q    Type
                         _______ _______ _______ _____ _____    ______ ____

>  <TORSDO>
F 3

$$$$
=
 OpenBabel11052412343D

 30 34  0  0  1  0  0  0  0  0999 V2000
  189.1680  178.2640  143.3350 C   0  0  2  0  0  3  0  0  0  0  0  0
  188.6270  176.6280  147.3580 C   0  0  0  0  0  2  0  0  0  0  0  0
  188.1010  177.1700  143.5400 C   0  0  2  0  0  3  0  0  0  0  0  0
  189.4470  178.5930  141.8610 C   0  0  0  0  0  2  0  0  0  0  0  0
  184.7830  178.8990  142.4100 C   0  0  0  0  0  0  0  0  0  0  0  0
  187.2330  177.6130  141.1800 C   0  0  0  0  0  2  0  0  0  0  0  0
  185.6870  178.4090  144.6860 C   0  0  2  0  0  3  0  0  0  0  0  0
  186.5850  178.0190  147.0070 C   0  0  0  0  0  2  0  0  0  0  0  0
  188.7430  177.6270  140.9100 C   0  0  1  0  0  3  0  0  0  0  0  0
  186.8560  177.4250  142.6660 C   0  0  2  0  0  3  0  0  0  0  0  0
  184.8150  179.5700  145.1810 C   0  0  0  0  0  2  0  0  0  0  0  0
  183.4520  178.8730  143.1000 C   0  0  0  0  0  2  0  0  0  0  0  0
  189.0020  176.7490  145.8750 C   0  0  1  0  0  3  0  0  0  0  0  0
  190.4450  177.9510  144.1230 C   0  0  1  0  0  3  0  0  0  0  0  0
  187.7430  177.0190  145.0240 C   0  0  1  0  0  3  0  0  0  0  0  0
  187.8490  177.8500  147.8380 C   0  0  0  0  0  2  0  0  0  0  0  0
  186.9470  178.2340  145.5360 C   0  0  1  0  0  3  0  0  0  0  0  0
  183.4990  179.7000  144.3920 C   0  0  0  0  0  2  0  0  0  0  0  0
  184.8400  179.2010  141.2280 O   0  0  0  0  0  0  0  0  0  0  0  0
  190.1080  177.7970  145.6270 C   0  0  2  0  0  3  0  0  0  0  0  0
  186.0450  178.6250  143.2020 C   0  0  1  0  0  3  0  0  0  0  0  0
  190.1530  176.0700  138.9700 O   0  0  0  0  0  0  0  0  0  0  0  0
  189.0000  178.0250  139.5340 N   0  0  0  0  0  2  0  0  0  0  0  0
  189.9060  177.6520  137.2130 C   0  0  0  0  0  1  0  0  0  0  0  0
  189.7020  177.1900  138.6110 C   0  0  0  0  0  0  0  0  0  0  0  0
  191.2840  176.8260  143.4720 C   0  0  0  0  0  3  0  0  0  0  0  0
  192.0750  177.2500  142.2450 C   0  0  0  0  0  1  0  0  0  0  0  0
  190.4430  175.6020  143.1670 C   0  0  0  0  0  1  0  0  0  0  0  0
  191.7560  176.3150  146.6970 C   0  0  0  0  0  2  0  0  0  0  0  0
  191.3230  177.5540  146.4740 C   0  0  0  0  0  3  0  0  0  0  0  0
  1  4  1  6  0  0  0
  1  3  1  0  0  0  0
  1 14  1  0  0  0  0
  2 16  1  0  0  0  0
  3 15  1  0  0  0  0
  5 12  1  0  0  0  0
  5 21  1  0  0  0  0
  6 10  1  0  0  0  0
  7 11  1  0  0  0  0
  7 17  1  0  0  0  0
  8 16  1  0  0  0  0
  9  6  1  0  0  0  0
  9  4  1  0  0  0  0
 10 21  1  0  0  0  0
 10  3  1  0  0  0  0
 12 18  1  0  0  0  0
 13  2  1  0  0  0  0
 14 20  1  0  0  0  0
 15 17  1  0  0  0  0
 15 13  1  0  0  0  0
 17  8  1  0  0  0  0
 18 11  1  0  0  0  0
 19  5  2  0  0  0  0
 20 13  1  0  0  0  0
 20 30  1  0  0  0  0
 21  7  1  0  0  0  0
 23  9  1  0  0  0  0
 24 25  1  0  0  0  0
 25 22  2  0  0  0  0
 25 23  1  0  0  0  0
 26 14  1  0  0  0  0
 27 26  1  0  0  0  0
 28 26  1  0  0  0  0
 30 29  2  0  0  0  0
M  END
>  <MODEL>
2

>  <REMARK>
 VINA RESULT:      -9.1      1.996      4.281
  Name = 
  3 active torsions:
  status: ('A' for Active; 'I' for Inactive)
    1  A    between atoms: C_2  and  C_22
    2  A    between atoms: N_9  and  C_12
    3  A    between atoms: C_28  and  C_29
                            x       y       z     vdW  Elec       q    Type
                         _______ _______ _______ _____ _____    ______ ____

>  <TORSDO>
F 3

$$$$
=
 OpenBabel11052412343D

 30 34  0  0  1  0  0  0  0  0999 V2000
  187.2830  177.4380  143.6980 C   0  0  2  0  0  3  0  0  0  0  0  0
  191.4250  178.0130  144.9890 C   0  0  0  0  0  2  0  0  0  0  0  0
  188.0620  178.6410  143.1320 C   0  0  2  0  0  3  0  0  0  0  0  0
  185.7800  177.4630  143.3790 C   0  0  0  0  0  2  0  0  0  0  0  0
  188.0030  178.0410  139.2700 C   0  0  0  0  0  0  0  0  0  0  0  0
  186.1730  179.0460  141.4640 C   0  0  0  0  0  2  0  0  0  0  0  0
  189.8110  177.6940  140.9580 C   0  0  2  0  0  3  0  0  0  0  0  0
  191.6450  177.2440  142.6250 C   0  0  0  0  0  2  0  0  0  0  0  0
  185.3500  178.7770  142.7300 C   0  0  1  0  0  3  0  0  0  0  0  0
  187.6990  178.9060  141.6560 C   0  0  2  0  0  3  0  0  0  0  0  0
  190.3940  176.6610  139.9860 C   0  0  0  0  0  2  0  0  0  0  0  0
  189.1410  178.1690  138.3030 C   0  0  0  0  0  2  0  0  0  0  0  0
  189.9140  178.2150  144.8150 C   0  0  1  0  0  3  0  0  0  0  0  0
  187.5660  177.2430  145.1920 C   0  0  1  0  0  3  0  0  0  0  0  0
  189.5730  178.4630  143.3300 C   0  0  1  0  0  3  0  0  0  0  0  0
  191.9480  176.9060  144.0790 C   0  0  0  0  0  2  0  0  0  0  0  0
  190.1340  177.3580  142.4150 C   0  0  1  0  0  3  0  0  0  0  0  0
  190.1560  177.0360  138.5110 C   0  0  0  0  0  2  0  0  0  0  0  0
  186.8560  178.0610  138.8530 O   0  0  0  0  0  0  0  0  0  0  0  0
  189.0870  177.0580  145.4170 C   0  0  2  0  0  3  0  0  0  0  0  0
  188.2890  177.8110  140.7400 C   0  0  1  0  0  3  0  0  0  0  0  0
  183.2090  179.5130  144.4780 O   0  0  0  0  0  0  0  0  0  0  0  0
  183.9330  178.7170  142.4020 N   0  0  0  0  0  2  0  0  0  0  0  0
  181.4880  179.0480  142.9060 C   0  0  0  0  0  1  0  0  0  0  0  0
  182.9130  179.1130  143.3200 C   0  0  0  0  0  0  0  0  0  0  0  0
  186.8480  178.2920  146.0740 C   0  0  0  0  0  3  0  0  0  0  0  0
  187.5360  178.5900  147.3960 C   0  0  0  0  0  1  0  0  0  0  0  0
  185.3920  177.9350  146.2990 C   0  0  0  0  0  1  0  0  0  0  0  0
  190.4570  176.0010  147.1670 C   0  0  0  0  0  2  0  0  0  0  0  0
  189.4370  176.7960  146.8520 C   0  0  0  0  0  3  0  0  0  0  0  0
  1  4  1  1  0  0  0
  1 14  1  0  0  0  0
  3 15  1  0  0  0  0
  3  1  1  0  0  0  0
  5 21  1  0  0  0  0
  6 10  1  0  0  0  0
  6  9  1  0  0  0  0
  7 17  1  0  0  0  0
  8 16  1  0  0  0  0
  9  4  1  0  0  0  0
 10  3  1  0  0  0  0
 11  7  1  0  0  0  0
 12 18  1  0  0  0  0
 12  5  1  0  0  0  0
 13  2  1  0  0  0  0
 13 20  1  0  0  0  0
 14 20  1  0  0  0  0
 14 26  1  0  0  0  0
 15 13  1  0  0  0  0
 16  2  1  0  0  0  0
 17  8  1  0  0  0  0
 17 15  1  0  0  0  0
 18 11  1  0  0  0  0
 19  5  2  0  0  0  0
 20 30  1  0  0  0  0
 21  7  1  0  0  0  0
 21 10  1  0  0  0  0
 23  9  1  0  0  0  0
 23 25  1  0  0  0  0
 24 25  1  0  0  0  0
 25 22  2  0  0  0  0
 26 28  1  0  0  0  0
 26 27  1  0  0  0  0
 30 29  2  0  0  0  0
M  END
>  <MODEL>
3

>  <REMARK>
 VINA RESULT:      -8.8      1.493      5.306
  Name = 
  3 active torsions:
  status: ('A' for Active; 'I' for Inactive)
    1  A    between atoms: C_2  and  C_22
    2  A    between atoms: N_9  and  C_12
    3  A    between atoms: C_28  and  C_29
                            x       y       z     vdW  Elec       q    Type
                         _______ _______ _______ _____ _____    ______ ____

>  <TORSDO>
F 3

$$$$
=
 OpenBabel11052412343D

 30 34  0  0  1  0  0  0  0  0999 V2000
  189.8370  178.0690  143.5640 C   0  0  2  0  0  3  0  0  0  0  0  0
  187.0190  176.8900  146.6970 C   0  0  0  0  0  2  0  0  0  0  0  0
  188.8130  176.9620  143.2440 C   0  0  2  0  0  3  0  0  0  0  0  0
  190.9280  178.2360  142.4940 C   0  0  0  0  0  2  0  0  0  0  0  0
  186.8160  178.4070  140.2110 C   0  0  0  0  0  0  0  0  0  0  0  0
  189.4830  177.0910  140.7840 C   0  0  0  0  0  2  0  0  0  0  0  0
  186.2220  178.2230  142.6290 C   0  0  2  0  0  3  0  0  0  0  0  0
  185.6010  178.1430  145.0690 C   0  0  0  0  0  2  0  0  0  0  0  0
  190.8700  177.1380  141.4350 C   0  0  1  0  0  3  0  0  0  0  0  0
  188.3100  177.0620  141.7890 C   0  0  2  0  0  3  0  0  0  0  0  0
  185.2640  179.3960  142.3890 C   0  0  0  0  0  2  0  0  0  0  0  0
  185.3310  178.4050  140.0040 C   0  0  0  0  0  2  0  0  0  0  0  0
  188.1850  176.8540  145.7010 C   0  0  1  0  0  3  0  0  0  0  0  0
  190.4140  177.9040  144.9740 C   0  0  1  0  0  3  0  0  0  0  0  0
  187.6590  176.9700  144.2540 C   0  0  1  0  0  3  0  0  0  0  0  0
  186.1470  178.1250  146.4910 C   0  0  0  0  0  2  0  0  0  0  0  0
  186.7530  178.2010  144.0640 C   0  0  1  0  0  3  0  0  0  0  0  0
  184.6500  179.3780  140.9760 C   0  0  0  0  0  2  0  0  0  0  0  0
  187.5550  178.5720  139.2530 O   0  0  0  0  0  0  0  0  0  0  0  0
  189.2650  177.9110  146.0140 C   0  0  2  0  0  3  0  0  0  0  0  0
  187.3790  178.2810  141.6120 C   0  0  1  0  0  3  0  0  0  0  0  0
  191.1660  175.6840  138.9900 O   0  0  0  0  0  0  0  0  0  0  0  0
  191.8880  177.3840  140.4240 N   0  0  0  0  0  2  0  0  0  0  0  0
  193.0240  176.9500  138.2180 C   0  0  0  0  0  1  0  0  0  0  0  0
  191.9720  176.6260  139.2160 C   0  0  0  0  0  0  0  0  0  0  0  0
  191.4370  176.7480  145.0660 C   0  0  0  0  0  3  0  0  0  0  0  0
  191.0440  175.4880  144.3100 C   0  0  0  0  0  1  0  0  0  0  0  0
  191.7870  176.4190  146.5040 C   0  0  0  0  0  1  0  0  0  0  0  0
  189.1150  178.4450  148.4110 C   0  0  0  0  0  2  0  0  0  0  0  0
  189.7580  177.8200  147.4280 C   0  0  0  0  0  3  0  0  0  0  0  0
  1  4  1  6  0  0  0
  1 14  1  0  0  0  0
  3  1  1  0  0  0  0
  3 15  1  0  0  0  0
  5 21  1  0  0  0  0
  6  9  1  0  0  0  0
  6 10  1  0  0  0  0
  7 17  1  0  0  0  0
  8 16  1  0  0  0  0
  9  4  1  0  0  0  0
 10  3  1  0  0  0  0
 11  7  1  0  0  0  0
 12  5  1  0  0  0  0
 12 18  1  0  0  0  0
 13 20  1  0  0  0  0
 13  2  1  0  0  0  0
 14 26  1  0  0  0  0
 14 20  1  0  0  0  0
 15 13  1  0  0  0  0
 16  2  1  0  0  0  0
 17 15  1  0  0  0  0
 17  8  1  0  0  0  0
 18 11  1  0  0  0  0
 19  5  2  0  0  0  0
 20 30  1  0  0  0  0
 21 10  1  0  0  0  0
 21  7  1  0  0  0  0
 22 25  2  0  0  0  0
 23  9  1  0  0  0  0
 24 25  1  0  0  0  0
 25 23  1  0  0  0  0
 26 28  1  0  0  0  0
 27 26  1  0  0  0  0
 30 29  2  0  0  0  0
M  END
>  <MODEL>
4

>  <REMARK>
 VINA RESULT:      -8.2      2.352      5.852
  Name = 
  3 active torsions:
  status: ('A' for Active; 'I' for Inactive)
    1  A    between atoms: C_2  and  C_22
    2  A    between atoms: N_9  and  C_12
    3  A    between atoms: C_28  and  C_29
                            x       y       z     vdW  Elec       q    Type
                         _______ _______ _______ _____ _____    ______ ____

>  <TORSDO>
F 3

$$$$
=
 OpenBabel11052412343D

 30 34  0  0  1  0  0  0  0  0999 V2000
  188.2000  177.1680  142.1690 C   0  0  2  0  0  3  0  0  0  0  0  0
  192.2900  177.5090  140.6510 C   0  0  0  0  0  2  0  0  0  0  0  0
  188.5380  178.3560  141.2470 C   0  0  2  0  0  3  0  0  0  0  0  0
  186.8210  177.2720  142.8380 C   0  0  0  0  0  2  0  0  0  0  0  0
  186.0920  177.9040  138.2320 C   0  0  0  0  0  0  0  0  0  0  0  0
  186.0500  178.9060  141.0890 C   0  0  0  0  0  2  0  0  0  0  0  0
  188.5310  177.4140  138.4550 C   0  0  2  0  0  3  0  0  0  0  0  0
  190.9720  176.8210  138.6460 C   0  0  0  0  0  2  0  0  0  0  0  0
  186.1610  178.6270  142.5930 C   0  0  1  0  0  3  0  0  0  0  0  0
  187.3640  178.6910  140.3050 C   0  0  2  0  0  3  0  0  0  0  0  0
  188.3360  176.3930  137.3280 C   0  0  0  0  0  2  0  0  0  0  0  0
  186.4060  178.0180  136.7700 C   0  0  0  0  0  2  0  0  0  0  0  0
  191.0030  177.7850  141.4400 C   0  0  1  0  0  3  0  0  0  0  0  0
  189.3260  176.9050  143.1750 C   0  0  1  0  0  3  0  0  0  0  0  0
  189.8400  178.1030  140.4770 C   0  0  1  0  0  3  0  0  0  0  0  0
  192.0810  176.4150  139.6080 C   0  0  0  0  0  2  0  0  0  0  0  0
  189.6580  177.0090  139.4070 C   0  0  1  0  0  3  0  0  0  0  0  0
  187.2670  176.8340  136.3090 C   0  0  0  0  0  2  0  0  0  0  0  0
  184.9330  177.9910  138.6060 O   0  0  0  0  0  0  0  0  0  0  0  0
  190.6530  176.6440  142.4200 C   0  0  2  0  0  3  0  0  0  0  0  0
  187.2050  177.6070  139.2170 C   0  0  1  0  0  3  0  0  0  0  0  0
  185.6090  179.1750  145.3450 O   0  0  0  0  0  0  0  0  0  0  0  0
  184.8390  178.6420  143.2020 N   0  0  0  0  0  2  0  0  0  0  0  0
  183.2510  178.9590  145.1320 C   0  0  0  0  0  1  0  0  0  0  0  0
  184.6330  178.9370  144.5850 C   0  0  0  0  0  0  0  0  0  0  0  0
  189.3600  177.9500  144.3150 C   0  0  0  0  0  3  0  0  0  0  0  0
  190.5710  178.8700  144.2980 C   0  0  0  0  0  1  0  0  0  0  0  0
  189.2000  177.3040  145.6770 C   0  0  0  0  0  1  0  0  0  0  0  0
  191.7750  175.1940  144.0610 C   0  0  0  0  0  2  0  0  0  0  0  0
  191.7910  176.3120  143.3390 C   0  0  0  0  0  3  0  0  0  0  0  0
  1  4  1  1  0  0  0
  1 14  1  0  0  0  0
  2 13  1  0  0  0  0
  3  1  1  0  0  0  0
  5 19  2  0  0  0  0
  5 21  1  0  0  0  0
  6  9  1  0  0  0  0
  7 21  1  0  0  0  0
  7 17  1  0  0  0  0
  8 17  1  0  0  0  0
  8 16  1  0  0  0  0
  9  4  1  0  0  0  0
  9 23  1  0  0  0  0
 10  6  1  0  0  0  0
 10  3  1  0  0  0  0
 11  7  1  0  0  0  0
 12  5  1  0  0  0  0
 13 20  1  0  0  0  0
 14 26  1  0  0  0  0
 15  3  1  0  0  0  0
 15 13  1  0  0  0  0
 16  2  1  0  0  0  0
 17 15  1  0  0  0  0
 18 12  1  0  0  0  0
 18 11  1  0  0  0  0
 20 14  1  0  0  0  0
 20 30  1  0  0  0  0
 21 10  1  0  0  0  0
 23 25  1  0  0  0  0
 25 24  1  0  0  0  0
 25 22  2  0  0  0  0
 26 28  1  0  0  0  0
 27 26  1  0  0  0  0
 30 29  2  0  0  0  0
M  END
>  <MODEL>
5

>  <REMARK>
 VINA RESULT:      -8.1      1.600      5.624
  Name = 
  3 active torsions:
  status: ('A' for Active; 'I' for Inactive)
    1  A    between atoms: C_2  and  C_22
    2  A    between atoms: N_9  and  C_12
    3  A    between atoms: C_28  and  C_29
                            x       y       z     vdW  Elec       q    Type
                         _______ _______ _______ _____ _____    ______ ____

>  <TORSDO>
F 3

$$$$
=
 OpenBabel11052412343D

 30 34  0  0  1  0  0  0  0  0999 V2000
  187.5410  178.5320  141.3300 C   0  0  2  0  0  3  0  0  0  0  0  0
  190.8850  176.5270  139.3440 C   0  0  0  0  0  2  0  0  0  0  0  0
  187.9380  177.1240  141.8150 C   0  0  2  0  0  3  0  0  0  0  0  0
  186.2160  179.0420  141.9190 C   0  0  0  0  0  2  0  0  0  0  0  0
  188.8330  177.6660  145.5810 C   0  0  0  0  0  0  0  0  0  0  0  0
  186.3830  177.4050  143.8200 C   0  0  0  0  0  2  0  0  0  0  0  0
  190.2890  177.3610  143.5750 C   0  0  2  0  0  3  0  0  0  0  0  0
  191.8090  177.1420  141.5790 C   0  0  0  0  0  2  0  0  0  0  0  0
  185.4830  177.9630  142.7120 C   0  0  1  0  0  3  0  0  0  0  0  0
  187.7940  176.9920  143.3450 C   0  0  2  0  0  3  0  0  0  0  0  0
  191.3730  178.1070  144.3620 C   0  0  0  0  0  2  0  0  0  0  0  0
  190.0150  177.1300  146.3310 C   0  0  0  0  0  2  0  0  0  0  0  0
  189.4630  176.8770  139.8010 C   0  0  1  0  0  3  0  0  0  0  0  0
  187.5830  178.6280  139.8020 C   0  0  1  0  0  3  0  0  0  0  0  0
  189.3470  176.7520  141.3360 C   0  0  1  0  0  3  0  0  0  0  0  0
  191.9290  177.3640  140.0770 C   0  0  0  0  0  2  0  0  0  0  0  0
  190.4250  177.5740  142.0660 C   0  0  1  0  0  3  0  0  0  0  0  0
  191.3050  177.8270  145.8760 C   0  0  0  0  0  2  0  0  0  0  0  0
  187.8550  178.0530  146.2010 O   0  0  0  0  0  0  0  0  0  0  0  0
  188.9990  178.2590  139.2930 C   0  0  2  0  0  3  0  0  0  0  0  0
  188.8950  177.7930  144.0730 C   0  0  1  0  0  3  0  0  0  0  0  0
  182.9830  178.2550  141.3530 O   0  0  0  0  0  0  0  0  0  0  0  0
  184.2690  178.5220  143.2880 N   0  0  0  0  0  2  0  0  0  0  0  0
  181.8410  179.1870  143.2180 C   0  0  0  0  0  1  0  0  0  0  0  0
  183.0470  178.6280  142.5560 C   0  0  0  0  0  0  0  0  0  0  0  0
  186.3870  177.9150  139.1280 C   0  0  0  0  0  3  0  0  0  0  0  0
  186.7590  177.0060  137.9680 C   0  0  0  0  0  1  0  0  0  0  0  0
  185.3080  178.8950  138.7130 C   0  0  0  0  0  1  0  0  0  0  0  0
  189.0560  179.5880  137.2230 C   0  0  0  0  0  2  0  0  0  0  0  0
  189.1370  178.3940  137.8050 C   0  0  0  0  0  3  0  0  0  0  0  0
  1  3  1  0  0  0  0
  1  4  1  6  0  0  0
  2 13  1  0  0  0  0
  2 16  1  0  0  0  0
  3 10  1  0  0  0  0
  4  9  1  0  0  0  0
  5 19  2  0  0  0  0
  5 12  1  0  0  0  0
  7 21  1  0  0  0  0
  7 11  1  0  0  0  0
  8 17  1  0  0  0  0
  9 23  1  0  0  0  0
  9  6  1  0  0  0  0
 10  6  1  0  0  0  0
 10 21  1  0  0  0  0
 11 18  1  0  0  0  0
 13 15  1  0  0  0  0
 14  1  1  0  0  0  0
 15  3  1  0  0  0  0
 15 17  1  0  0  0  0
 16  8  1  0  0  0  0
 17  7  1  0  0  0  0
 18 12  1  0  0  0  0
 20 13  1  0  0  0  0
 20 14  1  0  0  0  0
 21  5  1  0  0  0  0
 22 25  2  0  0  0  0
 25 24  1  0  0  0  0
 25 23  1  0  0  0  0
 26 14  1  0  0  0  0
 27 26  1  0  0  0  0
 28 26  1  0  0  0  0
 29 30  2  0  0  0  0
 30 20  1  0  0  0  0
M  END
>  <MODEL>
6

>  <REMARK>
 VINA RESULT:      -8.0      1.743      3.215
  Name = 
  3 active torsions:
  status: ('A' for Active; 'I' for Inactive)
    1  A    between atoms: C_2  and  C_22
    2  A    between atoms: N_9  and  C_12
    3  A    between atoms: C_28  and  C_29
                            x       y       z     vdW  Elec       q    Type
                         _______ _______ _______ _____ _____    ______ ____

>  <TORSDO>
F 3

$$$$
=
 OpenBabel11052412343D

 30 34  0  0  1  0  0  0  0  0999 V2000
  186.6570  178.8740  142.5220 C   0  0  2  0  0  3  0  0  0  0  0  0
  190.1870  176.5680  141.3500 C   0  0  0  0  0  2  0  0  0  0  0  0
  186.8130  177.4450  143.0810 C   0  0  2  0  0  3  0  0  0  0  0  0
  185.2810  179.5010  142.7930 C   0  0  0  0  0  2  0  0  0  0  0  0
  186.8640  177.9730  146.9540 C   0  0  0  0  0  0  0  0  0  0  0  0
  184.8700  177.8860  144.6770 C   0  0  0  0  0  2  0  0  0  0  0  0
  188.7100  177.5160  145.3350 C   0  0  2  0  0  3  0  0  0  0  0  0
  190.6230  177.1400  143.7400 C   0  0  0  0  0  2  0  0  0  0  0  0
  184.2970  178.4990  143.3930 C   0  0  1  0  0  3  0  0  0  0  0  0
  186.3120  177.3510  144.5370 C   0  0  2  0  0  3  0  0  0  0  0  0
  189.6440  178.1830  146.3520 C   0  0  0  0  0  2  0  0  0  0  0  0
  187.7940  177.3530  147.9530 C   0  0  0  0  0  2  0  0  0  0  0  0
  188.7320  177.0410  141.4700 C   0  0  1  0  0  3  0  0  0  0  0  0
  187.0560  178.9410  141.0450 C   0  0  1  0  0  3  0  0  0  0  0  0
  188.2580  176.9520  142.9360 C   0  0  1  0  0  3  0  0  0  0  0  0
  191.1010  177.3280  142.3060 C   0  0  0  0  0  2  0  0  0  0  0  0
  189.2060  177.6940  143.8980 C   0  0  1  0  0  3  0  0  0  0  0  0
  189.2070  177.9340  147.8080 C   0  0  0  0  0  2  0  0  0  0  0  0
  185.8060  178.4490  147.3330 O   0  0  0  0  0  0  0  0  0  0  0  0
  188.5150  178.4490  140.8730 C   0  0  2  0  0  3  0  0  0  0  0  0
  187.2810  178.0700  145.5000 C   0  0  1  0  0  3  0  0  0  0  0  0
  181.9300  178.3200  141.7970 O   0  0  0  0  0  0  0  0  0  0  0  0
  183.0350  179.1650  143.6770 N   0  0  0  0  0  2  0  0  0  0  0  0
  180.6220  179.7140  143.2090 C   0  0  0  0  0  1  0  0  0  0  0  0
  181.8850  179.0230  142.8420 C   0  0  0  0  0  0  0  0  0  0  0  0
  185.9910  178.3180  140.1120 C   0  0  0  0  0  3  0  0  0  0  0  0
  186.4840  177.9870  138.7130 C   0  0  0  0  0  1  0  0  0  0  0  0
  184.7350  179.1650  140.0480 C   0  0  0  0  0  1  0  0  0  0  0  0
  189.8070  177.6160  138.9510 C   0  0  0  0  0  2  0  0  0  0  0  0
  189.0010  178.5480  139.4570 C   0  0  0  0  0  3  0  0  0  0  0  0
  1  4  1  6  0  0  0
  1  3  1  0  0  0  0
  2 13  1  0  0  0  0
  2 16  1  0  0  0  0
  3 10  1  0  0  0  0
  4  9  1  0  0  0  0
  5 19  2  0  0  0  0
  5 12  1  0  0  0  0
  7 21  1  0  0  0  0
  7 11  1  0  0  0  0
  8 17  1  0  0  0  0
  9 23  1  0  0  0  0
  9  6  1  0  0  0  0
 10  6  1  0  0  0  0
 10 21  1  0  0  0  0
 11 18  1  0  0  0  0
 13 15  1  0  0  0  0
 14  1  1  0  0  0  0
 15  3  1  0  0  0  0
 15 17  1  0  0  0  0
 16  8  1  0  0  0  0
 17  7  1  0  0  0  0
 18 12  1  0  0  0  0
 20 14  1  0  0  0  0
 20 13  1  0  0  0  0
 21  5  1  0  0  0  0
 22 25  2  0  0  0  0
 25 24  1  0  0  0  0
 25 23  1  0  0  0  0
 26 14  1  0  0  0  0
 27 26  1  0  0  0  0
 28 26  1  0  0  0  0
 29 30  2  0  0  0  0
 30 20  1  0  0  0  0
M  END
>  <MODEL>
7

>  <REMARK>
 VINA RESULT:      -7.9      1.838      2.543
  Name = 
  3 active torsions:
  status: ('A' for Active; 'I' for Inactive)
    1  A    between atoms: C_2  and  C_22
    2  A    between atoms: N_9  and  C_12
    3  A    between atoms: C_28  and  C_29
                            x       y       z     vdW  Elec       q    Type
                         _______ _______ _______ _____ _____    ______ ____

>  <TORSDO>
F 3

$$$$
=
 OpenBabel11052412343D

 30 34  0  0  1  0  0  0  0  0999 V2000
  188.5100  178.2460  144.6480 C   0  0  2  0  0  3  0  0  0  0  0  0
  184.6190  177.9250  142.6720 C   0  0  0  0  0  2  0  0  0  0  0  0
  188.2330  177.0010  143.7830 C   0  0  2  0  0  3  0  0  0  0  0  0
  189.7950  178.1480  145.4860 C   0  0  0  0  0  2  0  0  0  0  0  0
  191.0370  177.1250  141.0630 C   0  0  0  0  0  0  0  0  0  0  0  0
  190.6950  176.3540  143.9710 C   0  0  0  0  0  2  0  0  0  0  0  0
  188.6130  177.7150  140.9500 C   0  0  2  0  0  3  0  0  0  0  0  0
  186.1950  178.4050  140.7970 C   0  0  0  0  0  2  0  0  0  0  0  0
  190.4190  176.7570  145.4250 C   0  0  1  0  0  3  0  0  0  0  0  0
  189.4950  176.5510  143.0190 C   0  0  2  0  0  3  0  0  0  0  0  0
  188.9850  178.6350  139.7810 C   0  0  0  0  0  2  0  0  0  0  0  0
  190.8950  176.9060  139.5870 C   0  0  0  0  0  2  0  0  0  0  0  0
  185.7890  177.6700  143.6310 C   0  0  1  0  0  3  0  0  0  0  0  0
  187.2860  178.6280  145.4860 C   0  0  1  0  0  3  0  0  0  0  0  0
  187.0440  177.2360  142.8430 C   0  0  1  0  0  3  0  0  0  0  0  0
  184.9980  178.9240  141.5830 C   0  0  0  0  0  2  0  0  0  0  0  0
  187.3990  178.2330  141.7250 C   0  0  1  0  0  3  0  0  0  0  0  0
  190.1470  178.0780  138.9370 C   0  0  0  0  0  2  0  0  0  0  0  0
  192.1380  177.0280  141.5810 O   0  0  0  0  0  0  0  0  0  0  0  0
  186.0710  178.8730  144.5570 C   0  0  2  0  0  3  0  0  0  0  0  0
  189.8290  177.5380  141.8800 C   0  0  1  0  0  3  0  0  0  0  0  0
  190.9120  175.1780  147.7590 O   0  0  0  0  0  0  0  0  0  0  0  0
  191.6570  176.7440  146.1910 N   0  0  0  0  0  2  0  0  0  0  0  0
  193.1430  175.9420  148.0600 C   0  0  0  0  0  1  0  0  0  0  0  0
  191.8420  175.9200  147.3430 C   0  0  0  0  0  0  0  0  0  0  0  0
  187.0700  177.6780  146.6890 C   0  0  0  0  0  3  0  0  0  0  0  0
  185.6200  177.5030  147.1090 C   0  0  0  0  0  1  0  0  0  0  0  0
  187.9260  178.0710  147.8770 C   0  0  0  0  0  1  0  0  0  0  0  0
  183.6660  179.3780  144.6910 C   0  0  0  0  0  2  0  0  0  0  0  0
  184.8460  179.3150  145.3030 C   0  0  0  0  0  3  0  0  0  0  0  0
  1  4  1  1  0  0  0
  1 14  1  0  0  0  0
  2 13  1  0  0  0  0
  3  1  1  0  0  0  0
  5 19  2  0  0  0  0
  5 21  1  0  0  0  0
  6  9  1  0  0  0  0
  7 17  1  0  0  0  0
  7 21  1  0  0  0  0
  8 16  1  0  0  0  0
  8 17  1  0  0  0  0
  9  4  1  0  0  0  0
  9 23  1  0  0  0  0
 10  3  1  0  0  0  0
 10  6  1  0  0  0  0
 11  7  1  0  0  0  0
 12  5  1  0  0  0  0
 13 20  1  0  0  0  0
 14 26  1  0  0  0  0
 15 13  1  0  0  0  0
 15  3  1  0  0  0  0
 16  2  1  0  0  0  0
 17 15  1  0  0  0  0
 18 12  1  0  0  0  0
 18 11  1  0  0  0  0
 20 30  1  0  0  0  0
 20 14  1  0  0  0  0
 21 10  1  0  0  0  0
 23 25  1  0  0  0  0
 25 22  2  0  0  0  0
 25 24  1  0  0  0  0
 26 27  1  0  0  0  0
 26 28  1  0  0  0  0
 29 30  2  0  0  0  0
M  END
>  <MODEL>
8

>  <REMARK>
 VINA RESULT:      -7.6      2.961      7.509
  Name = 
  3 active torsions:
  status: ('A' for Active; 'I' for Inactive)
    1  A    between atoms: C_2  and  C_22
    2  A    between atoms: N_9  and  C_12
    3  A    between atoms: C_28  and  C_29
                            x       y       z     vdW  Elec       q    Type
                         _______ _______ _______ _____ _____    ______ ____

>  <TORSDO>
F 3

$$$$
=
 OpenBabel11052412343D

 30 34  0  0  1  0  0  0  0  0999 V2000
  187.5100  177.2690  143.2180 C   0  0  2  0  0  3  0  0  0  0  0  0
  188.4600  178.6820  139.1870 C   0  0  0  0  0  2  0  0  0  0  0  0
  187.0720  178.6940  142.8230 C   0  0  2  0  0  3  0  0  0  0  0  0
  187.3490  176.9620  144.7150 C   0  0  0  0  0  2  0  0  0  0  0  0
  183.1900  178.6190  143.2650 C   0  0  0  0  0  0  0  0  0  0  0  0
  185.6880  178.8330  144.9630 C   0  0  0  0  0  2  0  0  0  0  0  0
  184.6110  178.5130  141.2140 C   0  0  2  0  0  3  0  0  0  0  0  0
  185.9930  178.3160  139.1170 C   0  0  0  0  0  2  0  0  0  0  0  0
  186.9690  178.2010  145.5220 C   0  0  1  0  0  3  0  0  0  0  0  0
  185.7030  179.0540  143.4340 C   0  0  2  0  0  3  0  0  0  0  0  0
  183.4310  177.7970  140.5450 C   0  0  0  0  0  2  0  0  0  0  0  0
  182.1480  179.1560  142.3290 C   0  0  0  0  0  2  0  0  0  0  0  0
  188.4720  178.5220  140.7130 C   0  0  1  0  0  3  0  0  0  0  0  0
  188.9160  176.9540  142.6980 C   0  0  1  0  0  3  0  0  0  0  0  0
  187.0880  178.8730  141.2990 C   0  0  1  0  0  3  0  0  0  0  0  0
  187.3350  177.8730  138.5500 C   0  0  0  0  0  2  0  0  0  0  0  0
  185.9550  178.0750  140.6270 C   0  0  1  0  0  3  0  0  0  0  0  0
  182.0680  178.2940  141.0610 C   0  0  0  0  0  2  0  0  0  0  0  0
  182.8970  178.4090  144.4310 O   0  0  0  0  0  0  0  0  0  0  0  0
  188.9570  177.1260  141.1590 C   0  0  2  0  0  3  0  0  0  0  0  0
  184.5670  178.2740  142.7360 C   0  0  1  0  0  3  0  0  0  0  0  0
  189.0050  178.1920  147.5300 O   0  0  0  0  0  0  0  0  0  0  0  0
  186.7770  177.8340  146.9170 N   0  0  0  0  0  2  0  0  0  0  0  0
  187.5620  177.4990  149.2870 C   0  0  0  0  0  1  0  0  0  0  0  0
  187.8380  177.8640  147.8730 C   0  0  0  0  0  0  0  0  0  0  0  0
  190.0240  177.6620  143.5130 C   0  0  0  0  0  3  0  0  0  0  0  0
  190.6730  178.8450  142.8110 C   0  0  0  0  0  1  0  0  0  0  0  0
  191.0780  176.6860  143.9980 C   0  0  0  0  0  1  0  0  0  0  0  0
  190.3680  176.2380  139.3490 C   0  0  0  0  0  2  0  0  0  0  0  0
  190.2880  176.7690  140.5670 C   0  0  0  0  0  3  0  0  0  0  0  0
  1  4  1  1  0  0  0
  2 13  1  0  0  0  0
  3  1  1  0  0  0  0
  3 10  1  0  0  0  0
  4  9  1  0  0  0  0
  5 19  2  0  0  0  0
  6  9  1  0  0  0  0
  7 21  1  0  0  0  0
  8 17  1  0  0  0  0
  9 23  1  0  0  0  0
 10  6  1  0  0  0  0
 11 18  1  0  0  0  0
 11  7  1  0  0  0  0
 12  5  1  0  0  0  0
 13 20  1  0  0  0  0
 13 15  1  0  0  0  0
 14  1  1  0  0  0  0
 14 26  1  0  0  0  0
 15  3  1  0  0  0  0
 16  8  1  0  0  0  0
 16  2  1  0  0  0  0
 17  7  1  0  0  0  0
 17 15  1  0  0  0  0
 18 12  1  0  0  0  0
 20 14  1  0  0  0  0
 21  5  1  0  0  0  0
 21 10  1  0  0  0  0
 22 25  2  0  0  0  0
 23 25  1  0  0  0  0
 25 24  1  0  0  0  0
 26 28  1  0  0  0  0
 27 26  1  0  0  0  0
 29 30  2  0  0  0  0
 30 20  1  0  0  0  0
M  END
>  <MODEL>
9

>  <REMARK>
 VINA RESULT:      -7.5      2.123      5.598
  Name = 
  3 active torsions:
  status: ('A' for Active; 'I' for Inactive)
    1  A    between atoms: C_2  and  C_22
    2  A    between atoms: N_9  and  C_12
    3  A    between atoms: C_28  and  C_29
                            x       y       z     vdW  Elec       q    Type
                         _______ _______ _______ _____ _____    ______ ____

>  <TORSDO>
F 3

$$$$
