=
 OpenBabel11052413433D

 27 30  0  0  1  0  0  0  0  0999 V2000
  182.8000  178.9110  142.2970 C   0  0  1  0  0  3  0  0  0  0  0  0
  183.7490  178.3960  143.3910 C   0  0  2  0  0  3  0  0  0  0  0  0
  186.8190  178.1470  146.4380 C   0  0  0  0  0  3  0  0  0  0  0  0
  188.7530  177.1190  147.2150 F   0  0  0  0  0  0  0  0  0  0  0  0
  183.5680  179.1910  144.6870 C   0  0  0  0  0  2  0  0  0  0  0  0
  187.5440  177.7990  143.6810 C   0  0  0  0  0  2  0  0  0  0  0  0
  188.3820  177.1270  144.7740 C   0  0  0  0  0  2  0  0  0  0  0  0
  185.2180  178.3680  142.9580 C   0  0  0  0  0  2  0  0  0  0  0  0
  187.9830  177.5320  146.1760 C   0  0  0  0  0  0  0  0  0  0  0  0
  185.9120  178.6340  145.3410 C   0  0  1  0  0  3  0  0  0  0  0  0
  186.0770  177.7900  144.0760 C   0  0  2  0  0  3  0  0  0  0  0  0
  184.4580  178.6280  145.7940 C   0  0  0  0  0  2  0  0  0  0  0  0
  182.8980  178.2580  140.8930 C   0  0  0  0  0  0  0  0  0  0  0  0
  180.5410  177.3760  140.4210 O   0  0  0  0  0  0  0  0  0  0  0  0
  181.3930  180.4000  138.9260 O   0  0  0  0  0  0  0  0  0  0  0  0
  182.3320  178.4420  137.6610 O   0  0  0  0  0  0  0  0  0  0  0  0
  183.6000  177.0650  140.9540 F   0  0  0  0  0  0  0  0  0  0  0  0
  182.1450  179.1020  138.9990 S   0  0  0  0  0  0  0  0  0  0  0  0
  183.6020  179.1960  139.9320 C   0  0  0  0  0  0  0  0  0  0  0  0
  184.6830  179.7540  139.8480 O   0  0  0  0  0  0  0  0  0  0  0  0
  181.5530  178.0270  140.2210 C   0  0  0  0  0  0  0  0  0  0  0  0
  179.3970  180.3600  142.8250 C   0  0  0  0  0  3  0  0  0  0  0  0
  180.8730  178.0180  143.6260 C   0  0  0  0  0  2  0  0  0  0  0  0
  181.4280  179.0750  142.7750 N   0  0  0  0  0  0  0  0  0  0  0  0
  180.5930  180.1380  142.2820 C   0  0  0  0  0  3  0  0  0  0  0  0
  178.9310  179.5280  143.9430 C   0  0  0  0  0  3  0  0  0  0  0  0
  179.6260  178.4630  144.3430 C   0  0  0  0  0  3  0  0  0  0  0  0
  1 13  1  6  0  0  0
  1 24  1  0  0  0  0
  2  1  1  6  0  0  0
  2  5  1  0  0  0  0
  5 12  1  0  0  0  0
  6 11  1  0  0  0  0
  6  7  1  0  0  0  0
  7  9  1  0  0  0  0
  8  2  1  0  0  0  0
  9  3  2  0  0  0  0
  9  4  1  0  0  0  0
 10 12  1  1  0  0  0
 10  3  1  0  0  0  0
 11  8  1  6  0  0  0
 11 10  1  0  0  0  0
 13 17  1  0  0  0  0
 15 18  2  0  0  0  0
 16 18  2  0  0  0  0
 18 19  1  0  0  0  0
 18 21  1  0  0  0  0
 19 13  1  0  0  0  0
 20 19  2  0  0  0  0
 21 14  2  0  0  0  0
 21 13  1  0  0  0  0
 22 26  1  0  0  0  0
 23 27  1  0  0  0  0
 24 23  1  0  0  0  0
 25 24  1  0  0  0  0
 25 22  2  0  0  0  0
 26 27  2  0  0  0  0
M  END
>  <MODEL>
1

>  <REMARK>
 VINA RESULT:      -9.0      0.000      0.000
  Name = 
  3 active torsions:
  status: ('A' for Active; 'I' for Inactive)
    1  A    between atoms: C_1  and  C_15
    2  A    between atoms: C_2  and  C_15
    3  A    between atoms: N_11  and  C_15
                            x       y       z     vdW  Elec       q    Type
                         _______ _______ _______ _____ _____    ______ ____

>  <TORSDO>
F 3

$$$$
=
 OpenBabel11052413433D

 27 30  0  0  1  0  0  0  0  0999 V2000
  189.1050  177.0160  141.5350 C   0  0  1  0  0  3  0  0  0  0  0  0
  187.6830  177.3620  142.0040 C   0  0  2  0  0  3  0  0  0  0  0  0
  184.2440  179.4250  143.6420 C   0  0  0  0  0  3  0  0  0  0  0  0
  182.4900  179.4410  145.1670 F   0  0  0  0  0  0  0  0  0  0  0  0
  187.1630  178.6120  141.2880 C   0  0  0  0  0  2  0  0  0  0  0  0
  185.9840  177.9740  145.4070 C   0  0  0  0  0  2  0  0  0  0  0  0
  184.5100  178.1610  145.7830 C   0  0  0  0  0  2  0  0  0  0  0  0
  187.5610  177.5020  143.5240 C   0  0  0  0  0  2  0  0  0  0  0  0
  183.7590  179.0810  144.8450 C   0  0  0  0  0  0  0  0  0  0  0  0
  185.6400  179.0660  143.2140 C   0  0  1  0  0  3  0  0  0  0  0  0
  186.1130  177.7850  143.9040 C   0  0  2  0  0  3  0  0  0  0  0  0
  185.7230  178.9100  141.7000 C   0  0  0  0  0  2  0  0  0  0  0  0
  189.5880  177.6230  140.1920 C   0  0  0  0  0  0  0  0  0  0  0  0
  192.1430  177.6490  140.3710 O   0  0  0  0  0  0  0  0  0  0  0  0
  190.7430  175.0440  138.5370 O   0  0  0  0  0  0  0  0  0  0  0  0
  190.8590  177.1660  137.1950 O   0  0  0  0  0  0  0  0  0  0  0  0
  189.3310  178.9830  140.1460 F   0  0  0  0  0  0  0  0  0  0  0  0
  190.4720  176.5210  138.4970 S   0  0  0  0  0  0  0  0  0  0  0  0
  188.8810  176.9480  139.0330 C   0  0  0  0  0  0  0  0  0  0  0  0
  187.7340  176.7830  138.6520 O   0  0  0  0  0  0  0  0  0  0  0  0
  191.0570  177.3700  139.8890 C   0  0  0  0  0  0  0  0  0  0  0  0
  191.5690  176.0230  144.1630 C   0  0  0  0  0  3  0  0  0  0  0  0
  190.4860  178.4530  143.0540 C   0  0  0  0  0  2  0  0  0  0  0  0
  190.0910  177.1120  142.6120 N   0  0  0  0  0  0  0  0  0  0  0  0
  190.7800  175.9450  143.0930 C   0  0  0  0  0  3  0  0  0  0  0  0
  191.7260  177.3030  144.8690 C   0  0  0  0  0  3  0  0  0  0  0  0
  191.1980  178.4260  144.3810 C   0  0  0  0  0  3  0  0  0  0  0  0
  1 13  1  6  0  0  0
  1 24  1  0  0  0  0
  2  1  1  1  0  0  0
  2  8  1  0  0  0  0
  3  9  2  0  0  0  0
  5 12  1  0  0  0  0
  5  2  1  0  0  0  0
  6  7  1  0  0  0  0
  9  4  1  0  0  0  0
  9  7  1  0  0  0  0
 10 12  1  6  0  0  0
 10  3  1  0  0  0  0
 10 11  1  0  0  0  0
 11  8  1  1  0  0  0
 11  6  1  0  0  0  0
 16 18  2  0  0  0  0
 17 13  1  0  0  0  0
 18 15  2  0  0  0  0
 18 19  1  0  0  0  0
 18 21  1  0  0  0  0
 19 13  1  0  0  0  0
 20 19  2  0  0  0  0
 21 13  1  0  0  0  0
 21 14  2  0  0  0  0
 22 26  1  0  0  0  0
 23 27  1  0  0  0  0
 24 23  1  0  0  0  0
 24 25  1  0  0  0  0
 25 22  2  0  0  0  0
 27 26  2  0  0  0  0
M  END
>  <MODEL>
2

>  <REMARK>
 VINA RESULT:      -8.2      4.517      7.749
  Name = 
  3 active torsions:
  status: ('A' for Active; 'I' for Inactive)
    1  A    between atoms: C_1  and  C_15
    2  A    between atoms: C_2  and  C_15
    3  A    between atoms: N_11  and  C_15
                            x       y       z     vdW  Elec       q    Type
                         _______ _______ _______ _____ _____    ______ ____

>  <TORSDO>
F 3

$$$$
=
 OpenBabel11052413433D

 27 30  0  0  1  0  0  0  0  0999 V2000
  187.6120  178.0040  144.9090 C   0  0  1  0  0  3  0  0  0  0  0  0
  186.5000  177.8990  143.8520 C   0  0  2  0  0  3  0  0  0  0  0  0
  183.5500  178.8600  140.8300 C   0  0  0  0  0  3  0  0  0  0  0  0
  181.3360  178.7600  140.1250 F   0  0  0  0  0  0  0  0  0  0  0  0
  186.9770  178.4470  142.5050 C   0  0  0  0  0  2  0  0  0  0  0  0
  182.8310  179.0460  143.6040 C   0  0  0  0  0  2  0  0  0  0  0  0
  181.7480  178.7530  142.5600 C   0  0  0  0  0  2  0  0  0  0  0  0
  185.1870  178.5580  144.2860 C   0  0  0  0  0  2  0  0  0  0  0  0
  182.2420  178.8480  141.1330 C   0  0  0  0  0  0  0  0  0  0  0  0
  184.6110  178.9580  141.8900 C   0  0  1  0  0  3  0  0  0  0  0  0
  184.1270  178.3570  143.2110 C   0  0  2  0  0  3  0  0  0  0  0  0
  185.8960  178.2740  141.4390 C   0  0  0  0  0  2  0  0  0  0  0  0
  187.3140  177.4480  146.3260 C   0  0  0  0  0  0  0  0  0  0  0  0
  189.4010  176.1030  146.9510 O   0  0  0  0  0  0  0  0  0  0  0  0
  189.1560  179.3020  148.2980 O   0  0  0  0  0  0  0  0  0  0  0  0
  187.7610  177.6480  149.5760 O   0  0  0  0  0  0  0  0  0  0  0  0
  186.3740  176.4320  146.2680 F   0  0  0  0  0  0  0  0  0  0  0  0
  188.1460  178.1930  148.2290 S   0  0  0  0  0  0  0  0  0  0  0  0
  186.7870  178.5560  147.2170 C   0  0  0  0  0  0  0  0  0  0  0  0
  185.8490  179.3350  147.2250 O   0  0  0  0  0  0  0  0  0  0  0  0
  188.5460  176.9640  147.0750 C   0  0  0  0  0  0  0  0  0  0  0  0
  190.2890  175.9990  143.2410 C   0  0  0  0  0  3  0  0  0  0  0  0
  190.0280  178.5580  144.5400 C   0  0  0  0  0  2  0  0  0  0  0  0
  188.9210  177.6100  144.3870 N   0  0  0  0  0  0  0  0  0  0  0  0
  189.0750  176.4200  143.5930 C   0  0  0  0  0  3  0  0  0  0  0  0
  191.4800  176.7410  143.6780 C   0  0  0  0  0  3  0  0  0  0  0  0
  191.3680  177.9090  144.3110 C   0  0  0  0  0  3  0  0  0  0  0  0
  1 24  1  6  0  0  0
  1 13  1  0  0  0  0
  2  8  1  0  0  0  0
  2  1  1  1  0  0  0
  3  9  2  0  0  0  0
  4  9  1  0  0  0  0
  5  2  1  0  0  0  0
  7  6  1  0  0  0  0
  9  7  1  0  0  0  0
 10  3  1  6  0  0  0
 10 11  1  0  0  0  0
 11  6  1  1  0  0  0
 11  8  1  0  0  0  0
 12 10  1  0  0  0  0
 12  5  1  0  0  0  0
 13 21  1  0  0  0  0
 13 19  1  0  0  0  0
 14 21  2  0  0  0  0
 17 13  1  0  0  0  0
 18 15  2  0  0  0  0
 18 16  2  0  0  0  0
 19 20  2  0  0  0  0
 19 18  1  0  0  0  0
 21 18  1  0  0  0  0
 22 25  2  0  0  0  0
 22 26  1  0  0  0  0
 24 23  1  0  0  0  0
 25 24  1  0  0  0  0
 26 27  2  0  0  0  0
 27 23  1  0  0  0  0
M  END
>  <MODEL>
3

>  <REMARK>
 VINA RESULT:      -8.0      4.685      8.448
  Name = 
  3 active torsions:
  status: ('A' for Active; 'I' for Inactive)
    1  A    between atoms: C_1  and  C_15
    2  A    between atoms: C_2  and  C_15
    3  A    between atoms: N_11  and  C_15
                            x       y       z     vdW  Elec       q    Type
                         _______ _______ _______ _____ _____    ______ ____

>  <TORSDO>
F 3

$$$$
=
 OpenBabel11052413433D

 27 30  0  0  1  0  0  0  0  0999 V2000
  182.6160  178.5930  140.8890 C   0  0  1  0  0  3  0  0  0  0  0  0
  183.3000  178.2790  142.2300 C   0  0  2  0  0  3  0  0  0  0  0  0
  185.6330  178.5900  145.8660 C   0  0  0  0  0  3  0  0  0  0  0  0
  187.3440  177.7470  147.1950 F   0  0  0  0  0  0  0  0  0  0  0  0
  182.8490  179.2620  143.3130 C   0  0  0  0  0  2  0  0  0  0  0  0
  186.9360  177.8330  143.4210 C   0  0  0  0  0  2  0  0  0  0  0  0
  187.5110  177.3630  144.7610 C   0  0  0  0  0  2  0  0  0  0  0  0
  184.8280  178.2220  142.1330 C   0  0  0  0  0  2  0  0  0  0  0  0
  186.8210  177.9710  145.9620 C   0  0  0  0  0  0  0  0  0  0  0  0
  184.9910  178.8760  144.5370 C   0  0  1  0  0  3  0  0  0  0  0  0
  185.4180  177.8480  143.4870 C   0  0  2  0  0  3  0  0  0  0  0  0
  183.4720  178.9030  144.6610 C   0  0  0  0  0  2  0  0  0  0  0  0
  182.6430  177.4960  139.7930 C   0  0  0  0  0  0  0  0  0  0  0  0
  180.1790  176.9880  139.3180 O   0  0  0  0  0  0  0  0  0  0  0  0
  181.7910  179.0930  137.0640 O   0  0  0  0  0  0  0  0  0  0  0  0
  182.3280  176.6770  136.6250 O   0  0  0  0  0  0  0  0  0  0  0  0
  183.0480  176.2810  140.3230 F   0  0  0  0  0  0  0  0  0  0  0  0
  182.2180  177.7750  137.6460 S   0  0  0  0  0  0  0  0  0  0  0  0
  183.5990  177.8920  138.6850 C   0  0  0  0  0  0  0  0  0  0  0  0
  184.7830  178.1640  138.5720 O   0  0  0  0  0  0  0  0  0  0  0  0
  181.3230  177.3190  139.0580 C   0  0  0  0  0  0  0  0  0  0  0  0
  179.7580  180.9650  140.4780 C   0  0  0  0  0  3  0  0  0  0  0  0
  180.3600  178.5810  141.9810 C   0  0  0  0  0  2  0  0  0  0  0  0
  181.3050  179.2200  141.0600 N   0  0  0  0  0  0  0  0  0  0  0  0
  180.8920  180.3140  140.2230 C   0  0  0  0  0  3  0  0  0  0  0  0
  178.9310  180.5770  141.6290 C   0  0  0  0  0  3  0  0  0  0  0  0
  179.2230  179.4950  142.3520 C   0  0  0  0  0  3  0  0  0  0  0  0
  1 13  1  1  0  0  0
  1 24  1  0  0  0  0
  2  1  1  6  0  0  0
  2  5  1  0  0  0  0
  3  9  2  0  0  0  0
  5 12  1  0  0  0  0
  6 11  1  0  0  0  0
  6  7  1  0  0  0  0
  7  9  1  0  0  0  0
  8  2  1  0  0  0  0
  9  4  1  0  0  0  0
 10 12  1  1  0  0  0
 10  3  1  0  0  0  0
 11  8  1  6  0  0  0
 11 10  1  0  0  0  0
 13 17  1  0  0  0  0
 15 18  2  0  0  0  0
 16 18  2  0  0  0  0
 18 19  1  0  0  0  0
 18 21  1  0  0  0  0
 19 13  1  0  0  0  0
 20 19  2  0  0  0  0
 21 14  2  0  0  0  0
 21 13  1  0  0  0  0
 22 26  1  0  0  0  0
 23 27  1  0  0  0  0
 24 23  1  0  0  0  0
 25 22  2  0  0  0  0
 25 24  1  0  0  0  0
 26 27  2  0  0  0  0
M  END
>  <MODEL>
4

>  <REMARK>
 VINA RESULT:      -7.6      1.352      1.657
  Name = 
  3 active torsions:
  status: ('A' for Active; 'I' for Inactive)
    1  A    between atoms: C_1  and  C_15
    2  A    between atoms: C_2  and  C_15
    3  A    between atoms: N_11  and  C_15
                            x       y       z     vdW  Elec       q    Type
                         _______ _______ _______ _____ _____    ______ ____

>  <TORSDO>
F 3

$$$$
=
 OpenBabel11052413433D

 27 30  0  0  1  0  0  0  0  0999 V2000
  188.3080  177.5430  144.2720 C   0  0  1  0  0  3  0  0  0  0  0  0
  186.9220  178.2060  144.2150 C   0  0  2  0  0  3  0  0  0  0  0  0
  182.6420  178.8740  144.2370 C   0  0  0  0  0  3  0  0  0  0  0  0
  180.7660  179.7100  143.1470 F   0  0  0  0  0  0  0  0  0  0  0  0
  186.1420  177.9470  145.5060 C   0  0  0  0  0  2  0  0  0  0  0  0
  183.9340  178.1220  141.7840 C   0  0  0  0  0  2  0  0  0  0  0  0
  182.6450  178.9490  141.7370 C   0  0  0  0  0  2  0  0  0  0  0  0
  186.1060  177.8020  142.9830 C   0  0  0  0  0  2  0  0  0  0  0  0
  181.9910  179.1280  143.0900 C   0  0  0  0  0  0  0  0  0  0  0  0
  184.0000  178.2290  144.2550 C   0  0  1  0  0  3  0  0  0  0  0  0
  184.7770  178.5470  142.9750 C   0  0  2  0  0  3  0  0  0  0  0  0
  184.7950  178.6680  145.4780 C   0  0  0  0  0  2  0  0  0  0  0  0
  189.3420  177.9430  143.1860 C   0  0  0  0  0  0  0  0  0  0  0  0
  191.1300  179.2720  144.4490 O   0  0  0  0  0  0  0  0  0  0  0  0
  191.8760  175.9460  143.7460 O   0  0  0  0  0  0  0  0  0  0  0  0
  192.2510  177.4240  141.7480 O   0  0  0  0  0  0  0  0  0  0  0  0
  188.8330  178.9340  142.3640 F   0  0  0  0  0  0  0  0  0  0  0  0
  191.3250  177.0300  142.8640 S   0  0  0  0  0  0  0  0  0  0  0  0
  189.6990  176.7360  142.3410 C   0  0  0  0  0  0  0  0  0  0  0  0
  189.1210  175.9360  141.6260 O   0  0  0  0  0  0  0  0  0  0  0  0
  190.6880  178.3810  143.7430 C   0  0  0  0  0  0  0  0  0  0  0  0
  188.9950  178.4740  147.8250 C   0  0  0  0  0  3  0  0  0  0  0  0
  189.7670  176.4120  145.9660 C   0  0  0  0  0  2  0  0  0  0  0  0
  188.8600  177.5120  145.6260 N   0  0  0  0  0  0  0  0  0  0  0  0
  188.3900  178.4180  146.6390 C   0  0  0  0  0  3  0  0  0  0  0  0
  190.1580  177.6180  148.0980 C   0  0  0  0  0  3  0  0  0  0  0  0
  190.5440  176.6850  147.2270 C   0  0  0  0  0  3  0  0  0  0  0  0
  1 13  1  6  0  0  0
  1 24  1  0  0  0  0
  2  1  1  1  0  0  0
  2  5  1  0  0  0  0
  7  6  1  0  0  0  0
  7  9  1  0  0  0  0
  8  2  1  0  0  0  0
  9  4  1  0  0  0  0
  9  3  2  0  0  0  0
 10  3  1  6  0  0  0
 10 12  1  0  0  0  0
 11  6  1  6  0  0  0
 11  8  1  0  0  0  0
 11 10  1  0  0  0  0
 12  5  1  0  0  0  0
 13 21  1  0  0  0  0
 16 18  2  0  0  0  0
 17 13  1  0  0  0  0
 18 21  1  0  0  0  0
 18 15  2  0  0  0  0
 19 18  1  0  0  0  0
 19 13  1  0  0  0  0
 20 19  2  0  0  0  0
 21 14  2  0  0  0  0
 22 26  1  0  0  0  0
 23 27  1  0  0  0  0
 24 23  1  0  0  0  0
 24 25  1  0  0  0  0
 25 22  2  0  0  0  0
 27 26  2  0  0  0  0
M  END
>  <MODEL>
5

>  <REMARK>
 VINA RESULT:      -7.6      4.456      7.903
  Name = 
  3 active torsions:
  status: ('A' for Active; 'I' for Inactive)
    1  A    between atoms: C_1  and  C_15
    2  A    between atoms: C_2  and  C_15
    3  A    between atoms: N_11  and  C_15
                            x       y       z     vdW  Elec       q    Type
                         _______ _______ _______ _____ _____    ______ ____

>  <TORSDO>
F 3

$$$$
=
 OpenBabel11052413433D

 27 30  0  0  1  0  0  0  0  0999 V2000
  189.5470  177.0980  139.2560 C   0  0  1  0  0  3  0  0  0  0  0  0
  189.6640  177.5620  140.7170 C   0  0  2  0  0  3  0  0  0  0  0  0
  190.2140  177.6320  145.0130 C   0  0  0  0  0  3  0  0  0  0  0  0
  189.3670  178.1870  147.1060 F   0  0  0  0  0  0  0  0  0  0  0  0
  191.0400  177.2140  141.2900 C   0  0  0  0  0  2  0  0  0  0  0  0
  187.6180  177.0340  143.9390 C   0  0  0  0  0  2  0  0  0  0  0  0
  187.7330  177.6740  145.3260 C   0  0  0  0  0  2  0  0  0  0  0  0
  188.5400  177.0330  141.6140 C   0  0  0  0  0  2  0  0  0  0  0  0
  189.1570  177.7780  145.8280 C   0  0  0  0  0  0  0  0  0  0  0  0
  190.0620  177.1810  143.5870 C   0  0  1  0  0  3  0  0  0  0  0  0
  188.6990  177.5870  143.0240 C   0  0  2  0  0  3  0  0  0  0  0  0
  191.1800  177.7420  142.7170 C   0  0  0  0  0  2  0  0  0  0  0  0
  188.9190  178.0840  138.2360 C   0  0  0  0  0  0  0  0  0  0  0  0
  190.0000  177.4780  135.9950 O   0  0  0  0  0  0  0  0  0  0  0  0
  186.8000  176.2320  136.5610 O   0  0  0  0  0  0  0  0  0  0  0  0
  186.7440  178.6370  135.8340 O   0  0  0  0  0  0  0  0  0  0  0  0
  189.4210  179.3630  138.4140 F   0  0  0  0  0  0  0  0  0  0  0  0
  187.3560  177.6150  136.7500 S   0  0  0  0  0  0  0  0  0  0  0  0
  187.4130  178.1180  138.4070 C   0  0  0  0  0  0  0  0  0  0  0  0
  186.6130  178.3780  139.2910 O   0  0  0  0  0  0  0  0  0  0  0  0
  189.0880  177.6650  136.7830 C   0  0  0  0  0  0  0  0  0  0  0  0
  193.1260  176.5630  138.3250 C   0  0  0  0  0  3  0  0  0  0  0  0
  190.6710  175.0540  138.3390 C   0  0  0  0  0  2  0  0  0  0  0  0
  190.7670  176.4510  138.7730 N   0  0  0  0  0  0  0  0  0  0  0  0
  192.0460  177.0990  138.8910 C   0  0  0  0  0  3  0  0  0  0  0  0
  193.0120  175.3120  137.5610 C   0  0  0  0  0  3  0  0  0  0  0  0
  191.8690  174.6260  137.5340 C   0  0  0  0  0  3  0  0  0  0  0  0
  1 13  1  6  0  0  0
  2  1  1  6  0  0  0
  2  5  1  0  0  0  0
  2  8  1  0  0  0  0
  3  9  2  0  0  0  0
  5 12  1  0  0  0  0
  6  7  1  0  0  0  0
  7  9  1  0  0  0  0
  9  4  1  0  0  0  0
 10 12  1  6  0  0  0
 10  3  1  0  0  0  0
 11  8  1  6  0  0  0
 11 10  1  0  0  0  0
 11  6  1  0  0  0  0
 13 19  1  0  0  0  0
 13 17  1  0  0  0  0
 14 21  2  0  0  0  0
 15 18  2  0  0  0  0
 16 18  2  0  0  0  0
 18 21  1  0  0  0  0
 18 19  1  0  0  0  0
 19 20  2  0  0  0  0
 21 13  1  0  0  0  0
 22 25  2  0  0  0  0
 23 24  1  0  0  0  0
 24 25  1  0  0  0  0
 24  1  1  0  0  0  0
 26 22  1  0  0  0  0
 27 26  2  0  0  0  0
 27 23  1  0  0  0  0
M  END
>  <MODEL>
6

>  <REMARK>
 VINA RESULT:      -7.6      5.465      8.113
  Name = 
  3 active torsions:
  status: ('A' for Active; 'I' for Inactive)
    1  A    between atoms: C_1  and  C_15
    2  A    between atoms: C_2  and  C_15
    3  A    between atoms: N_11  and  C_15
                            x       y       z     vdW  Elec       q    Type
                         _______ _______ _______ _____ _____    ______ ____

>  <TORSDO>
F 3

$$$$
=
 OpenBabel11052413433D

 27 30  0  0  1  0  0  0  0  0999 V2000
  190.1820  176.6250  145.5000 C   0  0  1  0  0  3  0  0  0  0  0  0
  188.8950  177.4670  145.5020 C   0  0  2  0  0  3  0  0  0  0  0  0
  184.7560  178.7120  145.7820 C   0  0  0  0  0  3  0  0  0  0  0  0
  182.9300  179.7450  144.7790 F   0  0  0  0  0  0  0  0  0  0  0  0
  188.1880  177.3770  146.8570 C   0  0  0  0  0  2  0  0  0  0  0  0
  185.7470  177.6780  143.2920 C   0  0  0  0  0  2  0  0  0  0  0  0
  184.5790  178.6710  143.2880 C   0  0  0  0  0  2  0  0  0  0  0  0
  187.9410  177.1210  144.3540 C   0  0  0  0  0  2  0  0  0  0  0  0
  184.0590  178.9990  144.6700 C   0  0  0  0  0  0  0  0  0  0  0  0
  186.0130  177.8890  145.7420 C   0  0  1  0  0  3  0  0  0  0  0  0
  186.7270  178.0400  144.3960 C   0  0  2  0  0  3  0  0  0  0  0  0
  186.9500  178.2720  146.8810 C   0  0  0  0  0  2  0  0  0  0  0  0
  191.0990  176.7160  144.2530 C   0  0  0  0  0  0  0  0  0  0  0  0
  190.1660  174.9700  142.6300 O   0  0  0  0  0  0  0  0  0  0  0  0
  189.2600  178.2770  142.0390 O   0  0  0  0  0  0  0  0  0  0  0  0
  191.5680  177.7800  141.1790 O   0  0  0  0  0  0  0  0  0  0  0  0
  192.3440  176.1670  144.5170 F   0  0  0  0  0  0  0  0  0  0  0  0
  190.6030  177.6700  142.3260 S   0  0  0  0  0  0  0  0  0  0  0  0
  191.2770  178.1650  143.8440 C   0  0  0  0  0  0  0  0  0  0  0  0
  191.6970  179.1960  144.3420 O   0  0  0  0  0  0  0  0  0  0  0  0
  190.5130  176.0780  143.0030 C   0  0  0  0  0  0  0  0  0  0  0  0
  191.3670  177.8760  148.8160 C   0  0  0  0  0  3  0  0  0  0  0  0
  191.8020  175.5940  147.1100 C   0  0  0  0  0  2  0  0  0  0  0  0
  190.9050  176.7020  146.7700 N   0  0  0  0  0  0  0  0  0  0  0  0
  190.6100  177.7320  147.7290 C   0  0  0  0  0  3  0  0  0  0  0  0
  192.5200  176.9890  149.0310 C   0  0  0  0  0  3  0  0  0  0  0  0
  192.7480  175.9520  148.2260 C   0  0  0  0  0  3  0  0  0  0  0  0
  1 13  1  6  0  0  0
  1 24  1  0  0  0  0
  2  1  1  1  0  0  0
  2  5  1  0  0  0  0
  5 12  1  0  0  0  0
  7  6  1  0  0  0  0
  7  9  1  0  0  0  0
  8 11  1  0  0  0  0
  8  2  1  0  0  0  0
  9  4  1  0  0  0  0
  9  3  2  0  0  0  0
 10  3  1  6  0  0  0
 10 12  1  0  0  0  0
 11  6  1  6  0  0  0
 11 10  1  0  0  0  0
 13 17  1  0  0  0  0
 14 21  2  0  0  0  0
 15 18  2  0  0  0  0
 16 18  2  0  0  0  0
 18 21  1  0  0  0  0
 18 19  1  0  0  0  0
 19 13  1  0  0  0  0
 19 20  2  0  0  0  0
 21 13  1  0  0  0  0
 22 26  1  0  0  0  0
 23 27  1  0  0  0  0
 24 23  1  0  0  0  0
 24 25  1  0  0  0  0
 25 22  2  0  0  0  0
 27 26  2  0  0  0  0
M  END
>  <MODEL>
7

>  <REMARK>
 VINA RESULT:      -7.3      4.888      8.597
  Name = 
  3 active torsions:
  status: ('A' for Active; 'I' for Inactive)
    1  A    between atoms: C_1  and  C_15
    2  A    between atoms: C_2  and  C_15
    3  A    between atoms: N_11  and  C_15
                            x       y       z     vdW  Elec       q    Type
                         _______ _______ _______ _____ _____    ______ ____

>  <TORSDO>
F 3

$$$$
=
 OpenBabel11052413433D

 27 30  0  0  1  0  0  0  0  0999 V2000
  188.3060  177.6240  141.5050 C   0  0  1  0  0  3  0  0  0  0  0  0
  187.0370  178.2570  142.1010 C   0  0  2  0  0  3  0  0  0  0  0  0
  183.2130  178.8280  144.0530 C   0  0  0  0  0  3  0  0  0  0  0  0
  181.0460  179.6650  143.9500 F   0  0  0  0  0  0  0  0  0  0  0  0
  186.9140  177.9300  143.5910 C   0  0  0  0  0  2  0  0  0  0  0  0
  183.2800  178.2030  141.2500 C   0  0  0  0  0  2  0  0  0  0  0  0
  182.1030  179.0030  141.8190 C   0  0  0  0  0  2  0  0  0  0  0  0
  185.7590  177.8850  141.3430 C   0  0  0  0  0  2  0  0  0  0  0  0
  182.1190  179.1120  143.3270 C   0  0  0  0  0  0  0  0  0  0  0  0
  184.4380  178.2130  143.4360 C   0  0  1  0  0  3  0  0  0  0  0  0
  184.5640  178.6000  141.9600 C   0  0  2  0  0  3  0  0  0  0  0  0
  185.6940  178.6210  144.1970 C   0  0  0  0  0  2  0  0  0  0  0  0
  188.8850  178.2540  140.2110 C   0  0  0  0  0  0  0  0  0  0  0  0
  191.3300  177.4940  140.1570 O   0  0  0  0  0  0  0  0  0  0  0  0
  189.1100  175.7260  138.1420 O   0  0  0  0  0  0  0  0  0  0  0  0
  189.8060  177.8930  137.0770 O   0  0  0  0  0  0  0  0  0  0  0  0
  189.0550  179.6210  140.3630 F   0  0  0  0  0  0  0  0  0  0  0  0
  189.3040  177.2050  138.3160 S   0  0  0  0  0  0  0  0  0  0  0  0
  187.9490  178.0010  139.0460 C   0  0  0  0  0  0  0  0  0  0  0  0
  186.7900  178.2420  138.7540 O   0  0  0  0  0  0  0  0  0  0  0  0
  190.1890  177.6250  139.7450 C   0  0  0  0  0  0  0  0  0  0  0  0
  190.9240  178.1230  144.1240 C   0  0  0  0  0  3  0  0  0  0  0  0
  189.5710  175.9250  142.8430 C   0  0  0  0  0  2  0  0  0  0  0  0
  189.3170  177.3320  142.5210 N   0  0  0  0  0  0  0  0  0  0  0  0
  189.9080  178.3850  143.3030 C   0  0  0  0  0  3  0  0  0  0  0  0
  191.4570  176.7570  144.2220 C   0  0  0  0  0  3  0  0  0  0  0  0
  190.8570  175.7390  143.6040 C   0  0  0  0  0  3  0  0  0  0  0  0
  1 13  1  6  0  0  0
  1 24  1  0  0  0  0
  2  1  1  6  0  0  0
  2  5  1  0  0  0  0
  5 12  1  0  0  0  0
  6  7  1  0  0  0  0
  7  9  1  0  0  0  0
  8 11  1  0  0  0  0
  8  2  1  0  0  0  0
  9  4  1  0  0  0  0
  9  3  2  0  0  0  0
 10  3  1  1  0  0  0
 10 12  1  0  0  0  0
 11  6  1  6  0  0  0
 11 10  1  0  0  0  0
 13 17  1  0  0  0  0
 15 18  2  0  0  0  0
 16 18  2  0  0  0  0
 18 19  1  0  0  0  0
 18 21  1  0  0  0  0
 19 13  1  0  0  0  0
 20 19  2  0  0  0  0
 21 14  2  0  0  0  0
 21 13  1  0  0  0  0
 22 26  1  0  0  0  0
 23 27  1  0  0  0  0
 24 23  1  0  0  0  0
 24 25  1  0  0  0  0
 25 22  2  0  0  0  0
 27 26  2  0  0  0  0
M  END
>  <MODEL>
8

>  <REMARK>
 VINA RESULT:      -7.1      3.983      7.351
  Name = 
  3 active torsions:
  status: ('A' for Active; 'I' for Inactive)
    1  A    between atoms: C_1  and  C_15
    2  A    between atoms: C_2  and  C_15
    3  A    between atoms: N_11  and  C_15
                            x       y       z     vdW  Elec       q    Type
                         _______ _______ _______ _____ _____    ______ ____

>  <TORSDO>
F 3

$$$$
=
 OpenBabel11052413433D

 27 30  0  0  1  0  0  0  0  0999 V2000
  181.8920  178.4630  139.7250 C   0  0  1  0  0  3  0  0  0  0  0  0
  182.3410  178.2770  141.1840 C   0  0  2  0  0  3  0  0  0  0  0  0
  183.7930  179.0030  145.2000 C   0  0  0  0  0  3  0  0  0  0  0  0
  185.3330  178.4970  146.8670 F   0  0  0  0  0  0  0  0  0  0  0  0
  181.5010  179.1430  142.1260 C   0  0  0  0  0  2  0  0  0  0  0  0
  185.6810  178.5380  143.0860 C   0  0  0  0  0  2  0  0  0  0  0  0
  186.0550  178.1760  144.5270 C   0  0  0  0  0  2  0  0  0  0  0  0
  183.8390  178.5190  141.3940 C   0  0  0  0  0  2  0  0  0  0  0  0
  185.0340  178.6270  145.5490 C   0  0  0  0  0  0  0  0  0  0  0  0
  183.3870  179.1700  143.7620 C   0  0  1  0  0  3  0  0  0  0  0  0
  184.2060  178.2550  142.8490 C   0  0  2  0  0  3  0  0  0  0  0  0
  181.8980  178.9000  143.5810 C   0  0  0  0  0  2  0  0  0  0  0  0
  181.0760  177.3180  139.0710 C   0  0  0  0  0  0  0  0  0  0  0  0
  179.7680  178.4480  137.1810 O   0  0  0  0  0  0  0  0  0  0  0  0
  182.6550  176.7340  136.2620 O   0  0  0  0  0  0  0  0  0  0  0  0
  180.7180  175.1710  136.6080 O   0  0  0  0  0  0  0  0  0  0  0  0
  180.0320  176.9260  139.8940 F   0  0  0  0  0  0  0  0  0  0  0  0
  181.5170  176.3220  137.1520 S   0  0  0  0  0  0  0  0  0  0  0  0
  181.9730  176.1230  138.8120 C   0  0  0  0  0  0  0  0  0  0  0  0
  182.6800  175.3720  139.4610 O   0  0  0  0  0  0  0  0  0  0  0  0
  180.5400  177.6490  137.6870 C   0  0  0  0  0  0  0  0  0  0  0  0
  179.5560  181.3790  139.7480 C   0  0  0  0  0  3  0  0  0  0  0  0
  182.1720  180.7420  138.7210 C   0  0  0  0  0  2  0  0  0  0  0  0
  181.3430  179.7950  139.4720 N   0  0  0  0  0  0  0  0  0  0  0  0
  180.1170  180.2210  140.0930 C   0  0  0  0  0  3  0  0  0  0  0  0
  180.1820  182.2210  138.7180 C   0  0  0  0  0  3  0  0  0  0  0  0
  181.3760  181.9140  138.2120 C   0  0  0  0  0  3  0  0  0  0  0  0
  1 13  1  1  0  0  0
  2  1  1  6  0  0  0
  2  8  1  0  0  0  0
  2  5  1  0  0  0  0
  3  9  2  0  0  0  0
  5 12  1  0  0  0  0
  6  7  1  0  0  0  0
  7  9  1  0  0  0  0
  9  4  1  0  0  0  0
 10 12  1  1  0  0  0
 10  3  1  0  0  0  0
 11  8  1  6  0  0  0
 11  6  1  0  0  0  0
 11 10  1  0  0  0  0
 13 17  1  0  0  0  0
 14 21  2  0  0  0  0
 15 18  2  0  0  0  0
 16 18  2  0  0  0  0
 18 21  1  0  0  0  0
 18 19  1  0  0  0  0
 19 13  1  0  0  0  0
 19 20  2  0  0  0  0
 21 13  1  0  0  0  0
 22 25  2  0  0  0  0
 23 24  1  0  0  0  0
 24  1  1  0  0  0  0
 24 25  1  0  0  0  0
 26 22  1  0  0  0  0
 27 26  2  0  0  0  0
 27 23  1  0  0  0  0
M  END
>  <MODEL>
9

>  <REMARK>
 VINA RESULT:      -7.1      2.455      3.736
  Name = 
  3 active torsions:
  status: ('A' for Active; 'I' for Inactive)
    1  A    between atoms: C_1  and  C_15
    2  A    between atoms: C_2  and  C_15
    3  A    between atoms: N_11  and  C_15
                            x       y       z     vdW  Elec       q    Type
                         _______ _______ _______ _____ _____    ______ ____

>  <TORSDO>
F 3

$$$$
