=
 OpenBabel11052412223D

 30 32  0  0  1  0  0  0  0  0999 V2000
  185.0470  178.7060  142.6400 C   0  0  0  0  0  0  0  0  0  0  0  0
  183.7870  179.0910  143.1960 N   0  0  0  0  0  0  0  0  0  0  0  0
  185.1940  178.6960  141.3880 O   0  0  0  0  0  0  0  0  0  0  0  0
  185.7070  177.8730  144.9120 C   0  0  2  0  0  3  0  0  0  0  0  0
  183.5900  179.1220  144.6120 C   0  0  0  0  0  3  0  0  0  0  0  0
  186.2080  178.4160  143.5600 C   0  0  1  0  0  3  0  0  0  0  0  0
  184.4950  178.5980  145.4370 C   0  0  0  0  0  2  0  0  0  0  0  0
  187.6020  178.1930  148.3320 C   0  0  0  0  0  3  0  0  0  0  0  0
  188.7980  177.7040  148.0040 C   0  0  0  0  0  3  0  0  0  0  0  0
  186.4770  178.3410  147.3380 C   0  0  0  0  0  0  0  0  0  0  0  0
  190.2340  176.7890  146.2570 N   0  0  0  0  0  2  0  0  0  0  0  0
  188.0000  177.3400  145.6330 C   0  0  0  0  0  3  0  0  0  0  0  0
  186.0930  179.6800  147.2760 O   0  0  0  0  0  1  0  0  0  0  0  0
  189.0780  177.2620  146.6260 C   0  0  0  0  0  0  0  0  0  0  0  0
  186.7930  177.8290  145.9490 C   0  0  0  0  0  0  0  0  0  0  0  0
  191.7080  177.4400  147.9740 O   0  0  0  0  0  0  0  0  0  0  0  0
  191.4110  176.6220  147.0630 C   0  0  0  0  0  0  0  0  0  0  0  0
  192.2610  175.5080  146.8260 N   0  0  0  0  0  1  0  0  0  0  0  0
  187.1760  177.4190  142.9340 C   0  0  0  0  0  2  0  0  0  0  0  0
  188.1960  178.1530  142.0900 C   0  0  0  0  0  2  0  0  0  0  0  0
  189.5350  177.0170  141.6410 S   0  0  0  0  0  0  0  0  0  0  0  0
  189.3670  177.3830  139.8900 C   0  0  0  0  0  0  0  0  0  0  0  0
  188.2010  177.8150  139.4180 C   0  0  0  0  0  2  0  0  0  0  0  0
  190.7670  176.3380  136.7460 C   0  0  0  0  0  2  0  0  0  0  0  0
  190.4990  177.1310  138.9430 C   0  0  1  0  0  3  0  0  0  0  0  0
  190.9740  175.2450  137.7650 C   0  0  2  0  0  0  0  0  0  0  0  0
  190.9500  175.8000  139.0590 O   0  0  0  0  0  0  0  0  0  0  0  0
  190.0750  177.4080  137.5200 C   0  0  0  0  0  2  0  0  0  0  0  0
  192.3110  174.5750  137.5230 C   0  0  0  0  0  1  0  0  0  0  0  0
  189.9550  174.3000  137.6480 O   0  0  0  0  0  1  0  0  0  0  0  0
  1  2  1  0  0  0  0
  1  6  1  0  0  0  0
  2  5  2  0  0  0  0
  3  1  2  0  0  0  0
  4  7  1  0  0  0  0
  4 15  1  1  0  0  0
  5  7  1  0  0  0  0
  6 19  1  6  0  0  0
  6  4  1  0  0  0  0
  9  8  1  0  0  0  0
 10  8  2  0  0  0  0
 11 14  1  0  0  0  0
 11 17  1  0  0  0  0
 12 15  2  0  0  0  0
 12 14  1  0  0  0  0
 13 10  1  0  0  0  0
 14  9  2  0  0  0  0
 15 10  1  0  0  0  0
 17 16  2  0  0  0  0
 18 17  1  0  0  0  0
 20 19  1  0  0  0  0
 21 20  1  0  0  0  0
 22 21  1  0  0  0  0
 23 22  2  0  0  0  0
 24 28  1  0  0  0  0
 24 26  1  0  0  0  0
 25 27  1  0  0  0  0
 25 22  1  1  0  0  0
 26 29  1  6  0  0  0
 26 27  1  0  0  0  0
 28 25  1  0  0  0  0
 30 26  1  0  0  0  0
M  END
>  <MODEL>
1

>  <REMARK>
 VINA RESULT:      -9.5      0.000      0.000
  Name = 
  7 active torsions:
  status: ('A' for Active; 'I' for Inactive)
    1  A    between atoms: C_1  and  S_4
    2  A    between atoms: C_1  and  C_5
    3  A    between atoms: S_4  and  C_27
    4  A    between atoms: C_5  and  C_22
    5  A    between atoms: C_8  and  C_27
    6  A    between atoms: C_15  and  N_16
    7  A    between atoms: C_19  and  C_29
                            x       y       z     vdW  Elec       q    Type
                         _______ _______ _______ _____ _____    ______ ____

>  <TORSDO>
F 7

$$$$
=
 OpenBabel11052412223D

 30 32  0  0  1  0  0  0  0  0999 V2000
  185.5300  178.6340  142.4460 C   0  0  0  0  0  0  0  0  0  0  0  0
  184.2820  179.1800  142.8810 N   0  0  0  0  0  0  0  0  0  0  0  0
  185.7610  178.5210  141.2120 O   0  0  0  0  0  0  0  0  0  0  0  0
  185.9420  177.8990  144.8090 C   0  0  2  0  0  3  0  0  0  0  0  0
  183.9920  179.3300  144.2740 C   0  0  0  0  0  3  0  0  0  0  0  0
  186.5880  178.2940  143.4680 C   0  0  1  0  0  3  0  0  0  0  0  0
  184.7790  178.7770  145.1950 C   0  0  0  0  0  2  0  0  0  0  0  0
  187.5600  178.0920  148.3780 C   0  0  0  0  0  3  0  0  0  0  0  0
  188.7820  177.6230  148.1250 C   0  0  0  0  0  3  0  0  0  0  0  0
  186.5160  178.2730  147.3050 C   0  0  0  0  0  0  0  0  0  0  0  0
  190.3590  176.7870  146.4620 N   0  0  0  0  0  2  0  0  0  0  0  0
  188.1760  177.3510  145.6870 C   0  0  0  0  0  3  0  0  0  0  0  0
  186.1250  179.6120  147.2660 O   0  0  0  0  0  1  0  0  0  0  0  0
  189.1730  177.2390  146.7580 C   0  0  0  0  0  0  0  0  0  0  0  0
  186.9430  177.8200  145.9260 C   0  0  0  0  0  0  0  0  0  0  0  0
  191.8530  177.5030  148.1350 O   0  0  0  0  0  0  0  0  0  0  0  0
  191.4700  176.5950  147.3510 C   0  0  0  0  0  0  0  0  0  0  0  0
  192.1550  175.3490  147.3440 N   0  0  0  0  0  1  0  0  0  0  0  0
  187.4870  177.1640  142.9810 C   0  0  0  0  0  2  0  0  0  0  0  0
  188.8010  177.7300  142.4840 C   0  0  0  0  0  2  0  0  0  0  0  0
  190.0350  176.4040  142.4010 S   0  0  0  0  0  0  0  0  0  0  0  0
  190.6010  176.9220  140.7780 C   0  0  0  0  0  0  0  0  0  0  0  0
  191.7180  177.6350  140.6680 C   0  0  0  0  0  2  0  0  0  0  0  0
  189.7060  177.3650  137.3220 C   0  0  0  0  0  2  0  0  0  0  0  0
  189.7880  176.6320  139.5540 C   0  0  1  0  0  3  0  0  0  0  0  0
  188.7050  178.0900  138.1880 C   0  0  2  0  0  0  0  0  0  0  0  0
  188.6920  177.5140  139.4720 O   0  0  0  0  0  0  0  0  0  0  0  0
  190.6370  176.7480  138.3100 C   0  0  0  0  0  2  0  0  0  0  0  0
  187.3290  177.9820  137.5660 C   0  0  0  0  0  1  0  0  0  0  0  0
  189.0630  179.4350  138.2870 O   0  0  0  0  0  1  0  0  0  0  0  0
  1  2  1  0  0  0  0
  1  6  1  0  0  0  0
  2  5  2  0  0  0  0
  3  1  2  0  0  0  0
  4  7  1  0  0  0  0
  4 15  1  1  0  0  0
  5  7  1  0  0  0  0
  6 19  1  6  0  0  0
  6  4  1  0  0  0  0
  9  8  1  0  0  0  0
 10  8  2  0  0  0  0
 11 14  1  0  0  0  0
 11 17  1  0  0  0  0
 12 15  2  0  0  0  0
 12 14  1  0  0  0  0
 13 10  1  0  0  0  0
 14  9  2  0  0  0  0
 15 10  1  0  0  0  0
 17 16  2  0  0  0  0
 18 17  1  0  0  0  0
 20 19  1  0  0  0  0
 21 20  1  0  0  0  0
 22 21  1  0  0  0  0
 23 22  2  0  0  0  0
 24 26  1  0  0  0  0
 24 28  1  0  0  0  0
 25 22  1  1  0  0  0
 26 29  1  6  0  0  0
 26 30  1  0  0  0  0
 26 27  1  0  0  0  0
 27 25  1  0  0  0  0
 28 25  1  0  0  0  0
M  END
>  <MODEL>
2

>  <REMARK>
 VINA RESULT:      -9.5      1.223      1.928
  Name = 
  7 active torsions:
  status: ('A' for Active; 'I' for Inactive)
    1  A    between atoms: C_1  and  S_4
    2  A    between atoms: C_1  and  C_5
    3  A    between atoms: S_4  and  C_27
    4  A    between atoms: C_5  and  C_22
    5  A    between atoms: C_8  and  C_27
    6  A    between atoms: C_15  and  N_16
    7  A    between atoms: C_19  and  C_29
                            x       y       z     vdW  Elec       q    Type
                         _______ _______ _______ _____ _____    ______ ____

>  <TORSDO>
F 7

$$$$
=
 OpenBabel11052412223D

 30 32  0  0  1  0  0  0  0  0999 V2000
  186.6500  177.8460  146.0360 C   0  0  0  0  0  0  0  0  0  0  0  0
  187.3560  177.6740  147.2670 N   0  0  0  0  0  2  0  0  0  0  0  0
  185.4120  178.0830  146.0590 O   0  0  0  0  0  0  0  0  0  0  0  0
  188.6690  176.9530  144.8440 C   0  0  2  0  0  3  0  0  0  0  0  0
  188.7630  177.4130  147.2760 C   0  0  0  0  0  3  0  0  0  0  0  0
  187.4140  177.8410  144.7340 C   0  0  1  0  0  3  0  0  0  0  0  0
  189.4060  177.1170  146.1470 C   0  0  0  0  0  3  0  0  0  0  0  0
  191.7970  177.9550  142.6990 C   0  0  0  0  0  3  0  0  0  0  0  0
  191.4640  177.4420  141.5140 C   0  0  0  0  0  3  0  0  0  0  0  0
  190.8930  177.8860  143.9040 C   0  0  0  0  0  0  0  0  0  0  0  0
  189.8010  176.2520  140.1850 N   0  0  0  0  0  2  0  0  0  0  0  0
  189.2790  176.6220  142.4820 C   0  0  0  0  0  3  0  0  0  0  0  0
  190.6170  179.1800  144.3460 O   0  0  0  0  0  1  0  0  0  0  0  0
  190.1730  176.7570  141.3260 C   0  0  0  0  0  0  0  0  0  0  0  0
  189.6000  177.1310  143.6790 C   0  0  0  0  0  0  0  0  0  0  0  0
  191.2420  175.3000  138.5850 O   0  0  0  0  0  0  0  0  0  0  0  0
  190.5210  176.2690  138.9420 C   0  0  0  0  0  0  0  0  0  0  0  0
  190.4180  177.4070  138.0970 N   0  0  0  0  0  1  0  0  0  0  0  0
  186.5440  177.3560  143.5810 C   0  0  0  0  0  2  0  0  0  0  0  0
  185.8970  178.5390  142.8920 C   0  0  0  0  0  2  0  0  0  0  0  0
  186.6770  178.7940  141.2750 S   0  0  0  0  0  0  0  0  0  0  0  0
  185.1020  178.7250  140.4150 C   0  0  0  0  0  0  0  0  0  0  0  0
  183.9820  178.5370  141.1070 C   0  0  0  0  0  2  0  0  0  0  0  0
  184.9490  177.2810  137.1240 C   0  0  0  0  0  2  0  0  0  0  0  0
  185.0420  178.7950  138.9210 C   0  0  1  0  0  3  0  0  0  0  0  0
  186.3590  177.7440  137.3950 C   0  0  2  0  0  0  0  0  0  0  0  0
  186.3410  178.7540  138.3740 O   0  0  0  0  0  0  0  0  0  0  0  0
  184.2150  177.6580  138.3660 C   0  0  0  0  0  2  0  0  0  0  0  0
  186.9660  178.2830  136.1160 C   0  0  0  0  0  1  0  0  0  0  0  0
  187.1220  176.6690  137.8520 O   0  0  0  0  0  1  0  0  0  0  0  0
  1  3  2  0  0  0  0
  1  2  1  0  0  0  0
  2  5  1  0  0  0  0
  4 15  1  6  0  0  0
  4  7  1  0  0  0  0
  6 19  1  6  0  0  0
  6  4  1  0  0  0  0
  6  1  1  0  0  0  0
  7  5  2  0  0  0  0
  8 10  1  0  0  0  0
  9  8  2  0  0  0  0
 10 13  1  0  0  0  0
 11 14  1  0  0  0  0
 12 15  1  0  0  0  0
 14  9  1  0  0  0  0
 14 12  2  0  0  0  0
 15 10  2  0  0  0  0
 16 17  2  0  0  0  0
 17 11  1  0  0  0  0
 18 17  1  0  0  0  0
 20 19  1  0  0  0  0
 21 20  1  0  0  0  0
 22 23  2  0  0  0  0
 22 21  1  0  0  0  0
 24 26  1  0  0  0  0
 24 28  1  0  0  0  0
 25 22  1  1  0  0  0
 26 29  1  6  0  0  0
 26 30  1  0  0  0  0
 26 27  1  0  0  0  0
 27 25  1  0  0  0  0
 28 25  1  0  0  0  0
M  END
>  <MODEL>
3

>  <REMARK>
 VINA RESULT:      -9.3      3.131      5.532
  Name = 
  7 active torsions:
  status: ('A' for Active; 'I' for Inactive)
    1  A    between atoms: C_1  and  S_4
    2  A    between atoms: C_1  and  C_5
    3  A    between atoms: S_4  and  C_27
    4  A    between atoms: C_5  and  C_22
    5  A    between atoms: C_8  and  C_27
    6  A    between atoms: C_15  and  N_16
    7  A    between atoms: C_19  and  C_29
                            x       y       z     vdW  Elec       q    Type
                         _______ _______ _______ _____ _____    ______ ____

>  <TORSDO>
F 7

$$$$
=
 OpenBabel11052412223D

 30 32  0  0  1  0  0  0  0  0999 V2000
  188.5790  178.2200  139.5870 C   0  0  0  0  0  0  0  0  0  0  0  0
  187.8880  178.6090  138.3970 N   0  0  0  0  0  2  0  0  0  0  0  0
  188.1690  178.6340  140.7050 O   0  0  0  0  0  0  0  0  0  0  0  0
  190.4370  177.3650  138.1350 C   0  0  2  0  0  3  0  0  0  0  0  0
  188.3210  178.1490  137.1140 C   0  0  0  0  0  3  0  0  0  0  0  0
  189.7240  177.2410  139.4950 C   0  0  1  0  0  3  0  0  0  0  0  0
  189.4900  177.5250  136.9740 C   0  0  0  0  0  3  0  0  0  0  0  0
  191.9560  173.9840  136.8510 C   0  0  0  0  0  3  0  0  0  0  0  0
  193.2050  174.0790  137.3090 C   0  0  0  0  0  3  0  0  0  0  0  0
  190.9060  175.0340  137.1140 C   0  0  0  0  0  0  0  0  0  0  0  0
  194.8340  175.3770  138.5780 N   0  0  0  0  0  2  0  0  0  0  0  0
  192.6560  176.3190  138.3420 C   0  0  0  0  0  3  0  0  0  0  0  0
  189.8290  174.4480  137.7790 O   0  0  0  0  0  1  0  0  0  0  0  0
  193.6290  175.2480  138.1000 C   0  0  0  0  0  0  0  0  0  0  0  0
  191.3980  176.2380  137.8870 C   0  0  0  0  0  0  0  0  0  0  0  0
  195.9150  173.3330  139.0190 O   0  0  0  0  0  0  0  0  0  0  0  0
  195.9300  174.4580  138.4530 C   0  0  0  0  0  0  0  0  0  0  0  0
  197.0600  174.8290  137.6740 N   0  0  0  0  0  1  0  0  0  0  0  0
  190.7280  177.4540  140.6210 C   0  0  0  0  0  2  0  0  0  0  0  0
  190.4880  176.4430  141.7220 C   0  0  0  0  0  2  0  0  0  0  0  0
  190.9460  177.1710  143.3180 S   0  0  0  0  0  0  0  0  0  0  0  0
  189.2650  177.0630  143.9420 C   0  0  0  0  0  0  0  0  0  0  0  0
  188.3850  176.2790  143.3250 C   0  0  0  0  0  2  0  0  0  0  0  0
  187.7910  177.5680  147.1840 C   0  0  0  0  0  2  0  0  0  0  0  0
  188.8210  177.9050  145.0970 C   0  0  1  0  0  3  0  0  0  0  0  0
  186.7920  177.9560  146.1220 C   0  0  2  0  0  0  0  0  0  0  0  0
  187.4740  178.2890  144.9360 O   0  0  0  0  0  0  0  0  0  0  0  0
  188.9900  177.1570  146.3990 C   0  0  0  0  0  2  0  0  0  0  0  0
  185.9860  179.1470  146.5980 C   0  0  0  0  0  1  0  0  0  0  0  0
  185.9330  176.8850  145.8770 O   0  0  0  0  0  1  0  0  0  0  0  0
  1  3  2  0  0  0  0
  2  1  1  0  0  0  0
  4 15  1  6  0  0  0
  4  6  1  0  0  0  0
  5  2  1  0  0  0  0
  6  1  1  0  0  0  0
  6 19  1  1  0  0  0
  7  5  2  0  0  0  0
  7  4  1  0  0  0  0
  8 10  2  0  0  0  0
  8  9  1  0  0  0  0
  9 14  2  0  0  0  0
 10 13  1  0  0  0  0
 10 15  1  0  0  0  0
 14 12  1  0  0  0  0
 14 11  1  0  0  0  0
 15 12  2  0  0  0  0
 17 11  1  0  0  0  0
 17 16  2  0  0  0  0
 18 17  1  0  0  0  0
 19 20  1  0  0  0  0
 20 21  1  0  0  0  0
 21 22  1  0  0  0  0
 23 22  2  0  0  0  0
 25 22  1  6  0  0  0
 25 28  1  0  0  0  0
 26 29  1  1  0  0  0
 26 24  1  0  0  0  0
 27 25  1  0  0  0  0
 27 26  1  0  0  0  0
 28 24  1  0  0  0  0
 30 26  1  0  0  0  0
M  END
>  <MODEL>
4

>  <REMARK>
 VINA RESULT:      -9.2      3.344      8.722
  Name = 
  7 active torsions:
  status: ('A' for Active; 'I' for Inactive)
    1  A    between atoms: C_1  and  S_4
    2  A    between atoms: C_1  and  C_5
    3  A    between atoms: S_4  and  C_27
    4  A    between atoms: C_5  and  C_22
    5  A    between atoms: C_8  and  C_27
    6  A    between atoms: C_15  and  N_16
    7  A    between atoms: C_19  and  C_29
                            x       y       z     vdW  Elec       q    Type
                         _______ _______ _______ _____ _____    ______ ____

>  <TORSDO>
F 7

$$$$
=
 OpenBabel11052412223D

 30 32  0  0  1  0  0  0  0  0999 V2000
  191.3320  176.3900  144.7070 C   0  0  0  0  0  0  0  0  0  0  0  0
  191.8930  176.0640  145.9810 N   0  0  0  0  0  0  0  0  0  0  0  0
  191.9980  176.1640  143.6610 O   0  0  0  0  0  0  0  0  0  0  0  0
  189.5480  177.6790  145.9100 C   0  0  2  0  0  3  0  0  0  0  0  0
  191.1610  176.3000  147.1870 C   0  0  0  0  0  3  0  0  0  0  0  0
  189.9160  176.9070  144.6280 C   0  0  1  0  0  3  0  0  0  0  0  0
  190.0370  177.0150  147.1710 C   0  0  0  0  0  2  0  0  0  0  0  0
  186.0180  178.6060  147.3480 C   0  0  0  0  0  3  0  0  0  0  0  0
  185.2880  178.6200  146.2330 C   0  0  0  0  0  3  0  0  0  0  0  0
  187.4840  178.2510  147.3620 C   0  0  0  0  0  0  0  0  0  0  0  0
  185.2190  178.2830  143.8180 N   0  0  0  0  0  2  0  0  0  0  0  0
  187.3300  177.9900  144.8860 C   0  0  0  0  0  3  0  0  0  0  0  0
  187.6830  177.1540  148.2010 O   0  0  0  0  0  1  0  0  0  0  0  0
  185.8960  178.2940  144.9310 C   0  0  0  0  0  0  0  0  0  0  0  0
  188.0780  177.9730  145.9980 C   0  0  0  0  0  0  0  0  0  0  0  0
  183.0510  178.7240  144.6230 O   0  0  0  0  0  0  0  0  0  0  0  0
  183.8200  178.5550  143.6400 C   0  0  0  0  0  0  0  0  0  0  0  0
  183.2920  178.6330  142.3220 N   0  0  0  0  0  1  0  0  0  0  0  0
  189.7200  177.8070  143.4140 C   0  0  0  0  0  2  0  0  0  0  0  0
  189.1300  177.0070  142.2720 C   0  0  0  0  0  2  0  0  0  0  0  0
  188.4200  178.1400  141.0480 S   0  0  0  0  0  0  0  0  0  0  0  0
  189.4550  177.4940  139.7300 C   0  0  0  0  0  0  0  0  0  0  0  0
  190.7050  177.1260  139.9960 C   0  0  0  0  0  2  0  0  0  0  0  0
  187.8170  178.8650  136.8350 C   0  0  0  0  0  2  0  0  0  0  0  0
  188.9540  177.4400  138.3200 C   0  0  1  0  0  3  0  0  0  0  0  0
  186.8760  177.9120  137.5300 C   0  0  2  0  0  0  0  0  0  0  0  0
  187.6190  176.9890  138.2890 O   0  0  0  0  0  0  0  0  0  0  0  0
  189.0540  178.7980  137.6650 C   0  0  0  0  0  2  0  0  0  0  0  0
  186.0500  177.1750  136.4950 C   0  0  0  0  0  1  0  0  0  0  0  0
  186.0270  178.6290  138.3730 O   0  0  0  0  0  1  0  0  0  0  0  0
  1  2  1  0  0  0  0
  2  5  2  0  0  0  0
  3  1  2  0  0  0  0
  4 15  1  1  0  0  0
  4  7  1  0  0  0  0
  6 19  1  6  0  0  0
  6  1  1  0  0  0  0
  6  4  1  0  0  0  0
  7  5  1  0  0  0  0
  8 10  1  0  0  0  0
  9  8  2  0  0  0  0
 10 13  1  0  0  0  0
 11 14  1  0  0  0  0
 12 14  2  0  0  0  0
 12 15  1  0  0  0  0
 14  9  1  0  0  0  0
 15 10  2  0  0  0  0
 17 11  1  0  0  0  0
 17 16  2  0  0  0  0
 18 17  1  0  0  0  0
 20 19  1  0  0  0  0
 21 20  1  0  0  0  0
 22 23  2  0  0  0  0
 22 21  1  0  0  0  0
 24 26  1  0  0  0  0
 24 28  1  0  0  0  0
 25 22  1  1  0  0  0
 26 29  1  6  0  0  0
 26 27  1  0  0  0  0
 26 30  1  0  0  0  0
 27 25  1  0  0  0  0
 28 25  1  0  0  0  0
M  END
>  <MODEL>
5

>  <REMARK>
 VINA RESULT:      -9.1      2.115      5.298
  Name = 
  7 active torsions:
  status: ('A' for Active; 'I' for Inactive)
    1  A    between atoms: C_1  and  S_4
    2  A    between atoms: C_1  and  C_5
    3  A    between atoms: S_4  and  C_27
    4  A    between atoms: C_5  and  C_22
    5  A    between atoms: C_8  and  C_27
    6  A    between atoms: C_15  and  N_16
    7  A    between atoms: C_19  and  C_29
                            x       y       z     vdW  Elec       q    Type
                         _______ _______ _______ _____ _____    ______ ____

>  <TORSDO>
F 7

$$$$
=
 OpenBabel11052412223D

 30 32  0  0  1  0  0  0  0  0999 V2000
  189.3350  177.0860  146.4700 C   0  0  0  0  0  0  0  0  0  0  0  0
  189.1000  177.2830  147.8660 N   0  0  0  0  0  2  0  0  0  0  0  0
  190.4450  176.6260  146.0880 O   0  0  0  0  0  0  0  0  0  0  0  0
  187.2660  178.4270  146.0120 C   0  0  2  0  0  3  0  0  0  0  0  0
  187.8480  177.7950  148.3340 C   0  0  0  0  0  3  0  0  0  0  0  0
  188.2190  177.3370  145.4850 C   0  0  1  0  0  3  0  0  0  0  0  0
  186.9560  178.2950  147.4800 C   0  0  0  0  0  3  0  0  0  0  0  0
  183.5280  179.0780  145.0150 C   0  0  0  0  0  3  0  0  0  0  0  0
  183.5610  178.7900  143.7140 C   0  0  0  0  0  3  0  0  0  0  0  0
  184.7320  178.9460  145.9130 C   0  0  0  0  0  0  0  0  0  0  0  0
  184.8820  178.0250  141.8120 N   0  0  0  0  0  2  0  0  0  0  0  0
  186.0180  178.2310  143.8980 C   0  0  0  0  0  3  0  0  0  0  0  0
  184.4380  178.0550  146.9450 O   0  0  0  0  0  1  0  0  0  0  0  0
  184.8070  178.3300  143.0760 C   0  0  0  0  0  0  0  0  0  0  0  0
  186.0000  178.5190  145.2070 C   0  0  0  0  0  0  0  0  0  0  0  0
  183.0690  177.0700  140.6540 O   0  0  0  0  0  0  0  0  0  0  0  0
  183.8280  178.0580  140.8370 C   0  0  0  0  0  0  0  0  0  0  0  0
  183.6390  179.2340  140.0600 N   0  0  0  0  0  1  0  0  0  0  0  0
  188.7630  177.7470  144.1220 C   0  0  0  0  0  2  0  0  0  0  0  0
  188.7030  176.5720  143.1700 C   0  0  0  0  0  2  0  0  0  0  0  0
  190.2580  176.4680  142.2430 S   0  0  0  0  0  0  0  0  0  0  0  0
  189.5880  177.3950  140.8580 C   0  0  0  0  0  0  0  0  0  0  0  0
  188.3110  177.7670  140.8720 C   0  0  0  0  0  2  0  0  0  0  0  0
  190.4980  177.0130  137.3990 C   0  0  0  0  0  2  0  0  0  0  0  0
  190.4260  177.6820  139.6520 C   0  0  1  0  0  3  0  0  0  0  0  0
  191.4530  176.2150  138.2510 C   0  0  2  0  0  0  0  0  0  0  0  0
  191.4800  176.7510  139.5520 O   0  0  0  0  0  0  0  0  0  0  0  0
  189.5870  177.6440  138.3960 C   0  0  0  0  0  2  0  0  0  0  0  0
  192.8400  176.2740  137.6460 C   0  0  0  0  0  1  0  0  0  0  0  0
  191.0300  174.8870  138.3070 O   0  0  0  0  0  1  0  0  0  0  0  0
  1  2  1  0  0  0  0
  2  5  1  0  0  0  0
  3  1  2  0  0  0  0
  4 15  1  6  0  0  0
  4  7  1  0  0  0  0
  6 19  1  6  0  0  0
  6  4  1  0  0  0  0
  6  1  1  0  0  0  0
  7  5  2  0  0  0  0
  8 10  1  0  0  0  0
  9  8  2  0  0  0  0
 10 13  1  0  0  0  0
 11 14  1  0  0  0  0
 12 15  1  0  0  0  0
 14  9  1  0  0  0  0
 14 12  2  0  0  0  0
 15 10  2  0  0  0  0
 16 17  2  0  0  0  0
 17 11  1  0  0  0  0
 18 17  1  0  0  0  0
 20 19  1  0  0  0  0
 21 20  1  0  0  0  0
 22 23  2  0  0  0  0
 22 21  1  0  0  0  0
 24 26  1  0  0  0  0
 24 28  1  0  0  0  0
 25 22  1  1  0  0  0
 26 29  1  6  0  0  0
 26 30  1  0  0  0  0
 26 27  1  0  0  0  0
 27 25  1  0  0  0  0
 28 25  1  0  0  0  0
M  END
>  <MODEL>
6

>  <REMARK>
 VINA RESULT:      -9.1      1.521      5.037
  Name = 
  7 active torsions:
  status: ('A' for Active; 'I' for Inactive)
    1  A    between atoms: C_1  and  S_4
    2  A    between atoms: C_1  and  C_5
    3  A    between atoms: S_4  and  C_27
    4  A    between atoms: C_5  and  C_22
    5  A    between atoms: C_8  and  C_27
    6  A    between atoms: C_15  and  N_16
    7  A    between atoms: C_19  and  C_29
                            x       y       z     vdW  Elec       q    Type
                         _______ _______ _______ _____ _____    ______ ____

>  <TORSDO>
F 7

$$$$
=
 OpenBabel11052412223D

 30 32  0  0  1  0  0  0  0  0999 V2000
  184.7360  178.8350  144.0970 C   0  0  0  0  0  0  0  0  0  0  0  0
  183.4100  178.9560  144.6170 N   0  0  0  0  0  2  0  0  0  0  0  0
  185.7200  179.0020  144.8660 O   0  0  0  0  0  0  0  0  0  0  0  0
  183.7500  178.8740  141.7910 C   0  0  2  0  0  3  0  0  0  0  0  0
  182.2700  178.7640  143.7730 C   0  0  0  0  0  3  0  0  0  0  0  0
  184.9360  178.4150  142.6610 C   0  0  1  0  0  3  0  0  0  0  0  0
  182.4100  178.6790  142.4510 C   0  0  0  0  0  3  0  0  0  0  0  0
  184.6210  178.1660  138.0310 C   0  0  0  0  0  3  0  0  0  0  0  0
  183.9060  177.0630  137.8110 C   0  0  0  0  0  3  0  0  0  0  0  0
  184.6080  178.9000  139.3490 C   0  0  0  0  0  0  0  0  0  0  0  0
  182.3350  175.4210  138.6990 N   0  0  0  0  0  2  0  0  0  0  0  0
  183.0520  177.1400  140.1880 C   0  0  0  0  0  3  0  0  0  0  0  0
  184.1820  180.2110  139.1390 O   0  0  0  0  0  1  0  0  0  0  0  0
  183.0600  176.4890  138.8730 C   0  0  0  0  0  0  0  0  0  0  0  0
  183.7660  178.2490  140.4250 C   0  0  0  0  0  0  0  0  0  0  0  0
  181.2450  174.8000  136.7070 O   0  0  0  0  0  0  0  0  0  0  0  0
  182.2050  174.6340  137.5050 C   0  0  0  0  0  0  0  0  0  0  0  0
  183.1840  173.6440  137.2170 N   0  0  0  0  0  1  0  0  0  0  0  0
  186.2340  178.9750  142.0940 C   0  0  0  0  0  2  0  0  0  0  0  0
  187.2010  177.8450  141.8120 C   0  0  0  0  0  2  0  0  0  0  0  0
  188.8710  178.3400  142.3170 S   0  0  0  0  0  0  0  0  0  0  0  0
  188.7590  177.4320  143.8630 C   0  0  0  0  0  0  0  0  0  0  0  0
  187.9540  176.3780  143.9500 C   0  0  0  0  0  2  0  0  0  0  0  0
  190.5140  176.9170  146.9600 C   0  0  0  0  0  2  0  0  0  0  0  0
  189.5000  177.8960  145.0780 C   0  0  1  0  0  3  0  0  0  0  0  0
  189.1120  177.3870  147.2600 C   0  0  2  0  0  0  0  0  0  0  0  0
  188.6080  178.0940  146.1520 O   0  0  0  0  0  0  0  0  0  0  0  0
  190.5620  176.8960  145.4710 C   0  0  0  0  0  2  0  0  0  0  0  0
  189.1320  178.2910  148.4750 C   0  0  0  0  0  1  0  0  0  0  0  0
  188.2960  176.2850  147.5170 O   0  0  0  0  0  1  0  0  0  0  0  0
  1  2  1  0  0  0  0
  1  3  2  0  0  0  0
  4 15  1  6  0  0  0
  4  7  1  0  0  0  0
  4  6  1  0  0  0  0
  5  2  1  0  0  0  0
  6 19  1  6  0  0  0
  6  1  1  0  0  0  0
  7  5  2  0  0  0  0
  8 10  1  0  0  0  0
  9  8  2  0  0  0  0
  9 14  1  0  0  0  0
 10 15  2  0  0  0  0
 11 14  1  0  0  0  0
 12 15  1  0  0  0  0
 13 10  1  0  0  0  0
 14 12  2  0  0  0  0
 16 17  2  0  0  0  0
 17 11  1  0  0  0  0
 18 17  1  0  0  0  0
 20 19  1  0  0  0  0
 20 21  1  0  0  0  0
 21 22  1  0  0  0  0
 22 23  2  0  0  0  0
 24 26  1  0  0  0  0
 25 22  1  6  0  0  0
 25 28  1  0  0  0  0
 25 27  1  0  0  0  0
 26 30  1  0  0  0  0
 26 29  1  1  0  0  0
 27 26  1  0  0  0  0
 28 24  1  0  0  0  0
M  END
>  <MODEL>
7

>  <REMARK>
 VINA RESULT:      -9.1      4.251      8.178
  Name = 
  7 active torsions:
  status: ('A' for Active; 'I' for Inactive)
    1  A    between atoms: C_1  and  S_4
    2  A    between atoms: C_1  and  C_5
    3  A    between atoms: S_4  and  C_27
    4  A    between atoms: C_5  and  C_22
    5  A    between atoms: C_8  and  C_27
    6  A    between atoms: C_15  and  N_16
    7  A    between atoms: C_19  and  C_29
                            x       y       z     vdW  Elec       q    Type
                         _______ _______ _______ _____ _____    ______ ____

>  <TORSDO>
F 7

$$$$
=
 OpenBabel11052412223D

 30 32  0  0  1  0  0  0  0  0999 V2000
  189.4550  176.9320  146.2750 C   0  0  0  0  0  0  0  0  0  0  0  0
  189.2500  177.0550  147.6840 N   0  0  0  0  0  2  0  0  0  0  0  0
  190.5570  176.4980  145.8450 O   0  0  0  0  0  0  0  0  0  0  0  0
  187.3710  178.2860  145.9330 C   0  0  2  0  0  3  0  0  0  0  0  0
  188.0080  177.5360  148.2060 C   0  0  0  0  0  3  0  0  0  0  0  0
  188.3160  177.2300  145.3290 C   0  0  1  0  0  3  0  0  0  0  0  0
  187.0950  178.0750  147.3990 C   0  0  0  0  0  3  0  0  0  0  0  0
  183.6170  179.0030  145.0470 C   0  0  0  0  0  3  0  0  0  0  0  0
  183.6150  178.7520  143.7380 C   0  0  0  0  0  3  0  0  0  0  0  0
  184.8410  178.8330  145.9110 C   0  0  0  0  0  0  0  0  0  0  0  0
  184.8830  178.0290  141.7830 N   0  0  0  0  0  2  0  0  0  0  0  0
  186.0700  178.1630  143.8460 C   0  0  0  0  0  3  0  0  0  0  0  0
  184.5630  177.9150  146.9250 O   0  0  0  0  0  1  0  0  0  0  0  0
  184.8410  178.2980  143.0570 C   0  0  0  0  0  0  0  0  0  0  0  0
  186.0870  178.4130  145.1630 C   0  0  0  0  0  0  0  0  0  0  0  0
  183.0110  177.1380  140.6660 O   0  0  0  0  0  0  0  0  0  0  0  0
  183.8060  178.1010  140.8360 C   0  0  0  0  0  0  0  0  0  0  0  0
  183.6340  179.2860  140.0700 N   0  0  0  0  0  1  0  0  0  0  0  0
  188.8280  177.7130  143.9780 C   0  0  0  0  0  2  0  0  0  0  0  0
  188.7840  176.5790  142.9760 C   0  0  0  0  0  2  0  0  0  0  0  0
  190.1210  176.7900  141.7690 S   0  0  0  0  0  0  0  0  0  0  0  0
  189.0350  177.5950  140.5860 C   0  0  0  0  0  0  0  0  0  0  0  0
  188.2960  178.6320  140.9720 C   0  0  0  0  0  2  0  0  0  0  0  0
  189.8110  177.5010  137.0750 C   0  0  0  0  0  2  0  0  0  0  0  0
  188.8910  177.0640  139.1940 C   0  0  1  0  0  3  0  0  0  0  0  0
  188.4920  178.2080  137.2700 C   0  0  2  0  0  0  0  0  0  0  0  0
  187.9160  177.7970  138.4870 O   0  0  0  0  0  0  0  0  0  0  0  0
  190.2100  177.1230  138.4610 C   0  0  0  0  0  2  0  0  0  0  0  0
  187.5630  177.8660  136.1240 C   0  0  0  0  0  1  0  0  0  0  0  0
  188.7020  179.5870  137.3000 O   0  0  0  0  0  1  0  0  0  0  0  0
  1  2  1  0  0  0  0
  2  5  1  0  0  0  0
  3  1  2  0  0  0  0
  4 15  1  6  0  0  0
  4  7  1  0  0  0  0
  6 19  1  6  0  0  0
  6  4  1  0  0  0  0
  6  1  1  0  0  0  0
  7  5  2  0  0  0  0
  8 10  1  0  0  0  0
  9  8  2  0  0  0  0
 10 13  1  0  0  0  0
 11 14  1  0  0  0  0
 12 15  1  0  0  0  0
 14  9  1  0  0  0  0
 14 12  2  0  0  0  0
 15 10  2  0  0  0  0
 16 17  2  0  0  0  0
 17 11  1  0  0  0  0
 18 17  1  0  0  0  0
 20 19  1  0  0  0  0
 21 20  1  0  0  0  0
 22 23  2  0  0  0  0
 22 21  1  0  0  0  0
 24 26  1  0  0  0  0
 24 28  1  0  0  0  0
 25 22  1  1  0  0  0
 26 29  1  6  0  0  0
 26 30  1  0  0  0  0
 26 27  1  0  0  0  0
 27 25  1  0  0  0  0
 28 25  1  0  0  0  0
M  END
>  <MODEL>
8

>  <REMARK>
 VINA RESULT:      -9.1      1.877      5.325
  Name = 
  7 active torsions:
  status: ('A' for Active; 'I' for Inactive)
    1  A    between atoms: C_1  and  S_4
    2  A    between atoms: C_1  and  C_5
    3  A    between atoms: S_4  and  C_27
    4  A    between atoms: C_5  and  C_22
    5  A    between atoms: C_8  and  C_27
    6  A    between atoms: C_15  and  N_16
    7  A    between atoms: C_19  and  C_29
                            x       y       z     vdW  Elec       q    Type
                         _______ _______ _______ _____ _____    ______ ____

>  <TORSDO>
F 7

$$$$
=
 OpenBabel11052412223D

 30 32  0  0  1  0  0  0  0  0999 V2000
  182.7990  178.9780  143.9920 C   0  0  0  0  0  0  0  0  0  0  0  0
  181.3730  179.0570  143.9410 N   0  0  0  0  0  2  0  0  0  0  0  0
  183.3920  179.1950  145.0830 O   0  0  0  0  0  0  0  0  0  0  0  0
  182.8100  178.9380  141.4850 C   0  0  2  0  0  3  0  0  0  0  0  0
  180.6680  178.8080  142.7210 C   0  0  0  0  0  3  0  0  0  0  0  0
  183.5650  178.5400  142.7670 C   0  0  1  0  0  3  0  0  0  0  0  0
  181.3240  178.7040  141.5660 C   0  0  0  0  0  3  0  0  0  0  0  0
  185.0600  178.2510  138.3450 C   0  0  0  0  0  3  0  0  0  0  0  0
  184.5830  177.0720  137.9470 C   0  0  0  0  0  3  0  0  0  0  0  0
  184.4960  179.0070  139.5220 C   0  0  0  0  0  0  0  0  0  0  0  0
  182.9600  175.2860  138.3040 N   0  0  0  0  0  2  0  0  0  0  0  0
  182.9150  177.1040  139.8450 C   0  0  0  0  0  3  0  0  0  0  0  0
  184.0530  180.2590  139.0940 O   0  0  0  0  0  1  0  0  0  0  0  0
  183.4660  176.4310  138.6630 C   0  0  0  0  0  0  0  0  0  0  0  0
  183.3850  178.2900  140.2570 C   0  0  0  0  0  0  0  0  0  0  0  0
  182.8700  174.6370  136.0420 O   0  0  0  0  0  0  0  0  0  0  0  0
  183.3520  174.4640  137.1920 C   0  0  0  0  0  0  0  0  0  0  0  0
  184.3060  173.4310  137.3970 N   0  0  0  0  0  1  0  0  0  0  0  0
  184.9660  179.1380  142.7440 C   0  0  0  0  0  2  0  0  0  0  0  0
  185.9970  178.0340  142.8380 C   0  0  0  0  0  2  0  0  0  0  0  0
  186.5170  177.8410  144.5640 S   0  0  0  0  0  0  0  0  0  0  0  0
  188.2030  177.4340  144.0960 C   0  0  0  0  0  0  0  0  0  0  0  0
  188.4280  176.7510  142.9770 C   0  0  0  0  0  2  0  0  0  0  0  0
  191.6810  178.0310  144.7910 C   0  0  0  0  0  2  0  0  0  0  0  0
  189.3510  177.7840  144.9890 C   0  0  1  0  0  3  0  0  0  0  0  0
  191.3040  176.6620  145.3000 C   0  0  2  0  0  0  0  0  0  0  0  0
  189.9180  176.6170  145.5410 O   0  0  0  0  0  0  0  0  0  0  0  0
  190.4040  178.5560  144.2290 C   0  0  0  0  0  2  0  0  0  0  0  0
  192.0550  176.3780  146.5840 C   0  0  0  0  0  1  0  0  0  0  0  0
  191.6400  175.7010  144.3460 O   0  0  0  0  0  1  0  0  0  0  0  0
  1  3  2  0  0  0  0
  2  1  1  0  0  0  0
  4 15  1  6  0  0  0
  4  7  1  0  0  0  0
  4  6  1  0  0  0  0
  5  2  1  0  0  0  0
  6 19  1  6  0  0  0
  6  1  1  0  0  0  0
  7  5  2  0  0  0  0
  8 10  1  0  0  0  0
  9  8  2  0  0  0  0
  9 14  1  0  0  0  0
 10 15  2  0  0  0  0
 11 14  1  0  0  0  0
 12 15  1  0  0  0  0
 13 10  1  0  0  0  0
 14 12  2  0  0  0  0
 16 17  2  0  0  0  0
 17 18  1  0  0  0  0
 17 11  1  0  0  0  0
 19 20  1  0  0  0  0
 20 21  1  0  0  0  0
 22 21  1  0  0  0  0
 23 22  2  0  0  0  0
 24 26  1  0  0  0  0
 25 22  1  6  0  0  0
 25 27  1  0  0  0  0
 26 27  1  0  0  0  0
 26 29  1  1  0  0  0
 28 24  1  0  0  0  0
 28 25  1  0  0  0  0
 30 26  1  0  0  0  0
M  END
>  <MODEL>
9

>  <REMARK>
 VINA RESULT:      -9.1      4.552      7.711
  Name = 
  7 active torsions:
  status: ('A' for Active; 'I' for Inactive)
    1  A    between atoms: C_1  and  S_4
    2  A    between atoms: C_1  and  C_5
    3  A    between atoms: S_4  and  C_27
    4  A    between atoms: C_5  and  C_22
    5  A    between atoms: C_8  and  C_27
    6  A    between atoms: C_15  and  N_16
    7  A    between atoms: C_19  and  C_29
                            x       y       z     vdW  Elec       q    Type
                         _______ _______ _______ _____ _____    ______ ____

>  <TORSDO>
F 7

$$$$
