=
 OpenBabel11052416523D

 32 36  0  0  1  0  0  0  0  0999 V2000
  191.0120  175.8320  137.3430 C   0  0  2  0  0  3  0  0  0  0  0  0
  194.9120  173.4300  137.2410 C   0  0  0  0  0  2  0  0  0  0  0  0
  195.3510  173.7630  135.8070 C   0  0  0  0  0  2  0  0  0  0  0  0
  194.6210  174.6910  138.0550 C   0  0  0  0  0  2  0  0  0  0  0  0
  192.1280  174.9790  137.9480 C   0  0  0  0  0  2  0  0  0  0  0  0
  193.4650  175.4900  137.4450 C   0  0  2  0  0  3  0  0  0  0  0  0
  192.4160  175.6330  135.2410 N   0  0  0  0  0  0  0  0  0  0  0  0
  194.7610  175.0650  135.2410 C   0  0  0  0  0  2  0  0  0  0  0  0
  193.4860  175.4410  135.9350 C   0  0  0  0  0  0  0  0  0  0  0  0
  191.1000  175.9090  135.8030 C   0  0  1  0  0  3  0  0  0  0  0  0
  190.0120  175.1080  135.0540 C   0  0  1  0  0  3  0  0  0  0  0  0
  189.8040  173.6560  135.5240 C   0  0  2  0  0  3  0  0  0  0  0  0
  187.8820  175.7480  136.2910 C   0  0  2  0  0  3  0  0  0  0  0  0
  187.6950  174.2900  136.7070 C   0  0  0  0  0  2  0  0  0  0  0  0
  189.0420  173.5850  136.8440 C   0  0  0  0  0  2  0  0  0  0  0  0
  188.8510  177.1710  134.5940 O   0  0  0  0  0  1  0  0  0  0  0  0
  191.0140  172.9690  135.6220 O   0  0  0  0  0  1  0  0  0  0  0  0
  186.5180  176.3950  136.1500 C   0  0  0  0  0  1  0  0  0  0  0  0
  188.6600  175.8380  134.9700 C   0  0  1  0  0  3  0  0  0  0  0  0
  191.0460  177.1280  137.8730 O   0  0  0  0  0  0  0  0  0  0  0  0
  188.2370  178.5350  140.8300 C   0  0  0  0  0  2  0  0  0  0  0  0
  189.9820  177.1740  138.7820 C   0  0  2  0  0  3  0  0  0  0  0  0
  189.0540  178.8500  137.3390 O   0  0  0  0  0  0  0  0  0  0  0  0
  188.0940  178.7210  139.4200 O   0  0  0  0  0  0  0  0  0  0  0  0
  189.0550  178.3190  138.4820 C   0  0  0  0  0  0  0  0  0  0  0  0
  190.6220  177.2840  140.4790 S   0  0  0  0  0  0  0  0  0  0  0  0
  188.9360  177.2250  141.1520 C   0  0  1  0  0  3  0  0  0  0  0  0
  189.0330  176.8900  143.8000 C   0  0  0  0  0  0  0  0  0  0  0  0
  188.9850  177.0190  142.5990 C   0  0  0  0  0  0  0  0  0  0  0  0
  189.0970  176.7530  145.2560 C   0  0  0  0  0  3  0  0  0  0  0  0
  187.9980  177.5940  145.8770 C   0  0  0  0  0  2  0  0  0  0  0  0
  189.4260  178.0960  145.8690 C   0  0  0  0  0  2  0  0  0  0  0  0
  1 20  1  1  0  0  0
  1  5  1  0  0  0  0
  2  4  1  0  0  0  0
  3  2  1  0  0  0  0
  6  5  1  1  0  0  0
  6  4  1  0  0  0  0
  7  9  2  0  0  0  0
  8  3  1  0  0  0  0
  8  9  1  0  0  0  0
  9  6  1  0  0  0  0
 10  7  1  6  0  0  0
 10  1  1  0  0  0  0
 11 12  1  0  0  0  0
 11 10  1  1  0  0  0
 12 17  1  1  0  0  0
 12 15  1  0  0  0  0
 13 18  1  6  0  0  0
 13 14  1  0  0  0  0
 14 15  1  0  0  0  0
 19 16  1  1  0  0  0
 19 11  1  0  0  0  0
 19 13  1  0  0  0  0
 21 27  1  0  0  0  0
 22 20  1  6  0  0  0
 22 26  1  0  0  0  0
 23 25  2  0  0  0  0
 24 21  1  0  0  0  0
 25 22  1  0  0  0  0
 25 24  1  0  0  0  0
 26 27  1  0  0  0  0
 27 29  1  1  0  0  0
 28 30  1  0  0  0  0
 29 28  3  0  0  0  0
 30 32  1  0  0  0  0
 30 31  1  0  0  0  0
 32 31  1  0  0  0  0
M  END
>  <MODEL>
1

>  <REMARK>
 VINA RESULT:      -7.1      0.000      0.000
  Name = 
  5 active torsions:
  status: ('A' for Active; 'I' for Inactive)
    1  A    between atoms: C_1  and  C_10
    2  A    between atoms: C_3  and  O_28
    3  A    between atoms: C_6  and  C_31
    4  A    between atoms: C_8  and  O_28
    5  A    between atoms: C_19  and  C_24
                            x       y       z     vdW  Elec       q    Type
                         _______ _______ _______ _____ _____    ______ ____

>  <TORSDO>
F 5

$$$$
=
 OpenBabel11052416523D

 32 36  0  0  1  0  0  0  0  0999 V2000
  188.3350  177.9800  139.9180 C   0  0  2  0  0  3  0  0  0  0  0  0
  183.9130  177.7980  141.1050 C   0  0  0  0  0  2  0  0  0  0  0  0
  184.0190  178.4490  142.4930 C   0  0  0  0  0  2  0  0  0  0  0  0
  184.5460  178.6660  140.0180 C   0  0  0  0  0  2  0  0  0  0  0  0
  186.8470  177.7180  139.6780 C   0  0  0  0  0  2  0  0  0  0  0  0
  186.0450  178.8630  140.2670 C   0  0  2  0  0  3  0  0  0  0  0  0
  187.5240  178.7090  142.2080 N   0  0  0  0  0  0  0  0  0  0  0  0
  185.2490  179.3530  142.6850 C   0  0  0  0  0  2  0  0  0  0  0  0
  186.3550  178.9870  141.7400 C   0  0  0  0  0  0  0  0  0  0  0  0
  188.6520  178.2510  141.4050 C   0  0  1  0  0  3  0  0  0  0  0  0
  189.3990  177.1060  142.1240 C   0  0  1  0  0  3  0  0  0  0  0  0
  190.9170  177.3000  142.2980 C   0  0  2  0  0  3  0  0  0  0  0  0
  189.1050  177.6910  144.5830 C   0  0  2  0  0  3  0  0  0  0  0  0
  190.6190  177.8400  144.7210 C   0  0  0  0  0  2  0  0  0  0  0  0
  191.2430  178.2970  143.4060 C   0  0  0  0  0  2  0  0  0  0  0  0
  187.3740  176.5730  143.3190 O   0  0  0  0  0  1  0  0  0  0  0  0
  191.5280  177.6810  141.1030 O   0  0  0  0  0  1  0  0  0  0  0  0
  188.5370  177.2160  145.9070 C   0  0  0  0  0  1  0  0  0  0  0  0
  188.7580  176.6990  143.4620 C   0  0  1  0  0  3  0  0  0  0  0  0
  188.7690  179.0670  139.1480 O   0  0  0  0  0  0  0  0  0  0  0  0
  189.3170  176.6330  135.6290 C   0  0  0  0  0  2  0  0  0  0  0  0
  189.3300  178.4940  138.0000 C   0  0  2  0  0  3  0  0  0  0  0  0
  187.5090  179.5080  136.8170 O   0  0  0  0  0  0  0  0  0  0  0  0
  188.6480  177.8950  135.6460 O   0  0  0  0  0  0  0  0  0  0  0  0
  188.4180  178.6360  136.8140 C   0  0  0  0  0  0  0  0  0  0  0  0
  189.7250  176.7480  138.3110 S   0  0  0  0  0  0  0  0  0  0  0  0
  190.4400  176.5810  136.6500 C   0  0  1  0  0  3  0  0  0  0  0  0
  191.7980  174.2890  136.4620 C   0  0  0  0  0  0  0  0  0  0  0  0
  191.1640  175.3140  136.5450 C   0  0  0  0  0  0  0  0  0  0  0  0
  192.5830  173.0570  136.3600 C   0  0  0  0  0  3  0  0  0  0  0  0
  193.9400  173.2860  137.0000 C   0  0  0  0  0  2  0  0  0  0  0  0
  193.7970  173.3100  135.4930 C   0  0  0  0  0  2  0  0  0  0  0  0
  1 20  1  6  0  0  0
  1 10  1  0  0  0  0
  2  3  1  0  0  0  0
  3  8  1  0  0  0  0
  4  6  1  0  0  0  0
  4  2  1  0  0  0  0
  5  1  1  0  0  0  0
  6  5  1  1  0  0  0
  6  9  1  0  0  0  0
  9  7  2  0  0  0  0
  9  8  1  0  0  0  0
 10  7  1  1  0  0  0
 11 10  1  1  0  0  0
 11 12  1  0  0  0  0
 11 19  1  0  0  0  0
 12 17  1  6  0  0  0
 12 15  1  0  0  0  0
 13 14  1  0  0  0  0
 13 18  1  1  0  0  0
 15 14  1  0  0  0  0
 19 16  1  6  0  0  0
 19 13  1  0  0  0  0
 21 24  1  0  0  0  0
 21 27  1  0  0  0  0
 22 26  1  0  0  0  0
 22 20  1  1  0  0  0
 24 25  1  0  0  0  0
 25 23  2  0  0  0  0
 25 22  1  0  0  0  0
 27 29  1  1  0  0  0
 27 26  1  0  0  0  0
 28 29  3  0  0  0  0
 30 28  1  0  0  0  0
 30 31  1  0  0  0  0
 32 30  1  0  0  0  0
 32 31  1  0  0  0  0
M  END
>  <MODEL>
2

>  <REMARK>
 VINA RESULT:      -7.0      2.758      8.352
  Name = 
  5 active torsions:
  status: ('A' for Active; 'I' for Inactive)
    1  A    between atoms: C_1  and  C_10
    2  A    between atoms: C_3  and  O_28
    3  A    between atoms: C_6  and  C_31
    4  A    between atoms: C_8  and  O_28
    5  A    between atoms: C_19  and  C_24
                            x       y       z     vdW  Elec       q    Type
                         _______ _______ _______ _____ _____    ______ ____

>  <TORSDO>
F 5

$$$$
=
 OpenBabel11052416523D

 32 36  0  0  1  0  0  0  0  0999 V2000
  186.5260  177.3490  137.8200 C   0  0  2  0  0  3  0  0  0  0  0  0
  190.5700  175.8540  136.2690 C   0  0  0  0  0  2  0  0  0  0  0  0
  190.4470  176.3270  134.8120 C   0  0  0  0  0  2  0  0  0  0  0  0
  190.3200  176.9910  137.2590 C   0  0  0  0  0  2  0  0  0  0  0  0
  187.9200  176.7360  137.9580 C   0  0  0  0  0  2  0  0  0  0  0  0
  188.8970  177.5430  137.1230 C   0  0  2  0  0  3  0  0  0  0  0  0
  187.1850  177.5370  135.3780 N   0  0  0  0  0  0  0  0  0  0  0  0
  189.4660  177.4910  134.5950 C   0  0  0  0  0  2  0  0  0  0  0  0
  188.4370  177.5550  135.6840 C   0  0  0  0  0  0  0  0  0  0  0  0
  186.0940  177.5010  136.3450 C   0  0  1  0  0  3  0  0  0  0  0  0
  184.9990  176.5120  135.8880 C   0  0  1  0  0  3  0  0  0  0  0  0
  185.4220  175.0330  135.8050 C   0  0  2  0  0  3  0  0  0  0  0  0
  183.7770  175.9780  138.0550 C   0  0  2  0  0  3  0  0  0  0  0  0
  184.1890  174.5130  137.9180 C   0  0  0  0  0  2  0  0  0  0  0  0
  185.5220  174.3890  137.1850 C   0  0  0  0  0  2  0  0  0  0  0  0
  183.3250  177.9910  136.7960 O   0  0  0  0  0  1  0  0  0  0  0  0
  186.6180  174.8780  135.1060 O   0  0  0  0  0  1  0  0  0  0  0  0
  182.4400  176.0440  138.7700 C   0  0  0  0  0  1  0  0  0  0  0  0
  183.6840  176.6460  136.6760 C   0  0  1  0  0  3  0  0  0  0  0  0
  186.4790  178.6010  138.4460 O   0  0  0  0  0  0  0  0  0  0  0  0
  185.3750  179.1070  142.5850 C   0  0  0  0  0  2  0  0  0  0  0  0
  186.0200  178.3390  139.7420 C   0  0  2  0  0  3  0  0  0  0  0  0
  184.2780  179.9130  139.2540 O   0  0  0  0  0  0  0  0  0  0  0  0
  184.5200  179.3920  141.4760 O   0  0  0  0  0  0  0  0  0  0  0  0
  184.9240  179.2890  140.1380 C   0  0  0  0  0  0  0  0  0  0  0  0
  187.4040  178.4190  140.9160 S   0  0  0  0  0  0  0  0  0  0  0  0
  186.3100  177.9480  142.2870 C   0  0  1  0  0  3  0  0  0  0  0  0
  187.7650  177.3100  144.4340 C   0  0  0  0  0  0  0  0  0  0  0  0
  187.1070  177.6210  143.4690 C   0  0  0  0  0  0  0  0  0  0  0  0
  188.5600  176.9140  145.5980 C   0  0  0  0  0  3  0  0  0  0  0  0
  188.3710  177.9450  146.6960 C   0  0  0  0  0  2  0  0  0  0  0  0
  189.6270  177.9570  145.8510 C   0  0  0  0  0  2  0  0  0  0  0  0
  1  5  1  0  0  0  0
  1 20  1  6  0  0  0
  2  4  1  0  0  0  0
  3  2  1  0  0  0  0
  6  4  1  6  0  0  0
  6  5  1  0  0  0  0
  7  9  2  0  0  0  0
  8  3  1  0  0  0  0
  8  9  1  0  0  0  0
  9  6  1  0  0  0  0
 10  7  1  6  0  0  0
 10  1  1  0  0  0  0
 11 10  1  1  0  0  0
 11 19  1  0  0  0  0
 12 17  1  1  0  0  0
 12 11  1  0  0  0  0
 12 15  1  0  0  0  0
 13 18  1  6  0  0  0
 14 13  1  0  0  0  0
 15 14  1  0  0  0  0
 19 16  1  1  0  0  0
 19 13  1  0  0  0  0
 22 20  1  6  0  0  0
 22 25  1  0  0  0  0
 22 26  1  0  0  0  0
 23 25  2  0  0  0  0
 24 21  1  0  0  0  0
 25 24  1  0  0  0  0
 26 27  1  0  0  0  0
 27 21  1  0  0  0  0
 27 29  1  1  0  0  0
 28 30  1  0  0  0  0
 29 28  3  0  0  0  0
 30 32  1  0  0  0  0
 30 31  1  0  0  0  0
 32 31  1  0  0  0  0
M  END
>  <MODEL>
3

>  <REMARK>
 VINA RESULT:      -6.6      3.002      4.431
  Name = 
  5 active torsions:
  status: ('A' for Active; 'I' for Inactive)
    1  A    between atoms: C_1  and  C_10
    2  A    between atoms: C_3  and  O_28
    3  A    between atoms: C_6  and  C_31
    4  A    between atoms: C_8  and  O_28
    5  A    between atoms: C_19  and  C_24
                            x       y       z     vdW  Elec       q    Type
                         _______ _______ _______ _____ _____    ______ ____

>  <TORSDO>
F 5

$$$$
=
 OpenBabel11052416523D

 32 36  0  0  1  0  0  0  0  0999 V2000
  187.8720  178.2730  140.9350 C   0  0  2  0  0  3  0  0  0  0  0  0
  190.4540  178.4340  144.7180 C   0  0  0  0  0  2  0  0  0  0  0  0
  189.4300  177.8780  145.7200 C   0  0  0  0  0  2  0  0  0  0  0  0
  190.6310  177.5100  143.5130 C   0  0  0  0  0  2  0  0  0  0  0  0
  189.1690  178.4850  141.7180 C   0  0  0  0  0  2  0  0  0  0  0  0
  189.3240  177.3640  142.7280 C   0  0  2  0  0  3  0  0  0  0  0  0
  186.9500  177.6780  143.2220 N   0  0  0  0  0  0  0  0  0  0  0  0
  188.3220  177.0160  145.0930 C   0  0  0  0  0  2  0  0  0  0  0  0
  188.1220  177.3430  143.6430 C   0  0  0  0  0  0  0  0  0  0  0  0
  186.6470  178.1070  141.8620 C   0  0  1  0  0  3  0  0  0  0  0  0
  185.6830  179.3130  141.8760 C   0  0  1  0  0  3  0  0  0  0  0  0
  184.6700  179.3780  140.7170 C   0  0  2  0  0  3  0  0  0  0  0  0
  183.8010  178.5180  143.3930 C   0  0  2  0  0  3  0  0  0  0  0  0
  182.8230  178.6280  142.2260 C   0  0  0  0  0  2  0  0  0  0  0  0
  183.5310  178.3790  140.8970 C   0  0  0  0  0  2  0  0  0  0  0  0
  185.8710  179.3990  144.2780 O   0  0  0  0  0  1  0  0  0  0  0  0
  185.2910  179.1930  139.4810 O   0  0  0  0  0  1  0  0  0  0  0  0
  183.0540  178.7940  144.6850 C   0  0  0  0  0  1  0  0  0  0  0  0
  184.9630  179.5080  143.2220 C   0  0  1  0  0  3  0  0  0  0  0  0
  187.9800  177.1480  140.1080 O   0  0  0  0  0  0  0  0  0  0  0  0
  190.5920  177.1280  136.6740 C   0  0  0  0  0  2  0  0  0  0  0  0
  189.0390  177.4400  139.2390 C   0  0  2  0  0  3  0  0  0  0  0  0
  187.3560  178.2760  137.7510 O   0  0  0  0  0  0  0  0  0  0  0  0
  189.4110  177.9250  136.7910 O   0  0  0  0  0  0  0  0  0  0  0  0
  188.5380  177.8620  137.8860 C   0  0  0  0  0  0  0  0  0  0  0  0
  190.1420  176.0030  139.1040 S   0  0  0  0  0  0  0  0  0  0  0  0
  191.2670  176.9290  138.0200 C   0  0  1  0  0  3  0  0  0  0  0  0
  193.5560  175.5940  137.6800 C   0  0  0  0  0  0  0  0  0  0  0  0
  192.5190  176.1900  137.8550 C   0  0  0  0  0  0  0  0  0  0  0  0
  194.8120  174.8780  137.4470 C   0  0  0  0  0  3  0  0  0  0  0  0
  194.6730  173.4600  137.9690 C   0  0  0  0  0  2  0  0  0  0  0  0
  195.4220  174.4970  138.7780 C   0  0  0  0  0  2  0  0  0  0  0  0
  1 20  1  1  0  0  0
  1  5  1  0  0  0  0
  1 10  1  0  0  0  0
  2  3  1  0  0  0  0
  4  2  1  0  0  0  0
  6  5  1  6  0  0  0
  6  4  1  0  0  0  0
  6  9  1  0  0  0  0
  7  9  2  0  0  0  0
  8  3  1  0  0  0  0
  9  8  1  0  0  0  0
 10  7  1  1  0  0  0
 11 10  1  1  0  0  0
 11 19  1  0  0  0  0
 12 17  1  6  0  0  0
 12 15  1  0  0  0  0
 12 11  1  0  0  0  0
 13 18  1  1  0  0  0
 14 13  1  0  0  0  0
 15 14  1  0  0  0  0
 19 13  1  0  0  0  0
 19 16  1  1  0  0  0
 21 24  1  0  0  0  0
 21 27  1  0  0  0  0
 22 20  1  1  0  0  0
 23 25  2  0  0  0  0
 24 25  1  0  0  0  0
 25 22  1  0  0  0  0
 26 22  1  0  0  0  0
 27 29  1  6  0  0  0
 27 26  1  0  0  0  0
 28 29  3  0  0  0  0
 30 28  1  0  0  0  0
 30 31  1  0  0  0  0
 30 32  1  0  0  0  0
 31 32  1  0  0  0  0
M  END
>  <MODEL>
4

>  <REMARK>
 VINA RESULT:      -6.5      3.132      8.035
  Name = 
  5 active torsions:
  status: ('A' for Active; 'I' for Inactive)
    1  A    between atoms: C_1  and  C_10
    2  A    between atoms: C_3  and  O_28
    3  A    between atoms: C_6  and  C_31
    4  A    between atoms: C_8  and  O_28
    5  A    between atoms: C_19  and  C_24
                            x       y       z     vdW  Elec       q    Type
                         _______ _______ _______ _____ _____    ______ ____

>  <TORSDO>
F 5

$$$$
=
 OpenBabel11052416523D

 32 36  0  0  1  0  0  0  0  0999 V2000
  185.5540  177.1650  137.5410 C   0  0  2  0  0  3  0  0  0  0  0  0
  190.0830  176.7620  136.9810 C   0  0  0  0  0  2  0  0  0  0  0  0
  190.1570  177.0560  135.4740 C   0  0  0  0  0  2  0  0  0  0  0  0
  189.3370  177.8590  137.7400 C   0  0  0  0  0  2  0  0  0  0  0  0
  186.9970  176.9900  138.0170 C   0  0  0  0  0  2  0  0  0  0  0  0
  187.8830  177.9690  137.2700 C   0  0  2  0  0  3  0  0  0  0  0  0
  186.6480  177.3280  135.2590 N   0  0  0  0  0  0  0  0  0  0  0  0
  188.9750  177.8690  134.9210 C   0  0  0  0  0  2  0  0  0  0  0  0
  187.7560  177.7280  135.7840 C   0  0  0  0  0  0  0  0  0  0  0  0
  185.4240  177.0630  136.0060 C   0  0  1  0  0  3  0  0  0  0  0  0
  184.7510  175.7680  135.5000 C   0  0  1  0  0  3  0  0  0  0  0  0
  185.3550  174.4500  136.0210 C   0  0  2  0  0  3  0  0  0  0  0  0
  182.8220  175.4570  137.1300 C   0  0  2  0  0  3  0  0  0  0  0  0
  183.4360  174.1380  137.5940 C   0  0  0  0  0  2  0  0  0  0  0  0
  184.9570  174.1710  137.4670 C   0  0  0  0  0  2  0  0  0  0  0  0
  182.6780  176.9750  135.2540 O   0  0  0  0  0  1  0  0  0  0  0  0
  186.7420  174.4300  135.8830 O   0  0  0  0  0  1  0  0  0  0  0  0
  181.3130  175.3640  137.2560 C   0  0  0  0  0  1  0  0  0  0  0  0
  183.2230  175.7600  135.6780 C   0  0  1  0  0  3  0  0  0  0  0  0
  185.0470  178.4000  137.9660 O   0  0  0  0  0  0  0  0  0  0  0  0
  182.7980  178.8850  141.6160 C   0  0  0  0  0  2  0  0  0  0  0  0
  184.4210  178.1310  139.1900 C   0  0  2  0  0  3  0  0  0  0  0  0
  182.3720  178.6320  138.0520 O   0  0  0  0  0  0  0  0  0  0  0  0
  182.2240  178.5870  140.3420 O   0  0  0  0  0  0  0  0  0  0  0  0
  182.9660  178.5050  139.1550 C   0  0  0  0  0  0  0  0  0  0  0  0
  185.2840  179.0030  140.5300 S   0  0  0  0  0  0  0  0  0  0  0  0
  184.1770  178.2650  141.7660 C   0  0  1  0  0  3  0  0  0  0  0  0
  185.1390  178.7490  144.2100 C   0  0  0  0  0  0  0  0  0  0  0  0
  184.7000  178.5080  143.1100 C   0  0  0  0  0  0  0  0  0  0  0  0
  185.6770  179.0600  145.5350 C   0  0  0  0  0  3  0  0  0  0  0  0
  186.3030  177.8060  146.1180 C   0  0  0  0  0  2  0  0  0  0  0  0
  184.9330  178.2550  146.5780 C   0  0  0  0  0  2  0  0  0  0  0  0
  1 20  1  6  0  0  0
  1  5  1  0  0  0  0
  2  4  1  0  0  0  0
  3  2  1  0  0  0  0
  6  4  1  1  0  0  0
  6  5  1  0  0  0  0
  7  9  2  0  0  0  0
  8  3  1  0  0  0  0
  8  9  1  0  0  0  0
  9  6  1  0  0  0  0
 10  7  1  6  0  0  0
 10  1  1  0  0  0  0
 11 19  1  0  0  0  0
 11 10  1  1  0  0  0
 11 12  1  0  0  0  0
 12 17  1  1  0  0  0
 12 15  1  0  0  0  0
 13 18  1  6  0  0  0
 13 14  1  0  0  0  0
 15 14  1  0  0  0  0
 19 16  1  1  0  0  0
 19 13  1  0  0  0  0
 21 27  1  0  0  0  0
 22 20  1  6  0  0  0
 22 26  1  0  0  0  0
 23 25  2  0  0  0  0
 24 21  1  0  0  0  0
 25 22  1  0  0  0  0
 25 24  1  0  0  0  0
 26 27  1  0  0  0  0
 27 29  1  1  0  0  0
 28 30  1  0  0  0  0
 29 28  3  0  0  0  0
 30 31  1  0  0  0  0
 30 32  1  0  0  0  0
 31 32  1  0  0  0  0
M  END
>  <MODEL>
5

>  <REMARK>
 VINA RESULT:      -6.1      3.782      5.429
  Name = 
  5 active torsions:
  status: ('A' for Active; 'I' for Inactive)
    1  A    between atoms: C_1  and  C_10
    2  A    between atoms: C_3  and  O_28
    3  A    between atoms: C_6  and  C_31
    4  A    between atoms: C_8  and  O_28
    5  A    between atoms: C_19  and  C_24
                            x       y       z     vdW  Elec       q    Type
                         _______ _______ _______ _____ _____    ______ ____

>  <TORSDO>
F 5

$$$$
=
 OpenBabel11052416523D

 32 36  0  0  1  0  0  0  0  0999 V2000
  187.3060  177.6130  138.8110 C   0  0  2  0  0  3  0  0  0  0  0  0
  187.2870  174.4600  135.4870 C   0  0  0  0  0  2  0  0  0  0  0  0
  186.1970  175.0730  134.5940 C   0  0  0  0  0  2  0  0  0  0  0  0
  188.3940  175.4660  135.8050 C   0  0  0  0  0  2  0  0  0  0  0  0
  187.8210  176.3750  138.0750 C   0  0  0  0  0  2  0  0  0  0  0  0
  187.8470  176.6650  136.5860 C   0  0  2  0  0  3  0  0  0  0  0  0
  185.6480  177.6880  136.8940 N   0  0  0  0  0  0  0  0  0  0  0  0
  185.9930  176.5860  134.7760 C   0  0  0  0  0  2  0  0  0  0  0  0
  186.4600  177.0470  136.1240 C   0  0  0  0  0  0  0  0  0  0  0  0
  185.9510  178.1060  138.2570 C   0  0  1  0  0  3  0  0  0  0  0  0
  184.7430  177.8460  139.1840 C   0  0  1  0  0  3  0  0  0  0  0  0
  184.1810  179.0800  139.9160 C   0  0  2  0  0  3  0  0  0  0  0  0
  182.7660  177.9670  137.5880 C   0  0  2  0  0  3  0  0  0  0  0  0
  182.2240  179.1680  138.3620 C   0  0  0  0  0  2  0  0  0  0  0  0
  183.3610  179.9710  138.9870 C   0  0  0  0  0  2  0  0  0  0  0  0
  184.1180  175.9750  137.7990 O   0  0  0  0  0  1  0  0  0  0  0  0
  185.1910  179.8170  140.5340 O   0  0  0  0  0  1  0  0  0  0  0  0
  181.5970  177.1940  137.0060 C   0  0  0  0  0  1  0  0  0  0  0  0
  183.6050  177.0660  138.5060 C   0  0  1  0  0  3  0  0  0  0  0  0
  188.2420  178.6520  138.7330 O   0  0  0  0  0  0  0  0  0  0  0  0
  190.4620  176.9330  142.0080 C   0  0  0  0  0  2  0  0  0  0  0  0
  189.0240  178.5210  139.8870 C   0  0  2  0  0  3  0  0  0  0  0  0
  190.6470  177.4870  138.4570 O   0  0  0  0  0  0  0  0  0  0  0  0
  190.9950  177.1750  140.7050 O   0  0  0  0  0  0  0  0  0  0  0  0
  190.2360  177.6680  139.6340 C   0  0  0  0  0  0  0  0  0  0  0  0
  188.0200  177.8390  141.2390 S   0  0  0  0  0  0  0  0  0  0  0  0
  189.4210  177.9720  142.3870 C   0  0  1  0  0  3  0  0  0  0  0  0
  188.5610  177.5370  144.8790 C   0  0  0  0  0  0  0  0  0  0  0  0
  188.9610  177.7530  143.7590 C   0  0  0  0  0  0  0  0  0  0  0  0
  188.0650  177.2620  146.2280 C   0  0  0  0  0  3  0  0  0  0  0  0
  188.7180  178.2270  147.1990 C   0  0  0  0  0  2  0  0  0  0  0  0
  189.2130  176.8010  147.0980 C   0  0  0  0  0  2  0  0  0  0  0  0
  1 20  1  6  0  0  0
  2  4  1  0  0  0  0
  3  8  1  0  0  0  0
  3  2  1  0  0  0  0
  5  1  1  0  0  0  0
  6  4  1  6  0  0  0
  6  5  1  0  0  0  0
  8  9  1  0  0  0  0
  9  6  1  0  0  0  0
  9  7  2  0  0  0  0
 10  7  1  6  0  0  0
 10  1  1  0  0  0  0
 11 10  1  6  0  0  0
 11 12  1  0  0  0  0
 12 17  1  6  0  0  0
 13 18  1  1  0  0  0
 13 14  1  0  0  0  0
 13 19  1  0  0  0  0
 14 15  1  0  0  0  0
 15 12  1  0  0  0  0
 19 16  1  6  0  0  0
 19 11  1  0  0  0  0
 21 27  1  0  0  0  0
 22 20  1  6  0  0  0
 22 26  1  0  0  0  0
 23 25  2  0  0  0  0
 24 21  1  0  0  0  0
 25 22  1  0  0  0  0
 25 24  1  0  0  0  0
 26 27  1  0  0  0  0
 27 29  1  1  0  0  0
 28 30  1  0  0  0  0
 29 28  3  0  0  0  0
 30 32  1  0  0  0  0
 30 31  1  0  0  0  0
 32 31  1  0  0  0  0
M  END
>  <MODEL>
6

>  <REMARK>
 VINA RESULT:      -6.1      3.469      5.753
  Name = 
  5 active torsions:
  status: ('A' for Active; 'I' for Inactive)
    1  A    between atoms: C_1  and  C_10
    2  A    between atoms: C_3  and  O_28
    3  A    between atoms: C_6  and  C_31
    4  A    between atoms: C_8  and  O_28
    5  A    between atoms: C_19  and  C_24
                            x       y       z     vdW  Elec       q    Type
                         _______ _______ _______ _____ _____    ______ ____

>  <TORSDO>
F 5

$$$$
=
 OpenBabel11052416523D

 32 36  0  0  1  0  0  0  0  0999 V2000
  186.5690  178.2860  143.2490 C   0  0  2  0  0  3  0  0  0  0  0  0
  189.7510  178.3630  139.9530 C   0  0  0  0  0  2  0  0  0  0  0  0
  190.6790  177.2680  140.5030 C   0  0  0  0  0  2  0  0  0  0  0  0
  188.3060  177.8780  139.8350 C   0  0  0  0  0  2  0  0  0  0  0  0
  187.1620  178.7200  141.9070 C   0  0  0  0  0  2  0  0  0  0  0  0
  187.7330  177.5020  141.2060 C   0  0  2  0  0  3  0  0  0  0  0  0
  188.6720  176.8740  143.3750 N   0  0  0  0  0  0  0  0  0  0  0  0
  190.0000  176.2690  141.4530 C   0  0  0  0  0  2  0  0  0  0  0  0
  188.7750  176.8570  142.0890 C   0  0  0  0  0  0  0  0  0  0  0  0
  187.5800  177.4990  144.1110 C   0  0  1  0  0  3  0  0  0  0  0  0
  188.1230  178.2700  145.3340 C   0  0  1  0  0  3  0  0  0  0  0  0
  187.4920  177.9080  146.6920 C   0  0  2  0  0  3  0  0  0  0  0  0
  190.1740  176.9180  145.9940 C   0  0  2  0  0  3  0  0  0  0  0  0
  189.5280  176.6090  147.3430 C   0  0  0  0  0  2  0  0  0  0  0  0
  188.0070  176.5730  147.2220 C   0  0  0  0  0  2  0  0  0  0  0  0
  190.2320  178.5320  144.1960 O   0  0  0  0  0  1  0  0  0  0  0  0
  186.0990  177.9030  146.6280 O   0  0  0  0  0  1  0  0  0  0  0  0
  191.6800  176.9640  146.1730 C   0  0  0  0  0  1  0  0  0  0  0  0
  189.6570  178.2530  145.4390 C   0  0  1  0  0  3  0  0  0  0  0  0
  185.4250  177.5030  143.0470 O   0  0  0  0  0  0  0  0  0  0  0  0
  181.6640  179.1920  141.7800 C   0  0  0  0  0  2  0  0  0  0  0  0
  184.4700  178.3860  142.5290 C   0  0  2  0  0  3  0  0  0  0  0  0
  183.5510  178.4110  144.7430 O   0  0  0  0  0  0  0  0  0  0  0  0
  182.1770  179.2610  143.1120 O   0  0  0  0  0  0  0  0  0  0  0  0
  183.3670  178.6420  143.5180 C   0  0  0  0  0  0  0  0  0  0  0  0
  183.8050  177.7330  140.9700 S   0  0  0  0  0  0  0  0  0  0  0  0
  182.7790  179.2150  140.7500 C   0  0  1  0  0  3  0  0  0  0  0  0
  181.7600  179.2980  138.2830 C   0  0  0  0  0  0  0  0  0  0  0  0
  182.2210  179.2380  139.3980 C   0  0  0  0  0  0  0  0  0  0  0  0
  181.1980  179.3920  136.9340 C   0  0  0  0  0  3  0  0  0  0  0  0
  180.8060  180.8330  136.6640 C   0  0  0  0  0  2  0  0  0  0  0  0
  179.7480  179.8130  137.0250 C   0  0  0  0  0  2  0  0  0  0  0  0
  1 20  1  6  0  0  0
  1 10  1  0  0  0  0
  2  3  1  0  0  0  0
  3  8  1  0  0  0  0
  4  2  1  0  0  0  0
  5  1  1  0  0  0  0
  6  4  1  6  0  0  0
  6  5  1  0  0  0  0
  6  9  1  0  0  0  0
  8  9  1  0  0  0  0
  9  7  2  0  0  0  0
 10  7  1  6  0  0  0
 11 10  1  6  0  0  0
 11 19  1  0  0  0  0
 11 12  1  0  0  0  0
 12 17  1  6  0  0  0
 12 15  1  0  0  0  0
 13 18  1  1  0  0  0
 13 14  1  0  0  0  0
 15 14  1  0  0  0  0
 19 16  1  6  0  0  0
 19 13  1  0  0  0  0
 21 24  1  0  0  0  0
 22 20  1  1  0  0  0
 22 25  1  0  0  0  0
 24 25  1  0  0  0  0
 25 23  2  0  0  0  0
 26 22  1  0  0  0  0
 27 29  1  6  0  0  0
 27 26  1  0  0  0  0
 27 21  1  0  0  0  0
 28 29  3  0  0  0  0
 30 32  1  0  0  0  0
 30 28  1  0  0  0  0
 31 30  1  0  0  0  0
 31 32  1  0  0  0  0
M  END
>  <MODEL>
7

>  <REMARK>
 VINA RESULT:      -6.0      5.330      9.324
  Name = 
  5 active torsions:
  status: ('A' for Active; 'I' for Inactive)
    1  A    between atoms: C_1  and  C_10
    2  A    between atoms: C_3  and  O_28
    3  A    between atoms: C_6  and  C_31
    4  A    between atoms: C_8  and  O_28
    5  A    between atoms: C_19  and  C_24
                            x       y       z     vdW  Elec       q    Type
                         _______ _______ _______ _____ _____    ______ ____

>  <TORSDO>
F 5

$$$$
=
 OpenBabel11052416523D

 32 36  0  0  1  0  0  0  0  0999 V2000
  186.2290  177.2950  137.5890 C   0  0  2  0  0  3  0  0  0  0  0  0
  184.6310  173.8670  135.0030 C   0  0  0  0  0  2  0  0  0  0  0  0
  183.2890  174.4920  134.5940 C   0  0  0  0  0  2  0  0  0  0  0  0
  185.8090  174.7900  134.6930 C   0  0  0  0  0  2  0  0  0  0  0  0
  186.3190  175.9530  136.8600 C   0  0  0  0  0  2  0  0  0  0  0  0
  185.7080  176.1010  135.4790 C   0  0  2  0  0  3  0  0  0  0  0  0
  183.9080  177.3470  136.5690 N   0  0  0  0  0  0  0  0  0  0  0  0
  183.2510  176.0280  134.6580 C   0  0  0  0  0  2  0  0  0  0  0  0
  184.2770  176.5660  135.6110 C   0  0  0  0  0  0  0  0  0  0  0  0
  184.7910  177.8570  137.6110 C   0  0  1  0  0  3  0  0  0  0  0  0
  184.0960  177.7960  138.9880 C   0  0  1  0  0  3  0  0  0  0  0  0
  183.5870  179.1400  139.5440 C   0  0  2  0  0  3  0  0  0  0  0  0
  181.6950  177.2050  138.3880 C   0  0  2  0  0  3  0  0  0  0  0  0
  181.2280  178.5340  138.9800 C   0  0  0  0  0  2  0  0  0  0  0  0
  182.3110  179.6000  138.8470 C   0  0  0  0  0  2  0  0  0  0  0  0
  183.4300  175.5270  138.5190 O   0  0  0  0  0  1  0  0  0  0  0  0
  184.5670  180.1300  139.4740 O   0  0  0  0  0  1  0  0  0  0  0  0
  180.5940  176.1770  138.5640 C   0  0  0  0  0  1  0  0  0  0  0  0
  182.9870  176.7330  139.0700 C   0  0  1  0  0  3  0  0  0  0  0  0
  187.0830  178.2310  136.9920 O   0  0  0  0  0  0  0  0  0  0  0  0
  190.5320  176.9950  139.2680 C   0  0  0  0  0  2  0  0  0  0  0  0
  188.2160  178.2630  137.8140 C   0  0  2  0  0  3  0  0  0  0  0  0
  189.4210  177.5080  135.8840 O   0  0  0  0  0  0  0  0  0  0  0  0
  190.5490  177.3040  137.8730 O   0  0  0  0  0  0  0  0  0  0  0  0
  189.4020  177.6340  137.1380 C   0  0  0  0  0  0  0  0  0  0  0  0
  187.8560  177.4380  139.3930 S   0  0  0  0  0  0  0  0  0  0  0  0
  189.5140  177.8390  140.0160 C   0  0  1  0  0  3  0  0  0  0  0  0
  189.6680  177.3080  142.6290 C   0  0  0  0  0  0  0  0  0  0  0  0
  189.5850  177.5670  141.4520 C   0  0  0  0  0  0  0  0  0  0  0  0
  189.7770  176.9770  144.0510 C   0  0  0  0  0  3  0  0  0  0  0  0
  188.4960  177.3910  144.7520 C   0  0  0  0  0  2  0  0  0  0  0  0
  189.7370  178.2510  144.8650 C   0  0  0  0  0  2  0  0  0  0  0  0
  1 20  1  6  0  0  0
  1 10  1  0  0  0  0
  3  8  1  0  0  0  0
  3  2  1  0  0  0  0
  4  2  1  0  0  0  0
  5  1  1  0  0  0  0
  6  4  1  1  0  0  0
  6  9  1  0  0  0  0
  6  5  1  0  0  0  0
  8  9  1  0  0  0  0
  9  7  2  0  0  0  0
 10  7  1  6  0  0  0
 11 10  1  6  0  0  0
 11 19  1  0  0  0  0
 11 12  1  0  0  0  0
 12 17  1  6  0  0  0
 13 18  1  1  0  0  0
 13 14  1  0  0  0  0
 13 19  1  0  0  0  0
 15 14  1  0  0  0  0
 15 12  1  0  0  0  0
 19 16  1  6  0  0  0
 21 27  1  0  0  0  0
 22 20  1  6  0  0  0
 22 26  1  0  0  0  0
 23 25  2  0  0  0  0
 24 21  1  0  0  0  0
 25 22  1  0  0  0  0
 25 24  1  0  0  0  0
 26 27  1  0  0  0  0
 27 29  1  1  0  0  0
 28 30  1  0  0  0  0
 29 28  3  0  0  0  0
 30 31  1  0  0  0  0
 30 32  1  0  0  0  0
 31 32  1  0  0  0  0
M  END
>  <MODEL>
8

>  <REMARK>
 VINA RESULT:      -5.8      3.622      6.777
  Name = 
  5 active torsions:
  status: ('A' for Active; 'I' for Inactive)
    1  A    between atoms: C_1  and  C_10
    2  A    between atoms: C_3  and  O_28
    3  A    between atoms: C_6  and  C_31
    4  A    between atoms: C_8  and  O_28
    5  A    between atoms: C_19  and  C_24
                            x       y       z     vdW  Elec       q    Type
                         _______ _______ _______ _____ _____    ______ ____

>  <TORSDO>
F 5

$$$$
=
 OpenBabel11052416523D

 32 36  0  0  1  0  0  0  0  0999 V2000
  182.3410  178.3270  140.1260 C   0  0  2  0  0  3  0  0  0  0  0  0
  183.6610  175.2120  137.0360 C   0  0  0  0  0  2  0  0  0  0  0  0
  183.2710  175.9730  135.7600 C   0  0  0  0  0  2  0  0  0  0  0  0
  184.5570  176.0500  137.9480 C   0  0  0  0  0  2  0  0  0  0  0  0
  183.0080  177.0290  139.6670 C   0  0  0  0  0  2  0  0  0  0  0  0
  183.8340  177.3130  138.4260 C   0  0  2  0  0  3  0  0  0  0  0  0
  181.9340  178.6380  137.6420 N   0  0  0  0  0  0  0  0  0  0  0  0
  183.1880  177.5000  135.9230 C   0  0  0  0  0  2  0  0  0  0  0  0
  182.9430  177.8890  137.3510 C   0  0  0  0  0  0  0  0  0  0  0  0
  181.5380  179.0070  138.9960 C   0  0  1  0  0  3  0  0  0  0  0  0
  180.0040  178.9200  139.1530 C   0  0  1  0  0  3  0  0  0  0  0  0
  179.4510  177.5570  139.6110 C   0  0  2  0  0  3  0  0  0  0  0  0
  179.6240  179.7960  141.5120 C   0  0  2  0  0  3  0  0  0  0  0  0
  179.0510  178.4390  141.9160 C   0  0  0  0  0  2  0  0  0  0  0  0
  179.6840  177.3160  141.0990 C   0  0  0  0  0  2  0  0  0  0  0  0
  179.9480  181.2820  139.6330 O   0  0  0  0  0  1  0  0  0  0  0  0
  179.9790  176.5090  138.8580 O   0  0  0  0  0  1  0  0  0  0  0  0
  178.9490  180.8770  142.3360 C   0  0  0  0  0  1  0  0  0  0  0  0
  179.4100  180.0500  140.0120 C   0  0  1  0  0  3  0  0  0  0  0  0
  183.3010  179.2230  140.6140 O   0  0  0  0  0  0  0  0  0  0  0  0
  185.2860  178.4690  144.3690 C   0  0  0  0  0  2  0  0  0  0  0  0
  183.8930  178.5620  141.6970 C   0  0  2  0  0  3  0  0  0  0  0  0
  182.1140  179.4900  143.0100 O   0  0  0  0  0  0  0  0  0  0  0  0
  183.8770  178.6520  144.2180 O   0  0  0  0  0  0  0  0  0  0  0  0
  183.2610  178.9680  142.9990 C   0  0  0  0  0  0  0  0  0  0  0  0
  185.6810  178.8840  141.7150 S   0  0  0  0  0  0  0  0  0  0  0  0
  185.8950  177.7950  143.1520 C   0  0  1  0  0  3  0  0  0  0  0  0
  188.4900  177.3410  143.5950 C   0  0  0  0  0  0  0  0  0  0  0  0
  187.3180  177.5370  143.3730 C   0  0  0  0  0  0  0  0  0  0  0  0
  189.9070  177.1130  143.8810 C   0  0  0  0  0  3  0  0  0  0  0  0
  190.1820  177.4830  145.3260 C   0  0  0  0  0  2  0  0  0  0  0  0
  190.5680  178.4340  144.2130 C   0  0  0  0  0  2  0  0  0  0  0  0
  1 20  1  6  0  0  0
  2  4  1  0  0  0  0
  3  8  1  0  0  0  0
  3  2  1  0  0  0  0
  5  1  1  0  0  0  0
  6  4  1  6  0  0  0
  6  5  1  0  0  0  0
  8  9  1  0  0  0  0
  9  7  2  0  0  0  0
  9  6  1  0  0  0  0
 10  7  1  6  0  0  0
 10  1  1  0  0  0  0
 11 10  1  1  0  0  0
 11 12  1  0  0  0  0
 11 19  1  0  0  0  0
 12 17  1  6  0  0  0
 12 15  1  0  0  0  0
 13 14  1  0  0  0  0
 13 18  1  1  0  0  0
 15 14  1  0  0  0  0
 19 16  1  6  0  0  0
 19 13  1  0  0  0  0
 22 20  1  6  0  0  0
 22 26  1  0  0  0  0
 22 25  1  0  0  0  0
 24 21  1  0  0  0  0
 25 23  2  0  0  0  0
 25 24  1  0  0  0  0
 26 27  1  0  0  0  0
 27 29  1  1  0  0  0
 27 21  1  0  0  0  0
 28 30  1  0  0  0  0
 29 28  3  0  0  0  0
 30 32  1  0  0  0  0
 30 31  1  0  0  0  0
 32 31  1  0  0  0  0
M  END
>  <MODEL>
9

>  <REMARK>
 VINA RESULT:      -5.8      6.504      9.121
  Name = 
  5 active torsions:
  status: ('A' for Active; 'I' for Inactive)
    1  A    between atoms: C_1  and  C_10
    2  A    between atoms: C_3  and  O_28
    3  A    between atoms: C_6  and  C_31
    4  A    between atoms: C_8  and  O_28
    5  A    between atoms: C_19  and  C_24
                            x       y       z     vdW  Elec       q    Type
                         _______ _______ _______ _____ _____    ______ ____

>  <TORSDO>
F 5

$$$$
