=
 OpenBabel11052412463D

 25 28  0  0  1  0  0  0  0  0999 V2000
  187.1640  177.9370  145.9000 C   0  0  0  0  0  0  0  0  0  0  0  0
  188.3430  177.4690  145.4870 C   0  0  0  0  0  0  0  0  0  0  0  0
  187.8520  177.9550  148.3060 C   0  0  0  0  0  2  0  0  0  0  0  0
  186.0370  178.2620  145.1830 C   0  0  0  0  0  0  0  0  0  0  0  0
  184.1390  178.8380  144.1720 N   0  0  0  0  0  0  0  0  0  0  0  0
  189.1750  177.4330  147.7890 C   0  0  0  0  0  3  0  0  0  0  0  0
  185.1360  178.6820  146.0590 C   0  0  0  0  0  0  0  0  0  0  0  0
  183.9290  179.0490  145.4190 N   0  0  0  0  0  0  0  0  0  0  0  0
  190.6980  176.6990  145.9900 C   0  0  0  0  0  0  0  0  0  0  0  0
  191.8190  176.4220  146.9340 C   0  0  0  0  0  1  0  0  0  0  0  0
  188.6260  177.2130  144.1150 N   0  0  0  0  0  2  0  0  0  0  0  0
  186.0850  177.9790  142.6800 C   0  0  0  0  0  1  0  0  0  0  0  0
  186.9020  178.1770  147.2140 N   0  0  0  0  0  0  0  0  0  0  0  0
  185.6300  178.6480  147.3460 C   0  0  0  0  0  3  0  0  0  0  0  0
  190.8850  176.4860  144.7200 N   0  0  0  0  0  0  0  0  0  0  0  0
  185.4790  178.3340  143.9920 C   0  0  0  0  0  0  0  0  0  0  0  0
  189.8880  176.7140  143.7520 N   0  0  0  0  0  0  0  0  0  0  0  0
  189.3990  177.2060  146.4820 C   0  0  0  0  0  0  0  0  0  0  0  0
  190.1910  176.5000  142.3490 C   0  0  0  0  0  2  0  0  0  0  0  0
  189.6220  177.6450  141.5200 C   0  0  0  0  0  2  0  0  0  0  0  0
  189.3810  177.2500  140.0610 C   0  0  2  0  0  3  0  0  0  0  0  0
  190.6510  176.7230  139.4160 C   0  0  0  0  0  1  0  0  0  0  0  0
  189.2310  178.5900  138.0100 C   0  0  0  0  0  3  0  0  0  0  0  0
  188.6990  179.6410  137.2760 O   0  0  0  0  0  1  0  0  0  0  0  0
  188.8210  178.3760  139.2530 C   0  0  0  0  0  3  0  0  0  0  0  0
  1 13  1  0  0  0  0
  2  1  2  0  0  0  0
  2 18  1  0  0  0  0
  4  1  1  0  0  0  0
  4  7  1  0  0  0  0
  5  8  2  0  0  0  0
  6  3  1  0  0  0  0
  7 14  2  0  0  0  0
  8  7  1  0  0  0  0
  9 18  1  0  0  0  0
  9 10  1  0  0  0  0
 11  2  1  0  0  0  0
 12 16  1  0  0  0  0
 13 14  1  0  0  0  0
 13  3  1  0  0  0  0
 15  9  2  0  0  0  0
 16  5  1  0  0  0  0
 16  4  2  0  0  0  0
 17 11  1  0  0  0  0
 17 15  1  0  0  0  0
 18  6  2  0  0  0  0
 19 17  1  0  0  0  0
 20 19  1  0  0  0  0
 21 22  1  6  0  0  0
 21 20  1  0  0  0  0
 23 25  2  0  0  0  0
 24 23  1  0  0  0  0
 25 21  1  0  0  0  0
M  END
>  <MODEL>
1

>  <REMARK>
 VINA RESULT:      -9.6      0.000      0.000
  Name = 
  4 active torsions:
  status: ('A' for Active; 'I' for Inactive)
    1  A    between atoms: C_6  and  C_15
    2  A    between atoms: C_6  and  N_23
    3  A    between atoms: C_12  and  C_21
    4  A    between atoms: C_15  and  C_21
                            x       y       z     vdW  Elec       q    Type
                         _______ _______ _______ _____ _____    ______ ____

>  <TORSDO>
F 4

$$$$
=
 OpenBabel11052412463D

 25 28  0  0  1  0  0  0  0  0999 V2000
  187.0740  177.9740  145.7380 C   0  0  0  0  0  0  0  0  0  0  0  0
  188.2370  177.5280  145.2600 C   0  0  0  0  0  0  0  0  0  0  0  0
  187.8790  177.9620  148.1070 C   0  0  0  0  0  2  0  0  0  0  0  0
  185.9100  178.2960  145.0830 C   0  0  0  0  0  0  0  0  0  0  0  0
  183.9570  178.8650  144.1760 N   0  0  0  0  0  0  0  0  0  0  0  0
  189.1810  177.4660  147.5170 C   0  0  0  0  0  3  0  0  0  0  0  0
  185.0480  178.6900  146.0080 C   0  0  0  0  0  0  0  0  0  0  0  0
  183.8060  179.0530  145.4340 N   0  0  0  0  0  0  0  0  0  0  0  0
  190.6220  176.7810  145.6340 C   0  0  0  0  0  0  0  0  0  0  0  0
  191.7920  176.5030  146.5170 C   0  0  0  0  0  1  0  0  0  0  0  0
  188.4560  177.2990  143.8720 N   0  0  0  0  0  2  0  0  0  0  0  0
  185.8380  178.0550  142.5760 C   0  0  0  0  0  1  0  0  0  0  0  0
  186.8740  178.1900  147.0660 N   0  0  0  0  0  0  0  0  0  0  0  0
  185.6040  178.6420  147.2680 C   0  0  0  0  0  3  0  0  0  0  0  0
  190.7500  176.5910  144.3530 N   0  0  0  0  0  0  0  0  0  0  0  0
  185.2920  178.3810  143.9210 C   0  0  0  0  0  0  0  0  0  0  0  0
  189.7030  176.8220  143.4380 N   0  0  0  0  0  0  0  0  0  0  0  0
  189.3440  177.2630  146.1980 C   0  0  0  0  0  0  0  0  0  0  0  0
  189.9400  176.6340  142.0190 C   0  0  0  0  0  2  0  0  0  0  0  0
  189.2040  177.7100  141.2290 C   0  0  0  0  0  2  0  0  0  0  0  0
  189.6390  177.7630  139.7620 C   0  0  2  0  0  3  0  0  0  0  0  0
  188.4410  177.7180  138.8310 C   0  0  0  0  0  1  0  0  0  0  0  0
  190.3840  175.8780  138.3790 C   0  0  0  0  0  3  0  0  0  0  0  0
  191.2910  174.8720  138.0740 O   0  0  0  0  0  1  0  0  0  0  0  0
  190.6030  176.6730  139.4170 C   0  0  0  0  0  3  0  0  0  0  0  0
  1 13  1  0  0  0  0
  2  1  2  0  0  0  0
  2 18  1  0  0  0  0
  4  1  1  0  0  0  0
  4  7  1  0  0  0  0
  5  8  2  0  0  0  0
  6  3  1  0  0  0  0
  7 14  2  0  0  0  0
  8  7  1  0  0  0  0
  9 18  1  0  0  0  0
  9 10  1  0  0  0  0
 11  2  1  0  0  0  0
 12 16  1  0  0  0  0
 13 14  1  0  0  0  0
 13  3  1  0  0  0  0
 15  9  2  0  0  0  0
 16  5  1  0  0  0  0
 16  4  2  0  0  0  0
 17 11  1  0  0  0  0
 17 15  1  0  0  0  0
 18  6  2  0  0  0  0
 19 17  1  0  0  0  0
 20 19  1  0  0  0  0
 21 22  1  6  0  0  0
 21 20  1  0  0  0  0
 23 25  2  0  0  0  0
 24 23  1  0  0  0  0
 25 21  1  0  0  0  0
M  END
>  <MODEL>
2

>  <REMARK>
 VINA RESULT:      -9.4      1.184      1.461
  Name = 
  4 active torsions:
  status: ('A' for Active; 'I' for Inactive)
    1  A    between atoms: C_6  and  C_15
    2  A    between atoms: C_6  and  N_23
    3  A    between atoms: C_12  and  C_21
    4  A    between atoms: C_15  and  C_21
                            x       y       z     vdW  Elec       q    Type
                         _______ _______ _______ _____ _____    ______ ____

>  <TORSDO>
F 4

$$$$
=
 OpenBabel11052412463D

 25 28  0  0  1  0  0  0  0  0999 V2000
  188.5800  177.5450  145.8410 C   0  0  0  0  0  0  0  0  0  0  0  0
  187.8910  177.7510  144.7170 C   0  0  0  0  0  0  0  0  0  0  0  0
  186.5860  177.9250  147.3040 C   0  0  0  0  0  2  0  0  0  0  0  0
  189.9070  177.2390  146.0250 C   0  0  0  0  0  0  0  0  0  0  0  0
  192.0250  176.7360  146.4940 N   0  0  0  0  0  0  0  0  0  0  0  0
  185.8450  178.1420  146.0020 C   0  0  0  0  0  3  0  0  0  0  0  0
  190.0970  177.1360  147.3310 C   0  0  0  0  0  0  0  0  0  0  0  0
  191.4420  176.8160  147.6320 N   0  0  0  0  0  0  0  0  0  0  0  0
  185.7160  178.2740  143.5400 C   0  0  0  0  0  0  0  0  0  0  0  0
  184.2560  178.5810  143.5470 C   0  0  0  0  0  1  0  0  0  0  0  0
  188.4910  177.6780  143.4270 N   0  0  0  0  0  2  0  0  0  0  0  0
  191.3750  176.9940  143.9910 C   0  0  0  0  0  1  0  0  0  0  0  0
  187.9980  177.6170  147.0680 N   0  0  0  0  0  0  0  0  0  0  0  0
  188.9300  177.3640  148.0300 C   0  0  0  0  0  3  0  0  0  0  0  0
  186.3310  178.1950  142.3960 N   0  0  0  0  0  0  0  0  0  0  0  0
  191.0680  177.0020  145.4470 C   0  0  0  0  0  0  0  0  0  0  0  0
  187.7070  177.9130  142.2860 N   0  0  0  0  0  0  0  0  0  0  0  0
  186.4520  178.0630  144.8050 C   0  0  0  0  0  0  0  0  0  0  0  0
  188.3090  177.7920  140.9720 C   0  0  0  0  0  2  0  0  0  0  0  0
  189.6370  177.0520  141.0810 C   0  0  0  0  0  2  0  0  0  0  0  0
  190.6130  177.4290  139.9640 C   0  0  2  0  0  3  0  0  0  0  0  0
  190.4610  176.5070  138.7670 C   0  0  0  0  0  1  0  0  0  0  0  0
  193.0100  177.0180  139.6400 C   0  0  0  0  0  3  0  0  0  0  0  0
  194.3230  177.0380  140.0920 O   0  0  0  0  0  1  0  0  0  0  0  0
  192.0330  177.4420  140.4300 C   0  0  0  0  0  3  0  0  0  0  0  0
  1  4  1  0  0  0  0
  1 13  1  0  0  0  0
  2 18  1  0  0  0  0
  2  1  2  0  0  0  0
  4  7  1  0  0  0  0
  5  8  2  0  0  0  0
  6  3  1  0  0  0  0
  7  8  1  0  0  0  0
  7 14  2  0  0  0  0
  9 10  1  0  0  0  0
  9 18  1  0  0  0  0
 11  2  1  0  0  0  0
 12 16  1  0  0  0  0
 13  3  1  0  0  0  0
 13 14  1  0  0  0  0
 15  9  2  0  0  0  0
 16  4  2  0  0  0  0
 16  5  1  0  0  0  0
 17 15  1  0  0  0  0
 17 11  1  0  0  0  0
 18  6  2  0  0  0  0
 19 20  1  0  0  0  0
 19 17  1  0  0  0  0
 21 22  1  6  0  0  0
 21 25  1  0  0  0  0
 21 20  1  0  0  0  0
 23 24  1  0  0  0  0
 23 25  2  0  0  0  0
M  END
>  <MODEL>
3

>  <REMARK>
 VINA RESULT:      -9.1      2.059      4.602
  Name = 
  4 active torsions:
  status: ('A' for Active; 'I' for Inactive)
    1  A    between atoms: C_6  and  C_15
    2  A    between atoms: C_6  and  N_23
    3  A    between atoms: C_12  and  C_21
    4  A    between atoms: C_15  and  C_21
                            x       y       z     vdW  Elec       q    Type
                         _______ _______ _______ _____ _____    ______ ____

>  <TORSDO>
F 4

$$$$
=
 OpenBabel11052412463D

 25 28  0  0  1  0  0  0  0  0999 V2000
  188.4360  177.6330  145.6590 C   0  0  0  0  0  0  0  0  0  0  0  0
  187.6950  177.8950  144.5800 C   0  0  0  0  0  0  0  0  0  0  0  0
  186.4950  177.8550  147.2220 C   0  0  0  0  0  2  0  0  0  0  0  0
  189.7770  177.3540  145.7680 C   0  0  0  0  0  0  0  0  0  0  0  0
  191.9250  176.8820  146.1170 N   0  0  0  0  0  0  0  0  0  0  0  0
  185.6940  178.1380  145.9690 C   0  0  0  0  0  3  0  0  0  0  0  0
  190.0240  177.1680  147.0560 C   0  0  0  0  0  0  0  0  0  0  0  0
  191.3880  176.8670  147.2810 N   0  0  0  0  0  0  0  0  0  0  0  0
  185.4600  178.4330  143.5300 C   0  0  0  0  0  0  0  0  0  0  0  0
  183.9940  178.6960  143.6150 C   0  0  0  0  0  1  0  0  0  0  0  0
  188.2420  177.9270  143.2660 N   0  0  0  0  0  2  0  0  0  0  0  0
  191.1640  177.2900  143.6660 C   0  0  0  0  0  1  0  0  0  0  0  0
  187.9040  177.6050  146.9100 N   0  0  0  0  0  0  0  0  0  0  0  0
  188.8820  177.3140  147.8140 C   0  0  0  0  0  3  0  0  0  0  0  0
  186.0280  178.4490  142.3590 N   0  0  0  0  0  0  0  0  0  0  0  0
  190.9190  177.1900  145.1300 C   0  0  0  0  0  0  0  0  0  0  0  0
  187.4060  178.2160  142.1760 N   0  0  0  0  0  0  0  0  0  0  0  0
  186.2540  178.1580  144.7460 C   0  0  0  0  0  0  0  0  0  0  0  0
  187.9550  178.2010  140.8330 C   0  0  0  0  0  2  0  0  0  0  0  0
  189.1680  177.2790  140.7840 C   0  0  0  0  0  2  0  0  0  0  0  0
  190.1200  177.6220  139.6360 C   0  0  2  0  0  3  0  0  0  0  0  0
  189.3630  178.1650  138.4370 C   0  0  0  0  0  1  0  0  0  0  0  0
  190.5820  175.6530  138.2460 C   0  0  0  0  0  3  0  0  0  0  0  0
  191.3800  174.5750  137.8840 O   0  0  0  0  0  1  0  0  0  0  0  0
  190.9630  176.4560  139.2310 C   0  0  0  0  0  3  0  0  0  0  0  0
  1  4  1  0  0  0  0
  1 13  1  0  0  0  0
  2 18  1  0  0  0  0
  2  1  2  0  0  0  0
  4  7  1  0  0  0  0
  5  8  2  0  0  0  0
  6  3  1  0  0  0  0
  7  8  1  0  0  0  0
  7 14  2  0  0  0  0
  9 10  1  0  0  0  0
  9 18  1  0  0  0  0
 11  2  1  0  0  0  0
 12 16  1  0  0  0  0
 13  3  1  0  0  0  0
 13 14  1  0  0  0  0
 15  9  2  0  0  0  0
 16  4  2  0  0  0  0
 16  5  1  0  0  0  0
 17 15  1  0  0  0  0
 17 11  1  0  0  0  0
 18  6  2  0  0  0  0
 19 17  1  0  0  0  0
 20 19  1  0  0  0  0
 21 22  1  6  0  0  0
 21 20  1  0  0  0  0
 23 25  2  0  0  0  0
 24 23  1  0  0  0  0
 25 21  1  0  0  0  0
M  END
>  <MODEL>
4

>  <REMARK>
 VINA RESULT:      -9.0      1.834      4.524
  Name = 
  4 active torsions:
  status: ('A' for Active; 'I' for Inactive)
    1  A    between atoms: C_6  and  C_15
    2  A    between atoms: C_6  and  N_23
    3  A    between atoms: C_12  and  C_21
    4  A    between atoms: C_15  and  C_21
                            x       y       z     vdW  Elec       q    Type
                         _______ _______ _______ _____ _____    ______ ____

>  <TORSDO>
F 4

$$$$
=
 OpenBabel11052412463D

 25 28  0  0  1  0  0  0  0  0999 V2000
  188.5800  177.6110  145.9880 C   0  0  0  0  0  0  0  0  0  0  0  0
  187.7590  177.8590  144.9670 C   0  0  0  0  0  0  0  0  0  0  0  0
  186.8070  178.0380  147.7030 C   0  0  0  0  0  2  0  0  0  0  0  0
  189.9070  177.2540  145.9950 C   0  0  0  0  0  0  0  0  0  0  0  0
  192.0470  176.6680  146.1790 N   0  0  0  0  0  0  0  0  0  0  0  0
  185.9130  178.3030  146.5110 C   0  0  0  0  0  3  0  0  0  0  0  0
  190.2610  177.1230  147.2640 C   0  0  0  0  0  0  0  0  0  0  0  0
  191.6210  176.7500  147.3840 N   0  0  0  0  0  0  0  0  0  0  0  0
  185.4710  178.4790  144.0890 C   0  0  0  0  0  0  0  0  0  0  0  0
  184.0370  178.8380  144.2890 C   0  0  0  0  0  1  0  0  0  0  0  0
  188.1840  177.7860  143.6090 N   0  0  0  0  0  2  0  0  0  0  0  0
  191.0890  176.9900  143.7850 C   0  0  0  0  0  1  0  0  0  0  0  0
  188.1650  177.6840  147.2820 N   0  0  0  0  0  0  0  0  0  0  0  0
  189.2040  177.3820  148.1110 C   0  0  0  0  0  3  0  0  0  0  0  0
  185.9290  178.3960  142.8740 N   0  0  0  0  0  0  0  0  0  0  0  0
  190.9740  176.9860  145.2680 C   0  0  0  0  0  0  0  0  0  0  0  0
  187.2680  178.0680  142.5830 N   0  0  0  0  0  0  0  0  0  0  0  0
  186.3570  178.2210  145.2440 C   0  0  0  0  0  0  0  0  0  0  0  0
  187.6890  177.9460  141.2000 C   0  0  0  0  0  2  0  0  0  0  0  0
  188.9830  177.1440  141.1250 C   0  0  0  0  0  2  0  0  0  0  0  0
  189.6740  177.2690  139.7660 C   0  0  2  0  0  3  0  0  0  0  0  0
  191.1800  177.1260  139.8990 C   0  0  0  0  0  1  0  0  0  0  0  0
  189.0370  178.5630  137.7800 C   0  0  0  0  0  3  0  0  0  0  0  0
  188.7250  179.7630  137.1550 O   0  0  0  0  0  1  0  0  0  0  0  0
  189.3360  178.5490  139.0730 C   0  0  0  0  0  3  0  0  0  0  0  0
  1  4  1  0  0  0  0
  1 13  1  0  0  0  0
  2 18  1  0  0  0  0
  2  1  2  0  0  0  0
  4  7  1  0  0  0  0
  5  8  2  0  0  0  0
  6  3  1  0  0  0  0
  7  8  1  0  0  0  0
  7 14  2  0  0  0  0
  9 10  1  0  0  0  0
  9 18  1  0  0  0  0
 11  2  1  0  0  0  0
 12 16  1  0  0  0  0
 13  3  1  0  0  0  0
 13 14  1  0  0  0  0
 15  9  2  0  0  0  0
 16  4  2  0  0  0  0
 16  5  1  0  0  0  0
 17 15  1  0  0  0  0
 17 11  1  0  0  0  0
 18  6  2  0  0  0  0
 19 17  1  0  0  0  0
 20 19  1  0  0  0  0
 21 22  1  1  0  0  0
 21 20  1  0  0  0  0
 23 25  2  0  0  0  0
 24 23  1  0  0  0  0
 25 21  1  0  0  0  0
M  END
>  <MODEL>
5

>  <REMARK>
 VINA RESULT:      -8.9      1.316      4.266
  Name = 
  4 active torsions:
  status: ('A' for Active; 'I' for Inactive)
    1  A    between atoms: C_6  and  C_15
    2  A    between atoms: C_6  and  N_23
    3  A    between atoms: C_12  and  C_21
    4  A    between atoms: C_15  and  C_21
                            x       y       z     vdW  Elec       q    Type
                         _______ _______ _______ _____ _____    ______ ____

>  <TORSDO>
F 4

$$$$
=
 OpenBabel11052412463D

 25 28  0  0  1  0  0  0  0  0999 V2000
  189.3210  177.4480  143.8460 C   0  0  0  0  0  0  0  0  0  0  0  0
  188.6090  177.8210  142.7810 C   0  0  0  0  0  0  0  0  0  0  0  0
  191.3640  176.9560  142.4860 C   0  0  0  0  0  2  0  0  0  0  0  0
  188.9700  177.3900  145.1730 C   0  0  0  0  0  0  0  0  0  0  0  0
  188.5650  177.2440  147.3580 N   0  0  0  0  0  0  0  0  0  0  0  0
  190.5180  177.3960  141.3100 C   0  0  0  0  0  3  0  0  0  0  0  0
  190.0350  176.9550  145.8310 C   0  0  0  0  0  0  0  0  0  0  0  0
  189.7800  176.8620  147.2200 N   0  0  0  0  0  0  0  0  0  0  0  0
  188.4270  178.2250  140.2930 C   0  0  0  0  0  0  0  0  0  0  0  0
  189.0000  178.2380  138.9160 C   0  0  0  0  0  1  0  0  0  0  0  0
  187.2540  178.2500  142.8800 N   0  0  0  0  0  2  0  0  0  0  0  0
  186.6370  178.0790  145.8280 C   0  0  0  0  0  1  0  0  0  0  0  0
  190.6150  177.0390  143.7420 N   0  0  0  0  0  0  0  0  0  0  0  0
  191.0930  176.7210  144.9780 C   0  0  0  0  0  3  0  0  0  0  0  0
  187.1930  178.6020  140.4570 N   0  0  0  0  0  0  0  0  0  0  0  0
  188.0210  177.5870  146.0660 C   0  0  0  0  0  0  0  0  0  0  0  0
  186.5610  178.6220  141.7170 N   0  0  0  0  0  0  0  0  0  0  0  0
  189.2410  177.7950  141.4490 C   0  0  0  0  0  0  0  0  0  0  0  0
  185.1970  179.1040  141.8250 C   0  0  0  0  0  2  0  0  0  0  0  0
  184.4490  178.2970  142.8800 C   0  0  0  0  0  2  0  0  0  0  0  0
  183.3250  179.0960  143.5430 C   0  0  2  0  0  3  0  0  0  0  0  0
  183.3590  178.9430  145.0540 C   0  0  0  0  0  1  0  0  0  0  0  0
  180.9410  178.5940  143.8340 C   0  0  0  0  0  3  0  0  0  0  0  0
  179.6960  178.2500  143.3240 O   0  0  0  0  0  1  0  0  0  0  0  0
  181.9770  178.7260  143.0160 C   0  0  0  0  0  3  0  0  0  0  0  0
  1  4  1  0  0  0  0
  2 11  1  0  0  0  0
  2  1  2  0  0  0  0
  3 13  1  0  0  0  0
  4  7  1  0  0  0  0
  4 16  2  0  0  0  0
  6 18  2  0  0  0  0
  6  3  1  0  0  0  0
  7  8  1  0  0  0  0
  8  5  2  0  0  0  0
  9 15  2  0  0  0  0
  9 18  1  0  0  0  0
 10  9  1  0  0  0  0
 12 16  1  0  0  0  0
 13  1  1  0  0  0  0
 13 14  1  0  0  0  0
 14  7  2  0  0  0  0
 15 17  1  0  0  0  0
 16  5  1  0  0  0  0
 17 19  1  0  0  0  0
 17 11  1  0  0  0  0
 18  2  1  0  0  0  0
 19 20  1  0  0  0  0
 20 21  1  0  0  0  0
 21 22  1  1  0  0  0
 24 23  1  0  0  0  0
 25 21  1  0  0  0  0
 25 23  2  0  0  0  0
M  END
>  <MODEL>
6

>  <REMARK>
 VINA RESULT:      -8.8      3.016      6.304
  Name = 
  4 active torsions:
  status: ('A' for Active; 'I' for Inactive)
    1  A    between atoms: C_6  and  C_15
    2  A    between atoms: C_6  and  N_23
    3  A    between atoms: C_12  and  C_21
    4  A    between atoms: C_15  and  C_21
                            x       y       z     vdW  Elec       q    Type
                         _______ _______ _______ _____ _____    ______ ____

>  <TORSDO>
F 4

$$$$
=
 OpenBabel11052412463D

 25 28  0  0  1  0  0  0  0  0999 V2000
  185.6560  178.5350  142.9310 C   0  0  0  0  0  0  0  0  0  0  0  0
  186.8880  178.2120  142.5320 C   0  0  0  0  0  0  0  0  0  0  0  0
  184.8650  178.9840  140.6000 C   0  0  0  0  0  2  0  0  0  0  0  0
  185.1130  178.5760  144.1930 C   0  0  0  0  0  0  0  0  0  0  0  0
  184.0820  178.6850  146.1630 N   0  0  0  0  0  0  0  0  0  0  0  0
  186.2730  178.6020  140.1960 C   0  0  0  0  0  3  0  0  0  0  0  0
  183.8530  178.9560  144.0530 C   0  0  0  0  0  0  0  0  0  0  0  0
  183.1940  179.0270  145.3040 N   0  0  0  0  0  0  0  0  0  0  0  0
  188.5790  177.8730  140.6850 C   0  0  0  0  0  0  0  0  0  0  0  0
  188.9760  177.8700  139.2470 C   0  0  0  0  0  1  0  0  0  0  0  0
  187.9120  177.8310  143.4460 N   0  0  0  0  0  2  0  0  0  0  0  0
  186.5760  177.9550  146.1490 C   0  0  0  0  0  1  0  0  0  0  0  0
  184.6850  178.8990  142.0510 N   0  0  0  0  0  0  0  0  0  0  0  0
  183.5350  179.1720  142.7290 C   0  0  0  0  0  3  0  0  0  0  0  0
  189.4660  177.5360  141.5770 N   0  0  0  0  0  0  0  0  0  0  0  0
  185.3190  178.3910  145.4820 C   0  0  0  0  0  0  0  0  0  0  0  0
  189.1890  177.5100  142.9580 N   0  0  0  0  0  0  0  0  0  0  0  0
  187.2090  178.2470  141.0940 C   0  0  0  0  0  0  0  0  0  0  0  0
  190.2170  177.0750  143.8850 C   0  0  0  0  0  2  0  0  0  0  0  0
  190.0590  177.8130  145.2090 C   0  0  0  0  0  2  0  0  0  0  0  0
  190.2720  176.9000  146.4190 C   0  0  2  0  0  3  0  0  0  0  0  0
  189.6290  177.4800  147.6660 C   0  0  0  0  0  1  0  0  0  0  0  0
  192.0960  175.8660  147.6950 C   0  0  0  0  0  3  0  0  0  0  0  0
  193.4440  175.6130  147.9090 O   0  0  0  0  0  1  0  0  0  0  0  0
  191.7180  176.6150  146.6680 C   0  0  0  0  0  3  0  0  0  0  0  0
  1  4  1  0  0  0  0
  2  1  2  0  0  0  0
  2 11  1  0  0  0  0
  3 13  1  0  0  0  0
  4 16  2  0  0  0  0
  6  3  1  0  0  0  0
  6 18  2  0  0  0  0
  7  4  1  0  0  0  0
  7  8  1  0  0  0  0
  8  5  2  0  0  0  0
  9 18  1  0  0  0  0
  9 15  2  0  0  0  0
 10  9  1  0  0  0  0
 13 14  1  0  0  0  0
 13  1  1  0  0  0  0
 14  7  2  0  0  0  0
 15 17  1  0  0  0  0
 16 12  1  0  0  0  0
 16  5  1  0  0  0  0
 17 11  1  0  0  0  0
 17 19  1  0  0  0  0
 18  2  1  0  0  0  0
 19 20  1  0  0  0  0
 20 21  1  0  0  0  0
 21 25  1  0  0  0  0
 21 22  1  1  0  0  0
 23 24  1  0  0  0  0
 25 23  2  0  0  0  0
M  END
>  <MODEL>
7

>  <REMARK>
 VINA RESULT:      -8.8      2.854      5.845
  Name = 
  4 active torsions:
  status: ('A' for Active; 'I' for Inactive)
    1  A    between atoms: C_6  and  C_15
    2  A    between atoms: C_6  and  N_23
    3  A    between atoms: C_12  and  C_21
    4  A    between atoms: C_15  and  C_21
                            x       y       z     vdW  Elec       q    Type
                         _______ _______ _______ _____ _____    ______ ____

>  <TORSDO>
F 4

$$$$
=
 OpenBabel11052412463D

 25 28  0  0  1  0  0  0  0  0999 V2000
  189.6190  177.4270  144.0540 C   0  0  0  0  0  0  0  0  0  0  0  0
  188.6930  177.7240  144.9670 C   0  0  0  0  0  0  0  0  0  0  0  0
  191.3060  176.7530  145.7760 C   0  0  0  0  0  2  0  0  0  0  0  0
  189.5690  177.4980  142.6830 C   0  0  0  0  0  0  0  0  0  0  0  0
  189.6500  177.5480  140.4580 N   0  0  0  0  0  0  0  0  0  0  0  0
  190.2200  177.0960  146.7740 C   0  0  0  0  0  3  0  0  0  0  0  0
  190.7480  177.0910  142.2370 C   0  0  0  0  0  0  0  0  0  0  0  0
  190.8020  177.1210  140.8230 N   0  0  0  0  0  0  0  0  0  0  0  0
  187.9580  177.8760  147.3810 C   0  0  0  0  0  0  0  0  0  0  0  0
  188.2000  177.7110  148.8440 C   0  0  0  0  0  1  0  0  0  0  0  0
  187.4000  178.2060  144.6150 N   0  0  0  0  0  2  0  0  0  0  0  0
  187.4390  178.2960  141.6000 C   0  0  0  0  0  1  0  0  0  0  0  0
  190.8530  176.9680  144.4000 N   0  0  0  0  0  0  0  0  0  0  0  0
  191.5880  176.7470  143.2740 C   0  0  0  0  0  3  0  0  0  0  0  0
  186.7980  178.3140  146.9870 N   0  0  0  0  0  0  0  0  0  0  0  0
  188.8400  177.7970  141.6260 C   0  0  0  0  0  0  0  0  0  0  0  0
  186.4750  178.5060  145.6290 N   0  0  0  0  0  0  0  0  0  0  0  0
  189.0110  177.5480  146.3960 C   0  0  0  0  0  0  0  0  0  0  0  0
  185.1420  178.9510  145.2670 C   0  0  0  0  0  2  0  0  0  0  0  0
  184.8030  178.4670  143.8620 C   0  0  0  0  0  2  0  0  0  0  0  0
  183.4570  179.0010  143.3660 C   0  0  2  0  0  3  0  0  0  0  0  0
  182.3350  178.6420  144.3250 C   0  0  0  0  0  1  0  0  0  0  0  0
  184.0900  178.3200  141.0960 C   0  0  0  0  0  3  0  0  0  0  0  0
  183.7660  177.8780  139.8200 O   0  0  0  0  0  1  0  0  0  0  0  0
  183.1300  178.5260  141.9880 C   0  0  0  0  0  3  0  0  0  0  0  0
  1 13  1  0  0  0  0
  1  2  2  0  0  0  0
  2 18  1  0  0  0  0
  3  6  1  0  0  0  0
  4  1  1  0  0  0  0
  5  8  2  0  0  0  0
  5 16  1  0  0  0  0
  7  4  1  0  0  0  0
  7 14  2  0  0  0  0
  8  7  1  0  0  0  0
  9 10  1  0  0  0  0
 11  2  1  0  0  0  0
 11 17  1  0  0  0  0
 12 16  1  0  0  0  0
 13  3  1  0  0  0  0
 14 13  1  0  0  0  0
 15  9  2  0  0  0  0
 16  4  2  0  0  0  0
 17 15  1  0  0  0  0
 18  6  2  0  0  0  0
 18  9  1  0  0  0  0
 19 17  1  0  0  0  0
 20 19  1  0  0  0  0
 21 20  1  0  0  0  0
 21 22  1  1  0  0  0
 23 25  2  0  0  0  0
 24 23  1  0  0  0  0
 25 21  1  0  0  0  0
M  END
>  <MODEL>
8

>  <REMARK>
 VINA RESULT:      -8.7      2.088      5.367
  Name = 
  4 active torsions:
  status: ('A' for Active; 'I' for Inactive)
    1  A    between atoms: C_6  and  C_15
    2  A    between atoms: C_6  and  N_23
    3  A    between atoms: C_12  and  C_21
    4  A    between atoms: C_15  and  C_21
                            x       y       z     vdW  Elec       q    Type
                         _______ _______ _______ _____ _____    ______ ____

>  <TORSDO>
F 4

$$$$
=
 OpenBabel11052412463D

 25 28  0  0  1  0  0  0  0  0999 V2000
  187.4770  178.0650  141.6220 C   0  0  0  0  0  0  0  0  0  0  0  0
  186.7820  178.1160  142.7590 C   0  0  0  0  0  0  0  0  0  0  0  0
  185.5390  178.8310  140.2350 C   0  0  0  0  0  2  0  0  0  0  0  0
  188.7850  177.7070  141.3960 C   0  0  0  0  0  0  0  0  0  0  0  0
  190.8770  177.1660  140.8610 N   0  0  0  0  0  0  0  0  0  0  0  0
  184.7950  178.8810  141.5520 C   0  0  0  0  0  3  0  0  0  0  0  0
  188.9920  177.8250  140.0930 C   0  0  0  0  0  0  0  0  0  0  0  0
  190.3220  177.4810  139.7500 N   0  0  0  0  0  0  0  0  0  0  0  0
  184.6340  178.6040  144.0000 C   0  0  0  0  0  0  0  0  0  0  0  0
  183.2090  179.0420  144.0430 C   0  0  0  0  0  1  0  0  0  0  0  0
  187.3500  177.7720  144.0190 N   0  0  0  0  0  2  0  0  0  0  0  0
  190.2000  177.0270  143.3660 C   0  0  0  0  0  1  0  0  0  0  0  0
  186.9250  178.3950  140.4230 N   0  0  0  0  0  0  0  0  0  0  0  0
  187.8570  178.2530  139.4380 C   0  0  0  0  0  3  0  0  0  0  0  0
  185.2180  178.2720  145.1140 N   0  0  0  0  0  0  0  0  0  0  0  0
  189.9180  177.3000  141.9310 C   0  0  0  0  0  0  0  0  0  0  0  0
  186.5580  177.8420  145.1770 N   0  0  0  0  0  0  0  0  0  0  0  0
  185.3720  178.5470  142.7200 C   0  0  0  0  0  0  0  0  0  0  0  0
  187.1520  177.5380  146.4650 C   0  0  0  0  0  2  0  0  0  0  0  0
  188.6690  177.6530  146.3710 C   0  0  0  0  0  2  0  0  0  0  0  0
  189.3690  177.2640  147.6760 C   0  0  2  0  0  3  0  0  0  0  0  0
  189.0550  178.2530  148.7840 C   0  0  0  0  0  1  0  0  0  0  0  0
  191.4110  175.9320  147.3970 C   0  0  0  0  0  3  0  0  0  0  0  0
  192.7870  175.8260  147.2410 O   0  0  0  0  0  1  0  0  0  0  0  0
  190.8480  177.1270  147.5080 C   0  0  0  0  0  3  0  0  0  0  0  0
  1  2  2  0  0  0  0
  2 11  1  0  0  0  0
  3 13  1  0  0  0  0
  3  6  1  0  0  0  0
  4  1  1  0  0  0  0
  4 16  2  0  0  0  0
  5 16  1  0  0  0  0
  6 18  2  0  0  0  0
  7  4  1  0  0  0  0
  8  7  1  0  0  0  0
  8  5  2  0  0  0  0
  9 10  1  0  0  0  0
  9 15  2  0  0  0  0
 11 17  1  0  0  0  0
 13  1  1  0  0  0  0
 14  7  2  0  0  0  0
 14 13  1  0  0  0  0
 15 17  1  0  0  0  0
 16 12  1  0  0  0  0
 17 19  1  0  0  0  0
 18  2  1  0  0  0  0
 18  9  1  0  0  0  0
 20 19  1  0  0  0  0
 20 21  1  0  0  0  0
 21 22  1  1  0  0  0
 23 25  2  0  0  0  0
 24 23  1  0  0  0  0
 25 21  1  0  0  0  0
M  END
>  <MODEL>
9

>  <REMARK>
 VINA RESULT:      -8.7      2.928      7.070
  Name = 
  4 active torsions:
  status: ('A' for Active; 'I' for Inactive)
    1  A    between atoms: C_6  and  C_15
    2  A    between atoms: C_6  and  N_23
    3  A    between atoms: C_12  and  C_21
    4  A    between atoms: C_15  and  C_21
                            x       y       z     vdW  Elec       q    Type
                         _______ _______ _______ _____ _____    ______ ____

>  <TORSDO>
F 4

$$$$
