=
 OpenBabel11052415513D

 34 39  0  0  1  0  0  0  0  0999 V2000
  183.6110  178.6720  139.0610 C   0  0  2  0  0  3  0  0  0  0  0  0
  184.8260  176.7960  135.8460 C   0  0  0  0  0  2  0  0  0  0  0  0
  188.4240  176.7430  136.1530 C   0  0  0  0  0  0  0  0  0  0  0  0
  182.5960  177.0940  136.9130 N   0  0  0  0  0  2  0  0  0  0  0  0
  185.2630  179.7890  140.4010 O   0  0  0  0  0  0  0  0  0  0  0  0
  184.2430  179.0490  140.3800 C   0  0  0  0  0  0  0  0  0  0  0  0
  181.6130  177.9340  140.4000 C   0  0  0  0  0  0  0  0  0  0  0  0
  180.3910  177.2790  140.5160 O   0  0  0  0  0  1  0  0  0  0  0  0
  187.7310  177.4100  134.9530 C   0  0  0  0  0  2  0  0  0  0  0  0
  182.1570  178.6030  141.6270 C   0  0  0  0  0  2  0  0  0  0  0  0
  183.6160  178.6510  141.6080 N   0  0  0  0  0  0  0  0  0  0  0  0
  181.7110  177.3800  137.9930 C   0  0  0  0  0  0  0  0  0  0  0  0
  182.2670  177.9790  139.2200 C   0  0  0  0  0  0  0  0  0  0  0  0
  180.4830  177.1240  137.8740 O   0  0  0  0  0  0  0  0  0  0  0  0
  186.0500  176.2290  136.2280 O   0  0  0  0  0  0  0  0  0  0  0  0
  189.3820  176.2050  136.6810 O   0  0  0  0  0  0  0  0  0  0  0  0
  186.9960  177.2680  136.1700 C   0  0  1  0  0  0  0  0  0  0  0  0
  186.8090  178.4790  137.0760 C   0  0  0  0  0  2  0  0  0  0  0  0
  184.0130  177.2720  137.0240 C   0  0  0  0  0  0  0  0  0  0  0  0
  186.0370  178.0460  138.3110 C   0  0  0  0  0  2  0  0  0  0  0  0
  184.5410  177.9420  138.0880 C   0  0  0  0  0  0  0  0  0  0  0  0
  184.5150  178.6060  145.2540 C   0  0  0  0  0  3  0  0  0  0  0  0
  185.6970  178.0310  142.7890 C   0  0  0  0  0  3  0  0  0  0  0  0
  188.0950  177.8850  146.3050 C   0  0  2  0  0  3  0  0  0  0  0  0
  186.5760  177.9600  146.5030 C   0  0  0  0  0  2  0  0  0  0  0  0
  185.8440  178.1770  145.2080 C   0  0  0  0  0  0  0  0  0  0  0  0
  187.8790  177.4640  143.8590 C   0  0  0  0  0  2  0  0  0  0  0  0
  186.4340  177.8650  143.9650 C   0  0  0  0  0  0  0  0  0  0  0  0
  188.4250  176.9180  145.1760 C   0  0  0  0  0  2  0  0  0  0  0  0
  184.3620  178.4660  142.8290 C   0  0  0  0  0  0  0  0  0  0  0  0
  183.7830  178.7560  144.0750 C   0  0  0  0  0  3  0  0  0  0  0  0
  188.8190  177.4730  147.5850 C   0  0  2  0  0  3  0  0  0  0  0  0
  189.0260  178.5710  148.4240 O   0  0  0  0  0  1  0  0  0  0  0  0
  190.1480  176.8120  147.2650 C   0  0  0  0  0  1  0  0  0  0  0  0
  1 21  1  1  0  0  0
  1 13  1  0  0  0  0
  1  6  1  0  0  0  0
  2 15  1  0  0  0  0
  2 19  1  0  0  0  0
  3 17  1  0  0  0  0
  3 16  2  0  0  0  0
  4 19  1  0  0  0  0
  4 12  1  0  0  0  0
  6  5  2  0  0  0  0
  6 11  1  0  0  0  0
  7  8  1  0  0  0  0
  7 10  1  0  0  0  0
  9  3  1  0  0  0  0
 11 10  1  0  0  0  0
 11 30  1  0  0  0  0
 12 13  1  0  0  0  0
 13  7  2  0  0  0  0
 14 12  2  0  0  0  0
 17  9  1  6  0  0  0
 17 15  1  0  0  0  0
 17 18  1  0  0  0  0
 18 20  1  0  0  0  0
 19 21  2  0  0  0  0
 21 20  1  0  0  0  0
 23 30  2  0  0  0  0
 23 28  1  0  0  0  0
 24 25  1  0  0  0  0
 24 32  1  1  0  0  0
 26 22  1  0  0  0  0
 26 25  1  0  0  0  0
 27 28  1  0  0  0  0
 27 29  1  0  0  0  0
 28 26  2  0  0  0  0
 29 24  1  0  0  0  0
 30 31  1  0  0  0  0
 31 22  2  0  0  0  0
 32 34  1  6  0  0  0
 32 33  1  0  0  0  0
M  END
>  <MODEL>
1

>  <REMARK>
 VINA RESULT:     -11.1      0.000      0.000
  Name = 
  2 active torsions:
  status: ('A' for Active; 'I' for Inactive)
    1  A    between atoms: C_7  and  C_11
    2  A    between atoms: N_18  and  C_30
                            x       y       z     vdW  Elec       q    Type
                         _______ _______ _______ _____ _____    ______ ____

>  <TORSDO>
F 2

$$$$
=
 OpenBabel11052415513D

 34 39  0  0  1  0  0  0  0  0999 V2000
  182.4380  178.6920  141.1910 C   0  0  2  0  0  3  0  0  0  0  0  0
  181.2490  176.3680  138.2730 C   0  0  0  0  0  2  0  0  0  0  0  0
  184.3100  175.2870  136.6910 C   0  0  0  0  0  0  0  0  0  0  0  0
  180.1000  177.3600  140.2470 N   0  0  0  0  0  2  0  0  0  0  0  0
  184.7490  179.3520  141.2290 O   0  0  0  0  0  0  0  0  0  0  0  0
  183.7560  178.9410  141.8880 C   0  0  0  0  0  0  0  0  0  0  0  0
  181.4060  178.6430  143.4840 C   0  0  0  0  0  0  0  0  0  0  0  0
  180.3430  178.3800  144.3430 O   0  0  0  0  0  1  0  0  0  0  0  0
  183.2330  176.0590  135.9110 C   0  0  0  0  0  2  0  0  0  0  0  0
  182.6630  179.1920  144.0890 C   0  0  0  0  0  2  0  0  0  0  0  0
  183.8400  178.8130  143.3140 N   0  0  0  0  0  0  0  0  0  0  0  0
  180.0420  177.9510  141.5420 C   0  0  0  0  0  0  0  0  0  0  0  0
  181.2930  178.4300  142.1560 C   0  0  0  0  0  0  0  0  0  0  0  0
  178.9310  178.0570  142.1270 O   0  0  0  0  0  0  0  0  0  0  0  0
  182.3260  175.4910  138.0790 O   0  0  0  0  0  0  0  0  0  0  0  0
  185.2590  174.5240  136.7490 O   0  0  0  0  0  0  0  0  0  0  0  0
  183.2790  176.2050  137.3320 C   0  0  1  0  0  0  0  0  0  0  0  0
  183.8860  177.4660  137.9340 C   0  0  0  0  0  2  0  0  0  0  0  0
  181.3430  177.1240  139.5750 C   0  0  0  0  0  0  0  0  0  0  0  0
  183.8500  177.3460  139.4480 C   0  0  0  0  0  2  0  0  0  0  0  0
  182.4980  177.6700  140.0520 C   0  0  0  0  0  0  0  0  0  0  0  0
  186.4010  178.3500  146.0230 C   0  0  0  0  0  3  0  0  0  0  0  0
  186.1910  178.0520  143.2530 C   0  0  0  0  0  3  0  0  0  0  0  0
  189.9870  177.4960  145.1020 C   0  0  2  0  0  3  0  0  0  0  0  0
  188.7660  177.5570  146.0270 C   0  0  0  0  0  2  0  0  0  0  0  0
  187.5100  177.9230  145.2880 C   0  0  0  0  0  0  0  0  0  0  0  0
  188.5790  177.3550  143.0510 C   0  0  0  0  0  2  0  0  0  0  0  0
  187.3970  177.7490  143.8920 C   0  0  0  0  0  0  0  0  0  0  0  0
  189.6640  176.6620  143.8700 C   0  0  0  0  0  2  0  0  0  0  0  0
  185.0750  178.4860  143.9860 C   0  0  0  0  0  0  0  0  0  0  0  0
  185.1970  178.6370  145.3770 C   0  0  0  0  0  3  0  0  0  0  0  0
  191.2180  176.9380  145.8140 C   0  0  2  0  0  3  0  0  0  0  0  0
  191.7690  175.8680  145.1050 O   0  0  0  0  0  1  0  0  0  0  0  0
  190.8720  176.4980  147.2240 C   0  0  0  0  0  1  0  0  0  0  0  0
  1 21  1  6  0  0  0
  1  6  1  0  0  0  0
  1 13  1  0  0  0  0
  2 19  1  0  0  0  0
  3 16  2  0  0  0  0
  3 17  1  0  0  0  0
  4 12  1  0  0  0  0
  5  6  2  0  0  0  0
  6 11  1  0  0  0  0
  7 10  1  0  0  0  0
  7  8  1  0  0  0  0
  9  3  1  0  0  0  0
 11 30  1  0  0  0  0
 11 10  1  0  0  0  0
 12 14  2  0  0  0  0
 12 13  1  0  0  0  0
 13  7  2  0  0  0  0
 15  2  1  0  0  0  0
 17  9  1  6  0  0  0
 17 18  1  0  0  0  0
 17 15  1  0  0  0  0
 18 20  1  0  0  0  0
 19 21  2  0  0  0  0
 19  4  1  0  0  0  0
 20 21  1  0  0  0  0
 23 28  2  0  0  0  0
 23 30  1  0  0  0  0
 24 32  1  1  0  0  0
 24 25  1  0  0  0  0
 26 22  2  0  0  0  0
 26 25  1  0  0  0  0
 27 29  1  0  0  0  0
 27 28  1  0  0  0  0
 28 26  1  0  0  0  0
 29 24  1  0  0  0  0
 30 31  2  0  0  0  0
 31 22  1  0  0  0  0
 32 34  1  1  0  0  0
 33 32  1  0  0  0  0
M  END
>  <MODEL>
2

>  <REMARK>
 VINA RESULT:     -10.5      2.244      3.104
  Name = 
  2 active torsions:
  status: ('A' for Active; 'I' for Inactive)
    1  A    between atoms: C_7  and  C_11
    2  A    between atoms: N_18  and  C_30
                            x       y       z     vdW  Elec       q    Type
                         _______ _______ _______ _____ _____    ______ ____

>  <TORSDO>
F 2

$$$$
=
 OpenBabel11052415513D

 34 39  0  0  1  0  0  0  0  0999 V2000
  183.9710  178.0220  137.6170 C   0  0  2  0  0  3  0  0  0  0  0  0
  186.5910  176.2390  135.3190 C   0  0  0  0  0  2  0  0  0  0  0  0
  189.7860  177.1810  136.7130 C   0  0  0  0  0  0  0  0  0  0  0  0
  184.1240  176.0300  135.5820 N   0  0  0  0  0  2  0  0  0  0  0  0
  184.7770  179.6640  139.1750 O   0  0  0  0  0  0  0  0  0  0  0  0
  184.0160  178.6800  138.9770 C   0  0  0  0  0  0  0  0  0  0  0  0
  181.8520  176.9080  138.3920 C   0  0  0  0  0  0  0  0  0  0  0  0
  180.8400  175.9640  138.2460 O   0  0  0  0  0  1  0  0  0  0  0  0
  189.4140  177.5190  135.2600 C   0  0  0  0  0  2  0  0  0  0  0  0
  181.7830  177.8140  139.5860 C   0  0  0  0  0  2  0  0  0  0  0  0
  183.1120  178.2490  140.0050 N   0  0  0  0  0  0  0  0  0  0  0  0
  182.8840  176.1710  136.2710 C   0  0  0  0  0  0  0  0  0  0  0  0
  182.8420  177.0130  137.4800 C   0  0  0  0  0  0  0  0  0  0  0  0
  181.8590  175.5850  135.8310 O   0  0  0  0  0  0  0  0  0  0  0  0
  187.7050  176.0600  136.1510 O   0  0  0  0  0  0  0  0  0  0  0  0
  190.6000  176.9730  137.5960 O   0  0  0  0  0  0  0  0  0  0  0  0
  188.3590  177.3030  136.1990 C   0  0  1  0  0  0  0  0  0  0  0  0
  187.6120  178.5020  136.7720 C   0  0  0  0  0  2  0  0  0  0  0  0
  185.3420  176.5910  136.0870 C   0  0  0  0  0  0  0  0  0  0  0  0
  186.5810  177.9990  137.7690 C   0  0  0  0  0  2  0  0  0  0  0  0
  185.3130  177.4780  137.1220 C   0  0  0  0  0  0  0  0  0  0  0  0
  182.7530  179.0100  143.6650 C   0  0  0  0  0  3  0  0  0  0  0  0
  184.7100  178.1100  141.8860 C   0  0  0  0  0  3  0  0  0  0  0  0
  185.8110  178.9190  145.9190 C   0  0  2  0  0  3  0  0  0  0  0  0
  184.3110  178.8570  145.6080 C   0  0  0  0  0  2  0  0  0  0  0  0
  184.0400  178.7360  144.1340 C   0  0  0  0  0  0  0  0  0  0  0  0
  186.4370  178.0130  143.6840 C   0  0  0  0  0  2  0  0  0  0  0  0
  185.0220  178.2590  143.2400 C   0  0  0  0  0  0  0  0  0  0  0  0
  186.5400  177.7980  145.1920 C   0  0  0  0  0  2  0  0  0  0  0  0
  183.4190  178.3890  141.4080 C   0  0  0  0  0  0  0  0  0  0  0  0
  182.4470  178.8460  142.3130 C   0  0  0  0  0  3  0  0  0  0  0  0
  186.0880  178.8480  147.4200 C   0  0  2  0  0  3  0  0  0  0  0  0
  186.0600  180.1180  147.9990 O   0  0  0  0  0  1  0  0  0  0  0  0
  187.4280  178.1880  147.6900 C   0  0  0  0  0  1  0  0  0  0  0  0
  1 21  1  1  0  0  0
  1  6  1  0  0  0  0
  2 19  1  0  0  0  0
  2 15  1  0  0  0  0
  3 16  2  0  0  0  0
  4 19  1  0  0  0  0
  4 12  1  0  0  0  0
  6  5  2  0  0  0  0
  6 11  1  0  0  0  0
  7 10  1  0  0  0  0
  8  7  1  0  0  0  0
  9  3  1  0  0  0  0
 10 11  1  0  0  0  0
 11 30  1  0  0  0  0
 12 13  1  0  0  0  0
 13  1  1  0  0  0  0
 13  7  2  0  0  0  0
 14 12  2  0  0  0  0
 15 17  1  0  0  0  0
 17  9  1  6  0  0  0
 17  3  1  0  0  0  0
 17 18  1  0  0  0  0
 18 20  1  0  0  0  0
 19 21  2  0  0  0  0
 21 20  1  0  0  0  0
 22 26  1  0  0  0  0
 23 28  1  0  0  0  0
 24 32  1  1  0  0  0
 25 24  1  0  0  0  0
 26 25  1  0  0  0  0
 27 29  1  0  0  0  0
 28 27  1  0  0  0  0
 28 26  2  0  0  0  0
 29 24  1  0  0  0  0
 30 23  2  0  0  0  0
 30 31  1  0  0  0  0
 31 22  2  0  0  0  0
 32 34  1  6  0  0  0
 32 33  1  0  0  0  0
M  END
>  <MODEL>
3

>  <REMARK>
 VINA RESULT:     -10.3      1.463      2.073
  Name = 
  2 active torsions:
  status: ('A' for Active; 'I' for Inactive)
    1  A    between atoms: C_7  and  C_11
    2  A    between atoms: N_18  and  C_30
                            x       y       z     vdW  Elec       q    Type
                         _______ _______ _______ _____ _____    ______ ____

>  <TORSDO>
F 2

$$$$
=
 OpenBabel11052415513D

 34 39  0  0  1  0  0  0  0  0999 V2000
  182.5300  178.6520  139.9120 C   0  0  2  0  0  3  0  0  0  0  0  0
  181.9280  176.3550  136.7990 C   0  0  0  0  0  2  0  0  0  0  0  0
  185.2450  175.3970  135.7440 C   0  0  0  0  0  0  0  0  0  0  0  0
  180.4300  177.2730  138.5640 N   0  0  0  0  0  2  0  0  0  0  0  0
  184.7790  179.3780  140.3530 O   0  0  0  0  0  0  0  0  0  0  0  0
  183.7020  178.9250  140.8270 C   0  0  0  0  0  0  0  0  0  0  0  0
  181.1260  178.5260  141.9950 C   0  0  0  0  0  0  0  0  0  0  0  0
  179.9420  178.2140  142.6570 O   0  0  0  0  0  1  0  0  0  0  0  0
  184.2920  176.1530  134.8040 C   0  0  0  0  0  2  0  0  0  0  0  0
  182.2440  179.0980  142.8140 C   0  0  0  0  0  2  0  0  0  0  0  0
  183.5470  178.7690  142.2450 N   0  0  0  0  0  0  0  0  0  0  0  0
  180.1330  177.8350  139.8390 C   0  0  0  0  0  0  0  0  0  0  0  0
  181.2470  178.3370  140.6640 C   0  0  0  0  0  0  0  0  0  0  0  0
  178.9370  177.8970  140.2280 O   0  0  0  0  0  0  0  0  0  0  0  0
  183.0500  175.5150  136.7770 O   0  0  0  0  0  0  0  0  0  0  0  0
  186.1950  174.6600  135.9510 O   0  0  0  0  0  0  0  0  0  0  0  0
  184.0930  176.2710  136.2140 C   0  0  1  0  0  0  0  0  0  0  0  0
  184.5480  177.5370  136.9310 C   0  0  0  0  0  2  0  0  0  0  0  0
  181.7750  177.0870  138.1090 C   0  0  0  0  0  0  0  0  0  0  0  0
  184.2590  177.3840  138.4150 C   0  0  0  0  0  2  0  0  0  0  0  0
  182.8150  177.6560  138.7840 C   0  0  0  0  0  0  0  0  0  0  0  0
  186.8930  177.5550  143.4440 C   0  0  0  0  0  3  0  0  0  0  0  0
  184.5760  178.7120  144.4920 C   0  0  0  0  0  3  0  0  0  0  0  0
  187.6330  177.4390  147.1690 C   0  0  2  0  0  3  0  0  0  0  0  0
  187.9960  177.5040  145.6810 C   0  0  0  0  0  2  0  0  0  0  0  0
  186.8030  177.8000  144.8160 C   0  0  0  0  0  0  0  0  0  0  0  0
  185.4720  178.6280  146.8190 C   0  0  0  0  0  2  0  0  0  0  0  0
  185.6420  178.4060  145.3430 C   0  0  0  0  0  0  0  0  0  0  0  0
  186.8070  178.6580  147.5570 C   0  0  0  0  0  2  0  0  0  0  0  0
  184.6600  178.4650  143.1120 C   0  0  0  0  0  0  0  0  0  0  0  0
  185.8280  177.8780  142.6000 C   0  0  0  0  0  3  0  0  0  0  0  0
  188.8710  177.3320  148.0570 C   0  0  2  0  0  3  0  0  0  0  0  0
  189.1170  178.5330  148.7270 O   0  0  0  0  0  1  0  0  0  0  0  0
  190.0890  176.9390  147.2400 C   0  0  0  0  0  1  0  0  0  0  0  0
  1 21  1  6  0  0  0
  1 13  1  0  0  0  0
  1  6  1  0  0  0  0
  2 19  1  0  0  0  0
  3 16  2  0  0  0  0
  3 17  1  0  0  0  0
  4 12  1  0  0  0  0
  5  6  2  0  0  0  0
  6 11  1  0  0  0  0
  7  8  1  0  0  0  0
  7 10  1  0  0  0  0
  9  3  1  0  0  0  0
 11 10  1  0  0  0  0
 11 30  1  0  0  0  0
 12 14  2  0  0  0  0
 12 13  1  0  0  0  0
 13  7  2  0  0  0  0
 15  2  1  0  0  0  0
 17  9  1  6  0  0  0
 17 15  1  0  0  0  0
 17 18  1  0  0  0  0
 18 20  1  0  0  0  0
 19  4  1  0  0  0  0
 19 21  2  0  0  0  0
 20 21  1  0  0  0  0
 22 26  1  0  0  0  0
 23 28  1  0  0  0  0
 24 29  1  0  0  0  0
 24 32  1  1  0  0  0
 25 24  1  0  0  0  0
 26 28  2  0  0  0  0
 26 25  1  0  0  0  0
 27 29  1  0  0  0  0
 28 27  1  0  0  0  0
 30 23  2  0  0  0  0
 31 30  1  0  0  0  0
 31 22  2  0  0  0  0
 32 34  1  6  0  0  0
 32 33  1  0  0  0  0
M  END
>  <MODEL>
4

>  <REMARK>
 VINA RESULT:     -10.1      1.603      2.322
  Name = 
  2 active torsions:
  status: ('A' for Active; 'I' for Inactive)
    1  A    between atoms: C_7  and  C_11
    2  A    between atoms: N_18  and  C_30
                            x       y       z     vdW  Elec       q    Type
                         _______ _______ _______ _____ _____    ______ ____

>  <TORSDO>
F 2

$$$$
=
 OpenBabel11052415513D

 34 39  0  0  1  0  0  0  0  0999 V2000
  186.6870  178.2700  138.6380 C   0  0  2  0  0  3  0  0  0  0  0  0
  186.9060  175.8100  135.6000 C   0  0  0  0  0  2  0  0  0  0  0  0
  190.1340  174.2340  135.9610 C   0  0  0  0  0  0  0  0  0  0  0  0
  185.0450  177.1230  136.6080 N   0  0  0  0  0  2  0  0  0  0  0  0
  188.6880  178.6640  139.9100 O   0  0  0  0  0  0  0  0  0  0  0  0
  187.4480  178.4380  139.9330 C   0  0  0  0  0  0  0  0  0  0  0  0
  184.5950  178.5720  140.0030 C   0  0  0  0  0  0  0  0  0  0  0  0
  183.2130  178.5200  140.1530 O   0  0  0  0  0  1  0  0  0  0  0  0
  189.7710  175.0390  134.7020 C   0  0  0  0  0  2  0  0  0  0  0  0
  185.4010  179.0340  141.1810 C   0  0  0  0  0  2  0  0  0  0  0  0
  186.7370  178.4460  141.1790 N   0  0  0  0  0  0  0  0  0  0  0  0
  184.3940  177.8460  137.6490 C   0  0  0  0  0  0  0  0  0  0  0  0
  185.1790  178.2390  138.8320 C   0  0  0  0  0  0  0  0  0  0  0  0
  183.1730  178.1360  137.5330 O   0  0  0  0  0  0  0  0  0  0  0  0
  187.7730  174.8020  136.0430 O   0  0  0  0  0  0  0  0  0  0  0  0
  190.7780  173.3780  136.5440 O   0  0  0  0  0  0  0  0  0  0  0  0
  189.0730  175.3230  135.9170 C   0  0  1  0  0  0  0  0  0  0  0  0
  189.4460  176.5620  136.7210 C   0  0  0  0  0  2  0  0  0  0  0  0
  186.4020  176.6800  136.7250 C   0  0  0  0  0  0  0  0  0  0  0  0
  188.5890  176.6020  137.9750 C   0  0  0  0  0  2  0  0  0  0  0  0
  187.1910  177.1370  137.7390 C   0  0  0  0  0  0  0  0  0  0  0  0
  187.1890  177.5260  144.7920 C   0  0  0  0  0  3  0  0  0  0  0  0
  188.7470  177.8780  142.5000 C   0  0  0  0  0  3  0  0  0  0  0  0
  190.6910  177.1500  146.2190 C   0  0  2  0  0  3  0  0  0  0  0  0
  189.1780  176.9100  146.1670 C   0  0  0  0  0  2  0  0  0  0  0  0
  188.5740  177.3580  144.8660 C   0  0  0  0  0  0  0  0  0  0  0  0
  190.8570  177.4060  143.7460 C   0  0  0  0  0  2  0  0  0  0  0  0
  189.3590  177.5120  143.7030 C   0  0  0  0  0  0  0  0  0  0  0  0
  191.3460  176.6110  144.9530 C   0  0  0  0  0  2  0  0  0  0  0  0
  187.3560  178.0520  142.4220 C   0  0  0  0  0  0  0  0  0  0  0  0
  186.5860  177.8780  143.5830 C   0  0  0  0  0  3  0  0  0  0  0  0
  191.3290  176.5220  147.4560 C   0  0  2  0  0  3  0  0  0  0  0  0
  191.8420  177.5000  148.3110 O   0  0  0  0  0  1  0  0  0  0  0  0
  192.4300  175.5540  147.0620 C   0  0  0  0  0  1  0  0  0  0  0  0
  1 21  1  1  0  0  0
  1 13  1  0  0  0  0
  1  6  1  0  0  0  0
  2 15  1  0  0  0  0
  2 19  1  0  0  0  0
  3 16  2  0  0  0  0
  4 19  1  0  0  0  0
  4 12  1  0  0  0  0
  5  6  2  0  0  0  0
  6 11  1  0  0  0  0
  7  8  1  0  0  0  0
  7 10  1  0  0  0  0
  9  3  1  0  0  0  0
 11 10  1  0  0  0  0
 11 30  1  0  0  0  0
 12 13  1  0  0  0  0
 13  7  2  0  0  0  0
 14 12  2  0  0  0  0
 17  9  1  6  0  0  0
 17  3  1  0  0  0  0
 17 15  1  0  0  0  0
 17 18  1  0  0  0  0
 18 20  1  0  0  0  0
 19 21  2  0  0  0  0
 21 20  1  0  0  0  0
 22 26  1  0  0  0  0
 23 28  1  0  0  0  0
 24 32  1  1  0  0  0
 25 24  1  0  0  0  0
 26 25  1  0  0  0  0
 27 29  1  0  0  0  0
 28 27  1  0  0  0  0
 28 26  2  0  0  0  0
 29 24  1  0  0  0  0
 30 23  2  0  0  0  0
 30 31  1  0  0  0  0
 31 22  2  0  0  0  0
 32 34  1  6  0  0  0
 32 33  1  0  0  0  0
M  END
>  <MODEL>
5

>  <REMARK>
 VINA RESULT:      -9.8      2.048      2.944
  Name = 
  2 active torsions:
  status: ('A' for Active; 'I' for Inactive)
    1  A    between atoms: C_7  and  C_11
    2  A    between atoms: N_18  and  C_30
                            x       y       z     vdW  Elec       q    Type
                         _______ _______ _______ _____ _____    ______ ____

>  <TORSDO>
F 2

$$$$
=
 OpenBabel11052415513D

 34 39  0  0  1  0  0  0  0  0999 V2000
  183.6890  179.1230  140.8140 C   0  0  2  0  0  3  0  0  0  0  0  0
  182.4540  177.2730  137.5920 C   0  0  0  0  0  2  0  0  0  0  0  0
  185.4930  176.3060  135.8990 C   0  0  0  0  0  0  0  0  0  0  0  0
  181.3160  178.0250  139.6750 N   0  0  0  0  0  2  0  0  0  0  0  0
  186.0210  179.6820  140.9620 O   0  0  0  0  0  0  0  0  0  0  0  0
  185.0050  179.2220  141.5490 C   0  0  0  0  0  0  0  0  0  0  0  0
  182.6250  178.7960  143.0690 C   0  0  0  0  0  0  0  0  0  0  0  0
  181.5420  178.4570  143.8750 O   0  0  0  0  0  1  0  0  0  0  0  0
  184.4560  177.2190  135.2250 C   0  0  0  0  0  2  0  0  0  0  0  0
  183.8930  179.2070  143.7550 C   0  0  0  0  0  2  0  0  0  0  0  0
  185.0660  178.8940  142.9450 N   0  0  0  0  0  0  0  0  0  0  0  0
  181.2620  178.4330  141.0390 C   0  0  0  0  0  0  0  0  0  0  0  0
  182.5220  178.7730  141.7230 C   0  0  0  0  0  0  0  0  0  0  0  0
  180.1480  178.4990  141.6240 O   0  0  0  0  0  0  0  0  0  0  0  0
  183.5000  176.3910  137.2860 O   0  0  0  0  0  0  0  0  0  0  0  0
  186.4130  175.5060  135.8590 O   0  0  0  0  0  0  0  0  0  0  0  0
  184.4890  177.1640  136.6530 C   0  0  1  0  0  0  0  0  0  0  0  0
  185.1340  178.3060  137.4300 C   0  0  0  0  0  2  0  0  0  0  0  0
  182.5580  177.8370  138.9860 C   0  0  0  0  0  0  0  0  0  0  0  0
  185.0730  177.9790  138.9130 C   0  0  0  0  0  2  0  0  0  0  0  0
  183.7260  178.2670  139.5440 C   0  0  0  0  0  0  0  0  0  0  0  0
  188.5240  177.5050  143.4120 C   0  0  0  0  0  3  0  0  0  0  0  0
  186.3800  178.3800  144.9740 C   0  0  0  0  0  3  0  0  0  0  0  0
  189.7450  176.6180  146.8990 C   0  0  2  0  0  3  0  0  0  0  0  0
  189.9100  177.0000  145.4240 C   0  0  0  0  0  2  0  0  0  0  0  0
  188.6180  177.4530  144.8050 C   0  0  0  0  0  0  0  0  0  0  0  0
  187.5720  177.8210  147.0940 C   0  0  0  0  0  2  0  0  0  0  0  0
  187.5440  177.9170  145.5950 C   0  0  0  0  0  0  0  0  0  0  0  0
  188.9930  177.7160  147.6400 C   0  0  0  0  0  2  0  0  0  0  0  0
  186.2790  178.4300  143.5750 C   0  0  0  0  0  0  0  0  0  0  0  0
  187.3620  177.9820  142.8020 C   0  0  0  0  0  3  0  0  0  0  0  0
  191.0880  176.3450  147.5740 C   0  0  2  0  0  3  0  0  0  0  0  0
  191.6020  177.5040  148.1610 O   0  0  0  0  0  1  0  0  0  0  0  0
  192.0870  175.7830  146.5800 C   0  0  0  0  0  1  0  0  0  0  0  0
  1 21  1  6  0  0  0
  1  6  1  0  0  0  0
  1 13  1  0  0  0  0
  2 19  1  0  0  0  0
  3 17  1  0  0  0  0
  4 12  1  0  0  0  0
  5  6  2  0  0  0  0
  6 11  1  0  0  0  0
  7 10  1  0  0  0  0
  7  8  1  0  0  0  0
  9  3  1  0  0  0  0
 11 30  1  0  0  0  0
 11 10  1  0  0  0  0
 12 14  2  0  0  0  0
 12 13  1  0  0  0  0
 13  7  2  0  0  0  0
 15  2  1  0  0  0  0
 16  3  2  0  0  0  0
 17  9  1  6  0  0  0
 17 15  1  0  0  0  0
 17 18  1  0  0  0  0
 18 20  1  0  0  0  0
 19 21  2  0  0  0  0
 19  4  1  0  0  0  0
 20 21  1  0  0  0  0
 22 26  1  0  0  0  0
 23 28  1  0  0  0  0
 24 32  1  1  0  0  0
 24 29  1  0  0  0  0
 25 24  1  0  0  0  0
 26 25  1  0  0  0  0
 26 28  2  0  0  0  0
 27 29  1  0  0  0  0
 28 27  1  0  0  0  0
 30 23  2  0  0  0  0
 31 22  2  0  0  0  0
 31 30  1  0  0  0  0
 32 34  1  6  0  0  0
 32 33  1  0  0  0  0
M  END
>  <MODEL>
6

>  <REMARK>
 VINA RESULT:      -9.7      1.583      2.784
  Name = 
  2 active torsions:
  status: ('A' for Active; 'I' for Inactive)
    1  A    between atoms: C_7  and  C_11
    2  A    between atoms: N_18  and  C_30
                            x       y       z     vdW  Elec       q    Type
                         _______ _______ _______ _____ _____    ______ ____

>  <TORSDO>
F 2

$$$$
=
 OpenBabel11052415513D

 34 39  0  0  1  0  0  0  0  0999 V2000
  190.1780  176.8550  137.5740 C   0  0  2  0  0  3  0  0  0  0  0  0
  191.9830  173.9370  135.6890 C   0  0  0  0  0  2  0  0  0  0  0  0
  194.8280  173.1560  137.7710 C   0  0  0  0  0  0  0  0  0  0  0  0
  189.7540  175.0160  135.4360 N   0  0  0  0  0  2  0  0  0  0  0  0
  191.3370  177.8950  139.4050 O   0  0  0  0  0  0  0  0  0  0  0  0
  190.2490  177.4290  138.9700 C   0  0  0  0  0  0  0  0  0  0  0  0
  187.6770  176.9910  137.8070 C   0  0  0  0  0  0  0  0  0  0  0  0
  186.3890  176.6890  137.3760 O   0  0  0  0  0  1  0  0  0  0  0  0
  195.0020  173.6030  136.3100 C   0  0  0  0  0  2  0  0  0  0  0  0
  187.8130  177.8320  139.0410 C   0  0  0  0  0  2  0  0  0  0  0  0
  189.0520  177.5410  139.7540 N   0  0  0  0  0  0  0  0  0  0  0  0
  188.6360  175.7840  135.8740 C   0  0  0  0  0  0  0  0  0  0  0  0
  188.7580  176.5570  137.1230 C   0  0  0  0  0  0  0  0  0  0  0  0
  187.5800  175.7900  135.1870 O   0  0  0  0  0  0  0  0  0  0  0  0
  192.6460  173.2360  136.7060 O   0  0  0  0  0  0  0  0  0  0  0  0
  195.2140  172.5830  138.7760 O   0  0  0  0  0  0  0  0  0  0  0  0
  193.8060  173.9740  136.9980 C   0  0  1  0  0  0  0  0  0  0  0  0
  193.6540  175.3990  137.5180 C   0  0  0  0  0  2  0  0  0  0  0  0
  190.9450  174.8920  136.2220 C   0  0  0  0  0  0  0  0  0  0  0  0
  192.3210  175.5120  138.2390 C   0  0  0  0  0  2  0  0  0  0  0  0
  191.1390  175.6930  137.3080 C   0  0  0  0  0  0  0  0  0  0  0  0
  190.2870  177.2830  143.2910 C   0  0  0  0  0  3  0  0  0  0  0  0
  187.8870  177.7120  141.9270 C   0  0  0  0  0  3  0  0  0  0  0  0
  187.7970  177.2740  146.1620 C   0  0  2  0  0  3  0  0  0  0  0  0
  189.1720  177.4810  145.5140 C   0  0  0  0  0  2  0  0  0  0  0  0
  189.1030  177.4530  144.0130 C   0  0  0  0  0  0  0  0  0  0  0  0
  186.5860  177.8160  144.0540 C   0  0  0  0  0  2  0  0  0  0  0  0
  187.8950  177.6930  143.3250 C   0  0  0  0  0  0  0  0  0  0  0  0
  186.7750  178.2000  145.5180 C   0  0  0  0  0  2  0  0  0  0  0  0
  189.0740  177.5370  141.1970 C   0  0  0  0  0  0  0  0  0  0  0  0
  190.2720  177.3170  141.8950 C   0  0  0  0  0  3  0  0  0  0  0  0
  187.8370  177.4940  147.6730 C   0  0  2  0  0  3  0  0  0  0  0  0
  186.9240  178.4760  148.0640 O   0  0  0  0  0  1  0  0  0  0  0  0
  189.2340  177.8790  148.1250 C   0  0  0  0  0  1  0  0  0  0  0  0
  1 13  1  1  0  0  0
  1  6  1  0  0  0  0
  2 19  1  0  0  0  0
  2 15  1  0  0  0  0
  3 16  2  0  0  0  0
  4 12  1  0  0  0  0
  4 19  1  0  0  0  0
  6  5  2  0  0  0  0
  6 11  1  0  0  0  0
  7 10  1  0  0  0  0
  8  7  1  0  0  0  0
  9  3  1  0  0  0  0
 10 11  1  0  0  0  0
 11 30  1  0  0  0  0
 12 13  1  0  0  0  0
 13  7  2  0  0  0  0
 14 12  2  0  0  0  0
 15 17  1  0  0  0  0
 17  9  1  6  0  0  0
 17 18  1  0  0  0  0
 17  3  1  0  0  0  0
 18 20  1  0  0  0  0
 19 21  2  0  0  0  0
 21  1  1  0  0  0  0
 21 20  1  0  0  0  0
 22 26  1  0  0  0  0
 23 28  1  0  0  0  0
 24 32  1  1  0  0  0
 25 24  1  0  0  0  0
 26 25  1  0  0  0  0
 27 29  1  0  0  0  0
 28 26  2  0  0  0  0
 28 27  1  0  0  0  0
 29 24  1  0  0  0  0
 30 31  1  0  0  0  0
 30 23  2  0  0  0  0
 31 22  2  0  0  0  0
 32 33  1  0  0  0  0
 32 34  1  6  0  0  0
M  END
>  <MODEL>
7

>  <REMARK>
 VINA RESULT:      -9.6      3.782      6.005
  Name = 
  2 active torsions:
  status: ('A' for Active; 'I' for Inactive)
    1  A    between atoms: C_7  and  C_11
    2  A    between atoms: N_18  and  C_30
                            x       y       z     vdW  Elec       q    Type
                         _______ _______ _______ _____ _____    ______ ____

>  <TORSDO>
F 2

$$$$
=
 OpenBabel11052415513D

 34 39  0  0  1  0  0  0  0  0999 V2000
  185.7020  178.1560  138.1540 C   0  0  2  0  0  3  0  0  0  0  0  0
  186.8040  175.5050  135.4930 C   0  0  0  0  0  2  0  0  0  0  0  0
  190.0410  174.3870  136.6360 C   0  0  0  0  0  0  0  0  0  0  0  0
  184.6450  176.6480  135.9770 N   0  0  0  0  0  2  0  0  0  0  0  0
  187.3450  178.9050  139.7400 O   0  0  0  0  0  0  0  0  0  0  0  0
  186.1590  178.5250  139.5470 C   0  0  0  0  0  0  0  0  0  0  0  0
  183.3550  178.3000  139.0490 C   0  0  0  0  0  0  0  0  0  0  0  0
  181.9850  178.0850  138.9330 O   0  0  0  0  0  1  0  0  0  0  0  0
  189.8590  175.0340  135.2540 C   0  0  0  0  0  2  0  0  0  0  0  0
  183.8470  178.9560  140.3050 C   0  0  0  0  0  2  0  0  0  0  0  0
  185.2110  178.5450  140.6240 N   0  0  0  0  0  0  0  0  0  0  0  0
  183.7200  177.3640  136.7900 C   0  0  0  0  0  0  0  0  0  0  0  0
  184.1990  177.9500  138.0550 C   0  0  0  0  0  0  0  0  0  0  0  0
  182.5250  177.4860  136.4100 O   0  0  0  0  0  0  0  0  0  0  0  0
  187.6670  174.6550  136.2000 O   0  0  0  0  0  0  0  0  0  0  0  0
  190.6410  173.6710  137.4200 O   0  0  0  0  0  0  0  0  0  0  0  0
  188.9000  175.3250  136.2730 C   0  0  1  0  0  0  0  0  0  0  0  0
  188.9640  176.6630  136.9990 C   0  0  0  0  0  2  0  0  0  0  0  0
  185.9900  176.3920  136.4010 C   0  0  0  0  0  0  0  0  0  0  0  0
  187.8690  176.6960  138.0520 C   0  0  0  0  0  2  0  0  0  0  0  0
  186.4990  177.0280  137.4950 C   0  0  0  0  0  0  0  0  0  0  0  0
  185.0590  178.3230  144.3700 C   0  0  0  0  0  3  0  0  0  0  0  0
  186.9290  178.0090  142.3180 C   0  0  0  0  0  3  0  0  0  0  0  0
  188.2550  177.8110  146.3600 C   0  0  2  0  0  3  0  0  0  0  0  0
  186.7420  177.7550  146.1220 C   0  0  0  0  0  2  0  0  0  0  0  0
  186.3820  178.0020  144.6840 C   0  0  0  0  0  0  0  0  0  0  0  0
  188.7690  177.5400  143.9370 C   0  0  0  0  0  2  0  0  0  0  0  0
  187.3210  177.8200  143.6470 C   0  0  0  0  0  0  0  0  0  0  0  0
  188.9750  176.9510  145.3300 C   0  0  0  0  0  2  0  0  0  0  0  0
  185.6010  178.3360  141.9970 C   0  0  0  0  0  0  0  0  0  0  0  0
  184.6740  178.4960  143.0390 C   0  0  0  0  0  3  0  0  0  0  0  0
  188.6300  177.3710  147.7740 C   0  0  2  0  0  3  0  0  0  0  0  0
  187.9570  178.1310  148.7340 O   0  0  0  0  0  1  0  0  0  0  0  0
  190.1280  177.4730  147.9920 C   0  0  0  0  0  1  0  0  0  0  0  0
  1 21  1  1  0  0  0
  1  6  1  0  0  0  0
  2 15  1  0  0  0  0
  2 19  1  0  0  0  0
  3 16  2  0  0  0  0
  4 19  1  0  0  0  0
  4 12  1  0  0  0  0
  6  5  2  0  0  0  0
  6 11  1  0  0  0  0
  7 10  1  0  0  0  0
  8  7  1  0  0  0  0
  9  3  1  0  0  0  0
 10 11  1  0  0  0  0
 11 30  1  0  0  0  0
 12 13  1  0  0  0  0
 13  1  1  0  0  0  0
 13  7  2  0  0  0  0
 14 12  2  0  0  0  0
 15 17  1  0  0  0  0
 17  9  1  6  0  0  0
 17  3  1  0  0  0  0
 17 18  1  0  0  0  0
 18 20  1  0  0  0  0
 19 21  2  0  0  0  0
 21 20  1  0  0  0  0
 22 26  1  0  0  0  0
 23 28  1  0  0  0  0
 24 32  1  1  0  0  0
 25 24  1  0  0  0  0
 26 25  1  0  0  0  0
 27 29  1  0  0  0  0
 28 27  1  0  0  0  0
 28 26  2  0  0  0  0
 29 24  1  0  0  0  0
 30 23  2  0  0  0  0
 30 31  1  0  0  0  0
 31 22  2  0  0  0  0
 32 34  1  1  0  0  0
 32 33  1  0  0  0  0
M  END
>  <MODEL>
8

>  <REMARK>
 VINA RESULT:      -9.6      1.521      2.015
  Name = 
  2 active torsions:
  status: ('A' for Active; 'I' for Inactive)
    1  A    between atoms: C_7  and  C_11
    2  A    between atoms: N_18  and  C_30
                            x       y       z     vdW  Elec       q    Type
                         _______ _______ _______ _____ _____    ______ ____

>  <TORSDO>
F 2

$$$$
=
 OpenBabel11052415513D

 34 39  0  0  1  0  0  0  0  0999 V2000
  190.8910  175.8590  136.9400 C   0  0  2  0  0  3  0  0  0  0  0  0
  192.1640  172.5080  135.3660 C   0  0  0  0  0  2  0  0  0  0  0  0
  195.1020  171.6780  137.2930 C   0  0  0  0  0  0  0  0  0  0  0  0
  190.0520  173.8090  135.1440 N   0  0  0  0  0  2  0  0  0  0  0  0
  192.3360  176.9900  138.4920 O   0  0  0  0  0  0  0  0  0  0  0  0
  191.1650  176.6070  138.2240 C   0  0  0  0  0  0  0  0  0  0  0  0
  188.4560  176.3320  137.3610 C   0  0  0  0  0  0  0  0  0  0  0  0
  187.1050  176.1350  137.0890 O   0  0  0  0  0  1  0  0  0  0  0  0
  195.1750  171.8940  135.7730 C   0  0  0  0  0  2  0  0  0  0  0  0
  188.8070  177.3130  138.4390 C   0  0  0  0  0  2  0  0  0  0  0  0
  190.0730  176.9720  139.0810 N   0  0  0  0  0  0  0  0  0  0  0  0
  189.0750  174.7610  135.5550 C   0  0  0  0  0  0  0  0  0  0  0  0
  189.4070  175.6780  136.6600 C   0  0  0  0  0  0  0  0  0  0  0  0
  187.9620  174.8030  134.9670 O   0  0  0  0  0  0  0  0  0  0  0  0
  192.8450  171.8780  136.4170 O   0  0  0  0  0  0  0  0  0  0  0  0
  195.5230  171.2060  138.3360 O   0  0  0  0  0  0  0  0  0  0  0  0
  194.1030  172.5010  136.4960 C   0  0  1  0  0  0  0  0  0  0  0  0
  194.1620  173.9920  136.8090 C   0  0  0  0  0  2  0  0  0  0  0  0
  191.2960  173.6480  135.8360 C   0  0  0  0  0  0  0  0  0  0  0  0
  192.9300  174.3670  137.6150 C   0  0  0  0  0  2  0  0  0  0  0  0
  191.6860  174.5620  136.7710 C   0  0  0  0  0  0  0  0  0  0  0  0
  191.6590  177.6740  142.4120 C   0  0  0  0  0  3  0  0  0  0  0  0
  189.1630  176.9620  141.3790 C   0  0  0  0  0  3  0  0  0  0  0  0
  189.6850  177.0790  145.6040 C   0  0  2  0  0  3  0  0  0  0  0  0
  190.7890  177.7140  144.7500 C   0  0  0  0  0  2  0  0  0  0  0  0
  190.5850  177.4670  143.2810 C   0  0  0  0  0  0  0  0  0  0  0  0
  188.1510  176.8320  143.6560 C   0  0  0  0  0  2  0  0  0  0  0  0
  189.3190  177.1300  142.7580 C   0  0  0  0  0  0  0  0  0  0  0  0
  188.3180  177.4470  145.0430 C   0  0  0  0  0  2  0  0  0  0  0  0
  190.2400  177.1650  140.5010 C   0  0  0  0  0  0  0  0  0  0  0  0
  191.4900  177.5180  141.0350 C   0  0  0  0  0  3  0  0  0  0  0  0
  189.7860  177.4930  147.0710 C   0  0  2  0  0  3  0  0  0  0  0  0
  190.8800  176.8860  147.6920 O   0  0  0  0  0  1  0  0  0  0  0  0
  188.5110  177.1460  147.8180 C   0  0  0  0  0  1  0  0  0  0  0  0
  1 13  1  1  0  0  0
  1  6  1  0  0  0  0
  2 19  1  0  0  0  0
  2 15  1  0  0  0  0
  3 16  2  0  0  0  0
  4 12  1  0  0  0  0
  4 19  1  0  0  0  0
  6  5  2  0  0  0  0
  6 11  1  0  0  0  0
  7 10  1  0  0  0  0
  8  7  1  0  0  0  0
  9  3  1  0  0  0  0
 10 11  1  0  0  0  0
 11 30  1  0  0  0  0
 12 13  1  0  0  0  0
 13  7  2  0  0  0  0
 14 12  2  0  0  0  0
 15 17  1  0  0  0  0
 17  9  1  6  0  0  0
 17 18  1  0  0  0  0
 17  3  1  0  0  0  0
 18 20  1  0  0  0  0
 19 21  2  0  0  0  0
 21  1  1  0  0  0  0
 21 20  1  0  0  0  0
 22 26  1  0  0  0  0
 23 28  1  0  0  0  0
 24 32  1  1  0  0  0
 25 24  1  0  0  0  0
 26 25  1  0  0  0  0
 27 29  1  0  0  0  0
 28 26  2  0  0  0  0
 28 27  1  0  0  0  0
 29 24  1  0  0  0  0
 30 31  1  0  0  0  0
 30 23  2  0  0  0  0
 31 22  2  0  0  0  0
 32 33  1  0  0  0  0
 32 34  1  1  0  0  0
M  END
>  <MODEL>
9

>  <REMARK>
 VINA RESULT:      -8.8      4.500      6.947
  Name = 
  2 active torsions:
  status: ('A' for Active; 'I' for Inactive)
    1  A    between atoms: C_7  and  C_11
    2  A    between atoms: N_18  and  C_30
                            x       y       z     vdW  Elec       q    Type
                         _______ _______ _______ _____ _____    ______ ____

>  <TORSDO>
F 2

$$$$
