=
 OpenBabel11052413293D

 28 32  0  0  1  0  0  0  0  0999 V2000
  185.8830  178.3970  144.1340 C   0  0  1  0  0  3  0  0  0  0  0  0
  189.1000  176.9990  140.8710 C   0  0  0  0  0  3  0  0  0  0  0  0
  189.3710  178.2530  146.9280 O   0  0  0  0  0  1  0  0  0  0  0  0
  191.0670  177.6120  142.1590 C   0  0  0  0  0  0  0  0  0  0  0  0
  188.7820  177.6900  143.2780 C   0  0  1  0  0  3  0  0  0  0  0  0
  191.2810  176.9840  139.8270 C   0  0  0  0  0  0  0  0  0  0  0  0
  189.6720  177.3790  142.0950 C   0  0  0  0  0  0  0  0  0  0  0  0
  190.7720  178.6560  144.4260 C   0  0  0  0  0  2  0  0  0  0  0  0
  191.8620  177.3930  141.0290 C   0  0  0  0  0  3  0  0  0  0  0  0
  187.4320  177.3160  145.8710 C   0  0  1  0  0  3  0  0  0  0  0  0
  187.6280  176.6970  143.4190 C   0  0  0  0  0  2  0  0  0  0  0  0
  191.7430  178.0120  143.4410 C   0  0  0  0  0  2  0  0  0  0  0  0
  185.1530  178.3110  146.5520 C   0  0  0  0  0  2  0  0  0  0  0  0
  188.6540  178.2380  145.7280 C   0  0  2  0  0  3  0  0  0  0  0  0
  186.5190  177.7990  147.0130 C   0  0  0  0  0  2  0  0  0  0  0  0
  192.2840  176.7190  138.4170 Cl  0  0  0  0  0  0  0  0  0  0  0  0
  189.9000  176.7940  139.7460 C   0  0  0  0  0  3  0  0  0  0  0  0
  189.5610  177.7480  144.5970 C   0  0  1  0  0  3  0  0  0  0  0  0
  185.2950  179.1860  145.3120 C   0  0  0  0  0  2  0  0  0  0  0  0
  186.6780  177.1370  144.5340 C   0  0  2  0  0  3  0  0  0  0  0  0
  184.9020  178.1760  142.9590 C   0  0  0  0  0  2  0  0  0  0  0  0
  185.0700  179.0260  141.7680 N   0  0  0  0  0  0  0  0  0  0  0  0
  184.3490  179.1330  139.4930 C   0  0  0  0  0  0  0  0  0  0  0  0
  183.8870  178.9610  140.9230 C   0  0  0  0  0  2  0  0  0  0  0  0
  186.2070  178.6260  140.9460 C   0  0  0  0  0  2  0  0  0  0  0  0
  185.8340  178.8640  139.4960 C   0  0  0  0  0  2  0  0  0  0  0  0
  183.6930  178.2250  138.6620 O   0  0  0  0  0  1  0  0  0  0  0  0
  184.1000  180.4360  139.0630 O   0  0  0  0  0  1  0  0  0  0  0  0
  1 21  1  6  0  0  0
  1 20  1  0  0  0  0
  1 19  1  0  0  0  0
  2  7  1  0  0  0  0
  4 12  1  0  0  0  0
  5 11  1  1  0  0  0
  5 18  1  0  0  0  0
  6  9  2  0  0  0  0
  7  4  2  0  0  0  0
  7  5  1  0  0  0  0
  9  4  1  0  0  0  0
 10 15  1  1  0  0  0
 12  8  1  0  0  0  0
 13 15  1  0  0  0  0
 14 10  1  0  0  0  0
 14  3  1  1  0  0  0
 16  6  1  0  0  0  0
 17  6  1  0  0  0  0
 17  2  2  0  0  0  0
 18  8  1  6  0  0  0
 18 14  1  0  0  0  0
 19 13  1  0  0  0  0
 20 11  1  6  0  0  0
 20 10  1  0  0  0  0
 22 21  1  0  0  0  0
 23 26  1  0  0  0  0
 23 24  1  0  0  0  0
 24 22  1  0  0  0  0
 25 22  1  0  0  0  0
 26 25  1  0  0  0  0
 27 23  1  0  0  0  0
 28 23  1  0  0  0  0
M  END
>  <MODEL>
1

>  <REMARK>
 VINA RESULT:     -10.5      0.000      0.000
  Name = 
  2 active torsions:
  status: ('A' for Active; 'I' for Inactive)
    1  A    between atoms: C_1  and  C_2
    2  A    between atoms: C_2  and  N_3
                            x       y       z     vdW  Elec       q    Type
                         _______ _______ _______ _____ _____    ______ ____

>  <TORSDO>
F 2

$$$$
=
 OpenBabel11052413293D

 28 32  0  0  1  0  0  0  0  0999 V2000
  189.3630  176.4820  142.7070 C   0  0  1  0  0  3  0  0  0  0  0  0
  184.9570  178.3620  142.6330 C   0  0  0  0  0  3  0  0  0  0  0  0
  189.3870  177.9310  146.9370 O   0  0  0  0  0  1  0  0  0  0  0  0
  184.6820  178.4860  145.0440 C   0  0  0  0  0  0  0  0  0  0  0  0
  186.9630  177.8850  144.0890 C   0  0  1  0  0  3  0  0  0  0  0  0
  182.7920  178.8810  143.5770 C   0  0  0  0  0  0  0  0  0  0  0  0
  185.5190  178.3020  143.9180 C   0  0  0  0  0  0  0  0  0  0  0  0
  186.5310  177.6650  146.5340 C   0  0  0  0  0  2  0  0  0  0  0  0
  183.3290  178.7940  144.8620 C   0  0  0  0  0  3  0  0  0  0  0  0
  189.8540  178.1500  144.5940 C   0  0  1  0  0  3  0  0  0  0  0  0
  187.8820  178.5170  143.0430 C   0  0  0  0  0  2  0  0  0  0  0  0
  185.2220  178.4440  146.4460 C   0  0  0  0  0  2  0  0  0  0  0  0
  191.7050  176.6280  143.6420 C   0  0  0  0  0  2  0  0  0  0  0  0
  188.8990  177.6050  145.6680 C   0  0  2  0  0  3  0  0  0  0  0  0
  191.2650  177.5590  144.7740 C   0  0  0  0  0  2  0  0  0  0  0  0
  181.0960  179.2600  143.3610 Cl  0  0  0  0  0  0  0  0  0  0  0  0
  183.6030  178.6580  142.4630 C   0  0  0  0  0  3  0  0  0  0  0  0
  187.5010  178.2020  145.4890 C   0  0  1  0  0  3  0  0  0  0  0  0
  190.5700  175.6960  143.2360 C   0  0  0  0  0  2  0  0  0  0  0  0
  189.2980  177.9530  143.1660 C   0  0  2  0  0  3  0  0  0  0  0  0
  189.0770  176.2790  141.2010 C   0  0  0  0  0  2  0  0  0  0  0  0
  189.5170  177.3410  140.2800 N   0  0  0  0  0  0  0  0  0  0  0  0
  188.9830  178.2110  138.1200 C   0  0  0  0  0  0  0  0  0  0  0  0
  188.4070  177.7920  139.4530 C   0  0  0  0  0  2  0  0  0  0  0  0
  190.5730  176.9010  139.3750 C   0  0  0  0  0  2  0  0  0  0  0  0
  190.3580  177.5920  138.0440 C   0  0  0  0  0  2  0  0  0  0  0  0
  188.1820  177.7430  137.0790 O   0  0  0  0  0  1  0  0  0  0  0  0
  189.0810  179.6000  138.0550 O   0  0  0  0  0  1  0  0  0  0  0  0
  1 21  1  6  0  0  0
  1 20  1  0  0  0  0
  1 19  1  0  0  0  0
  2  7  1  0  0  0  0
  4 12  1  0  0  0  0
  5 11  1  6  0  0  0
  5 18  1  0  0  0  0
  6  9  2  0  0  0  0
  7  5  1  0  0  0  0
  7  4  2  0  0  0  0
  9  4  1  0  0  0  0
 10 15  1  6  0  0  0
 10 14  1  0  0  0  0
 12  8  1  0  0  0  0
 13 15  1  0  0  0  0
 14  3  1  1  0  0  0
 16  6  1  0  0  0  0
 17  2  2  0  0  0  0
 17  6  1  0  0  0  0
 18 14  1  0  0  0  0
 18  8  1  1  0  0  0
 19 13  1  0  0  0  0
 20 11  1  1  0  0  0
 20 10  1  0  0  0  0
 22 21  1  0  0  0  0
 23 24  1  0  0  0  0
 24 22  1  0  0  0  0
 25 22  1  0  0  0  0
 26 23  1  0  0  0  0
 26 25  1  0  0  0  0
 27 23  1  0  0  0  0
 28 23  1  0  0  0  0
M  END
>  <MODEL>
2

>  <REMARK>
 VINA RESULT:     -10.5      3.140      5.746
  Name = 
  2 active torsions:
  status: ('A' for Active; 'I' for Inactive)
    1  A    between atoms: C_1  and  C_2
    2  A    between atoms: C_2  and  N_3
                            x       y       z     vdW  Elec       q    Type
                         _______ _______ _______ _____ _____    ______ ____

>  <TORSDO>
F 2

$$$$
=
 OpenBabel11052413293D

 28 32  0  0  1  0  0  0  0  0999 V2000
  187.0460  178.5060  142.2490 C   0  0  1  0  0  3  0  0  0  0  0  0
  190.2680  176.6300  145.2570 C   0  0  0  0  0  3  0  0  0  0  0  0
  184.5740  178.9580  145.9470 O   0  0  0  0  0  1  0  0  0  0  0  0
  189.2790  177.5160  147.2920 C   0  0  0  0  0  0  0  0  0  0  0  0
  188.0050  177.7340  145.1000 C   0  0  1  0  0  3  0  0  0  0  0  0
  191.4730  176.4850  147.3490 C   0  0  0  0  0  0  0  0  0  0  0  0
  189.1840  177.2380  145.9070 C   0  0  0  0  0  0  0  0  0  0  0  0
  187.2160  178.9420  147.1320 C   0  0  0  0  0  2  0  0  0  0  0  0
  190.4150  177.1180  148.0040 C   0  0  0  0  0  3  0  0  0  0  0  0
  185.2820  177.7960  143.9720 C   0  0  1  0  0  3  0  0  0  0  0  0
  187.5930  176.7520  144.0020 C   0  0  0  0  0  2  0  0  0  0  0  0
  188.1500  178.1580  148.0490 C   0  0  0  0  0  2  0  0  0  0  0  0
  184.5990  178.8370  141.7140 C   0  0  0  0  0  2  0  0  0  0  0  0
  185.6870  178.7090  145.1400 C   0  0  2  0  0  3  0  0  0  0  0  0
  184.1710  178.4520  143.1320 C   0  0  0  0  0  2  0  0  0  0  0  0
  192.8930  175.9970  148.2500 Cl  0  0  0  0  0  0  0  0  0  0  0  0
  191.4030  176.2470  145.9750 C   0  0  0  0  0  3  0  0  0  0  0  0
  186.7860  178.0480  145.9760 C   0  0  1  0  0  3  0  0  0  0  0  0
  185.9820  179.4780  141.7230 C   0  0  0  0  0  2  0  0  0  0  0  0
  186.4980  177.3590  143.1240 C   0  0  2  0  0  3  0  0  0  0  0  0
  188.0770  178.0510  141.1900 C   0  0  0  0  0  2  0  0  0  0  0  0
  188.0110  178.6890  139.8640 N   0  0  0  0  0  0  0  0  0  0  0  0
  187.6320  178.0990  137.5800 C   0  0  0  0  0  0  0  0  0  0  0  0
  187.1060  177.9570  138.9900 C   0  0  0  0  0  2  0  0  0  0  0  0
  189.3070  178.7350  139.1950 C   0  0  0  0  0  2  0  0  0  0  0  0
  189.0670  178.5480  137.7110 C   0  0  0  0  0  2  0  0  0  0  0  0
  187.5650  176.8760  136.9130 O   0  0  0  0  0  1  0  0  0  0  0  0
  186.8930  179.0580  136.8880 O   0  0  0  0  0  1  0  0  0  0  0  0
  1 21  1  6  0  0  0
  1 20  1  0  0  0  0
  2  7  2  0  0  0  0
  2 17  1  0  0  0  0
  4  9  2  0  0  0  0
  4 12  1  0  0  0  0
  5 11  1  6  0  0  0
  5  7  1  0  0  0  0
  5 18  1  0  0  0  0
  6  9  1  0  0  0  0
  6 16  1  0  0  0  0
  7  4  1  0  0  0  0
  8 12  1  0  0  0  0
 10 15  1  6  0  0  0
 10 14  1  0  0  0  0
 13 19  1  0  0  0  0
 13 15  1  0  0  0  0
 14  3  1  1  0  0  0
 14 18  1  0  0  0  0
 17  6  2  0  0  0  0
 18  8  1  1  0  0  0
 19  1  1  0  0  0  0
 20 10  1  0  0  0  0
 20 11  1  1  0  0  0
 22 21  1  0  0  0  0
 23 26  1  0  0  0  0
 23 24  1  0  0  0  0
 24 22  1  0  0  0  0
 25 22  1  0  0  0  0
 26 25  1  0  0  0  0
 27 23  1  0  0  0  0
 28 23  1  0  0  0  0
M  END
>  <MODEL>
3

>  <REMARK>
 VINA RESULT:     -10.5      2.967      4.647
  Name = 
  2 active torsions:
  status: ('A' for Active; 'I' for Inactive)
    1  A    between atoms: C_1  and  C_2
    2  A    between atoms: C_2  and  N_3
                            x       y       z     vdW  Elec       q    Type
                         _______ _______ _______ _____ _____    ______ ____

>  <TORSDO>
F 2

$$$$
=
 OpenBabel11052413293D

 28 32  0  0  1  0  0  0  0  0999 V2000
  185.5830  178.9970  143.6290 C   0  0  1  0  0  3  0  0  0  0  0  0
  189.3510  177.5860  141.0290 C   0  0  0  0  0  3  0  0  0  0  0  0
  188.1110  177.7310  147.0920 O   0  0  0  0  0  1  0  0  0  0  0  0
  190.9510  177.5920  142.8570 C   0  0  0  0  0  0  0  0  0  0  0  0
  188.4800  177.9110  143.3750 C   0  0  1  0  0  3  0  0  0  0  0  0
  191.7120  177.3360  140.5690 C   0  0  0  0  0  0  0  0  0  0  0  0
  189.6100  177.6400  142.4070 C   0  0  0  0  0  0  0  0  0  0  0  0
  190.1900  178.2770  145.1510 C   0  0  0  0  0  2  0  0  0  0  0  0
  191.9890  177.4200  141.9340 C   0  0  0  0  0  3  0  0  0  0  0  0
  186.4300  177.3670  145.4210 C   0  0  1  0  0  3  0  0  0  0  0  0
  187.2070  177.1430  143.0170 C   0  0  0  0  0  2  0  0  0  0  0  0
  191.2960  177.6370  144.3200 C   0  0  0  0  0  2  0  0  0  0  0  0
  184.2110  178.6460  145.7210 C   0  0  0  0  0  2  0  0  0  0  0  0
  187.7580  178.0530  145.7790 C   0  0  2  0  0  3  0  0  0  0  0  0
  185.3120  177.8150  146.3820 C   0  0  0  0  0  2  0  0  0  0  0  0
  193.0180  177.1270  139.4220 Cl  0  0  0  0  0  0  0  0  0  0  0  0
  190.3940  177.4260  140.1150 C   0  0  0  0  0  3  0  0  0  0  0  0
  188.8660  177.5980  144.8260 C   0  0  1  0  0  3  0  0  0  0  0  0
  184.8070  179.6740  144.7670 C   0  0  0  0  0  2  0  0  0  0  0  0
  186.0560  177.5610  143.9340 C   0  0  2  0  0  3  0  0  0  0  0  0
  184.9440  179.1650  142.2310 C   0  0  0  0  0  2  0  0  0  0  0  0
  183.8770  178.2200  141.8570 N   0  0  0  0  0  0  0  0  0  0  0  0
  182.5040  177.6790  139.9770 C   0  0  0  0  0  0  0  0  0  0  0  0
  183.9240  177.9360  140.4300 C   0  0  0  0  0  2  0  0  0  0  0  0
  182.5420  178.7330  142.1470 C   0  0  0  0  0  2  0  0  0  0  0  0
  181.6110  178.2410  141.0570 C   0  0  0  0  0  2  0  0  0  0  0  0
  182.2610  178.3210  138.7640 O   0  0  0  0  0  1  0  0  0  0  0  0
  182.2850  176.3090  139.8430 O   0  0  0  0  0  1  0  0  0  0  0  0
  1 21  1  6  0  0  0
  1 20  1  0  0  0  0
  1 19  1  0  0  0  0
  2  7  1  0  0  0  0
  4 12  1  0  0  0  0
  5 11  1  6  0  0  0
  5 18  1  0  0  0  0
  6  9  2  0  0  0  0
  7  4  2  0  0  0  0
  7  5  1  0  0  0  0
  9  4  1  0  0  0  0
 10 14  1  0  0  0  0
 10 15  1  1  0  0  0
 12  8  1  0  0  0  0
 13 15  1  0  0  0  0
 14  3  1  1  0  0  0
 16  6  1  0  0  0  0
 17  6  1  0  0  0  0
 17  2  2  0  0  0  0
 18  8  1  1  0  0  0
 18 14  1  0  0  0  0
 19 13  1  0  0  0  0
 20 11  1  6  0  0  0
 20 10  1  0  0  0  0
 22 25  1  0  0  0  0
 22 21  1  0  0  0  0
 23 24  1  0  0  0  0
 23 26  1  0  0  0  0
 24 22  1  0  0  0  0
 26 25  1  0  0  0  0
 27 23  1  0  0  0  0
 28 23  1  0  0  0  0
M  END
>  <MODEL>
4

>  <REMARK>
 VINA RESULT:      -9.7      1.242      1.770
  Name = 
  2 active torsions:
  status: ('A' for Active; 'I' for Inactive)
    1  A    between atoms: C_1  and  C_2
    2  A    between atoms: C_2  and  N_3
                            x       y       z     vdW  Elec       q    Type
                         _______ _______ _______ _____ _____    ______ ____

>  <TORSDO>
F 2

$$$$
=
 OpenBabel11052413293D

 28 32  0  0  1  0  0  0  0  0999 V2000
  186.7990  178.3900  142.5790 C   0  0  1  0  0  3  0  0  0  0  0  0
  190.1310  176.5120  145.4640 C   0  0  0  0  0  3  0  0  0  0  0  0
  184.6300  179.1930  146.4050 O   0  0  0  0  0  1  0  0  0  0  0  0
  189.3390  177.5680  147.5050 C   0  0  0  0  0  0  0  0  0  0  0  0
  187.9220  177.7310  145.3970 C   0  0  1  0  0  3  0  0  0  0  0  0
  191.4760  176.4220  147.4720 C   0  0  0  0  0  0  0  0  0  0  0  0
  189.1290  177.2170  146.1500 C   0  0  0  0  0  0  0  0  0  0  0  0
  187.3470  179.0970  147.4010 C   0  0  0  0  0  2  0  0  0  0  0  0
  190.5030  177.1500  148.1590 C   0  0  0  0  0  3  0  0  0  0  0  0
  185.1310  177.8800  144.4610 C   0  0  1  0  0  3  0  0  0  0  0  0
  187.3810  176.7120  144.3940 C   0  0  0  0  0  2  0  0  0  0  0  0
  188.3030  178.3150  148.2980 C   0  0  0  0  0  2  0  0  0  0  0  0
  184.3410  178.8260  142.1960 C   0  0  0  0  0  2  0  0  0  0  0  0
  185.6670  178.8350  145.5390 C   0  0  2  0  0  3  0  0  0  0  0  0
  183.9970  178.5480  143.6610 C   0  0  0  0  0  2  0  0  0  0  0  0
  192.9300  175.9080  148.3000 Cl  0  0  0  0  0  0  0  0  0  0  0  0
  191.2930  176.1090  146.1240 C   0  0  0  0  0  3  0  0  0  0  0  0
  186.7880  178.1630  146.3360 C   0  0  1  0  0  3  0  0  0  0  0  0
  185.7510  179.3880  142.0690 C   0  0  0  0  0  2  0  0  0  0  0  0
  186.2580  177.3280  143.5580 C   0  0  2  0  0  3  0  0  0  0  0  0
  187.7250  177.8180  141.4800 C   0  0  0  0  0  2  0  0  0  0  0  0
  189.1290  178.2660  141.4770 N   0  0  0  0  0  0  0  0  0  0  0  0
  191.3070  177.4260  141.9870 C   0  0  0  0  0  0  0  0  0  0  0  0
  190.0230  177.1420  141.2400 C   0  0  0  0  0  2  0  0  0  0  0  0
  189.5300  178.8720  142.7420 C   0  0  0  0  0  2  0  0  0  0  0  0
  190.9780  178.5020  142.9930 C   0  0  0  0  0  2  0  0  0  0  0  0
  191.7530  176.2750  142.6360 O   0  0  0  0  0  1  0  0  0  0  0  0
  192.2840  177.8820  141.1030 O   0  0  0  0  0  1  0  0  0  0  0  0
  1 21  1  6  0  0  0
  1 20  1  0  0  0  0
  2 17  2  0  0  0  0
  2  7  1  0  0  0  0
  4  9  1  0  0  0  0
  4 12  1  0  0  0  0
  5 11  1  6  0  0  0
  5  7  1  0  0  0  0
  5 18  1  0  0  0  0
  6  9  2  0  0  0  0
  6 16  1  0  0  0  0
  7  4  2  0  0  0  0
  8 12  1  0  0  0  0
 10 15  1  6  0  0  0
 10 14  1  0  0  0  0
 13 15  1  0  0  0  0
 14 18  1  0  0  0  0
 14  3  1  1  0  0  0
 17  6  1  0  0  0  0
 18  8  1  1  0  0  0
 19 13  1  0  0  0  0
 19  1  1  0  0  0  0
 20 11  1  1  0  0  0
 20 10  1  0  0  0  0
 22 21  1  0  0  0  0
 22 25  1  0  0  0  0
 23 27  1  0  0  0  0
 23 26  1  0  0  0  0
 24 22  1  0  0  0  0
 24 23  1  0  0  0  0
 25 26  1  0  0  0  0
 28 23  1  0  0  0  0
M  END
>  <MODEL>
5

>  <REMARK>
 VINA RESULT:      -9.6      3.276      5.453
  Name = 
  2 active torsions:
  status: ('A' for Active; 'I' for Inactive)
    1  A    between atoms: C_1  and  C_2
    2  A    between atoms: C_2  and  N_3
                            x       y       z     vdW  Elec       q    Type
                         _______ _______ _______ _____ _____    ______ ____

>  <TORSDO>
F 2

$$$$
=
 OpenBabel11052413293D

 28 32  0  0  1  0  0  0  0  0999 V2000
  186.6600  177.2370  144.1090 C   0  0  1  0  0  3  0  0  0  0  0  0
  184.5820  178.2780  139.9200 C   0  0  0  0  0  3  0  0  0  0  0  0
  183.0350  179.1950  145.8440 O   0  0  0  0  0  1  0  0  0  0  0  0
  182.3560  178.6580  140.8160 C   0  0  0  0  0  0  0  0  0  0  0  0
  184.3030  178.3560  142.4270 C   0  0  1  0  0  3  0  0  0  0  0  0
  182.7000  178.5190  138.4200 C   0  0  0  0  0  0  0  0  0  0  0  0
  183.7450  178.4830  141.0270 C   0  0  0  0  0  0  0  0  0  0  0  0
  181.9620  178.3760  143.2810 C   0  0  0  0  0  2  0  0  0  0  0  0
  181.8490  178.6940  139.5120 C   0  0  0  0  0  3  0  0  0  0  0  0
  185.3050  179.1930  145.0690 C   0  0  1  0  0  3  0  0  0  0  0  0
  185.6810  179.0020  142.5680 C   0  0  0  0  0  2  0  0  0  0  0  0
  181.4060  178.8910  141.9580 C   0  0  0  0  0  2  0  0  0  0  0  0
  187.0150  177.9160  146.5160 C   0  0  0  0  0  2  0  0  0  0  0  0
  183.8860  178.6280  144.8910 C   0  0  2  0  0  3  0  0  0  0  0  0
  185.8350  178.8900  146.4830 C   0  0  0  0  0  2  0  0  0  0  0  0
  182.0550  178.5600  136.7930 Cl  0  0  0  0  0  0  0  0  0  0  0  0
  184.0650  178.3040  138.6230 C   0  0  0  0  0  3  0  0  0  0  0  0
  183.3620  178.9390  143.4870 C   0  0  1  0  0  3  0  0  0  0  0  0
  186.7830  176.7530  145.5600 C   0  0  0  0  0  2  0  0  0  0  0  0
  186.2650  178.7200  143.9530 C   0  0  2  0  0  3  0  0  0  0  0  0
  187.8210  176.7960  143.1870 C   0  0  0  0  0  2  0  0  0  0  0  0
  189.1390  176.5870  143.8120 N   0  0  0  0  0  0  0  0  0  0  0  0
  191.1970  177.7530  144.1500 C   0  0  0  0  0  0  0  0  0  0  0  0
  189.6930  177.8520  144.2710 C   0  0  0  0  0  2  0  0  0  0  0  0
  190.1110  176.0030  142.8940 C   0  0  0  0  0  2  0  0  0  0  0  0
  191.4670  176.5960  143.2190 C   0  0  0  0  0  2  0  0  0  0  0  0
  191.7170  178.9340  143.6210 O   0  0  0  0  0  1  0  0  0  0  0  0
  191.7630  177.5030  145.3990 O   0  0  0  0  0  1  0  0  0  0  0  0
  1 21  1  1  0  0  0
  1 19  1  0  0  0  0
  2  7  1  0  0  0  0
  4  7  2  0  0  0  0
  4 12  1  0  0  0  0
  5 11  1  6  0  0  0
  5 18  1  0  0  0  0
  6 17  1  0  0  0  0
  6  9  2  0  0  0  0
  7  5  1  0  0  0  0
  9  4  1  0  0  0  0
 10 15  1  1  0  0  0
 12  8  1  0  0  0  0
 14 10  1  0  0  0  0
 14  3  1  1  0  0  0
 15 13  1  0  0  0  0
 16  6  1  0  0  0  0
 17  2  2  0  0  0  0
 18  8  1  1  0  0  0
 18 14  1  0  0  0  0
 19 13  1  0  0  0  0
 20 11  1  6  0  0  0
 20  1  1  0  0  0  0
 20 10  1  0  0  0  0
 21 22  1  0  0  0  0
 22 24  1  0  0  0  0
 23 24  1  0  0  0  0
 23 28  1  0  0  0  0
 25 26  1  0  0  0  0
 25 22  1  0  0  0  0
 26 23  1  0  0  0  0
 27 23  1  0  0  0  0
M  END
>  <MODEL>
6

>  <REMARK>
 VINA RESULT:      -9.0      3.293      6.685
  Name = 
  2 active torsions:
  status: ('A' for Active; 'I' for Inactive)
    1  A    between atoms: C_1  and  C_2
    2  A    between atoms: C_2  and  N_3
                            x       y       z     vdW  Elec       q    Type
                         _______ _______ _______ _____ _____    ______ ____

>  <TORSDO>
F 2

$$$$
=
 OpenBabel11052413293D

 28 32  0  0  1  0  0  0  0  0999 V2000
  189.3460  176.9200  138.9150 C   0  0  1  0  0  3  0  0  0  0  0  0
  185.8840  178.5680  141.7880 C   0  0  0  0  0  3  0  0  0  0  0  0
  191.6660  176.5620  142.7200 O   0  0  0  0  0  1  0  0  0  0  0  0
  186.8280  177.7140  143.8570 C   0  0  0  0  0  0  0  0  0  0  0  0
  188.2130  177.5980  141.7250 C   0  0  1  0  0  3  0  0  0  0  0  0
  184.5780  178.6150  143.8220 C   0  0  0  0  0  0  0  0  0  0  0  0
  186.9710  178.0140  142.4810 C   0  0  0  0  0  0  0  0  0  0  0  0
  188.9750  176.4110  143.7790 C   0  0  0  0  0  2  0  0  0  0  0  0
  185.6390  178.0350  144.5200 C   0  0  0  0  0  3  0  0  0  0  0  0
  190.9840  177.7080  140.7260 C   0  0  1  0  0  3  0  0  0  0  0  0
  188.6170  178.6170  140.6590 C   0  0  0  0  0  2  0  0  0  0  0  0
  187.9570  177.1280  144.6600 C   0  0  0  0  0  2  0  0  0  0  0  0
  191.8300  176.7380  138.4920 C   0  0  0  0  0  2  0  0  0  0  0  0
  190.5790  176.7570  141.8640 C   0  0  2  0  0  3  0  0  0  0  0  0
  192.1690  177.1280  139.9320 C   0  0  0  0  0  2  0  0  0  0  0  0
  183.0920  179.0080  144.6600 Cl  0  0  0  0  0  0  0  0  0  0  0  0
  184.6970  178.8750  142.4550 C   0  0  0  0  0  3  0  0  0  0  0  0
  189.4060  177.3430  142.6550 C   0  0  1  0  0  3  0  0  0  0  0  0
  190.4880  176.0180  138.4290 C   0  0  0  0  0  2  0  0  0  0  0  0
  189.7850  178.0840  139.8260 C   0  0  2  0  0  3  0  0  0  0  0  0
  188.3400  177.3280  137.8140 C   0  0  0  0  0  2  0  0  0  0  0  0
  186.9470  176.8760  137.9680 N   0  0  0  0  0  0  0  0  0  0  0  0
  185.0980  176.1880  136.6190 C   0  0  0  0  0  0  0  0  0  0  0  0
  186.5740  175.9870  136.8760 C   0  0  0  0  0  2  0  0  0  0  0  0
  185.9920  177.9790  137.9650 C   0  0  0  0  0  2  0  0  0  0  0  0
  184.7330  177.4990  137.2730 C   0  0  0  0  0  2  0  0  0  0  0  0
  184.8510  176.2450  135.2480 O   0  0  0  0  0  1  0  0  0  0  0  0
  184.3660  175.1490  137.1910 O   0  0  0  0  0  1  0  0  0  0  0  0
  1 21  1  6  0  0  0
  1 20  1  0  0  0  0
  2 17  2  0  0  0  0
  2  7  1  0  0  0  0
  4  9  1  0  0  0  0
  4 12  1  0  0  0  0
  5 11  1  6  0  0  0
  5  7  1  0  0  0  0
  5 18  1  0  0  0  0
  6  9  2  0  0  0  0
  6 16  1  0  0  0  0
  7  4  2  0  0  0  0
  8 12  1  0  0  0  0
 10 15  1  6  0  0  0
 10 14  1  0  0  0  0
 13 15  1  0  0  0  0
 14 18  1  0  0  0  0
 14  3  1  1  0  0  0
 17  6  1  0  0  0  0
 18  8  1  1  0  0  0
 19 13  1  0  0  0  0
 19  1  1  0  0  0  0
 20 11  1  1  0  0  0
 20 10  1  0  0  0  0
 21 22  1  0  0  0  0
 23 24  1  0  0  0  0
 23 28  1  0  0  0  0
 23 26  1  0  0  0  0
 24 22  1  0  0  0  0
 25 22  1  0  0  0  0
 26 25  1  0  0  0  0
 27 23  1  0  0  0  0
M  END
>  <MODEL>
7

>  <REMARK>
 VINA RESULT:      -8.9      3.168      5.932
  Name = 
  2 active torsions:
  status: ('A' for Active; 'I' for Inactive)
    1  A    between atoms: C_1  and  C_2
    2  A    between atoms: C_2  and  N_3
                            x       y       z     vdW  Elec       q    Type
                         _______ _______ _______ _____ _____    ______ ____

>  <TORSDO>
F 2

$$$$
=
 OpenBabel11052413293D

 28 32  0  0  1  0  0  0  0  0999 V2000
  191.2800  177.4280  141.9250 C   0  0  1  0  0  3  0  0  0  0  0  0
  187.6600  177.3650  145.0620 C   0  0  0  0  0  3  0  0  0  0  0  0
  188.0210  177.9620  138.9110 O   0  0  0  0  0  1  0  0  0  0  0  0
  186.0100  178.3600  143.5830 C   0  0  0  0  0  0  0  0  0  0  0  0
  188.2660  177.6660  142.6310 C   0  0  1  0  0  3  0  0  0  0  0  0
  185.5240  178.0820  145.9420 C   0  0  0  0  0  0  0  0  0  0  0  0
  187.2740  177.7520  143.7700 C   0  0  0  0  0  0  0  0  0  0  0  0
  186.6890  179.0190  141.2550 C   0  0  0  0  0  2  0  0  0  0  0  0
  185.1380  178.5010  144.6680 C   0  0  0  0  0  3  0  0  0  0  0  0
  189.5600  176.6400  140.1900 C   0  0  1  0  0  3  0  0  0  0  0  0
  189.0900  176.3790  142.6690 C   0  0  0  0  0  2  0  0  0  0  0  0
  185.5320  178.7890  142.2230 C   0  0  0  0  0  2  0  0  0  0  0  0
  192.0560  176.8710  139.5860 C   0  0  0  0  0  2  0  0  0  0  0  0
  188.6510  177.8790  140.1550 C   0  0  2  0  0  3  0  0  0  0  0  0
  190.6210  176.7160  139.0770 C   0  0  0  0  0  2  0  0  0  0  0  0
  184.4280  178.2690  147.2940 Cl  0  0  0  0  0  0  0  0  0  0  0  0
  186.7880  177.5210  146.1410 C   0  0  0  0  0  3  0  0  0  0  0  0
  187.5930  177.7940  141.2590 C   0  0  1  0  0  3  0  0  0  0  0  0
  192.1200  177.8830  140.7240 C   0  0  0  0  0  2  0  0  0  0  0  0
  190.1730  176.4060  141.5900 C   0  0  2  0  0  3  0  0  0  0  0  0
  192.1040  177.0720  143.1840 C   0  0  0  0  0  2  0  0  0  0  0  0
  191.3890  176.4340  144.3030 N   0  0  0  0  0  0  0  0  0  0  0  0
  191.3730  176.4420  146.6920 C   0  0  0  0  0  0  0  0  0  0  0  0
  191.3580  177.3170  145.4590 C   0  0  0  0  0  2  0  0  0  0  0  0
  192.0140  175.1880  144.7330 C   0  0  0  0  0  2  0  0  0  0  0  0
  191.8490  175.0840  146.2360 C   0  0  0  0  0  2  0  0  0  0  0  0
  192.2460  176.9670  147.6450 O   0  0  0  0  0  1  0  0  0  0  0  0
  190.0890  176.3440  147.2260 O   0  0  0  0  0  1  0  0  0  0  0  0
  1 21  1  1  0  0  0
  2 17  1  0  0  0  0
  4  7  1  0  0  0  0
  4  9  2  0  0  0  0
  5 11  1  6  0  0  0
  5  7  1  0  0  0  0
  6 17  2  0  0  0  0
  6 16  1  0  0  0  0
  7  2  2  0  0  0  0
  8 12  1  0  0  0  0
  9  6  1  0  0  0  0
 10 15  1  6  0  0  0
 10 20  1  0  0  0  0
 12  4  1  0  0  0  0
 13 19  1  0  0  0  0
 14  3  1  6  0  0  0
 14 10  1  0  0  0  0
 14 18  1  0  0  0  0
 15 13  1  0  0  0  0
 18  8  1  1  0  0  0
 18  5  1  0  0  0  0
 19  1  1  0  0  0  0
 20  1  1  0  0  0  0
 20 11  1  1  0  0  0
 21 22  1  0  0  0  0
 22 25  1  0  0  0  0
 22 24  1  0  0  0  0
 23 28  1  0  0  0  0
 23 27  1  0  0  0  0
 24 23  1  0  0  0  0
 25 26  1  0  0  0  0
 26 23  1  0  0  0  0
M  END
>  <MODEL>
8

>  <REMARK>
 VINA RESULT:      -8.5      3.188      7.634
  Name = 
  2 active torsions:
  status: ('A' for Active; 'I' for Inactive)
    1  A    between atoms: C_1  and  C_2
    2  A    between atoms: C_2  and  N_3
                            x       y       z     vdW  Elec       q    Type
                         _______ _______ _______ _____ _____    ______ ____

>  <TORSDO>
F 2

$$$$
=
 OpenBabel11052413293D

 28 32  0  0  1  0  0  0  0  0999 V2000
  183.7380  179.3630  139.6760 C   0  0  1  0  0  3  0  0  0  0  0  0
  186.8690  177.7160  142.9060 C   0  0  0  0  0  3  0  0  0  0  0  0
  180.8410  179.1180  143.0730 O   0  0  0  0  0  1  0  0  0  0  0  0
  185.5410  178.2630  144.8650 C   0  0  0  0  0  0  0  0  0  0  0  0
  184.4920  178.4880  142.5580 C   0  0  1  0  0  3  0  0  0  0  0  0
  187.8490  177.5630  145.1120 C   0  0  0  0  0  0  0  0  0  0  0  0
  185.6400  178.1000  143.4630 C   0  0  0  0  0  0  0  0  0  0  0  0
  183.3110  179.3820  144.5620 C   0  0  0  0  0  2  0  0  0  0  0  0
  186.6410  177.9740  145.6790 C   0  0  0  0  0  3  0  0  0  0  0  0
  181.9300  178.2520  141.1190 C   0  0  1  0  0  3  0  0  0  0  0  0
  184.3580  177.5580  141.3510 C   0  0  0  0  0  2  0  0  0  0  0  0
  184.2500  178.6630  145.5260 C   0  0  0  0  0  2  0  0  0  0  0  0
  181.3420  179.3800  138.8760 C   0  0  0  0  0  2  0  0  0  0  0  0
  182.0610  179.1070  142.3900 C   0  0  2  0  0  3  0  0  0  0  0  0
  180.8280  178.8110  140.2010 C   0  0  0  0  0  2  0  0  0  0  0  0
  189.2220  177.2090  146.1390 Cl  0  0  0  0  0  0  0  0  0  0  0  0
  187.9650  177.4400  143.7250 C   0  0  0  0  0  3  0  0  0  0  0  0
  183.1520  178.5420  143.3020 C   0  0  1  0  0  3  0  0  0  0  0  0
  182.5990  180.2120  139.0960 C   0  0  0  0  0  2  0  0  0  0  0  0
  183.2840  178.0750  140.3940 C   0  0  2  0  0  3  0  0  0  0  0  0
  184.9350  179.1600  138.7180 C   0  0  0  0  0  2  0  0  0  0  0  0
  185.1760  177.7960  138.2160 N   0  0  0  0  0  0  0  0  0  0  0  0
  186.6640  176.6340  136.7510 C   0  0  0  0  0  0  0  0  0  0  0  0
  186.5860  177.6080  137.9050 C   0  0  0  0  0  2  0  0  0  0  0  0
  184.4270  177.5020  137.0000 C   0  0  0  0  0  2  0  0  0  0  0  0
  185.2870  176.6060  136.1320 C   0  0  0  0  0  2  0  0  0  0  0  0
  187.6060  177.0640  135.8180 O   0  0  0  0  0  1  0  0  0  0  0  0
  187.0030  175.3650  137.2180 O   0  0  0  0  0  1  0  0  0  0  0  0
  1 21  1  6  0  0  0
  1 20  1  0  0  0  0
  2  7  2  0  0  0  0
  2 17  1  0  0  0  0
  4 12  1  0  0  0  0
  4  9  2  0  0  0  0
  5 11  1  6  0  0  0
  5 18  1  0  0  0  0
  5  7  1  0  0  0  0
  6  9  1  0  0  0  0
  6 16  1  0  0  0  0
  7  4  1  0  0  0  0
  8 12  1  0  0  0  0
 10 15  1  6  0  0  0
 10 14  1  0  0  0  0
 13 19  1  0  0  0  0
 13 15  1  0  0  0  0
 14  3  1  1  0  0  0
 14 18  1  0  0  0  0
 17  6  2  0  0  0  0
 18  8  1  1  0  0  0
 19  1  1  0  0  0  0
 20 10  1  0  0  0  0
 20 11  1  1  0  0  0
 22 21  1  0  0  0  0
 23 28  1  0  0  0  0
 23 24  1  0  0  0  0
 24 22  1  0  0  0  0
 25 22  1  0  0  0  0
 26 23  1  0  0  0  0
 26 25  1  0  0  0  0
 27 23  1  0  0  0  0
M  END
>  <MODEL>
9

>  <REMARK>
 VINA RESULT:      -8.5      3.586      6.165
  Name = 
  2 active torsions:
  status: ('A' for Active; 'I' for Inactive)
    1  A    between atoms: C_1  and  C_2
    2  A    between atoms: C_2  and  N_3
                            x       y       z     vdW  Elec       q    Type
                         _______ _______ _______ _____ _____    ______ ____

>  <TORSDO>
F 2

$$$$
