=
 OpenBabel11052413533D

 27 31  0  0  1  0  0  0  0  0999 V2000
  187.2260  177.7270  142.4720 C   0  0  2  0  0  3  0  0  0  0  0  0
  187.2510  177.5030  143.8690 O   0  0  0  0  0  0  0  0  0  0  0  0
  189.4320  177.9330  143.1520 C   0  0  2  0  0  0  0  0  0  0  0  0
  190.3510  177.0830  140.6110 N   0  0  0  0  0  0  0  0  0  0  0  0
  190.5570  178.8900  143.4750 C   0  0  0  0  0  2  0  0  0  0  0  0
  190.7230  176.1970  139.5920 N   0  0  0  0  0  1  0  0  0  0  0  0
  188.5610  178.2590  141.9750 C   0  0  1  0  0  3  0  0  0  0  0  0
  188.5940  177.2970  144.2480 C   0  0  1  0  0  3  0  0  0  0  0  0
  191.3610  177.5820  141.5320 C   0  0  0  0  0  2  0  0  0  0  0  0
  188.1710  177.3010  139.8080 O   0  0  0  0  0  0  0  0  0  0  0  0
  188.9920  177.5130  140.7410 C   0  0  0  0  0  0  0  0  0  0  0  0
  190.8790  177.4780  142.9770 C   0  0  2  0  0  3  0  0  0  0  0  0
  187.7730  177.9990  147.8910 C   0  0  0  0  0  3  0  0  0  0  0  0
  189.1520  178.0210  148.4930 C   0  0  0  0  0  2  0  0  0  0  0  0
  189.9290  177.0530  146.3700 C   0  0  0  0  0  3  0  0  0  0  0  0
  188.8480  177.8510  145.6690 C   0  0  2  0  0  3  0  0  0  0  0  0
  190.0730  177.1340  147.7000 C   0  0  0  0  0  3  0  0  0  0  0  0
  187.6090  177.9210  146.5580 C   0  0  0  0  0  0  0  0  0  0  0  0
  185.1690  178.3620  146.7000 C   0  0  0  0  0  1  0  0  0  0  0  0
  186.3260  177.9270  145.9960 O   0  0  0  0  0  0  0  0  0  0  0  0
  186.0480  178.6170  142.0550 C   0  0  0  0  0  2  0  0  0  0  0  0
  181.8330  178.8660  142.0970 C   0  0  0  0  0  2  0  0  0  0  0  0
  184.6460  178.0360  142.2770 C   0  0  1  0  0  3  0  0  0  0  0  0
  183.9190  178.6910  143.4300 C   0  0  0  0  0  3  0  0  0  0  0  0
  182.6420  179.0880  143.3430 C   0  0  0  0  0  3  0  0  0  0  0  0
  182.7250  178.9230  140.8650 C   0  0  0  0  0  2  0  0  0  0  0  0
  183.8230  177.8690  140.9880 C   0  0  0  0  0  2  0  0  0  0  0  0
  1 21  1  1  0  0  0
  1  2  1  0  0  0  0
  3  5  1  1  0  0  0
  3  8  1  0  0  0  0
  4 11  1  0  0  0  0
  4  9  1  0  0  0  0
  6  4  1  0  0  0  0
  7 11  1  6  0  0  0
  7  1  1  0  0  0  0
  7  3  1  0  0  0  0
  8  2  1  6  0  0  0
  8 16  1  0  0  0  0
 10 11  2  0  0  0  0
 12  9  1  6  0  0  0
 12  3  1  0  0  0  0
 12  5  1  0  0  0  0
 13 14  1  0  0  0  0
 15 17  2  0  0  0  0
 16 15  1  1  0  0  0
 16 18  1  0  0  0  0
 17 14  1  0  0  0  0
 18 13  2  0  0  0  0
 20 18  1  0  0  0  0
 20 19  1  0  0  0  0
 22 25  1  0  0  0  0
 23 21  1  6  0  0  0
 23 24  1  0  0  0  0
 25 24  2  0  0  0  0
 26 27  1  0  0  0  0
 26 22  1  0  0  0  0
 27 23  1  0  0  0  0
M  END
>  <MODEL>
1

>  <REMARK>
 VINA RESULT:      -9.8      0.000      0.000
  Name = 
  4 active torsions:
  status: ('A' for Active; 'I' for Inactive)
    1  A    between atoms: C_1  and  C_15
    2  A    between atoms: C_9  and  C_15
    3  A    between atoms: C_14  and  C_19
    4  A    between atoms: C_17  and  O_21
                            x       y       z     vdW  Elec       q    Type
                         _______ _______ _______ _____ _____    ______ ____

>  <TORSDO>
F 4

$$$$
=
 OpenBabel11052413533D

 27 31  0  0  1  0  0  0  0  0999 V2000
  188.0280  177.5640  142.7120 C   0  0  2  0  0  3  0  0  0  0  0  0
  188.4700  177.0960  143.9720 O   0  0  0  0  0  0  0  0  0  0  0  0
  190.3450  177.5660  142.6590 C   0  0  2  0  0  0  0  0  0  0  0  0
  190.3340  177.1460  139.8580 N   0  0  0  0  0  0  0  0  0  0  0  0
  191.5970  178.4090  142.7420 C   0  0  0  0  0  2  0  0  0  0  0  0
  190.2840  176.4410  138.6480 N   0  0  0  0  0  1  0  0  0  0  0  0
  189.1820  178.1270  141.8960 C   0  0  1  0  0  3  0  0  0  0  0  0
  189.8400  176.7770  143.8550 C   0  0  1  0  0  3  0  0  0  0  0  0
  191.6250  177.4360  140.4650 C   0  0  0  0  0  2  0  0  0  0  0  0
  188.0430  177.5820  139.8540 O   0  0  0  0  0  0  0  0  0  0  0  0
  189.1320  177.5950  140.4890 C   0  0  0  0  0  0  0  0  0  0  0  0
  191.6150  177.0960  141.9530 C   0  0  2  0  0  3  0  0  0  0  0  0
  190.1950  177.0780  147.6270 C   0  0  0  0  0  3  0  0  0  0  0  0
  191.6550  176.7580  147.8000 C   0  0  0  0  0  2  0  0  0  0  0  0
  191.6070  175.9850  145.4660 C   0  0  0  0  0  3  0  0  0  0  0  0
  190.5780  177.0610  145.1840 C   0  0  2  0  0  3  0  0  0  0  0  0
  192.1150  175.8430  146.6980 C   0  0  0  0  0  3  0  0  0  0  0  0
  189.6680  177.2270  146.3980 C   0  0  0  0  0  0  0  0  0  0  0  0
  187.4100  177.6830  147.3260 C   0  0  0  0  0  1  0  0  0  0  0  0
  188.3140  177.5510  146.2370 O   0  0  0  0  0  0  0  0  0  0  0  0
  186.8660  178.5570  142.8450 C   0  0  0  0  0  2  0  0  0  0  0  0
  182.8150  178.8850  143.9930 C   0  0  0  0  0  2  0  0  0  0  0  0
  185.5350  177.9810  143.3460 C   0  0  1  0  0  3  0  0  0  0  0  0
  185.1560  178.4930  144.7170 C   0  0  0  0  0  3  0  0  0  0  0  0
  183.9210  178.9250  145.0080 C   0  0  0  0  0  3  0  0  0  0  0  0
  183.3720  179.0860  142.5900 C   0  0  0  0  0  2  0  0  0  0  0  0
  184.4070  178.0020  142.3000 C   0  0  0  0  0  2  0  0  0  0  0  0
  1 21  1  1  0  0  0
  1  2  1  0  0  0  0
  3  5  1  1  0  0  0
  3  8  1  0  0  0  0
  4  9  1  0  0  0  0
  4 11  1  0  0  0  0
  6  4  1  0  0  0  0
  7 11  1  6  0  0  0
  7  3  1  0  0  0  0
  7  1  1  0  0  0  0
  8  2  1  1  0  0  0
  8 16  1  0  0  0  0
 10 11  2  0  0  0  0
 12  9  1  6  0  0  0
 12  3  1  0  0  0  0
 12  5  1  0  0  0  0
 13 14  1  0  0  0  0
 15 17  2  0  0  0  0
 16 15  1  1  0  0  0
 16 18  1  0  0  0  0
 17 14  1  0  0  0  0
 18 13  2  0  0  0  0
 20 18  1  0  0  0  0
 20 19  1  0  0  0  0
 22 25  1  0  0  0  0
 23 21  1  6  0  0  0
 23 24  1  0  0  0  0
 24 25  2  0  0  0  0
 26 22  1  0  0  0  0
 27 26  1  0  0  0  0
 27 23  1  0  0  0  0
M  END
>  <MODEL>
2

>  <REMARK>
 VINA RESULT:      -9.2      1.232      1.711
  Name = 
  4 active torsions:
  status: ('A' for Active; 'I' for Inactive)
    1  A    between atoms: C_1  and  C_15
    2  A    between atoms: C_9  and  C_15
    3  A    between atoms: C_14  and  C_19
    4  A    between atoms: C_17  and  O_21
                            x       y       z     vdW  Elec       q    Type
                         _______ _______ _______ _____ _____    ______ ____

>  <TORSDO>
F 4

$$$$
=
 OpenBabel11052413533D

 27 31  0  0  1  0  0  0  0  0999 V2000
  188.2310  177.7790  144.1230 C   0  0  2  0  0  3  0  0  0  0  0  0
  188.6380  178.0340  142.7920 O   0  0  0  0  0  0  0  0  0  0  0  0
  190.2370  176.6630  143.8020 C   0  0  2  0  0  0  0  0  0  0  0  0
  190.8760  176.9100  146.5510 N   0  0  0  0  0  0  0  0  0  0  0  0
  190.8990  175.3280  143.5500 C   0  0  0  0  0  2  0  0  0  0  0  0
  191.3620  177.4970  147.7260 N   0  0  0  0  0  1  0  0  0  0  0  0
  189.0860  176.6960  144.7630 C   0  0  1  0  0  3  0  0  0  0  0  0
  189.9900  177.6520  142.6740 C   0  0  1  0  0  3  0  0  0  0  0  0
  191.7520  176.0640  145.7550 C   0  0  0  0  0  2  0  0  0  0  0  0
  188.6900  177.6270  146.9410 O   0  0  0  0  0  0  0  0  0  0  0  0
  189.5220  177.1220  146.1390 C   0  0  0  0  0  0  0  0  0  0  0  0
  191.6700  176.4340  144.2760 C   0  0  2  0  0  3  0  0  0  0  0  0
  189.7500  177.5610  138.8830 C   0  0  0  0  0  3  0  0  0  0  0  0
  191.0780  176.9500  138.5300 C   0  0  0  0  0  2  0  0  0  0  0  0
  191.7210  177.3670  140.8670 C   0  0  0  0  0  3  0  0  0  0  0  0
  190.2800  177.1090  141.2560 C   0  0  2  0  0  3  0  0  0  0  0  0
  192.0970  177.2920  139.5830 C   0  0  0  0  0  3  0  0  0  0  0  0
  189.3530  177.6430  140.1660 C   0  0  0  0  0  0  0  0  0  0  0  0
  187.0430  178.3200  139.5580 C   0  0  0  0  0  1  0  0  0  0  0  0
  188.1050  178.1880  140.4940 O   0  0  0  0  0  0  0  0  0  0  0  0
  186.7310  177.4730  144.2160 C   0  0  0  0  0  2  0  0  0  0  0  0
  182.8980  179.1940  143.7860 C   0  0  0  0  0  2  0  0  0  0  0  0
  185.7800  178.6220  143.8570 C   0  0  1  0  0  3  0  0  0  0  0  0
  184.9230  178.3150  142.6500 C   0  0  0  0  0  3  0  0  0  0  0  0
  183.6040  178.5560  142.6240 C   0  0  0  0  0  3  0  0  0  0  0  0
  183.5650  178.7970  145.0960 C   0  0  0  0  0  2  0  0  0  0  0  0
  185.0320  179.2190  145.0620 C   0  0  0  0  0  2  0  0  0  0  0  0
  1 21  1  6  0  0  0
  1  7  1  0  0  0  0
  2  1  1  0  0  0  0
  3  5  1  6  0  0  0
  3 12  1  0  0  0  0
  3  7  1  0  0  0  0
  4  6  1  0  0  0  0
  7 11  1  1  0  0  0
  8  2  1  6  0  0  0
  8  3  1  0  0  0  0
  9  4  1  0  0  0  0
 11  4  1  0  0  0  0
 11 10  2  0  0  0  0
 12  5  1  6  0  0  0
 12  9  1  0  0  0  0
 13 18  2  0  0  0  0
 14 13  1  0  0  0  0
 14 17  1  0  0  0  0
 16 15  1  6  0  0  0
 16  8  1  0  0  0  0
 17 15  2  0  0  0  0
 18 20  1  0  0  0  0
 18 16  1  0  0  0  0
 19 20  1  0  0  0  0
 22 26  1  0  0  0  0
 23 21  1  1  0  0  0
 23 27  1  0  0  0  0
 24 23  1  0  0  0  0
 25 24  2  0  0  0  0
 25 22  1  0  0  0  0
 27 26  1  0  0  0  0
M  END
>  <MODEL>
3

>  <REMARK>
 VINA RESULT:      -9.0      2.405      5.269
  Name = 
  4 active torsions:
  status: ('A' for Active; 'I' for Inactive)
    1  A    between atoms: C_1  and  C_15
    2  A    between atoms: C_9  and  C_15
    3  A    between atoms: C_14  and  C_19
    4  A    between atoms: C_17  and  O_21
                            x       y       z     vdW  Elec       q    Type
                         _______ _______ _______ _____ _____    ______ ____

>  <TORSDO>
F 4

$$$$
=
 OpenBabel11052413533D

 27 31  0  0  1  0  0  0  0  0999 V2000
  189.5300  177.0500  142.9760 C   0  0  2  0  0  3  0  0  0  0  0  0
  188.1380  177.2130  143.1700 O   0  0  0  0  0  0  0  0  0  0  0  0
  189.2100  177.5020  145.2260 C   0  0  2  0  0  0  0  0  0  0  0  0
  191.5290  176.0250  145.9070 N   0  0  0  0  0  0  0  0  0  0  0  0
  189.2950  178.5450  146.3160 C   0  0  0  0  0  2  0  0  0  0  0  0
  192.3160  174.9080  146.2190 N   0  0  0  0  0  1  0  0  0  0  0  0
  190.3130  177.4690  144.2100 C   0  0  1  0  0  3  0  0  0  0  0  0
  187.8890  177.1600  144.5580 C   0  0  1  0  0  3  0  0  0  0  0  0
  190.9070  176.7860  146.9800 C   0  0  0  0  0  2  0  0  0  0  0  0
  192.0820  175.9490  143.6420 O   0  0  0  0  0  0  0  0  0  0  0  0
  191.3490  176.4310  144.5470 C   0  0  0  0  0  0  0  0  0  0  0  0
  189.4380  177.0620  146.6700 C   0  0  2  0  0  3  0  0  0  0  0  0
  184.4160  178.6610  144.2080 C   0  0  0  0  0  3  0  0  0  0  0  0
  184.1110  179.0070  145.6400 C   0  0  0  0  0  2  0  0  0  0  0  0
  186.0640  177.6330  146.2290 C   0  0  0  0  0  3  0  0  0  0  0  0
  186.7080  178.0850  144.9340 C   0  0  2  0  0  3  0  0  0  0  0  0
  184.8410  178.0680  146.5620 C   0  0  0  0  0  3  0  0  0  0  0  0
  185.6390  178.2260  143.8540 C   0  0  0  0  0  0  0  0  0  0  0  0
  185.5780  178.7820  141.4340 C   0  0  0  0  0  1  0  0  0  0  0  0
  185.9300  177.9290  142.5160 O   0  0  0  0  0  0  0  0  0  0  0  0
  190.0170  177.7570  141.7040 C   0  0  0  0  0  2  0  0  0  0  0  0
  189.7930  177.6320  137.4890 C   0  0  0  0  0  2  0  0  0  0  0  0
  189.4240  177.2580  140.3800 C   0  0  1  0  0  3  0  0  0  0  0  0
  188.7200  178.3510  139.6080 C   0  0  0  0  0  3  0  0  0  0  0  0
  188.9020  178.5360  138.2930 C   0  0  0  0  0  3  0  0  0  0  0  0
  190.9430  177.1180  138.3440 C   0  0  0  0  0  2  0  0  0  0  0  0
  190.3790  176.3780  139.5550 C   0  0  0  0  0  2  0  0  0  0  0  0
  1 21  1  6  0  0  0
  1  2  1  0  0  0  0
  1  7  1  0  0  0  0
  3  5  1  1  0  0  0
  3 12  1  0  0  0  0
  4  6  1  0  0  0  0
  4  9  1  0  0  0  0
  7 11  1  1  0  0  0
  7  3  1  0  0  0  0
  8  2  1  6  0  0  0
  8 16  1  0  0  0  0
  8  3  1  0  0  0  0
 10 11  2  0  0  0  0
 11  4  1  0  0  0  0
 12  5  1  1  0  0  0
 12  9  1  0  0  0  0
 13 14  1  0  0  0  0
 14 17  1  0  0  0  0
 15 17  2  0  0  0  0
 16 15  1  1  0  0  0
 18 13  2  0  0  0  0
 18 16  1  0  0  0  0
 19 20  1  0  0  0  0
 20 18  1  0  0  0  0
 22 25  1  0  0  0  0
 22 26  1  0  0  0  0
 23 21  1  1  0  0  0
 24 23  1  0  0  0  0
 25 24  2  0  0  0  0
 26 27  1  0  0  0  0
 27 23  1  0  0  0  0
M  END
>  <MODEL>
4

>  <REMARK>
 VINA RESULT:      -8.8      2.445      5.191
  Name = 
  4 active torsions:
  status: ('A' for Active; 'I' for Inactive)
    1  A    between atoms: C_1  and  C_15
    2  A    between atoms: C_9  and  C_15
    3  A    between atoms: C_14  and  C_19
    4  A    between atoms: C_17  and  O_21
                            x       y       z     vdW  Elec       q    Type
                         _______ _______ _______ _____ _____    ______ ____

>  <TORSDO>
F 4

$$$$
=
 OpenBabel11052413533D

 27 31  0  0  1  0  0  0  0  0999 V2000
  185.2790  178.7690  142.1640 C   0  0  2  0  0  3  0  0  0  0  0  0
  186.4060  178.7600  141.3080 O   0  0  0  0  0  0  0  0  0  0  0  0
  186.9900  177.7050  143.3100 C   0  0  2  0  0  0  0  0  0  0  0  0
  185.9220  178.5490  145.7940 N   0  0  0  0  0  0  0  0  0  0  0  0
  187.5550  176.3780  143.7620 C   0  0  0  0  0  2  0  0  0  0  0  0
  185.6800  179.3900  146.8880 N   0  0  0  0  0  1  0  0  0  0  0  0
  185.5020  177.8840  143.3800 C   0  0  1  0  0  3  0  0  0  0  0  0
  187.5340  178.4230  142.0860 C   0  0  1  0  0  3  0  0  0  0  0  0
  187.0210  177.5960  145.8500 C   0  0  0  0  0  2  0  0  0  0  0  0
  183.9930  179.2300  144.6740 O   0  0  0  0  0  0  0  0  0  0  0  0
  185.0880  178.6070  144.6330 C   0  0  0  0  0  0  0  0  0  0  0  0
  187.8500  177.6460  144.5690 C   0  0  2  0  0  3  0  0  0  0  0  0
  189.6750  177.6330  139.0480 C   0  0  0  0  0  3  0  0  0  0  0  0
  190.8230  176.9040  139.6920 C   0  0  0  0  0  2  0  0  0  0  0  0
  189.9410  177.7230  141.8370 C   0  0  0  0  0  3  0  0  0  0  0  0
  188.5480  177.6100  141.2490 C   0  0  2  0  0  3  0  0  0  0  0  0
  191.0120  177.3900  141.1040 C   0  0  0  0  0  3  0  0  0  0  0  0
  188.5900  177.9730  139.7670 C   0  0  0  0  0  0  0  0  0  0  0  0
  186.9810  178.2530  137.8960 C   0  0  0  0  0  1  0  0  0  0  0  0
  187.5090  178.6280  139.1610 O   0  0  0  0  0  0  0  0  0  0  0  0
  183.9870  178.4200  141.4140 C   0  0  0  0  0  2  0  0  0  0  0  0
  182.2970  178.5830  137.5470 C   0  0  0  0  0  2  0  0  0  0  0  0
  184.0730  178.4100  139.8820 C   0  0  1  0  0  3  0  0  0  0  0  0
  183.4200  177.1920  139.2690 C   0  0  0  0  0  3  0  0  0  0  0  0
  182.5930  177.2710  138.2170 C   0  0  0  0  0  3  0  0  0  0  0  0
  182.3390  179.7190  138.5590 C   0  0  0  0  0  2  0  0  0  0  0  0
  183.7130  179.7530  139.2230 C   0  0  0  0  0  2  0  0  0  0  0  0
  1 21  1  6  0  0  0
  1  7  1  0  0  0  0
  2  1  1  0  0  0  0
  3  7  1  0  0  0  0
  3  5  1  6  0  0  0
  3 12  1  0  0  0  0
  4  9  1  0  0  0  0
  4  6  1  0  0  0  0
  7 11  1  1  0  0  0
  8  2  1  6  0  0  0
  8  3  1  0  0  0  0
 11 10  2  0  0  0  0
 11  4  1  0  0  0  0
 12  5  1  6  0  0  0
 12  9  1  0  0  0  0
 13 14  1  0  0  0  0
 13 18  2  0  0  0  0
 14 17  1  0  0  0  0
 16 15  1  1  0  0  0
 16  8  1  0  0  0  0
 17 15  2  0  0  0  0
 18 16  1  0  0  0  0
 19 20  1  0  0  0  0
 20 18  1  0  0  0  0
 22 25  1  0  0  0  0
 22 26  1  0  0  0  0
 23 21  1  1  0  0  0
 24 23  1  0  0  0  0
 25 24  2  0  0  0  0
 26 27  1  0  0  0  0
 27 23  1  0  0  0  0
M  END
>  <MODEL>
5

>  <REMARK>
 VINA RESULT:      -8.6      2.798      5.565
  Name = 
  4 active torsions:
  status: ('A' for Active; 'I' for Inactive)
    1  A    between atoms: C_1  and  C_15
    2  A    between atoms: C_9  and  C_15
    3  A    between atoms: C_14  and  C_19
    4  A    between atoms: C_17  and  O_21
                            x       y       z     vdW  Elec       q    Type
                         _______ _______ _______ _____ _____    ______ ____

>  <TORSDO>
F 4

$$$$
=
 OpenBabel11052413533D

 27 31  0  0  1  0  0  0  0  0999 V2000
  187.5810  178.4040  142.1860 C   0  0  2  0  0  3  0  0  0  0  0  0
  187.3440  178.6490  140.8130 O   0  0  0  0  0  0  0  0  0  0  0  0
  189.4020  177.5630  141.0240 C   0  0  2  0  0  0  0  0  0  0  0  0
  191.1000  178.0280  143.2430 N   0  0  0  0  0  0  0  0  0  0  0  0
  190.0820  176.3220  140.4930 C   0  0  0  0  0  2  0  0  0  0  0  0
  191.9470  178.7320  144.1090 N   0  0  0  0  0  1  0  0  0  0  0  0
  188.7750  177.4820  142.3840 C   0  0  1  0  0  3  0  0  0  0  0  0
  188.5600  178.4530  140.1240 C   0  0  1  0  0  3  0  0  0  0  0  0
  191.6710  177.2740  142.1370 C   0  0  0  0  0  2  0  0  0  0  0  0
  189.2060  178.4520  144.5370 O   0  0  0  0  0  0  0  0  0  0  0  0
  189.6840  178.0290  143.4500 C   0  0  0  0  0  0  0  0  0  0  0  0
  190.9170  177.5580  140.8390 C   0  0  2  0  0  3  0  0  0  0  0  0
  186.7400  178.1320  136.8040 C   0  0  0  0  0  3  0  0  0  0  0  0
  187.8690  177.7120  135.9020 C   0  0  0  0  0  2  0  0  0  0  0  0
  189.3730  178.3410  137.7430 C   0  0  0  0  0  3  0  0  0  0  0  0
  188.2970  177.8880  138.7090 C   0  0  2  0  0  3  0  0  0  0  0  0
  189.1720  178.2570  136.4210 C   0  0  0  0  0  3  0  0  0  0  0  0
  186.9220  178.2190  138.1340 C   0  0  0  0  0  0  0  0  0  0  0  0
  184.5000  178.3290  138.6700 C   0  0  0  0  0  1  0  0  0  0  0  0
  185.8650  178.5850  138.9770 O   0  0  0  0  0  0  0  0  0  0  0  0
  186.3240  177.8970  142.9030 C   0  0  0  0  0  2  0  0  0  0  0  0
  182.5120  179.0790  144.2870 C   0  0  0  0  0  2  0  0  0  0  0  0
  185.2030  178.9240  143.1160 C   0  0  1  0  0  3  0  0  0  0  0  0
  183.9560  178.5990  142.3260 C   0  0  0  0  0  3  0  0  0  0  0  0
  182.7300  178.6490  142.8640 C   0  0  0  0  0  3  0  0  0  0  0  0
  183.6980  178.6750  145.1520 C   0  0  0  0  0  2  0  0  0  0  0  0
  184.9700  179.3040  144.5890 C   0  0  0  0  0  2  0  0  0  0  0  0
  1  7  1  0  0  0  0
  1 21  1  6  0  0  0
  2  1  1  0  0  0  0
  3  5  1  6  0  0  0
  3  7  1  0  0  0  0
  4 11  1  0  0  0  0
  4  6  1  0  0  0  0
  7 11  1  1  0  0  0
  8  2  1  1  0  0  0
  8  3  1  0  0  0  0
  9  4  1  0  0  0  0
 11 10  2  0  0  0  0
 12  5  1  6  0  0  0
 12  3  1  0  0  0  0
 12  9  1  0  0  0  0
 13 18  2  0  0  0  0
 14 17  1  0  0  0  0
 14 13  1  0  0  0  0
 16 15  1  6  0  0  0
 16  8  1  0  0  0  0
 17 15  2  0  0  0  0
 18 16  1  0  0  0  0
 18 20  1  0  0  0  0
 19 20  1  0  0  0  0
 22 26  1  0  0  0  0
 23 21  1  1  0  0  0
 23 27  1  0  0  0  0
 24 25  2  0  0  0  0
 24 23  1  0  0  0  0
 25 22  1  0  0  0  0
 27 26  1  0  0  0  0
M  END
>  <MODEL>
6

>  <REMARK>
 VINA RESULT:      -8.3      2.445      5.762
  Name = 
  4 active torsions:
  status: ('A' for Active; 'I' for Inactive)
    1  A    between atoms: C_1  and  C_15
    2  A    between atoms: C_9  and  C_15
    3  A    between atoms: C_14  and  C_19
    4  A    between atoms: C_17  and  O_21
                            x       y       z     vdW  Elec       q    Type
                         _______ _______ _______ _____ _____    ______ ____

>  <TORSDO>
F 4

$$$$
=
 OpenBabel11052413533D

 27 31  0  0  1  0  0  0  0  0999 V2000
  187.8180  178.2280  142.4000 C   0  0  2  0  0  3  0  0  0  0  0  0
  188.9470  178.0560  143.2360 O   0  0  0  0  0  0  0  0  0  0  0  0
  187.0220  177.7900  144.5320 C   0  0  2  0  0  0  0  0  0  0  0  0
  184.6730  179.2900  144.0210 N   0  0  0  0  0  0  0  0  0  0  0  0
  186.4160  176.7560  145.4530 C   0  0  0  0  0  2  0  0  0  0  0  0
  183.8450  180.4140  143.9160 N   0  0  0  0  0  1  0  0  0  0  0  0
  186.5370  177.8230  143.1130 C   0  0  1  0  0  3  0  0  0  0  0  0
  188.5050  178.1170  144.5740 C   0  0  1  0  0  3  0  0  0  0  0  0
  184.7020  178.5320  145.2630 C   0  0  0  0  0  2  0  0  0  0  0  0
  185.2680  179.3530  141.7660 O   0  0  0  0  0  0  0  0  0  0  0  0
  185.4760  178.8720  142.9120 C   0  0  0  0  0  0  0  0  0  0  0  0
  186.1380  178.2430  145.6920 C   0  0  2  0  0  3  0  0  0  0  0  0
  191.6960  176.4780  145.8250 C   0  0  0  0  0  3  0  0  0  0  0  0
  191.3450  176.2370  147.2680 C   0  0  0  0  0  2  0  0  0  0  0  0
  189.4180  177.7180  146.8870 C   0  0  0  0  0  3  0  0  0  0  0  0
  189.3540  177.1860  145.4700 C   0  0  2  0  0  3  0  0  0  0  0  0
  190.3550  177.2700  147.7340 C   0  0  0  0  0  3  0  0  0  0  0  0
  190.7690  176.9240  144.9590 C   0  0  0  0  0  0  0  0  0  0  0  0
  192.0250  178.0970  143.1670 C   0  0  0  0  0  1  0  0  0  0  0  0
  191.0890  177.1230  143.6100 O   0  0  0  0  0  0  0  0  0  0  0  0
  187.9880  177.5150  141.0520 C   0  0  0  0  0  2  0  0  0  0  0  0
  190.6030  177.0870  137.7640 C   0  0  0  0  0  2  0  0  0  0  0  0
  189.2500  177.8660  140.2530 C   0  0  1  0  0  3  0  0  0  0  0  0
  190.2380  176.7230  140.1920 C   0  0  0  0  0  3  0  0  0  0  0  0
  190.8410  176.3530  139.0530 C   0  0  0  0  0  3  0  0  0  0  0  0
  189.1860  177.6410  137.7200 C   0  0  0  0  0  2  0  0  0  0  0  0
  188.9710  178.5690  138.9140 C   0  0  0  0  0  2  0  0  0  0  0  0
  1 21  1  6  0  0  0
  1  7  1  0  0  0  0
  1  2  1  0  0  0  0
  3  8  1  0  0  0  0
  3  5  1  1  0  0  0
  3 12  1  0  0  0  0
  4  9  1  0  0  0  0
  5 12  1  0  0  0  0
  6  4  1  0  0  0  0
  7 11  1  1  0  0  0
  7  3  1  0  0  0  0
  8  2  1  6  0  0  0
  8 16  1  0  0  0  0
 10 11  2  0  0  0  0
 11  4  1  0  0  0  0
 12  9  1  6  0  0  0
 13 14  1  0  0  0  0
 14 17  1  0  0  0  0
 15 17  2  0  0  0  0
 16 15  1  1  0  0  0
 18 16  1  0  0  0  0
 18 13  2  0  0  0  0
 19 20  1  0  0  0  0
 20 18  1  0  0  0  0
 22 25  1  0  0  0  0
 23 21  1  6  0  0  0
 24 23  1  0  0  0  0
 25 24  2  0  0  0  0
 26 22  1  0  0  0  0
 26 27  1  0  0  0  0
 27 23  1  0  0  0  0
M  END
>  <MODEL>
7

>  <REMARK>
 VINA RESULT:      -8.1      2.849      5.440
  Name = 
  4 active torsions:
  status: ('A' for Active; 'I' for Inactive)
    1  A    between atoms: C_1  and  C_15
    2  A    between atoms: C_9  and  C_15
    3  A    between atoms: C_14  and  C_19
    4  A    between atoms: C_17  and  O_21
                            x       y       z     vdW  Elec       q    Type
                         _______ _______ _______ _____ _____    ______ ____

>  <TORSDO>
F 4

$$$$
=
 OpenBabel11052413533D

 27 31  0  0  1  0  0  0  0  0999 V2000
  187.4950  177.4440  142.7180 C   0  0  2  0  0  3  0  0  0  0  0  0
  187.2620  176.8880  143.9970 O   0  0  0  0  0  0  0  0  0  0  0  0
  189.4310  177.7550  143.9530 C   0  0  2  0  0  0  0  0  0  0  0  0
  191.0070  177.6800  141.6000 N   0  0  0  0  0  0  0  0  0  0  0  0
  190.2690  178.7370  144.7380 C   0  0  0  0  0  2  0  0  0  0  0  0
  191.7420  177.1270  140.5430 N   0  0  0  0  0  1  0  0  0  0  0  0
  188.7860  178.2470  142.6910 C   0  0  1  0  0  3  0  0  0  0  0  0
  188.5080  176.7670  144.6470 C   0  0  1  0  0  3  0  0  0  0  0  0
  191.6910  178.0600  142.8270 C   0  0  0  0  0  2  0  0  0  0  0  0
  189.0460  177.8110  140.3450 O   0  0  0  0  0  0  0  0  0  0  0  0
  189.5970  177.8890  141.4750 C   0  0  0  0  0  0  0  0  0  0  0  0
  190.9400  177.5440  144.0520 C   0  0  2  0  0  3  0  0  0  0  0  0
  189.6870  177.5050  148.1830 C   0  0  0  0  0  3  0  0  0  0  0  0
  188.4560  178.1440  148.7650 C   0  0  0  0  0  2  0  0  0  0  0  0
  187.6190  178.2780  146.4560 C   0  0  0  0  0  3  0  0  0  0  0  0
  188.3500  176.9810  146.1700 C   0  0  2  0  0  3  0  0  0  0  0  0
  187.6680  178.8250  147.6780 C   0  0  0  0  0  3  0  0  0  0  0  0
  189.6570  176.9470  146.9590 C   0  0  0  0  0  0  0  0  0  0  0  0
  191.9340  175.9890  147.2100 C   0  0  0  0  0  1  0  0  0  0  0  0
  190.7960  176.3290  146.4280 O   0  0  0  0  0  0  0  0  0  0  0  0
  186.2910  178.2530  142.2170 C   0  0  0  0  0  2  0  0  0  0  0  0
  182.3030  179.1000  143.3190 C   0  0  0  0  0  2  0  0  0  0  0  0
  184.9270  177.8780  142.8090 C   0  0  1  0  0  3  0  0  0  0  0  0
  184.6170  178.6290  144.0840 C   0  0  0  0  0  3  0  0  0  0  0  0
  183.4280  179.2050  144.3090 C   0  0  0  0  0  3  0  0  0  0  0  0
  182.8490  179.0300  141.8990 C   0  0  0  0  0  2  0  0  0  0  0  0
  183.7860  177.8300  141.7780 C   0  0  0  0  0  2  0  0  0  0  0  0
  1 21  1  1  0  0  0
  1  2  1  0  0  0  0
  3 12  1  0  0  0  0
  3  8  1  0  0  0  0
  3  5  1  1  0  0  0
  4  9  1  0  0  0  0
  6  4  1  0  0  0  0
  7 11  1  6  0  0  0
  7  1  1  0  0  0  0
  7  3  1  0  0  0  0
  8  2  1  6  0  0  0
  8 16  1  0  0  0  0
 10 11  2  0  0  0  0
 11  4  1  0  0  0  0
 12  9  1  6  0  0  0
 12  5  1  0  0  0  0
 13 14  1  0  0  0  0
 15 17  2  0  0  0  0
 16 15  1  6  0  0  0
 16 18  1  0  0  0  0
 17 14  1  0  0  0  0
 18 13  2  0  0  0  0
 20 18  1  0  0  0  0
 20 19  1  0  0  0  0
 22 25  1  0  0  0  0
 23 21  1  6  0  0  0
 23 24  1  0  0  0  0
 24 25  2  0  0  0  0
 26 22  1  0  0  0  0
 27 26  1  0  0  0  0
 27 23  1  0  0  0  0
M  END
>  <MODEL>
8

>  <REMARK>
 VINA RESULT:      -8.0      1.306      2.123
  Name = 
  4 active torsions:
  status: ('A' for Active; 'I' for Inactive)
    1  A    between atoms: C_1  and  C_15
    2  A    between atoms: C_9  and  C_15
    3  A    between atoms: C_14  and  C_19
    4  A    between atoms: C_17  and  O_21
                            x       y       z     vdW  Elec       q    Type
                         _______ _______ _______ _____ _____    ______ ____

>  <TORSDO>
F 4

$$$$
=
 OpenBabel11052413533D

 27 31  0  0  1  0  0  0  0  0999 V2000
  190.7880  177.5030  139.9630 C   0  0  2  0  0  3  0  0  0  0  0  0
  189.5040  177.9510  139.5740 O   0  0  0  0  0  0  0  0  0  0  0  0
  190.3080  176.4960  137.9310 C   0  0  2  0  0  0  0  0  0  0  0  0
  193.0620  176.3780  137.2780 N   0  0  0  0  0  0  0  0  0  0  0  0
  189.8700  175.2270  137.2370 C   0  0  0  0  0  2  0  0  0  0  0  0
  194.3050  176.8090  136.7970 N   0  0  0  0  0  1  0  0  0  0  0  0
  191.2690  176.3650  139.0750 C   0  0  1  0  0  3  0  0  0  0  0  0
  189.3290  177.6240  138.2130 C   0  0  1  0  0  3  0  0  0  0  0  0
  192.1530  175.6730  136.3860 C   0  0  0  0  0  2  0  0  0  0  0  0
  193.5560  176.9750  139.4780 O   0  0  0  0  0  0  0  0  0  0  0  0
  192.6890  176.6080  138.6400 C   0  0  0  0  0  0  0  0  0  0  0  0
  190.7400  176.2420  136.4890 C   0  0  2  0  0  3  0  0  0  0  0  0
  185.5680  178.1450  138.3510 C   0  0  0  0  0  3  0  0  0  0  0  0
  185.1450  177.5040  137.0570 C   0  0  0  0  0  2  0  0  0  0  0  0
  187.5300  177.5030  136.4540 C   0  0  0  0  0  3  0  0  0  0  0  0
  187.8480  177.2910  137.9200 C   0  0  2  0  0  3  0  0  0  0  0  0
  186.2570  177.6030  136.0480 C   0  0  0  0  0  3  0  0  0  0  0  0
  186.8400  178.0530  138.7770 C   0  0  0  0  0  0  0  0  0  0  0  0
  186.3040  179.0030  141.0080 C   0  0  0  0  0  1  0  0  0  0  0  0
  187.2280  178.6280  139.9950 O   0  0  0  0  0  0  0  0  0  0  0  0
  190.8440  177.1470  141.4540 C   0  0  0  0  0  2  0  0  0  0  0  0
  188.7430  177.6020  145.0890 C   0  0  0  0  0  2  0  0  0  0  0  0
  189.7860  177.8040  142.3490 C   0  0  1  0  0  3  0  0  0  0  0  0
  188.6670  176.8580  142.7220 C   0  0  0  0  0  3  0  0  0  0  0  0
  188.2040  176.7500  143.9750 C   0  0  0  0  0  3  0  0  0  0  0  0
  190.2140  177.9180  144.8540 C   0  0  0  0  0  2  0  0  0  0  0  0
  190.3680  178.6270  143.5110 C   0  0  0  0  0  2  0  0  0  0  0  0
  1 21  1  1  0  0  0
  2  1  1  0  0  0  0
  3  5  1  1  0  0  0
  3  8  1  0  0  0  0
  3  7  1  0  0  0  0
  4 11  1  0  0  0  0
  6  4  1  0  0  0  0
  7 11  1  6  0  0  0
  7  1  1  0  0  0  0
  8  2  1  1  0  0  0
  9  4  1  0  0  0  0
 11 10  2  0  0  0  0
 12  9  1  1  0  0  0
 12  5  1  0  0  0  0
 12  3  1  0  0  0  0
 13 18  2  0  0  0  0
 14 13  1  0  0  0  0
 16 15  1  6  0  0  0
 16  8  1  0  0  0  0
 16 18  1  0  0  0  0
 17 15  2  0  0  0  0
 17 14  1  0  0  0  0
 18 20  1  0  0  0  0
 20 19  1  0  0  0  0
 23 21  1  1  0  0  0
 23 24  1  0  0  0  0
 23 27  1  0  0  0  0
 24 25  2  0  0  0  0
 25 22  1  0  0  0  0
 26 22  1  0  0  0  0
 27 26  1  0  0  0  0
M  END
>  <MODEL>
9

>  <REMARK>
 VINA RESULT:      -8.0      3.220      7.025
  Name = 
  4 active torsions:
  status: ('A' for Active; 'I' for Inactive)
    1  A    between atoms: C_1  and  C_15
    2  A    between atoms: C_9  and  C_15
    3  A    between atoms: C_14  and  C_19
    4  A    between atoms: C_17  and  O_21
                            x       y       z     vdW  Elec       q    Type
                         _______ _______ _______ _____ _____    ______ ____

>  <TORSDO>
F 4

$$$$
