=
 OpenBabel11052414183D

 34 39  0  0  1  0  0  0  0  0999 V2000
  188.7190  178.6730  138.7120 C   0  0  2  0  0  3  0  0  0  0  0  0
  187.0320  176.9640  137.8850 C   0  0  0  0  0  0  0  0  0  0  0  0
  186.4760  178.4960  139.7740 N   0  0  0  0  0  0  0  0  0  0  0  0
  184.2700  178.5400  140.9390 C   0  0  0  0  0  0  0  0  0  0  0  0
  189.3370  176.8560  137.1120 C   0  0  0  0  0  2  0  0  0  0  0  0
  187.9640  176.3930  137.1920 N   0  0  0  0  0  0  0  0  0  0  0  0
  184.4760  179.2610  138.6300 C   0  0  0  0  0  3  0  0  0  0  0  0
  187.2380  178.3340  138.5220 C   0  0  1  0  0  3  0  0  0  0  0  0
  183.0310  179.5390  138.6020 C   0  0  0  0  0  3  0  0  0  0  0  0
  182.7700  178.6330  140.9060 C   0  0  0  0  0  3  0  0  0  0  0  0
  189.4730  178.3440  137.4310 C   0  0  0  0  0  2  0  0  0  0  0  0
  187.0890  178.2530  141.0650 C   0  0  0  0  0  0  0  0  0  0  0  0
  189.2890  177.8930  139.8930 C   0  0  0  0  0  2  0  0  0  0  0  0
  185.6710  176.3530  137.8510 C   0  0  0  0  0  1  0  0  0  0  0  0
  184.8700  178.2070  142.0390 N   0  0  0  0  0  0  0  0  0  0  0  0
  186.3030  178.1100  142.1660 C   0  0  0  0  0  0  0  0  0  0  0  0
  182.2330  179.2710  139.6480 C   0  0  0  0  0  0  0  0  0  0  0  0
  185.0670  178.7830  139.7280 C   0  0  1  0  0  3  0  0  0  0  0  0
  188.5910  178.2960  141.1790 C   0  0  0  0  0  2  0  0  0  0  0  0
  186.5890  178.1230  145.9370 C   0  0  0  0  0  0  0  0  0  0  0  0
  187.8260  177.5060  146.1380 C   0  0  0  0  0  3  0  0  0  0  0  0
  186.8350  177.8570  143.5300 C   0  0  0  0  0  0  0  0  0  0  0  0
  188.5760  177.0740  145.0410 C   0  0  0  0  0  3  0  0  0  0  0  0
  186.1000  178.3030  144.6390 C   0  0  0  0  0  3  0  0  0  0  0  0
  188.0850  177.2540  143.7460 C   0  0  0  0  0  3  0  0  0  0  0  0
  185.7950  178.5920  147.1010 C   0  0  0  0  0  1  0  0  0  0  0  0
  180.8640  179.5540  139.5990 O   0  0  0  0  0  0  0  0  0  0  0  0
  179.8650  178.6390  140.0320 C   0  0  0  0  0  2  0  0  0  0  0  0
  178.9310  181.5090  141.3260 O   0  0  0  0  0  1  0  0  0  0  0  0
  179.8020  180.4830  141.6930 C   0  0  2  0  0  3  0  0  0  0  0  0
  179.6220  179.1820  143.6390 C   0  0  0  0  0  2  0  0  0  0  0  0
  179.5310  178.2440  142.4590 C   0  0  0  0  0  2  0  0  0  0  0  0
  179.2110  179.1480  141.3030 C   0  0  2  0  0  3  0  0  0  0  0  0
  179.9990  180.5000  143.1390 N   0  0  0  0  0  2  0  0  0  0  0  0
  1 11  1  6  0  0  0
  1 13  1  0  0  0  0
  3 12  1  0  0  0  0
  4 15  2  0  0  0  0
  5  6  1  0  0  0  0
  5 11  1  0  0  0  0
  6  2  2  0  0  0  0
  8  2  1  1  0  0  0
  8  1  1  0  0  0  0
  8  3  1  0  0  0  0
  9  7  2  0  0  0  0
  9 17  1  0  0  0  0
 10  4  1  0  0  0  0
 12 19  1  0  0  0  0
 12 16  2  0  0  0  0
 13 19  1  0  0  0  0
 14  2  1  0  0  0  0
 15 16  1  0  0  0  0
 16 22  1  0  0  0  0
 17 10  2  0  0  0  0
 18  7  1  1  0  0  0
 18  3  1  0  0  0  0
 18  4  1  0  0  0  0
 20 21  1  0  0  0  0
 20 26  1  0  0  0  0
 22 25  2  0  0  0  0
 22 24  1  0  0  0  0
 23 21  2  0  0  0  0
 24 20  2  0  0  0  0
 25 23  1  0  0  0  0
 27 17  1  0  0  0  0
 27 28  1  0  0  0  0
 30 29  1  1  0  0  0
 30 34  1  0  0  0  0
 32 31  1  0  0  0  0
 33 28  1  6  0  0  0
 33 30  1  0  0  0  0
 33 32  1  0  0  0  0
 34 31  1  0  0  0  0
M  END
>  <MODEL>
1

>  <REMARK>
 VINA RESULT:      -8.7      0.000      0.000
  Name = 
  4 active torsions:
  status: ('A' for Active; 'I' for Inactive)
    1  A    between atoms: O_3  and  C_13
    2  A    between atoms: O_3  and  C_29
    3  A    between atoms: C_12  and  C_28
    4  A    between atoms: C_13  and  C_33
                            x       y       z     vdW  Elec       q    Type
                         _______ _______ _______ _____ _____    ______ ____

>  <TORSDO>
F 4

$$$$
=
 OpenBabel11052414183D

 34 39  0  0  1  0  0  0  0  0999 V2000
  188.6940  178.6220  138.6250 C   0  0  2  0  0  3  0  0  0  0  0  0
  186.9580  176.9620  137.8010 C   0  0  0  0  0  0  0  0  0  0  0  0
  186.4510  178.5040  139.6950 N   0  0  0  0  0  0  0  0  0  0  0  0
  184.2520  178.6050  140.8680 C   0  0  0  0  0  0  0  0  0  0  0  0
  189.2560  176.7930  137.0180 C   0  0  0  0  0  2  0  0  0  0  0  0
  187.8710  176.3680  137.1030 N   0  0  0  0  0  0  0  0  0  0  0  0
  184.4690  179.3270  138.5600 C   0  0  0  0  0  3  0  0  0  0  0  0
  187.2040  178.3240  138.4400 C   0  0  1  0  0  3  0  0  0  0  0  0
  183.0320  179.6450  138.5390 C   0  0  0  0  0  3  0  0  0  0  0  0
  182.7550  178.7400  140.8420 C   0  0  0  0  0  3  0  0  0  0  0  0
  189.4340  178.2760  137.3400 C   0  0  0  0  0  2  0  0  0  0  0  0
  187.0630  178.2410  140.9830 C   0  0  0  0  0  0  0  0  0  0  0  0
  189.2470  177.8250  139.8020 C   0  0  0  0  0  2  0  0  0  0  0  0
  185.5800  176.3890  137.7700 C   0  0  0  0  0  1  0  0  0  0  0  0
  184.8470  178.2530  141.9660 N   0  0  0  0  0  0  0  0  0  0  0  0
  186.2770  178.1170  142.0870 C   0  0  0  0  0  0  0  0  0  0  0  0
  182.2310  179.3960  139.5880 C   0  0  0  0  0  0  0  0  0  0  0  0
  185.0500  178.8300  139.6560 C   0  0  1  0  0  3  0  0  0  0  0  0
  188.5660  178.2430  141.0920 C   0  0  0  0  0  2  0  0  0  0  0  0
  186.5610  178.0860  145.8580 C   0  0  0  0  0  0  0  0  0  0  0  0
  187.7950  177.4610  146.0530 C   0  0  0  0  0  3  0  0  0  0  0  0
  186.8070  177.8470  143.4480 C   0  0  0  0  0  0  0  0  0  0  0  0
  188.5430  177.0380  144.9520 C   0  0  0  0  0  3  0  0  0  0  0  0
  186.0740  178.2830  144.5620 C   0  0  0  0  0  3  0  0  0  0  0  0
  188.0540  177.2350  143.6580 C   0  0  0  0  0  3  0  0  0  0  0  0
  185.7680  178.5450  147.0270 C   0  0  0  0  0  1  0  0  0  0  0  0
  180.8690  179.7170  139.5450 O   0  0  0  0  0  0  0  0  0  0  0  0
  180.0970  179.9830  140.7090 C   0  0  0  0  0  2  0  0  0  0  0  0
  178.9510  178.3010  143.2870 O   0  0  0  0  0  1  0  0  0  0  0  0
  179.6600  177.9910  142.1260 C   0  0  2  0  0  3  0  0  0  0  0  0
  178.9310  176.5290  140.4410 C   0  0  0  0  0  2  0  0  0  0  0  0
  179.1230  177.8860  139.8080 C   0  0  0  0  0  2  0  0  0  0  0  0
  179.1490  178.8290  140.9770 C   0  0  2  0  0  3  0  0  0  0  0  0
  179.4700  176.5820  141.7960 N   0  0  0  0  0  2  0  0  0  0  0  0
  1 11  1  6  0  0  0
  1 13  1  0  0  0  0
  3 12  1  0  0  0  0
  4 15  2  0  0  0  0
  5  6  1  0  0  0  0
  5 11  1  0  0  0  0
  6  2  2  0  0  0  0
  8  2  1  1  0  0  0
  8  1  1  0  0  0  0
  8  3  1  0  0  0  0
  9  7  2  0  0  0  0
  9 17  1  0  0  0  0
 10  4  1  0  0  0  0
 12 19  1  0  0  0  0
 12 16  2  0  0  0  0
 13 19  1  0  0  0  0
 14  2  1  0  0  0  0
 15 16  1  0  0  0  0
 16 22  1  0  0  0  0
 17 10  2  0  0  0  0
 18  7  1  1  0  0  0
 18  3  1  0  0  0  0
 18  4  1  0  0  0  0
 20 21  1  0  0  0  0
 20 26  1  0  0  0  0
 22 25  2  0  0  0  0
 22 24  1  0  0  0  0
 23 21  2  0  0  0  0
 24 20  2  0  0  0  0
 25 23  1  0  0  0  0
 27 17  1  0  0  0  0
 27 28  1  0  0  0  0
 30 29  1  1  0  0  0
 31 34  1  0  0  0  0
 32 31  1  0  0  0  0
 32 33  1  0  0  0  0
 33 28  1  6  0  0  0
 33 30  1  0  0  0  0
 34 30  1  0  0  0  0
M  END
>  <MODEL>
2

>  <REMARK>
 VINA RESULT:      -8.5      1.088      1.392
  Name = 
  4 active torsions:
  status: ('A' for Active; 'I' for Inactive)
    1  A    between atoms: O_3  and  C_13
    2  A    between atoms: O_3  and  C_29
    3  A    between atoms: C_12  and  C_28
    4  A    between atoms: C_13  and  C_33
                            x       y       z     vdW  Elec       q    Type
                         _______ _______ _______ _____ _____    ______ ____

>  <TORSDO>
F 4

$$$$
=
 OpenBabel11052414183D

 34 39  0  0  1  0  0  0  0  0999 V2000
  180.2900  178.7230  141.1770 C   0  0  2  0  0  3  0  0  0  0  0  0
  181.2110  180.4890  139.6010 C   0  0  0  0  0  0  0  0  0  0  0  0
  182.6530  178.6180  140.4040 N   0  0  0  0  0  0  0  0  0  0  0  0
  185.0240  178.2790  139.7070 C   0  0  0  0  0  0  0  0  0  0  0  0
  179.0420  180.8240  140.6520 C   0  0  0  0  0  2  0  0  0  0  0  0
  180.1580  181.2120  139.8090 N   0  0  0  0  0  0  0  0  0  0  0  0
  183.2060  177.9990  138.1230 C   0  0  0  0  0  3  0  0  0  0  0  0
  181.2820  179.0350  140.0530 C   0  0  1  0  0  3  0  0  0  0  0  0
  184.1870  177.6760  137.0750 C   0  0  0  0  0  3  0  0  0  0  0  0
  186.0700  178.1370  138.6370 C   0  0  0  0  0  2  0  0  0  0  0  0
  178.9310  179.3090  140.8170 C   0  0  0  0  0  2  0  0  0  0  0  0
  183.1190  178.6450  141.7770 C   0  0  0  0  0  0  0  0  0  0  0  0
  180.7950  179.2960  142.4980 C   0  0  0  0  0  2  0  0  0  0  0  0
  182.2630  181.0440  138.6990 C   0  0  0  0  0  1  0  0  0  0  0  0
  185.3850  178.4290  140.9440 N   0  0  0  0  0  0  0  0  0  0  0  0
  184.4520  178.5550  142.0350 C   0  0  0  0  0  0  0  0  0  0  0  0
  185.5100  177.7180  137.2990 C   0  0  0  0  0  0  0  0  0  0  0  0
  183.5940  178.2910  139.3670 C   0  0  0  0  0  0  0  0  0  0  0  0
  182.1060  178.6390  142.8920 C   0  0  0  0  0  2  0  0  0  0  0  0
  186.8240  177.9230  144.9120 C   0  0  0  0  0  0  0  0  0  0  0  0
  186.1330  178.4840  145.9890 C   0  0  0  0  0  3  0  0  0  0  0  0
  185.0280  178.5750  143.4050 C   0  0  0  0  0  0  0  0  0  0  0  0
  184.8870  179.0800  145.7820 C   0  0  0  0  0  3  0  0  0  0  0  0
  186.2700  177.9630  143.6280 C   0  0  0  0  0  3  0  0  0  0  0  0
  184.3360  179.1200  144.4990 C   0  0  0  0  0  3  0  0  0  0  0  0
  188.1450  177.2790  145.1300 C   0  0  0  0  0  1  0  0  0  0  0  0
  186.4220  177.3970  136.2870 O   0  0  0  0  0  0  0  0  0  0  0  0
  187.4270  178.2950  135.8330 C   0  0  0  0  0  2  0  0  0  0  0  0
  189.0320  175.4870  135.2610 O   0  0  0  0  0  1  0  0  0  0  0  0
  188.6870  176.2280  136.3910 C   0  0  2  0  0  3  0  0  0  0  0  0
  190.2070  177.1590  137.9180 C   0  0  0  0  0  2  0  0  0  0  0  0
  189.4090  178.2960  137.3270 C   0  0  0  0  0  2  0  0  0  0  0  0
  188.8020  177.7050  136.0870 C   0  0  2  0  0  3  0  0  0  0  0  0
  189.5950  175.9070  137.4860 N   0  0  0  0  0  2  0  0  0  0  0  0
  1 11  1  6  0  0  0
  1 13  1  0  0  0  0
  2  6  2  0  0  0  0
  3 12  1  0  0  0  0
  4 15  2  0  0  0  0
  5 11  1  0  0  0  0
  6  5  1  0  0  0  0
  7 18  2  0  0  0  0
  8  2  1  1  0  0  0
  8  3  1  0  0  0  0
  8  1  1  0  0  0  0
  9 17  2  0  0  0  0
  9  7  1  0  0  0  0
 10  4  1  0  0  0  0
 12 16  2  0  0  0  0
 12 19  1  0  0  0  0
 13 19  1  0  0  0  0
 14  2  1  0  0  0  0
 15 16  1  0  0  0  0
 16 22  1  0  0  0  0
 17 10  1  0  0  0  0
 18  4  1  0  0  0  0
 18  3  1  0  0  0  0
 20 26  1  0  0  0  0
 20 21  1  0  0  0  0
 22 24  1  0  0  0  0
 22 25  2  0  0  0  0
 23 21  2  0  0  0  0
 24 20  2  0  0  0  0
 25 23  1  0  0  0  0
 27 17  1  0  0  0  0
 28 27  1  0  0  0  0
 30 29  1  6  0  0  0
 30 34  1  0  0  0  0
 32 31  1  0  0  0  0
 33 28  1  1  0  0  0
 33 30  1  0  0  0  0
 33 32  1  0  0  0  0
 34 31  1  0  0  0  0
M  END
>  <MODEL>
3

>  <REMARK>
 VINA RESULT:      -8.4      2.584      7.233
  Name = 
  4 active torsions:
  status: ('A' for Active; 'I' for Inactive)
    1  A    between atoms: O_3  and  C_13
    2  A    between atoms: O_3  and  C_29
    3  A    between atoms: C_12  and  C_28
    4  A    between atoms: C_13  and  C_33
                            x       y       z     vdW  Elec       q    Type
                         _______ _______ _______ _____ _____    ______ ____

>  <TORSDO>
F 4

$$$$
=
 OpenBabel11052414183D

 34 39  0  0  1  0  0  0  0  0999 V2000
  191.8210  174.5730  137.5900 C   0  0  2  0  0  3  0  0  0  0  0  0
  192.8970  176.6640  138.5490 C   0  0  0  0  0  0  0  0  0  0  0  0
  190.4890  176.1640  138.9630 N   0  0  0  0  0  0  0  0  0  0  0  0
  188.9850  177.5800  140.3610 C   0  0  0  0  0  0  0  0  0  0  0  0
  194.0950  175.3400  136.8950 C   0  0  0  0  0  2  0  0  0  0  0  0
  193.9300  176.4670  137.7950 N   0  0  0  0  0  0  0  0  0  0  0  0
  190.8140  176.3360  141.3620 C   0  0  0  0  0  3  0  0  0  0  0  0
  191.8280  175.5930  138.7320 C   0  0  1  0  0  3  0  0  0  0  0  0
  190.4400  176.8740  142.6800 C   0  0  0  0  0  3  0  0  0  0  0  0
  188.6770  178.2960  141.6460 C   0  0  0  0  0  3  0  0  0  0  0  0
  193.2510  174.1350  137.3060 C   0  0  0  0  0  2  0  0  0  0  0  0
  189.5480  176.3400  137.8730 C   0  0  0  0  0  0  0  0  0  0  0  0
  191.1820  175.1820  136.3460 C   0  0  0  0  0  2  0  0  0  0  0  0
  192.8960  177.8780  139.4180 C   0  0  0  0  0  1  0  0  0  0  0  0
  188.2480  177.7920  139.3150 N   0  0  0  0  0  0  0  0  0  0  0  0
  188.4590  177.1370  138.0480 C   0  0  0  0  0  0  0  0  0  0  0  0
  189.4470  177.7660  142.8320 C   0  0  0  0  0  0  0  0  0  0  0  0
  190.1340  176.6710  140.2620 C   0  0  1  0  0  3  0  0  0  0  0  0
  189.7300  175.5320  136.6140 C   0  0  0  0  0  2  0  0  0  0  0  0
  185.1870  177.0070  136.1560 C   0  0  0  0  0  0  0  0  0  0  0  0
  185.4930  177.7180  134.9930 C   0  0  0  0  0  3  0  0  0  0  0  0
  187.4410  177.3820  136.9940 C   0  0  0  0  0  0  0  0  0  0  0  0
  186.7720  178.2530  134.8210 C   0  0  0  0  0  3  0  0  0  0  0  0
  186.1590  176.8340  137.1470 C   0  0  0  0  0  3  0  0  0  0  0  0
  187.7410  178.0800  135.8120 C   0  0  0  0  0  3  0  0  0  0  0  0
  183.8310  176.4280  136.3380 C   0  0  0  0  0  1  0  0  0  0  0  0
  189.1050  178.2540  144.0970 O   0  0  0  0  0  0  0  0  0  0  0  0
  189.7910  177.8800  145.2860 C   0  0  0  0  0  2  0  0  0  0  0  0
  186.5970  177.1320  145.4420 O   0  0  0  0  0  1  0  0  0  0  0  0
  187.4600  177.9790  146.1370 C   0  0  2  0  0  3  0  0  0  0  0  0
  187.9310  177.8480  148.4330 C   0  0  0  0  0  2  0  0  0  0  0  0
  189.2340  177.6580  147.6940 C   0  0  0  0  0  2  0  0  0  0  0  0
  188.8090  177.3150  146.2950 C   0  0  2  0  0  3  0  0  0  0  0  0
  186.9180  178.2520  147.4640 N   0  0  0  0  0  2  0  0  0  0  0  0
  1 13  1  6  0  0  0
  1  8  1  0  0  0  0
  2 14  1  0  0  0  0
  3 18  1  0  0  0  0
  4 10  1  0  0  0  0
  5 11  1  0  0  0  0
  5  6  1  0  0  0  0
  6  2  2  0  0  0  0
  7  9  2  0  0  0  0
  8  2  1  6  0  0  0
  8  3  1  0  0  0  0
  9 17  1  0  0  0  0
 10 17  2  0  0  0  0
 11  1  1  0  0  0  0
 12 16  2  0  0  0  0
 12  3  1  0  0  0  0
 13 19  1  0  0  0  0
 15  4  2  0  0  0  0
 16 15  1  0  0  0  0
 17 27  1  0  0  0  0
 18  4  1  0  0  0  0
 18  7  1  1  0  0  0
 19 12  1  0  0  0  0
 20 26  1  0  0  0  0
 20 24  1  0  0  0  0
 21 20  2  0  0  0  0
 22 24  2  0  0  0  0
 22 16  1  0  0  0  0
 23 21  1  0  0  0  0
 23 25  2  0  0  0  0
 25 22  1  0  0  0  0
 27 28  1  0  0  0  0
 30 29  1  1  0  0  0
 30 33  1  0  0  0  0
 30 34  1  0  0  0  0
 32 31  1  0  0  0  0
 33 28  1  6  0  0  0
 33 32  1  0  0  0  0
 34 31  1  0  0  0  0
M  END
>  <MODEL>
4

>  <REMARK>
 VINA RESULT:      -8.2      4.522      7.855
  Name = 
  4 active torsions:
  status: ('A' for Active; 'I' for Inactive)
    1  A    between atoms: O_3  and  C_13
    2  A    between atoms: O_3  and  C_29
    3  A    between atoms: C_12  and  C_28
    4  A    between atoms: C_13  and  C_33
                            x       y       z     vdW  Elec       q    Type
                         _______ _______ _______ _____ _____    ______ ____

>  <TORSDO>
F 4

$$$$
=
 OpenBabel11052414183D

 34 39  0  0  1  0  0  0  0  0999 V2000
  188.6890  178.6280  138.7840 C   0  0  2  0  0  3  0  0  0  0  0  0
  186.9520  176.9650  137.9680 C   0  0  0  0  0  0  0  0  0  0  0  0
  186.4460  178.5160  139.8550 N   0  0  0  0  0  0  0  0  0  0  0  0
  184.2470  178.6250  141.0280 C   0  0  0  0  0  0  0  0  0  0  0  0
  189.2490  176.7900  137.1860 C   0  0  0  0  0  2  0  0  0  0  0  0
  187.8640  176.3660  137.2730 N   0  0  0  0  0  0  0  0  0  0  0  0
  184.4640  179.3350  138.7160 C   0  0  0  0  0  3  0  0  0  0  0  0
  187.1980  178.3290  138.6010 C   0  0  1  0  0  3  0  0  0  0  0  0
  183.0270  179.6530  138.6930 C   0  0  0  0  0  3  0  0  0  0  0  0
  182.7500  178.7600  141.0000 C   0  0  0  0  0  3  0  0  0  0  0  0
  189.4280  178.2750  137.5010 C   0  0  0  0  0  2  0  0  0  0  0  0
  187.0570  178.2600  141.1440 C   0  0  0  0  0  0  0  0  0  0  0  0
  189.2420  177.8360  139.9650 C   0  0  0  0  0  2  0  0  0  0  0  0
  185.5730  176.3920  137.9400 C   0  0  0  0  0  1  0  0  0  0  0  0
  184.8410  178.2780  142.1270 N   0  0  0  0  0  0  0  0  0  0  0  0
  186.2710  178.1410  142.2490 C   0  0  0  0  0  0  0  0  0  0  0  0
  182.2260  179.4100  139.7430 C   0  0  0  0  0  0  0  0  0  0  0  0
  185.0450  178.8430  139.8140 C   0  0  1  0  0  3  0  0  0  0  0  0
  188.5600  178.2610  141.2530 C   0  0  0  0  0  2  0  0  0  0  0  0
  186.5410  178.1040  146.0200 C   0  0  0  0  0  0  0  0  0  0  0  0
  187.7870  177.5040  146.2190 C   0  0  0  0  0  3  0  0  0  0  0  0
  186.8010  177.8770  143.6110 C   0  0  0  0  0  0  0  0  0  0  0  0
  188.5470  177.0990  145.1190 C   0  0  0  0  0  3  0  0  0  0  0  0
  186.0550  178.2960  144.7230 C   0  0  0  0  0  3  0  0  0  0  0  0
  188.0590  177.2900  143.8240 C   0  0  0  0  0  3  0  0  0  0  0  0
  185.7350  178.5450  147.1880 C   0  0  0  0  0  1  0  0  0  0  0  0
  180.8650  179.7310  139.6980 O   0  0  0  0  0  0  0  0  0  0  0  0
  180.0300  179.4270  138.5870 C   0  0  0  0  0  2  0  0  0  0  0  0
  179.8000  180.7030  135.5690 O   0  0  0  0  0  1  0  0  0  0  0  0
  180.4360  181.0590  136.7590 C   0  0  2  0  0  3  0  0  0  0  0  0
  180.0410  183.0310  137.9690 C   0  0  0  0  0  2  0  0  0  0  0  0
  179.7030  181.8710  138.8750 C   0  0  0  0  0  2  0  0  0  0  0  0
  179.5510  180.7100  137.9340 C   0  0  2  0  0  3  0  0  0  0  0  0
  180.6820  182.4970  136.7730 N   0  0  0  0  0  2  0  0  0  0  0  0
  1 11  1  6  0  0  0
  1 13  1  0  0  0  0
  3 12  1  0  0  0  0
  4 15  2  0  0  0  0
  5  6  1  0  0  0  0
  5 11  1  0  0  0  0
  6  2  2  0  0  0  0
  8  2  1  1  0  0  0
  8  1  1  0  0  0  0
  8  3  1  0  0  0  0
  9  7  2  0  0  0  0
  9 17  1  0  0  0  0
 10  4  1  0  0  0  0
 12 19  1  0  0  0  0
 12 16  2  0  0  0  0
 13 19  1  0  0  0  0
 14  2  1  0  0  0  0
 15 16  1  0  0  0  0
 16 22  1  0  0  0  0
 17 10  2  0  0  0  0
 18  7  1  1  0  0  0
 18  3  1  0  0  0  0
 18  4  1  0  0  0  0
 20 21  1  0  0  0  0
 20 26  1  0  0  0  0
 22 25  2  0  0  0  0
 22 24  1  0  0  0  0
 23 21  2  0  0  0  0
 24 20  2  0  0  0  0
 25 23  1  0  0  0  0
 27 17  1  0  0  0  0
 28 27  1  0  0  0  0
 30 29  1  6  0  0  0
 30 34  1  0  0  0  0
 30 33  1  0  0  0  0
 31 32  1  0  0  0  0
 33 28  1  1  0  0  0
 33 32  1  0  0  0  0
 34 31  1  0  0  0  0
M  END
>  <MODEL>
5

>  <REMARK>
 VINA RESULT:      -8.2      1.865      2.394
  Name = 
  4 active torsions:
  status: ('A' for Active; 'I' for Inactive)
    1  A    between atoms: O_3  and  C_13
    2  A    between atoms: O_3  and  C_29
    3  A    between atoms: C_12  and  C_28
    4  A    between atoms: C_13  and  C_33
                            x       y       z     vdW  Elec       q    Type
                         _______ _______ _______ _____ _____    ______ ____

>  <TORSDO>
F 4

$$$$
=
 OpenBabel11052414183D

 34 39  0  0  1  0  0  0  0  0999 V2000
  186.3230  177.1270  145.5150 C   0  0  2  0  0  3  0  0  0  0  0  0
  185.4360  179.4820  145.1690 C   0  0  0  0  0  0  0  0  0  0  0  0
  185.8970  177.9930  143.2210 N   0  0  0  0  0  0  0  0  0  0  0  0
  185.4820  178.6280  140.8450 C   0  0  0  0  0  0  0  0  0  0  0  0
  186.2170  178.7980  147.3700 C   0  0  0  0  0  2  0  0  0  0  0  0
  185.6800  179.7470  146.4120 N   0  0  0  0  0  0  0  0  0  0  0  0
  183.6370  178.2990  142.3890 C   0  0  0  0  0  3  0  0  0  0  0  0
  185.4810  178.0550  144.6350 C   0  0  1  0  0  3  0  0  0  0  0  0
  182.6930  178.6280  141.3090 C   0  0  0  0  0  3  0  0  0  0  0  0
  184.5750  179.1460  139.7640 C   0  0  0  0  0  2  0  0  0  0  0  0
  185.9440  177.3480  146.9730 C   0  0  0  0  0  2  0  0  0  0  0  0
  187.2780  177.7430  142.8540 C   0  0  0  0  0  0  0  0  0  0  0  0
  187.8080  177.3960  145.2920 C   0  0  0  0  0  2  0  0  0  0  0  0
  184.8800  180.5800  144.3240 C   0  0  0  0  0  1  0  0  0  0  0  0
  186.7510  178.4970  140.6120 N   0  0  0  0  0  0  0  0  0  0  0  0
  187.6900  177.9920  141.5820 C   0  0  0  0  0  0  0  0  0  0  0  0
  183.1080  179.0040  140.0890 C   0  0  0  0  0  0  0  0  0  0  0  0
  184.9560  178.3030  142.1780 C   0  0  0  0  0  0  0  0  0  0  0  0
  188.1920  177.0860  143.8570 C   0  0  0  0  0  2  0  0  0  0  0  0
  190.5870  177.1760  139.2920 C   0  0  0  0  0  0  0  0  0  0  0  0
  191.6760  177.2350  140.1650 C   0  0  0  0  0  3  0  0  0  0  0  0
  189.0810  177.7700  141.1100 C   0  0  0  0  0  0  0  0  0  0  0  0
  191.4720  177.5500  141.5110 C   0  0  0  0  0  3  0  0  0  0  0  0
  189.2970  177.4350  139.7640 C   0  0  0  0  0  3  0  0  0  0  0  0
  190.1830  177.8100  141.9810 C   0  0  0  0  0  3  0  0  0  0  0  0
  190.7990  176.8320  137.8630 C   0  0  0  0  0  1  0  0  0  0  0  0
  182.1880  179.3020  139.0770 O   0  0  0  0  0  0  0  0  0  0  0  0
  182.1980  180.5270  138.3540 C   0  0  0  0  0  2  0  0  0  0  0  0
  180.4770  181.8370  135.8820 O   0  0  0  0  0  1  0  0  0  0  0  0
  180.7790  182.2030  137.1940 C   0  0  2  0  0  3  0  0  0  0  0  0
  179.2050  182.5540  138.9000 C   0  0  0  0  0  2  0  0  0  0  0  0
  180.1120  181.4330  139.3470 C   0  0  0  0  0  2  0  0  0  0  0  0
  180.7750  180.9780  138.0790 C   0  0  2  0  0  3  0  0  0  0  0  0
  179.7720  183.1360  137.6880 N   0  0  0  0  0  2  0  0  0  0  0  0
  1 13  1  1  0  0  0
  1 11  1  0  0  0  0
  2  6  2  0  0  0  0
  3  8  1  0  0  0  0
  4 18  1  0  0  0  0
  6  5  1  0  0  0  0
  8  2  1  1  0  0  0
  8  1  1  0  0  0  0
  9  7  1  0  0  0  0
 10 17  1  0  0  0  0
 10  4  1  0  0  0  0
 11  5  1  0  0  0  0
 12  3  1  0  0  0  0
 12 19  1  0  0  0  0
 14  2  1  0  0  0  0
 15  4  2  0  0  0  0
 15 16  1  0  0  0  0
 16 12  2  0  0  0  0
 17  9  2  0  0  0  0
 18  7  2  0  0  0  0
 18  3  1  0  0  0  0
 19 13  1  0  0  0  0
 20 24  2  0  0  0  0
 20 21  1  0  0  0  0
 21 23  2  0  0  0  0
 22 16  1  0  0  0  0
 22 25  2  0  0  0  0
 23 25  1  0  0  0  0
 24 22  1  0  0  0  0
 26 20  1  0  0  0  0
 27 17  1  0  0  0  0
 28 27  1  0  0  0  0
 30 29  1  6  0  0  0
 30 34  1  0  0  0  0
 30 33  1  0  0  0  0
 31 32  1  0  0  0  0
 33 28  1  1  0  0  0
 33 32  1  0  0  0  0
 34 31  1  0  0  0  0
M  END
>  <MODEL>
6

>  <REMARK>
 VINA RESULT:      -8.0      2.319      5.742
  Name = 
  4 active torsions:
  status: ('A' for Active; 'I' for Inactive)
    1  A    between atoms: O_3  and  C_13
    2  A    between atoms: O_3  and  C_29
    3  A    between atoms: C_12  and  C_28
    4  A    between atoms: C_13  and  C_33
                            x       y       z     vdW  Elec       q    Type
                         _______ _______ _______ _____ _____    ______ ____

>  <TORSDO>
F 4

$$$$
=
 OpenBabel11052414183D

 34 39  0  0  1  0  0  0  0  0999 V2000
  186.8860  176.2700  136.5360 C   0  0  2  0  0  3  0  0  0  0  0  0
  188.6410  178.0860  136.8060 C   0  0  0  0  0  0  0  0  0  0  0  0
  187.1250  177.4860  138.6940 N   0  0  0  0  0  0  0  0  0  0  0  0
  187.2320  178.5250  140.9590 C   0  0  0  0  0  0  0  0  0  0  0  0
  188.1570  177.1950  134.5930 C   0  0  0  0  0  2  0  0  0  0  0  0
  188.8330  178.0780  135.5260 N   0  0  0  0  0  0  0  0  0  0  0  0
  189.0220  177.0940  140.1580 C   0  0  0  0  0  3  0  0  0  0  0  0
  187.8330  176.9940  137.4970 C   0  0  1  0  0  3  0  0  0  0  0  0
  189.7400  177.3050  141.4250 C   0  0  0  0  0  3  0  0  0  0  0  0
  188.0030  178.9180  142.1880 C   0  0  0  0  0  3  0  0  0  0  0  0
  187.6430  175.9210  135.2620 C   0  0  0  0  0  2  0  0  0  0  0  0
  185.7390  177.9070  138.6280 C   0  0  0  0  0  0  0  0  0  0  0  0
  185.6780  177.1500  136.2270 C   0  0  0  0  0  2  0  0  0  0  0  0
  189.4270  179.0620  137.6170 C   0  0  0  0  0  1  0  0  0  0  0  0
  186.0260  178.9710  140.7870 N   0  0  0  0  0  0  0  0  0  0  0  0
  185.2080  178.6330  139.6490 C   0  0  0  0  0  0  0  0  0  0  0  0
  189.2770  178.1290  142.3780 C   0  0  0  0  0  0  0  0  0  0  0  0
  187.8400  177.6720  139.9290 C   0  0  1  0  0  3  0  0  0  0  0  0
  184.8810  177.4170  137.4900 C   0  0  0  0  0  2  0  0  0  0  0  0
  181.5480  178.8870  140.5640 C   0  0  0  0  0  0  0  0  0  0  0  0
  181.1010  179.8940  139.7050 C   0  0  0  0  0  3  0  0  0  0  0  0
  183.8020  179.1110  139.6740 C   0  0  0  0  0  0  0  0  0  0  0  0
  181.9950  180.5040  138.8230 C   0  0  0  0  0  3  0  0  0  0  0  0
  182.8900  178.4940  140.5430 C   0  0  0  0  0  3  0  0  0  0  0  0
  183.3360  180.1110  138.8040 C   0  0  0  0  0  3  0  0  0  0  0  0
  180.5960  178.2300  141.4970 C   0  0  0  0  0  1  0  0  0  0  0  0
  189.9740  178.3050  143.5790 O   0  0  0  0  0  0  0  0  0  0  0  0
  189.3550  178.2220  144.8570 C   0  0  0  0  0  2  0  0  0  0  0  0
  188.7910  176.6660  147.6940 O   0  0  0  0  0  1  0  0  0  0  0  0
  189.8870  177.2880  147.0960 C   0  0  2  0  0  3  0  0  0  0  0  0
  191.9140  176.2350  146.5520 C   0  0  0  0  0  2  0  0  0  0  0  0
  191.3230  176.7660  145.2680 C   0  0  0  0  0  2  0  0  0  0  0  0
  189.8810  177.0130  145.6090 C   0  0  2  0  0  3  0  0  0  0  0  0
  191.1230  176.7570  147.6610 N   0  0  0  0  0  2  0  0  0  0  0  0
  1 11  1  6  0  0  0
  1  8  1  0  0  0  0
  2 14  1  0  0  0  0
  3 18  1  0  0  0  0
  4 10  1  0  0  0  0
  5 11  1  0  0  0  0
  5  6  1  0  0  0  0
  6  2  2  0  0  0  0
  7  9  2  0  0  0  0
  8  2  1  6  0  0  0
  8  3  1  0  0  0  0
  9 17  1  0  0  0  0
 10 17  2  0  0  0  0
 12  3  1  0  0  0  0
 12 16  2  0  0  0  0
 13  1  1  0  0  0  0
 13 19  1  0  0  0  0
 15  4  2  0  0  0  0
 16 22  1  0  0  0  0
 16 15  1  0  0  0  0
 17 27  1  0  0  0  0
 18  7  1  1  0  0  0
 18  4  1  0  0  0  0
 19 12  1  0  0  0  0
 20 26  1  0  0  0  0
 21 20  2  0  0  0  0
 22 24  2  0  0  0  0
 23 21  1  0  0  0  0
 24 20  1  0  0  0  0
 25 23  2  0  0  0  0
 25 22  1  0  0  0  0
 27 28  1  0  0  0  0
 30 34  1  0  0  0  0
 30 29  1  1  0  0  0
 31 34  1  0  0  0  0
 32 33  1  0  0  0  0
 32 31  1  0  0  0  0
 33 28  1  6  0  0  0
 33 30  1  0  0  0  0
M  END
>  <MODEL>
7

>  <REMARK>
 VINA RESULT:      -7.9      3.419      7.428
  Name = 
  4 active torsions:
  status: ('A' for Active; 'I' for Inactive)
    1  A    between atoms: O_3  and  C_13
    2  A    between atoms: O_3  and  C_29
    3  A    between atoms: C_12  and  C_28
    4  A    between atoms: C_13  and  C_33
                            x       y       z     vdW  Elec       q    Type
                         _______ _______ _______ _____ _____    ______ ____

>  <TORSDO>
F 4

$$$$
=
 OpenBabel11052414183D

 34 39  0  0  1  0  0  0  0  0999 V2000
  193.1690  176.7060  137.6610 C   0  0  2  0  0  3  0  0  0  0  0  0
  191.3300  175.0180  137.1900 C   0  0  0  0  0  0  0  0  0  0  0  0
  190.8700  177.0630  138.5430 N   0  0  0  0  0  0  0  0  0  0  0  0
  188.6300  177.6560  139.4670 C   0  0  0  0  0  0  0  0  0  0  0  0
  193.6410  174.4620  136.6670 C   0  0  0  0  0  2  0  0  0  0  0  0
  192.2190  174.1840  136.7560 N   0  0  0  0  0  0  0  0  0  0  0  0
  189.0390  177.6830  137.0740 C   0  0  0  0  0  3  0  0  0  0  0  0
  191.6690  176.4820  137.4490 C   0  0  1  0  0  3  0  0  0  0  0  0
  187.6420  178.0900  136.8530 C   0  0  0  0  0  3  0  0  0  0  0  0
  187.1560  177.8900  139.2870 C   0  0  0  0  0  3  0  0  0  0  0  0
  193.9410  175.9580  136.5820 C   0  0  0  0  0  2  0  0  0  0  0  0
  191.3830  177.1260  139.8980 C   0  0  0  0  0  0  0  0  0  0  0  0
  193.5790  176.2300  139.0510 C   0  0  0  0  0  2  0  0  0  0  0  0
  189.9080  174.5650  137.2100 C   0  0  0  0  0  1  0  0  0  0  0  0
  189.1280  177.5810  140.6620 N   0  0  0  0  0  0  0  0  0  0  0  0
  190.5300  177.3760  140.9280 C   0  0  0  0  0  0  0  0  0  0  0  0
  186.7650  178.2060  137.8640 C   0  0  0  0  0  0  0  0  0  0  0  0
  189.5100  177.4700  138.3050 C   0  0  1  0  0  3  0  0  0  0  0  0
  192.8710  177.0440  140.1190 C   0  0  0  0  0  2  0  0  0  0  0  0
  191.6650  176.3100  144.3740 C   0  0  0  0  0  0  0  0  0  0  0  0
  191.6780  177.5230  145.0660 C   0  0  0  0  0  3  0  0  0  0  0  0
  190.9570  177.4590  142.3480 C   0  0  0  0  0  0  0  0  0  0  0  0
  191.3210  178.7030  144.4090 C   0  0  0  0  0  3  0  0  0  0  0  0
  191.3000  176.2780  143.0250 C   0  0  0  0  0  3  0  0  0  0  0  0
  190.9580  178.6700  143.0600 C   0  0  0  0  0  3  0  0  0  0  0  0
  192.0340  175.0520  145.0730 C   0  0  0  0  0  1  0  0  0  0  0  0
  185.4450  178.6050  137.6280 O   0  0  0  0  0  0  0  0  0  0  0  0
  184.3180  177.9140  138.1560 C   0  0  0  0  0  2  0  0  0  0  0  0
  184.7590  179.3910  141.0560 O   0  0  0  0  0  1  0  0  0  0  0  0
  183.8500  178.4730  140.5300 C   0  0  2  0  0  3  0  0  0  0  0  0
  181.5340  178.8120  140.3490 C   0  0  0  0  0  2  0  0  0  0  0  0
  182.0680  178.5920  138.9530 C   0  0  0  0  0  2  0  0  0  0  0  0
  183.5450  178.8250  139.0910 C   0  0  2  0  0  3  0  0  0  0  0  0
  182.6070  178.5200  141.2930 N   0  0  0  0  0  2  0  0  0  0  0  0
  1 11  1  6  0  0  0
  1 13  1  0  0  0  0
  2 14  1  0  0  0  0
  3 12  1  0  0  0  0
  4 15  2  0  0  0  0
  5  6  1  0  0  0  0
  6  2  2  0  0  0  0
  8  2  1  1  0  0  0
  8  1  1  0  0  0  0
  8  3  1  0  0  0  0
  9  7  2  0  0  0  0
  9 17  1  0  0  0  0
 10  4  1  0  0  0  0
 11  5  1  0  0  0  0
 12 19  1  0  0  0  0
 12 16  2  0  0  0  0
 13 19  1  0  0  0  0
 15 16  1  0  0  0  0
 16 22  1  0  0  0  0
 17 10  2  0  0  0  0
 18  7  1  1  0  0  0
 18  3  1  0  0  0  0
 18  4  1  0  0  0  0
 20 21  1  0  0  0  0
 20 26  1  0  0  0  0
 22 24  1  0  0  0  0
 22 25  2  0  0  0  0
 23 21  2  0  0  0  0
 24 20  2  0  0  0  0
 25 23  1  0  0  0  0
 27 17  1  0  0  0  0
 27 28  1  0  0  0  0
 30 29  1  1  0  0  0
 30 34  1  0  0  0  0
 31 34  1  0  0  0  0
 32 33  1  0  0  0  0
 32 31  1  0  0  0  0
 33 28  1  6  0  0  0
 33 30  1  0  0  0  0
M  END
>  <MODEL>
8

>  <REMARK>
 VINA RESULT:      -7.8      3.007      4.843
  Name = 
  4 active torsions:
  status: ('A' for Active; 'I' for Inactive)
    1  A    between atoms: O_3  and  C_13
    2  A    between atoms: O_3  and  C_29
    3  A    between atoms: C_12  and  C_28
    4  A    between atoms: C_13  and  C_33
                            x       y       z     vdW  Elec       q    Type
                         _______ _______ _______ _____ _____    ______ ____

>  <TORSDO>
F 4

$$$$
=
 OpenBabel11052414183D

 34 39  0  0  1  0  0  0  0  0999 V2000
  185.1740  179.4550  144.7630 C   0  0  2  0  0  3  0  0  0  0  0  0
  186.5830  177.3870  144.3290 C   0  0  0  0  0  0  0  0  0  0  0  0
  185.6640  178.7260  142.4350 N   0  0  0  0  0  0  0  0  0  0  0  0
  186.0830  178.2200  140.0290 C   0  0  0  0  0  0  0  0  0  0  0  0
  185.7870  177.8530  146.5810 C   0  0  0  0  0  2  0  0  0  0  0  0
  186.4810  177.0660  145.5780 N   0  0  0  0  0  0  0  0  0  0  0  0
  187.8790  178.9800  141.4750 C   0  0  0  0  0  3  0  0  0  0  0  0
  186.1630  178.7620  143.8220 C   0  0  1  0  0  3  0  0  0  0  0  0
  188.8120  178.8940  140.3400 C   0  0  0  0  0  3  0  0  0  0  0  0
  187.0250  177.9400  138.8910 C   0  0  0  0  0  2  0  0  0  0  0  0
  185.6770  179.3270  146.1950 C   0  0  0  0  0  2  0  0  0  0  0  0
  184.2450  178.6360  142.1490 C   0  0  0  0  0  0  0  0  0  0  0  0
  183.7880  178.8350  144.6170 C   0  0  0  0  0  2  0  0  0  0  0  0
  187.3380  176.4590  143.4360 C   0  0  0  0  0  1  0  0  0  0  0  0
  184.8090  178.0400  139.8680 N   0  0  0  0  0  0  0  0  0  0  0  0
  183.8330  178.2980  140.8970 C   0  0  0  0  0  0  0  0  0  0  0  0
  188.4310  178.4320  139.1370 C   0  0  0  0  0  0  0  0  0  0  0  0
  186.5900  178.6570  141.3370 C   0  0  0  0  0  0  0  0  0  0  0  0
  183.2590  179.0470  143.2110 C   0  0  0  0  0  2  0  0  0  0  0  0
  180.5520  176.7570  139.8210 C   0  0  0  0  0  0  0  0  0  0  0  0
  179.7390  177.8820  139.6600 C   0  0  0  0  0  3  0  0  0  0  0  0
  182.4050  178.1780  140.5050 C   0  0  0  0  0  0  0  0  0  0  0  0
  180.2560  179.1550  139.9090 C   0  0  0  0  0  3  0  0  0  0  0  0
  181.8790  176.9060  140.2350 C   0  0  0  0  0  3  0  0  0  0  0  0
  181.5820  179.3020  140.3230 C   0  0  0  0  0  3  0  0  0  0  0  0
  180.0070  175.4020  139.5470 C   0  0  0  0  0  1  0  0  0  0  0  0
  189.3350  178.3700  138.0720 O   0  0  0  0  0  0  0  0  0  0  0  0
  189.2590  177.3890  137.0440 C   0  0  0  0  0  2  0  0  0  0  0  0
  190.8720  175.9490  139.5170 O   0  0  0  0  0  1  0  0  0  0  0  0
  190.8280  175.7990  138.1310 C   0  0  2  0  0  3  0  0  0  0  0  0
  190.1730  173.8490  136.9990 C   0  0  0  0  0  2  0  0  0  0  0  0
  189.2260  174.9500  136.5850 C   0  0  0  0  0  2  0  0  0  0  0  0
  189.4120  176.0020  137.6410 C   0  0  2  0  0  3  0  0  0  0  0  0
  191.2560  174.4520  137.7690 N   0  0  0  0  0  2  0  0  0  0  0  0
  1 13  1  1  0  0  0
  1 11  1  0  0  0  0
  2  6  2  0  0  0  0
  3  8  1  0  0  0  0
  4 18  1  0  0  0  0
  6  5  1  0  0  0  0
  8  2  1  1  0  0  0
  8  1  1  0  0  0  0
  9  7  1  0  0  0  0
 10 17  1  0  0  0  0
 10  4  1  0  0  0  0
 11  5  1  0  0  0  0
 12  3  1  0  0  0  0
 12 19  1  0  0  0  0
 14  2  1  0  0  0  0
 15  4  2  0  0  0  0
 15 16  1  0  0  0  0
 16 12  2  0  0  0  0
 17  9  2  0  0  0  0
 18  7  2  0  0  0  0
 18  3  1  0  0  0  0
 19 13  1  0  0  0  0
 20 24  1  0  0  0  0
 21 20  2  0  0  0  0
 21 23  1  0  0  0  0
 22 16  1  0  0  0  0
 23 25  2  0  0  0  0
 24 22  2  0  0  0  0
 25 22  1  0  0  0  0
 26 20  1  0  0  0  0
 27 17  1  0  0  0  0
 28 27  1  0  0  0  0
 30 29  1  1  0  0  0
 31 34  1  0  0  0  0
 32 31  1  0  0  0  0
 32 33  1  0  0  0  0
 33 28  1  6  0  0  0
 33 30  1  0  0  0  0
 34 30  1  0  0  0  0
M  END
>  <MODEL>
9

>  <REMARK>
 VINA RESULT:      -7.8      3.116      8.274
  Name = 
  4 active torsions:
  status: ('A' for Active; 'I' for Inactive)
    1  A    between atoms: O_3  and  C_13
    2  A    between atoms: O_3  and  C_29
    3  A    between atoms: C_12  and  C_28
    4  A    between atoms: C_13  and  C_33
                            x       y       z     vdW  Elec       q    Type
                         _______ _______ _______ _____ _____    ______ ____

>  <TORSDO>
F 4

$$$$
