=
 OpenBabel11052415413D

 34 38  0  0  1  0  0  0  0  0999 V2000
  182.0380  178.7430  140.4160 C   0  0  0  0  0  0  0  0  0  0  0  0
  179.0870  177.0820  138.6170 C   0  0  0  0  0  2  0  0  0  0  0  0
  179.5510  177.5620  141.0160 C   0  0  0  0  0  3  0  0  0  0  0  0
  183.2570  179.3500  140.1340 O   0  0  0  0  0  1  0  0  0  0  0  0
  182.2430  179.1630  142.9650 C   0  0  2  0  0  3  0  0  0  0  0  0
  181.1650  179.0070  144.0460 C   0  0  0  0  0  3  0  0  0  0  0  0
  180.3560  178.0980  142.0180 C   0  0  0  0  0  0  0  0  0  0  0  0
  181.5740  178.6600  141.7350 C   0  0  0  0  0  0  0  0  0  0  0  0
  180.0240  178.1700  143.4540 C   0  0  0  0  0  3  0  0  0  0  0  0
  179.8190  176.8060  137.3050 C   0  0  0  0  0  2  0  0  0  0  0  0
  180.7070  177.9860  136.9060 C   0  0  2  0  0  3  0  0  0  0  0  0
  180.0030  177.5950  139.6900 C   0  0  0  0  0  0  0  0  0  0  0  0
  181.7800  178.2200  137.9690 C   0  0  0  0  0  2  0  0  0  0  0  0
  181.2460  178.2100  139.3790 C   0  0  0  0  0  0  0  0  0  0  0  0
  183.4270  178.2770  143.3360 C   0  0  0  0  0  2  0  0  0  0  0  0
  184.6890  179.0980  143.5630 C   0  0  0  0  0  2  0  0  0  0  0  0
  187.3210  178.0200  143.2210 O   0  0  0  0  0  0  0  0  0  0  0  0
  185.9310  178.8800  147.0160 C   0  0  0  0  0  2  0  0  0  0  0  0
  189.8290  177.0960  146.5280 C   0  0  0  0  0  0  0  0  0  0  0  0
  189.0170  177.3310  145.4080 C   0  0  0  0  0  3  0  0  0  0  0  0
  187.7400  177.8860  145.5570 C   0  0  0  0  0  0  0  0  0  0  0  0
  185.5040  178.5150  144.6210 N   0  0  0  0  0  0  0  0  0  0  0  0
  188.0760  177.9890  147.9580 C   0  0  0  0  0  3  0  0  0  0  0  0
  187.2650  178.2090  146.8420 C   0  0  0  0  0  0  0  0  0  0  0  0
  189.3470  177.4300  147.8030 C   0  0  0  0  0  3  0  0  0  0  0  0
  184.9370  178.3930  145.9620 C   0  0  0  0  0  2  0  0  0  0  0  0
  186.8710  178.1290  144.3950 C   0  0  0  0  0  0  0  0  0  0  0  0
  191.6830  176.4160  145.2110 O   0  0  0  0  0  0  0  0  0  0  0  0
  191.1720  176.5080  146.3590 C   0  0  0  0  0  0  0  0  0  0  0  0
  191.9470  176.0120  147.5320 C   0  0  0  0  0  1  0  0  0  0  0  0
  179.9100  179.2640  136.6530 C   0  0  0  0  0  2  0  0  0  0  0  0
  180.8260  180.4710  136.4990 C   0  0  0  0  0  2  0  0  0  0  0  0
  180.4310  181.6000  137.4370 C   0  0  0  0  0  2  0  0  0  0  0  0
  181.5920  181.9710  138.3400 C   0  0  0  0  0  1  0  0  0  0  0  0
  1  8  1  0  0  0  0
  2 12  1  0  0  0  0
  3  7  1  0  0  0  0
  4  1  1  0  0  0  0
  5 15  1  1  0  0  0
  5  6  1  0  0  0  0
  7  9  1  0  0  0  0
  8  7  2  0  0  0  0
  8  5  1  0  0  0  0
  9  6  2  0  0  0  0
 10  2  1  0  0  0  0
 11 31  1  1  0  0  0
 11 10  1  0  0  0  0
 11 13  1  0  0  0  0
 12  3  2  0  0  0  0
 13 14  1  0  0  0  0
 14 12  1  0  0  0  0
 14  1  2  0  0  0  0
 15 16  1  0  0  0  0
 16 22  1  0  0  0  0
 17 27  2  0  0  0  0
 19 25  1  0  0  0  0
 20 21  1  0  0  0  0
 20 19  2  0  0  0  0
 21 24  2  0  0  0  0
 22 26  1  0  0  0  0
 24 18  1  0  0  0  0
 24 23  1  0  0  0  0
 25 23  2  0  0  0  0
 26 18  1  0  0  0  0
 27 22  1  0  0  0  0
 27 21  1  0  0  0  0
 28 29  2  0  0  0  0
 29 19  1  0  0  0  0
 29 30  1  0  0  0  0
 32 31  1  0  0  0  0
 32 33  1  0  0  0  0
 33 34  1  0  0  0  0
M  END
>  <MODEL>
1

>  <REMARK>
 VINA RESULT:      -8.7      0.000      0.000
  Name = 
  7 active torsions:
  status: ('A' for Active; 'I' for Inactive)
    1  A    between atoms: C_3  and  C_24
    2  A    between atoms: C_7  and  C_15
    3  A    between atoms: C_8  and  C_17
    4  A    between atoms: C_8  and  N_18
    5  A    between atoms: C_10  and  C_17
    6  A    between atoms: C_24  and  C_25
    7  A    between atoms: C_25  and  C_27
                            x       y       z     vdW  Elec       q    Type
                         _______ _______ _______ _____ _____    ______ ____

>  <TORSDO>
F 7

$$$$
=
 OpenBabel11052415413D

 34 38  0  0  1  0  0  0  0  0999 V2000
  192.8490  175.7200  137.8120 C   0  0  0  0  0  0  0  0  0  0  0  0
  193.8930  172.3430  136.3240 C   0  0  0  0  0  2  0  0  0  0  0  0
  191.7450  173.6030  136.3150 C   0  0  0  0  0  3  0  0  0  0  0  0
  193.3860  176.7830  138.5290 O   0  0  0  0  0  1  0  0  0  0  0  0
  190.5180  176.8330  137.6080 C   0  0  2  0  0  3  0  0  0  0  0  0
  189.3370  176.4170  136.7190 C   0  0  0  0  0  3  0  0  0  0  0  0
  190.9880  174.7250  136.6460 C   0  0  0  0  0  0  0  0  0  0  0  0
  191.5140  175.7510  137.3870 C   0  0  0  0  0  0  0  0  0  0  0  0
  189.5920  174.9820  136.2420 C   0  0  0  0  0  3  0  0  0  0  0  0
  195.1540  172.1670  137.1670 C   0  0  0  0  0  2  0  0  0  0  0  0
  195.9170  173.4850  137.3060 C   0  0  2  0  0  3  0  0  0  0  0  0
  193.0720  173.5230  136.7560 C   0  0  0  0  0  0  0  0  0  0  0  0
  195.0510  174.5220  138.0210 C   0  0  0  0  0  2  0  0  0  0  0  0
  193.6410  174.5990  137.4920 C   0  0  0  0  0  0  0  0  0  0  0  0
  190.0460  176.8450  139.0570 C   0  0  0  0  0  2  0  0  0  0  0  0
  189.0170  177.9400  139.3000 C   0  0  0  0  0  2  0  0  0  0  0  0
  186.4990  178.8190  140.3480 O   0  0  0  0  0  0  0  0  0  0  0  0
  189.1510  176.8050  142.7930 C   0  0  0  0  0  2  0  0  0  0  0  0
  185.4400  178.2740  144.4290 C   0  0  0  0  0  0  0  0  0  0  0  0
  185.7680  178.5280  143.0890 C   0  0  0  0  0  3  0  0  0  0  0  0
  186.9810  178.0770  142.5550 C   0  0  0  0  0  0  0  0  0  0  0  0
  188.6790  178.0320  140.7150 N   0  0  0  0  0  0  0  0  0  0  0  0
  187.5520  177.1000  144.7010 C   0  0  0  0  0  3  0  0  0  0  0  0
  187.8820  177.3660  143.3700 C   0  0  0  0  0  0  0  0  0  0  0  0
  186.3430  177.5560  145.2290 C   0  0  0  0  0  3  0  0  0  0  0  0
  189.7080  177.7240  141.7060 C   0  0  0  0  0  2  0  0  0  0  0  0
  187.3460  178.3440  141.1540 C   0  0  0  0  0  0  0  0  0  0  0  0
  184.0590  179.0140  146.2120 O   0  0  0  0  0  0  0  0  0  0  0  0
  184.1600  178.7560  144.9830 C   0  0  0  0  0  0  0  0  0  0  0  0
  182.9660  178.9460  144.1100 C   0  0  0  0  0  1  0  0  0  0  0  0
  196.4090  174.0260  135.9650 C   0  0  0  0  0  2  0  0  0  0  0  0
  197.1720  175.3330  136.1360 C   0  0  0  0  0  2  0  0  0  0  0  0
  196.8470  176.3220  135.0280 C   0  0  0  0  0  2  0  0  0  0  0  0
  195.3730  176.6800  135.0510 C   0  0  0  0  0  1  0  0  0  0  0  0
  1  4  1  0  0  0  0
  2 12  1  0  0  0  0
  2 10  1  0  0  0  0
  3  7  2  0  0  0  0
  3 12  1  0  0  0  0
  5 15  1  1  0  0  0
  6  5  1  0  0  0  0
  7  8  1  0  0  0  0
  8  5  1  0  0  0  0
  8  1  2  0  0  0  0
  9  7  1  0  0  0  0
  9  6  2  0  0  0  0
 10 11  1  0  0  0  0
 11 31  1  6  0  0  0
 11 13  1  0  0  0  0
 12 14  2  0  0  0  0
 14  1  1  0  0  0  0
 14 13  1  0  0  0  0
 15 16  1  0  0  0  0
 16 22  1  0  0  0  0
 17 27  2  0  0  0  0
 18 24  1  0  0  0  0
 19 29  1  0  0  0  0
 19 25  1  0  0  0  0
 20 19  2  0  0  0  0
 21 20  1  0  0  0  0
 21 24  2  0  0  0  0
 22 27  1  0  0  0  0
 22 26  1  0  0  0  0
 23 25  2  0  0  0  0
 24 23  1  0  0  0  0
 26 18  1  0  0  0  0
 27 21  1  0  0  0  0
 29 28  2  0  0  0  0
 30 29  1  0  0  0  0
 31 32  1  0  0  0  0
 33 34  1  0  0  0  0
 33 32  1  0  0  0  0
M  END
>  <MODEL>
2

>  <REMARK>
 VINA RESULT:      -8.7      7.647     10.939
  Name = 
  7 active torsions:
  status: ('A' for Active; 'I' for Inactive)
    1  A    between atoms: C_3  and  C_24
    2  A    between atoms: C_7  and  C_15
    3  A    between atoms: C_8  and  C_17
    4  A    between atoms: C_8  and  N_18
    5  A    between atoms: C_10  and  C_17
    6  A    between atoms: C_24  and  C_25
    7  A    between atoms: C_25  and  C_27
                            x       y       z     vdW  Elec       q    Type
                         _______ _______ _______ _____ _____    ______ ____

>  <TORSDO>
F 7

$$$$
=
 OpenBabel11052415413D

 34 38  0  0  1  0  0  0  0  0999 V2000
  182.4070  177.6470  140.5950 C   0  0  0  0  0  0  0  0  0  0  0  0
  179.7910  175.3790  138.9480 C   0  0  0  0  0  2  0  0  0  0  0  0
  179.7000  176.9270  140.8960 C   0  0  0  0  0  3  0  0  0  0  0  0
  183.7360  178.0310  140.4450 O   0  0  0  0  0  1  0  0  0  0  0  0
  182.0220  179.2170  142.6210 C   0  0  2  0  0  3  0  0  0  0  0  0
  180.6950  179.6060  143.2860 C   0  0  0  0  0  3  0  0  0  0  0  0
  180.2970  177.8600  141.7410 C   0  0  0  0  0  0  0  0  0  0  0  0
  181.6180  178.2030  141.6100 C   0  0  0  0  0  0  0  0  0  0  0  0
  179.6270  178.6070  142.8230 C   0  0  0  0  0  3  0  0  0  0  0  0
  180.7810  174.5050  138.1790 C   0  0  0  0  0  2  0  0  0  0  0  0
  181.9090  175.3440  137.5770 C   0  0  2  0  0  3  0  0  0  0  0  0
  180.4720  176.3240  139.8950 C   0  0  0  0  0  0  0  0  0  0  0  0
  182.7010  176.0350  138.6860 C   0  0  0  0  0  2  0  0  0  0  0  0
  181.8320  176.7010  139.7240 C   0  0  0  0  0  0  0  0  0  0  0  0
  182.9250  178.5930  143.6790 C   0  0  0  0  0  2  0  0  0  0  0  0
  184.3590  179.0870  143.5510 C   0  0  0  0  0  2  0  0  0  0  0  0
  186.9960  178.0340  143.1660 O   0  0  0  0  0  0  0  0  0  0  0  0
  185.6670  178.8980  146.9820 C   0  0  0  0  0  2  0  0  0  0  0  0
  189.5720  177.1510  146.4300 C   0  0  0  0  0  0  0  0  0  0  0  0
  188.7380  177.3720  145.3240 C   0  0  0  0  0  3  0  0  0  0  0  0
  187.4580  177.9150  145.4950 C   0  0  0  0  0  0  0  0  0  0  0  0
  185.1990  178.5170  144.5970 N   0  0  0  0  0  0  0  0  0  0  0  0
  187.8370  178.0330  147.8890 C   0  0  0  0  0  3  0  0  0  0  0  0
  187.0040  178.2390  146.7870 C   0  0  0  0  0  0  0  0  0  0  0  0
  189.1110  177.4860  147.7130 C   0  0  0  0  0  3  0  0  0  0  0  0
  184.6580  178.3960  145.9490 C   0  0  0  0  0  2  0  0  0  0  0  0
  186.5650  178.1440  144.3470 C   0  0  0  0  0  0  0  0  0  0  0  0
  191.4020  176.4670  145.0820 O   0  0  0  0  0  0  0  0  0  0  0  0
  190.9180  176.5750  146.2400 C   0  0  0  0  0  0  0  0  0  0  0  0
  191.7280  176.1110  147.4030 C   0  0  0  0  0  1  0  0  0  0  0  0
  181.4060  176.3640  136.5570 C   0  0  0  0  0  2  0  0  0  0  0  0
  182.3060  177.5910  136.5050 C   0  0  0  0  0  2  0  0  0  0  0  0
  181.5110  178.8780  136.6530 C   0  0  0  0  0  2  0  0  0  0  0  0
  180.0610  178.5710  136.9790 C   0  0  0  0  0  1  0  0  0  0  0  0
  1  8  1  0  0  0  0
  2 12  1  0  0  0  0
  3  7  1  0  0  0  0
  4  1  1  0  0  0  0
  5  6  1  0  0  0  0
  5 15  1  1  0  0  0
  7  9  1  0  0  0  0
  8  7  2  0  0  0  0
  8  5  1  0  0  0  0
  9  6  2  0  0  0  0
 10  2  1  0  0  0  0
 11 31  1  6  0  0  0
 11 10  1  0  0  0  0
 11 13  1  0  0  0  0
 12  3  2  0  0  0  0
 13 14  1  0  0  0  0
 14 12  1  0  0  0  0
 14  1  2  0  0  0  0
 16 15  1  0  0  0  0
 16 22  1  0  0  0  0
 17 27  2  0  0  0  0
 19 25  1  0  0  0  0
 20 21  1  0  0  0  0
 20 19  2  0  0  0  0
 21 24  2  0  0  0  0
 22 26  1  0  0  0  0
 24 18  1  0  0  0  0
 24 23  1  0  0  0  0
 25 23  2  0  0  0  0
 26 18  1  0  0  0  0
 27 22  1  0  0  0  0
 27 21  1  0  0  0  0
 28 29  2  0  0  0  0
 29 19  1  0  0  0  0
 29 30  1  0  0  0  0
 32 31  1  0  0  0  0
 32 33  1  0  0  0  0
 33 34  1  0  0  0  0
M  END
>  <MODEL>
3

>  <REMARK>
 VINA RESULT:      -8.6      1.185      1.574
  Name = 
  7 active torsions:
  status: ('A' for Active; 'I' for Inactive)
    1  A    between atoms: C_3  and  C_24
    2  A    between atoms: C_7  and  C_15
    3  A    between atoms: C_8  and  C_17
    4  A    between atoms: C_8  and  N_18
    5  A    between atoms: C_10  and  C_17
    6  A    between atoms: C_24  and  C_25
    7  A    between atoms: C_25  and  C_27
                            x       y       z     vdW  Elec       q    Type
                         _______ _______ _______ _____ _____    ______ ____

>  <TORSDO>
F 7

$$$$
=
 OpenBabel11052415413D

 34 38  0  0  1  0  0  0  0  0999 V2000
  182.0280  177.4090  140.4110 C   0  0  0  0  0  0  0  0  0  0  0  0
  179.5030  175.2410  138.5060 C   0  0  0  0  0  2  0  0  0  0  0  0
  179.2550  176.9110  140.3350 C   0  0  0  0  0  3  0  0  0  0  0  0
  183.3910  177.6830  140.4430 O   0  0  0  0  0  1  0  0  0  0  0  0
  181.4810  179.1270  142.2710 C   0  0  2  0  0  3  0  0  0  0  0  0
  180.1070  179.6550  142.7070 C   0  0  0  0  0  3  0  0  0  0  0  0
  179.7970  177.8490  141.2110 C   0  0  0  0  0  0  0  0  0  0  0  0
  181.1470  178.0850  141.2640 C   0  0  0  0  0  0  0  0  0  0  0  0
  179.0390  178.7100  142.1400 C   0  0  0  0  0  3  0  0  0  0  0  0
  180.5190  174.2490  137.9420 C   0  0  0  0  0  2  0  0  0  0  0  0
  181.7890  174.9620  137.4750 C   0  0  2  0  0  3  0  0  0  0  0  0
  180.1140  176.1900  139.4950 C   0  0  0  0  0  0  0  0  0  0  0  0
  182.4640  175.6620  138.6540 C   0  0  0  0  0  2  0  0  0  0  0  0
  181.5100  176.4540  139.5130 C   0  0  0  0  0  0  0  0  0  0  0  0
  182.1630  178.5060  143.4850 C   0  0  0  0  0  2  0  0  0  0  0  0
  182.9560  179.5430  144.2700 C   0  0  0  0  0  2  0  0  0  0  0  0
  184.6140  179.0670  146.5570 O   0  0  0  0  0  0  0  0  0  0  0  0
  185.9560  178.0140  142.7950 C   0  0  0  0  0  2  0  0  0  0  0  0
  188.5310  177.4520  146.2100 C   0  0  0  0  0  0  0  0  0  0  0  0
  187.2670  178.0400  146.3710 C   0  0  0  0  0  3  0  0  0  0  0  0
  186.4340  178.2500  145.2650 C   0  0  0  0  0  0  0  0  0  0  0  0
  184.3820  179.2450  144.2290 N   0  0  0  0  0  0  0  0  0  0  0  0
  188.1200  177.2730  143.8200 C   0  0  0  0  0  3  0  0  0  0  0  0
  186.8680  177.8710  143.9810 C   0  0  0  0  0  0  0  0  0  0  0  0
  188.9490  177.0700  144.9260 C   0  0  0  0  0  3  0  0  0  0  0  0
  185.0660  179.2490  142.9380 C   0  0  0  0  0  2  0  0  0  0  0  0
  185.1100  178.8760  145.4130 C   0  0  0  0  0  0  0  0  0  0  0  0
  189.0680  177.6870  148.5100 O   0  0  0  0  0  0  0  0  0  0  0  0
  189.4030  177.2380  147.3810 C   0  0  0  0  0  0  0  0  0  0  0  0
  190.6880  176.4930  147.2580 C   0  0  0  0  0  1  0  0  0  0  0  0
  181.5270  175.9500  136.3390 C   0  0  0  0  0  2  0  0  0  0  0  0
  182.3620  177.2140  136.4960 C   0  0  0  0  0  2  0  0  0  0  0  0
  181.5520  178.4640  136.1910 C   0  0  0  0  0  2  0  0  0  0  0  0
  181.4530  179.3450  137.4230 C   0  0  0  0  0  1  0  0  0  0  0  0
  1  4  1  0  0  0  0
  1  8  1  0  0  0  0
  2 12  1  0  0  0  0
  3  7  1  0  0  0  0
  5  6  1  0  0  0  0
  5 15  1  1  0  0  0
  7  8  2  0  0  0  0
  7  9  1  0  0  0  0
  8  5  1  0  0  0  0
  9  6  2  0  0  0  0
 10  2  1  0  0  0  0
 11 31  1  6  0  0  0
 11 10  1  0  0  0  0
 11 13  1  0  0  0  0
 12 14  1  0  0  0  0
 12  3  2  0  0  0  0
 13 14  1  0  0  0  0
 14  1  2  0  0  0  0
 15 16  1  0  0  0  0
 18 26  1  0  0  0  0
 18 24  1  0  0  0  0
 19 20  1  0  0  0  0
 19 29  1  0  0  0  0
 21 27  1  0  0  0  0
 21 20  2  0  0  0  0
 22 16  1  0  0  0  0
 22 27  1  0  0  0  0
 23 24  2  0  0  0  0
 23 25  1  0  0  0  0
 24 21  1  0  0  0  0
 25 19  2  0  0  0  0
 26 22  1  0  0  0  0
 27 17  2  0  0  0  0
 29 28  2  0  0  0  0
 30 29  1  0  0  0  0
 31 32  1  0  0  0  0
 33 32  1  0  0  0  0
 33 34  1  0  0  0  0
M  END
>  <MODEL>
4

>  <REMARK>
 VINA RESULT:      -8.5      1.791      2.573
  Name = 
  7 active torsions:
  status: ('A' for Active; 'I' for Inactive)
    1  A    between atoms: C_3  and  C_24
    2  A    between atoms: C_7  and  C_15
    3  A    between atoms: C_8  and  C_17
    4  A    between atoms: C_8  and  N_18
    5  A    between atoms: C_10  and  C_17
    6  A    between atoms: C_24  and  C_25
    7  A    between atoms: C_25  and  C_27
                            x       y       z     vdW  Elec       q    Type
                         _______ _______ _______ _____ _____    ______ ____

>  <TORSDO>
F 7

$$$$
=
 OpenBabel11052415413D

 34 38  0  0  1  0  0  0  0  0999 V2000
  183.1390  179.0440  140.2920 C   0  0  0  0  0  0  0  0  0  0  0  0
  179.6690  177.9300  139.1000 C   0  0  0  0  0  2  0  0  0  0  0  0
  180.6670  178.2190  141.3630 C   0  0  0  0  0  3  0  0  0  0  0  0
  184.3570  179.4770  139.7790 O   0  0  0  0  0  1  0  0  0  0  0  0
  183.9080  179.3050  142.7520 C   0  0  2  0  0  3  0  0  0  0  0  0
  183.0540  179.2590  144.0280 C   0  0  0  0  0  3  0  0  0  0  0  0
  181.7280  178.5800  142.1900 C   0  0  0  0  0  0  0  0  0  0  0  0
  182.9390  178.9670  141.6760 C   0  0  0  0  0  0  0  0  0  0  0  0
  181.7020  178.6310  143.6650 C   0  0  0  0  0  3  0  0  0  0  0  0
  180.0750  177.6120  137.6620 C   0  0  0  0  0  2  0  0  0  0  0  0
  181.0390  178.6640  137.1120 C   0  0  2  0  0  3  0  0  0  0  0  0
  180.8470  178.2490  139.9730 C   0  0  0  0  0  0  0  0  0  0  0  0
  182.3240  178.6850  137.9390 C   0  0  0  0  0  2  0  0  0  0  0  0
  182.0850  178.6860  139.4280 C   0  0  0  0  0  0  0  0  0  0  0  0
  184.9890  178.2360  142.8610 C   0  0  0  0  0  2  0  0  0  0  0  0
  185.4940  178.0960  144.2900 C   0  0  0  0  0  2  0  0  0  0  0  0
  187.0910  177.8390  146.6550 O   0  0  0  0  0  0  0  0  0  0  0  0
  188.7010  176.8710  142.9760 C   0  0  0  0  0  2  0  0  0  0  0  0
  191.1680  176.6460  146.5080 C   0  0  0  0  0  0  0  0  0  0  0  0
  189.8430  177.0990  146.6020 C   0  0  0  0  0  3  0  0  0  0  0  0
  189.0420  177.2000  145.4580 C   0  0  0  0  0  0  0  0  0  0  0  0
  186.9440  177.9520  144.3160 N   0  0  0  0  0  0  0  0  0  0  0  0
  190.8850  176.3830  144.1060 C   0  0  0  0  0  3  0  0  0  0  0  0
  189.5700  176.8470  144.2020 C   0  0  0  0  0  0  0  0  0  0  0  0
  191.6800  176.2890  145.2500 C   0  0  0  0  0  3  0  0  0  0  0  0
  187.6810  178.0070  143.0550 C   0  0  0  0  0  2  0  0  0  0  0  0
  187.6540  177.6830  145.5370 C   0  0  0  0  0  0  0  0  0  0  0  0
  192.0560  177.5050  148.5350 O   0  0  0  0  0  0  0  0  0  0  0  0
  192.0050  176.5460  147.7190 C   0  0  0  0  0  0  0  0  0  0  0  0
  192.8050  175.3200  148.0030 C   0  0  0  0  0  1  0  0  0  0  0  0
  180.4160  180.0580  137.0490 C   0  0  0  0  0  2  0  0  0  0  0  0
  181.3620  181.1170  137.6000 C   0  0  0  0  0  2  0  0  0  0  0  0
  180.6080  182.2220  138.3230 C   0  0  0  0  0  2  0  0  0  0  0  0
  179.7940  181.6470  139.4670 C   0  0  0  0  0  1  0  0  0  0  0  0
  1  8  1  0  0  0  0
  2 12  1  0  0  0  0
  3  7  1  0  0  0  0
  4  1  1  0  0  0  0
  5 15  1  1  0  0  0
  5  6  1  0  0  0  0
  7  9  1  0  0  0  0
  8  7  2  0  0  0  0
  8  5  1  0  0  0  0
  9  6  2  0  0  0  0
 10  2  1  0  0  0  0
 11 31  1  1  0  0  0
 11 10  1  0  0  0  0
 11 13  1  0  0  0  0
 12  3  2  0  0  0  0
 13 14  1  0  0  0  0
 14 12  1  0  0  0  0
 14  1  2  0  0  0  0
 15 16  1  0  0  0  0
 16 22  1  0  0  0  0
 18 26  1  0  0  0  0
 18 24  1  0  0  0  0
 19 20  1  0  0  0  0
 19 29  1  0  0  0  0
 21 27  1  0  0  0  0
 21 20  2  0  0  0  0
 22 27  1  0  0  0  0
 23 24  2  0  0  0  0
 23 25  1  0  0  0  0
 24 21  1  0  0  0  0
 25 19  2  0  0  0  0
 26 22  1  0  0  0  0
 27 17  2  0  0  0  0
 29 30  1  0  0  0  0
 29 28  2  0  0  0  0
 31 32  1  0  0  0  0
 32 33  1  0  0  0  0
 33 34  1  0  0  0  0
M  END
>  <MODEL>
5

>  <REMARK>
 VINA RESULT:      -8.4      1.429      2.257
  Name = 
  7 active torsions:
  status: ('A' for Active; 'I' for Inactive)
    1  A    between atoms: C_3  and  C_24
    2  A    between atoms: C_7  and  C_15
    3  A    between atoms: C_8  and  C_17
    4  A    between atoms: C_8  and  N_18
    5  A    between atoms: C_10  and  C_17
    6  A    between atoms: C_24  and  C_25
    7  A    between atoms: C_25  and  C_27
                            x       y       z     vdW  Elec       q    Type
                         _______ _______ _______ _____ _____    ______ ____

>  <TORSDO>
F 7

$$$$
=
 OpenBabel11052415413D

 34 38  0  0  1  0  0  0  0  0999 V2000
  191.4690  176.6180  138.3540 C   0  0  0  0  0  0  0  0  0  0  0  0
  192.1960  174.4840  135.2510 C   0  0  0  0  0  2  0  0  0  0  0  0
  190.3200  176.0060  135.8550 C   0  0  0  0  0  3  0  0  0  0  0  0
  192.0360  176.9490  139.5800 O   0  0  0  0  0  1  0  0  0  0  0  0
  189.4260  178.1710  138.7050 C   0  0  2  0  0  3  0  0  0  0  0  0
  188.3710  178.6050  137.6780 C   0  0  0  0  0  3  0  0  0  0  0  0
  189.7100  176.9010  136.7310 C   0  0  0  0  0  0  0  0  0  0  0  0
  190.2560  177.1910  137.9550 C   0  0  0  0  0  0  0  0  0  0  0  0
  188.4690  177.6580  136.4750 C   0  0  0  0  0  3  0  0  0  0  0  0
  193.2420  173.5820  135.9050 C   0  0  0  0  0  2  0  0  0  0  0  0
  194.1720  174.3820  136.8170 C   0  0  2  0  0  3  0  0  0  0  0  0
  191.5160  175.3860  136.2400 C   0  0  0  0  0  0  0  0  0  0  0  0
  193.3740  175.0240  137.9520 C   0  0  0  0  0  2  0  0  0  0  0  0
  192.1120  175.7090  137.4900 C   0  0  0  0  0  0  0  0  0  0  0  0
  188.7120  177.4950  139.8700 C   0  0  0  0  0  2  0  0  0  0  0  0
  188.2980  178.5040  140.9320 C   0  0  0  0  0  2  0  0  0  0  0  0
  190.6440  177.8790  142.4510 O   0  0  0  0  0  0  0  0  0  0  0  0
  186.9560  177.9650  144.3110 C   0  0  0  0  0  2  0  0  0  0  0  0
  190.4580  176.8530  146.5730 C   0  0  0  0  0  0  0  0  0  0  0  0
  190.5640  177.1290  145.2010 C   0  0  0  0  0  3  0  0  0  0  0  0
  189.4300  177.4660  144.4530 C   0  0  0  0  0  0  0  0  0  0  0  0
  188.3060  177.8970  142.2560 N   0  0  0  0  0  0  0  0  0  0  0  0
  188.0640  177.2650  146.4480 C   0  0  0  0  0  3  0  0  0  0  0  0
  188.1710  177.5260  145.0800 C   0  0  0  0  0  0  0  0  0  0  0  0
  189.1980  176.9240  147.1880 C   0  0  0  0  0  3  0  0  0  0  0  0
  187.0350  177.4990  142.8580 C   0  0  0  0  0  2  0  0  0  0  0  0
  189.5210  177.7490  143.0110 C   0  0  0  0  0  0  0  0  0  0  0  0
  192.0500  177.2390  148.2900 O   0  0  0  0  0  0  0  0  0  0  0  0
  191.6590  176.4950  147.3520 C   0  0  0  0  0  0  0  0  0  0  0  0
  192.4320  175.2560  147.0490 C   0  0  0  0  0  1  0  0  0  0  0  0
  194.9770  175.4370  136.0600 C   0  0  0  0  0  2  0  0  0  0  0  0
  196.1030  174.8050  135.2510 C   0  0  0  0  0  2  0  0  0  0  0  0
  196.9160  173.8300  136.0870 C   0  0  0  0  0  2  0  0  0  0  0  0
  198.2110  174.4750  136.5440 C   0  0  0  0  0  1  0  0  0  0  0  0
  1  4  1  0  0  0  0
  2 10  1  0  0  0  0
  2 12  1  0  0  0  0
  3 12  2  0  0  0  0
  3  7  1  0  0  0  0
  5 15  1  1  0  0  0
  6  5  1  0  0  0  0
  7  8  2  0  0  0  0
  8  1  1  0  0  0  0
  8  5  1  0  0  0  0
  9  7  1  0  0  0  0
  9  6  2  0  0  0  0
 10 11  1  0  0  0  0
 11 31  1  6  0  0  0
 11 13  1  0  0  0  0
 12 14  1  0  0  0  0
 14 13  1  0  0  0  0
 14  1  2  0  0  0  0
 15 16  1  0  0  0  0
 16 22  1  0  0  0  0
 17 27  2  0  0  0  0
 18 24  1  0  0  0  0
 19 25  1  0  0  0  0
 19 29  1  0  0  0  0
 20 19  2  0  0  0  0
 21 24  2  0  0  0  0
 21 20  1  0  0  0  0
 22 26  1  0  0  0  0
 22 27  1  0  0  0  0
 23 25  2  0  0  0  0
 24 23  1  0  0  0  0
 26 18  1  0  0  0  0
 27 21  1  0  0  0  0
 29 28  2  0  0  0  0
 30 29  1  0  0  0  0
 32 31  1  0  0  0  0
 32 33  1  0  0  0  0
 33 34  1  0  0  0  0
M  END
>  <MODEL>
6

>  <REMARK>
 VINA RESULT:      -8.3      7.015      9.614
  Name = 
  7 active torsions:
  status: ('A' for Active; 'I' for Inactive)
    1  A    between atoms: C_3  and  C_24
    2  A    between atoms: C_7  and  C_15
    3  A    between atoms: C_8  and  C_17
    4  A    between atoms: C_8  and  N_18
    5  A    between atoms: C_10  and  C_17
    6  A    between atoms: C_24  and  C_25
    7  A    between atoms: C_25  and  C_27
                            x       y       z     vdW  Elec       q    Type
                         _______ _______ _______ _____ _____    ______ ____

>  <TORSDO>
F 7

$$$$
=
 OpenBabel11052415413D

 34 38  0  0  1  0  0  0  0  0999 V2000
  183.7020  178.8370  142.0380 C   0  0  0  0  0  0  0  0  0  0  0  0
  179.9980  178.7070  143.0210 C   0  0  0  0  0  2  0  0  0  0  0  0
  182.1030  178.6280  144.3490 C   0  0  0  0  0  3  0  0  0  0  0  0
  184.5040  178.9630  140.9090 O   0  0  0  0  0  1  0  0  0  0  0  0
  185.7240  178.7810  143.6580 C   0  0  2  0  0  3  0  0  0  0  0  0
  185.7220  178.8990  145.1890 C   0  0  0  0  0  3  0  0  0  0  0  0
  183.4930  178.6670  144.4340 C   0  0  0  0  0  0  0  0  0  0  0  0
  184.2770  178.7520  143.3120 C   0  0  0  0  0  0  0  0  0  0  0  0
  184.2880  178.6570  145.6770 C   0  0  0  0  0  3  0  0  0  0  0  0
  179.4640  178.3590  141.6330 C   0  0  0  0  0  2  0  0  0  0  0  0
  180.1900  179.1520  140.5450 C   0  0  2  0  0  3  0  0  0  0  0  0
  181.4970  178.6720  143.0860 C   0  0  0  0  0  0  0  0  0  0  0  0
  181.6780  178.8040  140.5440 C   0  0  0  0  0  2  0  0  0  0  0  0
  182.2980  178.8010  141.9190 C   0  0  0  0  0  0  0  0  0  0  0  0
  186.3950  177.4660  143.2790 C   0  0  0  0  0  2  0  0  0  0  0  0
  187.9100  177.5600  143.3960 C   0  0  0  0  0  2  0  0  0  0  0  0
  190.2890  176.2850  142.4350 O   0  0  0  0  0  0  0  0  0  0  0  0
  187.7920  178.2390  139.7860 C   0  0  0  0  0  2  0  0  0  0  0  0
  191.4580  176.4730  138.3520 C   0  0  0  0  0  0  0  0  0  0  0  0
  191.1440  176.4320  139.7190 C   0  0  0  0  0  3  0  0  0  0  0  0
  189.9700  177.0240  140.1980 C   0  0  0  0  0  0  0  0  0  0  0  0
  188.5190  177.7860  142.0920 N   0  0  0  0  0  0  0  0  0  0  0  0
  189.3990  177.7010  137.9390 C   0  0  0  0  0  3  0  0  0  0  0  0
  189.0960  177.6690  139.3020 C   0  0  0  0  0  0  0  0  0  0  0  0
  190.5750  177.1120  137.4670 C   0  0  0  0  0  3  0  0  0  0  0  0
  187.9320  178.7890  141.2050 C   0  0  0  0  0  2  0  0  0  0  0  0
  189.6300  176.9990  141.6300 C   0  0  0  0  0  0  0  0  0  0  0  0
  193.8190  176.2430  138.2810 O   0  0  0  0  0  0  0  0  0  0  0  0
  192.7000  175.8490  137.8570 C   0  0  0  0  0  0  0  0  0  0  0  0
  192.6610  174.7470  136.8530 C   0  0  0  0  0  1  0  0  0  0  0  0
  179.9880  180.6600  140.6800 C   0  0  0  0  0  2  0  0  0  0  0  0
  179.7960  181.3210  139.3210 C   0  0  0  0  0  2  0  0  0  0  0  0
  181.1210  181.5280  138.6050 C   0  0  0  0  0  2  0  0  0  0  0  0
  181.0540  180.9750  137.1940 C   0  0  0  0  0  1  0  0  0  0  0  0
  1  8  1  0  0  0  0
  2 12  1  0  0  0  0
  3  7  1  0  0  0  0
  4  1  1  0  0  0  0
  5 15  1  1  0  0  0
  5  6  1  0  0  0  0
  6  9  2  0  0  0  0
  7  9  1  0  0  0  0
  8  5  1  0  0  0  0
  8  7  2  0  0  0  0
 10  2  1  0  0  0  0
 11 31  1  1  0  0  0
 11 10  1  0  0  0  0
 12  3  2  0  0  0  0
 13 11  1  0  0  0  0
 13 14  1  0  0  0  0
 14  1  2  0  0  0  0
 14 12  1  0  0  0  0
 15 16  1  0  0  0  0
 18 26  1  0  0  0  0
 19 20  1  0  0  0  0
 20 21  2  0  0  0  0
 21 27  1  0  0  0  0
 22 16  1  0  0  0  0
 23 24  2  0  0  0  0
 24 18  1  0  0  0  0
 24 21  1  0  0  0  0
 25 23  1  0  0  0  0
 25 19  2  0  0  0  0
 26 22  1  0  0  0  0
 27 22  1  0  0  0  0
 27 17  2  0  0  0  0
 29 28  2  0  0  0  0
 29 19  1  0  0  0  0
 30 29  1  0  0  0  0
 32 31  1  0  0  0  0
 33 32  1  0  0  0  0
 34 33  1  0  0  0  0
M  END
>  <MODEL>
7

>  <REMARK>
 VINA RESULT:      -8.1      4.170      5.541
  Name = 
  7 active torsions:
  status: ('A' for Active; 'I' for Inactive)
    1  A    between atoms: C_3  and  C_24
    2  A    between atoms: C_7  and  C_15
    3  A    between atoms: C_8  and  C_17
    4  A    between atoms: C_8  and  N_18
    5  A    between atoms: C_10  and  C_17
    6  A    between atoms: C_24  and  C_25
    7  A    between atoms: C_25  and  C_27
                            x       y       z     vdW  Elec       q    Type
                         _______ _______ _______ _____ _____    ______ ____

>  <TORSDO>
F 7

$$$$
=
 OpenBabel11052415413D

 34 38  0  0  1  0  0  0  0  0999 V2000
  185.1770  178.4190  142.3480 C   0  0  0  0  0  0  0  0  0  0  0  0
  181.4540  178.7510  141.4930 C   0  0  0  0  0  2  0  0  0  0  0  0
  182.7060  178.8090  143.6440 C   0  0  0  0  0  3  0  0  0  0  0  0
  186.4070  178.2520  141.7200 O   0  0  0  0  0  1  0  0  0  0  0  0
  186.2290  178.5660  144.7110 C   0  0  2  0  0  3  0  0  0  0  0  0
  185.5650  179.0020  146.0250 C   0  0  0  0  0  3  0  0  0  0  0  0
  183.8990  178.7690  144.3620 C   0  0  0  0  0  0  0  0  0  0  0  0
  185.1040  178.5650  143.7390 C   0  0  0  0  0  0  0  0  0  0  0  0
  184.0460  178.9660  145.8170 C   0  0  0  0  0  3  0  0  0  0  0  0
  181.5470  178.1570  140.0880 C   0  0  0  0  0  2  0  0  0  0  0  0
  182.7960  178.6530  139.3580 C   0  0  2  0  0  3  0  0  0  0  0  0
  182.7410  178.6290  142.2550 C   0  0  0  0  0  0  0  0  0  0  0  0
  184.0530  178.2120  140.1060 C   0  0  0  0  0  2  0  0  0  0  0  0
  183.9870  178.4550  141.5940 C   0  0  0  0  0  0  0  0  0  0  0  0
  186.7830  177.1590  144.8980 C   0  0  0  0  0  2  0  0  0  0  0  0
  188.1390  177.1800  145.5900 C   0  0  0  0  0  2  0  0  0  0  0  0
  187.9300  176.0570  142.9630 O   0  0  0  0  0  0  0  0  0  0  0  0
  191.1430  178.4740  143.9130 C   0  0  0  0  0  2  0  0  0  0  0  0
  190.9300  176.6490  140.0100 C   0  0  0  0  0  0  0  0  0  0  0  0
  189.9420  176.3780  140.9690 C   0  0  0  0  0  3  0  0  0  0  0  0
  190.0160  176.9450  142.2470 C   0  0  0  0  0  0  0  0  0  0  0  0
  189.2210  177.1110  144.6160 N   0  0  0  0  0  0  0  0  0  0  0  0
  192.0690  178.0750  141.6180 C   0  0  0  0  0  3  0  0  0  0  0  0
  191.0910  177.7920  142.5750 C   0  0  0  0  0  0  0  0  0  0  0  0
  191.9930  177.5030  140.3460 C   0  0  0  0  0  3  0  0  0  0  0  0
  190.5490  177.5810  145.0020 C   0  0  0  0  0  2  0  0  0  0  0  0
  188.9940  176.6630  143.2680 C   0  0  0  0  0  0  0  0  0  0  0  0
  191.6250  175.1080  138.3430 O   0  0  0  0  0  0  0  0  0  0  0  0
  190.8460  176.0440  138.6670 C   0  0  0  0  0  0  0  0  0  0  0  0
  189.8450  176.5220  137.6690 C   0  0  0  0  0  1  0  0  0  0  0  0
  182.7950  180.1670  139.1490 C   0  0  0  0  0  2  0  0  0  0  0  0
  181.7480  180.5880  138.1250 C   0  0  0  0  0  2  0  0  0  0  0  0
  180.8340  181.6730  138.6700 C   0  0  0  0  0  2  0  0  0  0  0  0
  180.7670  182.8440  137.7080 C   0  0  0  0  0  1  0  0  0  0  0  0
  1  8  1  0  0  0  0
  2 12  1  0  0  0  0
  3  7  1  0  0  0  0
  4  1  1  0  0  0  0
  5 15  1  1  0  0  0
  5  6  1  0  0  0  0
  7  9  1  0  0  0  0
  8  7  2  0  0  0  0
  8  5  1  0  0  0  0
  9  6  2  0  0  0  0
 10  2  1  0  0  0  0
 11 31  1  1  0  0  0
 11 10  1  0  0  0  0
 11 13  1  0  0  0  0
 12  3  2  0  0  0  0
 13 14  1  0  0  0  0
 14 12  1  0  0  0  0
 14  1  2  0  0  0  0
 15 16  1  0  0  0  0
 17 27  2  0  0  0  0
 18 26  1  0  0  0  0
 19 25  2  0  0  0  0
 19 20  1  0  0  0  0
 20 21  2  0  0  0  0
 21 24  1  0  0  0  0
 21 27  1  0  0  0  0
 22 26  1  0  0  0  0
 22 16  1  0  0  0  0
 23 24  2  0  0  0  0
 24 18  1  0  0  0  0
 25 23  1  0  0  0  0
 27 22  1  0  0  0  0
 28 29  2  0  0  0  0
 29 19  1  0  0  0  0
 30 29  1  0  0  0  0
 32 33  1  0  0  0  0
 32 31  1  0  0  0  0
 34 33  1  0  0  0  0
M  END
>  <MODEL>
8

>  <REMARK>
 VINA RESULT:      -8.0      3.260      4.919
  Name = 
  7 active torsions:
  status: ('A' for Active; 'I' for Inactive)
    1  A    between atoms: C_3  and  C_24
    2  A    between atoms: C_7  and  C_15
    3  A    between atoms: C_8  and  C_17
    4  A    between atoms: C_8  and  N_18
    5  A    between atoms: C_10  and  C_17
    6  A    between atoms: C_24  and  C_25
    7  A    between atoms: C_25  and  C_27
                            x       y       z     vdW  Elec       q    Type
                         _______ _______ _______ _____ _____    ______ ____

>  <TORSDO>
F 7

$$$$
=
 OpenBabel11052415413D

 34 38  0  0  1  0  0  0  0  0999 V2000
  186.9010  174.9290  137.0510 C   0  0  0  0  0  0  0  0  0  0  0  0
  183.1650  175.7820  136.8950 C   0  0  0  0  0  2  0  0  0  0  0  0
  185.2220  177.1860  136.8880 C   0  0  0  0  0  3  0  0  0  0  0  0
  187.7430  173.8230  137.1070 O   0  0  0  0  0  1  0  0  0  0  0  0
  188.8660  176.6160  136.9790 C   0  0  2  0  0  3  0  0  0  0  0  0
  188.8220  178.1170  136.6610 C   0  0  0  0  0  3  0  0  0  0  0  0
  186.6090  177.3160  136.8970 C   0  0  0  0  0  0  0  0  0  0  0  0
  187.4310  176.2230  136.9920 C   0  0  0  0  0  0  0  0  0  0  0  0
  187.3630  178.5790  136.7760 C   0  0  0  0  0  3  0  0  0  0  0  0
  182.6600  174.4310  137.3990 C   0  0  0  0  0  2  0  0  0  0  0  0
  183.4550  173.2780  136.7870 C   0  0  2  0  0  3  0  0  0  0  0  0
  184.6580  175.9060  136.9840 C   0  0  0  0  0  0  0  0  0  0  0  0
  184.9250  173.3770  137.1940 C   0  0  0  0  0  2  0  0  0  0  0  0
  185.5010  174.7630  137.0430 C   0  0  0  0  0  0  0  0  0  0  0  0
  189.4870  176.4360  138.3590 C   0  0  0  0  0  2  0  0  0  0  0  0
  189.8770  177.7730  138.9740 C   0  0  0  0  0  2  0  0  0  0  0  0
  187.3750  178.6090  140.0910 O   0  0  0  0  0  0  0  0  0  0  0  0
  190.0530  176.4860  142.4120 C   0  0  0  0  0  2  0  0  0  0  0  0
  186.3660  177.8880  144.1570 C   0  0  0  0  0  0  0  0  0  0  0  0
  186.6780  178.2000  142.8250 C   0  0  0  0  0  3  0  0  0  0  0  0
  187.8830  177.7710  142.2570 C   0  0  0  0  0  0  0  0  0  0  0  0
  189.5580  177.8030  140.3950 N   0  0  0  0  0  0  0  0  0  0  0  0
  188.4790  176.7000  144.3510 C   0  0  0  0  0  3  0  0  0  0  0  0
  188.7920  177.0240  143.0290 C   0  0  0  0  0  0  0  0  0  0  0  0
  187.2770  177.1350  144.9140 C   0  0  0  0  0  3  0  0  0  0  0  0
  190.5980  177.4510  141.3590 C   0  0  0  0  0  2  0  0  0  0  0  0
  188.2310  178.0980  140.8640 C   0  0  0  0  0  0  0  0  0  0  0  0
  184.1080  178.6040  144.0070 O   0  0  0  0  0  0  0  0  0  0  0  0
  185.0940  178.3480  144.7480 C   0  0  0  0  0  0  0  0  0  0  0  0
  184.9470  178.5180  146.2220 C   0  0  0  0  0  1  0  0  0  0  0  0
  183.3200  173.2090  135.2670 C   0  0  0  0  0  2  0  0  0  0  0  0
  183.3800  171.7720  134.7660 C   0  0  0  0  0  2  0  0  0  0  0  0
  182.6920  170.8140  135.7240 C   0  0  0  0  0  2  0  0  0  0  0  0
  183.5910  169.6290  136.0270 C   0  0  0  0  0  1  0  0  0  0  0  0
  1  4  1  0  0  0  0
  2 12  1  0  0  0  0
  2 10  1  0  0  0  0
  3  7  2  0  0  0  0
  3 12  1  0  0  0  0
  5  8  1  0  0  0  0
  5 15  1  1  0  0  0
  6  9  2  0  0  0  0
  6  5  1  0  0  0  0
  7  8  1  0  0  0  0
  8  1  2  0  0  0  0
  9  7  1  0  0  0  0
 11 31  1  6  0  0  0
 11 13  1  0  0  0  0
 11 10  1  0  0  0  0
 12 14  2  0  0  0  0
 14  1  1  0  0  0  0
 14 13  1  0  0  0  0
 15 16  1  0  0  0  0
 16 22  1  0  0  0  0
 17 27  2  0  0  0  0
 18 24  1  0  0  0  0
 19 29  1  0  0  0  0
 19 25  1  0  0  0  0
 20 19  2  0  0  0  0
 21 20  1  0  0  0  0
 21 24  2  0  0  0  0
 22 27  1  0  0  0  0
 22 26  1  0  0  0  0
 23 25  2  0  0  0  0
 24 23  1  0  0  0  0
 26 18  1  0  0  0  0
 27 21  1  0  0  0  0
 28 29  2  0  0  0  0
 29 30  1  0  0  0  0
 32 31  1  0  0  0  0
 32 33  1  0  0  0  0
 33 34  1  0  0  0  0
M  END
>  <MODEL>
9

>  <REMARK>
 VINA RESULT:      -7.9      4.919      7.065
  Name = 
  7 active torsions:
  status: ('A' for Active; 'I' for Inactive)
    1  A    between atoms: C_3  and  C_24
    2  A    between atoms: C_7  and  C_15
    3  A    between atoms: C_8  and  C_17
    4  A    between atoms: C_8  and  N_18
    5  A    between atoms: C_10  and  C_17
    6  A    between atoms: C_24  and  C_25
    7  A    between atoms: C_25  and  C_27
                            x       y       z     vdW  Elec       q    Type
                         _______ _______ _______ _____ _____    ______ ____

>  <TORSDO>
F 7

$$$$
