=
 OpenBabel11052414223D

 34 38  0  0  1  0  0  0  0  0999 V2000
  190.4660  177.2600  146.5500 C   0  0  0  0  0  0  0  0  0  0  0  0
  191.4690  175.4720  145.2440 C   0  0  0  0  0  0  0  0  0  0  0  0
  189.6140  176.9470  144.2360 C   0  0  0  0  0  0  0  0  0  0  0  0
  188.9000  177.3510  141.9430 C   0  0  0  0  0  0  0  0  0  0  0  0
  191.3480  176.9890  147.5990 C   0  0  0  0  0  3  0  0  0  0  0  0
  192.3410  175.2080  146.3060 C   0  0  0  0  0  3  0  0  0  0  0  0
  191.3840  176.8780  142.4530 C   0  0  0  0  0  2  0  0  0  0  0  0
  190.5730  176.5680  145.3230 C   0  0  0  0  0  0  0  0  0  0  0  0
  191.6050  177.5610  141.1040 C   0  0  0  0  0  2  0  0  0  0  0  0
  189.1720  177.4060  140.6370 C   0  0  0  0  0  3  0  0  0  0  0  0
  192.2990  175.9780  147.4670 C   0  0  0  0  0  3  0  0  0  0  0  0
  188.2680  177.4410  144.6730 C   0  0  0  0  0  0  0  0  0  0  0  0
  189.3680  178.2570  146.7560 C   0  0  0  0  0  2  0  0  0  0  0  0
  191.4360  174.4830  144.1270 C   0  0  0  0  0  1  0  0  0  0  0  0
  187.6110  177.6300  142.3920 O   0  0  0  0  0  0  0  0  0  0  0  0
  187.3030  177.7130  143.7580 C   0  0  0  0  0  0  0  0  0  0  0  0
  190.5420  177.0950  140.1090 C   0  0  1  0  0  3  0  0  0  0  0  0
  189.9580  177.0340  142.9310 C   0  0  0  0  0  0  0  0  0  0  0  0
  188.0740  177.7200  146.1430 C   0  0  0  0  0  2  0  0  0  0  0  0
  183.6540  178.6250  143.3870 C   0  0  0  0  0  0  0  0  0  0  0  0
  183.2650  178.8200  144.7150 C   0  0  0  0  0  3  0  0  0  0  0  0
  185.9230  178.1280  144.1120 C   0  0  0  0  0  0  0  0  0  0  0  0
  184.1960  178.6620  145.7430 C   0  0  0  0  0  3  0  0  0  0  0  0
  184.9740  178.2750  143.0890 C   0  0  0  0  0  3  0  0  0  0  0  0
  185.5160  178.3120  145.4450 C   0  0  0  0  0  3  0  0  0  0  0  0
  182.7050  178.7780  142.3380 N   0  0  0  0  0  1  0  0  0  0  0  0
  190.7330  177.7700  138.7640 C   0  0  0  0  0  2  0  0  0  0  0  0
  189.6010  177.3960  137.8210 C   0  0  0  0  0  2  0  0  0  0  0  0
  189.0700  179.7330  137.9420 O   0  0  0  0  0  1  0  0  0  0  0  0
  189.1010  178.6290  137.0850 C   0  0  2  0  0  3  0  0  0  0  0  0
  187.7220  178.3890  136.4710 C   0  0  0  0  0  2  0  0  0  0  0  0
  186.2330  178.5280  138.4720 O   0  0  0  0  0  1  0  0  0  0  0  0
  186.7610  177.7710  137.4350 C   0  0  0  0  0  0  0  0  0  0  0  0
  186.4100  176.5710  137.2920 O   0  0  0  0  0  0  0  0  0  0  0  0
  1 13  1  0  0  0  0
  1  5  1  0  0  0  0
  2  8  1  0  0  0  0
  2  6  2  0  0  0  0
  3 12  1  0  0  0  0
  3  8  1  0  0  0  0
  4 15  1  0  0  0  0
  4 18  1  0  0  0  0
  6 11  1  0  0  0  0
  7 18  1  0  0  0  0
  8  1  2  0  0  0  0
  9  7  1  0  0  0  0
 10  4  2  0  0  0  0
 11  5  2  0  0  0  0
 12 19  1  0  0  0  0
 14  2  1  0  0  0  0
 15 16  1  0  0  0  0
 16 22  1  0  0  0  0
 16 12  2  0  0  0  0
 17 27  1  6  0  0  0
 17 10  1  0  0  0  0
 17  9  1  0  0  0  0
 18  3  2  0  0  0  0
 19 13  1  0  0  0  0
 20 21  1  0  0  0  0
 21 23  2  0  0  0  0
 22 25  2  0  0  0  0
 24 20  2  0  0  0  0
 24 22  1  0  0  0  0
 25 23  1  0  0  0  0
 26 20  1  0  0  0  0
 28 27  1  0  0  0  0
 30 28  1  0  0  0  0
 30 29  1  1  0  0  0
 31 30  1  0  0  0  0
 31 33  1  0  0  0  0
 33 32  1  0  0  0  0
 34 33  2  0  0  0  0
M  END
>  <MODEL>
1

>  <REMARK>
 VINA RESULT:      -9.8      0.000      0.000
  Name = 
  6 active torsions:
  status: ('A' for Active; 'I' for Inactive)
    1  A    between atoms: C_3  and  C_13
    2  A    between atoms: C_3  and  C_29
    3  A    between atoms: C_12  and  C_28
    4  A    between atoms: C_13  and  C_33
    5  A    between atoms: C_20  and  C_22
    6  A    between atoms: C_22  and  C_33
                            x       y       z     vdW  Elec       q    Type
                         _______ _______ _______ _____ _____    ______ ____

>  <TORSDO>
F 6

$$$$
=
 OpenBabel11052414223D

 34 38  0  0  1  0  0  0  0  0999 V2000
  190.5350  177.2800  146.7370 C   0  0  0  0  0  0  0  0  0  0  0  0
  191.5990  175.4800  145.4980 C   0  0  0  0  0  0  0  0  0  0  0  0
  189.7710  176.9230  144.3980 C   0  0  0  0  0  0  0  0  0  0  0  0
  189.1400  177.2840  142.0740 C   0  0  0  0  0  0  0  0  0  0  0  0
  191.3800  177.0340  147.8210 C   0  0  0  0  0  3  0  0  0  0  0  0
  192.4320  175.2400  146.5950 C   0  0  0  0  0  3  0  0  0  0  0  0
  191.6060  176.8390  142.6830 C   0  0  0  0  0  2  0  0  0  0  0  0
  190.6920  176.5700  145.5260 C   0  0  0  0  0  0  0  0  0  0  0  0
  191.8720  177.5020  141.3320 C   0  0  0  0  0  2  0  0  0  0  0  0
  189.4590  177.3200  140.7780 C   0  0  0  0  0  3  0  0  0  0  0  0
  192.3420  176.0290  147.7410 C   0  0  0  0  0  3  0  0  0  0  0  0
  188.4060  177.4140  144.7760 C   0  0  0  0  0  0  0  0  0  0  0  0
  189.4220  178.2730  146.8850 C   0  0  0  0  0  2  0  0  0  0  0  0
  191.6140  174.4720  144.3970 C   0  0  0  0  0  1  0  0  0  0  0  0
  187.8330  177.5600  142.4700 O   0  0  0  0  0  0  0  0  0  0  0  0
  187.4740  177.6630  143.8220 C   0  0  0  0  0  0  0  0  0  0  0  0
  190.8500  177.0110  140.3060 C   0  0  1  0  0  3  0  0  0  0  0  0
  190.1620  176.9910  143.1050 C   0  0  0  0  0  0  0  0  0  0  0  0
  188.1560  177.7150  146.2330 C   0  0  0  0  0  2  0  0  0  0  0  0
  183.8400  178.5580  143.2990 C   0  0  0  0  0  0  0  0  0  0  0  0
  183.3960  178.7540  144.6090 C   0  0  0  0  0  3  0  0  0  0  0  0
  186.0790  178.0730  144.1180 C   0  0  0  0  0  0  0  0  0  0  0  0
  184.2840  178.6020  145.6760 C   0  0  0  0  0  3  0  0  0  0  0  0
  185.1720  178.2130  143.0570 C   0  0  0  0  0  3  0  0  0  0  0  0
  185.6160  178.2570  145.4330 C   0  0  0  0  0  3  0  0  0  0  0  0
  182.9340  178.7050  142.2120 N   0  0  0  0  0  1  0  0  0  0  0  0
  191.0860  177.6660  138.9580 C   0  0  0  0  0  2  0  0  0  0  0  0
  190.5010  176.8100  137.8470 C   0  0  0  0  0  2  0  0  0  0  0  0
  191.4320  174.6000  137.9510 O   0  0  0  0  0  1  0  0  0  0  0  0
  191.5500  175.8430  137.3200 C   0  0  2  0  0  3  0  0  0  0  0  0
  192.9610  176.4020  137.4960 C   0  0  0  0  0  2  0  0  0  0  0  0
  193.3990  175.4130  135.2440 O   0  0  0  0  0  0  0  0  0  0  0  0
  193.7880  176.2800  136.2560 C   0  0  0  0  0  0  0  0  0  0  0  0
  194.8240  176.9820  136.1190 O   0  0  0  0  0  1  0  0  0  0  0  0
  1 13  1  0  0  0  0
  1  5  1  0  0  0  0
  2  8  1  0  0  0  0
  2  6  2  0  0  0  0
  3 12  1  0  0  0  0
  3  8  1  0  0  0  0
  4 15  1  0  0  0  0
  4 18  1  0  0  0  0
  6 11  1  0  0  0  0
  7 18  1  0  0  0  0
  8  1  2  0  0  0  0
  9  7  1  0  0  0  0
 10  4  2  0  0  0  0
 11  5  2  0  0  0  0
 12 19  1  0  0  0  0
 14  2  1  0  0  0  0
 15 16  1  0  0  0  0
 16 22  1  0  0  0  0
 16 12  2  0  0  0  0
 17 27  1  6  0  0  0
 17 10  1  0  0  0  0
 17  9  1  0  0  0  0
 18  3  2  0  0  0  0
 19 13  1  0  0  0  0
 20 21  1  0  0  0  0
 21 23  2  0  0  0  0
 22 25  2  0  0  0  0
 24 20  2  0  0  0  0
 24 22  1  0  0  0  0
 25 23  1  0  0  0  0
 26 20  1  0  0  0  0
 28 27  1  0  0  0  0
 30 31  1  0  0  0  0
 30 28  1  0  0  0  0
 30 29  1  1  0  0  0
 32 33  2  0  0  0  0
 33 31  1  0  0  0  0
 34 33  1  0  0  0  0
M  END
>  <MODEL>
2

>  <REMARK>
 VINA RESULT:      -9.4      2.128      2.859
  Name = 
  6 active torsions:
  status: ('A' for Active; 'I' for Inactive)
    1  A    between atoms: C_3  and  C_13
    2  A    between atoms: C_3  and  C_29
    3  A    between atoms: C_12  and  C_28
    4  A    between atoms: C_13  and  C_33
    5  A    between atoms: C_20  and  C_22
    6  A    between atoms: C_22  and  C_33
                            x       y       z     vdW  Elec       q    Type
                         _______ _______ _______ _____ _____    ______ ____

>  <TORSDO>
F 6

$$$$
=
 OpenBabel11052414223D

 34 38  0  0  1  0  0  0  0  0999 V2000
  185.2470  178.9670  144.7690 C   0  0  0  0  0  0  0  0  0  0  0  0
  187.0390  177.3660  144.4070 C   0  0  0  0  0  0  0  0  0  0  0  0
  185.6610  178.2590  142.4230 C   0  0  0  0  0  0  0  0  0  0  0  0
  186.0620  178.2780  140.0210 C   0  0  0  0  0  0  0  0  0  0  0  0
  185.5580  179.0090  146.1300 C   0  0  0  0  0  3  0  0  0  0  0  0
  187.3330  177.4120  145.7740 C   0  0  0  0  0  3  0  0  0  0  0  0
  188.0470  178.4610  141.6580 C   0  0  0  0  0  2  0  0  0  0  0  0
  186.0390  178.2170  143.8720 C   0  0  0  0  0  0  0  0  0  0  0  0
  188.7600  179.0570  140.4450 C   0  0  0  0  0  2  0  0  0  0  0  0
  186.9070  178.2830  138.9860 C   0  0  0  0  0  3  0  0  0  0  0  0
  186.6150  178.2480  146.6270 C   0  0  0  0  0  3  0  0  0  0  0  0
  184.2070  178.4520  142.1150 C   0  0  0  0  0  0  0  0  0  0  0  0
  184.0290  179.6860  144.2740 C   0  0  0  0  0  2  0  0  0  0  0  0
  187.7090  176.3040  143.6010 C   0  0  0  0  0  1  0  0  0  0  0  0
  184.6890  178.2780  139.7900 O   0  0  0  0  0  0  0  0  0  0  0  0
  183.7610  178.4030  140.8340 C   0  0  0  0  0  0  0  0  0  0  0  0
  188.3930  178.2650  139.1910 C   0  0  1  0  0  3  0  0  0  0  0  0
  186.5620  178.3110  141.4150 C   0  0  0  0  0  0  0  0  0  0  0  0
  183.2940  178.8020  143.2640 C   0  0  0  0  0  2  0  0  0  0  0  0
  180.5010  179.8630  139.5980 C   0  0  0  0  0  0  0  0  0  0  0  0
  179.6540  178.7520  139.6270 C   0  0  0  0  0  3  0  0  0  0  0  0
  182.3300  178.5050  140.4550 C   0  0  0  0  0  0  0  0  0  0  0  0
  180.1410  177.5160  140.0570 C   0  0  0  0  0  3  0  0  0  0  0  0
  181.8330  179.7370  140.0040 C   0  0  0  0  0  3  0  0  0  0  0  0
  181.4720  177.3910  140.4620 C   0  0  0  0  0  3  0  0  0  0  0  0
  180.0090  181.1210  139.1530 N   0  0  0  0  0  1  0  0  0  0  0  0
  189.0800  178.8450  137.9680 C   0  0  0  0  0  2  0  0  0  0  0  0
  188.6980  178.0600  136.7250 C   0  0  0  0  0  2  0  0  0  0  0  0
  189.8220  176.7570  135.0540 O   0  0  0  0  0  1  0  0  0  0  0  0
  189.7470  177.0010  136.4280 C   0  0  2  0  0  3  0  0  0  0  0  0
  189.4630  175.7060  137.1880 C   0  0  0  0  0  2  0  0  0  0  0  0
  191.4810  174.3130  137.6630 O   0  0  0  0  0  0  0  0  0  0  0  0
  190.5950  175.2980  138.0760 C   0  0  0  0  0  0  0  0  0  0  0  0
  190.7590  175.8650  139.1870 O   0  0  0  0  0  1  0  0  0  0  0  0
  1  5  1  0  0  0  0
  2  6  2  0  0  0  0
  3  8  1  0  0  0  0
  4 18  1  0  0  0  0
  5 11  2  0  0  0  0
  6 11  1  0  0  0  0
  8  2  1  0  0  0  0
  8  1  2  0  0  0  0
  9  7  1  0  0  0  0
 10 17  1  0  0  0  0
 10  4  2  0  0  0  0
 12  3  1  0  0  0  0
 12 19  1  0  0  0  0
 13  1  1  0  0  0  0
 14  2  1  0  0  0  0
 15  4  1  0  0  0  0
 15 16  1  0  0  0  0
 16 12  2  0  0  0  0
 17 27  1  6  0  0  0
 17  9  1  0  0  0  0
 18  7  1  0  0  0  0
 18  3  2  0  0  0  0
 19 13  1  0  0  0  0
 20 21  2  0  0  0  0
 20 24  1  0  0  0  0
 21 23  1  0  0  0  0
 22 25  1  0  0  0  0
 22 16  1  0  0  0  0
 23 25  2  0  0  0  0
 24 22  2  0  0  0  0
 26 20  1  0  0  0  0
 28 27  1  0  0  0  0
 30 29  1  6  0  0  0
 30 28  1  0  0  0  0
 30 31  1  0  0  0  0
 31 33  1  0  0  0  0
 32 33  2  0  0  0  0
 33 34  1  0  0  0  0
M  END
>  <MODEL>
3

>  <REMARK>
 VINA RESULT:      -9.1      2.878      4.804
  Name = 
  6 active torsions:
  status: ('A' for Active; 'I' for Inactive)
    1  A    between atoms: C_3  and  C_13
    2  A    between atoms: C_3  and  C_29
    3  A    between atoms: C_12  and  C_28
    4  A    between atoms: C_13  and  C_33
    5  A    between atoms: C_20  and  C_22
    6  A    between atoms: C_22  and  C_33
                            x       y       z     vdW  Elec       q    Type
                         _______ _______ _______ _____ _____    ______ ____

>  <TORSDO>
F 6

$$$$
=
 OpenBabel11052414223D

 34 38  0  0  1  0  0  0  0  0999 V2000
  191.1330  175.8120  145.2120 C   0  0  0  0  0  0  0  0  0  0  0  0
  190.4030  177.5170  146.7830 C   0  0  0  0  0  0  0  0  0  0  0  0
  189.2730  177.2920  144.4800 C   0  0  0  0  0  0  0  0  0  0  0  0
  187.1510  178.1050  143.6050 C   0  0  0  0  0  0  0  0  0  0  0  0
  192.0370  175.3260  146.1580 C   0  0  0  0  0  3  0  0  0  0  0  0
  191.3190  177.0230  147.7180 C   0  0  0  0  0  3  0  0  0  0  0  0
  187.3550  177.4630  146.0950 C   0  0  0  0  0  2  0  0  0  0  0  0
  190.2380  176.8560  145.5400 C   0  0  0  0  0  0  0  0  0  0  0  0
  185.8340  177.3450  146.0030 C   0  0  0  0  0  2  0  0  0  0  0  0
  185.8870  178.4870  143.8000 C   0  0  0  0  0  3  0  0  0  0  0  0
  192.1140  175.9170  147.4180 C   0  0  0  0  0  3  0  0  0  0  0  0
  189.7310  177.1520  143.0600 C   0  0  0  0  0  0  0  0  0  0  0  0
  191.1540  175.2530  143.8220 C   0  0  0  0  0  2  0  0  0  0  0  0
  189.7420  178.8170  147.0990 C   0  0  0  0  0  1  0  0  0  0  0  0
  187.6870  178.1250  142.3190 O   0  0  0  0  0  0  0  0  0  0  0  0
  188.9630  177.6140  142.0400 C   0  0  0  0  0  0  0  0  0  0  0  0
  185.2760  178.4990  145.1710 C   0  0  1  0  0  3  0  0  0  0  0  0
  187.9860  177.6220  144.7300 C   0  0  0  0  0  0  0  0  0  0  0  0
  191.0120  176.3940  142.8140 C   0  0  0  0  0  2  0  0  0  0  0  0
  189.1530  178.4920  138.3690 C   0  0  0  0  0  0  0  0  0  0  0  0
  190.1810  177.6580  137.9210 C   0  0  0  0  0  3  0  0  0  0  0  0
  189.3800  177.5850  140.6160 C   0  0  0  0  0  0  0  0  0  0  0  0
  190.8170  176.7950  138.8170 C   0  0  0  0  0  3  0  0  0  0  0  0
  188.7600  178.4600  139.7100 C   0  0  0  0  0  3  0  0  0  0  0  0
  190.4230  176.7640  140.1570 C   0  0  0  0  0  3  0  0  0  0  0  0
  188.5100  179.3770  137.4600 N   0  0  0  0  0  1  0  0  0  0  0  0
  183.7660  178.3970  145.0540 C   0  0  0  0  0  2  0  0  0  0  0  0
  183.2490  179.3820  144.0210 C   0  0  0  0  0  2  0  0  0  0  0  0
  182.6200  178.6210  141.8340 O   0  0  0  0  0  1  0  0  0  0  0  0
  182.1820  178.7280  143.1570 C   0  0  2  0  0  3  0  0  0  0  0  0
  180.8630  179.4960  143.2250 C   0  0  0  0  0  2  0  0  0  0  0  0
  178.9870  178.6190  144.6210 O   0  0  0  0  0  1  0  0  0  0  0  0
  179.6830  178.5990  143.4200 C   0  0  0  0  0  0  0  0  0  0  0  0
  179.3050  177.8440  142.4880 O   0  0  0  0  0  0  0  0  0  0  0  0
  1  8  2  0  0  0  0
  1  5  1  0  0  0  0
  2 14  1  0  0  0  0
  2  6  2  0  0  0  0
  3 18  2  0  0  0  0
  3  8  1  0  0  0  0
  4 10  2  0  0  0  0
  4 18  1  0  0  0  0
  5 11  2  0  0  0  0
  8  2  1  0  0  0  0
  9  7  1  0  0  0  0
 10 17  1  0  0  0  0
 11  6  1  0  0  0  0
 12  3  1  0  0  0  0
 13  1  1  0  0  0  0
 15  4  1  0  0  0  0
 16 15  1  0  0  0  0
 16 12  2  0  0  0  0
 17 27  1  6  0  0  0
 17  9  1  0  0  0  0
 18  7  1  0  0  0  0
 19 12  1  0  0  0  0
 19 13  1  0  0  0  0
 20 24  1  0  0  0  0
 21 20  2  0  0  0  0
 21 23  1  0  0  0  0
 22 16  1  0  0  0  0
 23 25  2  0  0  0  0
 24 22  2  0  0  0  0
 25 22  1  0  0  0  0
 26 20  1  0  0  0  0
 28 27  1  0  0  0  0
 30 29  1  6  0  0  0
 30 31  1  0  0  0  0
 30 28  1  0  0  0  0
 31 33  1  0  0  0  0
 33 32  1  0  0  0  0
 34 33  2  0  0  0  0
M  END
>  <MODEL>
4

>  <REMARK>
 VINA RESULT:      -8.9      2.792      6.321
  Name = 
  6 active torsions:
  status: ('A' for Active; 'I' for Inactive)
    1  A    between atoms: C_3  and  C_13
    2  A    between atoms: C_3  and  C_29
    3  A    between atoms: C_12  and  C_28
    4  A    between atoms: C_13  and  C_33
    5  A    between atoms: C_20  and  C_22
    6  A    between atoms: C_22  and  C_33
                            x       y       z     vdW  Elec       q    Type
                         _______ _______ _______ _____ _____    ______ ____

>  <TORSDO>
F 6

$$$$
=
 OpenBabel11052414223D

 34 38  0  0  1  0  0  0  0  0999 V2000
  186.1960  176.8340  136.2820 C   0  0  0  0  0  0  0  0  0  0  0  0
  188.2860  178.0390  136.5790 C   0  0  0  0  0  0  0  0  0  0  0  0
  186.4930  178.0540  138.4280 C   0  0  0  0  0  0  0  0  0  0  0  0
  186.5810  178.6120  140.7970 C   0  0  0  0  0  0  0  0  0  0  0  0
  186.6490  176.3510  135.0530 C   0  0  0  0  0  3  0  0  0  0  0  0
  188.7220  177.5530  135.3420 C   0  0  0  0  0  3  0  0  0  0  0  0
  188.6320  177.5520  139.6480 C   0  0  0  0  0  2  0  0  0  0  0  0
  187.0410  177.6100  137.1060 C   0  0  0  0  0  0  0  0  0  0  0  0
  189.0120  177.1740  141.0780 C   0  0  0  0  0  2  0  0  0  0  0  0
  187.2620  178.7080  141.9410 C   0  0  0  0  0  3  0  0  0  0  0  0
  187.9200  176.6930  134.5940 C   0  0  0  0  0  3  0  0  0  0  0  0
  185.0120  178.2780  138.4970 C   0  0  0  0  0  0  0  0  0  0  0  0
  184.7830  176.5650  136.6990 C   0  0  0  0  0  2  0  0  0  0  0  0
  189.1070  179.1080  137.2200 C   0  0  0  0  0  1  0  0  0  0  0  0
  185.2370  178.9770  140.7620 O   0  0  0  0  0  0  0  0  0  0  0  0
  184.4420  178.7760  139.6230 C   0  0  0  0  0  0  0  0  0  0  0  0
  188.7160  178.3420  142.0180 C   0  0  1  0  0  3  0  0  0  0  0  0
  187.2190  178.0860  139.5680 C   0  0  0  0  0  0  0  0  0  0  0  0
  184.1870  177.8330  137.3150 C   0  0  0  0  0  2  0  0  0  0  0  0
  180.8700  178.7070  140.8550 C   0  0  0  0  0  0  0  0  0  0  0  0
  180.2800  179.7230  140.0980 C   0  0  0  0  0  3  0  0  0  0  0  0
  182.9990  179.1000  139.7440 C   0  0  0  0  0  0  0  0  0  0  0  0
  181.0460  180.4360  139.1720 C   0  0  0  0  0  3  0  0  0  0  0  0
  182.2230  178.4020  140.6820 C   0  0  0  0  0  3  0  0  0  0  0  0
  182.3980  180.1300  139.0010 C   0  0  0  0  0  3  0  0  0  0  0  0
  180.0930  177.9860  141.8030 N   0  0  0  0  0  1  0  0  0  0  0  0
  189.0740  177.9850  143.4490 C   0  0  0  0  0  2  0  0  0  0  0  0
  187.9350  177.2210  144.1030 C   0  0  0  0  0  2  0  0  0  0  0  0
  188.4200  177.5250  146.4330 O   0  0  0  0  0  1  0  0  0  0  0  0
  187.5380  177.8860  145.4110 C   0  0  2  0  0  3  0  0  0  0  0  0
  186.1000  177.5420  145.7970 C   0  0  0  0  0  2  0  0  0  0  0  0
  184.0610  178.9840  145.7760 O   0  0  0  0  0  0  0  0  0  0  0  0
  185.3310  178.7310  146.2760 C   0  0  0  0  0  0  0  0  0  0  0  0
  185.8240  179.4890  147.1510 O   0  0  0  0  0  1  0  0  0  0  0  0
  1 13  1  0  0  0  0
  1  8  1  0  0  0  0
  2  8  2  0  0  0  0
  2 14  1  0  0  0  0
  3 12  1  0  0  0  0
  3 18  2  0  0  0  0
  4 10  2  0  0  0  0
  5  1  2  0  0  0  0
  6  2  1  0  0  0  0
  7  9  1  0  0  0  0
  8  3  1  0  0  0  0
  9 17  1  0  0  0  0
 10 17  1  0  0  0  0
 11  5  1  0  0  0  0
 11  6  2  0  0  0  0
 12 16  2  0  0  0  0
 13 19  1  0  0  0  0
 15  4  1  0  0  0  0
 16 22  1  0  0  0  0
 16 15  1  0  0  0  0
 17 27  1  1  0  0  0
 18  7  1  0  0  0  0
 18  4  1  0  0  0  0
 19 12  1  0  0  0  0
 20 26  1  0  0  0  0
 21 20  2  0  0  0  0
 22 24  2  0  0  0  0
 23 21  1  0  0  0  0
 24 20  1  0  0  0  0
 25 23  2  0  0  0  0
 25 22  1  0  0  0  0
 27 28  1  0  0  0  0
 28 30  1  0  0  0  0
 30 31  1  0  0  0  0
 30 29  1  1  0  0  0
 31 33  1  0  0  0  0
 32 33  2  0  0  0  0
 33 34  1  0  0  0  0
M  END
>  <MODEL>
5

>  <REMARK>
 VINA RESULT:      -8.9      2.832      7.763
  Name = 
  6 active torsions:
  status: ('A' for Active; 'I' for Inactive)
    1  A    between atoms: C_3  and  C_13
    2  A    between atoms: C_3  and  C_29
    3  A    between atoms: C_12  and  C_28
    4  A    between atoms: C_13  and  C_33
    5  A    between atoms: C_20  and  C_22
    6  A    between atoms: C_22  and  C_33
                            x       y       z     vdW  Elec       q    Type
                         _______ _______ _______ _____ _____    ______ ____

>  <TORSDO>
F 6

$$$$
=
 OpenBabel11052414223D

 34 38  0  0  1  0  0  0  0  0999 V2000
  186.7910  177.3420  144.5260 C   0  0  0  0  0  0  0  0  0  0  0  0
  185.2340  179.1860  144.8180 C   0  0  0  0  0  0  0  0  0  0  0  0
  185.9120  178.4080  142.4590 C   0  0  0  0  0  0  0  0  0  0  0  0
  184.9200  178.7650  140.2640 C   0  0  0  0  0  0  0  0  0  0  0  0
  186.8300  177.1550  145.9090 C   0  0  0  0  0  3  0  0  0  0  0  0
  185.2910  178.9910  146.2030 C   0  0  0  0  0  3  0  0  0  0  0  0
  183.4090  178.6070  142.3480 C   0  0  0  0  0  2  0  0  0  0  0  0
  185.9230  178.2990  143.9530 C   0  0  0  0  0  0  0  0  0  0  0  0
  182.3300  178.2730  141.3180 C   0  0  0  0  0  2  0  0  0  0  0  0
  183.8520  179.0040  139.4990 C   0  0  0  0  0  3  0  0  0  0  0  0
  186.0630  177.9650  146.7450 C   0  0  0  0  0  3  0  0  0  0  0  0
  187.1940  178.0810  141.7540 C   0  0  0  0  0  0  0  0  0  0  0  0
  187.7180  176.5520  143.6530 C   0  0  0  0  0  2  0  0  0  0  0  0
  184.5550  180.4220  144.3310 C   0  0  0  0  0  1  0  0  0  0  0  0
  186.1740  178.6270  139.6730 O   0  0  0  0  0  0  0  0  0  0  0  0
  187.3050  178.2480  140.4120 C   0  0  0  0  0  0  0  0  0  0  0  0
  182.4860  179.1770  140.0960 C   0  0  1  0  0  3  0  0  0  0  0  0
  184.7900  178.6040  141.7300 C   0  0  0  0  0  0  0  0  0  0  0  0
  188.3010  177.4680  142.5750 C   0  0  0  0  0  2  0  0  0  0  0  0
  190.9370  177.5040  139.6810 C   0  0  0  0  0  0  0  0  0  0  0  0
  190.9580  177.4930  138.2830 C   0  0  0  0  0  3  0  0  0  0  0  0
  188.5600  178.0240  139.6530 C   0  0  0  0  0  0  0  0  0  0  0  0
  189.7830  177.7360  137.5680 C   0  0  0  0  0  3  0  0  0  0  0  0
  189.7440  177.7620  140.3600 C   0  0  0  0  0  3  0  0  0  0  0  0
  188.5910  177.9940  138.2480 C   0  0  0  0  0  3  0  0  0  0  0  0
  192.1310  177.2490  140.4110 N   0  0  0  0  0  1  0  0  0  0  0  0
  181.4320  178.8570  139.0530 C   0  0  0  0  0  2  0  0  0  0  0  0
  180.1130  179.5190  139.4140 C   0  0  0  0  0  2  0  0  0  0  0  0
  179.6800  181.2620  141.0040 O   0  0  0  0  0  1  0  0  0  0  0  0
  180.3430  180.9690  139.8090 C   0  0  2  0  0  3  0  0  0  0  0  0
  179.9010  181.9240  138.7020 C   0  0  0  0  0  2  0  0  0  0  0  0
  180.8260  183.5090  137.0070 O   0  0  0  0  0  0  0  0  0  0  0  0
  181.0550  182.5740  138.0060 C   0  0  0  0  0  0  0  0  0  0  0  0
  182.2330  182.2900  138.3430 O   0  0  0  0  0  1  0  0  0  0  0  0
  1  5  1  0  0  0  0
  2  6  2  0  0  0  0
  3  8  1  0  0  0  0
  4 18  1  0  0  0  0
  5 11  2  0  0  0  0
  6 11  1  0  0  0  0
  8  1  2  0  0  0  0
  8  2  1  0  0  0  0
  9  7  1  0  0  0  0
 10 17  1  0  0  0  0
 10  4  2  0  0  0  0
 12  3  1  0  0  0  0
 12 19  1  0  0  0  0
 13  1  1  0  0  0  0
 14  2  1  0  0  0  0
 15  4  1  0  0  0  0
 15 16  1  0  0  0  0
 16 12  2  0  0  0  0
 17 27  1  6  0  0  0
 17  9  1  0  0  0  0
 18  7  1  0  0  0  0
 18  3  2  0  0  0  0
 19 13  1  0  0  0  0
 20 24  1  0  0  0  0
 20 26  1  0  0  0  0
 21 20  2  0  0  0  0
 22 24  2  0  0  0  0
 22 16  1  0  0  0  0
 23 25  2  0  0  0  0
 23 21  1  0  0  0  0
 25 22  1  0  0  0  0
 27 28  1  0  0  0  0
 28 30  1  0  0  0  0
 30 29  1  1  0  0  0
 31 30  1  0  0  0  0
 32 33  2  0  0  0  0
 33 34  1  0  0  0  0
 33 31  1  0  0  0  0
M  END
>  <MODEL>
6

>  <REMARK>
 VINA RESULT:      -8.7      3.805      7.265
  Name = 
  6 active torsions:
  status: ('A' for Active; 'I' for Inactive)
    1  A    between atoms: C_3  and  C_13
    2  A    between atoms: C_3  and  C_29
    3  A    between atoms: C_12  and  C_28
    4  A    between atoms: C_13  and  C_33
    5  A    between atoms: C_20  and  C_22
    6  A    between atoms: C_22  and  C_33
                            x       y       z     vdW  Elec       q    Type
                         _______ _______ _______ _____ _____    ______ ____

>  <TORSDO>
F 6

$$$$
=
 OpenBabel11052414223D

 34 38  0  0  1  0  0  0  0  0999 V2000
  186.7800  177.3140  144.5410 C   0  0  0  0  0  0  0  0  0  0  0  0
  185.2550  179.1840  144.8320 C   0  0  0  0  0  0  0  0  0  0  0  0
  185.9190  178.3920  142.4730 C   0  0  0  0  0  0  0  0  0  0  0  0
  184.9320  178.7620  140.2780 C   0  0  0  0  0  0  0  0  0  0  0  0
  186.8170  177.1280  145.9240 C   0  0  0  0  0  3  0  0  0  0  0  0
  185.3080  178.9900  146.2160 C   0  0  0  0  0  3  0  0  0  0  0  0
  183.4190  178.6320  142.3630 C   0  0  0  0  0  2  0  0  0  0  0  0
  185.9290  178.2840  143.9670 C   0  0  0  0  0  0  0  0  0  0  0  0
  182.3350  178.3150  141.3340 C   0  0  0  0  0  2  0  0  0  0  0  0
  183.8670  179.0190  139.5130 C   0  0  0  0  0  3  0  0  0  0  0  0
  186.0640  177.9520  146.7600 C   0  0  0  0  0  3  0  0  0  0  0  0
  187.1950  178.0430  141.7680 C   0  0  0  0  0  0  0  0  0  0  0  0
  187.6940  176.5080  143.6690 C   0  0  0  0  0  2  0  0  0  0  0  0
  184.5960  180.4300  144.3430 C   0  0  0  0  0  1  0  0  0  0  0  0
  186.1830  178.6030  139.6870 O   0  0  0  0  0  0  0  0  0  0  0  0
  187.3080  178.2070  140.4260 C   0  0  0  0  0  0  0  0  0  0  0  0
  182.5050  179.2150  140.1110 C   0  0  1  0  0  3  0  0  0  0  0  0
  184.7990  178.6060  141.7450 C   0  0  0  0  0  0  0  0  0  0  0  0
  188.2920  177.4130  142.5900 C   0  0  0  0  0  2  0  0  0  0  0  0
  190.9490  177.5030  139.6970 C   0  0  0  0  0  0  0  0  0  0  0  0
  190.9520  177.3950  138.3040 C   0  0  0  0  0  3  0  0  0  0  0  0
  188.5590  177.9610  139.6670 C   0  0  0  0  0  0  0  0  0  0  0  0
  189.7630  177.5580  137.5900 C   0  0  0  0  0  3  0  0  0  0  0  0
  189.7570  177.7780  140.3740 C   0  0  0  0  0  3  0  0  0  0  0  0
  188.5730  177.8320  138.2670 C   0  0  0  0  0  3  0  0  0  0  0  0
  192.1580  177.3300  140.4260 N   0  0  0  0  0  1  0  0  0  0  0  0
  181.4450  178.9110  139.0680 C   0  0  0  0  0  2  0  0  0  0  0  0
  180.8400  177.5400  139.3150 C   0  0  0  0  0  2  0  0  0  0  0  0
  180.3120  175.7860  137.7640 O   0  0  0  0  0  1  0  0  0  0  0  0
  181.3620  176.5420  138.2940 C   0  0  2  0  0  3  0  0  0  0  0  0
  182.4260  175.6280  138.9010 C   0  0  0  0  0  2  0  0  0  0  0  0
  184.1810  174.1280  137.9480 O   0  0  0  0  0  1  0  0  0  0  0  0
  183.5670  175.3730  137.9690 C   0  0  0  0  0  0  0  0  0  0  0  0
  183.9560  176.2780  137.1870 O   0  0  0  0  0  0  0  0  0  0  0  0
  1  5  1  0  0  0  0
  2  6  2  0  0  0  0
  3  8  1  0  0  0  0
  4 18  1  0  0  0  0
  5 11  2  0  0  0  0
  6 11  1  0  0  0  0
  8  1  2  0  0  0  0
  8  2  1  0  0  0  0
  9  7  1  0  0  0  0
 10 17  1  0  0  0  0
 10  4  2  0  0  0  0
 12  3  1  0  0  0  0
 12 19  1  0  0  0  0
 13  1  1  0  0  0  0
 14  2  1  0  0  0  0
 15  4  1  0  0  0  0
 15 16  1  0  0  0  0
 16 12  2  0  0  0  0
 17 27  1  6  0  0  0
 17  9  1  0  0  0  0
 18  7  1  0  0  0  0
 18  3  2  0  0  0  0
 19 13  1  0  0  0  0
 20 24  1  0  0  0  0
 20 26  1  0  0  0  0
 21 20  2  0  0  0  0
 22 24  2  0  0  0  0
 22 16  1  0  0  0  0
 23 25  2  0  0  0  0
 23 21  1  0  0  0  0
 25 22  1  0  0  0  0
 27 28  1  0  0  0  0
 30 29  1  1  0  0  0
 30 31  1  0  0  0  0
 30 28  1  0  0  0  0
 32 33  1  0  0  0  0
 33 31  1  0  0  0  0
 34 33  2  0  0  0  0
M  END
>  <MODEL>
7

>  <REMARK>
 VINA RESULT:      -8.6      3.192      6.834
  Name = 
  6 active torsions:
  status: ('A' for Active; 'I' for Inactive)
    1  A    between atoms: C_3  and  C_13
    2  A    between atoms: C_3  and  C_29
    3  A    between atoms: C_12  and  C_28
    4  A    between atoms: C_13  and  C_33
    5  A    between atoms: C_20  and  C_22
    6  A    between atoms: C_22  and  C_33
                            x       y       z     vdW  Elec       q    Type
                         _______ _______ _______ _____ _____    ______ ____

>  <TORSDO>
F 6

$$$$
=
 OpenBabel11052414223D

 34 38  0  0  1  0  0  0  0  0999 V2000
  185.7600  177.4760  137.2020 C   0  0  0  0  0  0  0  0  0  0  0  0
  187.8960  178.5650  136.8000 C   0  0  0  0  0  0  0  0  0  0  0  0
  187.0830  178.1270  139.2040 C   0  0  0  0  0  0  0  0  0  0  0  0
  188.2410  178.0800  141.3460 C   0  0  0  0  0  0  0  0  0  0  0  0
  185.5850  177.3110  135.8270 C   0  0  0  0  0  3  0  0  0  0  0  0
  187.7010  178.4000  135.4240 C   0  0  0  0  0  3  0  0  0  0  0  0
  189.4690  177.3340  139.2040 C   0  0  0  0  0  2  0  0  0  0  0  0
  186.9580  178.0220  137.7150 C   0  0  0  0  0  0  0  0  0  0  0  0
  190.3810  176.6120  140.1950 C   0  0  0  0  0  2  0  0  0  0  0  0
  189.3530  177.8890  142.0590 C   0  0  0  0  0  3  0  0  0  0  0  0
  186.5650  177.7530  134.9400 C   0  0  0  0  0  3  0  0  0  0  0  0
  185.8110  178.3290  139.9700 C   0  0  0  0  0  0  0  0  0  0  0  0
  184.6420  177.1150  138.1320 C   0  0  0  0  0  2  0  0  0  0  0  0
  189.0250  179.4410  137.2280 C   0  0  0  0  0  1  0  0  0  0  0  0
  187.0620  178.4460  141.9920 O   0  0  0  0  0  0  0  0  0  0  0  0
  185.8390  178.5340  141.3110 C   0  0  0  0  0  0  0  0  0  0  0  0
  190.6480  177.5120  141.4000 C   0  0  1  0  0  3  0  0  0  0  0  0
  188.2270  177.8730  139.8790 C   0  0  0  0  0  0  0  0  0  0  0  0
  184.5140  178.1920  139.2110 C   0  0  0  0  0  2  0  0  0  0  0  0
  182.2060  178.8910  142.2920 C   0  0  0  0  0  0  0  0  0  0  0  0
  182.3020  179.2530  143.6380 C   0  0  0  0  0  3  0  0  0  0  0  0
  184.6330  178.8210  142.1280 C   0  0  0  0  0  0  0  0  0  0  0  0
  183.5560  179.3910  144.2350 C   0  0  0  0  0  3  0  0  0  0  0  0
  183.3660  178.6700  141.5440 C   0  0  0  0  0  3  0  0  0  0  0  0
  184.7150  179.1700  143.4870 C   0  0  0  0  0  3  0  0  0  0  0  0
  180.9290  178.7430  141.6840 N   0  0  0  0  0  1  0  0  0  0  0  0
  191.5440  176.8120  142.4060 C   0  0  0  0  0  2  0  0  0  0  0  0
  190.7520  176.4380  143.6470 C   0  0  0  0  0  2  0  0  0  0  0  0
  191.8010  176.2610  145.7980 O   0  0  0  0  0  1  0  0  0  0  0  0
  191.2990  177.1700  144.8620 C   0  0  2  0  0  3  0  0  0  0  0  0
  190.2360  178.0640  145.4990 C   0  0  0  0  0  2  0  0  0  0  0  0
  187.9320  177.1620  145.1510 O   0  0  0  0  0  0  0  0  0  0  0  0
  189.0440  177.2950  145.9720 C   0  0  0  0  0  0  0  0  0  0  0  0
  189.0570  176.7480  147.1050 O   0  0  0  0  0  1  0  0  0  0  0  0
  1  8  1  0  0  0  0
  1 13  1  0  0  0  0
  2 14  1  0  0  0  0
  2  8  2  0  0  0  0
  3 18  2  0  0  0  0
  3 12  1  0  0  0  0
  4 15  1  0  0  0  0
  4 10  2  0  0  0  0
  5  1  2  0  0  0  0
  6  2  1  0  0  0  0
  7 18  1  0  0  0  0
  7  9  1  0  0  0  0
  8  3  1  0  0  0  0
  9 17  1  0  0  0  0
 11  6  2  0  0  0  0
 11  5  1  0  0  0  0
 12 16  2  0  0  0  0
 13 19  1  0  0  0  0
 16 15  1  0  0  0  0
 16 22  1  0  0  0  0
 17 10  1  0  0  0  0
 17 27  1  1  0  0  0
 18  4  1  0  0  0  0
 19 12  1  0  0  0  0
 20 21  1  0  0  0  0
 21 23  2  0  0  0  0
 22 25  2  0  0  0  0
 24 22  1  0  0  0  0
 24 20  2  0  0  0  0
 25 23  1  0  0  0  0
 26 20  1  0  0  0  0
 27 28  1  0  0  0  0
 28 30  1  0  0  0  0
 30 31  1  0  0  0  0
 30 29  1  1  0  0  0
 31 33  1  0  0  0  0
 32 33  2  0  0  0  0
 33 34  1  0  0  0  0
M  END
>  <MODEL>
8

>  <REMARK>
 VINA RESULT:      -8.4      2.012      7.037
  Name = 
  6 active torsions:
  status: ('A' for Active; 'I' for Inactive)
    1  A    between atoms: C_3  and  C_13
    2  A    between atoms: C_3  and  C_29
    3  A    between atoms: C_12  and  C_28
    4  A    between atoms: C_13  and  C_33
    5  A    between atoms: C_20  and  C_22
    6  A    between atoms: C_22  and  C_33
                            x       y       z     vdW  Elec       q    Type
                         _______ _______ _______ _____ _____    ______ ____

>  <TORSDO>
F 6

$$$$
=
 OpenBabel11052414223D

 34 38  0  0  1  0  0  0  0  0999 V2000
  188.2350  177.0100  146.2540 C   0  0  0  0  0  0  0  0  0  0  0  0
  186.9090  178.8640  147.0960 C   0  0  0  0  0  0  0  0  0  0  0  0
  186.8130  178.2120  144.6070 C   0  0  0  0  0  0  0  0  0  0  0  0
  185.2180  178.7160  142.8370 C   0  0  0  0  0  0  0  0  0  0  0  0
  188.6830  176.7410  147.5480 C   0  0  0  0  0  3  0  0  0  0  0  0
  187.3730  178.5870  148.3870 C   0  0  0  0  0  3  0  0  0  0  0  0
  184.4020  178.4670  145.2710 C   0  0  0  0  0  2  0  0  0  0  0  0
  187.2710  178.0150  146.0190 C   0  0  0  0  0  0  0  0  0  0  0  0
  183.0510  178.2160  144.6030 C   0  0  0  0  0  2  0  0  0  0  0  0
  183.9780  179.0220  142.4460 C   0  0  0  0  0  3  0  0  0  0  0  0
  188.2350  177.5160  148.6170 C   0  0  0  0  0  3  0  0  0  0  0  0
  187.8090  177.9020  143.5300 C   0  0  0  0  0  0  0  0  0  0  0  0
  188.8250  176.2540  145.1020 C   0  0  0  0  0  2  0  0  0  0  0  0
  186.1590  180.1400  146.9000 C   0  0  0  0  0  1  0  0  0  0  0  0
  186.2290  178.5890  141.8870 O   0  0  0  0  0  0  0  0  0  0  0  0
  187.5150  178.1450  142.2280 C   0  0  0  0  0  0  0  0  0  0  0  0
  182.8640  179.1860  143.4370 C   0  0  1  0  0  3  0  0  0  0  0  0
  185.5310  178.4730  144.2640 C   0  0  0  0  0  0  0  0  0  0  0  0
  189.0890  177.2200  143.9450 C   0  0  0  0  0  2  0  0  0  0  0  0
  189.1710  178.4920  138.8490 C   0  0  0  0  0  0  0  0  0  0  0  0
  190.2990  177.6780  138.9910 C   0  0  0  0  0  3  0  0  0  0  0  0
  188.4740  177.9400  141.1140 C   0  0  0  0  0  0  0  0  0  0  0  0
  190.5230  177.0030  140.1930 C   0  0  0  0  0  3  0  0  0  0  0  0
  188.2680  178.6260  139.9070 C   0  0  0  0  0  3  0  0  0  0  0  0
  189.6190  177.1380  141.2500 C   0  0  0  0  0  3  0  0  0  0  0  0
  188.9460  179.1860  137.6280 N   0  0  0  0  0  1  0  0  0  0  0  0
  181.5330  178.9490  142.7480 C   0  0  0  0  0  2  0  0  0  0  0  0
  181.7510  178.3430  141.3730 C   0  0  0  0  0  2  0  0  0  0  0  0
  180.1250  179.6120  140.1480 O   0  0  0  0  0  1  0  0  0  0  0  0
  181.4960  179.3820  140.2930 C   0  0  2  0  0  3  0  0  0  0  0  0
  182.1140  178.9620  138.9600 C   0  0  0  0  0  2  0  0  0  0  0  0
  184.1120  180.4560  139.0850 O   0  0  0  0  0  1  0  0  0  0  0  0
  183.5920  179.1810  138.9150 C   0  0  0  0  0  0  0  0  0  0  0  0
  184.3680  178.2040  138.7480 O   0  0  0  0  0  0  0  0  0  0  0  0
  1  5  1  0  0  0  0
  2  6  2  0  0  0  0
  3  8  1  0  0  0  0
  4 18  1  0  0  0  0
  5 11  2  0  0  0  0
  6 11  1  0  0  0  0
  8  1  2  0  0  0  0
  8  2  1  0  0  0  0
  9  7  1  0  0  0  0
 10  4  2  0  0  0  0
 10 17  1  0  0  0  0
 12 19  1  0  0  0  0
 12  3  1  0  0  0  0
 13  1  1  0  0  0  0
 14  2  1  0  0  0  0
 15 16  1  0  0  0  0
 15  4  1  0  0  0  0
 16 12  2  0  0  0  0
 17 27  1  6  0  0  0
 17  9  1  0  0  0  0
 18  3  2  0  0  0  0
 18  7  1  0  0  0  0
 19 13  1  0  0  0  0
 20 21  2  0  0  0  0
 20 24  1  0  0  0  0
 21 23  1  0  0  0  0
 22 25  1  0  0  0  0
 22 16  1  0  0  0  0
 23 25  2  0  0  0  0
 24 22  2  0  0  0  0
 26 20  1  0  0  0  0
 28 27  1  0  0  0  0
 30 29  1  6  0  0  0
 30 28  1  0  0  0  0
 31 30  1  0  0  0  0
 33 31  1  0  0  0  0
 33 32  1  0  0  0  0
 34 33  2  0  0  0  0
M  END
>  <MODEL>
9

>  <REMARK>
 VINA RESULT:      -8.3      2.568      6.073
  Name = 
  6 active torsions:
  status: ('A' for Active; 'I' for Inactive)
    1  A    between atoms: C_3  and  C_13
    2  A    between atoms: C_3  and  C_29
    3  A    between atoms: C_12  and  C_28
    4  A    between atoms: C_13  and  C_33
    5  A    between atoms: C_20  and  C_22
    6  A    between atoms: C_22  and  C_33
                            x       y       z     vdW  Elec       q    Type
                         _______ _______ _______ _____ _____    ______ ____

>  <TORSDO>
F 6

$$$$
