=
 OpenBabel11052415333D

 37 42  0  0  1  0  0  0  0  0999 V2000
  192.0430  178.9860  144.2400 F   0  0  0  0  0  0  0  0  0  0  0  0
  189.6290  176.4330  140.7320 C   0  0  2  0  0  3  0  0  0  0  0  0
  187.2990  178.1710  138.6260 O   0  0  0  0  0  1  0  0  0  0  0  0
  190.8240  177.8050  142.3970 C   0  0  2  0  0  3  0  0  0  0  0  0
  188.7900  177.5440  140.3130 N   0  0  1  0  0  0  0  0  0  0  0  0
  189.8580  176.6390  142.2030 C   0  0  1  0  0  3  0  0  0  0  0  0
  188.2240  177.1980  139.0100 C   0  0  2  0  0  3  0  0  0  0  0  0
  192.1040  177.5720  141.6040 C   0  0  0  0  0  2  0  0  0  0  0  0
  188.4770  177.0690  142.6580 C   0  0  1  0  0  3  0  0  0  0  0  0
  189.7600  178.3150  144.6680 C   0  0  2  0  0  3  0  0  0  0  0  0
  193.0630  177.2990  139.5020 C   0  0  0  0  0  1  0  0  0  0  0  0
  191.7900  177.5280  140.1710 N   0  0  0  0  0  0  0  0  0  0  0  0
  188.4360  177.9640  143.9280 C   0  0  2  0  0  3  0  0  0  0  0  0
  190.9190  176.3680  139.9090 C   0  0  2  0  0  3  0  0  0  0  0  0
  187.7950  177.6340  141.3860 C   0  0  1  0  0  3  0  0  0  0  0  0
  191.0450  178.1020  143.8760 C   0  0  2  0  0  0  0  0  0  0  0  0
  189.3810  177.1490  137.9760 C   0  0  1  0  0  3  0  0  0  0  0  0
  190.6310  177.0880  144.9320 C   0  0  0  0  0  2  0  0  0  0  0  0
  190.5370  176.2300  138.4230 C   0  0  0  0  0  2  0  0  0  0  0  0
  188.9720  176.7880  136.6080 N   0  0  0  0  0  0  0  0  0  0  0  0
  189.8280  177.3610  135.5530 C   0  0  0  0  0  2  0  0  0  0  0  0
  190.4260  176.3220  134.6080 C   0  0  0  0  0  1  0  0  0  0  0  0
  188.7800  175.3460  136.4710 C   0  0  0  0  0  2  0  0  0  0  0  0
  186.7120  175.3750  135.0820 O   0  0  0  0  0  0  0  0  0  0  0  0
  186.6730  174.5120  137.2050 O   0  0  0  0  0  1  0  0  0  0  0  0
  187.3370  175.0410  136.2750 C   0  0  0  0  0  0  0  0  0  0  0  0
  187.3850  177.4420  144.8980 C   0  0  0  0  0  2  0  0  0  0  0  0
  187.3070  178.3010  146.0720 N   0  0  0  0  0  0  0  0  0  0  0  0
  187.3890  177.4370  147.2440 C   0  0  0  0  0  1  0  0  0  0  0  0
  186.0210  179.0100  146.0400 C   0  0  2  0  0  3  0  0  0  0  0  0
  184.2050  179.3810  144.8030 C   0  0  0  0  0  2  0  0  0  0  0  0
  184.9400  178.2120  146.7360 C   0  0  0  0  0  2  0  0  0  0  0  0
  185.6030  179.2970  144.7260 O   0  0  0  0  0  0  0  0  0  0  0  0
  183.7250  178.4460  145.8900 C   0  0  0  0  0  2  0  0  0  0  0  0
  187.3330  179.0830  141.5440 C   0  0  0  0  0  2  0  0  0  0  0  0
  185.2850  179.6170  140.4380 O   0  0  0  0  0  1  0  0  0  0  0  0
  185.8200  179.1540  141.6400 C   0  0  0  0  0  2  0  0  0  0  0  0
  2  6  1  0  0  0  0
  3  7  1  0  0  0  0
  4 16  1  0  0  0  0
  5  2  1  0  0  0  0
  5 15  1  0  0  0  0
  6  4  1  0  0  0  0
  6  9  1  0  0  0  0
  7  5  1  0  0  0  0
  8  4  1  0  0  0  0
  9 13  1  0  0  0  0
 10 18  1  0  0  0  0
 11 12  1  0  0  0  0
 12  8  1  0  0  0  0
 13 10  1  0  0  0  0
 13 27  1  0  0  0  0
 14 12  1  0  0  0  0
 14  2  1  0  0  0  0
 15 35  1  0  0  0  0
 15  9  1  0  0  0  0
 16  1  1  0  0  0  0
 16 10  1  0  0  0  0
 16 18  1  0  0  0  0
 17 19  1  0  0  0  0
 17  7  1  0  0  0  0
 19 14  1  0  0  0  0
 20 17  1  0  0  0  0
 21 20  1  0  0  0  0
 22 21  1  0  0  0  0
 23 20  1  0  0  0  0
 24 26  2  0  0  0  0
 26 23  1  0  0  0  0
 26 25  1  0  0  0  0
 27 28  1  0  0  0  0
 28 29  1  0  0  0  0
 30 28  1  0  0  0  0
 30 32  1  0  0  0  0
 31 34  1  0  0  0  0
 33 31  1  0  0  0  0
 33 30  1  0  0  0  0
 34 32  1  0  0  0  0
 35 37  1  0  0  0  0
 36 37  1  0  0  0  0
M  END
>  <MODEL>
1

>  <REMARK>
 VINA RESULT:      -7.4      0.000      0.000
  Name = 
  9 active torsions:
  status: ('A' for Active; 'I' for Inactive)
    1  A    between atoms: N_1  and  C_5
    2  A    between atoms: N_1  and  C_23
    3  A    between atoms: C_2  and  N_6
    4  A    between atoms: N_6  and  C_8
    5  A    between atoms: N_6  and  C_31
    6  A    between atoms: C_8  and  C_19
    7  A    between atoms: C_23  and  C_25
    8  A    between atoms: C_29  and  C_33
    9  A    between atoms: C_33  and  C_36
                            x       y       z     vdW  Elec       q    Type
                         _______ _______ _______ _____ _____    ______ ____

>  <TORSDO>
F 9

$$$$
=
 OpenBabel11052415333D

 37 42  0  0  1  0  0  0  0  0999 V2000
  183.6450  177.7210  141.8760 F   0  0  0  0  0  0  0  0  0  0  0  0
  188.2790  178.6320  140.3440 C   0  0  2  0  0  3  0  0  0  0  0  0
  190.6590  175.9440  140.3440 O   0  0  0  0  0  1  0  0  0  0  0  0
  185.9900  178.0590  141.0580 C   0  0  2  0  0  3  0  0  0  0  0  0
  188.7870  177.3080  140.6630 N   0  0  1  0  0  0  0  0  0  0  0  0
  187.2180  178.9100  141.3700 C   0  0  1  0  0  3  0  0  0  0  0  0
  190.0590  177.1450  139.9600 C   0  0  2  0  0  3  0  0  0  0  0  0
  185.5320  178.2930  139.6250 C   0  0  0  0  0  2  0  0  0  0  0  0
  187.8770  178.3750  142.6270 C   0  0  1  0  0  3  0  0  0  0  0  0
  185.3690  178.0370  143.5420 C   0  0  2  0  0  3  0  0  0  0  0  0
  186.0610  178.1210  137.3660 C   0  0  0  0  0  1  0  0  0  0  0  0
  186.5830  177.8570  138.6990 N   0  0  0  0  0  0  0  0  0  0  0  0
  186.9060  177.8970  143.7430 C   0  0  2  0  0  3  0  0  0  0  0  0
  187.7750  178.7010  138.8990 C   0  0  2  0  0  3  0  0  0  0  0  0
  188.9190  177.3440  142.1240 C   0  0  1  0  0  3  0  0  0  0  0  0
  184.9000  178.2530  142.1070 C   0  0  2  0  0  0  0  0  0  0  0  0
  189.7680  177.1120  138.4350 C   0  0  1  0  0  3  0  0  0  0  0  0
  184.9600  179.4310  143.0680 C   0  0  0  0  0  2  0  0  0  0  0  0
  188.9400  178.3250  137.9640 C   0  0  0  0  0  2  0  0  0  0  0  0
  190.9610  176.9740  137.5820 N   0  0  0  0  0  0  0  0  0  0  0  0
  192.1960  176.6540  138.3230 C   0  0  0  0  0  2  0  0  0  0  0  0
  193.3740  176.2750  137.4290 C   0  0  0  0  0  1  0  0  0  0  0  0
  190.7140  176.0690  136.4620 C   0  0  0  0  0  2  0  0  0  0  0  0
  190.5300  173.8630  137.6070 O   0  0  0  0  0  1  0  0  0  0  0  0
  188.6860  174.8340  136.6530 O   0  0  0  0  0  0  0  0  0  0  0  0
  189.9140  174.9000  136.9200 C   0  0  0  0  0  0  0  0  0  0  0  0
  187.3390  178.4660  145.0870 C   0  0  0  0  0  2  0  0  0  0  0  0
  186.6780  177.7580  146.1750 N   0  0  0  0  0  0  0  0  0  0  0  0
  185.8430  178.7270  146.8750 C   0  0  0  0  0  1  0  0  0  0  0  0
  187.7120  177.2230  147.0710 C   0  0  2  0  0  3  0  0  0  0  0  0
  189.9110  177.0970  147.4020 C   0  0  0  0  0  2  0  0  0  0  0  0
  187.9550  178.1510  148.2400 C   0  0  0  0  0  2  0  0  0  0  0  0
  188.9320  176.9990  146.4040 O   0  0  0  0  0  0  0  0  0  0  0  0
  189.4370  178.0800  148.4480 C   0  0  0  0  0  2  0  0  0  0  0  0
  188.7070  175.9440  142.6980 C   0  0  0  0  0  2  0  0  0  0  0  0
  190.8380  176.5080  143.6170 O   0  0  0  0  0  1  0  0  0  0  0  0
  189.9760  175.4410  143.3630 C   0  0  0  0  0  2  0  0  0  0  0  0
  1 16  1  0  0  0  0
  2  5  1  0  0  0  0
  2  6  1  0  0  0  0
  4  6  1  0  0  0  0
  4 16  1  0  0  0  0
  5 15  1  0  0  0  0
  6  9  1  0  0  0  0
  7  3  1  0  0  0  0
  7  5  1  0  0  0  0
  8  4  1  0  0  0  0
  9 13  1  0  0  0  0
 10 13  1  0  0  0  0
 11 12  1  0  0  0  0
 12 14  1  0  0  0  0
 12  8  1  0  0  0  0
 13 27  1  0  0  0  0
 14  2  1  0  0  0  0
 15  9  1  0  0  0  0
 15 35  1  0  0  0  0
 16 18  1  0  0  0  0
 16 10  1  0  0  0  0
 17  7  1  0  0  0  0
 18 10  1  0  0  0  0
 19 17  1  0  0  0  0
 19 14  1  0  0  0  0
 20 21  1  0  0  0  0
 20 17  1  0  0  0  0
 22 21  1  0  0  0  0
 23 26  1  0  0  0  0
 23 20  1  0  0  0  0
 25 26  2  0  0  0  0
 26 24  1  0  0  0  0
 27 28  1  0  0  0  0
 28 29  1  0  0  0  0
 28 30  1  0  0  0  0
 30 32  1  0  0  0  0
 31 34  1  0  0  0  0
 32 34  1  0  0  0  0
 33 30  1  0  0  0  0
 33 31  1  0  0  0  0
 35 37  1  0  0  0  0
 37 36  1  0  0  0  0
M  END
>  <MODEL>
2

>  <REMARK>
 VINA RESULT:      -6.7      2.634      4.380
  Name = 
  9 active torsions:
  status: ('A' for Active; 'I' for Inactive)
    1  A    between atoms: N_1  and  C_5
    2  A    between atoms: N_1  and  C_23
    3  A    between atoms: C_2  and  N_6
    4  A    between atoms: N_6  and  C_8
    5  A    between atoms: N_6  and  C_31
    6  A    between atoms: C_8  and  C_19
    7  A    between atoms: C_23  and  C_25
    8  A    between atoms: C_29  and  C_33
    9  A    between atoms: C_33  and  C_36
                            x       y       z     vdW  Elec       q    Type
                         _______ _______ _______ _____ _____    ______ ____

>  <TORSDO>
F 9

$$$$
=
 OpenBabel11052415333D

 37 42  0  0  1  0  0  0  0  0999 V2000
  185.9400  179.7070  147.0100 F   0  0  0  0  0  0  0  0  0  0  0  0
  187.5970  177.0220  143.1760 C   0  0  2  0  0  3  0  0  0  0  0  0
  188.1140  178.6520  140.0200 O   0  0  0  0  0  1  0  0  0  0  0  0
  186.8380  178.4580  145.0310 C   0  0  2  0  0  3  0  0  0  0  0  0
  187.4970  178.1000  142.2060 N   0  0  1  0  0  0  0  0  0  0  0  0
  186.4810  177.2610  144.1540 C   0  0  1  0  0  3  0  0  0  0  0  0
  188.2900  177.7140  141.0400 C   0  0  2  0  0  3  0  0  0  0  0  0
  188.1950  178.2480  145.6900 C   0  0  0  0  0  2  0  0  0  0  0  0
  185.3530  177.6570  143.2210 C   0  0  1  0  0  3  0  0  0  0  0  0
  184.3500  178.9760  145.3410 C   0  0  2  0  0  3  0  0  0  0  0  0
  190.4830  177.9670  145.3750 C   0  0  0  0  0  1  0  0  0  0  0  0
  189.2330  178.1700  144.6560 N   0  0  0  0  0  0  0  0  0  0  0  0
  184.2600  178.5740  143.8400 C   0  0  2  0  0  3  0  0  0  0  0  0
  188.9860  176.9800  143.8210 C   0  0  2  0  0  3  0  0  0  0  0  0
  186.0570  178.1800  141.9430 C   0  0  1  0  0  3  0  0  0  0  0  0
  185.7100  178.7870  146.0040 C   0  0  2  0  0  0  0  0  0  0  0  0
  189.7850  177.6810  141.4580 C   0  0  1  0  0  3  0  0  0  0  0  0
  184.5990  177.7810  146.2590 C   0  0  0  0  0  2  0  0  0  0  0  0
  190.0310  176.8050  142.7030 C   0  0  0  0  0  2  0  0  0  0  0  0
  190.7170  177.2840  140.3890 N   0  0  0  0  0  0  0  0  0  0  0  0
  192.1140  177.1300  140.8350 C   0  0  0  0  0  2  0  0  0  0  0  0
  193.1470  177.4470  139.7580 C   0  0  0  0  0  1  0  0  0  0  0  0
  190.2200  176.1240  139.6520 C   0  0  0  0  0  2  0  0  0  0  0  0
  190.1550  177.6840  137.7100 O   0  0  0  0  0  1  0  0  0  0  0  0
  190.4130  175.4300  137.3820 O   0  0  0  0  0  0  0  0  0  0  0  0
  190.2820  176.3870  138.1880 C   0  0  0  0  0  0  0  0  0  0  0  0
  182.8770  178.0390  143.4960 C   0  0  0  0  0  2  0  0  0  0  0  0
  181.9440  179.1390  143.2930 N   0  0  0  0  0  0  0  0  0  0  0  0
  180.7400  178.8270  144.0550 C   0  0  0  0  0  1  0  0  0  0  0  0
  181.6410  179.2260  141.8580 C   0  0  2  0  0  3  0  0  0  0  0  0
  180.9730  178.0480  140.0890 C   0  0  0  0  0  2  0  0  0  0  0  0
  180.2210  179.6950  141.6270 C   0  0  0  0  0  2  0  0  0  0  0  0
  181.8300  177.9970  141.1970 O   0  0  0  0  0  0  0  0  0  0  0  0
  179.7670  178.8860  140.4500 C   0  0  0  0  0  2  0  0  0  0  0  0
  185.6740  179.6170  141.5900 C   0  0  0  0  0  2  0  0  0  0  0  0
  184.7920  178.3850  139.7430 O   0  0  0  0  0  1  0  0  0  0  0  0
  184.8260  179.6500  140.3310 C   0  0  0  0  0  2  0  0  0  0  0  0
  2 14  1  0  0  0  0
  2  6  1  0  0  0  0
  3  7  1  0  0  0  0
  4  8  1  0  0  0  0
  4 16  1  0  0  0  0
  5  2  1  0  0  0  0
  6  4  1  0  0  0  0
  7 17  1  0  0  0  0
  7  5  1  0  0  0  0
  9 13  1  0  0  0  0
  9  6  1  0  0  0  0
 10 16  1  0  0  0  0
 10 18  1  0  0  0  0
 12 11  1  0  0  0  0
 12  8  1  0  0  0  0
 13 10  1  0  0  0  0
 14 12  1  0  0  0  0
 15  5  1  0  0  0  0
 15  9  1  0  0  0  0
 16 18  1  0  0  0  0
 16  1  1  0  0  0  0
 17 19  1  0  0  0  0
 19 14  1  0  0  0  0
 20 21  1  0  0  0  0
 20 17  1  0  0  0  0
 22 21  1  0  0  0  0
 23 20  1  0  0  0  0
 24 26  1  0  0  0  0
 25 26  2  0  0  0  0
 26 23  1  0  0  0  0
 27 13  1  0  0  0  0
 28 27  1  0  0  0  0
 28 29  1  0  0  0  0
 30 28  1  0  0  0  0
 31 34  1  0  0  0  0
 31 33  1  0  0  0  0
 32 30  1  0  0  0  0
 33 30  1  0  0  0  0
 34 32  1  0  0  0  0
 35 15  1  0  0  0  0
 36 37  1  0  0  0  0
 37 35  1  0  0  0  0
M  END
>  <MODEL>
3

>  <REMARK>
 VINA RESULT:      -6.3      2.789      4.836
  Name = 
  9 active torsions:
  status: ('A' for Active; 'I' for Inactive)
    1  A    between atoms: N_1  and  C_5
    2  A    between atoms: N_1  and  C_23
    3  A    between atoms: C_2  and  N_6
    4  A    between atoms: N_6  and  C_8
    5  A    between atoms: N_6  and  C_31
    6  A    between atoms: C_8  and  C_19
    7  A    between atoms: C_23  and  C_25
    8  A    between atoms: C_29  and  C_33
    9  A    between atoms: C_33  and  C_36
                            x       y       z     vdW  Elec       q    Type
                         _______ _______ _______ _____ _____    ______ ____

>  <TORSDO>
F 9

$$$$
=
 OpenBabel11052415333D

 37 42  0  0  1  0  0  0  0  0999 V2000
  188.0220  179.3390  137.0860 F   0  0  0  0  0  0  0  0  0  0  0  0
  189.1800  176.5660  141.0390 C   0  0  2  0  0  3  0  0  0  0  0  0
  192.1070  177.4050  142.9410 O   0  0  0  0  0  1  0  0  0  0  0  0
  188.6570  178.0450  139.1370 C   0  0  2  0  0  3  0  0  0  0  0  0
  190.4360  177.2450  141.3140 N   0  0  1  0  0  0  0  0  0  0  0  0
  189.0150  176.6200  139.5460 C   0  0  1  0  0  3  0  0  0  0  0  0
  190.8350  176.8920  142.6760 C   0  0  2  0  0  3  0  0  0  0  0  0
  187.4330  178.5260  139.9050 C   0  0  0  0  0  2  0  0  0  0  0  0
  190.4290  176.3200  139.0850 C   0  0  1  0  0  3  0  0  0  0  0  0
  189.7600  177.6730  136.8570 C   0  0  2  0  0  3  0  0  0  0  0  0
  186.5230  179.0360  141.9840 C   0  0  0  0  0  1  0  0  0  0  0  0
  187.7430  178.5740  141.3380 N   0  0  0  0  0  0  0  0  0  0  0  0
  190.8180  176.8950  137.6940 C   0  0  2  0  0  3  0  0  0  0  0  0
  188.0210  177.2060  141.8110 C   0  0  2  0  0  3  0  0  0  0  0  0
  191.3330  176.7180  140.2790 C   0  0  1  0  0  3  0  0  0  0  0  0
  188.5400  178.1740  137.6220 C   0  0  2  0  0  0  0  0  0  0  0  0
  189.8100  177.5200  143.6590 C   0  0  1  0  0  3  0  0  0  0  0  0
  188.4290  176.9310  136.7520 C   0  0  0  0  0  2  0  0  0  0  0  0
  188.3540  177.1470  143.3140 C   0  0  0  0  0  2  0  0  0  0  0  0
  190.0640  177.2350  145.0810 N   0  0  0  0  0  0  0  0  0  0  0  0
  191.4950  177.1680  145.4340 C   0  0  0  0  0  2  0  0  0  0  0  0
  191.8280  176.0970  146.4700 C   0  0  0  0  0  1  0  0  0  0  0  0
  189.3010  178.1280  145.9490 C   0  0  0  0  0  2  0  0  0  0  0  0
  186.9680  177.4260  146.4720 O   0  0  0  0  0  0  0  0  0  0  0  0
  188.7250  176.6350  147.7130 O   0  0  0  0  0  1  0  0  0  0  0  0
  188.3250  177.3440  146.7540 C   0  0  0  0  0  0  0  0  0  0  0  0
  191.4980  175.8190  136.8580 C   0  0  0  0  0  2  0  0  0  0  0  0
  191.4800  174.5440  137.5620 N   0  0  0  0  0  0  0  0  0  0  0  0
  192.8540  174.0560  137.6010 C   0  0  0  0  0  1  0  0  0  0  0  0
  190.6230  173.6170  136.8120 C   0  0  2  0  0  3  0  0  0  0  0  0
  188.5050  173.1200  136.3310 C   0  0  0  0  0  2  0  0  0  0  0  0
  190.4660  174.0590  135.3740 C   0  0  0  0  0  2  0  0  0  0  0  0
  189.3470  173.4840  137.3910 O   0  0  0  0  0  0  0  0  0  0  0  0
  189.0350  173.7430  135.0590 C   0  0  0  0  0  2  0  0  0  0  0  0
  192.3800  177.7710  139.9170 C   0  0  0  0  0  2  0  0  0  0  0  0
  194.1250  176.3940  139.0430 O   0  0  0  0  0  1  0  0  0  0  0  0
  193.7810  177.2200  140.1130 C   0  0  0  0  0  2  0  0  0  0  0  0
  1 16  1  0  0  0  0
  2  5  1  0  0  0  0
  2 14  1  0  0  0  0
  4  6  1  0  0  0  0
  4  8  1  0  0  0  0
  5  7  1  0  0  0  0
  6  2  1  0  0  0  0
  7  3  1  0  0  0  0
  7 17  1  0  0  0  0
  8 12  1  0  0  0  0
  9  6  1  0  0  0  0
  9 15  1  0  0  0  0
 10 16  1  0  0  0  0
 10 13  1  0  0  0  0
 12 14  1  0  0  0  0
 12 11  1  0  0  0  0
 13  9  1  0  0  0  0
 14 19  1  0  0  0  0
 15  5  1  0  0  0  0
 16  4  1  0  0  0  0
 17 20  1  0  0  0  0
 18 10  1  0  0  0  0
 18 16  1  0  0  0  0
 19 17  1  0  0  0  0
 20 21  1  0  0  0  0
 20 23  1  0  0  0  0
 21 22  1  0  0  0  0
 23 26  1  0  0  0  0
 24 26  2  0  0  0  0
 26 25  1  0  0  0  0
 27 28  1  0  0  0  0
 27 13  1  0  0  0  0
 28 29  1  0  0  0  0
 30 33  1  0  0  0  0
 30 28  1  0  0  0  0
 31 33  1  0  0  0  0
 32 30  1  0  0  0  0
 34 32  1  0  0  0  0
 34 31  1  0  0  0  0
 35 37  1  0  0  0  0
 35 15  1  0  0  0  0
 36 37  1  0  0  0  0
M  END
>  <MODEL>
4

>  <REMARK>
 VINA RESULT:      -6.2      2.824      8.369
  Name = 
  9 active torsions:
  status: ('A' for Active; 'I' for Inactive)
    1  A    between atoms: N_1  and  C_5
    2  A    between atoms: N_1  and  C_23
    3  A    between atoms: C_2  and  N_6
    4  A    between atoms: N_6  and  C_8
    5  A    between atoms: N_6  and  C_31
    6  A    between atoms: C_8  and  C_19
    7  A    between atoms: C_23  and  C_25
    8  A    between atoms: C_29  and  C_33
    9  A    between atoms: C_33  and  C_36
                            x       y       z     vdW  Elec       q    Type
                         _______ _______ _______ _____ _____    ______ ____

>  <TORSDO>
F 9

$$$$
=
 OpenBabel11052415333D

 37 42  0  0  1  0  0  0  0  0999 V2000
  184.2370  177.1930  145.8380 F   0  0  0  0  0  0  0  0  0  0  0  0
  186.6910  179.0020  141.9190 C   0  0  2  0  0  3  0  0  0  0  0  0
  188.7110  176.7700  139.9650 O   0  0  0  0  0  1  0  0  0  0  0  0
  185.4610  177.9910  143.8020 C   0  0  2  0  0  3  0  0  0  0  0  0
  187.3880  177.7640  141.6160 N   0  0  1  0  0  0  0  0  0  0  0  0
  186.5260  179.0130  143.4130 C   0  0  1  0  0  3  0  0  0  0  0  0
  187.9110  177.8780  140.2550 C   0  0  2  0  0  3  0  0  0  0  0  0
  184.1680  178.2560  143.0420 C   0  0  0  0  0  2  0  0  0  0  0  0
  187.8810  178.5000  143.8610 C   0  0  1  0  0  3  0  0  0  0  0  0
  186.5970  177.6670  146.0730 C   0  0  2  0  0  3  0  0  0  0  0  0
  183.1230  178.3580  140.9660 C   0  0  0  0  0  1  0  0  0  0  0  0
  184.4020  178.0820  141.6040 N   0  0  0  0  0  0  0  0  0  0  0  0
  187.9050  177.7760  145.2360 C   0  0  2  0  0  3  0  0  0  0  0  0
  185.3680  179.0990  141.1510 C   0  0  2  0  0  3  0  0  0  0  0  0
  188.4300  177.7070  142.6480 C   0  0  1  0  0  3  0  0  0  0  0  0
  185.2960  177.9120  145.3160 C   0  0  2  0  0  0  0  0  0  0  0  0
  186.7080  177.9170  139.2750 C   0  0  1  0  0  3  0  0  0  0  0  0
  185.8690  179.0030  146.2080 C   0  0  0  0  0  2  0  0  0  0  0  0
  185.6780  179.0030  139.6450 C   0  0  0  0  0  2  0  0  0  0  0  0
  187.0730  178.0530  137.8550 N   0  0  0  0  0  0  0  0  0  0  0  0
  188.4140  178.6250  137.6310 C   0  0  0  0  0  2  0  0  0  0  0  0
  189.2530  177.8570  136.6120 C   0  0  0  0  0  1  0  0  0  0  0  0
  186.8530  176.8060  137.1260 C   0  0  0  0  0  2  0  0  0  0  0  0
  185.8370  177.4240  134.9360 O   0  0  0  0  0  0  0  0  0  0  0  0
  184.5230  176.6580  136.6510 O   0  0  0  0  0  1  0  0  0  0  0  0
  185.6740  176.9430  136.2270 C   0  0  0  0  0  0  0  0  0  0  0  0
  189.0560  178.3030  146.0820 C   0  0  0  0  0  2  0  0  0  0  0  0
  189.2650  177.4480  147.2420 N   0  0  0  0  0  0  0  0  0  0  0  0
  188.9570  178.2450  148.4240 C   0  0  0  0  0  1  0  0  0  0  0  0
  190.6720  177.0260  147.2550 C   0  0  2  0  0  3  0  0  0  0  0  0
  192.0160  175.2530  147.1300 C   0  0  0  0  0  2  0  0  0  0  0  0
  191.2890  177.1360  145.8780 C   0  0  0  0  0  2  0  0  0  0  0  0
  190.8280  175.7060  147.7210 O   0  0  0  0  0  0  0  0  0  0  0  0
  192.1760  175.9320  145.7880 C   0  0  0  0  0  2  0  0  0  0  0  0
  188.7520  176.2490  142.9780 C   0  0  0  0  0  2  0  0  0  0  0  0
  190.8910  177.1360  142.3930 O   0  0  0  0  0  1  0  0  0  0  0  0
  190.2260  175.9650  142.7550 C   0  0  0  0  0  2  0  0  0  0  0  0
  2  6  1  0  0  0  0
  3  7  1  0  0  0  0
  4 16  1  0  0  0  0
  5  2  1  0  0  0  0
  5 15  1  0  0  0  0
  6  4  1  0  0  0  0
  6  9  1  0  0  0  0
  7  5  1  0  0  0  0
  8  4  1  0  0  0  0
  9 13  1  0  0  0  0
 10 18  1  0  0  0  0
 11 12  1  0  0  0  0
 12  8  1  0  0  0  0
 13 10  1  0  0  0  0
 13 27  1  0  0  0  0
 14 12  1  0  0  0  0
 14  2  1  0  0  0  0
 15 35  1  0  0  0  0
 15  9  1  0  0  0  0
 16  1  1  0  0  0  0
 16 10  1  0  0  0  0
 16 18  1  0  0  0  0
 17 19  1  0  0  0  0
 17  7  1  0  0  0  0
 19 14  1  0  0  0  0
 20 17  1  0  0  0  0
 21 20  1  0  0  0  0
 22 21  1  0  0  0  0
 23 20  1  0  0  0  0
 24 26  2  0  0  0  0
 26 25  1  0  0  0  0
 26 23  1  0  0  0  0
 27 28  1  0  0  0  0
 28 30  1  0  0  0  0
 28 29  1  0  0  0  0
 30 33  1  0  0  0  0
 31 33  1  0  0  0  0
 32 30  1  0  0  0  0
 34 32  1  0  0  0  0
 34 31  1  0  0  0  0
 36 37  1  0  0  0  0
 37 35  1  0  0  0  0
M  END
>  <MODEL>
5

>  <REMARK>
 VINA RESULT:      -5.9      2.771      5.101
  Name = 
  9 active torsions:
  status: ('A' for Active; 'I' for Inactive)
    1  A    between atoms: N_1  and  C_5
    2  A    between atoms: N_1  and  C_23
    3  A    between atoms: C_2  and  N_6
    4  A    between atoms: N_6  and  C_8
    5  A    between atoms: N_6  and  C_31
    6  A    between atoms: C_8  and  C_19
    7  A    between atoms: C_23  and  C_25
    8  A    between atoms: C_29  and  C_33
    9  A    between atoms: C_33  and  C_36
                            x       y       z     vdW  Elec       q    Type
                         _______ _______ _______ _____ _____    ______ ____

>  <TORSDO>
F 9

$$$$
=
 OpenBabel11052415333D

 37 42  0  0  1  0  0  0  0  0999 V2000
  187.7760  179.1990  137.8540 F   0  0  0  0  0  0  0  0  0  0  0  0
  188.8230  176.7620  142.0510 C   0  0  2  0  0  3  0  0  0  0  0  0
  191.6810  177.7750  143.9720 O   0  0  0  0  0  1  0  0  0  0  0  0
  188.3520  178.0790  140.0210 C   0  0  2  0  0  3  0  0  0  0  0  0
  190.0650  177.4710  142.3100 N   0  0  1  0  0  0  0  0  0  0  0  0
  188.7060  176.6940  140.5550 C   0  0  1  0  0  3  0  0  0  0  0  0
  190.4220  177.2320  143.7080 C   0  0  2  0  0  3  0  0  0  0  0  0
  187.1010  178.6100  140.7090 C   0  0  0  0  0  2  0  0  0  0  0  0
  190.1350  176.3710  140.1640 C   0  0  1  0  0  3  0  0  0  0  0  0
  189.5300  177.5350  137.8150 C   0  0  2  0  0  3  0  0  0  0  0  0
  186.1210  179.2760  142.7110 C   0  0  0  0  0  1  0  0  0  0  0  0
  187.3640  178.7740  142.1430 N   0  0  0  0  0  0  0  0  0  0  0  0
  190.5650  176.8360  138.7440 C   0  0  2  0  0  3  0  0  0  0  0  0
  187.6360  177.4510  142.7330 C   0  0  2  0  0  3  0  0  0  0  0  0
  190.9980  176.8710  141.3510 C   0  0  1  0  0  3  0  0  0  0  0  0
  188.2830  178.0860  138.4980 C   0  0  2  0  0  0  0  0  0  0  0  0
  189.3620  177.9270  144.6050 C   0  0  1  0  0  3  0  0  0  0  0  0
  188.2080  176.7760  137.7280 C   0  0  0  0  0  2  0  0  0  0  0  0
  187.9200  177.5150  144.2460 C   0  0  0  0  0  2  0  0  0  0  0  0
  189.5720  177.7590  146.0530 N   0  0  0  0  0  0  0  0  0  0  0  0
  188.4590  178.2530  146.8840 C   0  0  0  0  0  2  0  0  0  0  0  0
  188.1280  177.3560  148.0740 C   0  0  0  0  0  1  0  0  0  0  0  0
  189.9660  176.3900  146.3780 C   0  0  0  0  0  2  0  0  0  0  0  0
  191.6530  177.2350  148.0060 O   0  0  0  0  0  1  0  0  0  0  0  0
  192.2190  175.6220  146.4800 O   0  0  0  0  0  0  0  0  0  0  0  0
  191.3370  176.3800  146.9600 C   0  0  0  0  0  0  0  0  0  0  0  0
  191.2790  175.7030  138.0190 C   0  0  0  0  0  2  0  0  0  0  0  0
  191.9330  176.2030  136.8180 N   0  0  0  0  0  0  0  0  0  0  0  0
  191.4500  175.4010  135.7000 C   0  0  0  0  0  1  0  0  0  0  0  0
  193.3840  176.0400  136.9830 C   0  0  2  0  0  3  0  0  0  0  0  0
  194.9990  174.5350  137.2830 C   0  0  0  0  0  2  0  0  0  0  0  0
  194.0840  175.9890  135.6430 C   0  0  0  0  0  2  0  0  0  0  0  0
  193.7110  174.8820  137.7140 O   0  0  0  0  0  0  0  0  0  0  0  0
  195.1560  174.9610  135.8410 C   0  0  0  0  0  2  0  0  0  0  0  0
  192.0490  177.9010  140.9390 C   0  0  0  0  0  2  0  0  0  0  0  0
  193.9300  177.7750  139.4720 O   0  0  0  0  0  1  0  0  0  0  0  0
  193.3680  177.2190  140.6210 C   0  0  0  0  0  2  0  0  0  0  0  0
  1 16  1  0  0  0  0
  2  5  1  0  0  0  0
  2 14  1  0  0  0  0
  4  6  1  0  0  0  0
  4  8  1  0  0  0  0
  5  7  1  0  0  0  0
  6  2  1  0  0  0  0
  7  3  1  0  0  0  0
  7 17  1  0  0  0  0
  8 12  1  0  0  0  0
  9  6  1  0  0  0  0
  9 15  1  0  0  0  0
 10 16  1  0  0  0  0
 10 13  1  0  0  0  0
 12 11  1  0  0  0  0
 12 14  1  0  0  0  0
 13  9  1  0  0  0  0
 14 19  1  0  0  0  0
 15  5  1  0  0  0  0
 16  4  1  0  0  0  0
 17 20  1  0  0  0  0
 18 10  1  0  0  0  0
 18 16  1  0  0  0  0
 19 17  1  0  0  0  0
 20 23  1  0  0  0  0
 20 21  1  0  0  0  0
 21 22  1  0  0  0  0
 23 26  1  0  0  0  0
 25 26  2  0  0  0  0
 26 24  1  0  0  0  0
 27 13  1  0  0  0  0
 28 30  1  0  0  0  0
 28 27  1  0  0  0  0
 29 28  1  0  0  0  0
 30 33  1  0  0  0  0
 31 33  1  0  0  0  0
 32 34  1  0  0  0  0
 32 30  1  0  0  0  0
 34 31  1  0  0  0  0
 35 15  1  0  0  0  0
 36 37  1  0  0  0  0
 37 35  1  0  0  0  0
M  END
>  <MODEL>
6

>  <REMARK>
 VINA RESULT:      -5.9      3.394      8.938
  Name = 
  9 active torsions:
  status: ('A' for Active; 'I' for Inactive)
    1  A    between atoms: N_1  and  C_5
    2  A    between atoms: N_1  and  C_23
    3  A    between atoms: C_2  and  N_6
    4  A    between atoms: N_6  and  C_8
    5  A    between atoms: N_6  and  C_31
    6  A    between atoms: C_8  and  C_19
    7  A    between atoms: C_23  and  C_25
    8  A    between atoms: C_29  and  C_33
    9  A    between atoms: C_33  and  C_36
                            x       y       z     vdW  Elec       q    Type
                         _______ _______ _______ _____ _____    ______ ____

>  <TORSDO>
F 9

$$$$
=
 OpenBabel11052415333D

 37 42  0  0  1  0  0  0  0  0999 V2000
  183.9730  177.8780  143.8020 F   0  0  0  0  0  0  0  0  0  0  0  0
  187.9510  178.6600  140.9350 C   0  0  2  0  0  3  0  0  0  0  0  0
  190.0400  175.8690  140.0790 O   0  0  0  0  0  1  0  0  0  0  0  0
  185.9650  178.1530  142.3060 C   0  0  2  0  0  3  0  0  0  0  0  0
  188.4490  177.2970  141.0250 N   0  0  1  0  0  0  0  0  0  0  0  0
  187.2800  178.9270  142.2530 C   0  0  1  0  0  3  0  0  0  0  0  0
  189.4260  177.1170  139.9520 C   0  0  2  0  0  3  0  0  0  0  0  0
  185.1000  178.4920  141.0990 C   0  0  0  0  0  2  0  0  0  0  0  0
  188.2620  178.2890  143.2170 C   0  0  1  0  0  3  0  0  0  0  0  0
  186.1460  178.0160  144.8560 C   0  0  2  0  0  3  0  0  0  0  0  0
  184.8900  178.4280  138.7830 C   0  0  0  0  0  1  0  0  0  0  0  0
  185.7830  178.0620  139.8730 N   0  0  0  0  0  0  0  0  0  0  0  0
  187.6580  177.7930  144.5600 C   0  0  2  0  0  3  0  0  0  0  0  0
  187.0280  178.8370  139.7250 C   0  0  2  0  0  3  0  0  0  0  0  0
  189.0300  177.2430  142.3700 C   0  0  1  0  0  3  0  0  0  0  0  0
  185.2690  178.3360  143.6510 C   0  0  2  0  0  0  0  0  0  0  0  0
  188.6760  177.1870  138.5950 C   0  0  1  0  0  3  0  0  0  0  0  0
  185.6980  179.4520  144.5920 C   0  0  0  0  0  2  0  0  0  0  0  0
  187.8190  178.4630  138.4570 C   0  0  0  0  0  2  0  0  0  0  0  0
  189.5340  177.0440  137.4070 N   0  0  0  0  0  0  0  0  0  0  0  0
  189.1570  177.9220  136.2830 C   0  0  0  0  0  2  0  0  0  0  0  0
  189.0740  177.2060  134.9370 C   0  0  0  0  0  1  0  0  0  0  0  0
  190.9490  177.1370  137.7570 C   0  0  0  0  0  2  0  0  0  0  0  0
  191.3450  174.6870  137.5280 O   0  0  0  0  0  1  0  0  0  0  0  0
  192.6610  176.1870  136.3990 O   0  0  0  0  0  0  0  0  0  0  0  0
  191.6930  175.9840  137.1780 C   0  0  0  0  0  0  0  0  0  0  0  0
  188.5210  178.2620  145.7230 C   0  0  0  0  0  2  0  0  0  0  0  0
  188.6060  177.2250  146.7420 N   0  0  0  0  0  0  0  0  0  0  0  0
  187.7720  177.6500  147.8600 C   0  0  0  0  0  1  0  0  0  0  0  0
  190.0090  177.1040  147.1600 C   0  0  2  0  0  3  0  0  0  0  0  0
  191.6670  175.6530  147.4870 C   0  0  0  0  0  2  0  0  0  0  0  0
  190.9480  177.3610  146.0020 C   0  0  0  0  0  2  0  0  0  0  0  0
  190.2960  175.8400  147.7090 O   0  0  0  0  0  0  0  0  0  0  0  0
  192.0520  176.3690  146.2130 C   0  0  0  0  0  2  0  0  0  0  0  0
  188.9190  175.8220  142.9240 C   0  0  0  0  0  2  0  0  0  0  0  0
  191.2800  176.1850  142.8800 O   0  0  0  0  0  1  0  0  0  0  0  0
  190.2970  175.2580  143.2250 C   0  0  0  0  0  2  0  0  0  0  0  0
  2  5  1  0  0  0  0
  2  6  1  0  0  0  0
  4 16  1  0  0  0  0
  5 15  1  0  0  0  0
  6  4  1  0  0  0  0
  6  9  1  0  0  0  0
  7  3  1  0  0  0  0
  7  5  1  0  0  0  0
  8  4  1  0  0  0  0
  9 13  1  0  0  0  0
 11 12  1  0  0  0  0
 12  8  1  0  0  0  0
 13 10  1  0  0  0  0
 13 27  1  0  0  0  0
 14 12  1  0  0  0  0
 14  2  1  0  0  0  0
 15 35  1  0  0  0  0
 15  9  1  0  0  0  0
 16  1  1  0  0  0  0
 16 18  1  0  0  0  0
 16 10  1  0  0  0  0
 17  7  1  0  0  0  0
 18 10  1  0  0  0  0
 19 17  1  0  0  0  0
 19 14  1  0  0  0  0
 20 23  1  0  0  0  0
 20 17  1  0  0  0  0
 21 20  1  0  0  0  0
 22 21  1  0  0  0  0
 25 26  2  0  0  0  0
 26 24  1  0  0  0  0
 26 23  1  0  0  0  0
 27 28  1  0  0  0  0
 28 30  1  0  0  0  0
 28 29  1  0  0  0  0
 30 33  1  0  0  0  0
 31 33  1  0  0  0  0
 32 34  1  0  0  0  0
 32 30  1  0  0  0  0
 34 31  1  0  0  0  0
 35 37  1  0  0  0  0
 36 37  1  0  0  0  0
M  END
>  <MODEL>
7

>  <REMARK>
 VINA RESULT:      -5.7      2.875      4.841
  Name = 
  9 active torsions:
  status: ('A' for Active; 'I' for Inactive)
    1  A    between atoms: N_1  and  C_5
    2  A    between atoms: N_1  and  C_23
    3  A    between atoms: C_2  and  N_6
    4  A    between atoms: N_6  and  C_8
    5  A    between atoms: N_6  and  C_31
    6  A    between atoms: C_8  and  C_19
    7  A    between atoms: C_23  and  C_25
    8  A    between atoms: C_29  and  C_33
    9  A    between atoms: C_33  and  C_36
                            x       y       z     vdW  Elec       q    Type
                         _______ _______ _______ _____ _____    ______ ____

>  <TORSDO>
F 9

$$$$
=
 OpenBabel11052415333D

 37 42  0  0  1  0  0  0  0  0999 V2000
  189.2620  176.0790  143.6090 F   0  0  0  0  0  0  0  0  0  0  0  0
  186.8420  178.9680  140.3770 C   0  0  2  0  0  3  0  0  0  0  0  0
  185.4660  177.4740  137.4160 O   0  0  0  0  0  1  0  0  0  0  0  0
  187.9650  177.4360  141.9480 C   0  0  2  0  0  3  0  0  0  0  0  0
  186.6390  177.9210  139.3890 N   0  0  1  0  0  0  0  0  0  0  0  0
  188.1520  178.6460  141.0370 C   0  0  1  0  0  3  0  0  0  0  0  0
  185.6010  178.3830  138.4680 C   0  0  2  0  0  3  0  0  0  0  0  0
  186.8280  177.6830  142.9320 C   0  0  0  0  0  2  0  0  0  0  0  0
  188.9890  178.2320  139.8420 C   0  0  1  0  0  3  0  0  0  0  0  0
  190.4200  176.7960  141.6100 C   0  0  2  0  0  3  0  0  0  0  0  0
  184.5520  178.0770  143.2090 C   0  0  0  0  0  1  0  0  0  0  0  0
  185.5700  177.8440  142.1940 N   0  0  0  0  0  0  0  0  0  0  0  0
  190.1520  177.2460  140.1450 C   0  0  2  0  0  3  0  0  0  0  0  0
  185.6620  179.0490  141.3520 C   0  0  2  0  0  3  0  0  0  0  0  0
  187.9620  177.7860  138.7700 C   0  0  1  0  0  3  0  0  0  0  0  0
  189.2810  177.0220  142.5980 C   0  0  2  0  0  0  0  0  0  0  0  0
  184.2620  178.4690  139.2500 C   0  0  1  0  0  3  0  0  0  0  0  0
  190.4720  177.9680  142.5880 C   0  0  0  0  0  2  0  0  0  0  0  0
  184.3810  179.3110  140.5370 C   0  0  0  0  0  2  0  0  0  0  0  0
  183.1140  178.9440  138.4590 N   0  0  0  0  0  0  0  0  0  0  0  0
  182.3770  177.8720  137.7660 C   0  0  0  0  0  2  0  0  0  0  0  0
  182.2190  176.5960  138.5890 C   0  0  0  0  0  1  0  0  0  0  0  0
  182.2490  179.8180  139.2480 C   0  0  0  0  0  2  0  0  0  0  0  0
  182.8170  182.1420  138.5510 O   0  0  0  0  0  1  0  0  0  0  0  0
  180.8920  181.1450  137.8080 O   0  0  0  0  0  0  0  0  0  0  0  0
  181.9500  181.0610  138.4850 C   0  0  0  0  0  0  0  0  0  0  0  0
  191.4310  177.7310  139.4750 C   0  0  0  0  0  2  0  0  0  0  0  0
  192.3550  176.6210  139.2850 N   0  0  0  0  0  0  0  0  0  0  0  0
  193.6460  177.0390  139.8220 C   0  0  0  0  0  1  0  0  0  0  0  0
  192.4580  176.3490  137.8450 C   0  0  2  0  0  3  0  0  0  0  0  0
  193.8920  175.9050  136.1990 C   0  0  0  0  0  2  0  0  0  0  0  0
  192.2240  174.8850  137.5480 C   0  0  0  0  0  2  0  0  0  0  0  0
  193.7070  176.7290  137.3180 O   0  0  0  0  0  0  0  0  0  0  0  0
  193.2040  174.5830  136.4550 C   0  0  0  0  0  2  0  0  0  0  0  0
  188.1680  176.3470  138.2990 C   0  0  0  0  0  2  0  0  0  0  0  0
  188.7440  177.6100  136.3550 O   0  0  0  0  0  1  0  0  0  0  0  0
  188.7330  176.3220  136.8900 C   0  0  0  0  0  2  0  0  0  0  0  0
  2  6  1  0  0  0  0
  2 14  1  0  0  0  0
  3  7  1  0  0  0  0
  4 16  1  0  0  0  0
  4  8  1  0  0  0  0
  5  2  1  0  0  0  0
  6  4  1  0  0  0  0
  7 17  1  0  0  0  0
  7  5  1  0  0  0  0
  9 13  1  0  0  0  0
  9  6  1  0  0  0  0
 10 18  1  0  0  0  0
 10 16  1  0  0  0  0
 12  8  1  0  0  0  0
 12 11  1  0  0  0  0
 13 10  1  0  0  0  0
 14 12  1  0  0  0  0
 15  5  1  0  0  0  0
 15  9  1  0  0  0  0
 16  1  1  0  0  0  0
 17 19  1  0  0  0  0
 18 16  1  0  0  0  0
 19 14  1  0  0  0  0
 20 23  1  0  0  0  0
 20 17  1  0  0  0  0
 21 20  1  0  0  0  0
 21 22  1  0  0  0  0
 25 26  2  0  0  0  0
 26 24  1  0  0  0  0
 26 23  1  0  0  0  0
 27 13  1  0  0  0  0
 28 27  1  0  0  0  0
 28 29  1  0  0  0  0
 30 28  1  0  0  0  0
 31 34  1  0  0  0  0
 31 33  1  0  0  0  0
 32 30  1  0  0  0  0
 33 30  1  0  0  0  0
 34 32  1  0  0  0  0
 35 15  1  0  0  0  0
 36 37  1  0  0  0  0
 37 35  1  0  0  0  0
M  END
>  <MODEL>
8

>  <REMARK>
 VINA RESULT:      -5.7      3.126      7.262
  Name = 
  9 active torsions:
  status: ('A' for Active; 'I' for Inactive)
    1  A    between atoms: N_1  and  C_5
    2  A    between atoms: N_1  and  C_23
    3  A    between atoms: C_2  and  N_6
    4  A    between atoms: N_6  and  C_8
    5  A    between atoms: N_6  and  C_31
    6  A    between atoms: C_8  and  C_19
    7  A    between atoms: C_23  and  C_25
    8  A    between atoms: C_29  and  C_33
    9  A    between atoms: C_33  and  C_36
                            x       y       z     vdW  Elec       q    Type
                         _______ _______ _______ _____ _____    ______ ____

>  <TORSDO>
F 9

$$$$
=
 OpenBabel11052415333D

 37 42  0  0  1  0  0  0  0  0999 V2000
  189.8800  175.6510  143.3120 F   0  0  0  0  0  0  0  0  0  0  0  0
  187.0150  178.9620  140.9710 C   0  0  2  0  0  3  0  0  0  0  0  0
  184.9640  177.8510  138.2430 O   0  0  0  0  0  1  0  0  0  0  0  0
  188.3470  177.2270  142.1080 C   0  0  2  0  0  3  0  0  0  0  0  0
  186.5480  178.0370  139.9520 N   0  0  1  0  0  0  0  0  0  0  0  0
  188.4130  178.5210  141.3010 C   0  0  1  0  0  3  0  0  0  0  0  0
  185.3700  178.6350  139.3250 C   0  0  2  0  0  3  0  0  0  0  0  0
  187.4590  177.4100  143.3320 C   0  0  0  0  0  2  0  0  0  0  0  0
  188.9550  178.2070  139.9200 C   0  0  1  0  0  3  0  0  0  0  0  0
  190.6350  176.5350  141.1920 C   0  0  2  0  0  3  0  0  0  0  0  0
  185.3190  177.8580  144.1270 C   0  0  0  0  0  1  0  0  0  0  0  0
  186.0860  177.6970  142.9000 N   0  0  0  0  0  0  0  0  0  0  0  0
  190.0950  177.1520  139.8690 C   0  0  2  0  0  3  0  0  0  0  0  0
  186.0720  178.9820  142.1790 C   0  0  2  0  0  3  0  0  0  0  0  0
  187.7010  177.9200  139.0540 C   0  0  1  0  0  3  0  0  0  0  0  0
  189.7430  176.6960  142.4180 C   0  0  2  0  0  0  0  0  0  0  0  0
  184.2310  178.6860  140.3800 C   0  0  1  0  0  3  0  0  0  0  0  0
  190.9610  177.5920  142.2460 C   0  0  0  0  0  2  0  0  0  0  0  0
  184.6670  179.3790  141.6880 C   0  0  0  0  0  2  0  0  0  0  0  0
  182.9750  179.2870  139.9040 N   0  0  0  0  0  0  0  0  0  0  0  0
  183.1320  180.1490  138.7170 C   0  0  0  0  0  2  0  0  0  0  0  0
  181.9230  181.0360  138.4300 C   0  0  0  0  0  1  0  0  0  0  0  0
  181.9280  178.2800  139.7450 C   0  0  0  0  0  2  0  0  0  0  0  0
  179.8120  177.5830  140.8620 O   0  0  0  0  0  0  0  0  0  0  0  0
  181.0660  179.3000  141.7180 O   0  0  0  0  0  1  0  0  0  0  0  0
  180.9250  178.4120  140.8370 C   0  0  0  0  0  0  0  0  0  0  0  0
  191.2320  177.6570  138.9920 C   0  0  0  0  0  2  0  0  0  0  0  0
  192.3630  176.7410  139.0520 N   0  0  0  0  0  0  0  0  0  0  0  0
  193.4920  177.4870  139.5970 C   0  0  0  0  0  1  0  0  0  0  0  0
  192.6560  176.2820  137.6880 C   0  0  2  0  0  3  0  0  0  0  0  0
  194.3060  175.7600  136.2840 C   0  0  0  0  0  2  0  0  0  0  0  0
  192.5850  174.7740  137.5910 C   0  0  0  0  0  2  0  0  0  0  0  0
  193.9220  176.7090  137.2420 O   0  0  0  0  0  0  0  0  0  0  0  0
  193.7080  174.4240  136.6630 C   0  0  0  0  0  2  0  0  0  0  0  0
  187.7180  176.5330  138.4120 C   0  0  0  0  0  2  0  0  0  0  0  0
  188.3460  177.8950  136.5530 O   0  0  0  0  0  1  0  0  0  0  0  0
  187.8360  176.6450  136.9020 C   0  0  0  0  0  2  0  0  0  0  0  0
  2  6  1  0  0  0  0
  2 14  1  0  0  0  0
  3  7  1  0  0  0  0
  4 16  1  0  0  0  0
  4  8  1  0  0  0  0
  5  2  1  0  0  0  0
  6  4  1  0  0  0  0
  7  5  1  0  0  0  0
  7 17  1  0  0  0  0
  9  6  1  0  0  0  0
 10 18  1  0  0  0  0
 10 16  1  0  0  0  0
 12  8  1  0  0  0  0
 12 11  1  0  0  0  0
 13  9  1  0  0  0  0
 13 10  1  0  0  0  0
 14 12  1  0  0  0  0
 15  9  1  0  0  0  0
 15  5  1  0  0  0  0
 16  1  1  0  0  0  0
 17 19  1  0  0  0  0
 18 16  1  0  0  0  0
 19 14  1  0  0  0  0
 20 17  1  0  0  0  0
 21 20  1  0  0  0  0
 22 21  1  0  0  0  0
 23 20  1  0  0  0  0
 23 26  1  0  0  0  0
 26 24  2  0  0  0  0
 26 25  1  0  0  0  0
 27 28  1  0  0  0  0
 27 13  1  0  0  0  0
 28 29  1  0  0  0  0
 30 28  1  0  0  0  0
 31 34  1  0  0  0  0
 31 33  1  0  0  0  0
 32 30  1  0  0  0  0
 33 30  1  0  0  0  0
 34 32  1  0  0  0  0
 35 15  1  0  0  0  0
 36 37  1  0  0  0  0
 37 35  1  0  0  0  0
M  END
>  <MODEL>
9

>  <REMARK>
 VINA RESULT:      -5.5      3.079      7.388
  Name = 
  9 active torsions:
  status: ('A' for Active; 'I' for Inactive)
    1  A    between atoms: N_1  and  C_5
    2  A    between atoms: N_1  and  C_23
    3  A    between atoms: C_2  and  N_6
    4  A    between atoms: N_6  and  C_8
    5  A    between atoms: N_6  and  C_31
    6  A    between atoms: C_8  and  C_19
    7  A    between atoms: C_23  and  C_25
    8  A    between atoms: C_29  and  C_33
    9  A    between atoms: C_33  and  C_36
                            x       y       z     vdW  Elec       q    Type
                         _______ _______ _______ _____ _____    ______ ____

>  <TORSDO>
F 9

$$$$
