=
 OpenBabel11052412183D

 30 33  0  0  1  0  0  0  0  0999 V2000
  186.2930  177.5510  144.3470 C   0  0  2  0  0  3  0  0  0  0  0  0
  187.8980  176.9630  147.6070 C   0  0  2  0  0  3  0  0  0  0  0  0
  189.8110  176.8030  144.8320 C   0  0  0  0  0  2  0  0  0  0  0  0
  186.0750  177.3990  145.8540 C   0  0  0  0  0  2  0  0  0  0  0  0
  189.9570  177.5200  146.1580 C   0  0  0  0  0  2  0  0  0  0  0  0
  188.9550  177.5710  148.3160 O   0  0  0  0  0  0  0  0  0  0  0  0
  187.5070  176.7820  143.8190 C   0  0  0  0  0  2  0  0  0  0  0  0
  188.8110  177.5600  143.9630 C   0  0  2  0  0  3  0  0  0  0  0  0
  189.3350  176.6970  147.2810 C   0  0  1  0  0  3  0  0  0  0  0  0
  187.2290  179.2540  146.9430 C   0  0  0  0  0  2  0  0  0  0  0  0
  187.1860  177.9420  146.7020 C   0  0  0  0  0  0  0  0  0  0  0  0
  186.2110  179.0060  143.8670 C   0  0  1  0  0  3  0  0  0  0  0  0
  185.4900  179.0650  142.6580 O   0  0  0  0  0  0  0  0  0  0  0  0
  184.8330  179.5890  143.7880 C   0  0  1  0  0  3  0  0  0  0  0  0
  183.2440  179.0320  145.4740 O   0  0  0  0  0  1  0  0  0  0  0  0
  183.6980  178.6540  144.2110 C   0  0  1  0  0  3  0  0  0  0  0  0
  182.5450  178.7270  143.2240 C   0  0  0  0  0  2  0  0  0  0  0  0
  180.1040  178.4100  142.9670 C   0  0  0  0  0  1  0  0  0  0  0  0
  181.2200  178.6700  143.9570 C   0  0  0  0  0  2  0  0  0  0  0  0
  189.3510  177.9370  142.6500 N   0  0  0  0  0  0  0  0  0  0  0  0
  190.6310  178.3440  142.8250 O   0  0  0  0  0  1  0  0  0  0  0  0
  189.3860  176.5380  141.5530 S   0  0  0  0  0  0  0  0  0  0  0  0
  190.6580  175.5980  138.5350 C   0  0  2  0  0  3  0  0  0  0  0  0
  191.7090  176.9640  139.1540 S   0  0  0  0  0  0  0  0  0  0  0  0
  191.4410  174.7810  137.5310 C   0  0  0  0  0  1  0  0  0  0  0  0
  189.0720  177.5200  140.0370 C   0  0  2  0  0  0  0  0  0  0  0  0
  190.3750  178.1660  139.5600 C   0  0  0  0  0  2  0  0  0  0  0  0
  189.3960  176.1280  137.8820 C   0  0  0  0  0  2  0  0  0  0  0  0
  188.1080  178.6390  140.3800 C   0  0  0  0  0  1  0  0  0  0  0  0
  188.4280  176.6590  138.9380 C   0  0  0  0  0  2  0  0  0  0  0  0
  1  7  1  1  0  0  0
  1  4  1  0  0  0  0
  2 11  1  6  0  0  0
  2  6  1  0  0  0  0
  3  5  1  0  0  0  0
  4 11  1  0  0  0  0
  7  8  1  0  0  0  0
  8 20  1  6  0  0  0
  8  3  1  0  0  0  0
  9  5  1  6  0  0  0
  9  2  1  0  0  0  0
  9  6  1  0  0  0  0
 11 10  2  0  0  0  0
 12 13  1  6  0  0  0
 12  1  1  0  0  0  0
 13 14  1  0  0  0  0
 14 12  1  0  0  0  0
 14 16  1  1  0  0  0
 16 15  1  1  0  0  0
 17 19  1  0  0  0  0
 17 16  1  0  0  0  0
 18 19  1  0  0  0  0
 20 21  1  0  0  0  0
 22 20  1  0  0  0  0
 23 25  1  6  0  0  0
 23 24  1  0  0  0  0
 24 27  1  0  0  0  0
 26 29  1  1  0  0  0
 26 22  1  0  0  0  0
 27 26  1  0  0  0  0
 28 23  1  0  0  0  0
 28 30  1  0  0  0  0
 30 26  1  0  0  0  0
M  END
>  <MODEL>
1

>  <REMARK>
 VINA RESULT:      -6.3      0.000      0.000
  Name = 
  7 active torsions:
  status: ('A' for Active; 'I' for Inactive)
    1  A    between atoms: C_1  and  C_4
    2  A    between atoms: S_3  and  N_11
    3  A    between atoms: S_3  and  C_19
    4  A    between atoms: C_8  and  C_9
    5  A    between atoms: C_8  and  C_12
    6  A    between atoms: C_9  and  C_21
    7  A    between atoms: N_11  and  C_25
                            x       y       z     vdW  Elec       q    Type
                         _______ _______ _______ _____ _____    ______ ____

>  <TORSDO>
F 7

$$$$
=
 OpenBabel11052412183D

 30 33  0  0  1  0  0  0  0  0999 V2000
  187.8810  177.1910  142.7520 C   0  0  2  0  0  3  0  0  0  0  0  0
  190.4250  176.6180  145.3510 C   0  0  2  0  0  3  0  0  0  0  0  0
  191.3740  176.4300  142.1190 C   0  0  0  0  0  2  0  0  0  0  0  0
  188.1460  177.0500  144.2540 C   0  0  0  0  0  2  0  0  0  0  0  0
  191.9290  177.1550  143.3270 C   0  0  0  0  0  2  0  0  0  0  0  0
  191.6520  177.2270  145.6890 O   0  0  0  0  0  0  0  0  0  0  0  0
  188.8680  176.4130  141.8780 C   0  0  0  0  0  2  0  0  0  0  0  0
  190.1540  177.1850  141.6000 C   0  0  2  0  0  3  0  0  0  0  0  0
  191.6880  176.3430  144.5950 C   0  0  1  0  0  3  0  0  0  0  0  0
  189.5870  178.9080  144.9110 C   0  0  0  0  0  2  0  0  0  0  0  0
  189.4680  177.5940  144.7070 C   0  0  0  0  0  0  0  0  0  0  0  0
  187.6570  178.6430  142.3100 C   0  0  1  0  0  3  0  0  0  0  0  0
  186.9730  178.6610  141.0790 O   0  0  0  0  0  0  0  0  0  0  0  0
  186.2270  179.0750  142.1990 C   0  0  1  0  0  3  0  0  0  0  0  0
  184.6800  178.2780  143.8260 O   0  0  0  0  0  1  0  0  0  0  0  0
  185.1880  178.0110  142.5560 C   0  0  1  0  0  3  0  0  0  0  0  0
  184.0480  178.0140  141.5510 C   0  0  0  0  0  2  0  0  0  0  0  0
  181.7150  178.7180  141.1150 C   0  0  0  0  0  1  0  0  0  0  0  0
  182.8290  178.6960  142.1400 C   0  0  0  0  0  2  0  0  0  0  0  0
  190.2560  177.5510  140.1810 N   0  0  0  0  0  0  0  0  0  0  0  0
  191.5660  177.5240  139.8360 O   0  0  0  0  0  1  0  0  0  0  0  0
  189.4160  176.3630  139.1580 S   0  0  0  0  0  0  0  0  0  0  0  0
  187.6300  175.4340  136.4090 C   0  0  2  0  0  3  0  0  0  0  0  0
  189.3290  175.8080  135.8390 S   0  0  0  0  0  0  0  0  0  0  0  0
  186.9580  174.5150  135.4120 C   0  0  0  0  0  1  0  0  0  0  0  0
  188.7860  177.6040  137.9650 C   0  0  2  0  0  0  0  0  0  0  0  0
  189.5200  177.4580  136.6300 C   0  0  0  0  0  2  0  0  0  0  0  0
  186.8110  176.7000  136.5610 C   0  0  0  0  0  2  0  0  0  0  0  0
  189.0900  178.9880  138.5040 C   0  0  0  0  0  1  0  0  0  0  0  0
  187.2620  177.4870  137.7910 C   0  0  0  0  0  2  0  0  0  0  0  0
  1  7  1  6  0  0  0
  1  4  1  0  0  0  0
  2 11  1  6  0  0  0
  2  6  1  0  0  0  0
  3  5  1  0  0  0  0
  4 11  1  0  0  0  0
  8 20  1  6  0  0  0
  8  7  1  0  0  0  0
  8  3  1  0  0  0  0
  9  5  1  6  0  0  0
  9  2  1  0  0  0  0
  9  6  1  0  0  0  0
 11 10  2  0  0  0  0
 12 13  1  6  0  0  0
 12  1  1  0  0  0  0
 13 14  1  0  0  0  0
 14 12  1  0  0  0  0
 14 16  1  1  0  0  0
 16 15  1  1  0  0  0
 17 19  1  0  0  0  0
 17 16  1  0  0  0  0
 18 19  1  0  0  0  0
 21 20  1  0  0  0  0
 22 20  1  0  0  0  0
 23 25  1  6  0  0  0
 23 28  1  0  0  0  0
 24 23  1  0  0  0  0
 24 27  1  0  0  0  0
 26 29  1  1  0  0  0
 26 22  1  0  0  0  0
 27 26  1  0  0  0  0
 28 30  1  0  0  0  0
 30 26  1  0  0  0  0
M  END
>  <MODEL>
2

>  <REMARK>
 VINA RESULT:      -6.0      2.308      2.935
  Name = 
  7 active torsions:
  status: ('A' for Active; 'I' for Inactive)
    1  A    between atoms: C_1  and  C_4
    2  A    between atoms: S_3  and  N_11
    3  A    between atoms: S_3  and  C_19
    4  A    between atoms: C_8  and  C_9
    5  A    between atoms: C_8  and  C_12
    6  A    between atoms: C_9  and  C_21
    7  A    between atoms: N_11  and  C_25
                            x       y       z     vdW  Elec       q    Type
                         _______ _______ _______ _____ _____    ______ ____

>  <TORSDO>
F 7

$$$$
=
 OpenBabel11052412183D

 30 33  0  0  1  0  0  0  0  0999 V2000
  186.1130  177.5740  143.4550 C   0  0  2  0  0  3  0  0  0  0  0  0
  186.7230  177.4310  147.0830 C   0  0  2  0  0  3  0  0  0  0  0  0
  189.3440  176.9920  145.0040 C   0  0  0  0  0  2  0  0  0  0  0  0
  185.4760  177.5990  144.8470 C   0  0  0  0  0  2  0  0  0  0  0  0
  189.1120  177.8680  146.2180 C   0  0  0  0  0  2  0  0  0  0  0  0
  187.5390  178.1510  147.9800 O   0  0  0  0  0  0  0  0  0  0  0  0
  187.4220  176.7820  143.3920 C   0  0  0  0  0  2  0  0  0  0  0  0
  188.6370  177.6090  143.8010 C   0  0  2  0  0  3  0  0  0  0  0  0
  188.1920  177.1690  147.2120 C   0  0  1  0  0  3  0  0  0  0  0  0
  186.2850  179.6050  145.9780 C   0  0  0  0  0  2  0  0  0  0  0  0
  186.3040  178.2720  145.9000 C   0  0  0  0  0  0  0  0  0  0  0  0
  186.1810  178.9570  142.7950 C   0  0  1  0  0  3  0  0  0  0  0  0
  186.4020  178.8100  141.4120 O   0  0  0  0  0  0  0  0  0  0  0  0
  185.1160  179.2470  141.7820 C   0  0  1  0  0  3  0  0  0  0  0  0
  182.9150  178.4450  142.2200 O   0  0  0  0  0  1  0  0  0  0  0  0
  184.0990  178.1260  141.5570 C   0  0  1  0  0  3  0  0  0  0  0  0
  183.8100  177.9530  140.0750 C   0  0  0  0  0  2  0  0  0  0  0  0
  182.5570  179.5770  138.6900 C   0  0  0  0  0  1  0  0  0  0  0  0
  183.8810  179.2900  139.3640 C   0  0  0  0  0  2  0  0  0  0  0  0
  189.5300  177.8400  142.6580 N   0  0  0  0  0  0  0  0  0  0  0  0
  190.7960  177.9390  143.1290 O   0  0  0  0  0  1  0  0  0  0  0  0
  189.4890  176.4630  141.5330 S   0  0  0  0  0  0  0  0  0  0  0  0
  187.9330  177.3850  138.6450 C   0  0  2  0  0  3  0  0  0  0  0  0
  188.9010  175.8760  138.2700 S   0  0  0  0  0  0  0  0  0  0  0  0
  186.8190  177.5290  137.6310 C   0  0  0  0  0  1  0  0  0  0  0  0
  190.3950  177.3280  140.1940 C   0  0  2  0  0  0  0  0  0  0  0  0
  190.5150  176.4120  138.9740 C   0  0  0  0  0  2  0  0  0  0  0  0
  188.8090  178.6220  138.6140 C   0  0  0  0  0  2  0  0  0  0  0  0
  191.8000  177.6280  140.6800 C   0  0  0  0  0  1  0  0  0  0  0  0
  189.7210  178.6640  139.8380 C   0  0  0  0  0  2  0  0  0  0  0  0
  1  7  1  1  0  0  0
  1  4  1  0  0  0  0
  2 11  1  6  0  0  0
  2  9  1  0  0  0  0
  2  6  1  0  0  0  0
  3  5  1  0  0  0  0
  4 11  1  0  0  0  0
  7  8  1  0  0  0  0
  8 20  1  6  0  0  0
  8  3  1  0  0  0  0
  9  5  1  6  0  0  0
  9  6  1  0  0  0  0
 11 10  2  0  0  0  0
 12 13  1  6  0  0  0
 12  1  1  0  0  0  0
 13 14  1  0  0  0  0
 14 16  1  1  0  0  0
 14 12  1  0  0  0  0
 16 15  1  1  0  0  0
 17 16  1  0  0  0  0
 18 19  1  0  0  0  0
 19 17  1  0  0  0  0
 20 21  1  0  0  0  0
 22 20  1  0  0  0  0
 23 25  1  6  0  0  0
 24 23  1  0  0  0  0
 24 27  1  0  0  0  0
 26 29  1  1  0  0  0
 26 22  1  0  0  0  0
 27 26  1  0  0  0  0
 28 23  1  0  0  0  0
 28 30  1  0  0  0  0
 30 26  1  0  0  0  0
M  END
>  <MODEL>
3

>  <REMARK>
 VINA RESULT:      -5.9      1.879      2.510
  Name = 
  7 active torsions:
  status: ('A' for Active; 'I' for Inactive)
    1  A    between atoms: C_1  and  C_4
    2  A    between atoms: S_3  and  N_11
    3  A    between atoms: S_3  and  C_19
    4  A    between atoms: C_8  and  C_9
    5  A    between atoms: C_8  and  C_12
    6  A    between atoms: C_9  and  C_21
    7  A    between atoms: N_11  and  C_25
                            x       y       z     vdW  Elec       q    Type
                         _______ _______ _______ _____ _____    ______ ____

>  <TORSDO>
F 7

$$$$
=
 OpenBabel11052412183D

 30 33  0  0  1  0  0  0  0  0999 V2000
  187.6200  178.6890  141.1960 C   0  0  2  0  0  3  0  0  0  0  0  0
  188.8400  177.8840  144.5750 C   0  0  2  0  0  3  0  0  0  0  0  0
  185.5360  178.4300  144.1570 C   0  0  0  0  0  2  0  0  0  0  0  0
  188.8520  178.4260  142.0670 C   0  0  0  0  0  2  0  0  0  0  0  0
  186.3340  177.3340  144.8320 C   0  0  0  0  0  2  0  0  0  0  0  0
  188.5660  176.8650  145.5120 O   0  0  0  0  0  0  0  0  0  0  0  0
  186.4370  179.2820  141.9660 C   0  0  0  0  0  2  0  0  0  0  0  0
  185.5790  178.2200  142.6460 C   0  0  2  0  0  3  0  0  0  0  0  0
  187.6140  177.9000  145.4360 C   0  0  1  0  0  3  0  0  0  0  0  0
  188.7070  176.1160  142.8440 C   0  0  0  0  0  2  0  0  0  0  0  0
  188.6410  177.4130  143.1530 C   0  0  0  0  0  0  0  0  0  0  0  0
  187.2540  177.5050  140.2910 C   0  0  1  0  0  3  0  0  0  0  0  0
  186.7650  177.9860  139.0600 O   0  0  0  0  0  0  0  0  0  0  0  0
  188.0400  177.3900  139.0220 C   0  0  1  0  0  3  0  0  0  0  0  0
  190.3670  177.9030  139.0390 O   0  0  0  0  0  1  0  0  0  0  0  0
  189.1110  178.4620  138.8100 C   0  0  1  0  0  3  0  0  0  0  0  0
  189.0570  179.0040  137.3920 C   0  0  0  0  0  2  0  0  0  0  0  0
  187.9070  177.8900  135.5040 C   0  0  0  0  0  1  0  0  0  0  0  0
  189.1330  177.8680  136.3910 C   0  0  0  0  0  2  0  0  0  0  0  0
  184.2460  178.1420  142.0320 N   0  0  0  0  0  0  0  0  0  0  0  0
  183.3330  178.4830  142.9720 O   0  0  0  0  0  1  0  0  0  0  0  0
  184.0940  179.3090  140.6990 S   0  0  0  0  0  0  0  0  0  0  0  0
  181.7090  180.6960  138.6990 C   0  0  2  0  0  3  0  0  0  0  0  0
  180.8610  180.1150  140.2150 S   0  0  0  0  0  0  0  0  0  0  0  0
  180.8760  181.7760  138.0440 C   0  0  0  0  0  1  0  0  0  0  0  0
  182.9530  178.2680  139.7100 C   0  0  2  0  0  0  0  0  0  0  0  0
  181.5290  178.4010  140.2550 C   0  0  0  0  0  2  0  0  0  0  0  0
  181.9240  179.5590  137.7200 C   0  0  0  0  0  2  0  0  0  0  0  0
  183.3690  176.8180  139.8660 C   0  0  0  0  0  1  0  0  0  0  0  0
  183.0260  178.6250  138.2160 C   0  0  0  0  0  2  0  0  0  0  0  0
  1  7  1  1  0  0  0
  1  4  1  0  0  0  0
  2 11  1  6  0  0  0
  2  9  1  0  0  0  0
  2  6  1  0  0  0  0
  3  5  1  0  0  0  0
  4 11  1  0  0  0  0
  7  8  1  0  0  0  0
  8 20  1  6  0  0  0
  8  3  1  0  0  0  0
  9  5  1  6  0  0  0
  9  6  1  0  0  0  0
 10 11  2  0  0  0  0
 12 13  1  6  0  0  0
 12  1  1  0  0  0  0
 14 16  1  1  0  0  0
 14 13  1  0  0  0  0
 14 12  1  0  0  0  0
 16 15  1  6  0  0  0
 17 16  1  0  0  0  0
 18 19  1  0  0  0  0
 19 17  1  0  0  0  0
 20 21  1  0  0  0  0
 22 20  1  0  0  0  0
 23 25  1  6  0  0  0
 23 24  1  0  0  0  0
 24 27  1  0  0  0  0
 26 29  1  1  0  0  0
 26 27  1  0  0  0  0
 26 22  1  0  0  0  0
 28 30  1  0  0  0  0
 28 23  1  0  0  0  0
 30 26  1  0  0  0  0
M  END
>  <MODEL>
4

>  <REMARK>
 VINA RESULT:      -5.8      3.632      6.972
  Name = 
  7 active torsions:
  status: ('A' for Active; 'I' for Inactive)
    1  A    between atoms: C_1  and  C_4
    2  A    between atoms: S_3  and  N_11
    3  A    between atoms: S_3  and  C_19
    4  A    between atoms: C_8  and  C_9
    5  A    between atoms: C_8  and  C_12
    6  A    between atoms: C_9  and  C_21
    7  A    between atoms: N_11  and  C_25
                            x       y       z     vdW  Elec       q    Type
                         _______ _______ _______ _____ _____    ______ ____

>  <TORSDO>
F 7

$$$$
=
 OpenBabel11052412183D

 30 33  0  0  1  0  0  0  0  0999 V2000
  187.6490  177.5320  142.0330 C   0  0  2  0  0  3  0  0  0  0  0  0
  190.9040  176.9840  143.6620 C   0  0  2  0  0  3  0  0  0  0  0  0
  190.7660  176.8690  140.2930 C   0  0  0  0  0  2  0  0  0  0  0  0
  188.3860  177.3750  143.3660 C   0  0  0  0  0  2  0  0  0  0  0  0
  191.6660  177.5900  141.2740 C   0  0  0  0  0  2  0  0  0  0  0  0
  192.1630  177.6190  143.6010 O   0  0  0  0  0  0  0  0  0  0  0  0
  188.3170  176.7920  140.8700 C   0  0  0  0  0  2  0  0  0  0  0  0
  189.4290  177.6020  140.2110 C   0  0  2  0  0  3  0  0  0  0  0  0
  191.8620  176.7530  142.5340 C   0  0  1  0  0  3  0  0  0  0  0  0
  189.9260  179.2590  143.5670 C   0  0  0  0  0  2  0  0  0  0  0  0
  189.7730  177.9460  143.3820 C   0  0  0  0  0  0  0  0  0  0  0  0
  187.2670  178.9850  141.7190 C   0  0  1  0  0  3  0  0  0  0  0  0
  186.2400  179.0050  140.7550 O   0  0  0  0  0  0  0  0  0  0  0  0
  185.8610  179.3750  142.0590 C   0  0  1  0  0  3  0  0  0  0  0  0
  185.1020  178.3550  144.0750 O   0  0  0  0  0  1  0  0  0  0  0  0
  185.0050  178.2720  142.6860 C   0  0  1  0  0  3  0  0  0  0  0  0
  183.5500  178.4240  142.2770 C   0  0  0  0  0  2  0  0  0  0  0  0
  181.2730  179.0350  143.0310 C   0  0  0  0  0  1  0  0  0  0  0  0
  182.7290  178.9540  143.4360 C   0  0  0  0  0  2  0  0  0  0  0  0
  189.0630  177.9910  138.8430 N   0  0  0  0  0  0  0  0  0  0  0  0
  189.1100  179.3420  138.7660 O   0  0  0  0  0  1  0  0  0  0  0  0
  190.2340  177.3520  137.6670 S   0  0  0  0  0  0  0  0  0  0  0  0
  191.1510  174.2890  136.4870 C   0  0  2  0  0  3  0  0  0  0  0  0
  191.0640  175.4120  135.0430 S   0  0  0  0  0  0  0  0  0  0  0  0
  192.0550  173.1210  136.1590 C   0  0  0  0  0  1  0  0  0  0  0  0
  189.0290  176.2500  136.8320 C   0  0  2  0  0  0  0  0  0  0  0  0
  189.3920  176.1150  135.3510 C   0  0  0  0  0  2  0  0  0  0  0  0
  189.7770  173.7750  136.8670 C   0  0  0  0  0  2  0  0  0  0  0  0
  187.6570  176.8910  136.9090 C   0  0  0  0  0  1  0  0  0  0  0  0
  188.9530  174.8790  137.5260 C   0  0  0  0  0  2  0  0  0  0  0  0
  1  7  1  6  0  0  0
  1  4  1  0  0  0  0
  2 11  1  6  0  0  0
  3  5  1  0  0  0  0
  4 11  1  0  0  0  0
  6  2  1  0  0  0  0
  8 20  1  6  0  0  0
  8  3  1  0  0  0  0
  8  7  1  0  0  0  0
  9  5  1  6  0  0  0
  9  6  1  0  0  0  0
  9  2  1  0  0  0  0
 11 10  2  0  0  0  0
 12 13  1  6  0  0  0
 12  1  1  0  0  0  0
 12 14  1  0  0  0  0
 13 14  1  0  0  0  0
 14 16  1  1  0  0  0
 16 15  1  1  0  0  0
 17 16  1  0  0  0  0
 17 19  1  0  0  0  0
 18 19  1  0  0  0  0
 21 20  1  0  0  0  0
 22 20  1  0  0  0  0
 23 25  1  6  0  0  0
 23 28  1  0  0  0  0
 24 27  1  0  0  0  0
 24 23  1  0  0  0  0
 26 29  1  1  0  0  0
 26 30  1  0  0  0  0
 26 22  1  0  0  0  0
 27 26  1  0  0  0  0
 28 30  1  0  0  0  0
M  END
>  <MODEL>
5

>  <REMARK>
 VINA RESULT:      -5.8      2.576      3.595
  Name = 
  7 active torsions:
  status: ('A' for Active; 'I' for Inactive)
    1  A    between atoms: C_1  and  C_4
    2  A    between atoms: S_3  and  N_11
    3  A    between atoms: S_3  and  C_19
    4  A    between atoms: C_8  and  C_9
    5  A    between atoms: C_8  and  C_12
    6  A    between atoms: C_9  and  C_21
    7  A    between atoms: N_11  and  C_25
                            x       y       z     vdW  Elec       q    Type
                         _______ _______ _______ _____ _____    ______ ____

>  <TORSDO>
F 7

$$$$
=
 OpenBabel11052412183D

 30 33  0  0  1  0  0  0  0  0999 V2000
  187.8260  178.6700  141.3950 C   0  0  2  0  0  3  0  0  0  0  0  0
  187.7140  178.0470  145.0210 C   0  0  2  0  0  3  0  0  0  0  0  0
  184.9980  179.4050  143.5490 C   0  0  0  0  0  2  0  0  0  0  0  0
  188.6130  178.2070  142.6240 C   0  0  0  0  0  2  0  0  0  0  0  0
  185.1970  178.2390  144.4950 C   0  0  0  0  0  2  0  0  0  0  0  0
  186.8860  177.2820  145.8710 O   0  0  0  0  0  0  0  0  0  0  0  0
  186.7070  179.6640  141.7190 C   0  0  0  0  0  2  0  0  0  0  0  0
  185.4100  178.9810  142.1420 C   0  0  2  0  0  3  0  0  0  0  0  0
  186.3560  178.5150  145.4470 C   0  0  1  0  0  3  0  0  0  0  0  0
  187.5600  176.1560  143.4260 C   0  0  0  0  0  2  0  0  0  0  0  0
  187.8030  177.4530  143.6340 C   0  0  0  0  0  0  0  0  0  0  0  0
  187.3970  177.5160  140.4790 C   0  0  1  0  0  3  0  0  0  0  0  0
  187.0070  178.0270  139.2260 O   0  0  0  0  0  0  0  0  0  0  0  0
  188.2250  177.3220  139.2470 C   0  0  1  0  0  3  0  0  0  0  0  0
  190.5880  177.6220  139.3360 O   0  0  0  0  0  1  0  0  0  0  0  0
  189.3940  178.2950  139.0790 C   0  0  1  0  0  3  0  0  0  0  0  0
  189.4310  178.8530  137.6660 C   0  0  0  0  0  2  0  0  0  0  0  0
  188.2460  177.8780  135.7240 C   0  0  0  0  0  1  0  0  0  0  0  0
  189.4300  177.7250  136.6540 C   0  0  0  0  0  2  0  0  0  0  0  0
  184.3540  179.1830  141.1420 N   0  0  0  0  0  0  0  0  0  0  0  0
  184.9170  179.7520  140.0490 O   0  0  0  0  0  1  0  0  0  0  0  0
  183.6590  177.6280  140.6300 S   0  0  0  0  0  0  0  0  0  0  0  0
  181.5150  176.7610  138.1270 C   0  0  2  0  0  3  0  0  0  0  0  0
  182.0750  178.4700  137.7810 S   0  0  0  0  0  0  0  0  0  0  0  0
  181.0390  176.1210  136.8420 C   0  0  0  0  0  1  0  0  0  0  0  0
  181.9280  178.2330  140.6030 C   0  0  2  0  0  0  0  0  0  0  0  0
  181.7370  179.2030  139.4350 C   0  0  0  0  0  2  0  0  0  0  0  0
  180.3930  176.7460  139.1460 C   0  0  0  0  0  2  0  0  0  0  0  0
  181.6670  179.0020  141.8840 C   0  0  0  0  0  1  0  0  0  0  0  0
  180.9300  177.0640  140.5410 C   0  0  0  0  0  2  0  0  0  0  0  0
  1  7  1  1  0  0  0
  1  4  1  0  0  0  0
  2 11  1  6  0  0  0
  2  9  1  0  0  0  0
  2  6  1  0  0  0  0
  3  5  1  0  0  0  0
  4 11  1  0  0  0  0
  7  8  1  0  0  0  0
  8 20  1  6  0  0  0
  8  3  1  0  0  0  0
  9  5  1  6  0  0  0
  9  6  1  0  0  0  0
 10 11  2  0  0  0  0
 12 13  1  6  0  0  0
 12  1  1  0  0  0  0
 13 14  1  0  0  0  0
 14 16  1  1  0  0  0
 14 12  1  0  0  0  0
 16 15  1  6  0  0  0
 17 16  1  0  0  0  0
 18 19  1  0  0  0  0
 19 17  1  0  0  0  0
 21 20  1  0  0  0  0
 22 20  1  0  0  0  0
 23 25  1  6  0  0  0
 23 28  1  0  0  0  0
 24 23  1  0  0  0  0
 24 27  1  0  0  0  0
 26 22  1  0  0  0  0
 26 29  1  1  0  0  0
 27 26  1  0  0  0  0
 28 30  1  0  0  0  0
 30 26  1  0  0  0  0
M  END
>  <MODEL>
6

>  <REMARK>
 VINA RESULT:      -5.5      3.386      6.915
  Name = 
  7 active torsions:
  status: ('A' for Active; 'I' for Inactive)
    1  A    between atoms: C_1  and  C_4
    2  A    between atoms: S_3  and  N_11
    3  A    between atoms: S_3  and  C_19
    4  A    between atoms: C_8  and  C_9
    5  A    between atoms: C_8  and  C_12
    6  A    between atoms: C_9  and  C_21
    7  A    between atoms: N_11  and  C_25
                            x       y       z     vdW  Elec       q    Type
                         _______ _______ _______ _____ _____    ______ ____

>  <TORSDO>
F 7

$$$$
=
 OpenBabel11052412183D

 30 33  0  0  1  0  0  0  0  0999 V2000
  188.4870  175.7070  136.7550 C   0  0  2  0  0  3  0  0  0  0  0  0
  184.8530  176.2880  136.6490 C   0  0  2  0  0  3  0  0  0  0  0  0
  186.6460  177.8220  139.0610 C   0  0  0  0  0  2  0  0  0  0  0  0
  187.1650  175.3340  136.0780 C   0  0  0  0  0  2  0  0  0  0  0  0
  185.6140  178.3050  138.0630 C   0  0  0  0  0  2  0  0  0  0  0  0
  184.0350  177.4290  136.5140 O   0  0  0  0  0  0  0  0  0  0  0  0
  188.3280  176.1520  138.2110 C   0  0  0  0  0  2  0  0  0  0  0  0
  187.9810  177.6320  138.3460 C   0  0  2  0  0  3  0  0  0  0  0  0
  184.5820  177.2160  137.7930 C   0  0  1  0  0  3  0  0  0  0  0  0
  186.3320  177.3390  134.9620 C   0  0  0  0  0  2  0  0  0  0  0  0
  186.1860  176.4620  135.9580 C   0  0  0  0  0  0  0  0  0  0  0  0
  189.3620  176.6360  135.9040 C   0  0  1  0  0  3  0  0  0  0  0  0
  190.6120  176.8110  136.5290 O   0  0  0  0  0  0  0  0  0  0  0  0
  190.6180  176.0280  135.3590 C   0  0  1  0  0  3  0  0  0  0  0  0
  190.5030  173.7650  134.6220 O   0  0  0  0  0  1  0  0  0  0  0  0
  190.8460  174.5580  135.7160 C   0  0  1  0  0  3  0  0  0  0  0  0
  192.3010  174.3110  136.0750 C   0  0  0  0  0  2  0  0  0  0  0  0
  193.5550  175.6020  137.7740 C   0  0  0  0  0  1  0  0  0  0  0  0
  192.5210  174.5180  137.5600 C   0  0  0  0  0  2  0  0  0  0  0  0
  189.0830  178.3810  138.9630 N   0  0  0  0  0  0  0  0  0  0  0  0
  189.1180  179.6130  138.4020 O   0  0  0  0  0  1  0  0  0  0  0  0
  188.8020  178.6000  140.7060 S   0  0  0  0  0  0  0  0  0  0  0  0
  188.9460  177.3210  143.8610 C   0  0  2  0  0  3  0  0  0  0  0  0
  190.1490  178.7000  143.7900 S   0  0  0  0  0  0  0  0  0  0  0  0
  188.5480  177.0780  145.3000 C   0  0  0  0  0  1  0  0  0  0  0  0
  190.1660  177.4910  141.2250 C   0  0  2  0  0  0  0  0  0  0  0  0
  191.0430  178.1980  142.2620 C   0  0  0  0  0  2  0  0  0  0  0  0
  189.5320  176.0510  143.2770 C   0  0  0  0  0  2  0  0  0  0  0  0
  191.0350  177.1990  140.0170 C   0  0  0  0  0  1  0  0  0  0  0  0
  189.6250  176.1520  141.7560 C   0  0  0  0  0  2  0  0  0  0  0  0
  1  4  1  6  0  0  0
  1  7  1  0  0  0  0
  2 11  1  6  0  0  0
  2  9  1  0  0  0  0
  5  3  1  0  0  0  0
  6  2  1  0  0  0  0
  6  9  1  0  0  0  0
  7  8  1  0  0  0  0
  8 20  1  1  0  0  0
  8  3  1  0  0  0  0
  9  5  1  6  0  0  0
 10 11  2  0  0  0  0
 11  4  1  0  0  0  0
 12 13  1  1  0  0  0
 12  1  1  0  0  0  0
 14 16  1  1  0  0  0
 14 12  1  0  0  0  0
 14 13  1  0  0  0  0
 16 15  1  6  0  0  0
 16 17  1  0  0  0  0
 17 19  1  0  0  0  0
 19 18  1  0  0  0  0
 20 22  1  0  0  0  0
 21 20  1  0  0  0  0
 22 26  1  0  0  0  0
 23 25  1  1  0  0  0
 24 23  1  0  0  0  0
 26 29  1  6  0  0  0
 26 30  1  0  0  0  0
 26 27  1  0  0  0  0
 27 24  1  0  0  0  0
 28 23  1  0  0  0  0
 30 28  1  0  0  0  0
M  END
>  <MODEL>
7

>  <REMARK>
 VINA RESULT:      -5.4      4.199      9.023
  Name = 
  7 active torsions:
  status: ('A' for Active; 'I' for Inactive)
    1  A    between atoms: C_1  and  C_4
    2  A    between atoms: S_3  and  N_11
    3  A    between atoms: S_3  and  C_19
    4  A    between atoms: C_8  and  C_9
    5  A    between atoms: C_8  and  C_12
    6  A    between atoms: C_9  and  C_21
    7  A    between atoms: N_11  and  C_25
                            x       y       z     vdW  Elec       q    Type
                         _______ _______ _______ _____ _____    ______ ____

>  <TORSDO>
F 7

$$$$
=
 OpenBabel11052412183D

 30 33  0  0  1  0  0  0  0  0999 V2000
  185.4860  179.0790  142.5270 C   0  0  2  0  0  3  0  0  0  0  0  0
  182.9880  179.2940  139.8320 C   0  0  2  0  0  3  0  0  0  0  0  0
  186.1940  178.6570  138.9920 C   0  0  0  0  0  2  0  0  0  0  0  0
  184.0260  179.3800  142.1760 C   0  0  0  0  0  2  0  0  0  0  0  0
  184.8730  178.0090  138.6300 C   0  0  0  0  0  2  0  0  0  0  0  0
  182.5370  178.4130  138.8250 O   0  0  0  0  0  0  0  0  0  0  0  0
  186.4660  179.3750  141.3890 C   0  0  0  0  0  2  0  0  0  0  0  0
  186.5930  178.2210  140.3990 C   0  0  2  0  0  3  0  0  0  0  0  0
  183.7640  179.0540  138.5730 C   0  0  1  0  0  3  0  0  0  0  0  0
  183.0460  177.3150  141.3210 C   0  0  0  0  0  2  0  0  0  0  0  0
  183.4710  178.5520  141.0570 C   0  0  0  0  0  0  0  0  0  0  0  0
  185.6790  177.7060  143.1850 C   0  0  1  0  0  3  0  0  0  0  0  0
  186.8050  177.7420  144.0310 O   0  0  0  0  0  0  0  0  0  0  0  0
  185.5570  177.6770  144.6770 C   0  0  1  0  0  3  0  0  0  0  0  0
  183.9300  178.9980  145.8130 O   0  0  0  0  0  1  0  0  0  0  0  0
  185.2410  179.0210  145.3380 C   0  0  1  0  0  3  0  0  0  0  0  0
  186.1870  179.2850  146.4980 C   0  0  0  0  0  2  0  0  0  0  0  0
  187.5570  178.2510  148.2810 C   0  0  0  0  0  1  0  0  0  0  0  0
  186.5040  177.9930  147.2250 C   0  0  0  0  0  2  0  0  0  0  0  0
  187.9280  177.6130  140.4620 N   0  0  0  0  0  0  0  0  0  0  0  0
  188.4270  177.5680  139.2040 O   0  0  0  0  0  1  0  0  0  0  0  0
  189.0340  178.6110  141.4340 S   0  0  0  0  0  0  0  0  0  0  0  0
  189.9860  177.5500  144.5300 C   0  0  2  0  0  3  0  0  0  0  0  0
  191.3110  178.6530  143.9140 S   0  0  0  0  0  0  0  0  0  0  0  0
  190.0450  177.4920  146.0410 C   0  0  0  0  0  1  0  0  0  0  0  0
  190.2890  177.2900  141.6470 C   0  0  2  0  0  0  0  0  0  0  0  0
  191.5600  177.8790  142.2640 C   0  0  0  0  0  2  0  0  0  0  0  0
  190.1290  176.1510  143.9630 C   0  0  0  0  0  2  0  0  0  0  0  0
  190.6530  176.7480  140.2790 C   0  0  0  0  0  1  0  0  0  0  0  0
  189.7360  176.1260  142.4870 C   0  0  0  0  0  2  0  0  0  0  0  0
  1  7  1  6  0  0  0
  1 12  1  0  0  0  0
  2  6  1  6  0  0  0
  2 11  1  0  0  0  0
  3  8  1  0  0  0  0
  4  1  1  0  0  0  0
  5  3  1  0  0  0  0
  8 20  1  6  0  0  0
  8  7  1  0  0  0  0
  9  5  1  1  0  0  0
  9  6  1  0  0  0  0
  9  2  1  0  0  0  0
 11 10  2  0  0  0  0
 11  4  1  0  0  0  0
 12 13  1  1  0  0  0
 12 14  1  0  0  0  0
 13 14  1  0  0  0  0
 14 16  1  1  0  0  0
 16 15  1  1  0  0  0
 16 17  1  0  0  0  0
 17 19  1  0  0  0  0
 19 18  1  0  0  0  0
 20 22  1  0  0  0  0
 21 20  1  0  0  0  0
 22 26  1  0  0  0  0
 23 25  1  1  0  0  0
 24 23  1  0  0  0  0
 26 29  1  6  0  0  0
 26 27  1  0  0  0  0
 26 30  1  0  0  0  0
 27 24  1  0  0  0  0
 28 23  1  0  0  0  0
 30 28  1  0  0  0  0
M  END
>  <MODEL>
8

>  <REMARK>
 VINA RESULT:      -5.4      2.471      5.897
  Name = 
  7 active torsions:
  status: ('A' for Active; 'I' for Inactive)
    1  A    between atoms: C_1  and  C_4
    2  A    between atoms: S_3  and  N_11
    3  A    between atoms: S_3  and  C_19
    4  A    between atoms: C_8  and  C_9
    5  A    between atoms: C_8  and  C_12
    6  A    between atoms: C_9  and  C_21
    7  A    between atoms: N_11  and  C_25
                            x       y       z     vdW  Elec       q    Type
                         _______ _______ _______ _____ _____    ______ ____

>  <TORSDO>
F 7

$$$$
=
 OpenBabel11052412183D

 30 33  0  0  1  0  0  0  0  0999 V2000
  190.5360  175.9120  137.9150 C   0  0  2  0  0  3  0  0  0  0  0  0
  187.3200  177.6290  137.4040 C   0  0  2  0  0  3  0  0  0  0  0  0
  188.5860  177.5050  140.5300 C   0  0  0  0  0  2  0  0  0  0  0  0
  189.4330  176.2600  136.9110 C   0  0  0  0  0  2  0  0  0  0  0  0
  188.0340  178.6250  139.6730 C   0  0  0  0  0  2  0  0  0  0  0  0
  186.8470  178.9380  137.6340 O   0  0  0  0  0  0  0  0  0  0  0  0
  190.0440  175.8180  139.3620 C   0  0  0  0  0  2  0  0  0  0  0  0
  190.0000  177.1710  140.0640 C   0  0  2  0  0  3  0  0  0  0  0  0
  186.9220  178.1070  138.7670 C   0  0  1  0  0  3  0  0  0  0  0  0
  189.4310  178.6870  136.6540 C   0  0  0  0  0  2  0  0  0  0  0  0
  188.8040  177.6050  137.1200 C   0  0  0  0  0  0  0  0  0  0  0  0
  191.8070  176.7530  137.7350 C   0  0  1  0  0  3  0  0  0  0  0  0
  192.8580  176.1840  138.4800 O   0  0  0  0  0  0  0  0  0  0  0  0
  192.9600  176.0560  137.0820 C   0  0  1  0  0  3  0  0  0  0  0  0
  192.9470  174.4670  135.3050 O   0  0  0  0  0  1  0  0  0  0  0  0
  192.7060  174.6040  136.6720 C   0  0  1  0  0  3  0  0  0  0  0  0
  193.6190  173.6610  137.4360 C   0  0  0  0  0  2  0  0  0  0  0  0
  195.7440  173.7900  138.6990 C   0  0  0  0  0  1  0  0  0  0  0  0
  195.0450  174.1740  137.4120 C   0  0  0  0  0  2  0  0  0  0  0  0
  190.9980  177.2430  141.1390 N   0  0  0  0  0  0  0  0  0  0  0  0
  192.0640  177.9390  140.6750 O   0  0  0  0  0  1  0  0  0  0  0  0
  190.3570  178.1290  142.5420 S   0  0  0  0  0  0  0  0  0  0  0  0
  187.5930  177.8510  144.5160 C   0  0  2  0  0  3  0  0  0  0  0  0
  188.9990  178.2520  145.6200 S   0  0  0  0  0  0  0  0  0  0  0  0
  186.2990  178.2520  145.1890 C   0  0  0  0  0  1  0  0  0  0  0  0
  190.0490  176.6270  143.5470 C   0  0  2  0  0  0  0  0  0  0  0  0
  190.1750  176.9640  145.0350 C   0  0  0  0  0  2  0  0  0  0  0  0
  187.5570  176.3720  144.1890 C   0  0  0  0  0  2  0  0  0  0  0  0
  191.1160  175.6010  143.2190 C   0  0  0  0  0  1  0  0  0  0  0  0
  188.6790  176.0080  143.2190 C   0  0  0  0  0  2  0  0  0  0  0  0
  1  4  1  6  0  0  0
  1  7  1  0  0  0  0
  2 11  1  1  0  0  0
  2  6  1  0  0  0  0
  2  9  1  0  0  0  0
  4 11  1  0  0  0  0
  5  3  1  0  0  0  0
  6  9  1  0  0  0  0
  7  8  1  0  0  0  0
  8  3  1  0  0  0  0
  8 20  1  1  0  0  0
  9  5  1  1  0  0  0
 10 11  2  0  0  0  0
 12  1  1  0  0  0  0
 12 13  1  1  0  0  0
 14 16  1  1  0  0  0
 14 12  1  0  0  0  0
 14 13  1  0  0  0  0
 16 15  1  6  0  0  0
 16 17  1  0  0  0  0
 19 17  1  0  0  0  0
 19 18  1  0  0  0  0
 20 22  1  0  0  0  0
 21 20  1  0  0  0  0
 22 26  1  0  0  0  0
 23 25  1  1  0  0  0
 23 24  1  0  0  0  0
 26 29  1  6  0  0  0
 26 27  1  0  0  0  0
 27 24  1  0  0  0  0
 28 23  1  0  0  0  0
 30 26  1  0  0  0  0
 30 28  1  0  0  0  0
M  END
>  <MODEL>
9

>  <REMARK>
 VINA RESULT:      -5.4      3.396      9.123
  Name = 
  7 active torsions:
  status: ('A' for Active; 'I' for Inactive)
    1  A    between atoms: C_1  and  C_4
    2  A    between atoms: S_3  and  N_11
    3  A    between atoms: S_3  and  C_19
    4  A    between atoms: C_8  and  C_9
    5  A    between atoms: C_8  and  C_12
    6  A    between atoms: C_9  and  C_21
    7  A    between atoms: N_11  and  C_25
                            x       y       z     vdW  Elec       q    Type
                         _______ _______ _______ _____ _____    ______ ____

>  <TORSDO>
F 7

$$$$
