=
 OpenBabel11052414303D

 32 37  0  0  1  0  0  0  0  0999 V2000
  180.3500  176.8370  139.0120 C   0  0  0  0  0  0  0  0  0  0  0  0
  181.6140  176.6480  138.1190 C   0  0  2  0  0  3  0  0  0  0  0  0
  180.0000  174.5600  136.7560 C   0  0  0  0  0  2  0  0  0  0  0  0
  185.4480  175.3520  136.1570 C   0  0  0  0  0  2  0  0  0  0  0  0
  182.1270  175.1950  138.0780 C   0  0  1  0  0  3  0  0  0  0  0  0
  184.2390  173.1750  135.7590 C   0  0  0  0  0  2  0  0  0  0  0  0
  183.1410  173.7500  136.5920 C   0  0  2  0  0  3  0  0  0  0  0  0
  181.1310  174.0760  137.6640 C   0  0  2  0  0  3  0  0  0  0  0  0
  180.2240  175.9680  140.2530 C   0  0  0  0  0  2  0  0  0  0  0  0
  181.9940  173.1530  136.8540 C   0  0  0  0  0  2  0  0  0  0  0  0
  179.1110  177.1750  138.4240 O   0  0  0  0  0  0  0  0  0  0  0  0
  180.5260  177.4480  140.3890 C   0  0  0  0  0  2  0  0  0  0  0  0
  184.1050  177.5730  137.0190 S   0  0  0  0  0  0  0  0  0  0  0  0
  178.9380  175.0550  137.5160 O   0  0  0  0  0  0  0  0  0  0  0  0
  182.7080  177.7690  138.2310 C   0  0  1  0  0  0  0  0  0  0  0  0
  183.2240  175.0450  137.1510 N   0  0  2  0  0  0  0  0  0  0  0  0
  178.9310  176.4270  137.2450 C   0  0  0  0  0  2  0  0  0  0  0  0
  185.5700  173.8270  136.1380 C   0  0  0  0  0  2  0  0  0  0  0  0
  184.4620  175.8010  137.2410 C   0  0  1  0  0  3  0  0  0  0  0  0
  180.7800  180.4710  136.2770 C   0  0  0  0  0  3  0  0  0  0  0  0
  181.4300  181.3790  138.4190 C   0  0  0  0  0  3  0  0  0  0  0  0
  182.0340  179.0850  137.8460 C   0  0  0  0  0  0  0  0  0  0  0  0
  180.7950  181.5360  137.1870 C   0  0  0  0  0  0  0  0  0  0  0  0
  182.0420  180.1680  138.7440 C   0  0  0  0  0  3  0  0  0  0  0  0
  181.3930  179.2570  136.5930 C   0  0  0  0  0  0  0  0  0  0  0  0
  181.3590  178.2290  135.6580 O   0  0  0  0  0  1  0  0  0  0  0  0
  181.1730  183.8970  136.5190 C   0  0  0  0  0  1  0  0  0  0  0  0
  179.3270  183.2920  137.9820 N   0  0  0  0  0  1  0  0  0  0  0  0
  180.1390  182.8410  136.8660 C   0  0  2  0  0  3  0  0  0  0  0  0
  183.2140  177.9080  139.5560 O   0  0  0  0  0  0  0  0  0  0  0  0
  184.5280  178.3960  139.5600 C   0  0  0  0  0  2  0  0  0  0  0  0
  184.8370  179.0050  140.9120 C   0  0  0  0  0  1  0  0  0  0  0  0
  1  9  1  0  0  0  0
  1 12  1  0  0  0  0
  2 15  1  0  0  0  0
  2  1  1  1  0  0  0
  3 14  1  0  0  0  0
  3  8  1  0  0  0  0
  4 19  1  0  0  0  0
  5  2  1  0  0  0  0
  6 18  1  0  0  0  0
  6  7  1  0  0  0  0
  7 10  1  0  0  0  0
  7 16  1  0  0  0  0
  8  5  1  0  0  0  0
  9 12  1  0  0  0  0
 10  8  1  0  0  0  0
 11  1  1  0  0  0  0
 13 19  1  0  0  0  0
 13 15  1  0  0  0  0
 15 30  1  0  0  0  0
 16 19  1  0  0  0  0
 16  5  1  0  0  0  0
 17 14  1  0  0  0  0
 17 11  1  0  0  0  0
 18  4  1  0  0  0  0
 20 25  2  0  0  0  0
 20 23  1  0  0  0  0
 21 24  1  0  0  0  0
 22 15  1  0  0  0  0
 22 24  2  0  0  0  0
 23 21  2  0  0  0  0
 25 22  1  0  0  0  0
 26 25  1  0  0  0  0
 27 29  1  0  0  0  0
 29 23  1  0  0  0  0
 29 28  1  0  0  0  0
 30 31  1  0  0  0  0
 31 32  1  0  0  0  0
M  END
>  <MODEL>
1

>  <REMARK>
 VINA RESULT:      -4.8      0.000      0.000
  Name = 
  4 active torsions:
  status: ('A' for Active; 'I' for Inactive)
    1  A    between atoms: O_1  and  C_4
    2  A    between atoms: O_1  and  C_27
    3  A    between atoms: C_16  and  C_27
    4  A    between atoms: C_19  and  C_26
                            x       y       z     vdW  Elec       q    Type
                         _______ _______ _______ _____ _____    ______ ____

>  <TORSDO>
F 4

$$$$
=
 OpenBabel11052414303D

 32 37  0  0  1  0  0  0  0  0999 V2000
  183.0850  178.1470  138.3540 C   0  0  0  0  0  0  0  0  0  0  0  0
  182.3180  178.7100  139.5900 C   0  0  2  0  0  3  0  0  0  0  0  0
  185.0270  179.1490  140.7260 C   0  0  0  0  0  2  0  0  0  0  0  0
  180.2540  179.4270  143.5200 C   0  0  0  0  0  2  0  0  0  0  0  0
  182.7060  178.0300  140.9180 C   0  0  1  0  0  3  0  0  0  0  0  0
  182.5100  178.9280  144.5330 C   0  0  0  0  0  2  0  0  0  0  0  0
  182.9400  178.5750  143.1470 C   0  0  2  0  0  3  0  0  0  0  0  0
  184.2080  178.0000  141.3160 C   0  0  2  0  0  3  0  0  0  0  0  0
  183.4440  176.6700  138.3570 C   0  0  0  0  0  2  0  0  0  0  0  0
  184.1570  178.2020  142.8020 C   0  0  0  0  0  2  0  0  0  0  0  0
  184.0150  178.9590  137.6680 O   0  0  0  0  0  0  0  0  0  0  0  0
  182.3600  177.1870  137.4320 C   0  0  0  0  0  2  0  0  0  0  0  0
  179.9740  179.8230  140.8290 S   0  0  0  0  0  0  0  0  0  0  0  0
  185.4850  178.8210  139.4480 O   0  0  0  0  0  0  0  0  0  0  0  0
  180.7890  178.9970  139.3760 C   0  0  1  0  0  0  0  0  0  0  0  0
  182.0590  178.6590  142.0450 N   0  0  2  0  0  0  0  0  0  0  0  0
  184.7840  179.6830  138.5980 C   0  0  0  0  0  2  0  0  0  0  0  0
  180.9970  178.7390  144.6670 C   0  0  0  0  0  2  0  0  0  0  0  0
  180.6170  178.7840  142.1780 C   0  0  1  0  0  3  0  0  0  0  0  0
  179.8800  180.6780  136.0320 C   0  0  0  0  0  3  0  0  0  0  0  0
  181.2320  182.2060  137.3260 C   0  0  0  0  0  3  0  0  0  0  0  0
  180.6830  180.0090  138.2370 C   0  0  0  0  0  0  0  0  0  0  0  0
  180.5130  181.9210  136.1640 C   0  0  0  0  0  0  0  0  0  0  0  0
  181.3170  181.2610  138.3480 C   0  0  0  0  0  3  0  0  0  0  0  0
  179.9610  179.7260  137.0500 C   0  0  0  0  0  0  0  0  0  0  0  0
  179.3220  178.5050  136.8740 O   0  0  0  0  0  1  0  0  0  0  0  0
  180.9170  184.3010  135.5860 C   0  0  0  0  0  1  0  0  0  0  0  0
  179.0700  183.0690  134.5940 N   0  0  0  0  0  1  0  0  0  0  0  0
  180.4310  182.9530  135.0850 C   0  0  2  0  0  3  0  0  0  0  0  0
  180.0630  177.8310  138.9930 O   0  0  0  0  0  0  0  0  0  0  0  0
  179.1150  177.4710  139.9620 C   0  0  0  0  0  2  0  0  0  0  0  0
  179.1960  175.9800  140.2180 C   0  0  0  0  0  1  0  0  0  0  0  0
  1  9  1  0  0  0  0
  2  1  1  6  0  0  0
  2  5  1  0  0  0  0
  3  8  1  0  0  0  0
  4 18  1  0  0  0  0
  5  8  1  0  0  0  0
  5 16  1  0  0  0  0
  6 18  1  0  0  0  0
  7  6  1  0  0  0  0
  8 10  1  0  0  0  0
 10  7  1  0  0  0  0
 11  1  1  0  0  0  0
 11 17  1  0  0  0  0
 12  1  1  0  0  0  0
 12  9  1  0  0  0  0
 13 19  1  0  0  0  0
 14  3  1  0  0  0  0
 15  2  1  0  0  0  0
 15 13  1  0  0  0  0
 16 19  1  0  0  0  0
 16  7  1  0  0  0  0
 17 14  1  0  0  0  0
 19  4  1  0  0  0  0
 20 23  2  0  0  0  0
 20 25  1  0  0  0  0
 21 24  2  0  0  0  0
 22 24  1  0  0  0  0
 22 15  1  0  0  0  0
 23 21  1  0  0  0  0
 25 22  2  0  0  0  0
 26 25  1  0  0  0  0
 28 29  1  0  0  0  0
 29 27  1  0  0  0  0
 29 23  1  0  0  0  0
 30 15  1  0  0  0  0
 30 31  1  0  0  0  0
 31 32  1  0  0  0  0
M  END
>  <MODEL>
2

>  <REMARK>
 VINA RESULT:      -4.6      2.779      5.591
  Name = 
  4 active torsions:
  status: ('A' for Active; 'I' for Inactive)
    1  A    between atoms: O_1  and  C_4
    2  A    between atoms: O_1  and  C_27
    3  A    between atoms: C_16  and  C_27
    4  A    between atoms: C_19  and  C_26
                            x       y       z     vdW  Elec       q    Type
                         _______ _______ _______ _____ _____    ______ ____

>  <TORSDO>
F 4

$$$$
=
 OpenBabel11052414303D

 32 37  0  0  1  0  0  0  0  0999 V2000
  183.1620  179.5450  139.0440 C   0  0  0  0  0  0  0  0  0  0  0  0
  182.4950  178.1470  139.2320 C   0  0  2  0  0  3  0  0  0  0  0  0
  184.4460  177.2450  137.1830 C   0  0  0  0  0  2  0  0  0  0  0  0
  180.0620  174.3750  138.9720 C   0  0  0  0  0  2  0  0  0  0  0  0
  181.9860  177.5250  137.9180 C   0  0  1  0  0  3  0  0  0  0  0  0
  181.1800  174.0820  136.7300 C   0  0  0  0  0  2  0  0  0  0  0  0
  181.7550  175.4430  136.9540 C   0  0  2  0  0  3  0  0  0  0  0  0
  182.9890  177.3720  136.7410 C   0  0  2  0  0  3  0  0  0  0  0  0
  182.6080  180.4510  137.9570 C   0  0  0  0  0  2  0  0  0  0  0  0
  182.5860  176.0590  136.1370 C   0  0  0  0  0  2  0  0  0  0  0  0
  184.5470  179.7050  139.2690 O   0  0  0  0  0  0  0  0  0  0  0  0
  182.3660  180.7790  139.4180 C   0  0  0  0  0  2  0  0  0  0  0  0
  180.9320  176.2670  140.7450 S   0  0  0  0  0  0  0  0  0  0  0  0
  185.0220  178.5070  137.3480 O   0  0  0  0  0  0  0  0  0  0  0  0
  181.5570  177.9980  140.4830 C   0  0  1  0  0  0  0  0  0  0  0  0
  181.4830  176.1880  138.1230 N   0  0  2  0  0  0  0  0  0  0  0  0
  185.2420  178.6080  138.7260 C   0  0  0  0  0  2  0  0  0  0  0  0
  179.8760  173.9370  137.5180 C   0  0  0  0  0  2  0  0  0  0  0  0
  180.4090  175.8650  139.0480 C   0  0  1  0  0  3  0  0  0  0  0  0
  182.6820  179.2210  143.9580 C   0  0  0  0  0  3  0  0  0  0  0  0
  184.5610  178.1740  142.8580 C   0  0  0  0  0  3  0  0  0  0  0  0
  182.4090  178.3000  141.7150 C   0  0  0  0  0  0  0  0  0  0  0  0
  184.0270  178.8260  143.9700 C   0  0  0  0  0  0  0  0  0  0  0  0
  183.7630  177.9160  141.7440 C   0  0  0  0  0  3  0  0  0  0  0  0
  181.8760  178.9680  142.8460 C   0  0  0  0  0  0  0  0  0  0  0  0
  180.5500  179.3830  142.8750 O   0  0  0  0  0  1  0  0  0  0  0  0
  186.2080  178.3210  145.0410 C   0  0  0  0  0  1  0  0  0  0  0  0
  184.2180  178.7180  146.3820 N   0  0  0  0  0  1  0  0  0  0  0  0
  184.9010  179.0850  145.1550 C   0  0  2  0  0  3  0  0  0  0  0  0
  180.4720  178.9230  140.4650 O   0  0  0  0  0  0  0  0  0  0  0  0
  179.3340  178.3720  139.8590 C   0  0  0  0  0  2  0  0  0  0  0  0
  178.9310  179.2230  138.6730 C   0  0  0  0  0  1  0  0  0  0  0  0
  1 11  1  0  0  0  0
  1 12  1  0  0  0  0
  2  1  1  6  0  0  0
  2 15  1  0  0  0  0
  3 14  1  0  0  0  0
  4 19  1  0  0  0  0
  5 16  1  0  0  0  0
  5  2  1  0  0  0  0
  6  7  1  0  0  0  0
  6 18  1  0  0  0  0
  7 16  1  0  0  0  0
  8  3  1  0  0  0  0
  8  5  1  0  0  0  0
  9  1  1  0  0  0  0
  9 12  1  0  0  0  0
 10  8  1  0  0  0  0
 10  7  1  0  0  0  0
 14 17  1  0  0  0  0
 15 13  1  0  0  0  0
 15 22  1  0  0  0  0
 16 19  1  0  0  0  0
 17 11  1  0  0  0  0
 18  4  1  0  0  0  0
 19 13  1  0  0  0  0
 20 23  1  0  0  0  0
 21 23  2  0  0  0  0
 22 24  2  0  0  0  0
 22 25  1  0  0  0  0
 23 29  1  0  0  0  0
 24 21  1  0  0  0  0
 25 26  1  0  0  0  0
 25 20  2  0  0  0  0
 27 29  1  0  0  0  0
 29 28  1  0  0  0  0
 30 15  1  0  0  0  0
 31 30  1  0  0  0  0
 32 31  1  0  0  0  0
M  END
>  <MODEL>
3

>  <REMARK>
 VINA RESULT:      -4.6      3.030      5.919
  Name = 
  4 active torsions:
  status: ('A' for Active; 'I' for Inactive)
    1  A    between atoms: O_1  and  C_4
    2  A    between atoms: O_1  and  C_27
    3  A    between atoms: C_16  and  C_27
    4  A    between atoms: C_19  and  C_26
                            x       y       z     vdW  Elec       q    Type
                         _______ _______ _______ _____ _____    ______ ____

>  <TORSDO>
F 4

$$$$
=
 OpenBabel11052414303D

 32 37  0  0  1  0  0  0  0  0999 V2000
  181.2280  178.5100  140.7620 C   0  0  0  0  0  0  0  0  0  0  0  0
  181.2360  177.7550  139.3970 C   0  0  2  0  0  3  0  0  0  0  0  0
  178.9510  176.2380  140.5360 C   0  0  0  0  0  2  0  0  0  0  0  0
  181.7740  174.9030  135.9630 C   0  0  0  0  0  2  0  0  0  0  0  0
  181.3350  176.2240  139.5410 C   0  0  1  0  0  3  0  0  0  0  0  0
  180.4880  173.2830  137.4080 C   0  0  0  0  0  2  0  0  0  0  0  0
  180.5750  174.3250  138.4750 C   0  0  2  0  0  3  0  0  0  0  0  0
  180.2860  175.5010  140.4310 C   0  0  2  0  0  3  0  0  0  0  0  0
  182.0430  177.9200  141.9010 C   0  0  0  0  0  2  0  0  0  0  0  0
  180.0380  174.2280  139.6760 C   0  0  0  0  0  2  0  0  0  0  0  0
  180.0680  179.1950  141.1860 O   0  0  0  0  0  0  0  0  0  0  0  0
  182.5040  179.1920  141.2160 C   0  0  0  0  0  2  0  0  0  0  0  0
  181.9320  177.5530  136.6150 S   0  0  0  0  0  0  0  0  0  0  0  0
  178.9900  177.1830  141.5640 O   0  0  0  0  0  0  0  0  0  0  0  0
  182.1010  178.4050  138.2590 C   0  0  1  0  0  0  0  0  0  0  0  0
  181.2230  175.5630  138.2630 N   0  0  2  0  0  0  0  0  0  0  0  0
  178.9310  178.4140  140.9030 C   0  0  0  0  0  2  0  0  0  0  0  0
  181.6520  173.4500  136.4290 C   0  0  0  0  0  2  0  0  0  0  0  0
  182.1120  175.8200  137.1420 C   0  0  1  0  0  3  0  0  0  0  0  0
  179.7780  181.3310  137.3200 C   0  0  0  0  0  3  0  0  0  0  0  0
  181.8590  182.2300  138.1530 C   0  0  0  0  0  3  0  0  0  0  0  0
  181.5510  179.8120  138.0330 C   0  0  0  0  0  0  0  0  0  0  0  0
  180.5780  182.4350  137.6420 C   0  0  0  0  0  0  0  0  0  0  0  0
  182.3400  180.9350  138.3450 C   0  0  0  0  0  3  0  0  0  0  0  0
  180.2520  180.0300  137.5070 C   0  0  0  0  0  0  0  0  0  0  0  0
  179.4270  178.9640  137.1680 O   0  0  0  0  0  1  0  0  0  0  0  0
  181.2380  184.7910  137.2220 C   0  0  0  0  0  1  0  0  0  0  0  0
  179.3090  184.2600  138.6040 N   0  0  0  0  0  1  0  0  0  0  0  0
  180.0830  183.8330  137.4530 C   0  0  2  0  0  3  0  0  0  0  0  0
  183.4760  178.5260  138.6190 O   0  0  0  0  0  0  0  0  0  0  0  0
  184.3080  177.8540  137.7130 C   0  0  0  0  0  2  0  0  0  0  0  0
  185.7490  178.2500  137.9630 C   0  0  0  0  0  1  0  0  0  0  0  0
  1 11  1  0  0  0  0
  1 12  1  0  0  0  0
  1  9  1  0  0  0  0
  2  5  1  0  0  0  0
  2  1  1  1  0  0  0
  3 14  1  0  0  0  0
  4 18  1  0  0  0  0
  4 19  1  0  0  0  0
  5  8  1  0  0  0  0
  6  7  1  0  0  0  0
  7 10  1  0  0  0  0
  8  3  1  0  0  0  0
 10  8  1  0  0  0  0
 12  9  1  0  0  0  0
 13 19  1  0  0  0  0
 13 15  1  0  0  0  0
 15 30  1  0  0  0  0
 15  2  1  0  0  0  0
 16  7  1  0  0  0  0
 16  5  1  0  0  0  0
 17 11  1  0  0  0  0
 17 14  1  0  0  0  0
 18  6  1  0  0  0  0
 19 16  1  0  0  0  0
 20 25  2  0  0  0  0
 20 23  1  0  0  0  0
 21 24  1  0  0  0  0
 22 15  1  0  0  0  0
 22 24  2  0  0  0  0
 23 21  2  0  0  0  0
 25 22  1  0  0  0  0
 26 25  1  0  0  0  0
 27 29  1  0  0  0  0
 29 23  1  0  0  0  0
 29 28  1  0  0  0  0
 31 32  1  0  0  0  0
 31 30  1  0  0  0  0
M  END
>  <MODEL>
4

>  <REMARK>
 VINA RESULT:      -4.4      1.928      2.690
  Name = 
  4 active torsions:
  status: ('A' for Active; 'I' for Inactive)
    1  A    between atoms: O_1  and  C_4
    2  A    between atoms: O_1  and  C_27
    3  A    between atoms: C_16  and  C_27
    4  A    between atoms: C_19  and  C_26
                            x       y       z     vdW  Elec       q    Type
                         _______ _______ _______ _____ _____    ______ ____

>  <TORSDO>
F 4

$$$$
=
 OpenBabel11052414303D

 32 37  0  0  1  0  0  0  0  0999 V2000
  179.8100  178.2710  139.3670 C   0  0  0  0  0  0  0  0  0  0  0  0
  181.2960  178.1620  139.8270 C   0  0  2  0  0  3  0  0  0  0  0  0
  180.1450  177.2630  142.4130 C   0  0  0  0  0  2  0  0  0  0  0  0
  185.4110  178.7370  141.5460 C   0  0  0  0  0  2  0  0  0  0  0  0
  181.6030  178.9540  141.1130 C   0  0  1  0  0  3  0  0  0  0  0  0
  184.2200  178.8220  143.7680 C   0  0  0  0  0  2  0  0  0  0  0  0
  182.9550  178.7900  142.9750 C   0  0  2  0  0  3  0  0  0  0  0  0
  180.7380  178.6720  142.3720 C   0  0  2  0  0  3  0  0  0  0  0  0
  179.0840  179.5810  139.6260 C   0  0  0  0  0  2  0  0  0  0  0  0
  181.7390  178.7690  143.4860 C   0  0  0  0  0  2  0  0  0  0  0  0
  178.9710  177.1350  139.4090 O   0  0  0  0  0  0  0  0  0  0  0  0
  179.4780  179.1960  138.2130 C   0  0  0  0  0  2  0  0  0  0  0  0
  184.1100  177.9350  139.2790 S   0  0  0  0  0  0  0  0  0  0  0  0
  178.9320  177.2200  141.7200 O   0  0  0  0  0  0  0  0  0  0  0  0
  182.3740  178.2410  138.6870 C   0  0  1  0  0  0  0  0  0  0  0  0
  182.9570  178.7320  141.5630 N   0  0  2  0  0  0  0  0  0  0  0  0
  179.2010  176.4240  140.6020 C   0  0  0  0  0  2  0  0  0  0  0  0
  185.3470  179.4130  142.9180 C   0  0  0  0  0  2  0  0  0  0  0  0
  184.1300  179.0070  140.7500 C   0  0  1  0  0  3  0  0  0  0  0  0
  181.7890  174.7220  137.2330 C   0  0  0  0  0  3  0  0  0  0  0  0
  181.5360  176.3450  135.4620 C   0  0  0  0  0  3  0  0  0  0  0  0
  182.0800  177.0960  137.7190 C   0  0  0  0  0  0  0  0  0  0  0  0
  181.5210  175.0170  135.8900 C   0  0  0  0  0  0  0  0  0  0  0  0
  181.8130  177.3710  136.3650 C   0  0  0  0  0  3  0  0  0  0  0  0
  182.0700  175.7440  138.1440 C   0  0  0  0  0  0  0  0  0  0  0  0
  182.3360  175.4050  139.4650 O   0  0  0  0  0  1  0  0  0  0  0  0
  179.8020  173.4130  135.0960 C   0  0  0  0  0  1  0  0  0  0  0  0
  182.1660  172.8470  135.0300 N   0  0  0  0  0  1  0  0  0  0  0  0
  181.2140  173.9360  134.9040 C   0  0  2  0  0  3  0  0  0  0  0  0
  182.3050  179.4620  137.9540 O   0  0  0  0  0  0  0  0  0  0  0  0
  182.7650  180.5470  138.7130 C   0  0  0  0  0  2  0  0  0  0  0  0
  181.9610  181.7840  138.3640 C   0  0  0  0  0  1  0  0  0  0  0  0
  1 11  1  0  0  0  0
  1  9  1  0  0  0  0
  2  1  1  6  0  0  0
  2  5  1  0  0  0  0
  4 18  1  0  0  0  0
  5 16  1  0  0  0  0
  5  8  1  0  0  0  0
  7 10  1  0  0  0  0
  7  6  1  0  0  0  0
  8  3  1  0  0  0  0
  8 10  1  0  0  0  0
 11 17  1  0  0  0  0
 12  1  1  0  0  0  0
 12  9  1  0  0  0  0
 13 19  1  0  0  0  0
 14  3  1  0  0  0  0
 15 13  1  0  0  0  0
 15  2  1  0  0  0  0
 16  7  1  0  0  0  0
 17 14  1  0  0  0  0
 18  6  1  0  0  0  0
 19  4  1  0  0  0  0
 19 16  1  0  0  0  0
 20 25  1  0  0  0  0
 21 23  1  0  0  0  0
 21 24  2  0  0  0  0
 22 25  2  0  0  0  0
 22 15  1  0  0  0  0
 23 20  2  0  0  0  0
 24 22  1  0  0  0  0
 25 26  1  0  0  0  0
 29 28  1  0  0  0  0
 29 27  1  0  0  0  0
 29 23  1  0  0  0  0
 30 15  1  0  0  0  0
 30 31  1  0  0  0  0
 32 31  1  0  0  0  0
M  END
>  <MODEL>
5

>  <REMARK>
 VINA RESULT:      -4.4      2.453      5.917
  Name = 
  4 active torsions:
  status: ('A' for Active; 'I' for Inactive)
    1  A    between atoms: O_1  and  C_4
    2  A    between atoms: O_1  and  C_27
    3  A    between atoms: C_16  and  C_27
    4  A    between atoms: C_19  and  C_26
                            x       y       z     vdW  Elec       q    Type
                         _______ _______ _______ _____ _____    ______ ____

>  <TORSDO>
F 4

$$$$
=
 OpenBabel11052414303D

 32 37  0  0  1  0  0  0  0  0999 V2000
  181.4900  176.6070  139.1980 C   0  0  0  0  0  0  0  0  0  0  0  0
  181.5410  177.5120  137.9280 C   0  0  2  0  0  3  0  0  0  0  0  0
  182.5160  179.6060  139.7960 C   0  0  0  0  0  2  0  0  0  0  0  0
  180.8120  180.4390  134.5940 C   0  0  0  0  0  2  0  0  0  0  0  0
  180.7510  178.8270  138.0770 C   0  0  1  0  0  3  0  0  0  0  0  0
  180.8010  182.1720  136.4270 C   0  0  0  0  0  2  0  0  0  0  0  0
  180.8780  181.0210  137.3750 C   0  0  2  0  0  3  0  0  0  0  0  0
  181.0830  179.7500  139.2820 C   0  0  2  0  0  3  0  0  0  0  0  0
  180.2150  176.6200  140.0250 C   0  0  0  0  0  2  0  0  0  0  0  0
  180.9560  181.1220  138.6880 C   0  0  0  0  0  2  0  0  0  0  0  0
  182.6600  176.3860  139.9570 O   0  0  0  0  0  0  0  0  0  0  0  0
  180.5670  175.4050  139.1890 C   0  0  0  0  0  2  0  0  0  0  0  0
  181.6440  177.8800  135.0780 S   0  0  0  0  0  0  0  0  0  0  0  0
  182.6020  178.5670  140.7260 O   0  0  0  0  0  0  0  0  0  0  0  0
  181.4050  176.7700  136.5510 C   0  0  1  0  0  0  0  0  0  0  0  0
  180.9210  179.6810  136.9260 N   0  0  2  0  0  0  0  0  0  0  0  0
  183.3740  177.5930  140.0840 C   0  0  0  0  0  2  0  0  0  0  0  0
  180.1550  181.7180  135.1160 C   0  0  0  0  0  2  0  0  0  0  0  0
  180.5880  179.2790  135.5690 C   0  0  1  0  0  3  0  0  0  0  0  0
  184.9280  175.2140  136.5170 C   0  0  0  0  0  3  0  0  0  0  0  0
  183.3000  173.4530  136.2240 C   0  0  0  0  0  3  0  0  0  0  0  0
  182.5500  175.7620  136.4750 C   0  0  0  0  0  0  0  0  0  0  0  0
  184.6310  173.8560  136.3380 C   0  0  0  0  0  0  0  0  0  0  0  0
  182.2730  174.3950  136.2900 C   0  0  0  0  0  3  0  0  0  0  0  0
  183.9060  176.1630  136.5830 C   0  0  0  0  0  0  0  0  0  0  0  0
  184.2470  177.4990  136.7560 O   0  0  0  0  0  1  0  0  0  0  0  0
  185.1500  171.4730  135.8780 C   0  0  0  0  0  1  0  0  0  0  0  0
  186.4010  172.7270  137.5450 N   0  0  0  0  0  1  0  0  0  0  0  0
  185.7130  172.8270  136.2700 C   0  0  2  0  0  3  0  0  0  0  0  0
  180.1800  176.0490  136.4380 O   0  0  0  0  0  0  0  0  0  0  0  0
  179.5750  176.2490  135.1890 C   0  0  0  0  0  2  0  0  0  0  0  0
  178.9320  174.9570  134.7280 C   0  0  0  0  0  1  0  0  0  0  0  0
  1 11  1  0  0  0  0
  1  9  1  0  0  0  0
  2  5  1  0  0  0  0
  2  1  1  1  0  0  0
  3 14  1  0  0  0  0
  4 18  1  0  0  0  0
  4 19  1  0  0  0  0
  5  8  1  0  0  0  0
  6  7  1  0  0  0  0
  7 10  1  0  0  0  0
  8  3  1  0  0  0  0
 10  8  1  0  0  0  0
 11 17  1  0  0  0  0
 12  1  1  0  0  0  0
 12  9  1  0  0  0  0
 13 19  1  0  0  0  0
 13 15  1  0  0  0  0
 15  2  1  0  0  0  0
 16  7  1  0  0  0  0
 16  5  1  0  0  0  0
 17 14  1  0  0  0  0
 18  6  1  0  0  0  0
 19 16  1  0  0  0  0
 20 25  1  0  0  0  0
 21 24  2  0  0  0  0
 21 23  1  0  0  0  0
 22 15  1  0  0  0  0
 22 25  2  0  0  0  0
 23 20  2  0  0  0  0
 24 22  1  0  0  0  0
 25 26  1  0  0  0  0
 27 29  1  0  0  0  0
 29 23  1  0  0  0  0
 29 28  1  0  0  0  0
 30 15  1  0  0  0  0
 31 30  1  0  0  0  0
 32 31  1  0  0  0  0
M  END
>  <MODEL>
6

>  <REMARK>
 VINA RESULT:      -4.2      1.821      6.864
  Name = 
  4 active torsions:
  status: ('A' for Active; 'I' for Inactive)
    1  A    between atoms: O_1  and  C_4
    2  A    between atoms: O_1  and  C_27
    3  A    between atoms: C_16  and  C_27
    4  A    between atoms: C_19  and  C_26
                            x       y       z     vdW  Elec       q    Type
                         _______ _______ _______ _____ _____    ______ ____

>  <TORSDO>
F 4

$$$$
=
 OpenBabel11052414303D

 32 37  0  0  1  0  0  0  0  0999 V2000
  182.5130  177.4270  136.4980 C   0  0  0  0  0  0  0  0  0  0  0  0
  182.3530  175.9260  136.8890 C   0  0  2  0  0  3  0  0  0  0  0  0
  185.3220  175.9120  136.9580 C   0  0  0  0  0  2  0  0  0  0  0  0
  182.0560  171.4420  137.0550 C   0  0  0  0  0  2  0  0  0  0  0  0
  183.1320  174.9640  135.9700 C   0  0  1  0  0  3  0  0  0  0  0  0
  184.4460  171.4840  136.2500 C   0  0  0  0  0  2  0  0  0  0  0  0
  184.2660  172.9610  136.1120 C   0  0  2  0  0  3  0  0  0  0  0  0
  184.6550  175.2030  135.7800 C   0  0  2  0  0  3  0  0  0  0  0  0
  182.6590  177.7620  135.0230 C   0  0  0  0  0  2  0  0  0  0  0  0
  185.2020  173.8070  135.7280 C   0  0  0  0  0  2  0  0  0  0  0  0
  183.2030  178.3130  137.3560 O   0  0  0  0  0  0  0  0  0  0  0  0
  181.3760  178.1030  135.7570 C   0  0  0  0  0  2  0  0  0  0  0  0
  180.8200  173.7220  137.9200 S   0  0  0  0  0  0  0  0  0  0  0  0
  185.2120  177.2990  136.8240 O   0  0  0  0  0  0  0  0  0  0  0  0
  180.9070  175.4750  137.3040 C   0  0  1  0  0  0  0  0  0  0  0  0
  183.0490  173.6000  136.4370 N   0  0  2  0  0  0  0  0  0  0  0  0
  184.3530  177.6780  137.8610 C   0  0  0  0  0  2  0  0  0  0  0  0
  183.0900  170.7860  136.1360 C   0  0  0  0  0  2  0  0  0  0  0  0
  181.7950  172.8900  136.6280 C   0  0  1  0  0  3  0  0  0  0  0  0
  180.8850  177.1860  140.7550 C   0  0  0  0  0  3  0  0  0  0  0  0
  178.9320  177.8970  139.5240 C   0  0  0  0  0  3  0  0  0  0  0  0
  180.5010  176.3340  138.5000 C   0  0  0  0  0  0  0  0  0  0  0  0
  179.7100  177.9460  140.6800 C   0  0  0  0  0  0  0  0  0  0  0  0
  179.3220  177.1000  138.4480 C   0  0  0  0  0  3  0  0  0  0  0  0
  181.2820  176.3840  139.6820 C   0  0  0  0  0  0  0  0  0  0  0  0
  182.4510  175.6420  139.8020 O   0  0  0  0  0  1  0  0  0  0  0  0
  180.0520  180.1170  141.8340 C   0  0  0  0  0  1  0  0  0  0  0  0
  179.4430  178.1200  143.0820 N   0  0  0  0  0  1  0  0  0  0  0  0
  179.2740  178.8130  141.8180 C   0  0  2  0  0  3  0  0  0  0  0  0
  179.9500  175.6870  136.2680 O   0  0  0  0  0  0  0  0  0  0  0  0
  179.0890  174.5900  136.1270 C   0  0  0  0  0  2  0  0  0  0  0  0
  178.9950  174.2080  134.6630 C   0  0  0  0  0  1  0  0  0  0  0  0
  1 11  1  0  0  0  0
  2  1  1  6  0  0  0
  2 15  1  0  0  0  0
  5 16  1  0  0  0  0
  5  2  1  0  0  0  0
  7  6  1  0  0  0  0
  7 16  1  0  0  0  0
  8  5  1  0  0  0  0
  8  3  1  0  0  0  0
  9 12  1  0  0  0  0
  9  1  1  0  0  0  0
 10  8  1  0  0  0  0
 10  7  1  0  0  0  0
 11 17  1  0  0  0  0
 12  1  1  0  0  0  0
 14  3  1  0  0  0  0
 14 17  1  0  0  0  0
 15 13  1  0  0  0  0
 15 22  1  0  0  0  0
 16 19  1  0  0  0  0
 18  6  1  0  0  0  0
 18  4  1  0  0  0  0
 19  4  1  0  0  0  0
 19 13  1  0  0  0  0
 21 23  2  0  0  0  0
 22 25  1  0  0  0  0
 23 20  1  0  0  0  0
 23 29  1  0  0  0  0
 24 22  2  0  0  0  0
 24 21  1  0  0  0  0
 25 26  1  0  0  0  0
 25 20  2  0  0  0  0
 29 27  1  0  0  0  0
 29 28  1  0  0  0  0
 30 15  1  0  0  0  0
 31 30  1  0  0  0  0
 32 31  1  0  0  0  0
M  END
>  <MODEL>
7

>  <REMARK>
 VINA RESULT:      -4.1      2.800      4.998
  Name = 
  4 active torsions:
  status: ('A' for Active; 'I' for Inactive)
    1  A    between atoms: O_1  and  C_4
    2  A    between atoms: O_1  and  C_27
    3  A    between atoms: C_16  and  C_27
    4  A    between atoms: C_19  and  C_26
                            x       y       z     vdW  Elec       q    Type
                         _______ _______ _______ _____ _____    ______ ____

>  <TORSDO>
F 4

$$$$
=
 OpenBabel11052414303D

 32 37  0  0  1  0  0  0  0  0999 V2000
  182.8370  177.4360  137.8830 C   0  0  0  0  0  0  0  0  0  0  0  0
  184.3500  177.1260  138.0980 C   0  0  2  0  0  3  0  0  0  0  0  0
  183.7810  177.6960  140.9560 C   0  0  0  0  0  2  0  0  0  0  0  0
  188.8080  177.2150  138.6850 C   0  0  0  0  0  2  0  0  0  0  0  0
  185.1150  178.2550  138.8160 C   0  0  1  0  0  3  0  0  0  0  0  0
  188.2730  178.5090  140.7830 C   0  0  0  0  0  2  0  0  0  0  0  0
  186.8580  178.5010  140.3060 C   0  0  2  0  0  3  0  0  0  0  0  0
  184.5750  178.7510  140.1860 C   0  0  2  0  0  3  0  0  0  0  0  0
  182.4400  178.8810  137.6310 C   0  0  0  0  0  2  0  0  0  0  0  0
  185.8340  179.0170  140.9570 C   0  0  0  0  0  2  0  0  0  0  0  0
  181.8560  176.6860  138.5710 O   0  0  0  0  0  0  0  0  0  0  0  0
  182.3780  177.8670  136.5040 C   0  0  0  0  0  2  0  0  0  0  0  0
  186.8400  175.9480  137.2720 S   0  0  0  0  0  0  0  0  0  0  0  0
  182.4400  177.7060  140.5630 O   0  0  0  0  0  0  0  0  0  0  0  0
  185.0880  176.4430  136.8910 C   0  0  1  0  0  0  0  0  0  0  0  0
  186.4800  177.8780  139.0950 N   0  0  2  0  0  0  0  0  0  0  0  0
  182.2650  176.4860  139.9030 C   0  0  0  0  0  2  0  0  0  0  0  0
  189.2220  178.3780  139.5900 C   0  0  0  0  0  2  0  0  0  0  0  0
  187.4290  177.4740  138.0700 C   0  0  1  0  0  3  0  0  0  0  0  0
  182.8640  173.7560  135.2580 C   0  0  0  0  0  3  0  0  0  0  0  0
  183.8700  172.8260  137.2470 C   0  0  0  0  0  3  0  0  0  0  0  0
  184.3590  175.1310  136.6110 C   0  0  0  0  0  0  0  0  0  0  0  0
  183.0410  172.6780  136.1350 C   0  0  0  0  0  0  0  0  0  0  0  0
  184.5200  174.0370  137.4830 C   0  0  0  0  0  3  0  0  0  0  0  0
  183.5090  174.9740  135.4870 C   0  0  0  0  0  0  0  0  0  0  0  0
  183.3000  176.0180  134.5950 O   0  0  0  0  0  1  0  0  0  0  0  0
  180.9900  171.3440  136.5520 C   0  0  0  0  0  1  0  0  0  0  0  0
  183.1700  170.2750  136.4090 N   0  0  0  0  0  1  0  0  0  0  0  0
  182.3610  171.3680  135.9000 C   0  0  2  0  0  3  0  0  0  0  0  0
  185.0400  177.2320  135.7040 O   0  0  0  0  0  0  0  0  0  0  0  0
  186.2130  177.1010  134.9480 C   0  0  0  0  0  2  0  0  0  0  0  0
  186.7420  178.4760  134.5940 C   0  0  0  0  0  1  0  0  0  0  0  0
  1 11  1  0  0  0  0
  2  1  1  6  0  0  0
  2  5  1  0  0  0  0
  4 18  1  0  0  0  0
  5 16  1  0  0  0  0
  5  8  1  0  0  0  0
  7  6  1  0  0  0  0
  7 10  1  0  0  0  0
  8  3  1  0  0  0  0
  8 10  1  0  0  0  0
  9  1  1  0  0  0  0
 11 17  1  0  0  0  0
 12  9  1  0  0  0  0
 12  1  1  0  0  0  0
 13 19  1  0  0  0  0
 14  3  1  0  0  0  0
 15 13  1  0  0  0  0
 15  2  1  0  0  0  0
 16  7  1  0  0  0  0
 17 14  1  0  0  0  0
 18  6  1  0  0  0  0
 19  4  1  0  0  0  0
 19 16  1  0  0  0  0
 20 25  2  0  0  0  0
 20 23  1  0  0  0  0
 21 24  1  0  0  0  0
 22 15  1  0  0  0  0
 22 24  2  0  0  0  0
 23 21  2  0  0  0  0
 25 22  1  0  0  0  0
 26 25  1  0  0  0  0
 29 23  1  0  0  0  0
 29 28  1  0  0  0  0
 29 27  1  0  0  0  0
 30 15  1  0  0  0  0
 31 30  1  0  0  0  0
 32 31  1  0  0  0  0
M  END
>  <MODEL>
8

>  <REMARK>
 VINA RESULT:      -4.1      3.019      6.625
  Name = 
  4 active torsions:
  status: ('A' for Active; 'I' for Inactive)
    1  A    between atoms: O_1  and  C_4
    2  A    between atoms: O_1  and  C_27
    3  A    between atoms: C_16  and  C_27
    4  A    between atoms: C_19  and  C_26
                            x       y       z     vdW  Elec       q    Type
                         _______ _______ _______ _____ _____    ______ ____

>  <TORSDO>
F 4

$$$$
=
 OpenBabel11052414303D

 32 37  0  0  1  0  0  0  0  0999 V2000
  182.5030  177.4580  137.4470 C   0  0  0  0  0  0  0  0  0  0  0  0
  184.0080  177.1140  137.6690 C   0  0  2  0  0  3  0  0  0  0  0  0
  183.4250  177.6530  140.5310 C   0  0  0  0  0  2  0  0  0  0  0  0
  188.4610  177.1020  138.2950 C   0  0  0  0  0  2  0  0  0  0  0  0
  184.7890  178.2160  138.4110 C   0  0  1  0  0  3  0  0  0  0  0  0
  187.9350  178.3750  140.4080 C   0  0  0  0  0  2  0  0  0  0  0  0
  186.5240  178.4030  139.9180 C   0  0  2  0  0  3  0  0  0  0  0  0
  184.2480  178.7020  139.7840 C   0  0  2  0  0  3  0  0  0  0  0  0
  182.1380  178.9150  137.2130 C   0  0  0  0  0  2  0  0  0  0  0  0
  185.5060  178.9300  140.5690 C   0  0  0  0  0  2  0  0  0  0  0  0
  181.5010  176.7190  138.1150 O   0  0  0  0  0  0  0  0  0  0  0  0
  182.0650  177.9200  136.0710 C   0  0  0  0  0  2  0  0  0  0  0  0
  186.4800  175.8970  136.8460 S   0  0  0  0  0  0  0  0  0  0  0  0
  182.0890  177.6960  140.1270 O   0  0  0  0  0  0  0  0  0  0  0  0
  184.7420  176.4340  136.4580 C   0  0  1  0  0  0  0  0  0  0  0  0
  186.1440  177.8070  138.6950 N   0  0  2  0  0  0  0  0  0  0  0  0
  181.8950  176.4900  139.4470 C   0  0  0  0  0  2  0  0  0  0  0  0
  188.8910  178.2420  139.2210 C   0  0  0  0  0  2  0  0  0  0  0  0
  187.0930  177.3980  137.6730 C   0  0  1  0  0  3  0  0  0  0  0  0
  183.1940  172.9220  136.7860 C   0  0  0  0  0  3  0  0  0  0  0  0
  182.6630  173.8040  134.6000 C   0  0  0  0  0  3  0  0  0  0  0  0
  183.9880  175.1420  136.1520 C   0  0  0  0  0  0  0  0  0  0  0  0
  182.5740  172.7750  135.5380 C   0  0  0  0  0  0  0  0  0  0  0  0
  183.3620  174.9720  134.9030 C   0  0  0  0  0  3  0  0  0  0  0  0
  183.8980  174.0880  137.0960 C   0  0  0  0  0  0  0  0  0  0  0  0
  184.5030  174.1890  138.3430 O   0  0  0  0  0  1  0  0  0  0  0  0
  180.4670  171.5110  135.8960 C   0  0  0  0  0  1  0  0  0  0  0  0
  182.5770  170.3530  135.5450 N   0  0  0  0  0  1  0  0  0  0  0  0
  181.8120  171.5350  135.1920 C   0  0  2  0  0  3  0  0  0  0  0  0
  184.7200  177.2420  135.2840 O   0  0  0  0  0  0  0  0  0  0  0  0
  185.9390  177.1840  134.5940 C   0  0  0  0  0  2  0  0  0  0  0  0
  186.5850  178.5550  134.5940 C   0  0  0  0  0  1  0  0  0  0  0  0
  1 11  1  0  0  0  0
  2  1  1  6  0  0  0
  2  5  1  0  0  0  0
  4 18  1  0  0  0  0
  5 16  1  0  0  0  0
  5  8  1  0  0  0  0
  7  6  1  0  0  0  0
  7 10  1  0  0  0  0
  8  3  1  0  0  0  0
  8 10  1  0  0  0  0
  9  1  1  0  0  0  0
 11 17  1  0  0  0  0
 12  9  1  0  0  0  0
 12  1  1  0  0  0  0
 13 19  1  0  0  0  0
 14  3  1  0  0  0  0
 15 13  1  0  0  0  0
 15  2  1  0  0  0  0
 16  7  1  0  0  0  0
 17 14  1  0  0  0  0
 18  6  1  0  0  0  0
 19  4  1  0  0  0  0
 19 16  1  0  0  0  0
 20 25  1  0  0  0  0
 21 24  2  0  0  0  0
 21 23  1  0  0  0  0
 22 15  1  0  0  0  0
 22 25  2  0  0  0  0
 23 20  2  0  0  0  0
 24 22  1  0  0  0  0
 25 26  1  0  0  0  0
 29 23  1  0  0  0  0
 29 28  1  0  0  0  0
 29 27  1  0  0  0  0
 30 15  1  0  0  0  0
 31 30  1  0  0  0  0
 32 31  1  0  0  0  0
M  END
>  <MODEL>
9

>  <REMARK>
 VINA RESULT:      -4.1      2.856      6.546
  Name = 
  4 active torsions:
  status: ('A' for Active; 'I' for Inactive)
    1  A    between atoms: O_1  and  C_4
    2  A    between atoms: O_1  and  C_27
    3  A    between atoms: C_16  and  C_27
    4  A    between atoms: C_19  and  C_26
                            x       y       z     vdW  Elec       q    Type
                         _______ _______ _______ _____ _____    ______ ____

>  <TORSDO>
F 4

$$$$
