=
 OpenBabel11052417053D

 32 36  0  0  1  0  0  0  0  0999 V2000
  188.6580  175.9280  142.8230 C   0  0  0  0  0  2  0  0  0  0  0  0
  190.0280  175.6860  143.4440 C   0  0  0  0  0  2  0  0  0  0  0  0
  189.4500  177.0860  143.3970 C   0  0  0  0  0  0  0  0  0  0  0  0
  190.9050  176.0040  137.9720 C   0  0  0  0  0  0  0  0  0  0  0  0
  189.2250  178.8860  141.6980 O   0  0  0  0  0  0  0  0  0  0  0  0
  189.3230  177.4180  139.7940 C   0  0  0  0  0  0  0  0  0  0  0  0
  191.2040  177.4470  141.4670 C   0  0  0  0  0  2  0  0  0  0  0  0
  191.4210  176.3480  139.2270 C   0  0  0  0  0  3  0  0  0  0  0  0
  190.1340  178.0540  142.3990 C   0  0  2  0  0  3  0  0  0  0  0  0
  189.5910  176.3520  137.6380 C   0  0  0  0  0  3  0  0  0  0  0  0
  190.6290  177.0460  140.1430 C   0  0  0  0  0  0  0  0  0  0  0  0
  188.7980  177.0550  138.5500 C   0  0  0  0  0  3  0  0  0  0  0  0
  188.4580  178.1030  140.8080 C   0  0  0  0  0  2  0  0  0  0  0  0
  191.7400  175.2380  137.0080 C   0  0  0  0  0  2  0  0  0  0  0  0
  194.1370  174.8650  137.6840 C   0  0  0  0  0  0  0  0  0  0  0  0
  192.7610  174.4930  137.7270 N   0  0  0  0  0  2  0  0  0  0  0  0
  195.1380  174.0670  138.4390 C   0  0  0  0  0  1  0  0  0  0  0  0
  194.5130  175.8640  137.0150 O   0  0  0  0  0  0  0  0  0  0  0  0
  188.9880  177.5770  144.7680 C   0  0  1  0  0  3  0  0  0  0  0  0
  185.7000  178.7500  146.1630 C   0  0  0  0  0  0  0  0  0  0  0  0
  184.8100  178.7130  144.9910 C   0  0  0  0  0  0  0  0  0  0  0  0
  183.1730  178.6130  142.7230 C   0  0  0  0  0  3  0  0  0  0  0  0
  187.4600  177.6390  144.8520 C   0  0  2  0  0  3  0  0  0  0  0  0
  182.6190  178.8990  143.9740 C   0  0  0  0  0  3  0  0  0  0  0  0
  183.4350  178.9520  145.1070 C   0  0  0  0  0  3  0  0  0  0  0  0
  186.8500  178.2350  143.5800 C   0  0  0  0  0  2  0  0  0  0  0  0
  185.2870  179.1650  147.2790 O   0  0  0  0  0  0  0  0  0  0  0  0
  184.5460  178.3780  142.6020 C   0  0  0  0  0  3  0  0  0  0  0  0
  187.0270  178.3430  146.0210 O   0  0  0  0  0  0  0  0  0  0  0  0
  185.3670  178.4160  143.7330 C   0  0  0  0  0  0  0  0  0  0  0  0
  191.3760  177.1310  146.0630 S   0  0  0  0  0  1  0  0  0  0  0  0
  189.6100  176.7480  145.8910 C   0  0  0  0  0  2  0  0  0  0  0  0
  1  3  1  0  0  0  0
  1  2  1  0  0  0  0
  3  2  1  0  0  0  0
  3 19  1  0  0  0  0
  4  8  1  0  0  0  0
  5  9  1  0  0  0  0
  6 11  1  0  0  0  0
  6 13  1  0  0  0  0
  8 11  2  0  0  0  0
  9  7  1  6  0  0  0
  9  3  1  0  0  0  0
 10  4  2  0  0  0  0
 10 12  1  0  0  0  0
 11  7  1  0  0  0  0
 12  6  2  0  0  0  0
 13  5  1  0  0  0  0
 14 16  1  0  0  0  0
 14  4  1  0  0  0  0
 15 16  1  0  0  0  0
 15 17  1  0  0  0  0
 18 15  2  0  0  0  0
 19 32  1  1  0  0  0
 20 27  2  0  0  0  0
 21 25  1  0  0  0  0
 21 20  1  0  0  0  0
 22 24  1  0  0  0  0
 23 19  1  6  0  0  0
 23 29  1  0  0  0  0
 24 25  2  0  0  0  0
 26 30  1  0  0  0  0
 26 23  1  0  0  0  0
 28 22  2  0  0  0  0
 28 30  1  0  0  0  0
 29 20  1  0  0  0  0
 30 21  2  0  0  0  0
 32 31  1  0  0  0  0
M  END
>  <MODEL>
1

>  <REMARK>
 VINA RESULT:      -9.4      0.000      0.000
  Name = 
  6 active torsions:
  status: ('A' for Active; 'I' for Inactive)
    1  A    between atoms: C_2  and  C_24
    2  A    between atoms: N_10  and  C_24
    3  A    between atoms: C_14  and  C_15
    4  A    between atoms: C_15  and  C_26
    5  A    between atoms: C_16  and  C_26
    6  A    between atoms: C_25  and  C_26
                            x       y       z     vdW  Elec       q    Type
                         _______ _______ _______ _____ _____    ______ ____

>  <TORSDO>
F 6

$$$$
=
 OpenBabel11052417053D

 32 36  0  0  1  0  0  0  0  0999 V2000
  191.2820  177.8590  144.7330 C   0  0  0  0  0  2  0  0  0  0  0  0
  190.4070  178.7720  143.8840 C   0  0  0  0  0  2  0  0  0  0  0  0
  189.8130  177.5430  144.5420 C   0  0  0  0  0  0  0  0  0  0  0  0
  189.1420  177.8460  138.8700 C   0  0  0  0  0  0  0  0  0  0  0  0
  190.5640  175.6420  143.1280 O   0  0  0  0  0  0  0  0  0  0  0  0
  190.5810  176.8830  141.0670 C   0  0  0  0  0  0  0  0  0  0  0  0
  188.4700  176.7240  142.4310 C   0  0  0  0  0  2  0  0  0  0  0  0
  188.4770  177.5500  140.0660 C   0  0  0  0  0  3  0  0  0  0  0  0
  189.4450  176.3870  143.5780 C   0  0  2  0  0  3  0  0  0  0  0  0
  190.5280  177.6780  138.7810 C   0  0  0  0  0  3  0  0  0  0  0  0
  189.1960  177.0780  141.1680 C   0  0  0  0  0  0  0  0  0  0  0  0
  191.2480  177.2000  139.8800 C   0  0  0  0  0  3  0  0  0  0  0  0
  191.3520  176.4440  142.2730 C   0  0  0  0  0  2  0  0  0  0  0  0
  188.3800  178.3740  137.7060 C   0  0  0  0  0  2  0  0  0  0  0  0
  185.9360  177.7680  137.6840 C   0  0  0  0  0  0  0  0  0  0  0  0
  187.0010  178.6230  138.0940 N   0  0  0  0  0  2  0  0  0  0  0  0
  184.5440  178.0700  138.1100 C   0  0  0  0  0  1  0  0  0  0  0  0
  186.1620  176.7580  136.9650 O   0  0  0  0  0  0  0  0  0  0  0  0
  188.9120  177.8880  145.7270 C   0  0  1  0  0  3  0  0  0  0  0  0
  185.2260  178.4420  146.2250 C   0  0  0  0  0  0  0  0  0  0  0  0
  184.7230  178.5830  144.8500 C   0  0  0  0  0  0  0  0  0  0  0  0
  183.8330  178.8370  142.2090 C   0  0  0  0  0  3  0  0  0  0  0  0
  187.4310  177.7990  145.3440 C   0  0  2  0  0  3  0  0  0  0  0  0
  182.9100  178.7960  143.2570 C   0  0  0  0  0  3  0  0  0  0  0  0
  183.3520  178.6720  144.5770 C   0  0  0  0  0  3  0  0  0  0  0  0
  187.1270  178.6020  144.0760 C   0  0  0  0  0  2  0  0  0  0  0  0
  184.4560  178.5670  147.2150 O   0  0  0  0  0  0  0  0  0  0  0  0
  185.2030  178.7540  142.4770 C   0  0  0  0  0  3  0  0  0  0  0  0
  186.5850  178.1920  146.4290 O   0  0  0  0  0  0  0  0  0  0  0  0
  185.6530  178.6160  143.7930 C   0  0  0  0  0  0  0  0  0  0  0  0
  189.2640  178.0680  148.4510 S   0  0  0  0  0  1  0  0  0  0  0  0
  189.2590  177.0440  146.9510 C   0  0  0  0  0  2  0  0  0  0  0  0
  2  3  1  0  0  0  0
  2  1  1  0  0  0  0
  3  1  1  0  0  0  0
  3 19  1  0  0  0  0
  4  8  1  0  0  0  0
  5  9  1  0  0  0  0
  6 11  1  0  0  0  0
  6 13  1  0  0  0  0
  8 11  2  0  0  0  0
  9  7  1  6  0  0  0
  9  3  1  0  0  0  0
 10  4  2  0  0  0  0
 10 12  1  0  0  0  0
 11  7  1  0  0  0  0
 12  6  2  0  0  0  0
 13  5  1  0  0  0  0
 14 16  1  0  0  0  0
 14  4  1  0  0  0  0
 15 16  1  0  0  0  0
 15 17  1  0  0  0  0
 18 15  2  0  0  0  0
 19 32  1  1  0  0  0
 20 29  1  0  0  0  0
 20 27  2  0  0  0  0
 21 20  1  0  0  0  0
 22 28  2  0  0  0  0
 22 24  1  0  0  0  0
 23 19  1  1  0  0  0
 23 29  1  0  0  0  0
 24 25  2  0  0  0  0
 25 21  1  0  0  0  0
 26 23  1  0  0  0  0
 28 30  1  0  0  0  0
 30 26  1  0  0  0  0
 30 21  2  0  0  0  0
 32 31  1  0  0  0  0
M  END
>  <MODEL>
2

>  <REMARK>
 VINA RESULT:      -9.1      2.557      3.826
  Name = 
  6 active torsions:
  status: ('A' for Active; 'I' for Inactive)
    1  A    between atoms: C_2  and  C_24
    2  A    between atoms: N_10  and  C_24
    3  A    between atoms: C_14  and  C_15
    4  A    between atoms: C_15  and  C_26
    5  A    between atoms: C_16  and  C_26
    6  A    between atoms: C_25  and  C_26
                            x       y       z     vdW  Elec       q    Type
                         _______ _______ _______ _____ _____    ______ ____

>  <TORSDO>
F 6

$$$$
=
 OpenBabel11052417053D

 32 36  0  0  1  0  0  0  0  0999 V2000
  188.6220  175.9140  142.7900 C   0  0  0  0  0  2  0  0  0  0  0  0
  189.9740  175.5780  143.4090 C   0  0  0  0  0  2  0  0  0  0  0  0
  189.4830  177.0120  143.3800 C   0  0  0  0  0  0  0  0  0  0  0  0
  189.5160  176.7090  137.6680 C   0  0  0  0  0  0  0  0  0  0  0  0
  189.4970  179.1140  142.0530 O   0  0  0  0  0  0  0  0  0  0  0  0
  188.7960  178.0880  139.9920 C   0  0  0  0  0  0  0  0  0  0  0  0
  190.8760  177.2840  141.1620 C   0  0  0  0  0  2  0  0  0  0  0  0
  190.3350  176.6440  138.8010 C   0  0  0  0  0  3  0  0  0  0  0  0
  190.2290  177.9490  142.3950 C   0  0  2  0  0  3  0  0  0  0  0  0
  188.3290  177.4480  137.7060 C   0  0  0  0  0  3  0  0  0  0  0  0
  189.9720  177.3250  139.9680 C   0  0  0  0  0  0  0  0  0  0  0  0
  187.9660  178.1340  138.8690 C   0  0  0  0  0  3  0  0  0  0  0  0
  188.3790  178.7560  141.2670 C   0  0  0  0  0  2  0  0  0  0  0  0
  189.8890  175.9620  136.4370 C   0  0  0  0  0  2  0  0  0  0  0  0
  189.0850  173.5950  136.7420 C   0  0  0  0  0  0  0  0  0  0  0  0
  188.9240  174.9020  136.1940 N   0  0  0  0  0  2  0  0  0  0  0  0
  188.0660  172.5500  136.4600 C   0  0  0  0  0  1  0  0  0  0  0  0
  190.0800  173.3180  137.4620 O   0  0  0  0  0  0  0  0  0  0  0  0
  189.0510  177.5130  144.7570 C   0  0  1  0  0  3  0  0  0  0  0  0
  185.7970  178.6970  146.2220 C   0  0  0  0  0  0  0  0  0  0  0  0
  184.8870  178.6780  145.0660 C   0  0  0  0  0  0  0  0  0  0  0  0
  183.2090  178.6150  142.8270 C   0  0  0  0  0  3  0  0  0  0  0  0
  187.5250  177.5860  144.8690 C   0  0  2  0  0  3  0  0  0  0  0  0
  182.6790  178.8930  144.0900 C   0  0  0  0  0  3  0  0  0  0  0  0
  183.5160  178.9270  145.2100 C   0  0  0  0  0  3  0  0  0  0  0  0
  186.8970  178.2000  143.6140 C   0  0  0  0  0  2  0  0  0  0  0  0
  185.4080  179.1030  147.3500 O   0  0  0  0  0  0  0  0  0  0  0  0
  184.5780  178.3710  142.6790 C   0  0  0  0  0  3  0  0  0  0  0  0
  187.1190  178.2810  146.0520 O   0  0  0  0  0  0  0  0  0  0  0  0
  185.4190  178.3910  143.7950 C   0  0  0  0  0  0  0  0  0  0  0  0
  191.4510  177.0850  146.0360 S   0  0  0  0  0  1  0  0  0  0  0  0
  189.6880  176.6850  145.8720 C   0  0  0  0  0  2  0  0  0  0  0  0
  1  3  1  0  0  0  0
  1  2  1  0  0  0  0
  3  2  1  0  0  0  0
  3 19  1  0  0  0  0
  4 10  2  0  0  0  0
  4  8  1  0  0  0  0
  5  9  1  0  0  0  0
  6 13  1  0  0  0  0
  8 11  2  0  0  0  0
  9  7  1  6  0  0  0
  9  3  1  0  0  0  0
 10 12  1  0  0  0  0
 11  6  1  0  0  0  0
 11  7  1  0  0  0  0
 12  6  2  0  0  0  0
 13  5  1  0  0  0  0
 14  4  1  0  0  0  0
 15 18  2  0  0  0  0
 16 14  1  0  0  0  0
 16 15  1  0  0  0  0
 17 15  1  0  0  0  0
 19 32  1  1  0  0  0
 20 27  2  0  0  0  0
 21 25  1  0  0  0  0
 21 20  1  0  0  0  0
 22 24  1  0  0  0  0
 23 19  1  6  0  0  0
 23 29  1  0  0  0  0
 24 25  2  0  0  0  0
 26 30  1  0  0  0  0
 26 23  1  0  0  0  0
 28 22  2  0  0  0  0
 28 30  1  0  0  0  0
 29 20  1  0  0  0  0
 30 21  2  0  0  0  0
 32 31  1  0  0  0  0
M  END
>  <MODEL>
3

>  <REMARK>
 VINA RESULT:      -9.0      1.794      2.117
  Name = 
  6 active torsions:
  status: ('A' for Active; 'I' for Inactive)
    1  A    between atoms: C_2  and  C_24
    2  A    between atoms: N_10  and  C_24
    3  A    between atoms: C_14  and  C_15
    4  A    between atoms: C_15  and  C_26
    5  A    between atoms: C_16  and  C_26
    6  A    between atoms: C_25  and  C_26
                            x       y       z     vdW  Elec       q    Type
                         _______ _______ _______ _____ _____    ______ ____

>  <TORSDO>
F 6

$$$$
=
 OpenBabel11052417053D

 32 36  0  0  1  0  0  0  0  0999 V2000
  182.3830  176.0180  139.8350 C   0  0  0  0  0  2  0  0  0  0  0  0
  181.1680  176.4740  139.0360 C   0  0  0  0  0  2  0  0  0  0  0  0
  182.5080  177.1550  138.8420 C   0  0  0  0  0  0  0  0  0  0  0  0
  184.4300  178.7260  143.9950 C   0  0  0  0  0  0  0  0  0  0  0  0
  183.8130  179.2600  139.0620 O   0  0  0  0  0  0  0  0  0  0  0  0
  184.7430  178.7290  141.2160 C   0  0  0  0  0  0  0  0  0  0  0  0
  182.2460  178.7830  140.8940 C   0  0  0  0  0  2  0  0  0  0  0  0
  183.3040  178.7370  143.1650 C   0  0  0  0  0  3  0  0  0  0  0  0
  182.6090  178.5950  139.4070 C   0  0  2  0  0  3  0  0  0  0  0  0
  185.7120  178.6970  143.4340 C   0  0  0  0  0  3  0  0  0  0  0  0
  183.4570  178.7290  141.7750 C   0  0  0  0  0  0  0  0  0  0  0  0
  185.8690  178.6940  142.0440 C   0  0  0  0  0  3  0  0  0  0  0  0
  184.8980  178.6490  139.7280 C   0  0  0  0  0  2  0  0  0  0  0  0
  184.2660  178.7070  145.4740 C   0  0  0  0  0  2  0  0  0  0  0  0
  186.1650  178.7580  147.1270 C   0  0  0  0  0  0  0  0  0  0  0  0
  185.4360  178.1030  146.0910 N   0  0  0  0  0  2  0  0  0  0  0  0
  187.3540  178.0930  147.7220 C   0  0  0  0  0  1  0  0  0  0  0  0
  185.8120  179.8920  147.5440 O   0  0  0  0  0  0  0  0  0  0  0  0
  183.1650  176.7910  137.5110 C   0  0  1  0  0  3  0  0  0  0  0  0
  184.6260  173.3340  137.2880 C   0  0  0  0  0  0  0  0  0  0  0  0
  186.0650  173.5920  137.1150 C   0  0  0  0  0  0  0  0  0  0  0  0
  188.7870  174.1540  136.7920 C   0  0  0  0  0  3  0  0  0  0  0  0
  184.2540  175.7300  137.7000 C   0  0  2  0  0  3  0  0  0  0  0  0
  188.3610  172.8340  136.9650 C   0  0  0  0  0  3  0  0  0  0  0  0
  187.0010  172.5510  137.1240 C   0  0  0  0  0  3  0  0  0  0  0  0
  185.4950  176.0390  136.8570 C   0  0  0  0  0  2  0  0  0  0  0  0
  184.1710  172.1590  137.2800 O   0  0  0  0  0  0  0  0  0  0  0  0
  187.8540  175.1960  136.7780 C   0  0  0  0  0  3  0  0  0  0  0  0
  183.7550  174.4150  137.4370 O   0  0  0  0  0  0  0  0  0  0  0  0
  186.4940  174.9220  136.9490 C   0  0  0  0  0  0  0  0  0  0  0  0
  181.5330  177.8500  135.5650 S   0  0  0  0  0  1  0  0  0  0  0  0
  182.1220  176.3910  136.4700 C   0  0  0  0  0  2  0  0  0  0  0  0
  2  1  1  0  0  0  0
  3  2  1  0  0  0  0
  3  1  1  0  0  0  0
  4 14  1  0  0  0  0
  5  9  1  0  0  0  0
  5 13  1  0  0  0  0
  6 11  2  0  0  0  0
  6 12  1  0  0  0  0
  7 11  1  0  0  0  0
  8  4  2  0  0  0  0
  9  3  1  1  0  0  0
  9  7  1  0  0  0  0
 10  4  1  0  0  0  0
 11  8  1  0  0  0  0
 12 10  2  0  0  0  0
 13  6  1  0  0  0  0
 14 16  1  0  0  0  0
 15 18  2  0  0  0  0
 15 17  1  0  0  0  0
 16 15  1  0  0  0  0
 19 32  1  6  0  0  0
 19  3  1  0  0  0  0
 20 29  1  0  0  0  0
 21 25  1  0  0  0  0
 21 20  1  0  0  0  0
 22 24  1  0  0  0  0
 23 19  1  6  0  0  0
 24 25  2  0  0  0  0
 26 30  1  0  0  0  0
 26 23  1  0  0  0  0
 27 20  2  0  0  0  0
 28 22  2  0  0  0  0
 28 30  1  0  0  0  0
 29 23  1  0  0  0  0
 30 21  2  0  0  0  0
 31 32  1  0  0  0  0
M  END
>  <MODEL>
4

>  <REMARK>
 VINA RESULT:      -8.4      5.182      9.682
  Name = 
  6 active torsions:
  status: ('A' for Active; 'I' for Inactive)
    1  A    between atoms: C_2  and  C_24
    2  A    between atoms: N_10  and  C_24
    3  A    between atoms: C_14  and  C_15
    4  A    between atoms: C_15  and  C_26
    5  A    between atoms: C_16  and  C_26
    6  A    between atoms: C_25  and  C_26
                            x       y       z     vdW  Elec       q    Type
                         _______ _______ _______ _____ _____    ______ ____

>  <TORSDO>
F 6

$$$$
=
 OpenBabel11052417053D

 32 36  0  0  1  0  0  0  0  0999 V2000
  190.1740  175.6270  142.8710 C   0  0  0  0  0  2  0  0  0  0  0  0
  191.5820  175.8740  143.3970 C   0  0  0  0  0  2  0  0  0  0  0  0
  190.5980  177.0210  143.2870 C   0  0  0  0  0  0  0  0  0  0  0  0
  193.0690  175.9990  138.2310 C   0  0  0  0  0  0  0  0  0  0  0  0
  189.8110  178.2570  141.2800 O   0  0  0  0  0  0  0  0  0  0  0  0
  190.8010  176.7540  139.6830 C   0  0  0  0  0  0  0  0  0  0  0  0
  192.2360  177.8840  141.4160 C   0  0  0  0  0  2  0  0  0  0  0  0
  193.2100  176.7130  139.4260 C   0  0  0  0  0  3  0  0  0  0  0  0
  190.8980  178.0470  142.1650 C   0  0  2  0  0  3  0  0  0  0  0  0
  191.7940  175.6470  137.7740 C   0  0  0  0  0  3  0  0  0  0  0  0
  192.0780  177.0830  140.1590 C   0  0  0  0  0  0  0  0  0  0  0  0
  190.6600  176.0200  138.5010 C   0  0  0  0  0  3  0  0  0  0  0  0
  189.5980  177.0920  140.5090 C   0  0  0  0  0  2  0  0  0  0  0  0
  194.2750  175.5820  137.4670 C   0  0  0  0  0  2  0  0  0  0  0  0
  195.0760  173.3040  138.1810 C   0  0  0  0  0  0  0  0  0  0  0  0
  194.2920  174.1350  137.3270 N   0  0  0  0  0  2  0  0  0  0  0  0
  195.0550  171.8290  137.9930 C   0  0  0  0  0  1  0  0  0  0  0  0
  195.7850  173.8050  139.0930 O   0  0  0  0  0  0  0  0  0  0  0  0
  190.0790  177.4820  144.6490 C   0  0  1  0  0  3  0  0  0  0  0  0
  186.7430  178.0480  143.0090 C   0  0  0  0  0  0  0  0  0  0  0  0
  185.8410  178.2500  144.1540 C   0  0  0  0  0  0  0  0  0  0  0  0
  184.1820  178.6310  146.3750 C   0  0  0  0  0  3  0  0  0  0  0  0
  188.6720  178.0780  144.5350 C   0  0  2  0  0  3  0  0  0  0  0  0
  183.6790  178.8230  145.0860 C   0  0  0  0  0  3  0  0  0  0  0  0
  184.5050  178.6300  143.9740 C   0  0  0  0  0  3  0  0  0  0  0  0
  187.7570  177.5810  145.6570 C   0  0  0  0  0  2  0  0  0  0  0  0
  186.3030  178.0430  141.8280 O   0  0  0  0  0  0  0  0  0  0  0  0
  185.5140  178.2470  146.5580 C   0  0  0  0  0  3  0  0  0  0  0  0
  188.1020  177.8330  143.2450 O   0  0  0  0  0  0  0  0  0  0  0  0
  186.3500  178.0660  145.4530 C   0  0  0  0  0  0  0  0  0  0  0  0
  191.2830  176.8280  147.0360 S   0  0  0  0  0  1  0  0  0  0  0  0
  190.1660  176.3620  145.6830 C   0  0  0  0  0  2  0  0  0  0  0  0
  1  3  1  0  0  0  0
  1  2  1  0  0  0  0
  3  2  1  0  0  0  0
  3 19  1  0  0  0  0
  4  8  1  0  0  0  0
  5  9  1  0  0  0  0
  6 11  1  0  0  0  0
  6 13  1  0  0  0  0
  8 11  2  0  0  0  0
  9  7  1  6  0  0  0
  9  3  1  0  0  0  0
 10  4  2  0  0  0  0
 10 12  1  0  0  0  0
 11  7  1  0  0  0  0
 12  6  2  0  0  0  0
 13  5  1  0  0  0  0
 14  4  1  0  0  0  0
 15 18  2  0  0  0  0
 16 14  1  0  0  0  0
 16 15  1  0  0  0  0
 17 15  1  0  0  0  0
 19 32  1  1  0  0  0
 20 29  1  0  0  0  0
 20 21  1  0  0  0  0
 21 30  1  0  0  0  0
 22 28  1  0  0  0  0
 23 19  1  6  0  0  0
 23 26  1  0  0  0  0
 24 22  2  0  0  0  0
 25 21  2  0  0  0  0
 25 24  1  0  0  0  0
 27 20  2  0  0  0  0
 29 23  1  0  0  0  0
 30 26  1  0  0  0  0
 30 28  2  0  0  0  0
 32 31  1  0  0  0  0
M  END
>  <MODEL>
5

>  <REMARK>
 VINA RESULT:      -8.3      1.584      2.285
  Name = 
  6 active torsions:
  status: ('A' for Active; 'I' for Inactive)
    1  A    between atoms: C_2  and  C_24
    2  A    between atoms: N_10  and  C_24
    3  A    between atoms: C_14  and  C_15
    4  A    between atoms: C_15  and  C_26
    5  A    between atoms: C_16  and  C_26
    6  A    between atoms: C_25  and  C_26
                            x       y       z     vdW  Elec       q    Type
                         _______ _______ _______ _____ _____    ______ ____

>  <TORSDO>
F 6

$$$$
=
 OpenBabel11052417053D

 32 36  0  0  1  0  0  0  0  0999 V2000
  189.3450  175.8930  142.3670 C   0  0  0  0  0  2  0  0  0  0  0  0
  188.6310  177.1290  141.8350 C   0  0  0  0  0  2  0  0  0  0  0  0
  190.1380  177.0110  141.7220 C   0  0  0  0  0  0  0  0  0  0  0  0
  189.5780  177.5960  147.3840 C   0  0  0  0  0  0  0  0  0  0  0  0
  192.1660  177.3810  143.1100 O   0  0  0  0  0  0  0  0  0  0  0  0
  191.1250  176.7900  145.1980 C   0  0  0  0  0  0  0  0  0  0  0  0
  190.1690  178.6440  143.7860 C   0  0  0  0  0  2  0  0  0  0  0  0
  189.4820  178.2830  146.1680 C   0  0  0  0  0  3  0  0  0  0  0  0
  190.9500  177.9470  142.6530 C   0  0  2  0  0  3  0  0  0  0  0  0
  190.4340  176.4950  147.4980 C   0  0  0  0  0  3  0  0  0  0  0  0
  190.2470  177.8760  145.0710 C   0  0  0  0  0  0  0  0  0  0  0  0
  191.2040  176.0890  146.4040 C   0  0  0  0  0  3  0  0  0  0  0  0
  191.8880  176.3180  143.9980 C   0  0  0  0  0  2  0  0  0  0  0  0
  188.7430  178.0130  148.5420 C   0  0  0  0  0  2  0  0  0  0  0  0
  186.5970  178.2860  147.2540 C   0  0  0  0  0  0  0  0  0  0  0  0
  187.6280  178.8230  148.0790 N   0  0  0  0  0  2  0  0  0  0  0  0
  185.4800  179.1610  146.8090 C   0  0  0  0  0  1  0  0  0  0  0  0
  186.6200  177.0780  146.8980 O   0  0  0  0  0  0  0  0  0  0  0  0
  190.5990  176.7430  140.2900 C   0  0  1  0  0  3  0  0  0  0  0  0
  188.9080  178.7990  137.6350 C   0  0  0  0  0  0  0  0  0  0  0  0
  188.2160  177.7860  136.8210 C   0  0  0  0  0  0  0  0  0  0  0  0
  186.9220  175.8090  135.3220 C   0  0  0  0  0  3  0  0  0  0  0  0
  189.4940  177.0660  139.2790 C   0  0  2  0  0  3  0  0  0  0  0  0
  186.6950  177.1590  135.0420 C   0  0  0  0  0  3  0  0  0  0  0  0
  187.3430  178.1490  135.7880 C   0  0  0  0  0  3  0  0  0  0  0  0
  189.4310  176.0220  138.1600 C   0  0  0  0  0  2  0  0  0  0  0  0
  188.8730  180.0190  137.3220 O   0  0  0  0  0  0  0  0  0  0  0  0
  187.7970  175.4430  136.3500 C   0  0  0  0  0  3  0  0  0  0  0  0
  189.6350  178.3900  138.7550 O   0  0  0  0  0  0  0  0  0  0  0  0
  188.4380  176.4260  137.1090 C   0  0  0  0  0  0  0  0  0  0  0  0
  192.8570  176.5660  138.7250 S   0  0  0  0  0  1  0  0  0  0  0  0
  191.9100  177.4650  139.9860 C   0  0  0  0  0  2  0  0  0  0  0  0
  2  1  1  0  0  0  0
  3  2  1  0  0  0  0
  3  1  1  0  0  0  0
  4 10  1  0  0  0  0
  4 14  1  0  0  0  0
  5 13  1  0  0  0  0
  6 12  1  0  0  0  0
  7 11  1  0  0  0  0
  8  4  2  0  0  0  0
  9  3  1  1  0  0  0
  9  5  1  0  0  0  0
  9  7  1  0  0  0  0
 11  6  2  0  0  0  0
 11  8  1  0  0  0  0
 12 10  2  0  0  0  0
 13  6  1  0  0  0  0
 15 16  1  0  0  0  0
 16 14  1  0  0  0  0
 17 15  1  0  0  0  0
 18 15  2  0  0  0  0
 19 32  1  6  0  0  0
 19  3  1  0  0  0  0
 20 29  1  0  0  0  0
 21 30  1  0  0  0  0
 21 20  1  0  0  0  0
 22 28  1  0  0  0  0
 23 19  1  1  0  0  0
 24 22  2  0  0  0  0
 24 25  1  0  0  0  0
 25 21  2  0  0  0  0
 26 23  1  0  0  0  0
 27 20  2  0  0  0  0
 28 30  2  0  0  0  0
 29 23  1  0  0  0  0
 30 26  1  0  0  0  0
 31 32  1  0  0  0  0
M  END
>  <MODEL>
6

>  <REMARK>
 VINA RESULT:      -8.1      3.625      8.232
  Name = 
  6 active torsions:
  status: ('A' for Active; 'I' for Inactive)
    1  A    between atoms: C_2  and  C_24
    2  A    between atoms: N_10  and  C_24
    3  A    between atoms: C_14  and  C_15
    4  A    between atoms: C_15  and  C_26
    5  A    between atoms: C_16  and  C_26
    6  A    between atoms: C_25  and  C_26
                            x       y       z     vdW  Elec       q    Type
                         _______ _______ _______ _____ _____    ______ ____

>  <TORSDO>
F 6

$$$$
=
 OpenBabel11052417053D

 32 36  0  0  1  0  0  0  0  0999 V2000
  188.9430  176.8940  141.4910 C   0  0  0  0  0  2  0  0  0  0  0  0
  189.2420  178.2530  142.1120 C   0  0  0  0  0  2  0  0  0  0  0  0
  188.0230  178.0690  141.2310 C   0  0  0  0  0  0  0  0  0  0  0  0
  190.5440  176.0340  136.5180 C   0  0  0  0  0  0  0  0  0  0  0  0
  186.9760  178.4900  139.0160 O   0  0  0  0  0  0  0  0  0  0  0  0
  188.2030  176.7770  137.8540 C   0  0  0  0  0  0  0  0  0  0  0  0
  189.4300  178.6070  139.0720 C   0  0  0  0  0  2  0  0  0  0  0  0
  190.5700  177.0860  137.4410 C   0  0  0  0  0  3  0  0  0  0  0  0
  188.1000  178.7500  139.8400 C   0  0  2  0  0  3  0  0  0  0  0  0
  189.3510  175.3430  136.2790 C   0  0  0  0  0  3  0  0  0  0  0  0
  189.4030  177.4530  138.1170 C   0  0  0  0  0  0  0  0  0  0  0  0
  188.1810  175.7110  136.9500 C   0  0  0  0  0  3  0  0  0  0  0  0
  186.9730  177.1300  138.6350 C   0  0  0  0  0  2  0  0  0  0  0  0
  191.7930  175.6270  135.8190 C   0  0  0  0  0  2  0  0  0  0  0  0
  193.8830  175.3410  137.1950 C   0  0  0  0  0  0  0  0  0  0  0  0
  192.6300  174.8520  136.7200 N   0  0  0  0  0  2  0  0  0  0  0  0
  194.6970  174.5050  138.1150 C   0  0  0  0  0  1  0  0  0  0  0  0
  194.3050  176.4740  136.8440 O   0  0  0  0  0  0  0  0  0  0  0  0
  186.7180  178.0660  142.0270 C   0  0  1  0  0  3  0  0  0  0  0  0
  185.7150  178.5970  145.6110 C   0  0  0  0  0  0  0  0  0  0  0  0
  186.8870  178.1130  146.3590 C   0  0  0  0  0  0  0  0  0  0  0  0
  189.1490  177.1820  147.7170 C   0  0  0  0  0  3  0  0  0  0  0  0
  186.9700  178.3620  143.5090 C   0  0  2  0  0  3  0  0  0  0  0  0
  188.1120  177.7960  148.4250 C   0  0  0  0  0  3  0  0  0  0  0  0
  186.9800  178.2600  147.7490 C   0  0  0  0  0  3  0  0  0  0  0  0
  187.8130  177.2670  144.1670 C   0  0  0  0  0  2  0  0  0  0  0  0
  184.6840  179.0040  146.2110 O   0  0  0  0  0  0  0  0  0  0  0  0
  189.0570  177.0300  146.3300 C   0  0  0  0  0  3  0  0  0  0  0  0
  185.7440  178.5770  144.2160 O   0  0  0  0  0  0  0  0  0  0  0  0
  187.9350  177.5020  145.6450 C   0  0  0  0  0  0  0  0  0  0  0  0
  184.0840  178.1660  141.2350 S   0  0  0  0  0  1  0  0  0  0  0  0
  185.6860  179.0030  141.4020 C   0  0  0  0  0  2  0  0  0  0  0  0
  1  2  1  0  0  0  0
  3  1  1  0  0  0  0
  3 19  1  0  0  0  0
  3  2  1  0  0  0  0
  4  8  1  0  0  0  0
  5  9  1  0  0  0  0
  6 11  1  0  0  0  0
  6 13  1  0  0  0  0
  8 11  2  0  0  0  0
  9  7  1  6  0  0  0
  9  3  1  0  0  0  0
 10  4  2  0  0  0  0
 10 12  1  0  0  0  0
 11  7  1  0  0  0  0
 12  6  2  0  0  0  0
 13  5  1  0  0  0  0
 14  4  1  0  0  0  0
 14 16  1  0  0  0  0
 15 17  1  0  0  0  0
 16 15  1  0  0  0  0
 18 15  2  0  0  0  0
 19 32  1  6  0  0  0
 20 27  2  0  0  0  0
 20 21  1  0  0  0  0
 21 25  1  0  0  0  0
 22 24  1  0  0  0  0
 23 19  1  6  0  0  0
 23 26  1  0  0  0  0
 23 29  1  0  0  0  0
 25 24  2  0  0  0  0
 26 30  1  0  0  0  0
 28 22  2  0  0  0  0
 29 20  1  0  0  0  0
 30 28  1  0  0  0  0
 30 21  2  0  0  0  0
 31 32  1  0  0  0  0
M  END
>  <MODEL>
7

>  <REMARK>
 VINA RESULT:      -8.0      2.309      3.628
  Name = 
  6 active torsions:
  status: ('A' for Active; 'I' for Inactive)
    1  A    between atoms: C_2  and  C_24
    2  A    between atoms: N_10  and  C_24
    3  A    between atoms: C_14  and  C_15
    4  A    between atoms: C_15  and  C_26
    5  A    between atoms: C_16  and  C_26
    6  A    between atoms: C_25  and  C_26
                            x       y       z     vdW  Elec       q    Type
                         _______ _______ _______ _____ _____    ______ ____

>  <TORSDO>
F 6

$$$$
=
 OpenBabel11052417053D

 32 36  0  0  1  0  0  0  0  0999 V2000
  191.7970  178.2230  143.1670 C   0  0  0  0  0  2  0  0  0  0  0  0
  190.4370  178.9060  143.2350 C   0  0  0  0  0  2  0  0  0  0  0  0
  190.5960  177.4760  143.7110 C   0  0  0  0  0  0  0  0  0  0  0  0
  188.2940  178.2400  138.5310 C   0  0  0  0  0  0  0  0  0  0  0  0
  190.8770  175.7090  141.9850 O   0  0  0  0  0  0  0  0  0  0  0  0
  190.3030  177.1180  140.1200 C   0  0  0  0  0  0  0  0  0  0  0  0
  188.6840  176.8170  142.0250 C   0  0  0  0  0  2  0  0  0  0  0  0
  188.0060  177.8360  139.8400 C   0  0  0  0  0  3  0  0  0  0  0  0
  189.9480  176.3980  142.8040 C   0  0  2  0  0  3  0  0  0  0  0  0
  189.5910  178.0980  138.0260 C   0  0  0  0  0  3  0  0  0  0  0  0
  189.0110  177.2840  140.6400 C   0  0  0  0  0  0  0  0  0  0  0  0
  190.5970  177.5410  138.8210 C   0  0  0  0  0  3  0  0  0  0  0  0
  191.3900  176.5910  141.0070 C   0  0  0  0  0  2  0  0  0  0  0  0
  187.2300  178.8520  137.6900 C   0  0  0  0  0  2  0  0  0  0  0  0
  184.8790  178.6160  138.5600 C   0  0  0  0  0  0  0  0  0  0  0  0
  185.9940  178.1000  137.8360 N   0  0  0  0  0  2  0  0  0  0  0  0
  183.6400  177.8040  138.6770 C   0  0  0  0  0  1  0  0  0  0  0  0
  184.9320  179.7530  139.1000 O   0  0  0  0  0  0  0  0  0  0  0  0
  190.5370  177.3530  145.2330 C   0  0  1  0  0  3  0  0  0  0  0  0
  187.7710  178.0490  147.6830 C   0  0  0  0  0  0  0  0  0  0  0  0
  186.5980  178.2390  146.8140 C   0  0  0  0  0  0  0  0  0  0  0  0
  184.4090  178.5840  145.1050 C   0  0  0  0  0  3  0  0  0  0  0  0
  189.0890  177.3330  145.7330 C   0  0  2  0  0  3  0  0  0  0  0  0
  184.2190  178.5590  146.4890 C   0  0  0  0  0  3  0  0  0  0  0  0
  185.3110  178.3900  147.3450 C   0  0  0  0  0  3  0  0  0  0  0  0
  188.1720  178.1740  144.8400 C   0  0  0  0  0  2  0  0  0  0  0  0
  187.6830  178.1850  148.9330 O   0  0  0  0  0  0  0  0  0  0  0  0
  185.6940  178.4380  144.5720 C   0  0  0  0  0  3  0  0  0  0  0  0
  189.0020  177.7380  147.1030 O   0  0  0  0  0  0  0  0  0  0  0  0
  186.7890  178.2550  145.4200 C   0  0  0  0  0  0  0  0  0  0  0  0
  191.8280  176.3820  147.4610 S   0  0  0  0  0  1  0  0  0  0  0  0
  191.3500  176.1580  145.7240 C   0  0  0  0  0  2  0  0  0  0  0  0
  1  2  1  0  0  0  0
  1  3  1  0  0  0  0
  2  3  1  0  0  0  0
  3 19  1  0  0  0  0
  4  8  1  0  0  0  0
  5  9  1  0  0  0  0
  6 11  1  0  0  0  0
  6 13  1  0  0  0  0
  8 11  2  0  0  0  0
  9  7  1  6  0  0  0
  9  3  1  0  0  0  0
 10  4  2  0  0  0  0
 10 12  1  0  0  0  0
 11  7  1  0  0  0  0
 12  6  2  0  0  0  0
 13  5  1  0  0  0  0
 14 16  1  0  0  0  0
 14  4  1  0  0  0  0
 15 17  1  0  0  0  0
 15 18  2  0  0  0  0
 16 15  1  0  0  0  0
 19 32  1  6  0  0  0
 20 27  2  0  0  0  0
 21 25  1  0  0  0  0
 21 20  1  0  0  0  0
 22 24  1  0  0  0  0
 23 19  1  6  0  0  0
 23 29  1  0  0  0  0
 24 25  2  0  0  0  0
 26 30  1  0  0  0  0
 26 23  1  0  0  0  0
 28 22  2  0  0  0  0
 28 30  1  0  0  0  0
 29 20  1  0  0  0  0
 30 21  2  0  0  0  0
 32 31  1  0  0  0  0
M  END
>  <MODEL>
8

>  <REMARK>
 VINA RESULT:      -8.0      2.673      4.432
  Name = 
  6 active torsions:
  status: ('A' for Active; 'I' for Inactive)
    1  A    between atoms: C_2  and  C_24
    2  A    between atoms: N_10  and  C_24
    3  A    between atoms: C_14  and  C_15
    4  A    between atoms: C_15  and  C_26
    5  A    between atoms: C_16  and  C_26
    6  A    between atoms: C_25  and  C_26
                            x       y       z     vdW  Elec       q    Type
                         _______ _______ _______ _____ _____    ______ ____

>  <TORSDO>
F 6

$$$$
=
 OpenBabel11052417053D

 32 36  0  0  1  0  0  0  0  0999 V2000
  191.2440  178.6500  144.5000 C   0  0  0  0  0  2  0  0  0  0  0  0
  189.8990  178.9010  143.8310 C   0  0  0  0  0  2  0  0  0  0  0  0
  190.1400  177.6170  144.5990 C   0  0  0  0  0  0  0  0  0  0  0  0
  189.5930  177.2200  138.9190 C   0  0  0  0  0  0  0  0  0  0  0  0
  191.6030  176.0460  143.3450 O   0  0  0  0  0  0  0  0  0  0  0  0
  191.2160  177.0440  141.1900 C   0  0  0  0  0  0  0  0  0  0  0  0
  189.2800  176.1950  142.5570 C   0  0  0  0  0  2  0  0  0  0  0  0
  189.0510  176.7830  140.1330 C   0  0  0  0  0  3  0  0  0  0  0  0
  190.2710  176.3400  143.7310 C   0  0  2  0  0  3  0  0  0  0  0  0
  190.9420  177.5860  138.8470 C   0  0  0  0  0  3  0  0  0  0  0  0
  189.8580  176.7030  141.2720 C   0  0  0  0  0  0  0  0  0  0  0  0
  191.7530  177.5020  139.9830 C   0  0  0  0  0  3  0  0  0  0  0  0
  192.0560  177.0220  142.4300 C   0  0  0  0  0  2  0  0  0  0  0  0
  188.7270  177.3300  137.7140 C   0  0  0  0  0  2  0  0  0  0  0  0
  189.4540  176.3420  135.5150 C   0  0  0  0  0  0  0  0  0  0  0  0
  188.9530  176.1890  136.8410 N   0  0  0  0  0  2  0  0  0  0  0  0
  189.6660  175.1400  134.6660 C   0  0  0  0  0  1  0  0  0  0  0  0
  189.7210  177.4840  135.0550 O   0  0  0  0  0  0  0  0  0  0  0  0
  189.3960  177.5820  145.9330 C   0  0  1  0  0  3  0  0  0  0  0  0
  185.9150  178.8550  146.5650 C   0  0  0  0  0  0  0  0  0  0  0  0
  185.2570  178.6840  145.2590 C   0  0  0  0  0  0  0  0  0  0  0  0
  184.0670  178.3290  142.7510 C   0  0  0  0  0  3  0  0  0  0  0  0
  187.8790  177.6340  145.7250 C   0  0  2  0  0  3  0  0  0  0  0  0
  183.2940  178.7370  143.8410 C   0  0  0  0  0  3  0  0  0  0  0  0
  183.8860  178.9180  145.0940 C   0  0  0  0  0  3  0  0  0  0  0  0
  187.5190  178.0870  144.3070 C   0  0  0  0  0  2  0  0  0  0  0  0
  185.3060  179.3780  147.5360 O   0  0  0  0  0  0  0  0  0  0  0  0
  185.4380  178.0990  142.9110 C   0  0  0  0  0  3  0  0  0  0  0  0
  187.2430  178.4510  146.7140 O   0  0  0  0  0  0  0  0  0  0  0  0
  186.0350  178.2650  144.1640 C   0  0  0  0  0  0  0  0  0  0  0  0
  191.5510  176.6070  147.3400 S   0  0  0  0  0  1  0  0  0  0  0  0
  189.8370  176.3910  146.7810 C   0  0  0  0  0  2  0  0  0  0  0  0
  1  3  1  0  0  0  0
  2  1  1  0  0  0  0
  2  3  1  0  0  0  0
  3 19  1  0  0  0  0
  4  8  1  0  0  0  0
  5  9  1  0  0  0  0
  6 11  1  0  0  0  0
  6 13  1  0  0  0  0
  8 11  2  0  0  0  0
  9  7  1  6  0  0  0
  9  3  1  0  0  0  0
 10  4  2  0  0  0  0
 10 12  1  0  0  0  0
 11  7  1  0  0  0  0
 12  6  2  0  0  0  0
 13  5  1  0  0  0  0
 14  4  1  0  0  0  0
 15 16  1  0  0  0  0
 16 14  1  0  0  0  0
 17 15  1  0  0  0  0
 18 15  2  0  0  0  0
 19 32  1  6  0  0  0
 20 29  1  0  0  0  0
 20 27  2  0  0  0  0
 21 20  1  0  0  0  0
 22 28  2  0  0  0  0
 22 24  1  0  0  0  0
 23 19  1  6  0  0  0
 23 29  1  0  0  0  0
 24 25  2  0  0  0  0
 25 21  1  0  0  0  0
 26 23  1  0  0  0  0
 28 30  1  0  0  0  0
 30 26  1  0  0  0  0
 30 21  2  0  0  0  0
 32 31  1  0  0  0  0
M  END
>  <MODEL>
9

>  <REMARK>
 VINA RESULT:      -8.0      2.115      2.820
  Name = 
  6 active torsions:
  status: ('A' for Active; 'I' for Inactive)
    1  A    between atoms: C_2  and  C_24
    2  A    between atoms: N_10  and  C_24
    3  A    between atoms: C_14  and  C_15
    4  A    between atoms: C_15  and  C_26
    5  A    between atoms: C_16  and  C_26
    6  A    between atoms: C_25  and  C_26
                            x       y       z     vdW  Elec       q    Type
                         _______ _______ _______ _____ _____    ______ ____

>  <TORSDO>
F 6

$$$$
