=
 OpenBabel11052415523D

 34 39  0  0  1  0  0  0  0  0999 V2000
  184.9030  178.8420  141.6740 C   0  0  0  0  0  0  0  0  0  0  0  0
  185.3780  178.1440  138.0040 C   0  0  0  0  0  2  0  0  0  0  0  0
  183.3580  178.4360  139.4210 C   0  0  0  0  0  3  0  0  0  0  0  0
  184.3120  178.9610  143.7370 C   0  0  0  0  0  0  0  0  0  0  0  0
  185.4120  178.8850  142.9250 N   0  0  0  0  0  2  0  0  0  0  0  0
  181.6700  178.8130  143.3990 C   0  0  0  0  0  3  0  0  0  0  0  0
  180.7770  178.6380  142.1630 C   0  0  0  0  0  3  0  0  0  0  0  0
  183.1190  178.9410  143.0090 C   0  0  0  0  0  0  0  0  0  0  0  0
  182.7050  178.6420  140.6460 C   0  0  0  0  0  0  0  0  0  0  0  0
  183.5000  178.8740  141.7230 C   0  0  0  0  0  0  0  0  0  0  0  0
  181.2520  178.5490  140.8960 C   0  0  0  0  0  3  0  0  0  0  0  0
  186.6330  178.8520  137.7990 N   0  0  0  0  0  2  0  0  0  0  0  0
  187.7310  177.9680  138.1900 C   0  0  2  0  0  3  0  0  0  0  0  0
  187.6350  177.5470  139.6630 C   0  0  0  0  0  2  0  0  0  0  0  0
  184.7840  178.4570  139.3510 C   0  0  0  0  0  0  0  0  0  0  0  0
  187.0260  178.6500  140.5190 C   0  0  0  0  0  2  0  0  0  0  0  0
  185.5590  178.6170  140.5030 N   0  0  0  0  0  0  0  0  0  0  0  0
  189.0540  178.6690  137.9250 C   0  0  0  0  0  2  0  0  0  0  0  0
  190.1580  177.8920  138.4670 N   0  0  0  0  0  2  0  0  0  0  0  0
  190.5460  176.9330  137.4470 C   0  0  0  0  0  1  0  0  0  0  0  0
  184.3990  178.9310  145.2260 C   0  0  0  0  0  2  0  0  0  0  0  0
  187.0240  178.2070  147.7630 C   0  0  0  0  0  3  0  0  0  0  0  0
  186.5670  177.7160  144.9610 C   0  0  0  0  0  2  0  0  0  0  0  0
  190.3980  176.8600  146.7330 C   0  0  0  0  0  0  0  0  0  0  0  0
  189.3540  177.3670  147.5200 C   0  0  0  0  0  3  0  0  0  0  0  0
  188.1220  177.6770  146.9390 C   0  0  0  0  0  0  0  0  0  0  0  0
  188.9560  176.9560  144.7770 C   0  0  0  0  0  3  0  0  0  0  0  0
  187.9220  177.4750  145.5610 C   0  0  0  0  0  0  0  0  0  0  0  0
  190.1910  176.6580  145.3600 C   0  0  0  0  0  3  0  0  0  0  0  0
  185.8480  178.8620  145.6820 C   0  0  2  0  0  3  0  0  0  0  0  0
  185.9350  178.7220  147.1820 C   0  0  0  0  0  3  0  0  0  0  0  0
  191.6970  176.5420  147.3470 C   0  0  0  0  0  0  0  0  0  0  0  0
  192.1440  177.2390  148.2970 O   0  0  0  0  0  1  0  0  0  0  0  0
  192.4460  175.4660  146.8820 O   0  0  0  0  0  0  0  0  0  0  0  0
  1 10  2  0  0  0  0
  1  5  1  0  0  0  0
  2 15  1  0  0  0  0
  3  9  1  0  0  0  0
  4 21  1  0  0  0  0
  5  4  1  0  0  0  0
  7  6  2  0  0  0  0
  8  6  1  0  0  0  0
  8  4  2  0  0  0  0
  9 11  2  0  0  0  0
  9 10  1  0  0  0  0
 10  8  1  0  0  0  0
 11  7  1  0  0  0  0
 12  2  1  0  0  0  0
 12 13  1  0  0  0  0
 13 18  1  1  0  0  0
 13 14  1  0  0  0  0
 14 16  1  0  0  0  0
 15  3  2  0  0  0  0
 15 17  1  0  0  0  0
 17 16  1  0  0  0  0
 17  1  1  0  0  0  0
 18 19  1  0  0  0  0
 20 19  1  0  0  0  0
 23 28  1  0  0  0  0
 23 30  1  0  0  0  0
 24 32  1  0  0  0  0
 24 25  1  0  0  0  0
 26 25  2  0  0  0  0
 26 22  1  0  0  0  0
 27 29  1  0  0  0  0
 27 28  2  0  0  0  0
 28 26  1  0  0  0  0
 29 24  2  0  0  0  0
 30 21  1  6  0  0  0
 30 31  1  0  0  0  0
 31 22  2  0  0  0  0
 32 33  1  0  0  0  0
 34 32  2  0  0  0  0
M  END
>  <MODEL>
1

>  <REMARK>
 VINA RESULT:     -11.1      0.000      0.000
  Name = 
  5 active torsions:
  status: ('A' for Active; 'I' for Inactive)
    1  A    between atoms: C_3  and  N_13
    2  A    between atoms: C_3  and  C_25
    3  A    between atoms: C_7  and  C_11
    4  A    between atoms: C_8  and  C_18
    5  A    between atoms: C_18  and  C_30
                            x       y       z     vdW  Elec       q    Type
                         _______ _______ _______ _____ _____    ______ ____

>  <TORSDO>
F 5

$$$$
=
 OpenBabel11052415523D

 34 39  0  0  1  0  0  0  0  0999 V2000
  188.9570  177.3530  143.1150 C   0  0  0  0  0  0  0  0  0  0  0  0
  191.6080  177.0430  140.4600 C   0  0  0  0  0  2  0  0  0  0  0  0
  191.6470  176.7610  142.9280 C   0  0  0  0  0  3  0  0  0  0  0  0
  187.7520  177.7150  144.8580 C   0  0  0  0  0  0  0  0  0  0  0  0
  187.7310  177.7790  143.4910 N   0  0  0  0  0  0  0  0  0  0  0  0
  189.5920  177.2090  146.7220 C   0  0  0  0  0  3  0  0  0  0  0  0
  191.0790  176.8290  146.6550 C   0  0  0  0  0  3  0  0  0  0  0  0
  188.9860  177.2760  145.3440 C   0  0  0  0  0  0  0  0  0  0  0  0
  191.0610  176.7880  144.2020 C   0  0  0  0  0  0  0  0  0  0  0  0
  189.7270  177.0470  144.2480 C   0  0  2  0  0  3  0  0  0  0  0  0
  191.7580  176.6450  145.4970 C   0  0  0  0  0  3  0  0  0  0  0  0
  190.7750  176.5830  139.3590 N   0  0  0  0  0  2  0  0  0  0  0  0
  190.1630  177.7490  138.7240 C   0  0  2  0  0  3  0  0  0  0  0  0
  189.2920  178.5480  139.7030 C   0  0  0  0  0  2  0  0  0  0  0  0
  190.8600  177.0170  141.7650 C   0  0  0  0  0  0  0  0  0  0  0  0
  188.6300  177.6390  140.7300 C   0  0  0  0  0  2  0  0  0  0  0  0
  189.5100  177.3610  141.8720 N   0  0  0  0  0  0  0  0  0  0  0  0
  189.3360  177.2910  137.5320 C   0  0  0  0  0  2  0  0  0  0  0  0
  188.8150  178.4390  136.8050 N   0  0  0  0  0  2  0  0  0  0  0  0
  187.4300  178.1470  136.4810 C   0  0  0  0  0  1  0  0  0  0  0  0
  186.6240  178.1910  145.7110 C   0  0  0  0  0  2  0  0  0  0  0  0
  183.0560  179.0710  145.1250 C   0  0  0  0  0  3  0  0  0  0  0  0
  185.4070  178.5190  143.5530 C   0  0  0  0  0  2  0  0  0  0  0  0
  181.5490  178.8640  141.6690 C   0  0  0  0  0  0  0  0  0  0  0  0
  181.6750  179.0350  143.0540 C   0  0  0  0  0  3  0  0  0  0  0  0
  182.9200  178.8900  143.6710 C   0  0  0  0  0  0  0  0  0  0  0  0
  183.9350  178.4200  141.5170 C   0  0  0  0  0  3  0  0  0  0  0  0
  184.0550  178.5770  142.9000 C   0  0  0  0  0  0  0  0  0  0  0  0
  182.6860  178.5550  140.9050 C   0  0  0  0  0  3  0  0  0  0  0  0
  185.2940  178.0150  144.9950 C   0  0  2  0  0  3  0  0  0  0  0  0
  184.1820  178.7070  145.7460 C   0  0  0  0  0  3  0  0  0  0  0  0
  180.2340  179.0100  141.0240 C   0  0  0  0  0  0  0  0  0  0  0  0
  179.4290  178.0420  140.9860 O   0  0  0  0  0  1  0  0  0  0  0  0
  179.8680  180.2220  140.4480 O   0  0  0  0  0  0  0  0  0  0  0  0
  1  5  2  0  0  0  0
  2 15  1  0  0  0  0
  3  9  1  0  0  0  0
  4  8  2  0  0  0  0
  4 21  1  0  0  0  0
  5  4  1  0  0  0  0
  7  6  2  0  0  0  0
  8  6  1  0  0  0  0
  9 10  1  0  0  0  0
  9 11  2  0  0  0  0
 10  1  1  6  0  0  0
 10  8  1  0  0  0  0
 11  7  1  0  0  0  0
 12  2  1  0  0  0  0
 13 18  1  6  0  0  0
 13 12  1  0  0  0  0
 13 14  1  0  0  0  0
 14 16  1  0  0  0  0
 15 17  1  0  0  0  0
 15  3  2  0  0  0  0
 16 17  1  0  0  0  0
 17  1  1  0  0  0  0
 19 18  1  0  0  0  0
 20 19  1  0  0  0  0
 22 31  2  0  0  0  0
 23 30  1  0  0  0  0
 24 25  1  0  0  0  0
 25 26  2  0  0  0  0
 26 22  1  0  0  0  0
 27 28  2  0  0  0  0
 28 23  1  0  0  0  0
 28 26  1  0  0  0  0
 29 27  1  0  0  0  0
 29 24  2  0  0  0  0
 30 21  1  1  0  0  0
 30 31  1  0  0  0  0
 32 24  1  0  0  0  0
 33 32  1  0  0  0  0
 34 32  2  0  0  0  0
M  END
>  <MODEL>
2

>  <REMARK>
 VINA RESULT:     -10.6      3.922      7.350
  Name = 
  5 active torsions:
  status: ('A' for Active; 'I' for Inactive)
    1  A    between atoms: C_3  and  N_13
    2  A    between atoms: C_3  and  C_25
    3  A    between atoms: C_7  and  C_11
    4  A    between atoms: C_8  and  C_18
    5  A    between atoms: C_18  and  C_30
                            x       y       z     vdW  Elec       q    Type
                         _______ _______ _______ _____ _____    ______ ____

>  <TORSDO>
F 5

$$$$
=
 OpenBabel11052415523D

 34 39  0  0  1  0  0  0  0  0999 V2000
  186.8290  177.9270  143.7810 C   0  0  0  0  0  0  0  0  0  0  0  0
  187.5520  177.7850  147.4730 C   0  0  0  0  0  2  0  0  0  0  0  0
  185.4920  178.2700  146.1720 C   0  0  0  0  0  3  0  0  0  0  0  0
  186.1800  178.3460  141.7750 C   0  0  0  0  0  0  0  0  0  0  0  0
  187.2810  177.9950  142.5090 N   0  0  0  0  0  0  0  0  0  0  0  0
  183.6710  179.0730  142.3180 C   0  0  0  0  0  2  0  0  0  0  0  0
  182.8810  179.2270  143.6250 C   0  0  0  0  0  3  0  0  0  0  0  0
  185.0480  178.5210  142.5770 C   0  0  0  0  0  0  0  0  0  0  0  0
  184.7800  178.4650  144.9790 C   0  0  0  0  0  0  0  0  0  0  0  0
  185.4640  178.2500  143.8240 C   0  0  0  0  0  0  0  0  0  0  0  0
  183.3930  178.9570  144.8510 C   0  0  0  0  0  3  0  0  0  0  0  0
  188.5890  176.7640  147.4630 N   0  0  0  0  0  2  0  0  0  0  0  0
  189.8670  177.4080  147.1570 C   0  0  2  0  0  3  0  0  0  0  0  0
  189.8470  178.1080  145.7910 C   0  0  0  0  0  2  0  0  0  0  0  0
  186.8670  177.8860  146.1380 C   0  0  0  0  0  0  0  0  0  0  0  0
  188.9580  177.3700  144.7990 C   0  0  0  0  0  2  0  0  0  0  0  0
  187.5480  177.7590  144.9240 N   0  0  0  0  0  0  0  0  0  0  0  0
  190.9740  176.3660  147.2020 C   0  0  0  0  0  2  0  0  0  0  0  0
  192.0490  176.8050  148.0780 N   0  0  0  0  0  2  0  0  0  0  0  0
  192.8330  175.6300  148.4140 C   0  0  0  0  0  1  0  0  0  0  0  0
  186.2360  178.6320  140.3120 C   0  0  0  0  0  2  0  0  0  0  0  0
  188.2280  177.5910  137.3460 C   0  0  0  0  0  3  0  0  0  0  0  0
  188.6910  178.2040  140.1230 C   0  0  0  0  0  2  0  0  0  0  0  0
  191.8220  176.4900  137.7110 C   0  0  0  0  0  0  0  0  0  0  0  0
  190.5700  176.7710  137.1470 C   0  0  0  0  0  3  0  0  0  0  0  0
  189.5430  177.2950  137.9360 C   0  0  0  0  0  0  0  0  0  0  0  0
  191.0170  177.2850  139.8640 C   0  0  0  0  0  3  0  0  0  0  0  0
  189.7660  177.5490  139.3030 C   0  0  0  0  0  0  0  0  0  0  0  0
  192.0380  176.7500  139.0740 C   0  0  0  0  0  3  0  0  0  0  0  0
  187.3010  177.7820  139.6360 C   0  0  2  0  0  3  0  0  0  0  0  0
  187.1840  177.8660  138.1330 C   0  0  0  0  0  3  0  0  0  0  0  0
  192.8990  175.9310  136.8780 C   0  0  0  0  0  0  0  0  0  0  0  0
  192.7210  174.8630  136.2350 O   0  0  0  0  0  0  0  0  0  0  0  0
  194.1260  176.5790  136.7940 O   0  0  0  0  0  1  0  0  0  0  0  0
  1 10  1  0  0  0  0
  1 17  1  0  0  0  0
  4  5  1  0  0  0  0
  4  8  2  0  0  0  0
  5  1  2  0  0  0  0
  6  8  1  0  0  0  0
  6  7  1  0  0  0  0
  7 11  2  0  0  0  0
  8 10  1  0  0  0  0
  9  3  1  0  0  0  0
 10  9  2  0  0  0  0
 11  9  1  0  0  0  0
 12  2  1  0  0  0  0
 13 18  1  6  0  0  0
 13 12  1  0  0  0  0
 14 13  1  0  0  0  0
 15  3  2  0  0  0  0
 15  2  1  0  0  0  0
 16 17  1  0  0  0  0
 16 14  1  0  0  0  0
 17 15  1  0  0  0  0
 18 19  1  0  0  0  0
 19 20  1  0  0  0  0
 21  4  1  0  0  0  0
 22 26  1  0  0  0  0
 22 31  2  0  0  0  0
 24 29  1  0  0  0  0
 25 24  2  0  0  0  0
 25 26  1  0  0  0  0
 26 28  2  0  0  0  0
 28 27  1  0  0  0  0
 28 23  1  0  0  0  0
 29 27  2  0  0  0  0
 30 23  1  0  0  0  0
 30 21  1  1  0  0  0
 31 30  1  0  0  0  0
 32 24  1  0  0  0  0
 33 32  2  0  0  0  0
 34 32  1  0  0  0  0
M  END
>  <MODEL>
3

>  <REMARK>
 VINA RESULT:     -10.3      3.392      7.536
  Name = 
  5 active torsions:
  status: ('A' for Active; 'I' for Inactive)
    1  A    between atoms: C_3  and  N_13
    2  A    between atoms: C_3  and  C_25
    3  A    between atoms: C_7  and  C_11
    4  A    between atoms: C_8  and  C_18
    5  A    between atoms: C_18  and  C_30
                            x       y       z     vdW  Elec       q    Type
                         _______ _______ _______ _____ _____    ______ ____

>  <TORSDO>
F 5

$$$$
=
 OpenBabel11052415523D

 34 39  0  0  1  0  0  0  0  0999 V2000
  188.0480  177.5080  144.3510 C   0  0  0  0  0  0  0  0  0  0  0  0
  191.5220  176.9160  143.0260 C   0  0  0  0  0  2  0  0  0  0  0  0
  190.6050  177.1320  145.3250 C   0  0  0  0  0  3  0  0  0  0  0  0
  186.2600  178.0990  145.3880 C   0  0  0  0  0  0  0  0  0  0  0  0
  186.7700  177.8890  144.1350 N   0  0  0  0  0  0  0  0  0  0  0  0
  187.2380  178.1360  147.8700 C   0  0  0  0  0  3  0  0  0  0  0  0
  188.6370  177.8850  148.4530 C   0  0  0  0  0  3  0  0  0  0  0  0
  187.2130  177.8760  146.3870 C   0  0  0  0  0  0  0  0  0  0  0  0
  189.5700  177.3580  146.2450 C   0  0  0  0  0  0  0  0  0  0  0  0
  188.3210  177.5010  145.7290 C   0  0  2  0  0  3  0  0  0  0  0  0
  189.7130  177.5360  147.7050 C   0  0  0  0  0  3  0  0  0  0  0  0
  191.1830  176.1750  141.8210 N   0  0  0  0  0  2  0  0  0  0  0  0
  190.8580  177.1330  140.7650 C   0  0  2  0  0  3  0  0  0  0  0  0
  189.6710  178.0300  141.1460 C   0  0  0  0  0  2  0  0  0  0  0  0
  190.3270  177.0820  143.9250 C   0  0  0  0  0  0  0  0  0  0  0  0
  188.6680  177.2860  142.0180 C   0  0  0  0  0  2  0  0  0  0  0  0
  189.0390  177.3180  143.4380 N   0  0  0  0  0  0  0  0  0  0  0  0
  190.5590  176.3780  139.4800 C   0  0  0  0  0  2  0  0  0  0  0  0
  190.0930  177.2930  138.4500 N   0  0  0  0  0  2  0  0  0  0  0  0
  189.0600  176.6010  137.6980 C   0  0  0  0  0  1  0  0  0  0  0  0
  184.8870  178.6320  145.6280 C   0  0  0  0  0  2  0  0  0  0  0  0
  181.7220  179.0020  143.7070 C   0  0  0  0  0  3  0  0  0  0  0  0
  184.5410  178.7720  143.1570 C   0  0  0  0  0  2  0  0  0  0  0  0
  181.6650  178.5630  139.9570 C   0  0  0  0  0  0  0  0  0  0  0  0
  181.2380  178.7600  141.2770 C   0  0  0  0  0  3  0  0  0  0  0  0
  182.1670  178.7940  142.3200 C   0  0  0  0  0  0  0  0  0  0  0  0
  183.9680  178.4540  140.7300 C   0  0  0  0  0  3  0  0  0  0  0  0
  183.5390  178.6360  142.0460 C   0  0  0  0  0  0  0  0  0  0  0  0
  183.0350  178.4090  139.6910 C   0  0  0  0  0  3  0  0  0  0  0  0
  183.9580  178.2670  144.4810 C   0  0  2  0  0  3  0  0  0  0  0  0
  182.5680  178.8020  144.7230 C   0  0  0  0  0  3  0  0  0  0  0  0
  180.6820  178.5200  138.8620 C   0  0  0  0  0  0  0  0  0  0  0  0
  180.1200  177.4370  138.5490 O   0  0  0  0  0  1  0  0  0  0  0  0
  180.3660  179.6780  138.1610 O   0  0  0  0  0  0  0  0  0  0  0  0
  2 15  1  0  0  0  0
  3  9  1  0  0  0  0
  4 21  1  0  0  0  0
  4  8  2  0  0  0  0
  5  1  2  0  0  0  0
  5  4  1  0  0  0  0
  6  7  2  0  0  0  0
  8  6  1  0  0  0  0
  9 11  2  0  0  0  0
 10  1  1  6  0  0  0
 10  9  1  0  0  0  0
 10  8  1  0  0  0  0
 11  7  1  0  0  0  0
 12  2  1  0  0  0  0
 13 18  1  6  0  0  0
 13 14  1  0  0  0  0
 13 12  1  0  0  0  0
 14 16  1  0  0  0  0
 15  3  2  0  0  0  0
 16 17  1  0  0  0  0
 17 15  1  0  0  0  0
 17  1  1  0  0  0  0
 19 18  1  0  0  0  0
 20 19  1  0  0  0  0
 22 31  2  0  0  0  0
 23 30  1  0  0  0  0
 24 25  1  0  0  0  0
 25 26  2  0  0  0  0
 26 22  1  0  0  0  0
 27 28  2  0  0  0  0
 28 26  1  0  0  0  0
 28 23  1  0  0  0  0
 29 24  2  0  0  0  0
 29 27  1  0  0  0  0
 30 31  1  0  0  0  0
 30 21  1  1  0  0  0
 32 24  1  0  0  0  0
 33 32  1  0  0  0  0
 34 32  2  0  0  0  0
M  END
>  <MODEL>
4

>  <REMARK>
 VINA RESULT:     -10.2      4.064      7.624
  Name = 
  5 active torsions:
  status: ('A' for Active; 'I' for Inactive)
    1  A    between atoms: C_3  and  N_13
    2  A    between atoms: C_3  and  C_25
    3  A    between atoms: C_7  and  C_11
    4  A    between atoms: C_8  and  C_18
    5  A    between atoms: C_18  and  C_30
                            x       y       z     vdW  Elec       q    Type
                         _______ _______ _______ _____ _____    ______ ____

>  <TORSDO>
F 5

$$$$
=
 OpenBabel11052415523D

 34 39  0  0  1  0  0  0  0  0999 V2000
  187.0330  177.9870  138.8040 C   0  0  0  0  0  0  0  0  0  0  0  0
  189.5150  176.2080  136.6000 C   0  0  0  0  0  2  0  0  0  0  0  0
  187.0960  176.7180  136.3520 C   0  0  0  0  0  3  0  0  0  0  0  0
  185.3490  178.6950  139.9370 C   0  0  0  0  0  0  0  0  0  0  0  0
  186.6990  178.4830  140.0160 N   0  0  0  0  0  2  0  0  0  0  0  0
  183.4290  178.1630  138.1640 C   0  0  0  0  0  3  0  0  0  0  0  0
  183.4320  177.5070  136.7750 C   0  0  0  0  0  3  0  0  0  0  0  0
  184.8290  178.3150  138.6970 C   0  0  0  0  0  0  0  0  0  0  0  0
  185.8710  177.2330  136.8020 C   0  0  0  0  0  0  0  0  0  0  0  0
  185.8890  177.8820  137.9960 C   0  0  0  0  0  0  0  0  0  0  0  0
  184.5540  177.0700  136.1520 C   0  0  0  0  0  3  0  0  0  0  0  0
  190.7150  176.9440  136.9690 N   0  0  0  0  0  2  0  0  0  0  0  0
  191.2590  176.3550  138.1920 C   0  0  2  0  0  3  0  0  0  0  0  0
  190.2610  176.4200  139.3570 C   0  0  0  0  0  2  0  0  0  0  0  0
  188.2760  176.8690  137.1410 C   0  0  0  0  0  0  0  0  0  0  0  0
  189.3890  177.6660  139.2750 C   0  0  0  0  0  2  0  0  0  0  0  0
  188.2260  177.4710  138.4010 N   0  0  0  0  0  0  0  0  0  0  0  0
  192.5490  177.0730  138.5600 C   0  0  0  0  0  2  0  0  0  0  0  0
  193.6470  176.5970  137.7340 N   0  0  0  0  0  2  0  0  0  0  0  0
  193.5900  175.1450  137.7420 C   0  0  0  0  0  1  0  0  0  0  0  0
  184.5300  179.1530  141.0970 C   0  0  0  0  0  2  0  0  0  0  0  0
  184.9250  179.1360  144.7970 C   0  0  0  0  0  3  0  0  0  0  0  0
  186.1930  177.9310  142.5080 C   0  0  0  0  0  2  0  0  0  0  0  0
  187.9710  177.6000  146.4170 C   0  0  0  0  0  0  0  0  0  0  0  0
  186.7590  178.2830  146.2490 C   0  0  0  0  0  3  0  0  0  0  0  0
  186.1990  178.4200  144.9760 C   0  0  0  0  0  0  0  0  0  0  0  0
  188.0490  177.1720  144.0240 C   0  0  0  0  0  3  0  0  0  0  0  0
  186.8480  177.8660  143.8580 C   0  0  0  0  0  0  0  0  0  0  0  0
  188.6120  177.0460  145.2970 C   0  0  0  0  0  3  0  0  0  0  0  0
  185.3730  179.2170  142.3610 C   0  0  2  0  0  3  0  0  0  0  0  0
  184.5080  179.4720  143.5730 C   0  0  0  0  0  3  0  0  0  0  0  0
  188.5620  177.4640  147.7580 C   0  0  0  0  0  0  0  0  0  0  0  0
  187.8380  177.5350  148.7860 O   0  0  0  0  0  1  0  0  0  0  0  0
  189.9290  177.2560  147.9020 O   0  0  0  0  0  0  0  0  0  0  0  0
  1  5  1  0  0  0  0
  2 12  1  0  0  0  0
  2 15  1  0  0  0  0
  3  9  1  0  0  0  0
  3 15  2  0  0  0  0
  4  5  1  0  0  0  0
  4 21  1  0  0  0  0
  6  8  1  0  0  0  0
  7  6  2  0  0  0  0
  8  4  2  0  0  0  0
  9 10  1  0  0  0  0
 10  8  1  0  0  0  0
 10  1  2  0  0  0  0
 11  7  1  0  0  0  0
 11  9  2  0  0  0  0
 12 13  1  0  0  0  0
 13 18  1  1  0  0  0
 13 14  1  0  0  0  0
 15 17  1  0  0  0  0
 16 14  1  0  0  0  0
 17  1  1  0  0  0  0
 17 16  1  0  0  0  0
 19 20  1  0  0  0  0
 19 18  1  0  0  0  0
 22 26  1  0  0  0  0
 23 28  1  0  0  0  0
 24 32  1  0  0  0  0
 25 24  1  0  0  0  0
 26 25  2  0  0  0  0
 27 29  1  0  0  0  0
 28 27  2  0  0  0  0
 28 26  1  0  0  0  0
 29 24  2  0  0  0  0
 30 21  1  6  0  0  0
 30 23  1  0  0  0  0
 30 31  1  0  0  0  0
 31 22  2  0  0  0  0
 32 34  2  0  0  0  0
 32 33  1  0  0  0  0
M  END
>  <MODEL>
5

>  <REMARK>
 VINA RESULT:      -9.8      1.865      3.931
  Name = 
  5 active torsions:
  status: ('A' for Active; 'I' for Inactive)
    1  A    between atoms: C_3  and  N_13
    2  A    between atoms: C_3  and  C_25
    3  A    between atoms: C_7  and  C_11
    4  A    between atoms: C_8  and  C_18
    5  A    between atoms: C_18  and  C_30
                            x       y       z     vdW  Elec       q    Type
                         _______ _______ _______ _____ _____    ______ ____

>  <TORSDO>
F 5

$$$$
=
 OpenBabel11052415523D

 34 39  0  0  1  0  0  0  0  0999 V2000
  184.6470  178.4950  140.2810 C   0  0  0  0  0  0  0  0  0  0  0  0
  185.4210  177.5290  136.7250 C   0  0  0  0  0  2  0  0  0  0  0  0
  183.2920  177.8340  137.9680 C   0  0  0  0  0  3  0  0  0  0  0  0
  183.9010  178.7510  142.2810 C   0  0  0  0  0  0  0  0  0  0  0  0
  185.0590  178.6640  141.5570 N   0  0  0  0  0  2  0  0  0  0  0  0
  181.3000  178.4460  141.7730 C   0  0  0  0  0  3  0  0  0  0  0  0
  180.5080  178.1290  140.4960 C   0  0  0  0  0  3  0  0  0  0  0  0
  182.7670  178.6140  141.4760 C   0  0  0  0  0  0  0  0  0  0  0  0
  182.5420  178.1050  139.1230 C   0  0  0  0  0  0  0  0  0  0  0  0
  183.2440  178.4620  140.2300 C   0  0  0  0  0  0  0  0  0  0  0  0
  181.0790  177.9620  139.2770 C   0  0  0  0  0  3  0  0  0  0  0  0
  186.6560  178.2790  136.5500 N   0  0  0  0  0  2  0  0  0  0  0  0
  187.7590  177.4850  137.0890 C   0  0  2  0  0  3  0  0  0  0  0  0
  187.5730  177.1790  138.5820 C   0  0  0  0  0  2  0  0  0  0  0  0
  184.7170  177.9190  137.9960 C   0  0  0  0  0  0  0  0  0  0  0  0
  186.8560  178.3160  139.2980 C   0  0  0  0  0  2  0  0  0  0  0  0
  185.3960  178.2100  139.1820 N   0  0  0  0  0  0  0  0  0  0  0  0
  189.0670  178.2270  136.8590 C   0  0  0  0  0  2  0  0  0  0  0  0
  190.1930  177.4160  137.2950 N   0  0  0  0  0  2  0  0  0  0  0  0
  190.6150  176.6220  136.1540 C   0  0  0  0  0  1  0  0  0  0  0  0
  183.8790  178.8450  143.7700 C   0  0  0  0  0  2  0  0  0  0  0  0
  186.3210  178.4630  146.5510 C   0  0  0  0  0  3  0  0  0  0  0  0
  186.0740  177.6510  143.7980 C   0  0  0  0  0  2  0  0  0  0  0  0
  189.7760  177.0750  145.9230 C   0  0  0  0  0  0  0  0  0  0  0  0
  188.6720  177.6460  146.5700 C   0  0  0  0  0  3  0  0  0  0  0  0
  187.4820  177.8650  145.8730 C   0  0  0  0  0  0  0  0  0  0  0  0
  188.4790  176.9220  143.8710 C   0  0  0  0  0  3  0  0  0  0  0  0
  187.3850  177.5050  144.5160 C   0  0  0  0  0  0  0  0  0  0  0  0
  189.6720  176.7160  144.5690 C   0  0  0  0  0  3  0  0  0  0  0  0
  185.2920  178.8560  144.3310 C   0  0  2  0  0  3  0  0  0  0  0  0
  185.2710  178.8870  145.8410 C   0  0  0  0  0  3  0  0  0  0  0  0
  191.0310  176.8530  146.6590 C   0  0  0  0  0  0  0  0  0  0  0  0
  192.0400  176.3770  146.0740 O   0  0  0  0  0  0  0  0  0  0  0  0
  191.1140  177.1680  148.0110 O   0  0  0  0  0  1  0  0  0  0  0  0
  1  5  1  0  0  0  0
  2 15  1  0  0  0  0
  3 15  2  0  0  0  0
  3  9  1  0  0  0  0
  4 21  1  0  0  0  0
  5  4  1  0  0  0  0
  7  6  2  0  0  0  0
  8  6  1  0  0  0  0
  8  4  2  0  0  0  0
  9 11  2  0  0  0  0
  9 10  1  0  0  0  0
 10  1  2  0  0  0  0
 10  8  1  0  0  0  0
 11  7  1  0  0  0  0
 12  2  1  0  0  0  0
 12 13  1  0  0  0  0
 13 18  1  1  0  0  0
 13 14  1  0  0  0  0
 14 16  1  0  0  0  0
 15 17  1  0  0  0  0
 17 16  1  0  0  0  0
 17  1  1  0  0  0  0
 18 19  1  0  0  0  0
 20 19  1  0  0  0  0
 23 30  1  0  0  0  0
 23 28  1  0  0  0  0
 24 25  1  0  0  0  0
 24 32  1  0  0  0  0
 26 22  1  0  0  0  0
 26 25  2  0  0  0  0
 27 28  2  0  0  0  0
 27 29  1  0  0  0  0
 28 26  1  0  0  0  0
 29 24  2  0  0  0  0
 30 21  1  6  0  0  0
 30 31  1  0  0  0  0
 31 22  2  0  0  0  0
 32 34  1  0  0  0  0
 33 32  2  0  0  0  0
M  END
>  <MODEL>
6

>  <REMARK>
 VINA RESULT:      -9.6      1.052      1.468
  Name = 
  5 active torsions:
  status: ('A' for Active; 'I' for Inactive)
    1  A    between atoms: C_3  and  N_13
    2  A    between atoms: C_3  and  C_25
    3  A    between atoms: C_7  and  C_11
    4  A    between atoms: C_8  and  C_18
    5  A    between atoms: C_18  and  C_30
                            x       y       z     vdW  Elec       q    Type
                         _______ _______ _______ _____ _____    ______ ____

>  <TORSDO>
F 5

$$$$
=
 OpenBabel11052415523D

 34 39  0  0  1  0  0  0  0  0999 V2000
  185.7330  177.9150  138.3270 C   0  0  0  0  0  0  0  0  0  0  0  0
  182.1410  177.9860  137.1990 C   0  0  0  0  0  2  0  0  0  0  0  0
  184.1420  176.7530  136.3920 C   0  0  0  0  0  3  0  0  0  0  0  0
  187.8700  177.8670  138.5540 C   0  0  0  0  0  0  0  0  0  0  0  0
  186.7400  178.4680  139.0390 N   0  0  0  0  0  2  0  0  0  0  0  0
  188.4410  176.1960  136.5540 C   0  0  0  0  0  3  0  0  0  0  0  0
  187.5810  175.4930  135.4940 C   0  0  0  0  0  3  0  0  0  0  0  0
  187.5840  176.9600  137.5290 C   0  0  0  0  0  0  0  0  0  0  0  0
  185.5070  176.4290  136.4120 C   0  0  0  0  0  0  0  0  0  0  0  0
  186.2480  176.9930  137.4010 C   0  0  0  0  0  0  0  0  0  0  0  0
  186.2320  175.6070  135.4210 C   0  0  0  0  0  3  0  0  0  0  0  0
  181.5050  178.2360  138.4830 N   0  0  0  0  0  2  0  0  0  0  0  0
  181.5350  179.6760  138.7400 C   0  0  2  0  0  3  0  0  0  0  0  0
  182.9680  180.2240  138.7830 C   0  0  0  0  0  2  0  0  0  0  0  0
  183.5980  177.6460  137.3640 C   0  0  0  0  0  0  0  0  0  0  0  0
  183.9420  179.1950  139.3420 C   0  0  0  0  0  2  0  0  0  0  0  0
  184.4180  178.2650  138.3110 N   0  0  0  0  0  0  0  0  0  0  0  0
  180.8190  179.9640  140.0510 C   0  0  0  0  0  2  0  0  0  0  0  0
  180.6520  178.7380  140.8170 N   0  0  0  0  0  2  0  0  0  0  0  0
  181.2860  178.9510  142.1070 C   0  0  0  0  0  1  0  0  0  0  0  0
  189.2450  178.2490  138.9910 C   0  0  0  0  0  2  0  0  0  0  0  0
  191.6210  177.4130  141.7300 C   0  0  0  0  0  3  0  0  0  0  0  0
  188.8970  178.3130  141.4650 C   0  0  0  0  0  2  0  0  0  0  0  0
  190.4320  177.0930  145.3000 C   0  0  0  0  0  0  0  0  0  0  0  0
  191.2600  177.0710  144.1690 C   0  0  0  0  0  3  0  0  0  0  0  0
  190.7540  177.4340  142.9190 C   0  0  0  0  0  0  0  0  0  0  0  0
  188.5860  177.8670  143.9200 C   0  0  0  0  0  3  0  0  0  0  0  0
  189.4090  177.8300  142.7920 C   0  0  0  0  0  0  0  0  0  0  0  0
  189.0930  177.4920  145.1670 C   0  0  0  0  0  3  0  0  0  0  0  0
  189.5950  177.5840  140.3130 C   0  0  2  0  0  3  0  0  0  0  0  0
  191.0910  177.5290  140.5080 C   0  0  0  0  0  3  0  0  0  0  0  0
  190.9680  176.7020  146.6140 C   0  0  0  0  0  0  0  0  0  0  0  0
  190.2450  176.7650  147.6440 O   0  0  0  0  0  1  0  0  0  0  0  0
  192.2800  176.2590  146.7310 O   0  0  0  0  0  0  0  0  0  0  0  0
  1  5  1  0  0  0  0
  2 15  1  0  0  0  0
  2 12  1  0  0  0  0
  3  9  1  0  0  0  0
  3 15  2  0  0  0  0
  4 21  1  0  0  0  0
  4  5  1  0  0  0  0
  6  8  1  0  0  0  0
  7  6  2  0  0  0  0
  8  4  2  0  0  0  0
  9 10  1  0  0  0  0
 10  8  1  0  0  0  0
 10  1  2  0  0  0  0
 11  7  1  0  0  0  0
 11  9  2  0  0  0  0
 12 13  1  0  0  0  0
 13 14  1  0  0  0  0
 13 18  1  1  0  0  0
 14 16  1  0  0  0  0
 15 17  1  0  0  0  0
 17  1  1  0  0  0  0
 17 16  1  0  0  0  0
 18 19  1  0  0  0  0
 19 20  1  0  0  0  0
 22 26  1  0  0  0  0
 23 28  1  0  0  0  0
 24 32  1  0  0  0  0
 25 24  2  0  0  0  0
 26 25  1  0  0  0  0
 27 29  2  0  0  0  0
 28 26  2  0  0  0  0
 28 27  1  0  0  0  0
 29 24  1  0  0  0  0
 30 21  1  6  0  0  0
 30 31  1  0  0  0  0
 30 23  1  0  0  0  0
 31 22  2  0  0  0  0
 32 34  2  0  0  0  0
 32 33  1  0  0  0  0
M  END
>  <MODEL>
7

>  <REMARK>
 VINA RESULT:      -9.2      2.319      5.922
  Name = 
  5 active torsions:
  status: ('A' for Active; 'I' for Inactive)
    1  A    between atoms: C_3  and  N_13
    2  A    between atoms: C_3  and  C_25
    3  A    between atoms: C_7  and  C_11
    4  A    between atoms: C_8  and  C_18
    5  A    between atoms: C_18  and  C_30
                            x       y       z     vdW  Elec       q    Type
                         _______ _______ _______ _____ _____    ______ ____

>  <TORSDO>
F 5

$$$$
=
 OpenBabel11052415523D

 34 39  0  0  1  0  0  0  0  0999 V2000
  192.3050  175.2550  137.6400 C   0  0  0  0  0  0  0  0  0  0  0  0
  194.5410  172.4640  136.4630 C   0  0  0  0  0  2  0  0  0  0  0  0
  192.1250  172.9440  136.1390 C   0  0  0  0  0  3  0  0  0  0  0  0
  190.7430  176.5380  138.3720 C   0  0  0  0  0  0  0  0  0  0  0  0
  192.0890  176.3030  138.4650 N   0  0  0  0  0  2  0  0  0  0  0  0
  188.6660  175.3310  137.2130 C   0  0  0  0  0  3  0  0  0  0  0  0
  188.5340  174.0790  136.3340 C   0  0  0  0  0  3  0  0  0  0  0  0
  190.1100  175.6330  137.5160 C   0  0  0  0  0  0  0  0  0  0  0  0
  190.9570  173.6930  136.3470 C   0  0  0  0  0  0  0  0  0  0  0  0
  191.0950  174.8420  137.0600 C   0  0  0  0  0  0  0  0  0  0  0  0
  189.5860  173.3180  135.9430 C   0  0  0  0  0  3  0  0  0  0  0  0
  195.7880  173.2050  136.3470 N   0  0  0  0  0  2  0  0  0  0  0  0
  196.4170  173.2590  137.6660 C   0  0  2  0  0  3  0  0  0  0  0  0
  195.5230  173.9540  138.7030 C   0  0  0  0  0  2  0  0  0  0  0  0
  193.3720  173.3850  136.6780 C   0  0  0  0  0  0  0  0  0  0  0  0
  194.6830  175.0530  138.0670 C   0  0  0  0  0  2  0  0  0  0  0  0
  193.4450  174.5310  137.4750 N   0  0  0  0  0  0  0  0  0  0  0  0
  197.7530  173.9780  137.5520 C   0  0  0  0  0  2  0  0  0  0  0  0
  197.7810  175.1370  138.4320 N   0  0  0  0  0  2  0  0  0  0  0  0
  198.9990  175.0460  139.2190 C   0  0  0  0  0  1  0  0  0  0  0  0
  190.0380  177.5600  139.2000 C   0  0  0  0  0  2  0  0  0  0  0  0
  191.3070  177.6530  142.6960 C   0  0  0  0  0  3  0  0  0  0  0  0
  188.7660  177.7440  141.3430 C   0  0  0  0  0  2  0  0  0  0  0  0
  188.9470  177.3340  145.6270 C   0  0  0  0  0  0  0  0  0  0  0  0
  190.1270  177.4400  144.8780 C   0  0  0  0  0  3  0  0  0  0  0  0
  190.0700  177.5390  143.4850 C   0  0  0  0  0  0  0  0  0  0  0  0
  187.6470  177.4480  143.5740 C   0  0  0  0  0  3  0  0  0  0  0  0
  188.8250  177.5390  142.8290 C   0  0  0  0  0  0  0  0  0  0  0  0
  187.7080  177.3380  144.9670 C   0  0  0  0  0  3  0  0  0  0  0  0
  189.9940  177.1360  140.6590 C   0  0  2  0  0  3  0  0  0  0  0  0
  191.2740  177.5110  141.3680 C   0  0  0  0  0  3  0  0  0  0  0  0
  189.0110  177.2230  147.0930 C   0  0  0  0  0  0  0  0  0  0  0  0
  187.9550  177.1860  147.7780 O   0  0  0  0  0  1  0  0  0  0  0  0
  190.2420  177.1570  147.7360 O   0  0  0  0  0  0  0  0  0  0  0  0
  1  5  1  0  0  0  0
  2 15  1  0  0  0  0
  3  9  1  0  0  0  0
  3 15  2  0  0  0  0
  4  5  1  0  0  0  0
  4 21  1  0  0  0  0
  6  8  1  0  0  0  0
  7  6  2  0  0  0  0
  8  4  2  0  0  0  0
  9 10  1  0  0  0  0
 10  8  1  0  0  0  0
 10  1  2  0  0  0  0
 11  7  1  0  0  0  0
 11  9  2  0  0  0  0
 12  2  1  0  0  0  0
 12 13  1  0  0  0  0
 13 18  1  6  0  0  0
 13 14  1  0  0  0  0
 15 17  1  0  0  0  0
 16 14  1  0  0  0  0
 17  1  1  0  0  0  0
 17 16  1  0  0  0  0
 18 19  1  0  0  0  0
 19 20  1  0  0  0  0
 22 26  1  0  0  0  0
 23 28  1  0  0  0  0
 24 32  1  0  0  0  0
 25 24  2  0  0  0  0
 26 25  1  0  0  0  0
 27 29  2  0  0  0  0
 28 26  2  0  0  0  0
 28 27  1  0  0  0  0
 29 24  1  0  0  0  0
 30 21  1  6  0  0  0
 30 23  1  0  0  0  0
 30 31  1  0  0  0  0
 31 22  2  0  0  0  0
 32 34  2  0  0  0  0
 32 33  1  0  0  0  0
M  END
>  <MODEL>
8

>  <REMARK>
 VINA RESULT:      -9.1      4.238      8.092
  Name = 
  5 active torsions:
  status: ('A' for Active; 'I' for Inactive)
    1  A    between atoms: C_3  and  N_13
    2  A    between atoms: C_3  and  C_25
    3  A    between atoms: C_7  and  C_11
    4  A    between atoms: C_8  and  C_18
    5  A    between atoms: C_18  and  C_30
                            x       y       z     vdW  Elec       q    Type
                         _______ _______ _______ _____ _____    ______ ____

>  <TORSDO>
F 5

$$$$
=
 OpenBabel11052415523D

 34 39  0  0  1  0  0  0  0  0999 V2000
  188.4370  177.9670  144.4700 C   0  0  0  0  0  0  0  0  0  0  0  0
  185.2400  178.2650  146.4370 C   0  0  0  0  0  2  0  0  0  0  0  0
  187.5800  177.7350  147.0850 C   0  0  0  0  0  3  0  0  0  0  0  0
  190.3390  177.4650  143.6020 C   0  0  0  0  0  0  0  0  0  0  0  0
  189.0630  177.8420  143.2790 N   0  0  0  0  0  0  0  0  0  0  0  0
  191.6220  176.7760  145.8370 C   0  0  0  0  0  3  0  0  0  0  0  0
  191.1950  176.6830  147.3090 C   0  0  0  0  0  3  0  0  0  0  0  0
  190.5130  177.3310  144.9820 C   0  0  0  0  0  0  0  0  0  0  0  0
  188.9340  177.4930  146.8060 C   0  0  0  0  0  0  0  0  0  0  0  0
  189.3230  177.6530  145.5130 C   0  0  2  0  0  3  0  0  0  0  0  0
  189.9550  177.0030  147.7540 C   0  0  0  0  0  3  0  0  0  0  0  0
  184.5730  179.2780  145.6340 N   0  0  0  0  0  2  0  0  0  0  0  0
  183.9120  178.6150  144.5100 C   0  0  2  0  0  3  0  0  0  0  0  0
  184.9090  177.8560  143.6220 C   0  0  0  0  0  2  0  0  0  0  0  0
  186.6830  178.1100  146.0380 C   0  0  0  0  0  0  0  0  0  0  0  0
  186.2610  178.5560  143.5790 C   0  0  0  0  0  2  0  0  0  0  0  0
  187.1150  178.1800  144.7120 N   0  0  0  0  0  0  0  0  0  0  0  0
  183.1580  179.6520  143.6920 C   0  0  0  0  0  2  0  0  0  0  0  0
  182.4160  179.0090  142.6190 N   0  0  0  0  0  2  0  0  0  0  0  0
  181.0260  179.4050  142.7640 C   0  0  0  0  0  1  0  0  0  0  0  0
  191.3670  177.1160  142.5780 C   0  0  0  0  0  2  0  0  0  0  0  0
  191.3180  176.7570  138.8750 C   0  0  0  0  0  3  0  0  0  0  0  0
  189.4290  177.2070  141.0020 C   0  0  0  0  0  2  0  0  0  0  0  0
  188.2130  177.5710  136.8860 C   0  0  0  0  0  0  0  0  0  0  0  0
  189.5310  177.2160  137.2040 C   0  0  0  0  0  3  0  0  0  0  0  0
  189.9360  177.1310  138.5380 C   0  0  0  0  0  0  0  0  0  0  0  0
  187.6980  177.7350  139.2570 C   0  0  0  0  0  3  0  0  0  0  0  0
  189.0160  177.3960  139.5710 C   0  0  0  0  0  0  0  0  0  0  0  0
  187.3000  177.8310  137.9210 C   0  0  0  0  0  3  0  0  0  0  0  0
  190.9120  177.5400  141.1900 C   0  0  2  0  0  3  0  0  0  0  0  0
  191.7700  176.9020  140.1240 C   0  0  0  0  0  3  0  0  0  0  0  0
  187.7930  177.6670  135.4790 C   0  0  0  0  0  0  0  0  0  0  0  0
  188.3240  176.9350  134.6020 O   0  0  0  0  0  0  0  0  0  0  0  0
  186.8050  178.5700  135.1040 O   0  0  0  0  0  1  0  0  0  0  0  0
  1 17  1  0  0  0  0
  4  8  2  0  0  0  0
  5  4  1  0  0  0  0
  5  1  2  0  0  0  0
  6  7  2  0  0  0  0
  7 11  1  0  0  0  0
  8 10  1  0  0  0  0
  8  6  1  0  0  0  0
  9  3  1  0  0  0  0
  9 11  2  0  0  0  0
 10  1  1  6  0  0  0
 10  9  1  0  0  0  0
 12  2  1  0  0  0  0
 13 18  1  6  0  0  0
 13 12  1  0  0  0  0
 14 13  1  0  0  0  0
 15  2  1  0  0  0  0
 15  3  2  0  0  0  0
 16 14  1  0  0  0  0
 16 17  1  0  0  0  0
 17 15  1  0  0  0  0
 19 20  1  0  0  0  0
 19 18  1  0  0  0  0
 21  4  1  0  0  0  0
 22 31  2  0  0  0  0
 23 30  1  0  0  0  0
 24 25  2  0  0  0  0
 24 29  1  0  0  0  0
 25 26  1  0  0  0  0
 26 22  1  0  0  0  0
 26 28  2  0  0  0  0
 27 28  1  0  0  0  0
 28 23  1  0  0  0  0
 29 27  2  0  0  0  0
 30 21  1  1  0  0  0
 31 30  1  0  0  0  0
 32 24  1  0  0  0  0
 33 32  2  0  0  0  0
 34 32  1  0  0  0  0
M  END
>  <MODEL>
9

>  <REMARK>
 VINA RESULT:      -9.0      3.945      8.668
  Name = 
  5 active torsions:
  status: ('A' for Active; 'I' for Inactive)
    1  A    between atoms: C_3  and  N_13
    2  A    between atoms: C_3  and  C_25
    3  A    between atoms: C_7  and  C_11
    4  A    between atoms: C_8  and  C_18
    5  A    between atoms: C_18  and  C_30
                            x       y       z     vdW  Elec       q    Type
                         _______ _______ _______ _____ _____    ______ ____

>  <TORSDO>
F 5

$$$$
