=
 OpenBabel11052415503D

 34 39  0  0  1  0  0  0  0  0999 V2000
  181.9940  177.8650  140.2260 C   0  0  2  0  0  3  0  0  0  0  0  0
  180.0490  174.7560  139.2180 C   0  0  0  0  0  3  0  0  0  0  0  0
  179.2930  176.5520  140.6500 C   0  0  0  0  0  2  0  0  0  0  0  0
  184.0640  178.9880  141.0430 C   0  0  0  0  0  2  0  0  0  0  0  0
  183.4580  177.6590  140.6040 C   0  0  0  0  0  2  0  0  0  0  0  0
  181.3760  179.2290  142.2500 C   0  0  1  0  0  3  0  0  0  0  0  0
  179.8560  179.5380  143.1970 S   0  0  0  0  0  0  0  0  0  0  0  0
  182.5470  179.0120  143.1940 C   0  0  0  0  0  2  0  0  0  0  0  0
  183.9160  179.2850  142.5470 C   0  0  1  0  0  3  0  0  0  0  0  0
  179.6780  177.9440  141.1360 C   0  0  2  0  0  3  0  0  0  0  0  0
  181.1390  177.9550  141.4890 C   0  0  1  0  0  3  0  0  0  0  0  0
  178.9310  178.2930  142.3300 N   0  0  0  0  0  2  0  0  0  0  0  0
  180.9880  174.0030  138.3400 C   0  0  0  0  0  2  0  0  0  0  0  0
  181.1480  174.6750  137.0150 C   0  0  0  0  0  0  0  0  0  0  0  0
  181.6900  175.8940  136.9250 C   0  0  0  0  0  3  0  0  0  0  0  0
  180.2790  175.9970  139.6520 C   0  0  0  0  0  0  0  0  0  0  0  0
  182.0560  176.7620  138.0630 C   0  0  0  0  0  3  0  0  0  0  0  0
  181.5040  176.7840  139.2870 C   0  0  0  0  0  0  0  0  0  0  0  0
  187.1530  177.5180  143.4910 C   0  0  0  0  0  3  0  0  0  0  0  0
  184.9170  178.6490  144.7450 C   0  0  0  0  0  3  0  0  0  0  0  0
  188.2980  177.5960  146.9810 N   0  0  0  0  0  0  0  0  0  0  0  0
  189.5910  177.6010  147.6080 C   0  0  0  0  0  0  0  0  0  0  0  0
  188.1100  176.8630  145.7210 C   0  0  0  0  0  2  0  0  0  0  0  0
  189.7800  178.2550  148.6680 O   0  0  0  0  0  0  0  0  0  0  0  0
  187.0520  177.5090  144.8840 C   0  0  0  0  0  0  0  0  0  0  0  0
  190.7330  176.8390  147.0250 C   0  0  0  0  0  1  0  0  0  0  0  0
  185.8250  178.0080  146.9980 C   0  0  0  0  0  2  0  0  0  0  0  0
  185.9360  178.0760  145.5100 C   0  0  0  0  0  0  0  0  0  0  0  0
  187.1820  178.2860  147.6540 C   0  0  0  0  0  2  0  0  0  0  0  0
  185.0180  178.6710  143.3490 C   0  0  0  0  0  0  0  0  0  0  0  0
  186.1400  178.1020  142.7240 C   0  0  0  0  0  3  0  0  0  0  0  0
  180.7910  173.9380  135.7920 C   0  0  0  0  0  0  0  0  0  0  0  0
  179.5610  173.2990  135.6990 O   0  0  0  0  0  1  0  0  0  0  0  0
  181.5880  173.8860  134.8170 O   0  0  0  0  0  0  0  0  0  0  0  0
  1  5  1  1  0  0  0
  1 11  1  0  0  0  0
  2 16  2  0  0  0  0
  4  9  1  0  0  0  0
  5  4  1  0  0  0  0
  6  8  1  1  0  0  0
  6  7  1  0  0  0  0
  9  8  1  0  0  0  0
  9 30  1  1  0  0  0
 10  3  1  1  0  0  0
 10 11  1  0  0  0  0
 10 12  1  0  0  0  0
 11  6  1  0  0  0  0
 12  7  1  0  0  0  0
 13  2  1  0  0  0  0
 14 13  1  0  0  0  0
 15 14  2  0  0  0  0
 15 17  1  0  0  0  0
 16  3  1  0  0  0  0
 17 18  2  0  0  0  0
 18 16  1  0  0  0  0
 18  1  1  0  0  0  0
 19 25  1  0  0  0  0
 20 28  1  0  0  0  0
 21 22  1  0  0  0  0
 21 29  1  0  0  0  0
 22 24  2  0  0  0  0
 23 21  1  0  0  0  0
 25 28  2  0  0  0  0
 25 23  1  0  0  0  0
 26 22  1  0  0  0  0
 27 29  1  0  0  0  0
 28 27  1  0  0  0  0
 30 20  2  0  0  0  0
 31 30  1  0  0  0  0
 31 19  2  0  0  0  0
 32 14  1  0  0  0  0
 33 32  1  0  0  0  0
 34 32  2  0  0  0  0
M  END
>  <MODEL>
1

>  <REMARK>
 VINA RESULT:      -9.5      0.000      0.000
  Name = 
  2 active torsions:
  status: ('A' for Active; 'I' for Inactive)
    1  A    between atoms: C_3  and  C_25
    2  A    between atoms: C_18  and  C_30
                            x       y       z     vdW  Elec       q    Type
                         _______ _______ _______ _____ _____    ______ ____

>  <TORSDO>
F 2

$$$$
=
 OpenBabel11052415503D

 34 39  0  0  1  0  0  0  0  0999 V2000
  190.5160  176.7370  137.4060 C   0  0  2  0  0  3  0  0  0  0  0  0
  192.1960  173.4560  136.4690 C   0  0  0  0  0  3  0  0  0  0  0  0
  190.0700  174.2870  135.6730 C   0  0  0  0  0  2  0  0  0  0  0  0
  189.7830  178.4230  139.0880 C   0  0  0  0  0  2  0  0  0  0  0  0
  190.5560  177.1250  138.8800 C   0  0  0  0  0  2  0  0  0  0  0  0
  188.0460  177.1100  137.0880 C   0  0  1  0  0  3  0  0  0  0  0  0
  186.7600  176.4480  135.9890 S   0  0  0  0  0  0  0  0  0  0  0  0
  187.5190  177.2120  138.5110 C   0  0  0  0  0  2  0  0  0  0  0  0
  188.2830  178.2280  139.3770 C   0  0  1  0  0  3  0  0  0  0  0  0
  189.1850  175.5280  135.6830 C   0  0  2  0  0  3  0  0  0  0  0  0
  189.1650  176.1060  137.0700 C   0  0  1  0  0  3  0  0  0  0  0  0
  187.8210  175.1860  135.3250 N   0  0  0  0  0  2  0  0  0  0  0  0
  193.4680  173.4580  137.2460 C   0  0  0  0  0  2  0  0  0  0  0  0
  194.4430  174.4430  136.6860 C   0  0  0  0  0  0  0  0  0  0  0  0
  194.1760  175.7530  136.6930 C   0  0  0  0  0  3  0  0  0  0  0  0
  191.3840  174.5110  136.3790 C   0  0  0  0  0  0  0  0  0  0  0  0
  192.8980  176.3710  137.0990 C   0  0  0  0  0  3  0  0  0  0  0  0
  191.6700  175.8300  137.0380 C   0  0  0  0  0  0  0  0  0  0  0  0
  188.7440  177.2510  143.0270 C   0  0  0  0  0  3  0  0  0  0  0  0
  186.7520  178.2870  141.3500 C   0  0  0  0  0  3  0  0  0  0  0  0
  186.2530  178.3210  145.5080 N   0  0  0  0  0  0  0  0  0  0  0  0
  186.3170  178.6710  146.9000 C   0  0  0  0  0  0  0  0  0  0  0  0
  187.1610  177.2920  144.9800 C   0  0  0  0  0  2  0  0  0  0  0  0
  185.5720  179.5760  147.3620 O   0  0  0  0  0  0  0  0  0  0  0  0
  187.4810  177.5540  143.5430 C   0  0  0  0  0  0  0  0  0  0  0  0
  187.2590  177.9780  147.8260 C   0  0  0  0  0  1  0  0  0  0  0  0
  185.1300  178.3400  143.2660 C   0  0  0  0  0  2  0  0  0  0  0  0
  186.4870  178.0730  142.7050 C   0  0  0  0  0  0  0  0  0  0  0  0
  185.2360  178.9690  144.6600 C   0  0  0  0  0  2  0  0  0  0  0  0
  188.0190  177.9960  140.8300 C   0  0  0  0  0  0  0  0  0  0  0  0
  189.0140  177.4760  141.6740 C   0  0  0  0  0  3  0  0  0  0  0  0
  195.7510  173.9630  136.2130 C   0  0  0  0  0  0  0  0  0  0  0  0
  196.8750  174.7720  136.3320 O   0  0  0  0  0  1  0  0  0  0  0  0
  195.8690  172.8150  135.7060 O   0  0  0  0  0  0  0  0  0  0  0  0
  1  5  1  1  0  0  0
  2 13  1  0  0  0  0
  3 16  1  0  0  0  0
  4  9  1  0  0  0  0
  5  4  1  0  0  0  0
  6  8  1  1  0  0  0
  7  6  1  0  0  0  0
  8  9  1  0  0  0  0
  9 30  1  1  0  0  0
 10  3  1  1  0  0  0
 10 11  1  0  0  0  0
 11  6  1  0  0  0  0
 11  1  1  0  0  0  0
 12 10  1  0  0  0  0
 12  7  1  0  0  0  0
 14 15  2  0  0  0  0
 14 13  1  0  0  0  0
 15 17  1  0  0  0  0
 16  2  2  0  0  0  0
 16 18  1  0  0  0  0
 18 17  2  0  0  0  0
 18  1  1  0  0  0  0
 19 25  1  0  0  0  0
 20 28  1  0  0  0  0
 21 22  1  0  0  0  0
 22 24  2  0  0  0  0
 22 26  1  0  0  0  0
 23 21  1  0  0  0  0
 25 23  1  0  0  0  0
 27 29  1  0  0  0  0
 28 27  1  0  0  0  0
 28 25  2  0  0  0  0
 29 21  1  0  0  0  0
 30 20  2  0  0  0  0
 30 31  1  0  0  0  0
 31 19  2  0  0  0  0
 32 33  1  0  0  0  0
 32 14  1  0  0  0  0
 34 32  2  0  0  0  0
M  END
>  <MODEL>
2

>  <REMARK>
 VINA RESULT:      -8.7      7.322      9.099
  Name = 
  2 active torsions:
  status: ('A' for Active; 'I' for Inactive)
    1  A    between atoms: C_3  and  C_25
    2  A    between atoms: C_18  and  C_30
                            x       y       z     vdW  Elec       q    Type
                         _______ _______ _______ _____ _____    ______ ____

>  <TORSDO>
F 2

$$$$
=
 OpenBabel11052415503D

 34 39  0  0  1  0  0  0  0  0999 V2000
  179.6340  180.1320  139.5620 C   0  0  2  0  0  3  0  0  0  0  0  0
  180.6030  181.6220  136.2000 C   0  0  0  0  0  3  0  0  0  0  0  0
  179.9230  179.3450  136.6470 C   0  0  0  0  0  2  0  0  0  0  0  0
  180.0200  179.7820  142.0000 C   0  0  0  0  0  2  0  0  0  0  0  0
  180.5050  180.5160  140.7530 C   0  0  0  0  0  2  0  0  0  0  0  0
  179.6700  177.6500  139.9820 C   0  0  1  0  0  3  0  0  0  0  0  0
  179.5090  176.1540  138.9630 S   0  0  0  0  0  0  0  0  0  0  0  0
  180.7950  177.4790  140.9910 C   0  0  0  0  0  2  0  0  0  0  0  0
  180.6680  178.4030  142.2140 C   0  0  1  0  0  3  0  0  0  0  0  0
  179.3460  178.4570  137.7430 C   0  0  2  0  0  3  0  0  0  0  0  0
  180.0460  178.7570  139.0380 C   0  0  1  0  0  3  0  0  0  0  0  0
  179.5660  177.0560  137.4330 N   0  0  0  0  0  2  0  0  0  0  0  0
  180.9300  183.0430  136.5070 C   0  0  0  0  0  2  0  0  0  0  0  0
  179.6970  183.8280  136.8170 C   0  0  0  0  0  0  0  0  0  0  0  0
  178.9480  183.5360  137.8860 C   0  0  0  0  0  3  0  0  0  0  0  0
  180.0500  180.7850  137.0800 C   0  0  0  0  0  0  0  0  0  0  0  0
  179.1370  182.3780  138.7820 C   0  0  0  0  0  3  0  0  0  0  0  0
  179.6770  181.1860  138.4780 C   0  0  0  0  0  0  0  0  0  0  0  0
  183.2350  178.7470  145.0050 C   0  0  0  0  0  3  0  0  0  0  0  0
  183.1650  178.4810  142.2170 C   0  0  0  0  0  3  0  0  0  0  0  0
  186.7700  178.0370  144.3010 N   0  0  0  0  0  0  0  0  0  0  0  0
  187.8560  177.5040  145.0780 C   0  0  0  0  0  0  0  0  0  0  0  0
  185.7460  178.8580  144.9610 C   0  0  0  0  0  2  0  0  0  0  0  0
  188.7220  176.7670  144.5360 O   0  0  0  0  0  0  0  0  0  0  0  0
  184.4250  178.7130  144.2750 C   0  0  0  0  0  0  0  0  0  0  0  0
  187.9830  177.8070  146.5320 C   0  0  0  0  0  1  0  0  0  0  0  0
  185.6720  178.5960  142.1170 C   0  0  0  0  0  2  0  0  0  0  0  0
  184.3900  178.5780  142.8820 C   0  0  0  0  0  0  0  0  0  0  0  0
  186.7480  177.7850  142.8480 C   0  0  0  0  0  2  0  0  0  0  0  0
  181.9700  178.5040  142.9440 C   0  0  0  0  0  0  0  0  0  0  0  0
  182.0090  178.6380  144.3420 C   0  0  0  0  0  3  0  0  0  0  0  0
  179.3650  184.9950  135.9850 C   0  0  0  0  0  0  0  0  0  0  0  0
  179.4680  184.9150  134.6010 O   0  0  0  0  0  0  0  0  0  0  0  0
  178.9770  186.0720  136.5120 O   0  0  0  0  0  1  0  0  0  0  0  0
  1  5  1  1  0  0  0
  2 13  1  0  0  0  0
  2 16  2  0  0  0  0
  3 16  1  0  0  0  0
  4  9  1  0  0  0  0
  5  4  1  0  0  0  0
  6  8  1  1  0  0  0
  7  6  1  0  0  0  0
  8  9  1  0  0  0  0
  9 30  1  6  0  0  0
 10  3  1  6  0  0  0
 10 11  1  0  0  0  0
 11  1  1  0  0  0  0
 11  6  1  0  0  0  0
 12 10  1  0  0  0  0
 12  7  1  0  0  0  0
 13 14  1  0  0  0  0
 14 15  2  0  0  0  0
 15 17  1  0  0  0  0
 16 18  1  0  0  0  0
 18 17  2  0  0  0  0
 18  1  1  0  0  0  0
 20 28  2  0  0  0  0
 20 30  1  0  0  0  0
 21 23  1  0  0  0  0
 21 22  1  0  0  0  0
 22 26  1  0  0  0  0
 24 22  2  0  0  0  0
 25 23  1  0  0  0  0
 25 19  2  0  0  0  0
 27 29  1  0  0  0  0
 27 28  1  0  0  0  0
 28 25  1  0  0  0  0
 29 21  1  0  0  0  0
 30 31  2  0  0  0  0
 31 19  1  0  0  0  0
 32 34  1  0  0  0  0
 32 14  1  0  0  0  0
 33 32  2  0  0  0  0
M  END
>  <MODEL>
3

>  <REMARK>
 VINA RESULT:      -8.3      4.643      5.858
  Name = 
  2 active torsions:
  status: ('A' for Active; 'I' for Inactive)
    1  A    between atoms: C_3  and  C_25
    2  A    between atoms: C_18  and  C_30
                            x       y       z     vdW  Elec       q    Type
                         _______ _______ _______ _____ _____    ______ ____

>  <TORSDO>
F 2

$$$$
=
 OpenBabel11052415503D

 34 39  0  0  1  0  0  0  0  0999 V2000
  188.5230  178.0900  140.9710 C   0  0  2  0  0  3  0  0  0  0  0  0
  187.6990  177.1810  144.5700 C   0  0  0  0  0  3  0  0  0  0  0  0
  189.8950  177.4910  143.6090 C   0  0  0  0  0  2  0  0  0  0  0  0
  188.2260  177.8020  138.5130 C   0  0  0  0  0  2  0  0  0  0  0  0
  187.7240  177.3720  139.8880 C   0  0  0  0  0  2  0  0  0  0  0  0
  190.7940  177.6590  139.9710 C   0  0  1  0  0  3  0  0  0  0  0  0
  192.4880  177.5020  140.6090 S   0  0  0  0  0  0  0  0  0  0  0  0
  190.5230  176.5870  138.9290 C   0  0  0  0  0  2  0  0  0  0  0  0
  189.3800  176.9440  137.9630 C   0  0  1  0  0  3  0  0  0  0  0  0
  190.5960  177.9760  142.3450 C   0  0  2  0  0  3  0  0  0  0  0  0
  189.8850  177.4190  141.1440 C   0  0  1  0  0  3  0  0  0  0  0  0
  191.9670  177.5030  142.3080 N   0  0  0  0  0  2  0  0  0  0  0  0
  186.2100  177.1190  144.6040 C   0  0  0  0  0  2  0  0  0  0  0  0
  185.6100  178.4840  144.5140 C   0  0  0  0  0  0  0  0  0  0  0  0
  185.7770  179.2380  143.4230 C   0  0  0  0  0  3  0  0  0  0  0  0
  188.3960  177.6370  143.5280 C   0  0  0  0  0  0  0  0  0  0  0  0
  186.6440  178.9110  142.2730 C   0  0  0  0  0  3  0  0  0  0  0  0
  187.7570  178.1590  142.2740 C   0  0  0  0  0  0  0  0  0  0  0  0
  189.1630  173.4220  136.5340 C   0  0  0  0  0  3  0  0  0  0  0  0
  187.6460  175.7770  136.5950 C   0  0  0  0  0  3  0  0  0  0  0  0
  185.9490  172.1940  135.2450 N   0  0  0  0  0  0  0  0  0  0  0  0
  185.3250  170.9010  135.1880 C   0  0  0  0  0  0  0  0  0  0  0  0
  187.4110  172.2940  135.1280 C   0  0  0  0  0  2  0  0  0  0  0  0
  184.0770  170.7920  135.3240 O   0  0  0  0  0  0  0  0  0  0  0  0
  187.9250  173.4740  135.8900 C   0  0  0  0  0  0  0  0  0  0  0  0
  186.1300  169.6650  134.9690 C   0  0  0  0  0  1  0  0  0  0  0  0
  185.8690  174.6990  135.1840 C   0  0  0  0  0  2  0  0  0  0  0  0
  187.1660  174.6500  135.9230 C   0  0  0  0  0  0  0  0  0  0  0  0
  185.0940  173.3890  135.3650 C   0  0  0  0  0  2  0  0  0  0  0  0
  188.8810  175.7270  137.2520 C   0  0  0  0  0  0  0  0  0  0  0  0
  189.6390  174.5450  137.2180 C   0  0  0  0  0  3  0  0  0  0  0  0
  184.7450  178.9570  145.6070 C   0  0  0  0  0  0  0  0  0  0  0  0
  185.3060  179.3690  146.8110 O   0  0  0  0  0  1  0  0  0  0  0  0
  183.4940  179.0030  145.4630 O   0  0  0  0  0  0  0  0  0  0  0  0
  1  5  1  6  0  0  0
  1 11  1  0  0  0  0
  1 18  1  0  0  0  0
  2 13  1  0  0  0  0
  4  5  1  0  0  0  0
  6  8  1  6  0  0  0
  6  7  1  0  0  0  0
  6 11  1  0  0  0  0
  7 12  1  0  0  0  0
  9 30  1  1  0  0  0
  9  4  1  0  0  0  0
  9  8  1  0  0  0  0
 10  3  1  1  0  0  0
 11 10  1  0  0  0  0
 12 10  1  0  0  0  0
 14 13  1  0  0  0  0
 14 32  1  0  0  0  0
 15 14  2  0  0  0  0
 16  3  1  0  0  0  0
 16  2  2  0  0  0  0
 17 18  2  0  0  0  0
 17 15  1  0  0  0  0
 18 16  1  0  0  0  0
 19 31  1  0  0  0  0
 20 30  1  0  0  0  0
 21 29  1  0  0  0  0
 22 21  1  0  0  0  0
 22 24  2  0  0  0  0
 23 21  1  0  0  0  0
 23 25  1  0  0  0  0
 25 28  1  0  0  0  0
 25 19  2  0  0  0  0
 26 22  1  0  0  0  0
 27 29  1  0  0  0  0
 27 28  1  0  0  0  0
 28 20  2  0  0  0  0
 31 30  2  0  0  0  0
 32 33  1  0  0  0  0
 34 32  2  0  0  0  0
M  END
>  <MODEL>
4

>  <REMARK>
 VINA RESULT:      -8.2      5.554     10.539
  Name = 
  2 active torsions:
  status: ('A' for Active; 'I' for Inactive)
    1  A    between atoms: C_3  and  C_25
    2  A    between atoms: C_18  and  C_30
                            x       y       z     vdW  Elec       q    Type
                         _______ _______ _______ _____ _____    ______ ____

>  <TORSDO>
F 2

$$$$
=
 OpenBabel11052415503D

 34 39  0  0  1  0  0  0  0  0999 V2000
  191.6200  176.1230  137.5570 C   0  0  2  0  0  3  0  0  0  0  0  0
  193.0390  172.7450  136.5360 C   0  0  0  0  0  3  0  0  0  0  0  0
  190.8820  173.6620  135.9420 C   0  0  0  0  0  2  0  0  0  0  0  0
  191.1450  177.8770  139.2620 C   0  0  0  0  0  2  0  0  0  0  0  0
  191.8310  176.5380  139.0090 C   0  0  0  0  0  2  0  0  0  0  0  0
  189.1510  176.6100  137.4850 C   0  0  1  0  0  3  0  0  0  0  0  0
  187.7280  175.9890  136.5410 S   0  0  0  0  0  0  0  0  0  0  0  0
  188.7790  176.7670  138.9510 C   0  0  0  0  0  2  0  0  0  0  0  0
  189.6760  177.7620  139.7080 C   0  0  1  0  0  3  0  0  0  0  0  0
  190.0620  174.9460  136.0120 C   0  0  2  0  0  3  0  0  0  0  0  0
  190.2130  175.5530  137.3780 C   0  0  1  0  0  3  0  0  0  0  0  0
  188.6540  174.6630  135.8040 N   0  0  0  0  0  2  0  0  0  0  0  0
  194.3830  172.7010  137.1780 C   0  0  0  0  0  2  0  0  0  0  0  0
  195.3390  173.6250  136.4970 C   0  0  0  0  0  0  0  0  0  0  0  0
  195.1360  174.9460  136.4970 C   0  0  0  0  0  3  0  0  0  0  0  0
  192.2720  173.8360  136.5030 C   0  0  0  0  0  0  0  0  0  0  0  0
  193.9370  175.6350  137.0160 C   0  0  0  0  0  3  0  0  0  0  0  0
  192.6860  175.1530  137.0950 C   0  0  0  0  0  0  0  0  0  0  0  0
  190.5590  177.3110  143.3840 C   0  0  0  0  0  3  0  0  0  0  0  0
  188.2820  177.4450  141.7570 C   0  0  0  0  0  3  0  0  0  0  0  0
  187.9260  177.6450  145.9250 N   0  0  0  0  0  0  0  0  0  0  0  0
  187.9040  178.1090  147.2840 C   0  0  0  0  0  0  0  0  0  0  0  0
  189.1220  176.9580  145.4160 C   0  0  0  0  0  2  0  0  0  0  0  0
  186.9020  178.7320  147.7260 O   0  0  0  0  0  0  0  0  0  0  0  0
  189.2870  177.1960  143.9490 C   0  0  0  0  0  0  0  0  0  0  0  0
  189.0560  177.8670  148.2000 C   0  0  0  0  0  1  0  0  0  0  0  0
  186.8020  177.0860  143.7540 C   0  0  0  0  0  2  0  0  0  0  0  0
  188.1490  177.2650  143.1360 C   0  0  0  0  0  0  0  0  0  0  0  0
  186.7210  177.8260  145.0940 C   0  0  0  0  0  2  0  0  0  0  0  0
  189.5540  177.5730  141.1860 C   0  0  0  0  0  0  0  0  0  0  0  0
  190.6930  177.5040  142.0060 C   0  0  0  0  0  3  0  0  0  0  0  0
  196.5670  173.0710  135.9040 C   0  0  0  0  0  0  0  0  0  0  0  0
  197.8110  173.5190  136.3320 O   0  0  0  0  0  1  0  0  0  0  0  0
  196.5070  172.1830  135.0120 O   0  0  0  0  0  0  0  0  0  0  0  0
  1  5  1  1  0  0  0
  2 13  1  0  0  0  0
  3 16  1  0  0  0  0
  4  9  1  0  0  0  0
  5  4  1  0  0  0  0
  6  8  1  1  0  0  0
  7  6  1  0  0  0  0
  8  9  1  0  0  0  0
  9 30  1  1  0  0  0
 10  3  1  1  0  0  0
 10 11  1  0  0  0  0
 11  6  1  0  0  0  0
 11  1  1  0  0  0  0
 12 10  1  0  0  0  0
 12  7  1  0  0  0  0
 14 13  1  0  0  0  0
 15 14  2  0  0  0  0
 15 17  1  0  0  0  0
 16  2  2  0  0  0  0
 16 18  1  0  0  0  0
 17 18  2  0  0  0  0
 18  1  1  0  0  0  0
 19 25  1  0  0  0  0
 20 28  1  0  0  0  0
 21 22  1  0  0  0  0
 22 24  2  0  0  0  0
 22 26  1  0  0  0  0
 23 21  1  0  0  0  0
 25 23  1  0  0  0  0
 27 29  1  0  0  0  0
 28 27  1  0  0  0  0
 28 25  2  0  0  0  0
 29 21  1  0  0  0  0
 30 20  2  0  0  0  0
 30 31  1  0  0  0  0
 31 19  2  0  0  0  0
 32 33  1  0  0  0  0
 32 14  1  0  0  0  0
 34 32  2  0  0  0  0
M  END
>  <MODEL>
5

>  <REMARK>
 VINA RESULT:      -8.2      7.852      9.758
  Name = 
  2 active torsions:
  status: ('A' for Active; 'I' for Inactive)
    1  A    between atoms: C_3  and  C_25
    2  A    between atoms: C_18  and  C_30
                            x       y       z     vdW  Elec       q    Type
                         _______ _______ _______ _____ _____    ______ ____

>  <TORSDO>
F 2

$$$$
=
 OpenBabel11052415503D

 34 39  0  0  1  0  0  0  0  0999 V2000
  186.1290  178.6250  140.5080 C   0  0  2  0  0  3  0  0  0  0  0  0
  187.6840  177.2120  143.6780 C   0  0  0  0  0  3  0  0  0  0  0  0
  188.8330  177.8650  141.6540 C   0  0  0  0  0  2  0  0  0  0  0  0
  184.3970  178.6010  138.7160 C   0  0  0  0  0  2  0  0  0  0  0  0
  184.8440  177.9590  140.0260 C   0  0  0  0  0  2  0  0  0  0  0  0
  187.3220  178.5590  138.2920 C   0  0  1  0  0  3  0  0  0  0  0  0
  189.0550  178.5070  137.7470 S   0  0  0  0  0  0  0  0  0  0  0  0
  186.4840  177.5950  137.4680 C   0  0  0  0  0  2  0  0  0  0  0  0
  184.9850  177.9410  137.4550 C   0  0  1  0  0  3  0  0  0  0  0  0
  188.6110  178.5690  140.3200 C   0  0  2  0  0  3  0  0  0  0  0  0
  187.3210  178.0860  139.7180 C   0  0  1  0  0  3  0  0  0  0  0  0
  189.6800  178.2510  139.3910 N   0  0  0  0  0  2  0  0  0  0  0  0
  186.5260  176.9890  144.5900 C   0  0  0  0  0  2  0  0  0  0  0  0
  185.9800  178.2840  145.0970 C   0  0  0  0  0  0  0  0  0  0  0  0
  185.4370  179.1750  144.2620 C   0  0  0  0  0  3  0  0  0  0  0  0
  187.5950  177.8600  142.5150 C   0  0  0  0  0  0  0  0  0  0  0  0
  185.4260  179.0810  142.7880 C   0  0  0  0  0  3  0  0  0  0  0  0
  186.3170  178.4560  142.0000 C   0  0  0  0  0  0  0  0  0  0  0  0
  184.0030  174.5310  136.0780 C   0  0  0  0  0  3  0  0  0  0  0  0
  182.7730  176.8480  137.0630 C   0  0  0  0  0  3  0  0  0  0  0  0
  180.5500  173.3450  136.4930 N   0  0  0  0  0  0  0  0  0  0  0  0
  179.9530  172.0490  136.6630 C   0  0  0  0  0  0  0  0  0  0  0  0
  181.7570  173.4800  135.6640 C   0  0  0  0  0  2  0  0  0  0  0  0
  178.9410  171.9090  137.4000 O   0  0  0  0  0  0  0  0  0  0  0  0
  182.6100  174.6090  136.1490 C   0  0  0  0  0  0  0  0  0  0  0  0
  180.5130  170.8470  135.9800 C   0  0  0  0  0  1  0  0  0  0  0  0
  180.5050  175.8460  136.6620 C   0  0  0  0  0  2  0  0  0  0  0  0
  181.9960  175.7650  136.6430 C   0  0  0  0  0  0  0  0  0  0  0  0
  179.8980  174.5130  137.1120 C   0  0  0  0  0  2  0  0  0  0  0  0
  184.1700  176.7710  137.0050 C   0  0  0  0  0  0  0  0  0  0  0  0
  184.7820  175.6080  136.5090 C   0  0  0  0  0  3  0  0  0  0  0  0
  185.9560  178.5290  146.5480 C   0  0  0  0  0  0  0  0  0  0  0  0
  187.0790  178.2520  147.3200 O   0  0  0  0  0  1  0  0  0  0  0  0
  184.9280  178.9990  147.1050 O   0  0  0  0  0  0  0  0  0  0  0  0
  1  5  1  6  0  0  0
  1 18  1  0  0  0  0
  2 13  1  0  0  0  0
  3 16  1  0  0  0  0
  4  5  1  0  0  0  0
  6  8  1  6  0  0  0
  6 11  1  0  0  0  0
  7  6  1  0  0  0  0
  7 12  1  0  0  0  0
  9 30  1  1  0  0  0
  9  8  1  0  0  0  0
  9  4  1  0  0  0  0
 10  3  1  1  0  0  0
 11 10  1  0  0  0  0
 11  1  1  0  0  0  0
 12 10  1  0  0  0  0
 13 14  1  0  0  0  0
 14 32  1  0  0  0  0
 15 14  2  0  0  0  0
 16  2  2  0  0  0  0
 17 15  1  0  0  0  0
 18 16  1  0  0  0  0
 18 17  2  0  0  0  0
 19 25  2  0  0  0  0
 19 31  1  0  0  0  0
 21 22  1  0  0  0  0
 21 29  1  0  0  0  0
 22 24  2  0  0  0  0
 23 25  1  0  0  0  0
 23 21  1  0  0  0  0
 25 28  1  0  0  0  0
 26 22  1  0  0  0  0
 27 29  1  0  0  0  0
 28 27  1  0  0  0  0
 28 20  2  0  0  0  0
 30 20  1  0  0  0  0
 31 30  2  0  0  0  0
 32 34  2  0  0  0  0
 32 33  1  0  0  0  0
M  END
>  <MODEL>
6

>  <REMARK>
 VINA RESULT:      -8.0      3.601     10.213
  Name = 
  2 active torsions:
  status: ('A' for Active; 'I' for Inactive)
    1  A    between atoms: C_3  and  C_25
    2  A    between atoms: C_18  and  C_30
                            x       y       z     vdW  Elec       q    Type
                         _______ _______ _______ _____ _____    ______ ____

>  <TORSDO>
F 2

$$$$
=
 OpenBabel11052415503D

 34 39  0  0  1  0  0  0  0  0999 V2000
  190.3650  176.4500  137.1010 C   0  0  2  0  0  3  0  0  0  0  0  0
  190.7250  172.9590  135.6350 C   0  0  0  0  0  3  0  0  0  0  0  0
  188.9610  174.5520  135.1950 C   0  0  0  0  0  2  0  0  0  0  0  0
  190.3980  178.0350  139.0240 C   0  0  0  0  0  2  0  0  0  0  0  0
  190.6550  176.5950  138.5910 C   0  0  0  0  0  2  0  0  0  0  0  0
  188.1600  177.6650  137.1290 C   0  0  1  0  0  3  0  0  0  0  0  0
  186.6410  177.6280  136.1330 S   0  0  0  0  0  0  0  0  0  0  0  0
  187.8170  177.7400  138.6080 C   0  0  0  0  0  2  0  0  0  0  0  0
  188.9520  178.3130  139.4730 C   0  0  1  0  0  3  0  0  0  0  0  0
  188.5650  176.0040  135.4400 C   0  0  2  0  0  3  0  0  0  0  0  0
  188.8570  176.3580  136.8710 C   0  0  1  0  0  3  0  0  0  0  0  0
  187.1420  176.1890  135.2190 N   0  0  0  0  0  2  0  0  0  0  0  0
  191.9780  172.4300  136.2460 C   0  0  0  0  0  2  0  0  0  0  0  0
  193.1840  173.1000  135.6750 C   0  0  0  0  0  0  0  0  0  0  0  0
  193.3890  174.4100  135.8480 C   0  0  0  0  0  3  0  0  0  0  0  0
  190.3240  174.2260  135.7540 C   0  0  0  0  0  0  0  0  0  0  0  0
  192.4400  175.3570  136.4690 C   0  0  0  0  0  3  0  0  0  0  0  0
  191.1000  175.2700  136.5040 C   0  0  0  0  0  0  0  0  0  0  0  0
  189.5830  177.2190  143.0640 C   0  0  0  0  0  3  0  0  0  0  0  0
  187.4610  178.1090  141.4660 C   0  0  0  0  0  3  0  0  0  0  0  0
  187.0370  177.8890  145.6270 N   0  0  0  0  0  0  0  0  0  0  0  0
  187.0880  178.1760  147.0340 C   0  0  0  0  0  0  0  0  0  0  0  0
  188.0420  176.9930  145.0370 C   0  0  0  0  0  2  0  0  0  0  0  0
  186.2580  178.9710  147.5490 O   0  0  0  0  0  0  0  0  0  0  0  0
  188.3050  177.3560  143.6100 C   0  0  0  0  0  0  0  0  0  0  0  0
  188.1160  177.5480  147.9120 C   0  0  0  0  0  1  0  0  0  0  0  0
  185.8770  177.8920  143.4040 C   0  0  0  0  0  2  0  0  0  0  0  0
  187.2450  177.8030  142.8130 C   0  0  0  0  0  0  0  0  0  0  0  0
  185.9400  178.4620  144.8260 C   0  0  0  0  0  2  0  0  0  0  0  0
  188.7420  177.9840  140.9160 C   0  0  0  0  0  0  0  0  0  0  0  0
  189.8030  177.5360  141.7210 C   0  0  0  0  0  3  0  0  0  0  0  0
  194.2030  172.2810  134.9990 C   0  0  0  0  0  0  0  0  0  0  0  0
  195.4850  172.7830  134.8060 O   0  0  0  0  0  1  0  0  0  0  0  0
  193.9300  171.1190  134.5960 O   0  0  0  0  0  0  0  0  0  0  0  0
  1  5  1  1  0  0  0
  2 16  2  0  0  0  0
  2 13  1  0  0  0  0
  3 16  1  0  0  0  0
  4  9  1  0  0  0  0
  5  4  1  0  0  0  0
  6  8  1  1  0  0  0
  7  6  1  0  0  0  0
  8  9  1  0  0  0  0
  9 30  1  1  0  0  0
 10  3  1  1  0  0  0
 10 11  1  0  0  0  0
 11  1  1  0  0  0  0
 11  6  1  0  0  0  0
 12 10  1  0  0  0  0
 12  7  1  0  0  0  0
 14 15  2  0  0  0  0
 14 13  1  0  0  0  0
 15 17  1  0  0  0  0
 16 18  1  0  0  0  0
 17 18  2  0  0  0  0
 18  1  1  0  0  0  0
 19 25  1  0  0  0  0
 20 28  1  0  0  0  0
 21 22  1  0  0  0  0
 22 24  2  0  0  0  0
 22 26  1  0  0  0  0
 23 21  1  0  0  0  0
 25 23  1  0  0  0  0
 27 29  1  0  0  0  0
 28 27  1  0  0  0  0
 28 25  2  0  0  0  0
 29 21  1  0  0  0  0
 30 20  2  0  0  0  0
 30 31  1  0  0  0  0
 31 19  2  0  0  0  0
 32 14  1  0  0  0  0
 33 32  1  0  0  0  0
 34 32  2  0  0  0  0
M  END
>  <MODEL>
7

>  <REMARK>
 VINA RESULT:      -8.0      7.214      8.572
  Name = 
  2 active torsions:
  status: ('A' for Active; 'I' for Inactive)
    1  A    between atoms: C_3  and  C_25
    2  A    between atoms: C_18  and  C_30
                            x       y       z     vdW  Elec       q    Type
                         _______ _______ _______ _____ _____    ______ ____

>  <TORSDO>
F 2

$$$$
=
 OpenBabel11052415503D

 34 39  0  0  1  0  0  0  0  0999 V2000
  190.5340  176.0230  135.8620 C   0  0  2  0  0  3  0  0  0  0  0  0
  193.1460  173.4290  136.8180 C   0  0  0  0  0  3  0  0  0  0  0  0
  191.0920  173.0530  135.5990 C   0  0  0  0  0  2  0  0  0  0  0  0
  189.0660  177.9610  136.4090 C   0  0  0  0  0  2  0  0  0  0  0  0
  190.1680  177.0450  136.9330 C   0  0  0  0  0  2  0  0  0  0  0  0
  188.1730  175.3840  135.2690 C   0  0  1  0  0  3  0  0  0  0  0  0
  187.3530  173.9090  134.5940 S   0  0  0  0  0  0  0  0  0  0  0  0
  187.3530  175.9640  136.4100 C   0  0  0  0  0  2  0  0  0  0  0  0
  187.6380  177.4510  136.6770 C   0  0  1  0  0  3  0  0  0  0  0  0
  189.9400  173.7930  134.9280 C   0  0  2  0  0  3  0  0  0  0  0  0
  189.4870  174.9110  135.8240 C   0  0  1  0  0  3  0  0  0  0  0  0
  188.8120  172.9030  134.7230 N   0  0  0  0  0  2  0  0  0  0  0  0
  194.1850  174.2050  137.5520 C   0  0  0  0  0  2  0  0  0  0  0  0
  194.9740  175.0680  136.6210 C   0  0  0  0  0  0  0  0  0  0  0  0
  194.3900  176.0620  135.9450 C   0  0  0  0  0  3  0  0  0  0  0  0
  192.1310  173.9920  136.1610 C   0  0  0  0  0  0  0  0  0  0  0  0
  192.9410  176.3480  135.9110 C   0  0  0  0  0  3  0  0  0  0  0  0
  191.9300  175.4770  136.0690 C   0  0  0  0  0  0  0  0  0  0  0  0
  185.3710  178.6310  139.4990 C   0  0  0  0  0  3  0  0  0  0  0  0
  188.0380  177.8660  139.1080 C   0  0  0  0  0  3  0  0  0  0  0  0
  186.4990  178.2900  142.9790 N   0  0  0  0  0  0  0  0  0  0  0  0
  185.8270  178.0560  144.2280 C   0  0  0  0  0  0  0  0  0  0  0  0
  185.8230  179.0710  141.9320 C   0  0  0  0  0  2  0  0  0  0  0  0
  186.3750  177.3590  145.1220 O   0  0  0  0  0  0  0  0  0  0  0  0
  186.2640  178.6280  140.5730 C   0  0  0  0  0  0  0  0  0  0  0  0
  184.4760  178.6280  144.4950 C   0  0  0  0  0  1  0  0  0  0  0  0
  188.5450  178.2980  141.5290 C   0  0  0  0  0  2  0  0  0  0  0  0
  187.5950  178.2440  140.3780 C   0  0  0  0  0  0  0  0  0  0  0  0
  187.8730  177.7840  142.8080 C   0  0  0  0  0  2  0  0  0  0  0  0
  187.1450  177.8560  138.0300 C   0  0  0  0  0  0  0  0  0  0  0  0
  185.8090  178.2410  138.2300 C   0  0  0  0  0  3  0  0  0  0  0  0
  196.4300  174.8730  136.5280 C   0  0  0  0  0  0  0  0  0  0  0  0
  197.2770  175.9730  136.4610 O   0  0  0  0  0  0  0  0  0  0  0  0
  196.9240  173.7140  136.5180 O   0  0  0  0  0  1  0  0  0  0  0  0
  1 18  1  0  0  0  0
  1  5  1  1  0  0  0
  2 13  1  0  0  0  0
  3 16  1  0  0  0  0
  4  9  1  0  0  0  0
  4  5  1  0  0  0  0
  6 11  1  0  0  0  0
  6  8  1  1  0  0  0
  7 12  1  0  0  0  0
  7  6  1  0  0  0  0
  8  9  1  0  0  0  0
  9 30  1  1  0  0  0
 10  3  1  1  0  0  0
 10 11  1  0  0  0  0
 11  1  1  0  0  0  0
 12 10  1  0  0  0  0
 14 13  1  0  0  0  0
 15 14  2  0  0  0  0
 16  2  2  0  0  0  0
 17 15  1  0  0  0  0
 17 18  2  0  0  0  0
 18 16  1  0  0  0  0
 19 25  1  0  0  0  0
 20 28  1  0  0  0  0
 21 22  1  0  0  0  0
 22 26  1  0  0  0  0
 22 24  2  0  0  0  0
 23 21  1  0  0  0  0
 25 23  1  0  0  0  0
 27 29  1  0  0  0  0
 28 25  2  0  0  0  0
 28 27  1  0  0  0  0
 29 21  1  0  0  0  0
 30 31  1  0  0  0  0
 30 20  2  0  0  0  0
 31 19  2  0  0  0  0
 32 14  1  0  0  0  0
 33 32  2  0  0  0  0
 34 32  1  0  0  0  0
M  END
>  <MODEL>
8

>  <REMARK>
 VINA RESULT:      -7.9      8.091     10.178
  Name = 
  2 active torsions:
  status: ('A' for Active; 'I' for Inactive)
    1  A    between atoms: C_3  and  C_25
    2  A    between atoms: C_18  and  C_30
                            x       y       z     vdW  Elec       q    Type
                         _______ _______ _______ _____ _____    ______ ____

>  <TORSDO>
F 2

$$$$
=
 OpenBabel11052415503D

 34 39  0  0  1  0  0  0  0  0999 V2000
  191.5760  176.0080  137.1910 C   0  0  2  0  0  3  0  0  0  0  0  0
  194.0440  173.1370  136.8310 C   0  0  0  0  0  3  0  0  0  0  0  0
  191.6950  173.1220  136.2610 C   0  0  0  0  0  2  0  0  0  0  0  0
  190.5590  177.8760  138.4890 C   0  0  0  0  0  2  0  0  0  0  0  0
  191.6560  176.8160  138.4820 C   0  0  0  0  0  2  0  0  0  0  0  0
  189.0880  175.6290  137.2550 C   0  0  1  0  0  3  0  0  0  0  0  0
  187.9470  174.3640  136.6230 S   0  0  0  0  0  0  0  0  0  0  0  0
  188.7090  176.0150  138.6760 C   0  0  0  0  0  2  0  0  0  0  0  0
  189.2250  177.4020  139.0940 C   0  0  1  0  0  3  0  0  0  0  0  0
  190.4880  174.0430  136.1170 C   0  0  2  0  0  3  0  0  0  0  0  0
  190.4450  174.9850  137.2870 C   0  0  1  0  0  3  0  0  0  0  0  0
  189.2570  173.2740  136.1200 N   0  0  0  0  0  2  0  0  0  0  0  0
  195.3340  173.6940  137.3300 C   0  0  0  0  0  2  0  0  0  0  0  0
  195.9070  174.6800  136.3640 C   0  0  0  0  0  0  0  0  0  0  0  0
  195.2660  175.8190  136.0840 C   0  0  0  0  0  3  0  0  0  0  0  0
  192.9510  173.8740  136.6270 C   0  0  0  0  0  0  0  0  0  0  0  0
  193.9120  176.1840  136.5490 C   0  0  0  0  0  3  0  0  0  0  0  0
  192.9010  175.3560  136.8590 C   0  0  0  0  0  0  0  0  0  0  0  0
  187.9870  177.9080  142.6580 C   0  0  0  0  0  3  0  0  0  0  0  0
  190.4040  177.5260  141.2930 C   0  0  0  0  0  3  0  0  0  0  0  0
  190.2560  177.2330  145.4680 N   0  0  0  0  0  0  0  0  0  0  0  0
  190.0690  176.7530  146.8090 C   0  0  0  0  0  0  0  0  0  0  0  0
  189.2140  178.0630  144.8470 C   0  0  0  0  0  2  0  0  0  0  0  0
  190.9350  176.0100  147.3440 O   0  0  0  0  0  0  0  0  0  0  0  0
  189.1910  177.8650  143.3640 C   0  0  0  0  0  0  0  0  0  0  0  0
  188.8560  177.1180  147.5960 C   0  0  0  0  0  1  0  0  0  0  0  0
  191.6780  177.6820  143.4510 C   0  0  0  0  0  2  0  0  0  0  0  0
  190.3980  177.6720  142.6820 C   0  0  0  0  0  0  0  0  0  0  0  0
  191.5190  176.9210  144.7730 C   0  0  0  0  0  2  0  0  0  0  0  0
  189.1990  177.5570  140.5810 C   0  0  0  0  0  0  0  0  0  0  0  0
  187.9890  177.7500  141.2690 C   0  0  0  0  0  3  0  0  0  0  0  0
  197.2400  174.4280  135.7950 C   0  0  0  0  0  0  0  0  0  0  0  0
  198.3070  175.2560  136.1260 O   0  0  0  0  0  1  0  0  0  0  0  0
  197.4330  173.4600  135.0110 O   0  0  0  0  0  0  0  0  0  0  0  0
  1 11  1  0  0  0  0
  1  5  1  1  0  0  0
  2 13  1  0  0  0  0
  3 16  1  0  0  0  0
  4  9  1  0  0  0  0
  5  4  1  0  0  0  0
  6 11  1  0  0  0  0
  6  8  1  1  0  0  0
  7  6  1  0  0  0  0
  8  9  1  0  0  0  0
  9 30  1  1  0  0  0
 10 12  1  0  0  0  0
 10  3  1  1  0  0  0
 10 11  1  0  0  0  0
 12  7  1  0  0  0  0
 14 13  1  0  0  0  0
 15 14  2  0  0  0  0
 15 17  1  0  0  0  0
 16  2  2  0  0  0  0
 16 18  1  0  0  0  0
 17 18  2  0  0  0  0
 18  1  1  0  0  0  0
 19 25  1  0  0  0  0
 20 28  1  0  0  0  0
 21 22  1  0  0  0  0
 22 24  2  0  0  0  0
 22 26  1  0  0  0  0
 23 21  1  0  0  0  0
 25 23  1  0  0  0  0
 27 29  1  0  0  0  0
 28 25  2  0  0  0  0
 28 27  1  0  0  0  0
 29 21  1  0  0  0  0
 30 31  1  0  0  0  0
 30 20  2  0  0  0  0
 31 19  2  0  0  0  0
 32 33  1  0  0  0  0
 32 14  1  0  0  0  0
 34 32  2  0  0  0  0
M  END
>  <MODEL>
9

>  <REMARK>
 VINA RESULT:      -7.9      8.134     10.225
  Name = 
  2 active torsions:
  status: ('A' for Active; 'I' for Inactive)
    1  A    between atoms: C_3  and  C_25
    2  A    between atoms: C_18  and  C_30
                            x       y       z     vdW  Elec       q    Type
                         _______ _______ _______ _____ _____    ______ ____

>  <TORSDO>
F 2

$$$$
