=
 OpenBabel11052415533D

 34 39  0  0  1  0  0  0  0  0999 V2000
  187.0760  178.2370  144.1010 C   0  0  0  0  0  0  0  0  0  0  0  0
  183.5740  178.6340  145.0040 C   0  0  0  0  0  3  0  0  0  0  0  0
  185.4630  178.2990  146.3920 O   0  0  0  0  0  0  0  0  0  0  0  0
  189.8310  177.6110  144.3740 N   0  0  0  0  0  0  0  0  0  0  0  0
  187.9690  178.1530  142.9900 N   0  0  0  0  0  2  0  0  0  0  0  0
  189.1300  177.9500  145.6180 C   0  0  2  0  0  3  0  0  0  0  0  0
  188.4910  176.8000  147.8510 C   0  0  0  0  0  2  0  0  0  0  0  0
  189.5590  177.0150  146.7620 C   0  0  0  0  0  2  0  0  0  0  0  0
  189.3390  177.7640  143.1740 C   0  0  0  0  0  0  0  0  0  0  0  0
  186.8420  178.0890  146.5330 C   0  0  0  0  0  0  0  0  0  0  0  0
  187.6350  178.0500  145.4510 C   0  0  0  0  0  0  0  0  0  0  0  0
  187.4460  177.9190  147.8930 C   0  0  0  0  0  2  0  0  0  0  0  0
  182.9350  178.7830  143.6840 C   0  0  0  0  0  0  0  0  0  0  0  0
  183.6690  178.7600  142.5620 C   0  0  0  0  0  3  0  0  0  0  0  0
  184.8890  178.4630  145.1260 C   0  0  0  0  0  0  0  0  0  0  0  0
  185.1680  178.6080  142.5510 C   0  0  0  0  0  2  0  0  0  0  0  0
  185.7590  178.4330  143.9270 C   0  0  0  0  0  0  0  0  0  0  0  0
  192.3830  177.3110  140.9800 C   0  0  0  0  0  3  0  0  0  0  0  0
  189.5960  177.1090  140.7730 C   0  0  0  0  0  3  0  0  0  0  0  0
  192.0160  176.2840  137.4400 C   0  0  0  0  0  0  0  0  0  0  0  0
  192.6030  176.6750  138.6530 C   0  0  0  0  0  3  0  0  0  0  0  0
  191.8010  176.9430  139.7650 C   0  0  0  0  0  0  0  0  0  0  0  0
  189.8150  176.4620  138.4480 C   0  0  0  0  0  3  0  0  0  0  0  0
  190.3970  176.8360  139.6620 C   0  0  0  0  0  0  0  0  0  0  0  0
  190.6230  176.1890  137.3400 C   0  0  0  0  0  3  0  0  0  0  0  0
  190.1790  177.4840  141.9950 C   0  0  0  0  0  0  0  0  0  0  0  0
  191.5750  177.5810  142.0880 C   0  0  0  0  0  3  0  0  0  0  0  0
  192.8540  176.0380  136.2270 C   0  0  0  0  0  3  0  0  0  0  0  0
  194.1230  176.5950  136.4090 O   0  0  0  0  0  1  0  0  0  0  0  0
  192.9750  174.6670  135.9800 O   0  0  0  0  0  1  0  0  0  0  0  0
  181.5110  178.9350  143.6300 N   0  0  0  0  0  2  0  0  0  0  0  0
  180.7660  179.2850  142.4250 C   0  0  0  0  0  3  0  0  0  0  0  0
  180.0860  178.0460  141.8810 C   0  0  0  0  0  1  0  0  0  0  0  0
  179.7110  180.3290  142.7420 C   0  0  0  0  0  1  0  0  0  0  0  0
  1 11  1  0  0  0  0
  2 15  2  0  0  0  0
  3 10  1  0  0  0  0
  4  6  1  0  0  0  0
  5  9  1  0  0  0  0
  5  1  1  0  0  0  0
  6  8  1  1  0  0  0
  7 12  1  0  0  0  0
  8  7  1  0  0  0  0
  9  4  2  0  0  0  0
 10 12  1  0  0  0  0
 11  6  1  0  0  0  0
 11 10  2  0  0  0  0
 13  2  1  0  0  0  0
 14 13  2  0  0  0  0
 15  3  1  0  0  0  0
 16 14  1  0  0  0  0
 16 17  1  0  0  0  0
 17  1  2  0  0  0  0
 17 15  1  0  0  0  0
 18 27  1  0  0  0  0
 19 26  1  0  0  0  0
 20 21  2  0  0  0  0
 21 22  1  0  0  0  0
 22 18  2  0  0  0  0
 23 24  1  0  0  0  0
 24 22  1  0  0  0  0
 24 19  2  0  0  0  0
 25 20  1  0  0  0  0
 25 23  2  0  0  0  0
 26 27  2  0  0  0  0
 26  9  1  0  0  0  0
 28 29  1  0  0  0  0
 28 20  1  0  0  0  0
 30 28  1  0  0  0  0
 31 13  1  0  0  0  0
 32 34  1  0  0  0  0
 32 31  1  0  0  0  0
 33 32  1  0  0  0  0
M  END
>  <MODEL>
1

>  <REMARK>
 VINA RESULT:     -10.3      0.000      0.000
  Name = 
  4 active torsions:
  status: ('A' for Active; 'I' for Inactive)
    1  A    between atoms: C_3  and  N_25
    2  A    between atoms: C_7  and  C_11
    3  A    between atoms: C_18  and  C_30
    4  A    between atoms: C_23  and  N_25
                            x       y       z     vdW  Elec       q    Type
                         _______ _______ _______ _____ _____    ______ ____

>  <TORSDO>
F 4

$$$$
=
 OpenBabel11052415533D

 34 39  0  0  1  0  0  0  0  0999 V2000
  188.9460  177.2660  143.1130 C   0  0  0  0  0  0  0  0  0  0  0  0
  192.0920  176.9920  141.3070 C   0  0  0  0  0  3  0  0  0  0  0  0
  191.6710  176.8760  143.6340 O   0  0  0  0  0  0  0  0  0  0  0  0
  187.1590  177.5880  145.2950 N   0  0  0  0  0  0  0  0  0  0  0  0
  187.5470  177.4990  142.9460 N   0  0  0  0  0  2  0  0  0  0  0  0
  188.4880  177.0630  145.6320 C   0  0  2  0  0  3  0  0  0  0  0  0
  190.5540  177.7850  147.0210 C   0  0  0  0  0  2  0  0  0  0  0  0
  189.0180  177.7060  146.9260 C   0  0  0  0  0  2  0  0  0  0  0  0
  186.6970  177.7240  144.0810 C   0  0  0  0  0  0  0  0  0  0  0  0
  190.7720  176.9360  144.7080 C   0  0  0  0  0  0  0  0  0  0  0  0
  189.4620  177.1260  144.4850 C   0  0  0  0  0  0  0  0  0  0  0  0
  191.2620  176.7730  146.1150 C   0  0  0  0  0  2  0  0  0  0  0  0
  191.6570  177.1690  139.9100 C   0  0  0  0  0  0  0  0  0  0  0  0
  190.3630  177.3580  139.6150 C   0  0  0  0  0  3  0  0  0  0  0  0
  191.2240  177.0220  142.3160 C   0  0  0  0  0  0  0  0  0  0  0  0
  189.2670  177.3810  140.6500 C   0  0  0  0  0  2  0  0  0  0  0  0
  189.7780  177.2210  142.0600 C   0  0  0  0  0  0  0  0  0  0  0  0
  183.2170  179.0260  144.7720 C   0  0  0  0  0  3  0  0  0  0  0  0
  184.7430  178.1710  142.5840 C   0  0  0  0  0  3  0  0  0  0  0  0
  180.7890  179.4690  142.0100 C   0  0  0  0  0  0  0  0  0  0  0  0
  181.3410  179.4500  143.3000 C   0  0  0  0  0  3  0  0  0  0  0  0
  182.6580  179.0260  143.4930 C   0  0  0  0  0  0  0  0  0  0  0  0
  182.8700  178.6040  141.1080 C   0  0  0  0  0  3  0  0  0  0  0  0
  183.4280  178.5990  142.3890 C   0  0  0  0  0  0  0  0  0  0  0  0
  181.5530  179.0360  140.9200 C   0  0  0  0  0  3  0  0  0  0  0  0
  185.3060  178.1660  143.8710 C   0  0  0  0  0  0  0  0  0  0  0  0
  184.5340  178.5980  144.9590 C   0  0  0  0  0  3  0  0  0  0  0  0
  179.3680  179.8750  141.7900 C   0  0  0  0  0  3  0  0  0  0  0  0
  179.2490  181.2630  141.9120 O   0  0  0  0  0  1  0  0  0  0  0  0
  178.9310  179.4760  140.5230 O   0  0  0  0  0  1  0  0  0  0  0  0
  192.6520  177.1520  138.8790 N   0  0  0  0  0  2  0  0  0  0  0  0
  192.5250  176.4180  137.6240 C   0  0  0  0  0  3  0  0  0  0  0  0
  193.8020  176.5690  136.8250 C   0  0  0  0  0  1  0  0  0  0  0  0
  192.2850  174.9440  137.8980 C   0  0  0  0  0  1  0  0  0  0  0  0
  1 11  1  0  0  0  0
  2 15  2  0  0  0  0
  3 10  1  0  0  0  0
  4  6  1  0  0  0  0
  5  1  1  0  0  0  0
  5  9  1  0  0  0  0
  6  8  1  1  0  0  0
  8  7  1  0  0  0  0
  9  4  2  0  0  0  0
 10 12  1  0  0  0  0
 11 10  2  0  0  0  0
 11  6  1  0  0  0  0
 12  7  1  0  0  0  0
 13  2  1  0  0  0  0
 14 13  2  0  0  0  0
 14 16  1  0  0  0  0
 15  3  1  0  0  0  0
 16 17  1  0  0  0  0
 17 15  1  0  0  0  0
 17  1  2  0  0  0  0
 18 27  1  0  0  0  0
 19 26  1  0  0  0  0
 20 21  2  0  0  0  0
 21 22  1  0  0  0  0
 22 18  2  0  0  0  0
 23 24  1  0  0  0  0
 24 19  2  0  0  0  0
 24 22  1  0  0  0  0
 25 23  2  0  0  0  0
 25 20  1  0  0  0  0
 26  9  1  0  0  0  0
 26 27  2  0  0  0  0
 28 29  1  0  0  0  0
 28 20  1  0  0  0  0
 30 28  1  0  0  0  0
 31 13  1  0  0  0  0
 32 34  1  0  0  0  0
 32 31  1  0  0  0  0
 33 32  1  0  0  0  0
M  END
>  <MODEL>
2

>  <REMARK>
 VINA RESULT:     -10.2      2.813      9.064
  Name = 
  4 active torsions:
  status: ('A' for Active; 'I' for Inactive)
    1  A    between atoms: C_3  and  N_25
    2  A    between atoms: C_7  and  C_11
    3  A    between atoms: C_18  and  C_30
    4  A    between atoms: C_23  and  N_25
                            x       y       z     vdW  Elec       q    Type
                         _______ _______ _______ _____ _____    ______ ____

>  <TORSDO>
F 4

$$$$
=
 OpenBabel11052415533D

 34 39  0  0  1  0  0  0  0  0999 V2000
  183.2400  178.4530  141.0610 C   0  0  0  0  0  0  0  0  0  0  0  0
  181.4470  178.1830  137.9060 C   0  0  0  0  0  3  0  0  0  0  0  0
  180.6330  178.7080  140.0670 O   0  0  0  0  0  0  0  0  0  0  0  0
  183.6700  178.6310  143.8610 N   0  0  0  0  0  0  0  0  0  0  0  0
  184.5280  178.3060  141.6620 N   0  0  0  0  0  2  0  0  0  0  0  0
  182.3620  179.0980  143.3870 C   0  0  2  0  0  3  0  0  0  0  0  0
  179.8660  178.4530  143.6570 C   0  0  0  0  0  2  0  0  0  0  0  0
  181.2390  178.6350  144.3320 C   0  0  0  0  0  2  0  0  0  0  0  0
  184.6810  178.3350  143.0900 C   0  0  0  0  0  0  0  0  0  0  0  0
  180.8630  178.8950  141.4370 C   0  0  0  0  0  0  0  0  0  0  0  0
  182.1020  178.7740  141.9390 C   0  0  0  0  0  0  0  0  0  0  0  0
  179.7300  179.2460  142.3530 C   0  0  0  0  0  2  0  0  0  0  0  0
  182.5280  177.8150  136.9730 C   0  0  0  0  0  0  0  0  0  0  0  0
  183.7900  177.6820  137.4060 C   0  0  0  0  0  3  0  0  0  0  0  0
  181.6850  178.3850  139.2010 C   0  0  0  0  0  0  0  0  0  0  0  0
  184.2090  177.9130  138.8350 C   0  0  0  0  0  2  0  0  0  0  0  0
  183.0570  178.2600  139.7440 C   0  0  0  0  0  0  0  0  0  0  0  0
  188.3150  177.3500  143.4160 C   0  0  0  0  0  3  0  0  0  0  0  0
  186.1370  177.9230  145.0830 C   0  0  0  0  0  3  0  0  0  0  0  0
  189.8580  176.9250  146.7570 C   0  0  0  0  0  0  0  0  0  0  0  0
  189.7020  176.9580  145.3620 C   0  0  0  0  0  3  0  0  0  0  0  0
  188.4680  177.2960  144.8030 C   0  0  0  0  0  0  0  0  0  0  0  0
  187.5260  177.5410  147.0310 C   0  0  0  0  0  3  0  0  0  0  0  0
  187.3720  177.5900  145.6430 C   0  0  0  0  0  0  0  0  0  0  0  0
  188.7660  177.2080  147.5850 C   0  0  0  0  0  3  0  0  0  0  0  0
  185.9800  177.9740  143.6870 C   0  0  0  0  0  0  0  0  0  0  0  0
  187.0770  177.6870  142.8620 C   0  0  0  0  0  3  0  0  0  0  0  0
  191.1580  176.5210  147.3740 C   0  0  0  0  0  3  0  0  0  0  0  0
  192.0670  176.1700  146.3720 O   0  0  0  0  0  1  0  0  0  0  0  0
  191.6850  177.5630  148.1430 O   0  0  0  0  0  1  0  0  0  0  0  0
  182.1930  177.5870  135.5990 N   0  0  0  0  0  2  0  0  0  0  0  0
  181.5930  176.3570  135.0920 C   0  0  0  0  0  3  0  0  0  0  0  0
  181.9870  175.2020  135.9880 C   0  0  0  0  0  1  0  0  0  0  0  0
  180.0790  176.4780  135.0770 C   0  0  0  0  0  1  0  0  0  0  0  0
  1  5  1  0  0  0  0
  1 11  1  0  0  0  0
  2 15  2  0  0  0  0
  3 10  1  0  0  0  0
  5  9  1  0  0  0  0
  6  4  1  0  0  0  0
  6  8  1  1  0  0  0
  7  8  1  0  0  0  0
  9 26  1  0  0  0  0
  9  4  2  0  0  0  0
 10 11  2  0  0  0  0
 10 12  1  0  0  0  0
 11  6  1  0  0  0  0
 12  7  1  0  0  0  0
 13 14  2  0  0  0  0
 13  2  1  0  0  0  0
 14 16  1  0  0  0  0
 15 17  1  0  0  0  0
 15  3  1  0  0  0  0
 16 17  1  0  0  0  0
 17  1  2  0  0  0  0
 18 22  1  0  0  0  0
 19 24  1  0  0  0  0
 20 28  1  0  0  0  0
 20 25  1  0  0  0  0
 21 20  2  0  0  0  0
 22 21  1  0  0  0  0
 22 24  2  0  0  0  0
 23 25  2  0  0  0  0
 24 23  1  0  0  0  0
 26 19  2  0  0  0  0
 27 18  2  0  0  0  0
 27 26  1  0  0  0  0
 28 30  1  0  0  0  0
 29 28  1  0  0  0  0
 31 13  1  0  0  0  0
 32 31  1  0  0  0  0
 32 33  1  0  0  0  0
 34 32  1  0  0  0  0
M  END
>  <MODEL>
3

>  <REMARK>
 VINA RESULT:      -9.9      4.413      7.574
  Name = 
  4 active torsions:
  status: ('A' for Active; 'I' for Inactive)
    1  A    between atoms: C_3  and  N_25
    2  A    between atoms: C_7  and  C_11
    3  A    between atoms: C_18  and  C_30
    4  A    between atoms: C_23  and  N_25
                            x       y       z     vdW  Elec       q    Type
                         _______ _______ _______ _____ _____    ______ ____

>  <TORSDO>
F 4

$$$$
=
 OpenBabel11052415533D

 34 39  0  0  1  0  0  0  0  0999 V2000
  186.6810  178.4030  140.4740 C   0  0  0  0  0  0  0  0  0  0  0  0
  186.6830  178.1710  136.8430 C   0  0  0  0  0  3  0  0  0  0  0  0
  184.9070  178.6830  138.3230 O   0  0  0  0  0  0  0  0  0  0  0  0
  185.6700  178.5530  143.1220 N   0  0  0  0  0  0  0  0  0  0  0  0
  187.5030  178.2420  141.6310 N   0  0  0  0  0  2  0  0  0  0  0  0
  184.7680  179.0330  142.0680 C   0  0  2  0  0  3  0  0  0  0  0  0
  182.4640  178.4020  141.0610 C   0  0  0  0  0  2  0  0  0  0  0  0
  183.3240  178.5690  142.3290 C   0  0  0  0  0  2  0  0  0  0  0  0
  186.9300  178.2580  142.9480 C   0  0  0  0  0  0  0  0  0  0  0  0
  184.4290  178.8560  139.6300 C   0  0  0  0  0  0  0  0  0  0  0  0
  185.2580  178.7230  140.6770 C   0  0  0  0  0  0  0  0  0  0  0  0
  182.9920  179.2060  139.8700 C   0  0  0  0  0  2  0  0  0  0  0  0
  188.0830  177.8050  136.5620 C   0  0  0  0  0  0  0  0  0  0  0  0
  188.9660  177.6610  137.5610 C   0  0  0  0  0  3  0  0  0  0  0  0
  186.2490  178.3610  138.0880 C   0  0  1  0  0  3  0  0  0  0  0  0
  188.6230  177.8770  139.0130 C   0  0  0  0  0  3  0  0  0  0  0  0
  187.1720  178.2230  139.2370 C   0  0  0  0  0  0  0  0  0  0  0  0
  187.9930  177.5400  146.5040 C   0  0  0  0  0  3  0  0  0  0  0  0
  189.1030  177.5010  143.9310 C   0  0  0  0  0  3  0  0  0  0  0  0
  191.4410  176.4070  147.2450 C   0  0  0  0  0  0  0  0  0  0  0  0
  190.1070  176.8060  147.4280 C   0  0  0  0  0  3  0  0  0  0  0  0
  189.3250  177.1630  146.3270 C   0  0  0  0  0  0  0  0  0  0  0  0
  191.2160  176.7560  144.8530 C   0  0  0  0  0  3  0  0  0  0  0  0
  189.8840  177.1390  145.0310 C   0  0  0  0  0  0  0  0  0  0  0  0
  191.9920  176.3930  145.9590 C   0  0  0  0  0  3  0  0  0  0  0  0
  187.7620  177.8840  144.1060 C   0  0  0  0  0  0  0  0  0  0  0  0
  187.2170  177.8990  145.3980 C   0  0  0  0  0  3  0  0  0  0  0  0
  192.3060  176.0660  148.4150 C   0  0  0  0  0  3  0  0  0  0  0  0
  193.3770  175.2730  147.9940 O   0  0  0  0  0  1  0  0  0  0  0  0
  192.7920  177.2260  149.0250 O   0  0  0  0  0  1  0  0  0  0  0  0
  188.4710  177.5900  135.2000 N   0  0  0  0  0  2  0  0  0  0  0  0
  188.7970  176.2860  134.6330 C   0  0  0  0  0  3  0  0  0  0  0  0
  190.2850  176.0400  134.7690 C   0  0  0  0  0  1  0  0  0  0  0  0
  188.0460  175.1900  135.3670 C   0  0  0  0  0  1  0  0  0  0  0  0
  1 11  1  0  0  0  0
  1  5  1  0  0  0  0
  3 10  1  0  0  0  0
  5  9  1  0  0  0  0
  6  8  1  1  0  0  0
  6  4  1  0  0  0  0
  7  8  1  0  0  0  0
  9  4  2  0  0  0  0
  9 26  1  0  0  0  0
 10 12  1  0  0  0  0
 10 11  2  0  0  0  0
 11  6  1  0  0  0  0
 12  7  1  0  0  0  0
 13  2  2  0  0  0  0
 13 14  1  0  0  0  0
 14 16  2  0  0  0  0
 15  2  1  1  0  0  0
 15  3  1  0  0  0  0
 15 17  1  0  0  0  0
 16 17  1  0  0  0  0
 17  1  2  0  0  0  0
 19 26  2  0  0  0  0
 19 24  1  0  0  0  0
 20 21  1  0  0  0  0
 20 28  1  0  0  0  0
 22 18  1  0  0  0  0
 22 21  2  0  0  0  0
 23 24  2  0  0  0  0
 23 25  1  0  0  0  0
 24 22  1  0  0  0  0
 25 20  2  0  0  0  0
 26 27  1  0  0  0  0
 27 18  2  0  0  0  0
 28 30  1  0  0  0  0
 29 28  1  0  0  0  0
 31 13  1  0  0  0  0
 32 33  1  0  0  0  0
 32 31  1  0  0  0  0
 32 34  1  0  0  0  0
M  END
>  <MODEL>
4

>  <REMARK>
 VINA RESULT:      -9.8      3.528      8.168
  Name = 
  4 active torsions:
  status: ('A' for Active; 'I' for Inactive)
    1  A    between atoms: C_3  and  N_25
    2  A    between atoms: C_7  and  C_11
    3  A    between atoms: C_18  and  C_30
    4  A    between atoms: C_23  and  N_25
                            x       y       z     vdW  Elec       q    Type
                         _______ _______ _______ _____ _____    ______ ____

>  <TORSDO>
F 4

$$$$
=
 OpenBabel11052415533D

 34 39  0  0  1  0  0  0  0  0999 V2000
  190.8690  176.8620  138.0990 C   0  0  0  0  0  0  0  0  0  0  0  0
  192.8050  175.5250  135.3240 C   0  0  0  0  0  3  0  0  0  0  0  0
  190.6170  176.4300  135.3420 O   0  0  0  0  0  0  0  0  0  0  0  0
  188.6200  177.7980  139.5570 N   0  0  0  0  0  0  0  0  0  0  0  0
  190.8930  177.0830  139.5100 N   0  0  0  0  0  2  0  0  0  0  0  0
  188.5240  177.9110  138.0970 C   0  0  2  0  0  3  0  0  0  0  0  0
  187.0710  176.9520  136.1760 C   0  0  0  0  0  2  0  0  0  0  0  0
  187.1180  177.5190  137.6080 C   0  0  0  0  0  2  0  0  0  0  0  0
  189.7070  177.4910  140.2120 C   0  0  0  0  0  0  0  0  0  0  0  0
  189.5400  176.9860  136.0480 C   0  0  0  0  0  0  0  0  0  0  0  0
  189.6340  177.1990  137.3690 C   0  0  0  0  0  0  0  0  0  0  0  0
  188.2800  177.3620  135.3300 C   0  0  0  0  0  2  0  0  0  0  0  0
  194.0550  175.1200  135.9930 C   0  0  0  0  0  0  0  0  0  0  0  0
  194.2180  175.3090  137.3100 C   0  0  0  0  0  3  0  0  0  0  0  0
  191.8010  176.0790  136.0010 C   0  0  1  0  0  3  0  0  0  0  0  0
  193.1810  175.9530  138.1940 C   0  0  0  0  0  3  0  0  0  0  0  0
  191.9170  176.3210  137.4580 C   0  0  0  0  0  0  0  0  0  0  0  0
  190.9330  177.5880  143.7850 C   0  0  0  0  0  3  0  0  0  0  0  0
  188.4990  177.4810  142.4020 C   0  0  0  0  0  3  0  0  0  0  0  0
  188.5270  177.5670  146.6020 C   0  0  0  0  0  0  0  0  0  0  0  0
  189.7380  177.5780  145.8920 C   0  0  0  0  0  3  0  0  0  0  0  0
  189.7310  177.5560  144.4950 C   0  0  0  0  0  0  0  0  0  0  0  0
  187.3010  177.4810  144.5090 C   0  0  0  0  0  3  0  0  0  0  0  0
  188.5040  177.5070  143.7990 C   0  0  0  0  0  0  0  0  0  0  0  0
  187.3140  177.5090  145.9070 C   0  0  0  0  0  3  0  0  0  0  0  0
  189.7070  177.5090  141.6860 C   0  0  0  0  0  0  0  0  0  0  0  0
  190.9200  177.5630  142.3880 C   0  0  0  0  0  3  0  0  0  0  0  0
  188.5150  177.5430  148.0960 C   0  0  0  0  0  3  0  0  0  0  0  0
  189.5770  178.3070  148.5890 O   0  0  0  0  0  1  0  0  0  0  0  0
  187.3070  178.0470  148.5890 O   0  0  0  0  0  1  0  0  0  0  0  0
  195.0810  174.5050  135.2050 N   0  0  0  0  0  2  0  0  0  0  0  0
  196.5010  174.5310  135.5370 C   0  0  0  0  0  3  0  0  0  0  0  0
  197.1880  173.3480  134.8890 C   0  0  0  0  0  1  0  0  0  0  0  0
  197.1380  175.8120  135.0280 C   0  0  0  0  0  1  0  0  0  0  0  0
  1  5  1  0  0  0  0
  2 13  2  0  0  0  0
  3 15  1  0  0  0  0
  3 10  1  0  0  0  0
  4  9  2  0  0  0  0
  5  9  1  0  0  0  0
  6  8  1  6  0  0  0
  6  4  1  0  0  0  0
  7  8  1  0  0  0  0
  9 26  1  0  0  0  0
 10 11  2  0  0  0  0
 11  6  1  0  0  0  0
 11  1  1  0  0  0  0
 12 10  1  0  0  0  0
 12  7  1  0  0  0  0
 13 14  1  0  0  0  0
 14 16  2  0  0  0  0
 15  2  1  1  0  0  0
 15 17  1  0  0  0  0
 17  1  2  0  0  0  0
 17 16  1  0  0  0  0
 18 22  1  0  0  0  0
 19 24  1  0  0  0  0
 20 28  1  0  0  0  0
 21 20  2  0  0  0  0
 22 21  1  0  0  0  0
 23 25  2  0  0  0  0
 24 22  2  0  0  0  0
 24 23  1  0  0  0  0
 25 20  1  0  0  0  0
 26 27  1  0  0  0  0
 26 19  2  0  0  0  0
 27 18  2  0  0  0  0
 28 29  1  0  0  0  0
 28 30  1  0  0  0  0
 31 32  1  0  0  0  0
 31 13  1  0  0  0  0
 33 32  1  0  0  0  0
 34 32  1  0  0  0  0
M  END
>  <MODEL>
5

>  <REMARK>
 VINA RESULT:      -9.4      3.484     10.803
  Name = 
  4 active torsions:
  status: ('A' for Active; 'I' for Inactive)
    1  A    between atoms: C_3  and  N_25
    2  A    between atoms: C_7  and  C_11
    3  A    between atoms: C_18  and  C_30
    4  A    between atoms: C_23  and  N_25
                            x       y       z     vdW  Elec       q    Type
                         _______ _______ _______ _____ _____    ______ ____

>  <TORSDO>
F 4

$$$$
=
 OpenBabel11052415533D

 34 39  0  0  1  0  0  0  0  0999 V2000
  186.3260  178.3920  143.3730 C   0  0  0  0  0  0  0  0  0  0  0  0
  182.9040  178.9510  144.4790 C   0  0  0  0  0  3  0  0  0  0  0  0
  184.8610  178.5690  145.7560 O   0  0  0  0  0  0  0  0  0  0  0  0
  189.0650  177.6590  143.4920 N   0  0  0  0  0  0  0  0  0  0  0  0
  187.1440  178.2470  142.2120 N   0  0  0  0  0  2  0  0  0  0  0  0
  188.4560  178.0540  144.7680 C   0  0  2  0  0  3  0  0  0  0  0  0
  187.9120  176.9800  147.0640 C   0  0  0  0  0  2  0  0  0  0  0  0
  188.9190  177.1270  145.9070 C   0  0  0  0  0  2  0  0  0  0  0  0
  188.5070  177.8060  142.3210 C   0  0  0  0  0  0  0  0  0  0  0  0
  186.2370  178.3060  145.8170 C   0  0  0  0  0  0  0  0  0  0  0  0
  186.9600  178.2120  144.6910 C   0  0  0  0  0  0  0  0  0  0  0  0
  186.9170  178.1410  147.1430 C   0  0  0  0  0  2  0  0  0  0  0  0
  182.1910  179.0980  143.1970 C   0  0  0  0  0  0  0  0  0  0  0  0
  182.8530  179.0200  142.0330 C   0  0  0  0  0  3  0  0  0  0  0  0
  184.2170  178.7290  144.5240 C   0  0  0  0  0  0  0  0  0  0  0  0
  184.3420  178.8060  141.9340 C   0  0  0  0  0  2  0  0  0  0  0  0
  185.0090  178.6380  143.2750 C   0  0  0  0  0  0  0  0  0  0  0  0
  189.2790  176.8990  138.7350 C   0  0  0  0  0  3  0  0  0  0  0  0
  190.6630  177.3990  141.1190 C   0  0  0  0  0  3  0  0  0  0  0  0
  192.7840  176.4610  137.6160 C   0  0  0  0  0  0  0  0  0  0  0  0
  191.3810  176.5100  137.5960 C   0  0  0  0  0  3  0  0  0  0  0  0
  190.6740  176.8290  138.7580 C   0  0  0  0  0  0  0  0  0  0  0  0
  192.7670  177.0210  139.9790 C   0  0  0  0  0  3  0  0  0  0  0  0
  191.3720  177.0860  139.9570 C   0  0  0  0  0  0  0  0  0  0  0  0
  193.4700  176.7080  138.8110 C   0  0  0  0  0  3  0  0  0  0  0  0
  189.2600  177.4660  141.1000 C   0  0  0  0  0  0  0  0  0  0  0  0
  188.5770  177.2150  139.9010 C   0  0  0  0  0  3  0  0  0  0  0  0
  193.5550  176.0780  136.3960 C   0  0  0  0  0  3  0  0  0  0  0  0
  192.7000  176.0310  135.2910 O   0  0  0  0  0  1  0  0  0  0  0  0
  194.5850  176.9930  136.1540 O   0  0  0  0  0  1  0  0  0  0  0  0
  180.7740  179.3070  143.2260 N   0  0  0  0  0  2  0  0  0  0  0  0
  179.7830  178.2380  143.1680 C   0  0  0  0  0  3  0  0  0  0  0  0
  179.8400  177.5760  141.8070 C   0  0  0  0  0  1  0  0  0  0  0  0
  180.0690  177.1960  144.2360 C   0  0  0  0  0  1  0  0  0  0  0  0
  1 11  1  0  0  0  0
  2 15  2  0  0  0  0
  3 10  1  0  0  0  0
  4  6  1  0  0  0  0
  5  9  1  0  0  0  0
  5  1  1  0  0  0  0
  6  8  1  1  0  0  0
  7 12  1  0  0  0  0
  8  7  1  0  0  0  0
  9  4  2  0  0  0  0
 10 12  1  0  0  0  0
 11  6  1  0  0  0  0
 11 10  2  0  0  0  0
 13 31  1  0  0  0  0
 13  2  1  0  0  0  0
 14 13  2  0  0  0  0
 15  3  1  0  0  0  0
 16 14  1  0  0  0  0
 16 17  1  0  0  0  0
 17  1  2  0  0  0  0
 17 15  1  0  0  0  0
 18 22  2  0  0  0  0
 18 27  1  0  0  0  0
 20 25  1  0  0  0  0
 21 20  2  0  0  0  0
 21 22  1  0  0  0  0
 22 24  1  0  0  0  0
 24 23  1  0  0  0  0
 24 19  2  0  0  0  0
 25 23  2  0  0  0  0
 26 19  1  0  0  0  0
 26  9  1  0  0  0  0
 27 26  2  0  0  0  0
 28 20  1  0  0  0  0
 29 28  1  0  0  0  0
 30 28  1  0  0  0  0
 32 31  1  0  0  0  0
 32 34  1  0  0  0  0
 33 32  1  0  0  0  0
M  END
>  <MODEL>
6

>  <REMARK>
 VINA RESULT:      -9.1      1.016      1.769
  Name = 
  4 active torsions:
  status: ('A' for Active; 'I' for Inactive)
    1  A    between atoms: C_3  and  N_25
    2  A    between atoms: C_7  and  C_11
    3  A    between atoms: C_18  and  C_30
    4  A    between atoms: C_23  and  N_25
                            x       y       z     vdW  Elec       q    Type
                         _______ _______ _______ _____ _____    ______ ____

>  <TORSDO>
F 4

$$$$
=
 OpenBabel11052415533D

 34 39  0  0  1  0  0  0  0  0999 V2000
  186.4850  178.1000  140.3330 C   0  0  0  0  0  0  0  0  0  0  0  0
  183.1750  179.2550  139.3610 C   0  0  0  0  0  3  0  0  0  0  0  0
  185.1150  178.9450  138.0390 O   0  0  0  0  0  0  0  0  0  0  0  0
  189.2710  177.5840  140.1600 N   0  0  0  0  0  0  0  0  0  0  0  0
  187.2730  177.6950  141.4530 N   0  0  0  0  0  2  0  0  0  0  0  0
  188.5640  177.6940  138.8790 C   0  0  2  0  0  3  0  0  0  0  0  0
  188.5660  179.2390  136.7970 C   0  0  0  0  0  2  0  0  0  0  0  0
  189.3960  178.4940  137.8600 C   0  0  0  0  0  2  0  0  0  0  0  0
  188.6920  177.5140  141.3280 C   0  0  0  0  0  0  0  0  0  0  0  0
  186.4680  178.5930  137.9360 C   0  0  0  0  0  0  0  0  0  0  0  0
  187.1480  178.1900  139.0200 C   0  0  0  0  0  0  0  0  0  0  0  0
  187.1650  178.6510  136.6110 C   0  0  0  0  0  2  0  0  0  0  0  0
  182.4560  179.2340  140.6480 C   0  0  0  0  0  0  0  0  0  0  0  0
  183.0730  178.8370  141.7700 C   0  0  0  0  0  3  0  0  0  0  0  0
  184.4530  178.8900  139.2710 C   0  0  1  0  0  3  0  0  0  0  0  0
  184.5050  178.3670  141.8120 C   0  0  0  0  0  3  0  0  0  0  0  0
  185.1930  178.4360  140.4710 C   0  0  0  0  0  0  0  0  0  0  0  0
  191.6690  176.8690  143.5670 C   0  0  0  0  0  3  0  0  0  0  0  0
  188.9170  177.3400  143.8140 C   0  0  0  0  0  3  0  0  0  0  0  0
  191.2670  176.7630  147.2480 C   0  0  0  0  0  0  0  0  0  0  0  0
  191.8580  176.7060  145.9760 C   0  0  0  0  0  3  0  0  0  0  0  0
  191.0800  176.9050  144.8330 C   0  0  0  0  0  0  0  0  0  0  0  0
  189.1070  177.1870  146.2250 C   0  0  0  0  0  3  0  0  0  0  0  0
  189.6950  177.1460  144.9580 C   0  0  0  0  0  0  0  0  0  0  0  0
  189.8920  176.9940  147.3670 C   0  0  0  0  0  3  0  0  0  0  0  0
  189.5060  177.3010  142.5390 C   0  0  0  0  0  0  0  0  0  0  0  0
  190.8850  177.0660  142.4270 C   0  0  0  0  0  3  0  0  0  0  0  0
  192.0740  176.5080  148.4800 C   0  0  0  0  0  3  0  0  0  0  0  0
  193.2220  175.7820  148.1510 O   0  0  0  0  0  1  0  0  0  0  0  0
  192.4390  177.7130  149.0900 O   0  0  0  0  0  1  0  0  0  0  0  0
  181.0900  179.6660  140.6720 N   0  0  0  0  0  2  0  0  0  0  0  0
  180.2290  179.6060  141.8490 C   0  0  0  0  0  3  0  0  0  0  0  0
  179.2710  180.7780  141.8270 C   0  0  0  0  0  1  0  0  0  0  0  0
  179.4300  178.3150  141.8510 C   0  0  0  0  0  1  0  0  0  0  0  0
  1 17  2  0  0  0  0
  1  5  1  0  0  0  0
  2 13  2  0  0  0  0
  3 15  1  0  0  0  0
  4  9  2  0  0  0  0
  6  8  1  6  0  0  0
  6 11  1  0  0  0  0
  6  4  1  0  0  0  0
  7  8  1  0  0  0  0
  9  5  1  0  0  0  0
  9 26  1  0  0  0  0
 10  3  1  0  0  0  0
 10 11  2  0  0  0  0
 11  1  1  0  0  0  0
 12  7  1  0  0  0  0
 12 10  1  0  0  0  0
 13 31  1  0  0  0  0
 13 14  1  0  0  0  0
 14 16  2  0  0  0  0
 15  2  1  1  0  0  0
 15 17  1  0  0  0  0
 17 16  1  0  0  0  0
 18 22  1  0  0  0  0
 19 24  1  0  0  0  0
 20 25  1  0  0  0  0
 20 28  1  0  0  0  0
 21 20  2  0  0  0  0
 22 24  2  0  0  0  0
 22 21  1  0  0  0  0
 23 25  2  0  0  0  0
 24 23  1  0  0  0  0
 26 19  2  0  0  0  0
 27 26  1  0  0  0  0
 27 18  2  0  0  0  0
 28 30  1  0  0  0  0
 29 28  1  0  0  0  0
 31 32  1  0  0  0  0
 32 34  1  0  0  0  0
 33 32  1  0  0  0  0
M  END
>  <MODEL>
7

>  <REMARK>
 VINA RESULT:      -8.6      3.408      6.824
  Name = 
  4 active torsions:
  status: ('A' for Active; 'I' for Inactive)
    1  A    between atoms: C_3  and  N_25
    2  A    between atoms: C_7  and  C_11
    3  A    between atoms: C_18  and  C_30
    4  A    between atoms: C_23  and  N_25
                            x       y       z     vdW  Elec       q    Type
                         _______ _______ _______ _____ _____    ______ ____

>  <TORSDO>
F 4

$$$$
=
 OpenBabel11052415533D

 34 39  0  0  1  0  0  0  0  0999 V2000
  189.4640  177.6620  140.2600 C   0  0  0  0  0  0  0  0  0  0  0  0
  191.6340  177.3230  143.1610 C   0  0  0  0  0  3  0  0  0  0  0  0
  192.1330  177.0560  140.8620 O   0  0  0  0  0  0  0  0  0  0  0  0
  188.5760  177.4490  137.5720 N   0  0  0  0  0  0  0  0  0  0  0  0
  188.1160  177.9200  139.8620 N   0  0  0  0  0  2  0  0  0  0  0  0
  190.0310  177.4450  137.7640 C   0  0  2  0  0  3  0  0  0  0  0  0
  192.0240  175.8300  137.3940 C   0  0  0  0  0  2  0  0  0  0  0  0
  190.7010  176.4040  136.8500 C   0  0  0  0  0  2  0  0  0  0  0  0
  187.7010  177.7300  138.5000 C   0  0  0  0  0  0  0  0  0  0  0  0
  191.7150  177.0490  139.5230 C   0  0  0  0  0  0  0  0  0  0  0  0
  190.4420  177.3310  139.2090 C   0  0  0  0  0  0  0  0  0  0  0  0
  192.6910  176.7410  138.4280 C   0  0  0  0  0  2  0  0  0  0  0  0
  190.7030  177.5990  144.2700 C   0  0  0  0  0  0  0  0  0  0  0  0
  189.4170  177.8930  144.0280 C   0  0  0  0  0  3  0  0  0  0  0  0
  191.2310  177.3480  141.8920 C   0  0  1  0  0  3  0  0  0  0  0  0
  188.8320  177.9890  142.6420 C   0  0  0  0  0  3  0  0  0  0  0  0
  189.8250  177.6710  141.5530 C   0  0  0  0  0  0  0  0  0  0  0  0
  184.4090  177.1270  136.7460 C   0  0  0  0  0  3  0  0  0  0  0  0
  185.3900  178.5880  138.9260 C   0  0  0  0  0  3  0  0  0  0  0  0
  181.3050  178.7460  137.9580 C   0  0  0  0  0  0  0  0  0  0  0  0
  182.1810  177.9720  137.1800 C   0  0  0  0  0  3  0  0  0  0  0  0
  183.5390  177.9120  137.5050 C   0  0  0  0  0  0  0  0  0  0  0  0
  183.1600  179.4260  139.3690 C   0  0  0  0  0  3  0  0  0  0  0  0
  184.0310  178.6450  138.6060 C   0  0  0  0  0  0  0  0  0  0  0  0
  181.8000  179.4770  139.0430 C   0  0  0  0  0  3  0  0  0  0  0  0
  186.2680  177.8020  138.1620 C   0  0  0  0  0  0  0  0  0  0  0  0
  185.7660  177.0740  137.0730 C   0  0  0  0  0  3  0  0  0  0  0  0
  179.8590  178.8590  137.6000 C   0  0  0  0  0  3  0  0  0  0  0  0
  179.2300  179.7700  138.4530 O   0  0  0  0  0  1  0  0  0  0  0  0
  179.7100  179.2770  136.2740 O   0  0  0  0  0  1  0  0  0  0  0  0
  191.2010  177.5280  145.6120 N   0  0  0  0  0  2  0  0  0  0  0  0
  190.7380  176.5720  146.6120 C   0  0  0  0  0  3  0  0  0  0  0  0
  191.9310  176.0070  147.3540 C   0  0  0  0  0  1  0  0  0  0  0  0
  189.8160  177.2560  147.6060 C   0  0  0  0  0  1  0  0  0  0  0  0
  1 17  2  0  0  0  0
  2 13  2  0  0  0  0
  3 15  1  0  0  0  0
  4  6  1  0  0  0  0
  4  9  2  0  0  0  0
  5  1  1  0  0  0  0
  6  8  1  6  0  0  0
  6 11  1  0  0  0  0
  7 12  1  0  0  0  0
  8  7  1  0  0  0  0
  9  5  1  0  0  0  0
 10  3  1  0  0  0  0
 11 10  2  0  0  0  0
 11  1  1  0  0  0  0
 12 10  1  0  0  0  0
 13 31  1  0  0  0  0
 14 13  1  0  0  0  0
 15  2  1  1  0  0  0
 16 14  2  0  0  0  0
 17 15  1  0  0  0  0
 17 16  1  0  0  0  0
 18 27  2  0  0  0  0
 18 22  1  0  0  0  0
 20 25  1  0  0  0  0
 21 22  1  0  0  0  0
 21 20  2  0  0  0  0
 22 24  2  0  0  0  0
 24 19  1  0  0  0  0
 24 23  1  0  0  0  0
 25 23  2  0  0  0  0
 26  9  1  0  0  0  0
 26 19  2  0  0  0  0
 27 26  1  0  0  0  0
 28 20  1  0  0  0  0
 28 29  1  0  0  0  0
 30 28  1  0  0  0  0
 31 32  1  0  0  0  0
 32 33  1  0  0  0  0
 32 34  1  0  0  0  0
M  END
>  <MODEL>
8

>  <REMARK>
 VINA RESULT:      -8.4      3.986      9.074
  Name = 
  4 active torsions:
  status: ('A' for Active; 'I' for Inactive)
    1  A    between atoms: C_3  and  N_25
    2  A    between atoms: C_7  and  C_11
    3  A    between atoms: C_18  and  C_30
    4  A    between atoms: C_23  and  N_25
                            x       y       z     vdW  Elec       q    Type
                         _______ _______ _______ _____ _____    ______ ____

>  <TORSDO>
F 4

$$$$
=
 OpenBabel11052415533D

 34 39  0  0  1  0  0  0  0  0999 V2000
  187.9320  177.9400  141.1630 C   0  0  0  0  0  0  0  0  0  0  0  0
  189.4970  177.1820  144.3590 C   0  0  0  0  0  3  0  0  0  0  0  0
  190.4570  177.3040  142.1980 O   0  0  0  0  0  0  0  0  0  0  0  0
  187.6080  178.1480  138.3510 N   0  0  0  0  0  0  0  0  0  0  0  0
  186.6780  178.2300  140.5430 N   0  0  0  0  0  2  0  0  0  0  0  0
  188.9940  178.1460  138.8340 C   0  0  2  0  0  3  0  0  0  0  0  0
  191.1070  176.6580  138.6340 C   0  0  0  0  0  2  0  0  0  0  0  0
  189.8890  177.2830  137.9270 C   0  0  0  0  0  2  0  0  0  0  0  0
  186.5530  178.2560  139.1130 C   0  0  0  0  0  0  0  0  0  0  0  0
  190.3150  177.5060  140.8170 C   0  0  0  0  0  0  0  0  0  0  0  0
  189.1150  177.8070  140.2970 C   0  0  0  0  0  0  0  0  0  0  0  0
  191.5040  177.4020  139.9110 C   0  0  0  0  0  2  0  0  0  0  0  0
  188.3510  177.2520  145.2830 C   0  0  0  0  0  0  0  0  0  0  0  0
  187.1250  177.5530  144.8310 C   0  0  0  0  0  3  0  0  0  0  0  0
  189.3540  177.4040  143.0530 C   0  0  1  0  0  3  0  0  0  0  0  0
  186.8220  177.8610  143.3870 C   0  0  0  0  0  3  0  0  0  0  0  0
  188.0280  177.7460  142.4890 C   0  0  0  0  0  0  0  0  0  0  0  0
  183.5680  177.5250  136.9130 C   0  0  0  0  0  3  0  0  0  0  0  0
  184.3000  179.3290  138.9280 C   0  0  0  0  0  3  0  0  0  0  0  0
  180.4790  179.5510  137.1960 C   0  0  0  0  0  0  0  0  0  0  0  0
  181.3940  178.5820  136.7550 C   0  0  0  0  0  3  0  0  0  0  0  0
  182.6630  178.5010  137.3350 C   0  0  0  0  0  0  0  0  0  0  0  0
  182.1220  180.3810  138.7780 C   0  0  0  0  0  3  0  0  0  0  0  0
  183.0300  179.4080  138.3530 C   0  0  0  0  0  0  0  0  0  0  0  0
  180.8510  180.4530  138.1990 C   0  0  0  0  0  3  0  0  0  0  0  0
  185.2140  178.3500  138.5030 C   0  0  0  0  0  0  0  0  0  0  0  0
  184.8360  177.4510  137.4940 C   0  0  0  0  0  3  0  0  0  0  0  0
  179.1350  179.6820  136.5570 C   0  0  0  0  0  3  0  0  0  0  0  0
  179.0260  180.9310  135.9380 O   0  0  0  0  0  1  0  0  0  0  0  0
  178.9370  178.6710  135.6110 O   0  0  0  0  0  1  0  0  0  0  0  0
  188.5760  176.9740  146.6700 N   0  0  0  0  0  2  0  0  0  0  0  0
  189.2590  177.8770  147.5910 C   0  0  0  0  0  3  0  0  0  0  0  0
  188.4190  178.0450  148.8400 C   0  0  0  0  0  1  0  0  0  0  0  0
  190.6130  177.3100  147.9780 C   0  0  0  0  0  1  0  0  0  0  0  0
  1 17  2  0  0  0  0
  2 13  2  0  0  0  0
  3 15  1  0  0  0  0
  4  6  1  0  0  0  0
  4  9  2  0  0  0  0
  5  1  1  0  0  0  0
  6  8  1  6  0  0  0
  6 11  1  0  0  0  0
  7 12  1  0  0  0  0
  8  7  1  0  0  0  0
  9  5  1  0  0  0  0
 10  3  1  0  0  0  0
 11 10  2  0  0  0  0
 11  1  1  0  0  0  0
 12 10  1  0  0  0  0
 13 31  1  0  0  0  0
 14 13  1  0  0  0  0
 15  2  1  6  0  0  0
 16 14  2  0  0  0  0
 17 15  1  0  0  0  0
 17 16  1  0  0  0  0
 18 22  2  0  0  0  0
 18 27  1  0  0  0  0
 20 25  1  0  0  0  0
 21 20  2  0  0  0  0
 21 22  1  0  0  0  0
 22 24  1  0  0  0  0
 24 23  1  0  0  0  0
 24 19  2  0  0  0  0
 25 23  2  0  0  0  0
 26 19  1  0  0  0  0
 26  9  1  0  0  0  0
 27 26  2  0  0  0  0
 28 20  1  0  0  0  0
 29 28  1  0  0  0  0
 30 28  1  0  0  0  0
 31 32  1  0  0  0  0
 32 34  1  0  0  0  0
 32 33  1  0  0  0  0
M  END
>  <MODEL>
9

>  <REMARK>
 VINA RESULT:      -8.4      4.510      8.708
  Name = 
  4 active torsions:
  status: ('A' for Active; 'I' for Inactive)
    1  A    between atoms: C_3  and  N_25
    2  A    between atoms: C_7  and  C_11
    3  A    between atoms: C_18  and  C_30
    4  A    between atoms: C_23  and  N_25
                            x       y       z     vdW  Elec       q    Type
                         _______ _______ _______ _____ _____    ______ ____

>  <TORSDO>
F 4

$$$$
