=
 OpenBabel11052413453D

 27 30  0  0  1  0  0  0  0  0999 V2000
  189.5360  178.7110  143.2930 C   0  0  0  0  0  2  0  0  0  0  0  0
  191.0350  177.6370  141.5460 C   0  0  0  0  0  0  0  0  0  0  0  0
  188.5680  177.9200  141.2170 C   0  0  0  0  0  2  0  0  0  0  0  0
  191.2880  175.7340  138.0470 N   0  0  0  0  0  0  0  0  0  0  0  0
  189.5730  174.3380  136.8980 C   0  0  0  0  0  1  0  0  0  0  0  0
  192.2640  177.5220  141.0130 C   0  0  0  0  0  3  0  0  0  0  0  0
  189.0420  176.2490  138.5280 C   0  0  2  0  0  3  0  0  0  0  0  0
  188.1000  177.0580  137.6570 C   0  0  0  0  0  1  0  0  0  0  0  0
  189.9710  177.1940  139.2950 C   0  0  2  0  0  3  0  0  0  0  0  0
  190.9080  178.0940  142.9700 C   0  0  2  0  0  3  0  0  0  0  0  0
  189.9620  175.4860  137.6960 N   0  0  0  0  0  0  0  0  0  0  0  0
  191.3140  176.6770  138.9180 C   0  0  0  0  0  0  0  0  0  0  0  0
  188.3950  178.0280  142.6690 N   0  0  0  0  0  0  0  0  0  0  0  0
  189.8060  177.1130  140.8160 C   0  0  1  0  0  3  0  0  0  0  0  0
  192.4630  176.9740  139.7040 N   0  0  0  0  0  2  0  0  0  0  0  0
  192.0670  175.1840  145.9300 C   0  0  0  0  0  3  0  0  0  0  0  0
  191.3300  177.0640  143.9840 C   0  0  0  0  0  0  0  0  0  0  0  0
  191.6690  175.7530  143.6110 C   0  0  0  0  0  3  0  0  0  0  0  0
  192.0390  174.8170  144.5810 C   0  0  0  0  0  3  0  0  0  0  0  0
  191.7260  176.4860  146.3080 C   0  0  0  0  0  3  0  0  0  0  0  0
  191.3570  177.4220  145.3370 C   0  0  0  0  0  3  0  0  0  0  0  0
  188.1730  176.7180  143.2740 C   0  0  0  0  0  2  0  0  0  0  0  0
  187.7080  176.8640  144.7150 C   0  0  0  0  0  2  0  0  0  0  0  0
  186.3900  177.6210  144.8020 C   0  0  0  0  0  2  0  0  0  0  0  0
  186.0650  178.0100  146.2340 C   0  0  1  0  0  3  0  0  0  0  0  0
  187.3320  177.9620  147.0620 C   0  0  0  0  0  1  0  0  0  0  0  0
  185.5480  179.3040  146.2660 O   0  0  0  0  0  1  0  0  0  0  0  0
  2 10  1  0  0  0  0
  3 13  1  0  0  0  0
  4 12  2  0  0  0  0
  5 11  1  0  0  0  0
  6  2  2  0  0  0  0
  7  8  1  6  0  0  0
  7  9  1  0  0  0  0
  9 12  1  1  0  0  0
  9 14  1  0  0  0  0
 10  1  1  0  0  0  0
 10 17  1  1  0  0  0
 11  4  1  0  0  0  0
 11  7  1  0  0  0  0
 12 15  1  0  0  0  0
 13 22  1  0  0  0  0
 13  1  1  0  0  0  0
 14  3  1  1  0  0  0
 14  2  1  0  0  0  0
 15  6  1  0  0  0  0
 16 20  1  0  0  0  0
 17 21  1  0  0  0  0
 18 17  2  0  0  0  0
 18 19  1  0  0  0  0
 19 16  2  0  0  0  0
 21 20  2  0  0  0  0
 22 23  1  0  0  0  0
 23 24  1  0  0  0  0
 24 25  1  0  0  0  0
 25 27  1  0  0  0  0
 25 26  1  1  0  0  0
M  END
>  <MODEL>
1

>  <REMARK>
 VINA RESULT:      -7.6      0.000      0.000
  Name = 
  5 active torsions:
  status: ('A' for Active; 'I' for Inactive)
    1  A    between atoms: C_9  and  C_15
    2  A    between atoms: C_10  and  C_13
    3  A    between atoms: C_10  and  C_20
    4  A    between atoms: N_18  and  C_26
    5  A    between atoms: C_20  and  C_26
                            x       y       z     vdW  Elec       q    Type
                         _______ _______ _______ _____ _____    ______ ____

>  <TORSDO>
F 5

$$$$
=
 OpenBabel11052413453D

 27 30  0  0  1  0  0  0  0  0999 V2000
  189.3860  178.8010  139.3500 C   0  0  0  0  0  2  0  0  0  0  0  0
  190.0000  176.4550  138.5950 C   0  0  0  0  0  0  0  0  0  0  0  0
  187.8420  177.5540  137.9580 C   0  0  0  0  0  2  0  0  0  0  0  0
  188.8630  173.1220  136.7160 N   0  0  0  0  0  0  0  0  0  0  0  0
  186.5610  172.2330  136.3640 C   0  0  0  0  0  1  0  0  0  0  0  0
  190.9680  175.5640  138.3150 C   0  0  0  0  0  3  0  0  0  0  0  0
  187.1350  174.7200  136.6510 C   0  0  2  0  0  3  0  0  0  0  0  0
  186.4670  175.2690  135.4050 C   0  0  0  0  0  1  0  0  0  0  0  0
  188.4820  175.4160  136.8600 C   0  0  2  0  0  3  0  0  0  0  0  0
  190.3140  177.5870  139.5290 C   0  0  2  0  0  3  0  0  0  0  0  0
  187.5120  173.3280  136.4450 N   0  0  0  0  0  0  0  0  0  0  0  0
  189.4150  174.2600  136.9380 C   0  0  0  0  0  0  0  0  0  0  0  0
  187.9770  178.4640  139.1010 N   0  0  0  0  0  0  0  0  0  0  0  0
  188.5600  176.2180  138.1630 C   0  0  1  0  0  3  0  0  0  0  0  0
  190.7020  174.3930  137.5330 N   0  0  0  0  0  2  0  0  0  0  0  0
  190.7440  176.4720  143.6700 C   0  0  0  0  0  3  0  0  0  0  0  0
  190.4490  177.1730  140.9710 C   0  0  0  0  0  0  0  0  0  0  0  0
  189.4720  176.3940  141.6120 C   0  0  0  0  0  3  0  0  0  0  0  0
  189.6210  176.0430  142.9560 C   0  0  0  0  0  3  0  0  0  0  0  0
  191.7170  177.2520  143.0390 C   0  0  0  0  0  3  0  0  0  0  0  0
  191.5680  177.6030  141.6930 C   0  0  0  0  0  3  0  0  0  0  0  0
  187.3510  177.9070  140.2960 C   0  0  0  0  0  2  0  0  0  0  0  0
  187.1100  178.9960  141.3320 C   0  0  0  0  0  2  0  0  0  0  0  0
  185.6380  179.0970  141.7020 C   0  0  0  0  0  2  0  0  0  0  0  0
  184.7430  178.7780  140.5170 C   0  0  1  0  0  3  0  0  0  0  0  0
  183.3630  178.4070  141.0210 C   0  0  0  0  0  1  0  0  0  0  0  0
  184.6410  179.8940  139.6880 O   0  0  0  0  0  1  0  0  0  0  0  0
  1 10  1  0  0  0  0
  2 10  1  0  0  0  0
  3 13  1  0  0  0  0
  4 12  2  0  0  0  0
  5 11  1  0  0  0  0
  6  2  2  0  0  0  0
  7  8  1  6  0  0  0
  7  9  1  0  0  0  0
  9 12  1  1  0  0  0
  9 14  1  0  0  0  0
 10 17  1  1  0  0  0
 11  7  1  0  0  0  0
 11  4  1  0  0  0  0
 12 15  1  0  0  0  0
 13  1  1  0  0  0  0
 13 22  1  0  0  0  0
 14  3  1  6  0  0  0
 14  2  1  0  0  0  0
 15  6  1  0  0  0  0
 17 18  2  0  0  0  0
 17 21  1  0  0  0  0
 18 19  1  0  0  0  0
 19 16  2  0  0  0  0
 20 16  1  0  0  0  0
 21 20  2  0  0  0  0
 22 23  1  0  0  0  0
 23 24  1  0  0  0  0
 25 26  1  1  0  0  0
 25 24  1  0  0  0  0
 27 25  1  0  0  0  0
M  END
>  <MODEL>
2

>  <REMARK>
 VINA RESULT:      -6.0      2.643      3.942
  Name = 
  5 active torsions:
  status: ('A' for Active; 'I' for Inactive)
    1  A    between atoms: C_9  and  C_15
    2  A    between atoms: C_10  and  C_13
    3  A    between atoms: C_10  and  C_20
    4  A    between atoms: N_18  and  C_26
    5  A    between atoms: C_20  and  C_26
                            x       y       z     vdW  Elec       q    Type
                         _______ _______ _______ _____ _____    ______ ____

>  <TORSDO>
F 5

$$$$
=
 OpenBabel11052413453D

 27 30  0  0  1  0  0  0  0  0999 V2000
  189.0500  179.0190  139.7760 C   0  0  0  0  0  2  0  0  0  0  0  0
  190.1310  176.8240  139.0930 C   0  0  0  0  0  0  0  0  0  0  0  0
  187.9270  177.5840  138.1760 C   0  0  0  0  0  2  0  0  0  0  0  0
  189.8070  173.4100  137.0520 N   0  0  0  0  0  0  0  0  0  0  0  0
  187.7460  172.1760  136.3830 C   0  0  0  0  0  1  0  0  0  0  0  0
  191.2580  176.1070  138.9410 C   0  0  0  0  0  3  0  0  0  0  0  0
  187.8680  174.7130  136.7640 C   0  0  2  0  0  3  0  0  0  0  0  0
  187.2910  175.1850  135.4430 C   0  0  0  0  0  1  0  0  0  0  0  0
  189.0450  175.6080  137.1600 C   0  0  2  0  0  3  0  0  0  0  0  0
  190.1300  177.9640  140.0700 C   0  0  2  0  0  3  0  0  0  0  0  0
  188.4880  173.4060  136.6010 N   0  0  0  0  0  0  0  0  0  0  0  0
  190.1330  174.6140  137.3550 C   0  0  0  0  0  0  0  0  0  0  0  0
  187.7600  178.4700  139.3340 N   0  0  0  0  0  0  0  0  0  0  0  0
  188.8180  176.3740  138.4680 C   0  0  1  0  0  3  0  0  0  0  0  0
  191.2910  174.9320  138.1210 N   0  0  0  0  0  2  0  0  0  0  0  0
  190.1230  176.8100  144.2230 C   0  0  0  0  0  3  0  0  0  0  0  0
  190.1370  177.5340  141.5130 C   0  0  0  0  0  0  0  0  0  0  0  0
  189.9220  176.1980  141.8890 C   0  0  0  0  0  3  0  0  0  0  0  0
  189.9180  175.8370  143.2390 C   0  0  0  0  0  3  0  0  0  0  0  0
  190.3320  178.1420  143.8550 C   0  0  0  0  0  3  0  0  0  0  0  0
  190.3370  178.5030  142.5040 C   0  0  0  0  0  3  0  0  0  0  0  0
  187.0780  177.7860  140.4290 C   0  0  0  0  0  2  0  0  0  0  0  0
  186.7580  178.7600  141.5530 C   0  0  0  0  0  2  0  0  0  0  0  0
  186.6270  178.0450  142.8900 C   0  0  0  0  0  2  0  0  0  0  0  0
  185.3040  178.3660  143.5650 C   0  0  1  0  0  3  0  0  0  0  0  0
  185.5200  178.4650  145.0610 C   0  0  0  0  0  1  0  0  0  0  0  0
  184.8170  179.5840  143.0930 O   0  0  0  0  0  1  0  0  0  0  0  0
  1 10  1  0  0  0  0
  2 10  1  0  0  0  0
  3 13  1  0  0  0  0
  4 12  2  0  0  0  0
  5 11  1  0  0  0  0
  6  2  2  0  0  0  0
  7  8  1  6  0  0  0
  7  9  1  0  0  0  0
  9 12  1  1  0  0  0
  9 14  1  0  0  0  0
 10 17  1  1  0  0  0
 11  7  1  0  0  0  0
 11  4  1  0  0  0  0
 12 15  1  0  0  0  0
 13  1  1  0  0  0  0
 13 22  1  0  0  0  0
 14  3  1  6  0  0  0
 14  2  1  0  0  0  0
 15  6  1  0  0  0  0
 17 18  2  0  0  0  0
 17 21  1  0  0  0  0
 18 19  1  0  0  0  0
 19 16  2  0  0  0  0
 20 16  1  0  0  0  0
 21 20  2  0  0  0  0
 22 23  1  0  0  0  0
 23 24  1  0  0  0  0
 24 25  1  0  0  0  0
 25 26  1  1  0  0  0
 27 25  1  0  0  0  0
M  END
>  <MODEL>
3

>  <REMARK>
 VINA RESULT:      -6.0      1.910      2.957
  Name = 
  5 active torsions:
  status: ('A' for Active; 'I' for Inactive)
    1  A    between atoms: C_9  and  C_15
    2  A    between atoms: C_10  and  C_13
    3  A    between atoms: C_10  and  C_20
    4  A    between atoms: N_18  and  C_26
    5  A    between atoms: C_20  and  C_26
                            x       y       z     vdW  Elec       q    Type
                         _______ _______ _______ _____ _____    ______ ____

>  <TORSDO>
F 5

$$$$
=
 OpenBabel11052413453D

 27 30  0  0  1  0  0  0  0  0999 V2000
  185.5370  180.0830  143.2280 C   0  0  0  0  0  2  0  0  0  0  0  0
  184.7960  178.8720  141.1210 C   0  0  0  0  0  0  0  0  0  0  0  0
  183.2540  179.2880  143.0500 C   0  0  0  0  0  2  0  0  0  0  0  0
  181.9090  176.8540  139.2430 N   0  0  0  0  0  0  0  0  0  0  0  0
  180.0400  175.5260  140.2200 C   0  0  0  0  0  1  0  0  0  0  0  0
  184.9660  178.6700  139.8020 C   0  0  0  0  0  3  0  0  0  0  0  0
  181.1780  177.5130  141.3810 C   0  0  2  0  0  3  0  0  0  0  0  0
  179.9510  178.3490  141.6930 C   0  0  0  0  0  1  0  0  0  0  0  0
  182.3160  178.4250  140.9140 C   0  0  2  0  0  3  0  0  0  0  0  0
  185.9580  179.3780  141.9260 C   0  0  2  0  0  3  0  0  0  0  0  0
  180.9300  176.6730  140.2180 N   0  0  0  0  0  0  0  0  0  0  0  0
  182.6750  177.8190  139.6040 C   0  0  0  0  0  0  0  0  0  0  0  0
  184.4150  179.4490  143.9330 N   0  0  0  0  0  0  0  0  0  0  0  0
  183.5390  178.3980  141.8370 C   0  0  1  0  0  3  0  0  0  0  0  0
  183.9390  178.0720  139.0000 N   0  0  0  0  0  2  0  0  0  0  0  0
  189.1150  176.5100  142.5450 C   0  0  0  0  0  3  0  0  0  0  0  0
  187.0410  178.3560  142.1490 C   0  0  0  0  0  0  0  0  0  0  0  0
  186.8850  177.2980  143.0610 C   0  0  0  0  0  3  0  0  0  0  0  0
  187.9180  176.3780  143.2560 C   0  0  0  0  0  3  0  0  0  0  0  0
  189.2770  177.5630  141.6400 C   0  0  0  0  0  3  0  0  0  0  0  0
  188.2430  178.4840  141.4450 C   0  0  0  0  0  3  0  0  0  0  0  0
  184.8160  178.1720  144.5170 C   0  0  0  0  0  2  0  0  0  0  0  0
  184.9310  178.2870  146.0300 C   0  0  0  0  0  2  0  0  0  0  0  0
  186.2580  178.9080  146.4420 C   0  0  0  0  0  2  0  0  0  0  0  0
  187.1840  177.8780  147.0650 C   0  0  1  0  0  3  0  0  0  0  0  0
  188.5030  177.8780  146.3200 C   0  0  0  0  0  1  0  0  0  0  0  0
  187.4160  178.1970  148.4020 O   0  0  0  0  0  1  0  0  0  0  0  0
  1 13  1  0  0  0  0
  2 14  1  0  0  0  0
  2 10  1  0  0  0  0
  3 13  1  0  0  0  0
  4 12  2  0  0  0  0
  4 11  1  0  0  0  0
  6  2  2  0  0  0  0
  7  8  1  6  0  0  0
  9 12  1  6  0  0  0
  9  7  1  0  0  0  0
  9 14  1  0  0  0  0
 10 17  1  1  0  0  0
 10  1  1  0  0  0  0
 11  5  1  0  0  0  0
 11  7  1  0  0  0  0
 13 22  1  0  0  0  0
 14  3  1  1  0  0  0
 15 12  1  0  0  0  0
 15  6  1  0  0  0  0
 16 19  1  0  0  0  0
 17 18  1  0  0  0  0
 18 19  2  0  0  0  0
 20 16  2  0  0  0  0
 21 20  1  0  0  0  0
 21 17  2  0  0  0  0
 22 23  1  0  0  0  0
 23 24  1  0  0  0  0
 24 25  1  0  0  0  0
 25 26  1  6  0  0  0
 25 27  1  0  0  0  0
M  END
>  <MODEL>
4

>  <REMARK>
 VINA RESULT:      -5.8      4.309      6.326
  Name = 
  5 active torsions:
  status: ('A' for Active; 'I' for Inactive)
    1  A    between atoms: C_9  and  C_15
    2  A    between atoms: C_10  and  C_13
    3  A    between atoms: C_10  and  C_20
    4  A    between atoms: N_18  and  C_26
    5  A    between atoms: C_20  and  C_26
                            x       y       z     vdW  Elec       q    Type
                         _______ _______ _______ _____ _____    ______ ____

>  <TORSDO>
F 5

$$$$
=
 OpenBabel11052413453D

 27 30  0  0  1  0  0  0  0  0999 V2000
  189.8870  177.5120  136.8730 C   0  0  0  0  0  2  0  0  0  0  0  0
  187.9220  177.9140  138.4320 C   0  0  0  0  0  0  0  0  0  0  0  0
  190.2530  177.5420  139.2700 C   0  0  0  0  0  2  0  0  0  0  0  0
  186.5920  178.0760  142.1920 N   0  0  0  0  0  0  0  0  0  0  0  0
  187.4890  176.9360  144.2190 C   0  0  0  0  0  1  0  0  0  0  0  0
  186.7020  178.4510  138.6140 C   0  0  0  0  0  3  0  0  0  0  0  0
  188.8930  177.5800  142.1660 C   0  0  2  0  0  3  0  0  0  0  0  0
  189.9890  178.3680  142.8580 C   0  0  0  0  0  1  0  0  0  0  0  0
  188.4960  178.2840  140.8670 C   0  0  2  0  0  3  0  0  0  0  0  0
  188.3590  177.5790  137.0350 C   0  0  2  0  0  3  0  0  0  0  0  0
  187.6690  177.6270  142.9540 N   0  0  0  0  0  0  0  0  0  0  0  0
  187.0290  178.4500  141.0430 C   0  0  0  0  0  0  0  0  0  0  0  0
  190.5960  176.8910  138.0010 N   0  0  0  0  0  0  0  0  0  0  0  0
  188.7630  177.4470  139.6110 C   0  0  1  0  0  3  0  0  0  0  0  0
  186.1750  178.6780  139.9270 N   0  0  0  0  0  2  0  0  0  0  0  0
  186.4380  174.1300  135.3060 C   0  0  0  0  0  3  0  0  0  0  0  0
  187.6640  176.3800  136.4470 C   0  0  0  0  0  0  0  0  0  0  0  0
  186.6860  175.6660  137.1600 C   0  0  0  0  0  3  0  0  0  0  0  0
  186.0740  174.5470  136.5910 C   0  0  0  0  0  3  0  0  0  0  0  0
  187.4140  174.8330  134.5940 C   0  0  0  0  0  3  0  0  0  0  0  0
  188.0250  175.9540  135.1640 C   0  0  0  0  0  3  0  0  0  0  0  0
  190.3370  175.4550  138.0560 C   0  0  0  0  0  2  0  0  0  0  0  0
  191.2870  174.7030  137.1370 C   0  0  0  0  0  2  0  0  0  0  0  0
  192.7130  174.7270  137.6690 C   0  0  0  0  0  2  0  0  0  0  0  0
  193.6390  175.4990  136.7450 C   0  0  1  0  0  3  0  0  0  0  0  0
  192.9840  175.6370  135.3860 C   0  0  0  0  0  1  0  0  0  0  0  0
  193.8760  176.7700  137.2680 O   0  0  0  0  0  1  0  0  0  0  0  0
  1 10  1  0  0  0  0
  1 13  1  0  0  0  0
  2  6  2  0  0  0  0
  2 14  1  0  0  0  0
  4 11  1  0  0  0  0
  6 15  1  0  0  0  0
  7  8  1  1  0  0  0
  7 11  1  0  0  0  0
  9 12  1  1  0  0  0
  9  7  1  0  0  0  0
 10 17  1  1  0  0  0
 10  2  1  0  0  0  0
 11  5  1  0  0  0  0
 12  4  2  0  0  0  0
 13 22  1  0  0  0  0
 13  3  1  0  0  0  0
 14  3  1  6  0  0  0
 14  9  1  0  0  0  0
 15 12  1  0  0  0  0
 16 19  1  0  0  0  0
 17 18  1  0  0  0  0
 19 18  2  0  0  0  0
 20 21  1  0  0  0  0
 20 16  2  0  0  0  0
 21 17  2  0  0  0  0
 23 24  1  0  0  0  0
 23 22  1  0  0  0  0
 25 26  1  6  0  0  0
 25 27  1  0  0  0  0
 25 24  1  0  0  0  0
M  END
>  <MODEL>
5

>  <REMARK>
 VINA RESULT:      -5.8      3.321      8.159
  Name = 
  5 active torsions:
  status: ('A' for Active; 'I' for Inactive)
    1  A    between atoms: C_9  and  C_15
    2  A    between atoms: C_10  and  C_13
    3  A    between atoms: C_10  and  C_20
    4  A    between atoms: N_18  and  C_26
    5  A    between atoms: C_20  and  C_26
                            x       y       z     vdW  Elec       q    Type
                         _______ _______ _______ _____ _____    ______ ____

>  <TORSDO>
F 5

$$$$
=
 OpenBabel11052413453D

 27 30  0  0  1  0  0  0  0  0999 V2000
  182.7600  177.1260  139.8440 C   0  0  0  0  0  2  0  0  0  0  0  0
  181.2880  179.1280  140.3710 C   0  0  0  0  0  0  0  0  0  0  0  0
  182.2430  178.7190  138.0920 C   0  0  0  0  0  2  0  0  0  0  0  0
  179.6900  182.5540  139.0920 N   0  0  0  0  0  0  0  0  0  0  0  0
  180.5070  184.0920  137.3090 C   0  0  0  0  0  1  0  0  0  0  0  0
  180.3220  179.6620  141.1390 C   0  0  0  0  0  3  0  0  0  0  0  0
  180.9670  181.5660  137.3790 C   0  0  2  0  0  3  0  0  0  0  0  0
  180.4750  181.1910  135.9950 C   0  0  0  0  0  1  0  0  0  0  0  0
  180.5310  180.5000  138.3870 C   0  0  2  0  0  3  0  0  0  0  0  0
  182.1090  178.0010  140.9280 C   0  0  2  0  0  3  0  0  0  0  0  0
  180.2800  182.7620  137.8470 N   0  0  0  0  0  0  0  0  0  0  0  0
  179.8090  181.3130  139.4010 C   0  0  0  0  0  0  0  0  0  0  0  0
  183.2790  177.8680  138.6870 N   0  0  0  0  0  0  0  0  0  0  0  0
  181.7030  179.7770  139.0580 C   0  0  1  0  0  3  0  0  0  0  0  0
  179.5880  180.8190  140.7170 N   0  0  0  0  0  2  0  0  0  0  0  0
  184.8500  179.1940  144.0330 C   0  0  0  0  0  3  0  0  0  0  0  0
  183.0870  178.4220  141.9930 C   0  0  0  0  0  0  0  0  0  0  0  0
  184.4700  178.2250  141.8470 C   0  0  0  0  0  3  0  0  0  0  0  0
  185.3480  178.6120  142.8630 C   0  0  0  0  0  3  0  0  0  0  0  0
  183.4740  179.3870  144.1860 C   0  0  0  0  0  3  0  0  0  0  0  0
  182.5950  179.0010  143.1690 C   0  0  0  0  0  3  0  0  0  0  0  0
  184.4590  178.6490  139.0500 C   0  0  0  0  0  2  0  0  0  0  0  0
  185.6490  178.2530  138.1890 C   0  0  0  0  0  2  0  0  0  0  0  0
  186.9420  178.2530  138.9920 C   0  0  0  0  0  2  0  0  0  0  0  0
  188.1600  178.2520  138.0850 C   0  0  1  0  0  3  0  0  0  0  0  0
  187.7220  178.5390  136.6640 C   0  0  0  0  0  1  0  0  0  0  0  0
  189.0550  179.2400  138.4940 O   0  0  0  0  0  1  0  0  0  0  0  0
  1 10  1  0  0  0  0
  2 10  1  0  0  0  0
  2  6  2  0  0  0  0
  3 13  1  0  0  0  0
  4 12  2  0  0  0  0
  5 11  1  0  0  0  0
  7  8  1  6  0  0  0
  7 11  1  0  0  0  0
  7  9  1  0  0  0  0
  9 14  1  0  0  0  0
  9 12  1  1  0  0  0
 10 17  1  1  0  0  0
 11  4  1  0  0  0  0
 12 15  1  0  0  0  0
 13 22  1  0  0  0  0
 13  1  1  0  0  0  0
 14  3  1  6  0  0  0
 14  2  1  0  0  0  0
 15  6  1  0  0  0  0
 16 20  1  0  0  0  0
 17 21  1  0  0  0  0
 18 17  2  0  0  0  0
 18 19  1  0  0  0  0
 19 16  2  0  0  0  0
 21 20  2  0  0  0  0
 23 24  1  0  0  0  0
 23 22  1  0  0  0  0
 25 26  1  6  0  0  0
 25 27  1  0  0  0  0
 25 24  1  0  0  0  0
M  END
>  <MODEL>
6

>  <REMARK>
 VINA RESULT:      -5.7      6.675      9.576
  Name = 
  5 active torsions:
  status: ('A' for Active; 'I' for Inactive)
    1  A    between atoms: C_9  and  C_15
    2  A    between atoms: C_10  and  C_13
    3  A    between atoms: C_10  and  C_20
    4  A    between atoms: N_18  and  C_26
    5  A    between atoms: C_20  and  C_26
                            x       y       z     vdW  Elec       q    Type
                         _______ _______ _______ _____ _____    ______ ____

>  <TORSDO>
F 5

$$$$
=
 OpenBabel11052413453D

 27 30  0  0  1  0  0  0  0  0999 V2000
  189.0480  178.6410  137.3910 C   0  0  0  0  0  2  0  0  0  0  0  0
  187.6680  176.9710  136.0640 C   0  0  0  0  0  0  0  0  0  0  0  0
  186.7160  178.3040  137.9580 C   0  0  0  0  0  2  0  0  0  0  0  0
  184.1880  175.0610  135.6510 N   0  0  0  0  0  0  0  0  0  0  0  0
  182.4770  174.5350  137.3850 C   0  0  0  0  0  1  0  0  0  0  0  0
  187.4790  176.3120  134.9070 C   0  0  0  0  0  3  0  0  0  0  0  0
  184.0950  176.5270  137.4910 C   0  0  2  0  0  3  0  0  0  0  0  0
  183.0920  177.6450  137.6980 C   0  0  0  0  0  1  0  0  0  0  0  0
  185.1800  176.9850  136.5130 C   0  0  2  0  0  3  0  0  0  0  0  0
  189.0450  177.4740  136.3880 C   0  0  2  0  0  3  0  0  0  0  0  0
  183.4680  175.4150  136.7900 N   0  0  0  0  0  0  0  0  0  0  0  0
  185.1280  175.9190  135.4770 C   0  0  0  0  0  0  0  0  0  0  0  0
  188.0700  178.5150  138.4800 N   0  0  0  0  0  0  0  0  0  0  0  0
  186.5820  177.0240  137.1290 C   0  0  1  0  0  3  0  0  0  0  0  0
  186.2230  175.6980  134.5940 N   0  0  0  0  0  2  0  0  0  0  0  0
  191.8780  174.4250  137.5100 C   0  0  0  0  0  3  0  0  0  0  0  0
  190.0210  176.3900  136.7630 C   0  0  0  0  0  0  0  0  0  0  0  0
  189.6540  175.0340  136.7720 C   0  0  0  0  0  3  0  0  0  0  0  0
  190.5810  174.0550  137.1420 C   0  0  0  0  0  3  0  0  0  0  0  0
  192.2470  175.7740  137.5080 C   0  0  0  0  0  3  0  0  0  0  0  0
  191.3200  176.7530  137.1370 C   0  0  0  0  0  3  0  0  0  0  0  0
  188.4500  177.4530  139.4080 C   0  0  0  0  0  2  0  0  0  0  0  0
  189.6220  177.8920  140.2730 C   0  0  0  0  0  2  0  0  0  0  0  0
  190.4620  176.7030  140.7190 C   0  0  0  0  0  2  0  0  0  0  0  0
  190.6350  176.6780  142.2270 C   0  0  1  0  0  3  0  0  0  0  0  0
  189.7810  177.7670  142.8440 C   0  0  0  0  0  1  0  0  0  0  0  0
  190.2300  175.4420  142.7290 O   0  0  0  0  0  1  0  0  0  0  0  0
  1 13  1  0  0  0  0
  2 10  1  0  0  0  0
  2 14  1  0  0  0  0
  3 13  1  0  0  0  0
  4 11  1  0  0  0  0
  6  2  2  0  0  0  0
  7  8  1  6  0  0  0
  9 12  1  6  0  0  0
  9 14  1  0  0  0  0
  9  7  1  0  0  0  0
 10 17  1  1  0  0  0
 10  1  1  0  0  0  0
 11  5  1  0  0  0  0
 11  7  1  0  0  0  0
 12  4  2  0  0  0  0
 13 22  1  0  0  0  0
 14  3  1  6  0  0  0
 15  6  1  0  0  0  0
 15 12  1  0  0  0  0
 17 18  2  0  0  0  0
 17 21  1  0  0  0  0
 18 19  1  0  0  0  0
 19 16  2  0  0  0  0
 20 16  1  0  0  0  0
 21 20  2  0  0  0  0
 22 23  1  0  0  0  0
 23 24  1  0  0  0  0
 24 25  1  0  0  0  0
 25 27  1  0  0  0  0
 25 26  1  1  0  0  0
M  END
>  <MODEL>
7

>  <REMARK>
 VINA RESULT:      -5.6      3.443      6.550
  Name = 
  5 active torsions:
  status: ('A' for Active; 'I' for Inactive)
    1  A    between atoms: C_9  and  C_15
    2  A    between atoms: C_10  and  C_13
    3  A    between atoms: C_10  and  C_20
    4  A    between atoms: N_18  and  C_26
    5  A    between atoms: C_20  and  C_26
                            x       y       z     vdW  Elec       q    Type
                         _______ _______ _______ _____ _____    ______ ____

>  <TORSDO>
F 5

$$$$
=
 OpenBabel11052413453D

 27 30  0  0  1  0  0  0  0  0999 V2000
  188.2390  178.5720  136.6600 C   0  0  0  0  0  2  0  0  0  0  0  0
  186.6790  178.5210  138.6640 C   0  0  0  0  0  0  0  0  0  0  0  0
  189.1660  178.3300  138.8860 C   0  0  0  0  0  2  0  0  0  0  0  0
  186.2840  178.0210  142.6040 N   0  0  0  0  0  0  0  0  0  0  0  0
  187.7400  176.7430  144.1720 C   0  0  0  0  0  1  0  0  0  0  0  0
  185.4970  178.8750  139.1980 C   0  0  0  0  0  3  0  0  0  0  0  0
  188.5460  177.8190  141.9840 C   0  0  2  0  0  3  0  0  0  0  0  0
  189.7020  178.6370  142.5260 C   0  0  0  0  0  1  0  0  0  0  0  0
  187.7870  178.6350  140.9340 C   0  0  2  0  0  3  0  0  0  0  0  0
  186.7950  178.4300  137.1700 C   0  0  2  0  0  3  0  0  0  0  0  0
  187.5480  177.6120  143.0240 N   0  0  0  0  0  0  0  0  0  0  0  0
  186.3970  178.5940  141.4600 C   0  0  0  0  0  0  0  0  0  0  0  0
  189.2500  177.8990  137.4870 N   0  0  0  0  0  0  0  0  0  0  0  0
  187.8180  178.0090  139.5350 C   0  0  1  0  0  3  0  0  0  0  0  0
  185.2830  178.8620  140.6150 N   0  0  0  0  0  2  0  0  0  0  0  0
  184.8230  175.0330  135.3960 C   0  0  0  0  0  3  0  0  0  0  0  0
  186.0870  177.2420  136.5720 C   0  0  0  0  0  0  0  0  0  0  0  0
  185.4480  176.2810  137.3730 C   0  0  0  0  0  3  0  0  0  0  0  0
  184.8160  175.1820  136.7860 C   0  0  0  0  0  3  0  0  0  0  0  0
  185.4620  175.9840  134.5940 C   0  0  0  0  0  3  0  0  0  0  0  0
  186.0930  177.0840  135.1820 C   0  0  0  0  0  3  0  0  0  0  0  0
  189.1400  176.4470  137.3730 C   0  0  0  0  0  2  0  0  0  0  0  0
  189.5120  175.9900  135.9700 C   0  0  0  0  0  2  0  0  0  0  0  0
  188.8570  174.6600  135.6260 C   0  0  0  0  0  2  0  0  0  0  0  0
  188.6460  173.8070  136.8650 C   0  0  1  0  0  3  0  0  0  0  0  0
  187.5710  172.7780  136.5840 C   0  0  0  0  0  1  0  0  0  0  0  0
  189.8310  173.1500  137.1940 O   0  0  0  0  0  1  0  0  0  0  0  0
  1 10  1  0  0  0  0
  1 13  1  0  0  0  0
  2  6  2  0  0  0  0
  2 14  1  0  0  0  0
  4 11  1  0  0  0  0
  6 15  1  0  0  0  0
  7  8  1  1  0  0  0
  7 11  1  0  0  0  0
  9 12  1  1  0  0  0
  9  7  1  0  0  0  0
 10 17  1  1  0  0  0
 10  2  1  0  0  0  0
 11  5  1  0  0  0  0
 12  4  2  0  0  0  0
 13  3  1  0  0  0  0
 14  3  1  6  0  0  0
 14  9  1  0  0  0  0
 15 12  1  0  0  0  0
 16 19  1  0  0  0  0
 17 18  1  0  0  0  0
 19 18  2  0  0  0  0
 20 21  1  0  0  0  0
 20 16  2  0  0  0  0
 21 17  2  0  0  0  0
 22 13  1  0  0  0  0
 23 22  1  0  0  0  0
 24 23  1  0  0  0  0
 24 25  1  0  0  0  0
 25 26  1  6  0  0  0
 25 27  1  0  0  0  0
M  END
>  <MODEL>
8

>  <REMARK>
 VINA RESULT:      -5.5      3.484      8.295
  Name = 
  5 active torsions:
  status: ('A' for Active; 'I' for Inactive)
    1  A    between atoms: C_9  and  C_15
    2  A    between atoms: C_10  and  C_13
    3  A    between atoms: C_10  and  C_20
    4  A    between atoms: N_18  and  C_26
    5  A    between atoms: C_20  and  C_26
                            x       y       z     vdW  Elec       q    Type
                         _______ _______ _______ _____ _____    ______ ____

>  <TORSDO>
F 5

$$$$
=
 OpenBabel11052413453D

 27 30  0  0  1  0  0  0  0  0999 V2000
  186.4960  174.8930  134.9770 C   0  0  0  0  0  2  0  0  0  0  0  0
  186.9700  176.9180  136.4360 C   0  0  0  0  0  0  0  0  0  0  0  0
  188.4470  174.8950  136.4160 C   0  0  0  0  0  2  0  0  0  0  0  0
  189.2350  178.5490  139.2890 N   0  0  0  0  0  0  0  0  0  0  0  0
  190.5640  177.4180  141.0690 C   0  0  0  0  0  1  0  0  0  0  0  0
  186.8270  178.2400  136.6330 C   0  0  0  0  0  3  0  0  0  0  0  0
  189.9980  176.3790  138.7890 C   0  0  2  0  0  3  0  0  0  0  0  0
  191.3970  176.0010  138.3400 C   0  0  0  0  0  1  0  0  0  0  0  0
  189.2130  176.9430  137.6020 C   0  0  2  0  0  3  0  0  0  0  0  0
  185.9640  176.2050  135.5780 C   0  0  2  0  0  3  0  0  0  0  0  0
  190.0560  177.5050  139.7110 N   0  0  0  0  0  0  0  0  0  0  0  0
  188.7690  178.2610  138.1270 C   0  0  0  0  0  0  0  0  0  0  0  0
  187.3350  174.0990  135.8850 N   0  0  0  0  0  0  0  0  0  0  0  0
  187.9840  176.1070  137.2300 C   0  0  1  0  0  3  0  0  0  0  0  0
  187.6760  178.9570  137.5380 N   0  0  0  0  0  2  0  0  0  0  0  0
  182.0850  175.6650  137.3770 C   0  0  0  0  0  3  0  0  0  0  0  0
  184.6160  176.0370  136.2260 C   0  0  0  0  0  0  0  0  0  0  0  0
  184.4160  176.2780  137.5960 C   0  0  0  0  0  3  0  0  0  0  0  0
  183.1550  176.0950  138.1680 C   0  0  0  0  0  3  0  0  0  0  0  0
  182.2780  175.4190  136.0140 C   0  0  0  0  0  3  0  0  0  0  0  0
  183.5410  175.6030  135.4420 C   0  0  0  0  0  3  0  0  0  0  0  0
  186.5390  173.5170  136.9620 C   0  0  0  0  0  2  0  0  0  0  0  0
  185.5760  172.4750  136.4140 C   0  0  0  0  0  2  0  0  0  0  0  0
  184.2840  172.4320  137.2180 C   0  0  0  0  0  2  0  0  0  0  0  0
  183.2110  171.6290  136.5030 C   0  0  1  0  0  3  0  0  0  0  0  0
  181.8760  171.8760  137.1730 C   0  0  0  0  0  1  0  0  0  0  0  0
  183.1330  172.0270  135.1690 O   0  0  0  0  0  1  0  0  0  0  0  0
  1 10  1  0  0  0  0
  1 13  1  0  0  0  0
  2  6  2  0  0  0  0
  2 14  1  0  0  0  0
  4 11  1  0  0  0  0
  6 15  1  0  0  0  0
  7  8  1  6  0  0  0
  7 11  1  0  0  0  0
  9 12  1  1  0  0  0
  9  7  1  0  0  0  0
 10 17  1  1  0  0  0
 10  2  1  0  0  0  0
 11  5  1  0  0  0  0
 12  4  2  0  0  0  0
 13  3  1  0  0  0  0
 13 22  1  0  0  0  0
 14  3  1  6  0  0  0
 14  9  1  0  0  0  0
 15 12  1  0  0  0  0
 16 19  1  0  0  0  0
 17 18  1  0  0  0  0
 18 19  2  0  0  0  0
 20 16  2  0  0  0  0
 21 20  1  0  0  0  0
 21 17  2  0  0  0  0
 23 22  1  0  0  0  0
 23 24  1  0  0  0  0
 25 26  1  1  0  0  0
 25 24  1  0  0  0  0
 27 25  1  0  0  0  0
M  END
>  <MODEL>
9

>  <REMARK>
 VINA RESULT:      -5.3      4.727      8.737
  Name = 
  5 active torsions:
  status: ('A' for Active; 'I' for Inactive)
    1  A    between atoms: C_9  and  C_15
    2  A    between atoms: C_10  and  C_13
    3  A    between atoms: C_10  and  C_20
    4  A    between atoms: N_18  and  C_26
    5  A    between atoms: C_20  and  C_26
                            x       y       z     vdW  Elec       q    Type
                         _______ _______ _______ _____ _____    ______ ____

>  <TORSDO>
F 5

$$$$
