=
 OpenBabel11052416023D

 34 39  0  0  1  0  0  0  0  0999 V2000
  182.8880  176.0130  138.2810 C   0  0  1  0  0  3  0  0  0  0  0  0
  182.8910  178.2220  139.4130 C   0  0  0  0  0  0  0  0  0  0  0  0
  180.2840  177.9100  141.9940 C   0  0  0  0  0  0  0  0  0  0  0  0
  179.8750  176.6770  136.1330 C   0  0  2  0  0  3  0  0  0  0  0  0
  184.6360  177.8780  137.7540 C   0  0  1  0  0  3  0  0  0  0  0  0
  181.9530  178.2460  135.7500 C   0  0  0  0  0  2  0  0  0  0  0  0
  178.9850  179.6120  138.3800 C   0  0  1  0  0  3  0  0  0  0  0  0
  182.8270  175.2850  135.9330 C   0  0  2  0  0  3  0  0  0  0  0  0
  182.1500  175.1250  137.2900 C   0  0  0  0  0  2  0  0  0  0  0  0
  184.0610  176.1450  136.1280 C   0  0  2  0  0  3  0  0  0  0  0  0
  179.9180  180.5720  137.6620 C   0  0  0  0  0  0  0  0  0  0  0  0
  186.6350  176.1240  136.0260 C   0  0  0  0  0  2  0  0  0  0  0  0
  180.5850  178.8570  143.1040 C   0  0  0  0  0  1  0  0  0  0  0  0
  179.2600  178.1660  138.0340 C   0  0  2  0  0  3  0  0  0  0  0  0
  179.5350  181.7080  137.4330 O   0  0  0  0  0  0  0  0  0  0  0  0
  179.2390  177.8780  136.7300 C   0  0  0  0  0  2  0  0  0  0  0  0
  185.3150  175.5290  135.5060 C   0  0  0  0  0  2  0  0  0  0  0  0
  181.8970  175.8650  134.8450 C   0  0  0  0  0  2  0  0  0  0  0  0
  186.1430  178.0420  137.5920 C   0  0  0  0  0  2  0  0  0  0  0  0
  184.2170  176.4040  137.6090 C   0  0  2  0  0  3  0  0  0  0  0  0
  178.9310  179.9080  139.8670 C   0  0  0  0  0  1  0  0  0  0  0  0
  186.6040  177.6460  136.1860 C   0  0  0  0  0  2  0  0  0  0  0  0
  182.2860  178.7040  140.6710 C   0  0  0  0  0  2  0  0  0  0  0  0
  179.3160  177.1150  142.1190 O   0  0  0  0  0  0  0  0  0  0  0  0
  181.0790  177.9060  140.7940 N   0  0  0  0  0  0  0  0  0  0  0  0
  181.2980  180.1630  137.2120 C   0  0  0  0  0  2  0  0  0  0  0  0
  180.8990  176.9450  139.6990 C   0  0  2  0  0  0  0  0  0  0  0  0
  181.2860  179.6210  135.7820 C   0  0  0  0  0  2  0  0  0  0  0  0
  179.5000  177.0770  139.0650 C   0  0  0  0  0  2  0  0  0  0  0  0
  181.0550  177.0990  135.2270 C   0  0  1  0  0  3  0  0  0  0  0  0
  178.9310  175.9770  135.3820 O   0  0  0  0  0  1  0  0  0  0  0  0
  184.1390  178.4990  139.0260 C   0  0  0  0  0  3  0  0  0  0  0  0
  181.0170  175.6500  140.2170 O   0  0  0  0  0  1  0  0  0  0  0  0
  182.0350  177.2330  138.6950 C   0  0  2  0  0  3  0  0  0  0  0  0
  1  9  1  6  0  0  0
  1 34  1  0  0  0  0
  2 23  1  0  0  0  0
  3 24  2  0  0  0  0
  3 13  1  0  0  0  0
  4 31  1  6  0  0  0
  4 16  1  0  0  0  0
  5 19  1  1  0  0  0
  5 32  1  0  0  0  0
  6 28  1  0  0  0  0
  7 21  1  1  0  0  0
  8 18  1  6  0  0  0
  8 10  1  0  0  0  0
  8  9  1  0  0  0  0
 10 17  1  1  0  0  0
 10 20  1  0  0  0  0
 11  7  1  0  0  0  0
 12 22  1  0  0  0  0
 14 16  1  1  0  0  0
 14  7  1  0  0  0  0
 14 29  1  0  0  0  0
 15 11  2  0  0  0  0
 17 12  1  0  0  0  0
 18 30  1  0  0  0  0
 20  5  1  0  0  0  0
 20  1  1  0  0  0  0
 22 19  1  0  0  0  0
 23 25  1  0  0  0  0
 25  3  1  0  0  0  0
 26 11  1  0  0  0  0
 27 33  1  0  0  0  0
 27 25  1  0  0  0  0
 28 26  1  0  0  0  0
 29 27  1  0  0  0  0
 30  6  1  0  0  0  0
 30  4  1  0  0  0  0
 32  2  2  0  0  0  0
 34  2  1  0  0  0  0
 34 27  1  0  0  0  0
M  END
>  <MODEL>
1

>  <REMARK>
 VINA RESULT:      -5.4      0.000      0.000
  Name = 
  0 active torsions:
  status: ('A' for Active; 'I' for Inactive)
                            x       y       z     vdW  Elec       q    Type
                         _______ _______ _______ _____ _____    ______ ____

>  <TORSDO>
F 0

$$$$
=
 OpenBabel11052416023D

 34 39  0  0  1  0  0  0  0  0999 V2000
  179.3070  178.7220  137.4410 C   0  0  1  0  0  3  0  0  0  0  0  0
  181.0310  177.9150  135.8480 C   0  0  0  0  0  0  0  0  0  0  0  0
  180.7760  174.2470  136.0340 C   0  0  0  0  0  0  0  0  0  0  0  0
  181.3500  178.1640  140.5480 C   0  0  2  0  0  3  0  0  0  0  0  0
  180.6750  180.3200  135.8970 C   0  0  1  0  0  3  0  0  0  0  0  0
  182.3130  179.8890  138.8090 C   0  0  0  0  0  2  0  0  0  0  0  0
  183.6910  175.9350  138.5440 C   0  0  1  0  0  3  0  0  0  0  0  0
  179.2930  180.3630  139.2730 C   0  0  2  0  0  3  0  0  0  0  0  0
  178.9670  178.9180  138.9120 C   0  0  0  0  0  2  0  0  0  0  0  0
  179.6840  181.0840  137.9980 C   0  0  2  0  0  3  0  0  0  0  0  0
  184.5070  177.1010  138.0140 C   0  0  0  0  0  0  0  0  0  0  0  0
  178.9690  182.9510  136.3730 C   0  0  0  0  0  2  0  0  0  0  0  0
  181.2610  173.6610  134.7530 C   0  0  0  0  0  1  0  0  0  0  0  0
  182.3770  176.3730  139.1500 C   0  0  2  0  0  3  0  0  0  0  0  0
  185.7220  177.0000  137.9690 O   0  0  0  0  0  0  0  0  0  0  0  0
  182.4720  177.2940  140.1140 C   0  0  0  0  0  2  0  0  0  0  0  0
  178.9330  182.4030  137.8100 C   0  0  0  0  0  2  0  0  0  0  0  0
  180.3840  180.4950  140.3580 C   0  0  0  0  0  2  0  0  0  0  0  0
  180.4460  181.4880  134.9420 C   0  0  0  0  0  2  0  0  0  0  0  0
  179.4760  180.1310  136.8430 C   0  0  2  0  0  3  0  0  0  0  0  0
  183.5740  174.8310  137.5100 C   0  0  0  0  0  1  0  0  0  0  0  0
  180.3340  182.8160  135.6950 C   0  0  0  0  0  2  0  0  0  0  0  0
  181.3040  176.5920  135.2520 C   0  0  0  0  0  2  0  0  0  0  0  0
  180.2830  173.4810  136.9040 O   0  0  0  0  0  0  0  0  0  0  0  0
  180.8750  175.6610  136.2820 N   0  0  0  0  0  0  0  0  0  0  0  0
  183.8640  178.3860  137.5530 C   0  0  0  0  0  2  0  0  0  0  0  0
  180.3390  176.3200  137.4790 C   0  0  2  0  0  0  0  0  0  0  0  0
  183.7580  179.4020  138.6900 C   0  0  0  0  0  2  0  0  0  0  0  0
  181.0270  175.8000  138.7570 C   0  0  0  0  0  2  0  0  0  0  0  0
  181.6530  179.6360  140.1850 C   0  0  1  0  0  3  0  0  0  0  0  0
  181.1760  178.0430  141.9260 O   0  0  0  0  0  1  0  0  0  0  0  0
  181.0410  179.0630  135.1660 C   0  0  0  0  0  3  0  0  0  0  0  0
  178.9740  176.0300  137.5750 O   0  0  0  0  0  1  0  0  0  0  0  0
  180.5570  177.8330  137.2610 C   0  0  2  0  0  3  0  0  0  0  0  0
  1  9  1  1  0  0  0
  2 34  1  0  0  0  0
  3 25  1  0  0  0  0
  3 24  2  0  0  0  0
  4 31  1  1  0  0  0
  5 19  1  6  0  0  0
  5 20  1  0  0  0  0
  6 30  1  0  0  0  0
  7 21  1  6  0  0  0
  7 14  1  0  0  0  0
  8  9  1  6  0  0  0
  8 18  1  0  0  0  0
 10 17  1  6  0  0  0
 10  8  1  0  0  0  0
 11  7  1  0  0  0  0
 12 17  1  0  0  0  0
 13  3  1  0  0  0  0
 14 29  1  1  0  0  0
 14 16  1  0  0  0  0
 15 11  2  0  0  0  0
 16  4  1  0  0  0  0
 19 22  1  0  0  0  0
 20  1  1  0  0  0  0
 20 10  1  0  0  0  0
 22 12  1  0  0  0  0
 23  2  1  0  0  0  0
 23 25  1  0  0  0  0
 25 27  1  0  0  0  0
 26 11  1  0  0  0  0
 26 28  1  0  0  0  0
 27 33  1  0  0  0  0
 27 29  1  0  0  0  0
 28  6  1  0  0  0  0
 30 18  1  0  0  0  0
 30  4  1  0  0  0  0
 32  2  2  0  0  0  0
 32  5  1  0  0  0  0
 34  1  1  0  0  0  0
 34 27  1  0  0  0  0
M  END
>  <MODEL>
2

>  <REMARK>
 VINA RESULT:      -4.7      2.092      6.075
  Name = 
  0 active torsions:
  status: ('A' for Active; 'I' for Inactive)
                            x       y       z     vdW  Elec       q    Type
                         _______ _______ _______ _____ _____    ______ ____

>  <TORSDO>
F 0

$$$$
=
 OpenBabel11052416023D

 34 39  0  0  1  0  0  0  0  0999 V2000
  181.7780  176.6320  140.2990 C   0  0  1  0  0  3  0  0  0  0  0  0
  179.8310  176.9060  138.7820 C   0  0  0  0  0  0  0  0  0  0  0  0
  180.2640  174.2390  136.2810 C   0  0  0  0  0  0  0  0  0  0  0  0
  184.2640  178.3470  138.0600 C   0  0  2  0  0  3  0  0  0  0  0  0
  179.8500  178.3320  140.7520 C   0  0  1  0  0  3  0  0  0  0  0  0
  182.2490  179.8120  138.9070 C   0  0  0  0  0  2  0  0  0  0  0  0
  181.8340  177.9720  135.1600 C   0  0  1  0  0  3  0  0  0  0  0  0
  183.4640  178.1650  141.2250 C   0  0  2  0  0  3  0  0  0  0  0  0
  183.2740  176.8620  140.4560 C   0  0  0  0  0  2  0  0  0  0  0  0
  182.0950  178.6470  141.6670 C   0  0  2  0  0  3  0  0  0  0  0  0
  181.0500  179.2190  135.5270 C   0  0  0  0  0  0  0  0  0  0  0  0
  180.6220  179.0810  143.7360 C   0  0  0  0  0  2  0  0  0  0  0  0
  178.9310  173.8830  135.7170 C   0  0  0  0  0  1  0  0  0  0  0  0
  182.7390  177.5050  136.2770 C   0  0  2  0  0  3  0  0  0  0  0  0
  180.6930  179.9760  134.6380 O   0  0  0  0  0  0  0  0  0  0  0  0
  183.5970  178.4210  136.7360 C   0  0  0  0  0  2  0  0  0  0  0  0
  182.0440  179.0000  143.1540 C   0  0  0  0  0  2  0  0  0  0  0  0
  184.2160  179.2490  140.4240 C   0  0  0  0  0  2  0  0  0  0  0  0
  178.9310  178.7680  141.8890 C   0  0  0  0  0  2  0  0  0  0  0  0
  181.0850  177.5880  141.2880 C   0  0  2  0  0  3  0  0  0  0  0  0
  180.9230  176.8980  134.5940 C   0  0  0  0  0  1  0  0  0  0  0  0
  179.6180  179.7760  142.8130 C   0  0  0  0  0  2  0  0  0  0  0  0
  179.2520  176.0470  137.7310 C   0  0  0  0  0  2  0  0  0  0  0  0
  181.2700  173.5650  135.9350 O   0  0  0  0  0  0  0  0  0  0  0  0
  180.4050  175.3390  137.1990 N   0  0  0  0  0  0  0  0  0  0  0  0
  180.7080  179.5610  136.9560 C   0  0  0  0  0  2  0  0  0  0  0  0
  181.6650  175.6930  137.8620 C   0  0  2  0  0  0  0  0  0  0  0  0
  181.7810  180.4440  137.5950 C   0  0  0  0  0  2  0  0  0  0  0  0
  182.7430  176.0930  136.8350 C   0  0  0  0  0  2  0  0  0  0  0  0
  183.7610  179.4910  138.9710 C   0  0  1  0  0  3  0  0  0  0  0  0
  185.6450  178.4510  137.8890 O   0  0  0  0  0  1  0  0  0  0  0  0
  179.1130  177.5530  139.7040 C   0  0  0  0  0  3  0  0  0  0  0  0
  182.1300  174.5740  138.5620 O   0  0  0  0  0  1  0  0  0  0  0  0
  181.3210  176.8390  138.8380 C   0  0  2  0  0  3  0  0  0  0  0  0
  1  9  1  6  0  0  0
  1 20  1  0  0  0  0
  2 34  1  0  0  0  0
  2 32  2  0  0  0  0
  3 25  1  0  0  0  0
  4 31  1  6  0  0  0
  4 30  1  0  0  0  0
  5 32  1  6  0  0  0
  5 20  1  0  0  0  0
  5 19  1  0  0  0  0
  6 30  1  0  0  0  0
  7 21  1  1  0  0  0
  7 11  1  0  0  0  0
  7 14  1  0  0  0  0
  8 18  1  6  0  0  0
  8 10  1  0  0  0  0
  9  8  1  0  0  0  0
 10 17  1  1  0  0  0
 11 26  1  0  0  0  0
 13  3  1  0  0  0  0
 14 16  1  6  0  0  0
 14 29  1  0  0  0  0
 15 11  2  0  0  0  0
 16  4  1  0  0  0  0
 17 12  1  0  0  0  0
 19 22  1  0  0  0  0
 20 10  1  0  0  0  0
 22 12  1  0  0  0  0
 23  2  1  0  0  0  0
 24  3  2  0  0  0  0
 25 23  1  0  0  0  0
 25 27  1  0  0  0  0
 26 28  1  0  0  0  0
 27 33  1  0  0  0  0
 27 34  1  0  0  0  0
 28  6  1  0  0  0  0
 29 27  1  0  0  0  0
 30 18  1  0  0  0  0
 34  1  1  0  0  0  0
M  END
>  <MODEL>
3

>  <REMARK>
 VINA RESULT:      -4.6      2.139      5.673
  Name = 
  0 active torsions:
  status: ('A' for Active; 'I' for Inactive)
                            x       y       z     vdW  Elec       q    Type
                         _______ _______ _______ _____ _____    ______ ____

>  <TORSDO>
F 0

$$$$
=
 OpenBabel11052416023D

 34 39  0  0  1  0  0  0  0  0999 V2000
  179.7960  178.3620  137.8340 C   0  0  1  0  0  3  0  0  0  0  0  0
  180.2880  176.9700  135.8380 C   0  0  0  0  0  0  0  0  0  0  0  0
  179.2800  173.5740  136.8450 C   0  0  0  0  0  0  0  0  0  0  0  0
  182.8800  177.3970  139.7550 C   0  0  2  0  0  3  0  0  0  0  0  0
  180.5890  179.3660  135.5590 C   0  0  1  0  0  3  0  0  0  0  0  0
  183.2680  178.6340  137.4650 C   0  0  0  0  0  2  0  0  0  0  0  0
  183.3520  174.4400  137.4110 C   0  0  1  0  0  3  0  0  0  0  0  0
  181.0610  180.0380  139.1140 C   0  0  2  0  0  3  0  0  0  0  0  0
  180.2650  178.7420  139.2300 C   0  0  0  0  0  2  0  0  0  0  0  0
  180.9490  180.5240  137.6820 C   0  0  2  0  0  3  0  0  0  0  0  0
  184.0640  175.2660  136.3540 C   0  0  0  0  0  0  0  0  0  0  0  0
  180.0130  182.4170  136.2070 C   0  0  0  0  0  2  0  0  0  0  0  0
  178.9310  172.7910  135.6260 C   0  0  0  0  0  1  0  0  0  0  0  0
  182.6410  175.2950  138.4360 C   0  0  2  0  0  3  0  0  0  0  0  0
  185.0420  174.7950  135.7970 O   0  0  0  0  0  0  0  0  0  0  0  0
  183.4080  176.2000  139.0530 C   0  0  0  0  0  2  0  0  0  0  0  0
  180.5440  181.9960  137.5880 C   0  0  0  0  0  2  0  0  0  0  0  0
  182.5350  179.8960  139.5530 C   0  0  0  0  0  2  0  0  0  0  0  0
  180.2170  180.4870  134.5940 C   0  0  0  0  0  2  0  0  0  0  0  0
  179.9890  179.6120  136.9550 C   0  0  2  0  0  3  0  0  0  0  0  0
  182.4890  173.3640  136.7790 C   0  0  0  0  0  1  0  0  0  0  0  0
  180.8040  181.8300  135.0370 C   0  0  0  0  0  2  0  0  0  0  0  0
  179.9120  175.5930  135.4600 C   0  0  0  0  0  2  0  0  0  0  0  0
  179.0990  173.0510  137.9760 O   0  0  0  0  0  0  0  0  0  0  0  0
  179.8230  174.9030  136.7350 N   0  0  0  0  0  0  0  0  0  0  0  0
  183.6090  176.6540  135.9800 C   0  0  0  0  0  2  0  0  0  0  0  0
  180.1060  175.7670  137.8880 C   0  0  2  0  0  0  0  0  0  0  0  0
  184.3120  177.7220  136.8180 C   0  0  0  0  0  2  0  0  0  0  0  0
  181.1760  175.1410  138.8040 C   0  0  0  0  0  2  0  0  0  0  0  0
  183.3140  178.6810  139.0110 C   0  0  1  0  0  3  0  0  0  0  0  0
  183.3680  177.4200  141.0610 O   0  0  0  0  0  1  0  0  0  0  0  0
  180.2420  178.0150  135.0080 C   0  0  0  0  0  3  0  0  0  0  0  0
  178.9320  175.9140  138.6350 O   0  0  0  0  0  1  0  0  0  0  0  0
  180.5490  177.1230  137.3000 C   0  0  2  0  0  3  0  0  0  0  0  0
  1  9  1  1  0  0  0
  2 34  1  0  0  0  0
  3 24  2  0  0  0  0
  4 31  1  1  0  0  0
  5 19  1  6  0  0  0
  5 20  1  0  0  0  0
  6 30  1  0  0  0  0
  7 21  1  6  0  0  0
  7 14  1  0  0  0  0
  8  9  1  6  0  0  0
  8 18  1  0  0  0  0
 10 17  1  1  0  0  0
 10  8  1  0  0  0  0
 11  7  1  0  0  0  0
 12 17  1  0  0  0  0
 13  3  1  0  0  0  0
 14 29  1  1  0  0  0
 14 16  1  0  0  0  0
 15 11  2  0  0  0  0
 16  4  1  0  0  0  0
 19 22  1  0  0  0  0
 20 10  1  0  0  0  0
 20  1  1  0  0  0  0
 22 12  1  0  0  0  0
 23  2  1  0  0  0  0
 23 25  1  0  0  0  0
 25  3  1  0  0  0  0
 25 27  1  0  0  0  0
 26 11  1  0  0  0  0
 26 28  1  0  0  0  0
 27 33  1  0  0  0  0
 27 29  1  0  0  0  0
 28  6  1  0  0  0  0
 30 18  1  0  0  0  0
 30  4  1  0  0  0  0
 32  5  1  0  0  0  0
 32  2  2  0  0  0  0
 34  1  1  0  0  0  0
 34 27  1  0  0  0  0
M  END
>  <MODEL>
4

>  <REMARK>
 VINA RESULT:      -4.5      2.279      5.918
  Name = 
  0 active torsions:
  status: ('A' for Active; 'I' for Inactive)
                            x       y       z     vdW  Elec       q    Type
                         _______ _______ _______ _____ _____    ______ ____

>  <TORSDO>
F 0

$$$$
=
 OpenBabel11052416023D

 34 39  0  0  1  0  0  0  0  0999 V2000
  182.1350  180.0580  140.2600 C   0  0  1  0  0  3  0  0  0  0  0  0
  183.6100  178.1550  140.8620 C   0  0  0  0  0  0  0  0  0  0  0  0
  186.5210  178.5410  138.6400 C   0  0  0  0  0  0  0  0  0  0  0  0
  180.7020  178.4810  137.1630 C   0  0  2  0  0  3  0  0  0  0  0  0
  181.6340  178.4440  142.2480 C   0  0  1  0  0  3  0  0  0  0  0  0
  180.2310  177.2360  139.4330 C   0  0  0  0  0  2  0  0  0  0  0  0
  183.5420  175.9520  137.2010 C   0  0  1  0  0  3  0  0  0  0  0  0
  179.7450  180.2760  139.7210 C   0  0  2  0  0  3  0  0  0  0  0  0
  181.1520  180.5920  139.2270 C   0  0  0  0  0  2  0  0  0  0  0  0
  179.8620  179.6920  141.1160 C   0  0  2  0  0  3  0  0  0  0  0  0
  182.8460  175.0370  138.1930 C   0  0  0  0  0  0  0  0  0  0  0  0
  179.3020  180.1220  143.5940 C   0  0  0  0  0  2  0  0  0  0  0  0
  187.7060  177.9020  139.2780 C   0  0  0  0  0  1  0  0  0  0  0  0
  182.9100  177.3240  137.1320 C   0  0  2  0  0  3  0  0  0  0  0  0
  182.8870  173.8310  138.0130 O   0  0  0  0  0  0  0  0  0  0  0  0
  181.6000  177.3350  136.8680 C   0  0  0  0  0  2  0  0  0  0  0  0
  178.9310  180.3710  142.1220 C   0  0  0  0  0  2  0  0  0  0  0  0
  178.9560  179.3420  138.7790 C   0  0  0  0  0  2  0  0  0  0  0  0
  181.2360  178.5050  143.7200 C   0  0  0  0  0  2  0  0  0  0  0  0
  181.3140  179.7670  141.5300 C   0  0  2  0  0  3  0  0  0  0  0  0
  185.0440  175.9580  137.4190 C   0  0  0  0  0  1  0  0  0  0  0  0
  179.7250  178.6800  143.8880 C   0  0  0  0  0  2  0  0  0  0  0  0
  185.0190  177.8420  140.5500 C   0  0  0  0  0  2  0  0  0  0  0  0
  186.6780  179.1720  137.5620 O   0  0  0  0  0  0  0  0  0  0  0  0
  185.2160  178.4360  139.2380 N   0  0  0  0  0  0  0  0  0  0  0  0
  182.0940  175.5720  139.3860 C   0  0  0  0  0  2  0  0  0  0  0  0
  184.0220  179.1120  138.7180 C   0  0  2  0  0  0  0  0  0  0  0  0
  180.6170  175.8040  139.0620 C   0  0  0  0  0  2  0  0  0  0  0  0
  183.6790  178.6230  137.2970 C   0  0  0  0  0  2  0  0  0  0  0  0
  179.6870  178.0880  138.2610 C   0  0  1  0  0  3  0  0  0  0  0  0
  180.0230  178.8470  136.0010 O   0  0  0  0  0  1  0  0  0  0  0  0
  183.0610  178.0180  142.0710 C   0  0  0  0  0  3  0  0  0  0  0  0
  184.2800  180.4860  138.6500 O   0  0  0  0  0  1  0  0  0  0  0  0
  182.8960  178.8220  139.7330 C   0  0  2  0  0  3  0  0  0  0  0  0
  1  9  1  6  0  0  0
  1 20  1  0  0  0  0
  2 32  2  0  0  0  0
  3 25  1  0  0  0  0
  3 13  1  0  0  0  0
  4 31  1  6  0  0  0
  4 30  1  0  0  0  0
  5 32  1  1  0  0  0
  5 19  1  0  0  0  0
  7 21  1  1  0  0  0
  7 11  1  0  0  0  0
  8 18  1  6  0  0  0
  8 10  1  0  0  0  0
  9  8  1  0  0  0  0
 10 20  1  0  0  0  0
 10 17  1  1  0  0  0
 11 26  1  0  0  0  0
 12 22  1  0  0  0  0
 14 16  1  6  0  0  0
 14  7  1  0  0  0  0
 14 29  1  0  0  0  0
 15 11  2  0  0  0  0
 16  4  1  0  0  0  0
 17 12  1  0  0  0  0
 19 22  1  0  0  0  0
 20  5  1  0  0  0  0
 23  2  1  0  0  0  0
 24  3  2  0  0  0  0
 25 23  1  0  0  0  0
 27 25  1  0  0  0  0
 27 34  1  0  0  0  0
 28 26  1  0  0  0  0
 28  6  1  0  0  0  0
 29 27  1  0  0  0  0
 30 18  1  0  0  0  0
 30  6  1  0  0  0  0
 33 27  1  0  0  0  0
 34  1  1  0  0  0  0
 34  2  1  0  0  0  0
M  END
>  <MODEL>
5

>  <REMARK>
 VINA RESULT:      -3.8      2.281      6.198
  Name = 
  0 active torsions:
  status: ('A' for Active; 'I' for Inactive)
                            x       y       z     vdW  Elec       q    Type
                         _______ _______ _______ _____ _____    ______ ____

>  <TORSDO>
F 0

$$$$
=
 OpenBabel11052416023D

 34 39  0  0  1  0  0  0  0  0999 V2000
  182.4990  179.8680  139.2730 C   0  0  1  0  0  3  0  0  0  0  0  0
  183.8290  178.0820  140.3710 C   0  0  0  0  0  0  0  0  0  0  0  0
  187.1840  178.4280  138.8940 C   0  0  0  0  0  0  0  0  0  0  0  0
  181.9070  178.0010  136.0650 C   0  0  2  0  0  3  0  0  0  0  0  0
  181.5670  178.3870  141.2100 C   0  0  1  0  0  3  0  0  0  0  0  0
  180.9250  176.9110  138.2500 C   0  0  0  0  0  2  0  0  0  0  0  0
  184.7120  175.6100  136.9990 C   0  0  1  0  0  3  0  0  0  0  0  0
  180.3090  179.9400  138.1570 C   0  0  2  0  0  3  0  0  0  0  0  0
  181.7870  180.2790  137.9930 C   0  0  0  0  0  2  0  0  0  0  0  0
  180.0960  179.4680  139.5830 C   0  0  2  0  0  3  0  0  0  0  0  0
  183.8170  174.7420  137.8660 C   0  0  0  0  0  0  0  0  0  0  0  0
  178.9370  180.0570  141.8070 C   0  0  0  0  0  2  0  0  0  0  0  0
  188.1930  177.8910  139.8510 C   0  0  0  0  0  1  0  0  0  0  0  0
  184.0830  176.9430  136.6660 C   0  0  2  0  0  3  0  0  0  0  0  0
  183.9300  173.5280  137.8040 O   0  0  0  0  0  0  0  0  0  0  0  0
  182.8770  176.8770  136.0930 C   0  0  0  0  0  2  0  0  0  0  0  0
  178.9310  180.1780  140.2730 C   0  0  0  0  0  2  0  0  0  0  0  0
  179.7980  178.9040  137.1330 C   0  0  0  0  0  2  0  0  0  0  0  0
  180.8210  178.5400  142.5310 C   0  0  0  0  0  2  0  0  0  0  0  0
  181.4010  179.6370  140.3270 C   0  0  2  0  0  3  0  0  0  0  0  0
  186.1140  175.6980  137.5730 C   0  0  0  0  0  1  0  0  0  0  0  0
  179.3100  178.6620  142.3130 C   0  0  0  0  0  2  0  0  0  0  0  0
  185.2790  177.8090  140.4360 C   0  0  0  0  0  2  0  0  0  0  0  0
  187.5840  178.9830  137.8370 O   0  0  0  0  0  0  0  0  0  0  0  0
  185.7750  178.3110  139.1660 N   0  0  0  0  0  0  0  0  0  0  0  0
  182.7830  175.3310  138.7930 C   0  0  0  0  0  2  0  0  0  0  0  0
  184.7290  178.8930  138.3180 C   0  0  2  0  0  0  0  0  0  0  0  0
  181.4250  175.4730  138.1050 C   0  0  0  0  0  2  0  0  0  0  0  0
  184.7550  178.2840  136.9020 C   0  0  0  0  0  2  0  0  0  0  0  0
  180.6640  177.6470  136.9140 C   0  0  1  0  0  3  0  0  0  0  0  0
  181.5230  178.2480  134.7470 O   0  0  0  0  0  1  0  0  0  0  0  0
  183.0040  178.0120  141.4190 C   0  0  0  0  0  3  0  0  0  0  0  0
  184.9620  180.2680  138.2000 O   0  0  0  0  0  1  0  0  0  0  0  0
  183.3960  178.6300  139.0520 C   0  0  2  0  0  3  0  0  0  0  0  0
  1  9  1  6  0  0  0
  1 20  1  0  0  0  0
  2 23  1  0  0  0  0
  2 32  2  0  0  0  0
  3 25  1  0  0  0  0
  3 13  1  0  0  0  0
  4 31  1  6  0  0  0
  4 16  1  0  0  0  0
  4 30  1  0  0  0  0
  5 32  1  1  0  0  0
  5 19  1  0  0  0  0
  7 21  1  1  0  0  0
  7 11  1  0  0  0  0
  8 18  1  6  0  0  0
  8 10  1  0  0  0  0
  9  8  1  0  0  0  0
 10 17  1  1  0  0  0
 10 20  1  0  0  0  0
 11 26  1  0  0  0  0
 12 22  1  0  0  0  0
 14 16  1  6  0  0  0
 14 29  1  0  0  0  0
 14  7  1  0  0  0  0
 15 11  2  0  0  0  0
 17 12  1  0  0  0  0
 20  5  1  0  0  0  0
 22 19  1  0  0  0  0
 24  3  2  0  0  0  0
 25 23  1  0  0  0  0
 27 34  1  0  0  0  0
 27 25  1  0  0  0  0
 28  6  1  0  0  0  0
 28 26  1  0  0  0  0
 29 27  1  0  0  0  0
 30 18  1  0  0  0  0
 30  6  1  0  0  0  0
 33 27  1  0  0  0  0
 34  1  1  0  0  0  0
 34  2  1  0  0  0  0
M  END
>  <MODEL>
6

>  <REMARK>
 VINA RESULT:      -3.4      2.436      6.093
  Name = 
  0 active torsions:
  status: ('A' for Active; 'I' for Inactive)
                            x       y       z     vdW  Elec       q    Type
                         _______ _______ _______ _____ _____    ______ ____

>  <TORSDO>
F 0

$$$$
=
 OpenBabel11052416023D

 34 39  0  0  1  0  0  0  0  0999 V2000
  179.2770  176.5640  137.9690 C   0  0  1  0  0  3  0  0  0  0  0  0
  180.9580  176.2440  139.7670 C   0  0  0  0  0  0  0  0  0  0  0  0
  180.6900  179.3020  141.7990 C   0  0  0  0  0  0  0  0  0  0  0  0
  181.3910  178.8430  135.8540 C   0  0  2  0  0  3  0  0  0  0  0  0
  180.6150  174.3460  138.2860 C   0  0  1  0  0  3  0  0  0  0  0  0
  182.3210  176.4110  136.2430 C   0  0  0  0  0  2  0  0  0  0  0  0
  183.6730  179.4130  138.8430 C   0  0  1  0  0  3  0  0  0  0  0  0
  179.3150  176.3390  135.5200 C   0  0  2  0  0  3  0  0  0  0  0  0
  178.9740  177.2870  136.6640 C   0  0  0  0  0  2  0  0  0  0  0  0
  179.6790  174.9960  136.1220 C   0  0  2  0  0  3  0  0  0  0  0  0
  184.4810  178.1520  138.5910 C   0  0  0  0  0  0  0  0  0  0  0  0
  178.9340  172.5360  136.2970 C   0  0  0  0  0  2  0  0  0  0  0  0
  181.1410  179.0030  143.1870 C   0  0  0  0  0  1  0  0  0  0  0  0
  182.3760  179.4360  138.0660 C   0  0  2  0  0  3  0  0  0  0  0  0
  185.6940  178.1940  138.7150 O   0  0  0  0  0  0  0  0  0  0  0  0
  182.4990  179.2710  136.7460 C   0  0  0  0  0  2  0  0  0  0  0  0
  178.9310  173.8330  135.4690 C   0  0  0  0  0  2  0  0  0  0  0  0
  180.4330  176.8680  134.5950 C   0  0  0  0  0  2  0  0  0  0  0  0
  180.3690  172.8420  138.3500 C   0  0  0  0  0  2  0  0  0  0  0  0
  179.4380  175.0750  137.6130 C   0  0  2  0  0  3  0  0  0  0  0  0
  183.5250  179.6840  140.3290 C   0  0  0  0  0  1  0  0  0  0  0  0
  180.2820  172.2250  136.9510 C   0  0  0  0  0  2  0  0  0  0  0  0
  181.2100  176.9470  141.0400 C   0  0  0  0  0  2  0  0  0  0  0  0
  180.2130  180.4400  141.5470 O   0  0  0  0  0  0  0  0  0  0  0  0
  180.8010  178.3130  140.7590 N   0  0  0  0  0  0  0  0  0  0  0  0
  183.8340  176.8530  138.1820 C   0  0  0  0  0  2  0  0  0  0  0  0
  180.2980  178.5030  139.3940 C   0  0  2  0  0  0  0  0  0  0  0  0
  183.7600  176.7160  136.6600 C   0  0  0  0  0  2  0  0  0  0  0  0
  181.0140  179.6760  138.6930 C   0  0  0  0  0  2  0  0  0  0  0  0
  181.6930  177.4420  135.2740 C   0  0  1  0  0  3  0  0  0  0  0  0
  181.2500  179.7630  134.8160 O   0  0  0  0  0  1  0  0  0  0  0  0
  180.9570  174.9160  139.6300 C   0  0  0  0  0  3  0  0  0  0  0  0
  178.9340  178.8090  139.4590 O   0  0  0  0  0  1  0  0  0  0  0  0
  180.5180  177.1570  138.6710 C   0  0  2  0  0  3  0  0  0  0  0  0
  1  9  1  6  0  0  0
  1 34  1  0  0  0  0
  2 23  1  0  0  0  0
  3 13  1  0  0  0  0
  4 31  1  6  0  0  0
  4 16  1  0  0  0  0
  5 19  1  1  0  0  0
  5 32  1  0  0  0  0
  6 28  1  0  0  0  0
  7 21  1  1  0  0  0
  8 18  1  1  0  0  0
  8 10  1  0  0  0  0
  8  9  1  0  0  0  0
 10 17  1  6  0  0  0
 10 20  1  0  0  0  0
 11 15  2  0  0  0  0
 11  7  1  0  0  0  0
 12 22  1  0  0  0  0
 14 16  1  6  0  0  0
 14 29  1  0  0  0  0
 14  7  1  0  0  0  0
 17 12  1  0  0  0  0
 18 30  1  0  0  0  0
 20  1  1  0  0  0  0
 20  5  1  0  0  0  0
 22 19  1  0  0  0  0
 24  3  2  0  0  0  0
 25 23  1  0  0  0  0
 25  3  1  0  0  0  0
 26 11  1  0  0  0  0
 27 33  1  0  0  0  0
 27 25  1  0  0  0  0
 28 26  1  0  0  0  0
 29 27  1  0  0  0  0
 30  4  1  0  0  0  0
 30  6  1  0  0  0  0
 32  2  2  0  0  0  0
 34 27  1  0  0  0  0
 34  2  1  0  0  0  0
M  END
>  <MODEL>
7

>  <REMARK>
 VINA RESULT:      -3.1      2.165      4.399
  Name = 
  0 active torsions:
  status: ('A' for Active; 'I' for Inactive)
                            x       y       z     vdW  Elec       q    Type
                         _______ _______ _______ _____ _____    ______ ____

>  <TORSDO>
F 0

$$$$
=
 OpenBabel11052416023D

 34 39  0  0  1  0  0  0  0  0999 V2000
  184.2930  179.5720  138.5190 C   0  0  1  0  0  3  0  0  0  0  0  0
  183.1460  178.2350  136.7690 C   0  0  0  0  0  0  0  0  0  0  0  0
  180.1260  180.1900  135.9850 C   0  0  0  0  0  0  0  0  0  0  0  0
  182.1210  178.4350  141.3690 C   0  0  2  0  0  3  0  0  0  0  0  0
  185.3390  177.4340  137.4480 C   0  0  1  0  0  3  0  0  0  0  0  0
  183.5140  176.5690  140.1440 C   0  0  0  0  0  2  0  0  0  0  0  0
  179.5690  177.1680  138.8500 C   0  0  1  0  0  3  0  0  0  0  0  0
  185.2650  179.0520  140.7180 C   0  0  2  0  0  3  0  0  0  0  0  0
  184.2840  179.9650  139.9890 C   0  0  0  0  0  2  0  0  0  0  0  0
  185.9790  178.2130  139.6760 C   0  0  2  0  0  3  0  0  0  0  0  0
  180.2830  175.8440  138.6450 C   0  0  0  0  0  0  0  0  0  0  0  0
  188.2760  177.7650  138.6000 C   0  0  0  0  0  2  0  0  0  0  0  0
  179.6920  179.8760  134.5950 C   0  0  0  0  0  1  0  0  0  0  0  0
  180.4330  178.1930  139.5500 C   0  0  2  0  0  3  0  0  0  0  0  0
  179.6220  174.8210  138.5740 O   0  0  0  0  0  0  0  0  0  0  0  0
  180.9440  177.8020  140.7220 C   0  0  0  0  0  2  0  0  0  0  0  0
  187.5000  178.2330  139.8420 C   0  0  0  0  0  2  0  0  0  0  0  0
  184.6000  178.1730  141.7990 C   0  0  0  0  0  2  0  0  0  0  0  0
  186.6560  176.9710  136.8340 C   0  0  0  0  0  2  0  0  0  0  0  0
  185.5400  178.6930  138.3120 C   0  0  2  0  0  3  0  0  0  0  0  0
  178.9310  177.6540  137.5620 C   0  0  0  0  0  1  0  0  0  0  0  0
  187.6600  176.5460  137.9100 C   0  0  0  0  0  2  0  0  0  0  0  0
  182.0340  178.5370  135.8460 C   0  0  0  0  0  2  0  0  0  0  0  0
  179.5170  181.0890  136.6230 O   0  0  0  0  0  0  0  0  0  0  0  0
  181.2170  179.4760  136.5960 N   0  0  0  0  0  0  0  0  0  0  0  0
  181.7850  175.7510  138.5370 C   0  0  0  0  0  2  0  0  0  0  0  0
  181.7570  179.7910  137.9240 C   0  0  2  0  0  0  0  0  0  0  0  0
  182.4330  175.5140  139.9020 C   0  0  0  0  0  2  0  0  0  0  0  0
  180.6910  179.5920  139.0200 C   0  0  0  0  0  2  0  0  0  0  0  0
  183.3020  177.4390  141.4060 C   0  0  1  0  0  3  0  0  0  0  0  0
  181.7850  178.8190  142.6670 O   0  0  0  0  0  1  0  0  0  0  0  0
  184.2690  177.6070  136.4120 C   0  0  0  0  0  3  0  0  0  0  0  0
  182.1470  181.1340  137.9410 O   0  0  0  0  0  1  0  0  0  0  0  0
  182.9800  178.8680  138.1110 C   0  0  2  0  0  3  0  0  0  0  0  0
  1  9  1  1  0  0  0
  2 34  1  0  0  0  0
  3 25  1  0  0  0  0
  3 24  2  0  0  0  0
  4 30  1  0  0  0  0
  4 31  1  1  0  0  0
  5 32  1  6  0  0  0
  5 20  1  0  0  0  0
  6 30  1  0  0  0  0
  7 21  1  6  0  0  0
  7 14  1  0  0  0  0
  8  9  1  6  0  0  0
  8 18  1  0  0  0  0
 10 17  1  6  0  0  0
 10  8  1  0  0  0  0
 11  7  1  0  0  0  0
 12 17  1  0  0  0  0
 13  3  1  0  0  0  0
 14 29  1  1  0  0  0
 14 16  1  0  0  0  0
 15 11  2  0  0  0  0
 16  4  1  0  0  0  0
 19  5  1  0  0  0  0
 19 22  1  0  0  0  0
 20  1  1  0  0  0  0
 20 10  1  0  0  0  0
 22 12  1  0  0  0  0
 23 25  1  0  0  0  0
 23  2  1  0  0  0  0
 25 27  1  0  0  0  0
 26 11  1  0  0  0  0
 26 28  1  0  0  0  0
 27 33  1  0  0  0  0
 27 34  1  0  0  0  0
 27 29  1  0  0  0  0
 28  6  1  0  0  0  0
 30 18  1  0  0  0  0
 32  2  2  0  0  0  0
 34  1  1  0  0  0  0
M  END
>  <MODEL>
8

>  <REMARK>
 VINA RESULT:      -2.8      1.870      5.012
  Name = 
  0 active torsions:
  status: ('A' for Active; 'I' for Inactive)
                            x       y       z     vdW  Elec       q    Type
                         _______ _______ _______ _____ _____    ______ ____

>  <TORSDO>
F 0

$$$$
