=
 OpenBabel11052415153D

 37 42  0  0  1  0  0  0  0  0999 V2000
  182.8010  176.7540  138.0350 C   0  0  0  0  0  2  0  0  0  0  0  0
  182.0770  178.9940  142.3500 C   0  0  1  0  0  3  0  0  0  0  0  0
  183.7910  176.0070  137.1200 C   0  0  2  0  0  3  0  0  0  0  0  0
  185.2990  179.0290  140.8590 C   0  0  0  0  0  3  0  0  0  0  0  0
  180.3720  177.7600  141.1390 O   0  0  0  0  0  0  0  0  0  0  0  0
  182.9930  178.1570  141.4520 C   0  0  2  0  0  3  0  0  0  0  0  0
  180.6270  178.9460  141.8650 C   0  0  1  0  0  3  0  0  0  0  0  0
  184.4630  178.4300  141.7340 C   0  0  0  0  0  0  0  0  0  0  0  0
  179.7690  178.9580  143.1170 C   0  0  0  0  0  2  0  0  0  0  0  0
  185.2510  176.1030  137.5920 C   0  0  0  0  0  2  0  0  0  0  0  0
  181.0350  177.8220  139.8840 C   0  0  2  0  0  3  0  0  0  0  0  0
  183.1010  179.0420  144.6860 C   0  0  0  0  0  2  0  0  0  0  0  0
  180.6710  178.6300  144.2950 C   0  0  0  0  0  2  0  0  0  0  0  0
  185.6640  177.5130  138.0500 C   0  0  2  0  0  3  0  0  0  0  0  0
  184.9310  179.4830  139.4780 C   0  0  0  0  0  2  0  0  0  0  0  0
  182.0650  178.4070  143.7510 C   0  0  1  0  0  3  0  0  0  0  0  0
  182.5340  178.2240  139.9890 C   0  0  2  0  0  3  0  0  0  0  0  0
  184.9330  178.1310  143.1430 C   0  0  2  0  0  3  0  0  0  0  0  0
  184.4750  178.3370  138.5580 C   0  0  2  0  0  3  0  0  0  0  0  0
  183.4660  177.4440  139.1510 N   0  0  2  0  0  0  0  0  0  0  0  0
  184.4970  179.2560  144.0820 C   0  0  0  0  0  2  0  0  0  0  0  0
  186.9360  177.4740  144.5000 C   0  0  0  0  0  3  0  0  0  0  0  0
  186.4050  177.8350  143.2570 C   0  0  0  0  0  0  0  0  0  0  0  0
  187.2460  177.8760  142.1310 C   0  0  0  0  0  3  0  0  0  0  0  0
  189.4070  177.6220  141.1680 F   0  0  0  0  0  0  0  0  0  0  0  0
  189.1290  177.2230  143.5030 C   0  0  0  0  0  3  0  0  0  0  0  0
  188.6030  177.5720  142.2550 C   0  0  0  0  0  0  0  0  0  0  0  0
  188.2980  177.1710  144.6240 C   0  0  0  0  0  3  0  0  0  0  0  0
  186.4580  178.2530  136.9780 C   0  0  0  0  0  2  0  0  0  0  0  0
  187.6300  178.8000  137.5080 O   0  0  0  0  0  1  0  0  0  0  0  0
  182.4060  177.0580  135.7480 C   0  0  0  0  0  1  0  0  0  0  0  0
  183.6760  176.4840  135.8140 O   0  0  0  0  0  0  0  0  0  0  0  0
  180.3010  178.7310  138.9000 C   0  0  0  0  0  2  0  0  0  0  0  0
  181.1580  179.9370  138.5350 C   0  0  0  0  0  2  0  0  0  0  0  0
  180.3590  181.2360  138.5450 C   0  0  2  0  0  3  0  0  0  0  0  0
  181.1570  182.3770  137.9370 C   0  0  0  0  0  1  0  0  0  0  0  0
  179.9550  181.5650  139.8410 O   0  0  0  0  0  1  0  0  0  0  0  0
  1 20  1  0  0  0  0
  2 16  1  0  0  0  0
  3 10  1  0  0  0  0
  3  1  1  0  0  0  0
  4  8  2  0  0  0  0
  5  7  1  0  0  0  0
  6  8  1  0  0  0  0
  6  2  1  0  0  0  0
  7  2  1  0  0  0  0
  7  9  1  0  0  0  0
  8 18  1  0  0  0  0
  9 13  1  0  0  0  0
 10 14  1  0  0  0  0
 11 17  1  0  0  0  0
 11  5  1  0  0  0  0
 14 19  1  0  0  0  0
 15  4  1  0  0  0  0
 16 13  1  0  0  0  0
 16 12  1  0  0  0  0
 17  6  1  0  0  0  0
 18 23  1  0  0  0  0
 18 21  1  0  0  0  0
 19 20  1  0  0  0  0
 19 15  1  0  0  0  0
 20 17  1  0  0  0  0
 21 12  1  0  0  0  0
 22 28  1  0  0  0  0
 23 22  2  0  0  0  0
 24 27  2  0  0  0  0
 24 23  1  0  0  0  0
 25 27  1  0  0  0  0
 26 28  2  0  0  0  0
 27 26  1  0  0  0  0
 29 30  1  0  0  0  0
 29 14  1  0  0  0  0
 31 32  1  0  0  0  0
 32  3  1  0  0  0  0
 33 11  1  0  0  0  0
 34 35  1  0  0  0  0
 34 33  1  0  0  0  0
 35 37  1  0  0  0  0
 36 35  1  0  0  0  0
M  END
>  <MODEL>
1

>  <REMARK>
 VINA RESULT:      -8.2      0.000      0.000
  Name = 
  6 active torsions:
  status: ('A' for Active; 'I' for Inactive)
    1  A    between atoms: C_3  and  C_21
    2  A    between atoms: C_5  and  O_23
    3  A    between atoms: C_6  and  C_31
    4  A    between atoms: C_11  and  C_26
    5  A    between atoms: C_20  and  C_25
    6  A    between atoms: C_21  and  C_25
                            x       y       z     vdW  Elec       q    Type
                         _______ _______ _______ _____ _____    ______ ____

>  <TORSDO>
F 6

$$$$
=
 OpenBabel11052415153D

 37 42  0  0  1  0  0  0  0  0999 V2000
  188.4510  177.0520  141.1580 C   0  0  0  0  0  2  0  0  0  0  0  0
  186.7360  178.6320  145.4860 C   0  0  1  0  0  3  0  0  0  0  0  0
  189.5870  176.3320  140.4070 C   0  0  2  0  0  3  0  0  0  0  0  0
  190.2380  178.4480  144.9320 C   0  0  0  0  0  3  0  0  0  0  0  0
  185.3410  177.8720  143.6490 O   0  0  0  0  0  0  0  0  0  0  0  0
  187.7890  177.8310  144.7130 C   0  0  2  0  0  3  0  0  0  0  0  0
  185.4860  178.8730  144.6370 C   0  0  1  0  0  3  0  0  0  0  0  0
  189.1360  177.8400  145.4200 C   0  0  0  0  0  0  0  0  0  0  0  0
  184.3120  178.8020  145.5960 C   0  0  0  0  0  2  0  0  0  0  0  0
  190.8540  176.1380  141.2560 C   0  0  0  0  0  2  0  0  0  0  0  0
  186.3370  178.0430  142.6510 C   0  0  2  0  0  3  0  0  0  0  0  0
  187.0510  178.1460  147.9700 C   0  0  0  0  0  2  0  0  0  0  0  0
  184.8060  178.1570  146.8800 C   0  0  0  0  0  2  0  0  0  0  0  0
  191.2470  177.3800  142.0760 C   0  0  2  0  0  3  0  0  0  0  0  0
  190.3230  179.1720  143.6210 C   0  0  0  0  0  2  0  0  0  0  0  0
  186.2710  177.8300  146.6890 C   0  0  1  0  0  3  0  0  0  0  0  0
  187.7740  178.2030  143.2240 C   0  0  2  0  0  3  0  0  0  0  0  0
  189.1550  177.2490  146.8150 C   0  0  2  0  0  3  0  0  0  0  0  0
  190.0440  178.2710  142.4060 C   0  0  2  0  0  3  0  0  0  0  0  0
  188.8300  177.4460  142.5230 N   0  0  2  0  0  0  0  0  0  0  0  0
  188.5750  178.2550  147.8090 C   0  0  0  0  0  2  0  0  0  0  0  0
  191.0660  175.6440  146.5730 C   0  0  0  0  0  3  0  0  0  0  0  0
  190.5000  176.7300  147.2510 C   0  0  0  0  0  0  0  0  0  0  0  0
  191.2120  177.3400  148.2980 C   0  0  0  0  0  3  0  0  0  0  0  0
  193.1440  177.4450  149.6830 F   0  0  0  0  0  0  0  0  0  0  0  0
  193.0240  175.7640  147.9940 C   0  0  0  0  0  3  0  0  0  0  0  0
  192.4680  176.8570  148.6680 C   0  0  0  0  0  0  0  0  0  0  0  0
  192.3250  175.1600  146.9470 C   0  0  0  0  0  3  0  0  0  0  0  0
  192.3790  178.1640  141.4190 C   0  0  0  0  0  2  0  0  0  0  0  0
  192.9380  177.4480  140.3570 O   0  0  0  0  0  1  0  0  0  0  0  0
  190.3430  176.0570  138.3440 C   0  0  0  0  0  1  0  0  0  0  0  0
  189.8930  177.0290  139.2380 O   0  0  0  0  0  0  0  0  0  0  0  0
  186.0010  179.1980  141.7090 C   0  0  0  0  0  2  0  0  0  0  0  0
  184.6420  178.9830  141.0530 C   0  0  0  0  0  2  0  0  0  0  0  0
  184.7380  178.9320  139.5320 C   0  0  2  0  0  3  0  0  0  0  0  0
  183.7960  177.8890  138.9570 C   0  0  0  0  0  1  0  0  0  0  0  0
  186.0490  178.6800  139.1210 O   0  0  0  0  0  1  0  0  0  0  0  0
  1 20  1  0  0  0  0
  2 16  1  0  0  0  0
  3  1  1  0  0  0  0
  3 10  1  0  0  0  0
  4  8  2  0  0  0  0
  5  7  1  0  0  0  0
  6  8  1  0  0  0  0
  6  2  1  0  0  0  0
  7  2  1  0  0  0  0
  7  9  1  0  0  0  0
  8 18  1  0  0  0  0
  9 13  1  0  0  0  0
 10 14  1  0  0  0  0
 11 17  1  0  0  0  0
 11  5  1  0  0  0  0
 14 19  1  0  0  0  0
 15  4  1  0  0  0  0
 16 13  1  0  0  0  0
 16 12  1  0  0  0  0
 17  6  1  0  0  0  0
 18 23  1  0  0  0  0
 18 21  1  0  0  0  0
 19 20  1  0  0  0  0
 19 15  1  0  0  0  0
 20 17  1  0  0  0  0
 21 12  1  0  0  0  0
 22 28  2  0  0  0  0
 22 23  1  0  0  0  0
 23 24  2  0  0  0  0
 24 27  1  0  0  0  0
 26 27  2  0  0  0  0
 27 25  1  0  0  0  0
 28 26  1  0  0  0  0
 29 14  1  0  0  0  0
 30 29  1  0  0  0  0
 31 32  1  0  0  0  0
 32  3  1  0  0  0  0
 33 11  1  0  0  0  0
 34 33  1  0  0  0  0
 35 34  1  0  0  0  0
 36 35  1  0  0  0  0
 37 35  1  0  0  0  0
M  END
>  <MODEL>
2

>  <REMARK>
 VINA RESULT:      -8.2      3.611      6.261
  Name = 
  6 active torsions:
  status: ('A' for Active; 'I' for Inactive)
    1  A    between atoms: C_3  and  C_21
    2  A    between atoms: C_5  and  O_23
    3  A    between atoms: C_6  and  C_31
    4  A    between atoms: C_11  and  C_26
    5  A    between atoms: C_20  and  C_25
    6  A    between atoms: C_21  and  C_25
                            x       y       z     vdW  Elec       q    Type
                         _______ _______ _______ _____ _____    ______ ____

>  <TORSDO>
F 6

$$$$
=
 OpenBabel11052415153D

 37 42  0  0  1  0  0  0  0  0999 V2000
  185.6990  177.4580  138.3440 C   0  0  0  0  0  2  0  0  0  0  0  0
  184.9780  178.9670  142.9670 C   0  0  1  0  0  3  0  0  0  0  0  0
  186.6190  176.7090  137.3610 C   0  0  2  0  0  3  0  0  0  0  0  0
  188.2820  178.6310  141.7120 C   0  0  0  0  0  3  0  0  0  0  0  0
  183.2030  178.3420  141.4320 O   0  0  0  0  0  0  0  0  0  0  0  0
  185.8080  178.1440  141.9770 C   0  0  2  0  0  3  0  0  0  0  0  0
  183.5980  179.3000  142.3940 C   0  0  1  0  0  3  0  0  0  0  0  0
  187.2680  178.0610  142.3970 C   0  0  0  0  0  0  0  0  0  0  0  0
  182.6380  179.2530  143.5690 C   0  0  0  0  0  2  0  0  0  0  0  0
  188.0190  176.4240  137.9320 C   0  0  0  0  0  2  0  0  0  0  0  0
  183.9860  178.4990  140.2570 C   0  0  2  0  0  3  0  0  0  0  0  0
  185.7570  178.3800  145.3230 C   0  0  0  0  0  2  0  0  0  0  0  0
  183.3430  178.5410  144.7100 C   0  0  0  0  0  2  0  0  0  0  0  0
  188.6360  177.6150  138.6850 C   0  0  2  0  0  3  0  0  0  0  0  0
  188.1420  179.3960  140.4290 C   0  0  0  0  0  2  0  0  0  0  0  0
  184.7200  178.1480  144.2180 C   0  0  1  0  0  3  0  0  0  0  0  0
  185.5150  178.5680  140.5310 C   0  0  2  0  0  3  0  0  0  0  0  0
  187.5340  177.4210  143.7450 C   0  0  2  0  0  3  0  0  0  0  0  0
  187.5750  178.5520  139.2730 C   0  0  2  0  0  3  0  0  0  0  0  0
  186.3660  177.7850  139.6130 N   0  0  2  0  0  0  0  0  0  0  0  0
  187.2210  178.4190  144.8600 C   0  0  0  0  0  2  0  0  0  0  0  0
  189.3240  175.8430  142.9770 C   0  0  0  0  0  3  0  0  0  0  0  0
  188.9070  176.8210  143.8870 C   0  0  0  0  0  0  0  0  0  0  0  0
  189.7910  177.2530  144.8910 C   0  0  0  0  0  3  0  0  0  0  0  0
  191.9110  177.1160  145.9640 F   0  0  0  0  0  0  0  0  0  0  0  0
  191.4750  175.7160  144.0820 C   0  0  0  0  0  3  0  0  0  0  0  0
  191.0690  176.7010  144.9880 C   0  0  0  0  0  0  0  0  0  0  0  0
  190.6060  175.2890  143.0760 C   0  0  0  0  0  3  0  0  0  0  0  0
  189.6550  178.3650  137.8330 C   0  0  0  0  0  2  0  0  0  0  0  0
  189.0860  179.4990  137.2480 O   0  0  0  0  0  1  0  0  0  0  0  0
  185.5720  177.1120  135.4520 C   0  0  0  0  0  1  0  0  0  0  0  0
  186.7240  177.4310  136.1720 O   0  0  0  0  0  0  0  0  0  0  0  0
  183.5320  179.7010  139.4310 C   0  0  0  0  0  2  0  0  0  0  0  0
  182.3580  179.3290  138.5330 C   0  0  0  0  0  2  0  0  0  0  0  0
  181.1440  180.2190  138.7740 C   0  0  2  0  0  3  0  0  0  0  0  0
  181.4230  181.6540  138.3620 C   0  0  0  0  0  1  0  0  0  0  0  0
  180.7430  180.1680  140.1110 O   0  0  0  0  0  1  0  0  0  0  0  0
  1 20  1  0  0  0  0
  2 16  1  0  0  0  0
  3 10  1  0  0  0  0
  3  1  1  0  0  0  0
  4  8  2  0  0  0  0
  5  7  1  0  0  0  0
  6  8  1  0  0  0  0
  6  2  1  0  0  0  0
  7  2  1  0  0  0  0
  7  9  1  0  0  0  0
  8 18  1  0  0  0  0
  9 13  1  0  0  0  0
 10 14  1  0  0  0  0
 11 17  1  0  0  0  0
 11  5  1  0  0  0  0
 14 19  1  0  0  0  0
 15  4  1  0  0  0  0
 16 13  1  0  0  0  0
 16 12  1  0  0  0  0
 17  6  1  0  0  0  0
 18 23  1  0  0  0  0
 18 21  1  0  0  0  0
 19 20  1  0  0  0  0
 19 15  1  0  0  0  0
 20 17  1  0  0  0  0
 21 12  1  0  0  0  0
 22 28  2  0  0  0  0
 22 23  1  0  0  0  0
 23 24  2  0  0  0  0
 24 27  1  0  0  0  0
 26 27  2  0  0  0  0
 27 25  1  0  0  0  0
 28 26  1  0  0  0  0
 29 14  1  0  0  0  0
 30 29  1  0  0  0  0
 31 32  1  0  0  0  0
 32  3  1  0  0  0  0
 33 11  1  0  0  0  0
 34 35  1  0  0  0  0
 34 33  1  0  0  0  0
 35 37  1  0  0  0  0
 36 35  1  0  0  0  0
M  END
>  <MODEL>
3

>  <REMARK>
 VINA RESULT:      -7.8      1.996      2.998
  Name = 
  6 active torsions:
  status: ('A' for Active; 'I' for Inactive)
    1  A    between atoms: C_3  and  C_21
    2  A    between atoms: C_5  and  O_23
    3  A    between atoms: C_6  and  C_31
    4  A    between atoms: C_11  and  C_26
    5  A    between atoms: C_20  and  C_25
    6  A    between atoms: C_21  and  C_25
                            x       y       z     vdW  Elec       q    Type
                         _______ _______ _______ _____ _____    ______ ____

>  <TORSDO>
F 6

$$$$
=
 OpenBabel11052415153D

 37 42  0  0  1  0  0  0  0  0999 V2000
  188.5760  178.6970  138.6860 C   0  0  0  0  0  2  0  0  0  0  0  0
  185.1610  178.1060  142.1730 C   0  0  1  0  0  3  0  0  0  0  0  0
  188.8800  179.1350  137.2400 C   0  0  2  0  0  3  0  0  0  0  0  0
  184.2730  177.7650  138.7520 C   0  0  0  0  0  3  0  0  0  0  0  0
  187.4760  178.7020  142.6030 O   0  0  0  0  0  0  0  0  0  0  0  0
  185.5280  178.6280  140.7800 C   0  0  2  0  0  3  0  0  0  0  0  0
  186.4100  177.8760  143.0270 C   0  0  1  0  0  3  0  0  0  0  0  0
  184.3410  178.5770  139.8290 C   0  0  0  0  0  0  0  0  0  0  0  0
  186.0200  178.2530  144.4440 C   0  0  0  0  0  2  0  0  0  0  0  0
  187.6190  179.3160  136.3790 C   0  0  0  0  0  2  0  0  0  0  0  0
  187.9630  178.2420  141.3500 C   0  0  2  0  0  3  0  0  0  0  0  0
  182.8310  178.9700  142.7450 C   0  0  0  0  0  2  0  0  0  0  0  0
  184.7250  179.0440  144.3690 C   0  0  0  0  0  2  0  0  0  0  0  0
  186.5790  178.1960  136.5580 C   0  0  2  0  0  3  0  0  0  0  0  0
  185.3510  176.8220  138.3070 C   0  0  0  0  0  2  0  0  0  0  0  0
  184.3440  179.1530  142.9080 C   0  0  1  0  0  3  0  0  0  0  0  0
  186.8460  178.0100  140.2930 C   0  0  2  0  0  3  0  0  0  0  0  0
  183.1310  179.3930  140.2360 C   0  0  2  0  0  3  0  0  0  0  0  0
  186.6660  177.5270  137.9350 C   0  0  2  0  0  3  0  0  0  0  0  0
  187.1390  178.5010  138.9320 N   0  0  2  0  0  0  0  0  0  0  0  0
  182.3510  178.6510  141.3220 C   0  0  0  0  0  2  0  0  0  0  0  0
  181.5080  178.8420  138.4060 C   0  0  0  0  0  3  0  0  0  0  0  0
  182.2500  179.8120  139.0890 C   0  0  0  0  0  0  0  0  0  0  0  0
  182.1310  181.1630  138.7180 C   0  0  0  0  0  3  0  0  0  0  0  0
  181.1850  182.8340  137.3120 F   0  0  0  0  0  0  0  0  0  0  0  0
  180.5570  180.5560  136.9830 C   0  0  0  0  0  3  0  0  0  0  0  0
  181.2880  181.5320  137.6680 C   0  0  0  0  0  0  0  0  0  0  0  0
  180.6640  179.2130  137.3520 C   0  0  0  0  0  3  0  0  0  0  0  0
  186.6330  177.1790  135.4220 C   0  0  0  0  0  2  0  0  0  0  0  0
  187.4760  176.1110  135.7420 O   0  0  0  0  0  1  0  0  0  0  0  0
  190.1870  177.4040  137.6860 C   0  0  0  0  0  1  0  0  0  0  0  0
  189.7420  178.2150  136.6420 O   0  0  0  0  0  0  0  0  0  0  0  0
  188.8270  176.9920  141.5040 C   0  0  0  0  0  2  0  0  0  0  0  0
  190.0970  177.3050  142.2870 C   0  0  0  0  0  2  0  0  0  0  0  0
  190.2470  176.4190  143.5180 C   0  0  2  0  0  3  0  0  0  0  0  0
  189.7580  177.1280  144.7690 C   0  0  0  0  0  1  0  0  0  0  0  0
  191.5730  176.0090  143.6810 O   0  0  0  0  0  1  0  0  0  0  0  0
  1 20  1  0  0  0  0
  2 16  1  0  0  0  0
  2  7  1  0  0  0  0
  3  1  1  0  0  0  0
  4  8  2  0  0  0  0
  5  7  1  0  0  0  0
  6  2  1  0  0  0  0
  7  9  1  0  0  0  0
  8 18  1  0  0  0  0
  8  6  1  0  0  0  0
 10 14  1  0  0  0  0
 10  3  1  0  0  0  0
 11 33  1  0  0  0  0
 11  5  1  0  0  0  0
 12 16  1  0  0  0  0
 13  9  1  0  0  0  0
 14 19  1  0  0  0  0
 15  4  1  0  0  0  0
 16 13  1  0  0  0  0
 17  6  1  0  0  0  0
 17 11  1  0  0  0  0
 18 21  1  0  0  0  0
 19 15  1  0  0  0  0
 19 20  1  0  0  0  0
 20 17  1  0  0  0  0
 21 12  1  0  0  0  0
 22 23  1  0  0  0  0
 23 18  1  0  0  0  0
 24 23  2  0  0  0  0
 25 27  1  0  0  0  0
 26 28  1  0  0  0  0
 26 27  2  0  0  0  0
 27 24  1  0  0  0  0
 28 22  2  0  0  0  0
 29 30  1  0  0  0  0
 29 14  1  0  0  0  0
 32  3  1  0  0  0  0
 32 31  1  0  0  0  0
 33 34  1  0  0  0  0
 34 35  1  0  0  0  0
 35 37  1  0  0  0  0
 35 36  1  0  0  0  0
M  END
>  <MODEL>
4

>  <REMARK>
 VINA RESULT:      -7.4      3.028      6.934
  Name = 
  6 active torsions:
  status: ('A' for Active; 'I' for Inactive)
    1  A    between atoms: C_3  and  C_21
    2  A    between atoms: C_5  and  O_23
    3  A    between atoms: C_6  and  C_31
    4  A    between atoms: C_11  and  C_26
    5  A    between atoms: C_20  and  C_25
    6  A    between atoms: C_21  and  C_25
                            x       y       z     vdW  Elec       q    Type
                         _______ _______ _______ _____ _____    ______ ____

>  <TORSDO>
F 6

$$$$
=
 OpenBabel11052415153D

 37 42  0  0  1  0  0  0  0  0999 V2000
  190.1100  176.2180  141.4560 C   0  0  0  0  0  2  0  0  0  0  0  0
  186.8400  178.2530  138.4010 C   0  0  1  0  0  3  0  0  0  0  0  0
  190.4360  175.7980  142.9020 C   0  0  2  0  0  3  0  0  0  0  0  0
  186.9560  179.2710  141.8010 C   0  0  0  0  0  3  0  0  0  0  0  0
  188.3950  176.4950  137.7780 O   0  0  0  0  0  0  0  0  0  0  0  0
  187.1650  177.7240  139.8020 C   0  0  2  0  0  3  0  0  0  0  0  0
  187.8320  177.7240  137.3630 C   0  0  1  0  0  3  0  0  0  0  0  0
  186.3860  178.4650  140.8790 C   0  0  0  0  0  0  0  0  0  0  0  0
  187.0290  177.5020  136.0950 C   0  0  0  0  0  2  0  0  0  0  0  0
  189.4590  176.3750  143.9400 C   0  0  0  0  0  2  0  0  0  0  0  0
  189.2890  176.7230  138.8580 C   0  0  2  0  0  3  0  0  0  0  0  0
  184.3330  178.7070  138.2970 C   0  0  0  0  0  2  0  0  0  0  0  0
  185.5580  177.5220  136.4740 C   0  0  0  0  0  2  0  0  0  0  0  0
  189.1160  177.8570  143.7130 C   0  0  2  0  0  3  0  0  0  0  0  0
  188.4270  179.5350  141.9330 C   0  0  0  0  0  2  0  0  0  0  0  0
  185.4770  177.7410  137.9690 C   0  0  1  0  0  3  0  0  0  0  0  0
  188.6810  177.5890  139.9980 C   0  0  2  0  0  3  0  0  0  0  0  0
  184.8770  178.3820  140.7800 C   0  0  2  0  0  3  0  0  0  0  0  0
  189.2500  178.2720  142.2430 C   0  0  2  0  0  3  0  0  0  0  0  0
  188.9540  177.1230  141.3720 N   0  0  2  0  0  0  0  0  0  0  0  0
  184.3780  179.3380  139.6960 C   0  0  0  0  0  2  0  0  0  0  0  0
  182.7810  178.8400  142.0790 C   0  0  0  0  0  3  0  0  0  0  0  0
  184.1570  178.5790  142.0870 C   0  0  0  0  0  0  0  0  0  0  0  0
  184.8320  178.4670  143.3150 C   0  0  0  0  0  3  0  0  0  0  0  0
  184.7980  178.5270  145.6940 F   0  0  0  0  0  0  0  0  0  0  0  0
  182.7670  178.9000  144.5000 C   0  0  0  0  0  3  0  0  0  0  0  0
  184.1390  178.6290  144.5160 C   0  0  0  0  0  0  0  0  0  0  0  0
  182.0880  179.0030  143.2840 C   0  0  0  0  0  3  0  0  0  0  0  0
  189.9040  178.7760  144.6420 C   0  0  0  0  0  2  0  0  0  0  0  0
  191.0510  179.2660  144.0120 O   0  0  0  0  0  1  0  0  0  0  0  0
  192.0540  175.4570  144.3760 C   0  0  0  0  0  1  0  0  0  0  0  0
  191.7440  176.1670  143.2160 O   0  0  0  0  0  0  0  0  0  0  0  0
  190.6140  177.3130  138.3810 C   0  0  0  0  0  2  0  0  0  0  0  0
  191.4770  176.2440  137.7210 C   0  0  0  0  0  2  0  0  0  0  0  0
  192.9190  176.2810  138.2140 C   0  0  2  0  0  3  0  0  0  0  0  0
  193.0500  177.1280  139.4680 C   0  0  0  0  0  1  0  0  0  0  0  0
  193.7770  176.7530  137.2180 O   0  0  0  0  0  1  0  0  0  0  0  0
  1  3  1  0  0  0  0
  2  6  1  0  0  0  0
  3 32  1  0  0  0  0
  3 10  1  0  0  0  0
  4 15  1  0  0  0  0
  5 11  1  0  0  0  0
  6 17  1  0  0  0  0
  6  8  1  0  0  0  0
  7  5  1  0  0  0  0
  7  2  1  0  0  0  0
  8  4  2  0  0  0  0
  9 13  1  0  0  0  0
  9  7  1  0  0  0  0
 11 17  1  0  0  0  0
 12 21  1  0  0  0  0
 13 16  1  0  0  0  0
 14 10  1  0  0  0  0
 14 29  1  0  0  0  0
 15 19  1  0  0  0  0
 16 12  1  0  0  0  0
 16  2  1  0  0  0  0
 17 20  1  0  0  0  0
 18  8  1  0  0  0  0
 18 23  1  0  0  0  0
 19 14  1  0  0  0  0
 20  1  1  0  0  0  0
 20 19  1  0  0  0  0
 21 18  1  0  0  0  0
 22 23  2  0  0  0  0
 22 28  1  0  0  0  0
 23 24  1  0  0  0  0
 24 27  2  0  0  0  0
 26 27  1  0  0  0  0
 27 25  1  0  0  0  0
 28 26  2  0  0  0  0
 30 29  1  0  0  0  0
 32 31  1  0  0  0  0
 33 11  1  0  0  0  0
 34 35  1  0  0  0  0
 34 33  1  0  0  0  0
 35 36  1  0  0  0  0
 37 35  1  0  0  0  0
M  END
>  <MODEL>
5

>  <REMARK>
 VINA RESULT:      -7.4      3.417      8.022
  Name = 
  6 active torsions:
  status: ('A' for Active; 'I' for Inactive)
    1  A    between atoms: C_3  and  C_21
    2  A    between atoms: C_5  and  O_23
    3  A    between atoms: C_6  and  C_31
    4  A    between atoms: C_11  and  C_26
    5  A    between atoms: C_20  and  C_25
    6  A    between atoms: C_21  and  C_25
                            x       y       z     vdW  Elec       q    Type
                         _______ _______ _______ _____ _____    ______ ____

>  <TORSDO>
F 6

$$$$
=
 OpenBabel11052415153D

 37 42  0  0  1  0  0  0  0  0999 V2000
  191.5400  177.7880  143.2020 C   0  0  0  0  0  2  0  0  0  0  0  0
  187.9540  177.4600  146.5480 C   0  0  1  0  0  3  0  0  0  0  0  0
  191.9120  178.0760  141.7340 C   0  0  2  0  0  3  0  0  0  0  0  0
  187.2690  176.7190  143.1440 C   0  0  0  0  0  3  0  0  0  0  0  0
  190.2220  178.1790  147.0300 O   0  0  0  0  0  0  0  0  0  0  0  0
  188.3820  177.8400  145.1270 C   0  0  2  0  0  3  0  0  0  0  0  0
  189.1590  177.3670  147.4860 C   0  0  1  0  0  3  0  0  0  0  0  0
  187.2530  177.6450  144.1260 C   0  0  0  0  0  0  0  0  0  0  0  0
  188.6790  177.8820  148.8310 C   0  0  0  0  0  2  0  0  0  0  0  0
  190.6960  178.1190  140.7940 C   0  0  0  0  0  2  0  0  0  0  0  0
  190.7920  177.6030  145.8640 C   0  0  2  0  0  3  0  0  0  0  0  0
  185.5710  178.2990  146.8990 C   0  0  0  0  0  2  0  0  0  0  0  0
  187.3680  178.6140  148.6020 C   0  0  0  0  0  2  0  0  0  0  0  0
  189.6810  176.9900  141.0400 C   0  0  2  0  0  3  0  0  0  0  0  0
  188.3960  175.7710  142.8620 C   0  0  0  0  0  2  0  0  0  0  0  0
  187.0670  178.5510  147.1200 C   0  0  1  0  0  3  0  0  0  0  0  0
  189.7430  177.2190  144.7810 C   0  0  2  0  0  3  0  0  0  0  0  0
  185.9990  178.4570  144.3770 C   0  0  2  0  0  3  0  0  0  0  0  0
  189.7100  176.4780  142.4840 C   0  0  2  0  0  3  0  0  0  0  0  0
  190.0980  177.5700  143.3920 N   0  0  2  0  0  0  0  0  0  0  0  0
  185.1810  177.8110  145.4960 C   0  0  0  0  0  2  0  0  0  0  0  0
  185.8160  179.0220  141.9410 C   0  0  0  0  0  3  0  0  0  0  0  0
  185.1720  178.7190  143.1460 C   0  0  0  0  0  0  0  0  0  0  0  0
  183.7690  178.6260  143.1780 C   0  0  0  0  0  3  0  0  0  0  0  0
  181.6740  178.7650  142.0580 F   0  0  0  0  0  0  0  0  0  0  0  0
  183.6740  179.1610  140.8190 C   0  0  0  0  0  3  0  0  0  0  0  0
  183.0240  178.8490  142.0180 C   0  0  0  0  0  0  0  0  0  0  0  0
  185.0670  179.2460  140.7790 C   0  0  0  0  0  3  0  0  0  0  0  0
  189.8280  175.8580  140.0270 C   0  0  0  0  0  2  0  0  0  0  0  0
  190.0360  176.3590  138.7390 O   0  0  0  0  0  1  0  0  0  0  0  0
  193.1330  177.5030  139.9780 C   0  0  0  0  0  1  0  0  0  0  0  0
  192.8320  177.1280  141.2870 O   0  0  0  0  0  0  0  0  0  0  0  0
  191.6820  176.4080  146.1990 C   0  0  0  0  0  2  0  0  0  0  0  0
  191.3930  175.8960  147.6050 C   0  0  0  0  0  2  0  0  0  0  0  0
  192.6450  175.8620  148.4740 C   0  0  2  0  0  3  0  0  0  0  0  0
  192.8010  177.1490  149.2650 C   0  0  0  0  0  1  0  0  0  0  0  0
  193.7850  175.6280  147.7020 O   0  0  0  0  0  1  0  0  0  0  0  0
  1 20  1  0  0  0  0
  2 16  1  0  0  0  0
  2  7  1  0  0  0  0
  3  1  1  0  0  0  0
  4  8  2  0  0  0  0
  5  7  1  0  0  0  0
  6  2  1  0  0  0  0
  7  9  1  0  0  0  0
  8 18  1  0  0  0  0
  8  6  1  0  0  0  0
 10 14  1  0  0  0  0
 10  3  1  0  0  0  0
 11 33  1  0  0  0  0
 11  5  1  0  0  0  0
 12 16  1  0  0  0  0
 13  9  1  0  0  0  0
 14 19  1  0  0  0  0
 15  4  1  0  0  0  0
 16 13  1  0  0  0  0
 17  6  1  0  0  0  0
 17 11  1  0  0  0  0
 18 21  1  0  0  0  0
 19 15  1  0  0  0  0
 19 20  1  0  0  0  0
 20 17  1  0  0  0  0
 21 12  1  0  0  0  0
 22 23  1  0  0  0  0
 23 24  2  0  0  0  0
 23 18  1  0  0  0  0
 26 27  2  0  0  0  0
 27 25  1  0  0  0  0
 27 24  1  0  0  0  0
 28 26  1  0  0  0  0
 28 22  2  0  0  0  0
 29 14  1  0  0  0  0
 30 29  1  0  0  0  0
 31 32  1  0  0  0  0
 32  3  1  0  0  0  0
 33 34  1  0  0  0  0
 34 35  1  0  0  0  0
 35 36  1  0  0  0  0
 37 35  1  0  0  0  0
M  END
>  <MODEL>
6

>  <REMARK>
 VINA RESULT:      -6.5      4.354      8.916
  Name = 
  6 active torsions:
  status: ('A' for Active; 'I' for Inactive)
    1  A    between atoms: C_3  and  C_21
    2  A    between atoms: C_5  and  O_23
    3  A    between atoms: C_6  and  C_31
    4  A    between atoms: C_11  and  C_26
    5  A    between atoms: C_20  and  C_25
    6  A    between atoms: C_21  and  C_25
                            x       y       z     vdW  Elec       q    Type
                         _______ _______ _______ _____ _____    ______ ____

>  <TORSDO>
F 6

$$$$
=
 OpenBabel11052415153D

 37 42  0  0  1  0  0  0  0  0999 V2000
  187.7660  177.1010  144.0950 C   0  0  0  0  0  2  0  0  0  0  0  0
  188.4270  178.0620  139.3190 C   0  0  1  0  0  3  0  0  0  0  0  0
  186.7570  176.8330  145.2290 C   0  0  2  0  0  3  0  0  0  0  0  0
  185.4830  179.1830  140.9580 C   0  0  0  0  0  3  0  0  0  0  0  0
  189.9670  176.7780  140.6890 O   0  0  0  0  0  0  0  0  0  0  0  0
  187.4690  177.6890  140.4550 C   0  0  2  0  0  3  0  0  0  0  0  0
  189.8820  177.7920  139.7070 C   0  0  1  0  0  3  0  0  0  0  0  0
  186.0660  178.2230  140.2080 C   0  0  0  0  0  0  0  0  0  0  0  0
  190.5690  177.3180  138.4400 C   0  0  0  0  0  2  0  0  0  0  0  0
  185.3040  177.1540  144.8410 C   0  0  0  0  0  2  0  0  0  0  0  0
  189.4850  177.2770  141.9280 C   0  0  2  0  0  3  0  0  0  0  0  0
  187.1670  177.8090  137.1170 C   0  0  0  0  0  2  0  0  0  0  0  0
  189.4860  176.9460  137.4420 C   0  0  0  0  0  2  0  0  0  0  0  0
  185.1450  178.4780  144.0730 C   0  0  2  0  0  3  0  0  0  0  0  0
  186.0990  179.8440  142.1550 C   0  0  0  0  0  2  0  0  0  0  0  0
  188.1500  177.1840  138.1120 C   0  0  1  0  0  3  0  0  0  0  0  0
  188.1020  177.9800  141.8230 C   0  0  2  0  0  3  0  0  0  0  0  0
  185.3800  177.7270  138.9520 C   0  0  2  0  0  3  0  0  0  0  0  0
  186.4110  178.8660  143.3010 C   0  0  2  0  0  3  0  0  0  0  0  0
  187.1330  177.6510  142.8870 N   0  0  2  0  0  0  0  0  0  0  0  0
  185.9290  178.4740  137.7350 C   0  0  0  0  0  2  0  0  0  0  0  0
  183.1940  178.8350  138.4270 C   0  0  0  0  0  3  0  0  0  0  0  0
  183.8760  177.7610  139.0100 C   0  0  0  0  0  0  0  0  0  0  0  0
  183.1460  176.7170  139.6040 C   0  0  0  0  0  3  0  0  0  0  0  0
  181.0550  175.7530  140.2040 F   0  0  0  0  0  0  0  0  0  0  0  0
  181.0750  177.8400  139.0480 C   0  0  0  0  0  3  0  0  0  0  0  0
  181.7510  176.7580  139.6230 C   0  0  0  0  0  0  0  0  0  0  0  0
  181.7940  178.8760  138.4490 C   0  0  0  0  0  3  0  0  0  0  0  0
  184.6550  179.6070  144.9750 C   0  0  0  0  0  2  0  0  0  0  0  0
  184.0290  179.1030  146.1180 O   0  0  0  0  0  1  0  0  0  0  0  0
  188.4990  177.7500  146.2430 C   0  0  0  0  0  1  0  0  0  0  0  0
  187.1230  177.5560  146.3640 O   0  0  0  0  0  0  0  0  0  0  0  0
  190.5040  178.1920  142.6050 C   0  0  0  0  0  2  0  0  0  0  0  0
  191.7170  177.3970  143.0750 C   0  0  0  0  0  2  0  0  0  0  0  0
  191.3610  176.3900  144.1620 C   0  0  2  0  0  3  0  0  0  0  0  0
  191.6910  176.9320  145.5430 C   0  0  0  0  0  1  0  0  0  0  0  0
  192.0130  175.1730  143.9510 O   0  0  0  0  0  1  0  0  0  0  0  0
  1  3  1  0  0  0  0
  2  7  1  0  0  0  0
  2  6  1  0  0  0  0
  3 32  1  0  0  0  0
  4 15  1  0  0  0  0
  5 11  1  0  0  0  0
  6 17  1  0  0  0  0
  7  5  1  0  0  0  0
  8  6  1  0  0  0  0
  8  4  2  0  0  0  0
  9  7  1  0  0  0  0
 10  3  1  0  0  0  0
 11 33  1  0  0  0  0
 12 21  1  0  0  0  0
 12 16  1  0  0  0  0
 13 16  1  0  0  0  0
 13  9  1  0  0  0  0
 14 10  1  0  0  0  0
 14 29  1  0  0  0  0
 15 19  1  0  0  0  0
 16  2  1  0  0  0  0
 17 11  1  0  0  0  0
 17 20  1  0  0  0  0
 18 23  1  0  0  0  0
 18  8  1  0  0  0  0
 19 14  1  0  0  0  0
 20 19  1  0  0  0  0
 20  1  1  0  0  0  0
 21 18  1  0  0  0  0
 22 28  2  0  0  0  0
 22 23  1  0  0  0  0
 23 24  2  0  0  0  0
 24 27  1  0  0  0  0
 26 27  2  0  0  0  0
 27 25  1  0  0  0  0
 28 26  1  0  0  0  0
 29 30  1  0  0  0  0
 31 32  1  0  0  0  0
 33 34  1  0  0  0  0
 34 35  1  0  0  0  0
 35 36  1  0  0  0  0
 37 35  1  0  0  0  0
M  END
>  <MODEL>
7

>  <REMARK>
 VINA RESULT:      -6.5      3.412      8.698
  Name = 
  6 active torsions:
  status: ('A' for Active; 'I' for Inactive)
    1  A    between atoms: C_3  and  C_21
    2  A    between atoms: C_5  and  O_23
    3  A    between atoms: C_6  and  C_31
    4  A    between atoms: C_11  and  C_26
    5  A    between atoms: C_20  and  C_25
    6  A    between atoms: C_21  and  C_25
                            x       y       z     vdW  Elec       q    Type
                         _______ _______ _______ _____ _____    ______ ____

>  <TORSDO>
F 6

$$$$
=
 OpenBabel11052415153D

 37 42  0  0  1  0  0  0  0  0999 V2000
  184.4120  176.9430  137.6090 C   0  0  0  0  0  2  0  0  0  0  0  0
  182.4810  178.9790  141.6450 C   0  0  1  0  0  3  0  0  0  0  0  0
  185.6140  176.2080  136.9840 C   0  0  2  0  0  3  0  0  0  0  0  0
  186.0010  178.9730  141.1780 C   0  0  0  0  0  3  0  0  0  0  0  0
  181.1900  177.8740  139.9110 O   0  0  0  0  0  0  0  0  0  0  0  0
  183.6060  178.1570  141.0080 C   0  0  2  0  0  3  0  0  0  0  0  0
  181.2400  179.0100  140.7510 C   0  0  1  0  0  3  0  0  0  0  0  0
  184.9310  178.3600  141.7290 C   0  0  0  0  0  0  0  0  0  0  0  0
  180.0490  178.9880  141.6910 C   0  0  0  0  0  2  0  0  0  0  0  0
  186.8690  176.2260  137.8720 C   0  0  0  0  0  2  0  0  0  0  0  0
  182.1970  177.9760  138.9140 C   0  0  2  0  0  3  0  0  0  0  0  0
  182.7650  178.8660  144.1770 C   0  0  0  0  0  2  0  0  0  0  0  0
  180.5530  178.5650  143.0610 C   0  0  0  0  0  2  0  0  0  0  0  0
  187.1550  177.5940  138.5160 C   0  0  2  0  0  3  0  0  0  0  0  0
  186.0690  179.5120  139.7810 C   0  0  0  0  0  2  0  0  0  0  0  0
  182.0420  178.3200  142.9410 C   0  0  1  0  0  3  0  0  0  0  0  0
  183.6050  178.3170  139.4820 C   0  0  2  0  0  3  0  0  0  0  0  0
  184.9550  177.9710  143.1930 C   0  0  2  0  0  3  0  0  0  0  0  0
  185.8850  178.4340  138.6990 C   0  0  2  0  0  3  0  0  0  0  0  0
  184.7280  177.5480  138.9110 N   0  0  2  0  0  0  0  0  0  0  0  0
  184.2810  179.0600  144.0270 C   0  0  0  0  0  2  0  0  0  0  0  0
  186.7170  178.0930  144.9730 C   0  0  0  0  0  3  0  0  0  0  0  0
  186.3200  177.6150  143.7180 C   0  0  0  0  0  0  0  0  0  0  0  0
  187.1860  176.7800  142.9910 C   0  0  0  0  0  3  0  0  0  0  0  0
  189.2690  175.6450  142.7990 F   0  0  0  0  0  0  0  0  0  0  0  0
  188.8320  176.9330  144.7590 C   0  0  0  0  0  3  0  0  0  0  0  0
  188.4380  176.4430  143.5090 C   0  0  0  0  0  0  0  0  0  0  0  0
  187.9730  177.7550  145.4910 C   0  0  0  0  0  3  0  0  0  0  0  0
  188.2460  178.3590  137.7750 C   0  0  0  0  0  2  0  0  0  0  0  0
  187.6970  179.2830  136.8820 O   0  0  0  0  0  1  0  0  0  0  0  0
  186.7960  175.8640  135.1430 C   0  0  0  0  0  1  0  0  0  0  0  0
  185.9020  176.7570  135.7340 O   0  0  0  0  0  0  0  0  0  0  0  0
  181.8070  178.9620  137.8150 C   0  0  0  0  0  2  0  0  0  0  0  0
  180.4750  178.5720  137.1850 C   0  0  0  0  0  2  0  0  0  0  0  0
  179.8300  179.7320  136.4350 C   0  0  2  0  0  3  0  0  0  0  0  0
  178.9550  179.2330  135.2980 C   0  0  0  0  0  1  0  0  0  0  0  0
  180.7980  180.6140  135.9490 O   0  0  0  0  0  1  0  0  0  0  0  0
  1 20  1  0  0  0  0
  2 16  1  0  0  0  0
  3  1  1  0  0  0  0
  3 10  1  0  0  0  0
  4  8  2  0  0  0  0
  5  7  1  0  0  0  0
  6  2  1  0  0  0  0
  6  8  1  0  0  0  0
  7  2  1  0  0  0  0
  7  9  1  0  0  0  0
  8 18  1  0  0  0  0
  9 13  1  0  0  0  0
 10 14  1  0  0  0  0
 11 17  1  0  0  0  0
 11  5  1  0  0  0  0
 14 19  1  0  0  0  0
 15  4  1  0  0  0  0
 16 13  1  0  0  0  0
 16 12  1  0  0  0  0
 17  6  1  0  0  0  0
 18 23  1  0  0  0  0
 18 21  1  0  0  0  0
 19 20  1  0  0  0  0
 19 15  1  0  0  0  0
 20 17  1  0  0  0  0
 21 12  1  0  0  0  0
 22 28  1  0  0  0  0
 23 22  2  0  0  0  0
 24 27  2  0  0  0  0
 24 23  1  0  0  0  0
 25 27  1  0  0  0  0
 26 28  2  0  0  0  0
 27 26  1  0  0  0  0
 29 14  1  0  0  0  0
 30 29  1  0  0  0  0
 31 32  1  0  0  0  0
 32  3  1  0  0  0  0
 33 11  1  0  0  0  0
 34 33  1  0  0  0  0
 35 34  1  0  0  0  0
 36 35  1  0  0  0  0
 37 35  1  0  0  0  0
M  END
>  <MODEL>
8

>  <REMARK>
 VINA RESULT:      -6.5      1.604      1.873
  Name = 
  6 active torsions:
  status: ('A' for Active; 'I' for Inactive)
    1  A    between atoms: C_3  and  C_21
    2  A    between atoms: C_5  and  O_23
    3  A    between atoms: C_6  and  C_31
    4  A    between atoms: C_11  and  C_26
    5  A    between atoms: C_20  and  C_25
    6  A    between atoms: C_21  and  C_25
                            x       y       z     vdW  Elec       q    Type
                         _______ _______ _______ _____ _____    ______ ____

>  <TORSDO>
F 6

$$$$
=
 OpenBabel11052415153D

 37 42  0  0  1  0  0  0  0  0999 V2000
  188.2970  177.3190  143.7900 C   0  0  0  0  0  2  0  0  0  0  0  0
  190.8980  177.5030  139.6220 C   0  0  1  0  0  3  0  0  0  0  0  0
  186.9170  177.1040  144.4400 C   0  0  2  0  0  3  0  0  0  0  0  0
  187.4700  178.4270  139.6100 C   0  0  0  0  0  3  0  0  0  0  0  0
  191.7720  176.7390  141.7550 O   0  0  0  0  0  0  0  0  0  0  0  0
  189.5690  177.1940  140.3190 C   0  0  2  0  0  3  0  0  0  0  0  0
  192.0550  177.5360  140.6220 C   0  0  1  0  0  3  0  0  0  0  0  0
  188.3800  177.4500  139.4050 C   0  0  0  0  0  0  0  0  0  0  0  0
  193.2530  176.9560  139.8920 C   0  0  0  0  0  2  0  0  0  0  0  0
  185.7570  177.1210  143.4300 C   0  0  0  0  0  2  0  0  0  0  0  0
  190.7700  177.3710  142.5390 C   0  0  2  0  0  3  0  0  0  0  0  0
  190.7350  176.6680  137.2180 C   0  0  0  0  0  2  0  0  0  0  0  0
  192.7350  176.2480  138.6510 C   0  0  0  0  0  2  0  0  0  0  0  0
  185.8610  178.2450  142.3850 C   0  0  2  0  0  3  0  0  0  0  0  0
  187.4620  179.3780  140.7690 C   0  0  0  0  0  2  0  0  0  0  0  0
  191.2280  176.3910  138.6430 C   0  0  1  0  0  3  0  0  0  0  0  0
  189.5260  177.8200  141.7200 C   0  0  2  0  0  3  0  0  0  0  0  0
  188.3390  176.6370  138.1270 C   0  0  2  0  0  3  0  0  0  0  0  0
  187.3090  178.6810  142.1320 C   0  0  2  0  0  3  0  0  0  0  0  0
  188.2160  177.5390  142.3380 N   0  0  2  0  0  0  0  0  0  0  0  0
  189.3110  177.2310  137.1070 C   0  0  0  0  0  2  0  0  0  0  0  0
  186.1590  177.5700  137.3140 C   0  0  0  0  0  3  0  0  0  0  0  0
  186.9590  176.4470  137.5550 C   0  0  0  0  0  0  0  0  0  0  0  0
  186.4780  175.1690  137.2250 C   0  0  0  0  0  3  0  0  0  0  0  0
  184.7450  173.7840  136.3630 F   0  0  0  0  0  0  0  0  0  0  0  0
  184.4050  176.1440  136.4420 C   0  0  0  0  0  3  0  0  0  0  0  0
  185.2050  175.0190  136.6720 C   0  0  0  0  0  0  0  0  0  0  0  0
  184.8820  177.4170  136.7600 C   0  0  0  0  0  3  0  0  0  0  0  0
  184.9580  179.4270  142.7240 C   0  0  0  0  0  2  0  0  0  0  0  0
  184.0070  179.0750  143.6850 O   0  0  0  0  0  1  0  0  0  0  0  0
  187.3700  177.5800  146.5550 C   0  0  0  0  0  1  0  0  0  0  0  0
  186.7080  178.0670  145.4280 O   0  0  0  0  0  0  0  0  0  0  0  0
  191.3340  178.5390  143.3460 C   0  0  0  0  0  2  0  0  0  0  0  0
  191.9330  178.0510  144.6600 C   0  0  0  0  0  2  0  0  0  0  0  0
  191.2750  176.7670  145.1520 C   0  0  2  0  0  3  0  0  0  0  0  0
  191.0110  176.8220  146.6470 C   0  0  0  0  0  1  0  0  0  0  0  0
  192.0550  175.6510  144.8390 O   0  0  0  0  0  1  0  0  0  0  0  0
  1  3  1  0  0  0  0
  2  6  1  0  0  0  0
  2  7  1  0  0  0  0
  3 32  1  0  0  0  0
  4 15  1  0  0  0  0
  5 11  1  0  0  0  0
  6 17  1  0  0  0  0
  7  5  1  0  0  0  0
  8  4  2  0  0  0  0
  8  6  1  0  0  0  0
  9  7  1  0  0  0  0
 10  3  1  0  0  0  0
 11 33  1  0  0  0  0
 12 16  1  0  0  0  0
 13  9  1  0  0  0  0
 14 29  1  0  0  0  0
 14 10  1  0  0  0  0
 15 19  1  0  0  0  0
 16 13  1  0  0  0  0
 16  2  1  0  0  0  0
 17 20  1  0  0  0  0
 17 11  1  0  0  0  0
 18  8  1  0  0  0  0
 19 20  1  0  0  0  0
 19 14  1  0  0  0  0
 20  1  1  0  0  0  0
 21 12  1  0  0  0  0
 21 18  1  0  0  0  0
 22 23  1  0  0  0  0
 23 18  1  0  0  0  0
 24 23  2  0  0  0  0
 25 27  1  0  0  0  0
 26 27  2  0  0  0  0
 26 28  1  0  0  0  0
 27 24  1  0  0  0  0
 28 22  2  0  0  0  0
 29 30  1  0  0  0  0
 32 31  1  0  0  0  0
 33 34  1  0  0  0  0
 34 35  1  0  0  0  0
 35 36  1  0  0  0  0
 37 35  1  0  0  0  0
M  END
>  <MODEL>
9

>  <REMARK>
 VINA RESULT:      -6.4      3.925      9.232
  Name = 
  6 active torsions:
  status: ('A' for Active; 'I' for Inactive)
    1  A    between atoms: C_3  and  C_21
    2  A    between atoms: C_5  and  O_23
    3  A    between atoms: C_6  and  C_31
    4  A    between atoms: C_11  and  C_26
    5  A    between atoms: C_20  and  C_25
    6  A    between atoms: C_21  and  C_25
                            x       y       z     vdW  Elec       q    Type
                         _______ _______ _______ _____ _____    ______ ____

>  <TORSDO>
F 6

$$$$
