=
 OpenBabel11052413513D

 27 31  0  0  1  0  0  0  0  0999 V2000
  186.8290  177.7680  142.3600 C   0  0  2  0  0  3  0  0  0  0  0  0
  186.6650  177.4530  143.8660 C   0  0  2  0  0  3  0  0  0  0  0  0
  188.9240  177.6740  143.4060 C   0  0  0  0  0  0  0  0  0  0  0  0
  187.7530  178.1060  148.2410 S   0  0  0  0  0  0  0  0  0  0  0  0
  190.5180  177.9430  148.7130 C   0  0  0  0  0  1  0  0  0  0  0  0
  185.6790  178.3050  144.6880 C   0  0  0  0  0  2  0  0  0  0  0  0
  189.4970  177.7250  146.4430 N   0  0  0  0  0  0  0  0  0  0  0  0
  190.4510  177.6240  140.9910 C   0  0  2  0  0  3  0  0  0  0  0  0
  190.7740  179.1350  143.5940 O   0  0  0  0  0  1  0  0  0  0  0  0
  191.1130  177.0140  139.9250 O   0  0  0  0  0  1  0  0  0  0  0  0
  188.2830  177.7350  145.8330 C   0  0  0  0  0  0  0  0  0  0  0  0
  189.3650  177.9140  147.7760 C   0  0  0  0  0  0  0  0  0  0  0  0
  187.1970  177.9570  146.6640 C   0  0  0  0  0  0  0  0  0  0  0  0
  188.2770  177.7590  142.1450 N   0  0  0  0  0  0  0  0  0  0  0  0
  188.0540  177.5890  144.3940 C   0  0  0  0  0  0  0  0  0  0  0  0
  191.0620  177.1320  142.3090 C   0  0  0  0  0  2  0  0  0  0  0  0
  185.7670  177.9690  146.1920 C   0  0  0  0  0  2  0  0  0  0  0  0
  188.3450  177.9980  139.7050 C   0  0  0  0  0  1  0  0  0  0  0  0
  188.9470  177.3130  140.9210 C   0  0  1  0  0  3  0  0  0  0  0  0
  190.4080  177.7890  143.5260 C   0  0  2  0  0  3  0  0  0  0  0  0
  186.2010  179.1020  141.9020 C   0  0  0  0  0  2  0  0  0  0  0  0
  182.5190  179.1700  139.6930 C   0  0  0  0  0  2  0  0  0  0  0  0
  184.9860  178.9580  141.0280 C   0  0  0  0  0  0  0  0  0  0  0  0
  183.8380  178.1090  141.5280 C   0  0  0  0  0  2  0  0  0  0  0  0
  182.7470  177.8930  140.4820 C   0  0  0  0  0  2  0  0  0  0  0  0
  183.8170  179.5020  138.9750 C   0  0  0  0  0  2  0  0  0  0  0  0
  184.9250  179.6000  139.9060 N   0  0  0  0  0  0  0  0  0  0  0  0
  1 21  1  1  0  0  0
  1  2  1  0  0  0  0
  2 15  1  0  0  0  0
  2  6  1  1  0  0  0
  3 20  1  0  0  0  0
  3 15  2  0  0  0  0
  6 17  1  0  0  0  0
  7 12  2  0  0  0  0
  8 10  1  6  0  0  0
  8 16  1  0  0  0  0
 11  7  1  0  0  0  0
 11 13  2  0  0  0  0
 12  4  1  0  0  0  0
 12  5  1  0  0  0  0
 13  4  1  0  0  0  0
 14  1  1  0  0  0  0
 14  3  1  0  0  0  0
 15 11  1  0  0  0  0
 16 20  1  0  0  0  0
 17 13  1  0  0  0  0
 19 18  1  6  0  0  0
 19  8  1  0  0  0  0
 19 14  1  0  0  0  0
 20  9  1  6  0  0  0
 22 25  1  0  0  0  0
 23 24  1  0  0  0  0
 23 21  1  0  0  0  0
 25 24  1  0  0  0  0
 26 22  1  0  0  0  0
 26 27  1  0  0  0  0
 27 23  2  0  0  0  0
M  END
>  <MODEL>
1

>  <REMARK>
 VINA RESULT:      -9.7      0.000      0.000
  Name = 
  2 active torsions:
  status: ('A' for Active; 'I' for Inactive)
    1  A    between atoms: C_1  and  C_15
    2  A    between atoms: C_9  and  C_15
                            x       y       z     vdW  Elec       q    Type
                         _______ _______ _______ _____ _____    ______ ____

>  <TORSDO>
F 2

$$$$
=
 OpenBabel11052413513D

 27 31  0  0  1  0  0  0  0  0999 V2000
  188.5140  177.1530  143.5930 C   0  0  2  0  0  3  0  0  0  0  0  0
  188.9880  176.7810  142.1680 C   0  0  2  0  0  3  0  0  0  0  0  0
  187.0040  177.9620  141.9950 C   0  0  0  0  0  0  0  0  0  0  0  0
  189.6750  177.7900  137.7800 S   0  0  0  0  0  0  0  0  0  0  0  0
  187.3850  178.8330  136.5290 C   0  0  0  0  0  1  0  0  0  0  0  0
  190.4390  177.1140  141.7700 C   0  0  0  0  0  2  0  0  0  0  0  0
  187.4700  178.2210  138.9510 N   0  0  0  0  0  0  0  0  0  0  0  0
  184.9310  178.6040  143.8550 C   0  0  2  0  0  3  0  0  0  0  0  0
  186.0830  180.0760  141.4750 O   0  0  0  0  0  1  0  0  0  0  0  0
  183.7830  178.3520  144.6070 O   0  0  0  0  0  1  0  0  0  0  0  0
  188.3260  177.7120  139.8750 C   0  0  0  0  0  0  0  0  0  0  0  0
  188.0720  178.3190  137.7430 C   0  0  0  0  0  0  0  0  0  0  0  0
  189.6040  177.4330  139.4190 C   0  0  0  0  0  0  0  0  0  0  0  0
  187.2050  177.7720  143.3890 N   0  0  0  0  0  0  0  0  0  0  0  0
  188.0170  177.4980  141.2910 C   0  0  0  0  0  0  0  0  0  0  0  0
  184.6100  178.4090  142.3680 C   0  0  0  0  0  2  0  0  0  0  0  0
  190.6870  176.8310  140.2730 C   0  0  0  0  0  2  0  0  0  0  0  0
  186.4930  178.0450  145.7190 C   0  0  0  0  0  1  0  0  0  0  0  0
  186.0690  177.6740  144.3080 C   0  0  1  0  0  3  0  0  0  0  0  0
  185.8180  178.7060  141.4760 C   0  0  2  0  0  3  0  0  0  0  0  0
  189.4640  178.0890  144.3710 C   0  0  0  0  0  2  0  0  0  0  0  0
  191.8290  176.7500  147.6960 C   0  0  0  0  0  2  0  0  0  0  0  0
  190.1860  177.4400  145.5200 C   0  0  0  0  0  0  0  0  0  0  0  0
  191.4580  176.6750  145.2290 C   0  0  0  0  0  2  0  0  0  0  0  0
  191.9960  175.9160  146.4390 C   0  0  0  0  0  2  0  0  0  0  0  0
  190.3400  176.9840  147.8960 C   0  0  0  0  0  2  0  0  0  0  0  0
  189.7400  177.5950  146.7250 N   0  0  0  0  0  0  0  0  0  0  0  0
  1 21  1  6  0  0  0
  2  6  1  6  0  0  0
  2  1  1  0  0  0  0
  3 14  1  0  0  0  0
  4 13  1  0  0  0  0
  5 12  1  0  0  0  0
  7 11  1  0  0  0  0
  8 19  1  0  0  0  0
  8 10  1  1  0  0  0
 11 15  1  0  0  0  0
 12  4  1  0  0  0  0
 12  7  2  0  0  0  0
 13 11  2  0  0  0  0
 13 17  1  0  0  0  0
 14  1  1  0  0  0  0
 14 19  1  0  0  0  0
 15  3  2  0  0  0  0
 15  2  1  0  0  0  0
 16  8  1  0  0  0  0
 17  6  1  0  0  0  0
 19 18  1  1  0  0  0
 20  9  1  1  0  0  0
 20  3  1  0  0  0  0
 20 16  1  0  0  0  0
 21 23  1  0  0  0  0
 22 26  1  0  0  0  0
 23 27  2  0  0  0  0
 24 23  1  0  0  0  0
 24 25  1  0  0  0  0
 25 22  1  0  0  0  0
 27 26  1  0  0  0  0
M  END
>  <MODEL>
2

>  <REMARK>
 VINA RESULT:      -9.0      3.096      7.582
  Name = 
  2 active torsions:
  status: ('A' for Active; 'I' for Inactive)
    1  A    between atoms: C_1  and  C_15
    2  A    between atoms: C_9  and  C_15
                            x       y       z     vdW  Elec       q    Type
                         _______ _______ _______ _____ _____    ______ ____

>  <TORSDO>
F 2

$$$$
=
 OpenBabel11052413513D

 27 31  0  0  1  0  0  0  0  0999 V2000
  187.8170  178.2380  143.1850 C   0  0  2  0  0  3  0  0  0  0  0  0
  188.2740  178.5190  141.7330 C   0  0  2  0  0  3  0  0  0  0  0  0
  189.9680  177.3800  142.8270 C   0  0  0  0  0  0  0  0  0  0  0  0
  190.2790  177.2540  137.8440 S   0  0  0  0  0  0  0  0  0  0  0  0
  192.8550  176.2010  138.2380 C   0  0  0  0  0  1  0  0  0  0  0  0
  187.3290  178.1290  140.5810 C   0  0  0  0  0  2  0  0  0  0  0  0
  191.3730  176.9430  140.1080 N   0  0  0  0  0  0  0  0  0  0  0  0
  190.5480  176.8930  145.5820 C   0  0  2  0  0  3  0  0  0  0  0  0
  190.9940  175.2640  143.0700 O   0  0  0  0  0  1  0  0  0  0  0  0
  191.0390  177.2140  146.8480 O   0  0  0  0  0  1  0  0  0  0  0  0
  190.1440  177.4800  140.3240 C   0  0  0  0  0  0  0  0  0  0  0  0
  191.5930  176.7640  138.7860 C   0  0  0  0  0  0  0  0  0  0  0  0
  189.3800  177.7020  139.1890 C   0  0  0  0  0  0  0  0  0  0  0  0
  188.9900  177.6410  143.8230 N   0  0  0  0  0  0  0  0  0  0  0  0
  189.5660  177.7800  141.6360 C   0  0  0  0  0  0  0  0  0  0  0  0
  191.6820  177.0130  144.5570 C   0  0  0  0  0  2  0  0  0  0  0  0
  188.0090  178.3230  139.2090 C   0  0  0  0  0  2  0  0  0  0  0  0
  188.1960  177.5140  146.1400 C   0  0  0  0  0  1  0  0  0  0  0  0
  189.3720  177.8180  145.2260 C   0  0  1  0  0  3  0  0  0  0  0  0
  191.2240  176.6390  143.1460 C   0  0  2  0  0  3  0  0  0  0  0  0
  186.5800  177.3230  143.3120 C   0  0  0  0  0  2  0  0  0  0  0  0
  182.6730  178.8370  144.2540 C   0  0  0  0  0  2  0  0  0  0  0  0
  185.2920  178.0420  143.6000 C   0  0  0  0  0  0  0  0  0  0  0  0
  184.3110  178.2400  142.4660 C   0  0  0  0  0  2  0  0  0  0  0  0
  183.1310  179.1360  142.8380 C   0  0  0  0  0  2  0  0  0  0  0  0
  183.8330  179.1530  145.1860 C   0  0  0  0  0  2  0  0  0  0  0  0
  185.0280  178.4220  144.8080 N   0  0  0  0  0  0  0  0  0  0  0  0
  1 21  1  6  0  0  0
  1 14  1  0  0  0  0
  2  6  1  6  0  0  0
  2  1  1  0  0  0  0
  3 20  1  0  0  0  0
  3 14  1  0  0  0  0
  4 12  1  0  0  0  0
  4 13  1  0  0  0  0
  5 12  1  0  0  0  0
  7 11  1  0  0  0  0
  8 10  1  1  0  0  0
 11 15  1  0  0  0  0
 12  7  2  0  0  0  0
 13 17  1  0  0  0  0
 13 11  2  0  0  0  0
 14 19  1  0  0  0  0
 15  2  1  0  0  0  0
 15  3  2  0  0  0  0
 16  8  1  0  0  0  0
 17  6  1  0  0  0  0
 19  8  1  0  0  0  0
 19 18  1  1  0  0  0
 20  9  1  1  0  0  0
 20 16  1  0  0  0  0
 21 23  1  0  0  0  0
 22 26  1  0  0  0  0
 23 27  2  0  0  0  0
 24 25  1  0  0  0  0
 24 23  1  0  0  0  0
 25 22  1  0  0  0  0
 27 26  1  0  0  0  0
M  END
>  <MODEL>
3

>  <REMARK>
 VINA RESULT:      -8.6      3.046      5.502
  Name = 
  2 active torsions:
  status: ('A' for Active; 'I' for Inactive)
    1  A    between atoms: C_1  and  C_15
    2  A    between atoms: C_9  and  C_15
                            x       y       z     vdW  Elec       q    Type
                         _______ _______ _______ _____ _____    ______ ____

>  <TORSDO>
F 2

$$$$
=
 OpenBabel11052413513D

 27 31  0  0  1  0  0  0  0  0999 V2000
  186.2980  178.6500  142.4590 C   0  0  2  0  0  3  0  0  0  0  0  0
  184.9920  179.1210  143.1420 C   0  0  2  0  0  3  0  0  0  0  0  0
  184.5140  178.5830  140.9400 C   0  0  0  0  0  0  0  0  0  0  0  0
  180.5220  178.7490  143.9350 S   0  0  0  0  0  0  0  0  0  0  0  0
  179.0030  178.6160  141.5740 C   0  0  0  0  0  1  0  0  0  0  0  0
  184.5940  178.4760  144.4830 C   0  0  0  0  0  2  0  0  0  0  0  0
  181.4980  178.7460  141.5970 N   0  0  0  0  0  0  0  0  0  0  0  0
  186.1310  178.2220  138.6110 C   0  0  2  0  0  3  0  0  0  0  0  0
  183.5570  176.9310  139.5460 O   0  0  0  0  0  1  0  0  0  0  0  0
  186.8710  178.6450  137.5070 O   0  0  0  0  0  1  0  0  0  0  0  0
  182.5370  178.8280  142.4690 C   0  0  0  0  0  0  0  0  0  0  0  0
  180.3190  178.6990  142.2590 C   0  0  0  0  0  0  0  0  0  0  0  0
  182.1940  178.8180  143.8110 C   0  0  0  0  0  0  0  0  0  0  0  0
  185.9250  178.4620  141.0560 N   0  0  0  0  0  0  0  0  0  0  0  0
  183.9540  178.8660  142.1000 C   0  0  0  0  0  0  0  0  0  0  0  0
  184.6980  178.7560  138.4900 C   0  0  0  0  0  2  0  0  0  0  0  0
  183.1910  178.9380  144.9320 C   0  0  0  0  0  2  0  0  0  0  0  0
  188.1280  177.9910  140.0890 C   0  0  0  0  0  1  0  0  0  0  0  0
  186.8000  178.7070  139.9080 C   0  0  1  0  0  3  0  0  0  0  0  0
  183.8140  178.2990  139.6530 C   0  0  2  0  0  3  0  0  0  0  0  0
  186.9160  177.3670  143.0530 C   0  0  0  0  0  2  0  0  0  0  0  0
  190.3580  177.4610  145.6200 C   0  0  0  0  0  2  0  0  0  0  0  0
  188.0690  177.5990  143.9900 C   0  0  0  0  0  0  0  0  0  0  0  0
  187.8720  177.3020  145.4600 C   0  0  0  0  0  2  0  0  0  0  0  0
  189.0460  177.7460  146.3290 C   0  0  0  0  0  2  0  0  0  0  0  0
  190.3710  178.2770  144.3370 C   0  0  0  0  0  2  0  0  0  0  0  0
  189.2090  177.9900  143.5180 N   0  0  0  0  0  0  0  0  0  0  0  0
  1 21  1  1  0  0  0
  1  2  1  0  0  0  0
  2  6  1  1  0  0  0
  3 14  1  0  0  0  0
  3 15  2  0  0  0  0
  5 12  1  0  0  0  0
  6 17  1  0  0  0  0
  7 12  2  0  0  0  0
  7 11  1  0  0  0  0
  8 10  1  6  0  0  0
  8 19  1  0  0  0  0
 11 13  2  0  0  0  0
 12  4  1  0  0  0  0
 13  4  1  0  0  0  0
 13 17  1  0  0  0  0
 14  1  1  0  0  0  0
 15 11  1  0  0  0  0
 15  2  1  0  0  0  0
 16  8  1  0  0  0  0
 16 20  1  0  0  0  0
 19 18  1  1  0  0  0
 19 14  1  0  0  0  0
 20  9  1  6  0  0  0
 20  3  1  0  0  0  0
 21 23  1  0  0  0  0
 22 25  1  0  0  0  0
 23 24  1  0  0  0  0
 24 25  1  0  0  0  0
 26 22  1  0  0  0  0
 27 23  2  0  0  0  0
 27 26  1  0  0  0  0
M  END
>  <MODEL>
4

>  <REMARK>
 VINA RESULT:      -8.4      3.022      6.660
  Name = 
  2 active torsions:
  status: ('A' for Active; 'I' for Inactive)
    1  A    between atoms: C_1  and  C_15
    2  A    between atoms: C_9  and  C_15
                            x       y       z     vdW  Elec       q    Type
                         _______ _______ _______ _____ _____    ______ ____

>  <TORSDO>
F 2

$$$$
=
 OpenBabel11052413513D

 27 31  0  0  1  0  0  0  0  0999 V2000
  187.8310  178.4310  141.3280 C   0  0  2  0  0  3  0  0  0  0  0  0
  186.4150  178.9320  141.6990 C   0  0  2  0  0  3  0  0  0  0  0  0
  186.4380  178.4020  139.4440 C   0  0  0  0  0  0  0  0  0  0  0  0
  181.8740  178.6630  141.4550 S   0  0  0  0  0  0  0  0  0  0  0  0
  180.9280  178.5600  138.8110 C   0  0  0  0  0  1  0  0  0  0  0  0
  185.7100  178.2980  142.9130 C   0  0  0  0  0  2  0  0  0  0  0  0
  183.3560  178.6340  139.4000 N   0  0  0  0  0  0  0  0  0  0  0  0
  188.5320  178.0010  137.5410 C   0  0  2  0  0  3  0  0  0  0  0  0
  185.7860  176.7700  137.8630 O   0  0  0  0  0  1  0  0  0  0  0  0
  189.5130  178.4060  136.6350 O   0  0  0  0  0  1  0  0  0  0  0  0
  184.1710  178.6930  140.4850 C   0  0  0  0  0  0  0  0  0  0  0  0
  182.0570  178.6140  139.7770 C   0  0  0  0  0  0  0  0  0  0  0  0
  183.5330  178.6940  141.7150 C   0  0  0  0  0  0  0  0  0  0  0  0
  187.7820  178.2500  139.8770 N   0  0  0  0  0  0  0  0  0  0  0  0
  185.6360  178.6990  140.4480 C   0  0  0  0  0  0  0  0  0  0  0  0
  187.1760  178.5670  137.1000 C   0  0  0  0  0  2  0  0  0  0  0  0
  184.2520  178.7920  143.0340 C   0  0  0  0  0  2  0  0  0  0  0  0
  190.1370  177.7270  139.4330 C   0  0  0  0  0  1  0  0  0  0  0  0
  188.9000  178.4730  138.9580 C   0  0  1  0  0  3  0  0  0  0  0  0
  186.0420  178.1320  138.0300 C   0  0  2  0  0  3  0  0  0  0  0  0
  188.2700  177.1350  142.0430 C   0  0  0  0  0  2  0  0  0  0  0  0
  191.1080  177.1390  145.2660 C   0  0  0  0  0  2  0  0  0  0  0  0
  189.2170  177.3400  143.1920 C   0  0  0  0  0  0  0  0  0  0  0  0
  188.7030  177.1080  144.5960 C   0  0  0  0  0  2  0  0  0  0  0  0
  189.6980  177.5200  145.6790 C   0  0  0  0  0  2  0  0  0  0  0  0
  191.4340  177.9050  143.9930 C   0  0  0  0  0  2  0  0  0  0  0  0
  190.4510  177.6510  142.9580 N   0  0  0  0  0  0  0  0  0  0  0  0
  1  2  1  0  0  0  0
  1 21  1  1  0  0  0
  2  6  1  1  0  0  0
  3 14  1  0  0  0  0
  3 15  2  0  0  0  0
  4 13  1  0  0  0  0
  5 12  1  0  0  0  0
  6 17  1  0  0  0  0
  7 12  2  0  0  0  0
  7 11  1  0  0  0  0
  8 10  1  6  0  0  0
  8 19  1  0  0  0  0
 11 13  2  0  0  0  0
 12  4  1  0  0  0  0
 13 17  1  0  0  0  0
 14  1  1  0  0  0  0
 15 11  1  0  0  0  0
 15  2  1  0  0  0  0
 16  8  1  0  0  0  0
 16 20  1  0  0  0  0
 19 18  1  1  0  0  0
 19 14  1  0  0  0  0
 20  9  1  1  0  0  0
 20  3  1  0  0  0  0
 21 23  1  0  0  0  0
 22 25  1  0  0  0  0
 23 24  1  0  0  0  0
 24 25  1  0  0  0  0
 26 22  1  0  0  0  0
 27 23  2  0  0  0  0
 27 26  1  0  0  0  0
M  END
>  <MODEL>
5

>  <REMARK>
 VINA RESULT:      -8.2      2.912      6.712
  Name = 
  2 active torsions:
  status: ('A' for Active; 'I' for Inactive)
    1  A    between atoms: C_1  and  C_15
    2  A    between atoms: C_9  and  C_15
                            x       y       z     vdW  Elec       q    Type
                         _______ _______ _______ _____ _____    ______ ____

>  <TORSDO>
F 2

$$$$
=
 OpenBabel11052413513D

 27 31  0  0  1  0  0  0  0  0999 V2000
  188.8260  178.0750  142.8150 C   0  0  2  0  0  3  0  0  0  0  0  0
  187.6400  178.6560  142.0080 C   0  0  2  0  0  3  0  0  0  0  0  0
  189.1660  177.7510  140.5190 C   0  0  0  0  0  0  0  0  0  0  0  0
  184.5920  178.4270  138.6310 S   0  0  0  0  0  0  0  0  0  0  0  0
  185.7680  177.8930  136.1350 C   0  0  0  0  0  1  0  0  0  0  0  0
  186.2110  178.2490  142.4140 C   0  0  0  0  0  2  0  0  0  0  0  0
  187.0670  178.0240  138.2660 N   0  0  0  0  0  0  0  0  0  0  0  0
  191.9140  176.9960  140.7360 C   0  0  2  0  0  3  0  0  0  0  0  0
  189.5990  175.8850  139.1320 O   0  0  0  0  0  1  0  0  0  0  0  0
  193.2900  177.2240  140.7640 O   0  0  0  0  0  1  0  0  0  0  0  0
  186.8860  178.2530  139.5930 C   0  0  0  0  0  0  0  0  0  0  0  0
  185.8890  178.0910  137.6030 C   0  0  0  0  0  0  0  0  0  0  0  0
  185.5770  178.4730  139.9900 C   0  0  0  0  0  0  0  0  0  0  0  0
  189.7850  177.6500  141.7930 N   0  0  0  0  0  0  0  0  0  0  0  0
  187.9390  178.2270  140.6110 C   0  0  0  0  0  0  0  0  0  0  0  0
  191.3470  177.5030  139.4030 C   0  0  0  0  0  2  0  0  0  0  0  0
  185.1700  178.7810  141.4060 C   0  0  0  0  0  2  0  0  0  0  0  0
  191.6770  177.0200  143.2200 C   0  0  0  0  0  1  0  0  0  0  0  0
  191.2420  177.6950  141.9300 C   0  0  1  0  0  3  0  0  0  0  0  0
  189.8430  177.2510  139.2860 C   0  0  2  0  0  3  0  0  0  0  0  0
  188.4610  176.9110  143.7610 C   0  0  0  0  0  2  0  0  0  0  0  0
  188.1620  177.3870  148.0190 C   0  0  0  0  0  2  0  0  0  0  0  0
  188.4060  177.2790  145.2180 C   0  0  0  0  0  0  0  0  0  0  0  0
  187.0850  177.7370  145.7940 C   0  0  0  0  0  2  0  0  0  0  0  0
  187.1960  178.2510  147.2270 C   0  0  0  0  0  2  0  0  0  0  0  0
  189.5260  177.5020  147.3560 C   0  0  0  0  0  2  0  0  0  0  0  0
  189.4630  177.1430  145.9520 N   0  0  0  0  0  0  0  0  0  0  0  0
  1 21  1  6  0  0  0
  2  6  1  1  0  0  0
  2  1  1  0  0  0  0
  3 15  2  0  0  0  0
  3 14  1  0  0  0  0
  4 13  1  0  0  0  0
  5 12  1  0  0  0  0
  7 11  1  0  0  0  0
  8 10  1  6  0  0  0
  8 19  1  0  0  0  0
 11 13  2  0  0  0  0
 11 15  1  0  0  0  0
 12  7  2  0  0  0  0
 12  4  1  0  0  0  0
 13 17  1  0  0  0  0
 14 19  1  0  0  0  0
 14  1  1  0  0  0  0
 15  2  1  0  0  0  0
 16  8  1  0  0  0  0
 17  6  1  0  0  0  0
 19 18  1  1  0  0  0
 20  9  1  1  0  0  0
 20 16  1  0  0  0  0
 20  3  1  0  0  0  0
 21 23  1  0  0  0  0
 23 24  1  0  0  0  0
 23 27  2  0  0  0  0
 24 25  1  0  0  0  0
 25 22  1  0  0  0  0
 26 22  1  0  0  0  0
 27 26  1  0  0  0  0
M  END
>  <MODEL>
6

>  <REMARK>
 VINA RESULT:      -7.9      2.611      6.491
  Name = 
  2 active torsions:
  status: ('A' for Active; 'I' for Inactive)
    1  A    between atoms: C_1  and  C_15
    2  A    between atoms: C_9  and  C_15
                            x       y       z     vdW  Elec       q    Type
                         _______ _______ _______ _____ _____    ______ ____

>  <TORSDO>
F 2

$$$$
=
 OpenBabel11052413513D

 27 31  0  0  1  0  0  0  0  0999 V2000
  187.4670  178.5390  141.9920 C   0  0  2  0  0  3  0  0  0  0  0  0
  187.0390  178.8330  140.5350 C   0  0  2  0  0  3  0  0  0  0  0  0
  189.1360  177.8520  140.4990 C   0  0  0  0  0  0  0  0  0  0  0  0
  186.7010  177.6730  136.1430 S   0  0  0  0  0  0  0  0  0  0  0  0
  189.1490  176.8370  135.0440 C   0  0  0  0  0  1  0  0  0  0  0  0
  185.6530  178.3500  140.0680 C   0  0  0  0  0  2  0  0  0  0  0  0
  188.8690  177.4870  137.4410 N   0  0  0  0  0  0  0  0  0  0  0  0
  191.1550  177.4570  142.4830 C   0  0  2  0  0  3  0  0  0  0  0  0
  190.2880  175.8300  140.0830 O   0  0  0  0  0  1  0  0  0  0  0  0
  192.2290  177.8370  143.2890 O   0  0  0  0  0  1  0  0  0  0  0  0
  187.9170  177.9270  138.3050 C   0  0  0  0  0  0  0  0  0  0  0  0
  188.3480  177.3050  136.2060 C   0  0  0  0  0  0  0  0  0  0  0  0
  186.6450  178.0680  137.7740 C   0  0  0  0  0  0  0  0  0  0  0  0
  188.8400  178.0490  141.8740 N   0  0  0  0  0  0  0  0  0  0  0  0
  188.1230  178.1990  139.7300 C   0  0  0  0  0  0  0  0  0  0  0  0
  191.5370  177.6520  141.0110 C   0  0  0  0  0  2  0  0  0  0  0  0
  185.4620  178.5760  138.5530 C   0  0  0  0  0  2  0  0  0  0  0  0
  189.4430  177.8950  144.2460 C   0  0  0  0  0  1  0  0  0  0  0  0
  189.9080  178.2780  142.8500 C   0  0  1  0  0  3  0  0  0  0  0  0
  190.4160  177.2200  140.0640 C   0  0  2  0  0  3  0  0  0  0  0  0
  186.5710  177.5300  142.7420 C   0  0  0  0  0  2  0  0  0  0  0  0
  183.8780  178.6950  145.8780 C   0  0  0  0  0  2  0  0  0  0  0  0
  185.6910  178.1340  143.8010 C   0  0  0  0  0  0  0  0  0  0  0  0
  184.2850  178.5400  143.4190 C   0  0  0  0  0  2  0  0  0  0  0  0
  183.5560  179.3020  144.5240 C   0  0  0  0  0  2  0  0  0  0  0  0
  185.3760  178.8380  146.0990 C   0  0  0  0  0  2  0  0  0  0  0  0
  186.1290  178.2390  145.0130 N   0  0  0  0  0  0  0  0  0  0  0  0
  1 21  1  6  0  0  0
  2  6  1  6  0  0  0
  2  1  1  0  0  0  0
  3 14  1  0  0  0  0
  4 12  1  0  0  0  0
  4 13  1  0  0  0  0
  5 12  1  0  0  0  0
  7 11  1  0  0  0  0
  8 19  1  0  0  0  0
  8 10  1  1  0  0  0
 11 15  1  0  0  0  0
 12  7  2  0  0  0  0
 13 11  2  0  0  0  0
 13 17  1  0  0  0  0
 14  1  1  0  0  0  0
 14 19  1  0  0  0  0
 15  3  2  0  0  0  0
 15  2  1  0  0  0  0
 16  8  1  0  0  0  0
 17  6  1  0  0  0  0
 19 18  1  1  0  0  0
 20  9  1  1  0  0  0
 20  3  1  0  0  0  0
 20 16  1  0  0  0  0
 21 23  1  0  0  0  0
 22 26  1  0  0  0  0
 23 27  2  0  0  0  0
 24 23  1  0  0  0  0
 24 25  1  0  0  0  0
 25 22  1  0  0  0  0
 27 26  1  0  0  0  0
M  END
>  <MODEL>
7

>  <REMARK>
 VINA RESULT:      -7.8      3.167      6.254
  Name = 
  2 active torsions:
  status: ('A' for Active; 'I' for Inactive)
    1  A    between atoms: C_1  and  C_15
    2  A    between atoms: C_9  and  C_15
                            x       y       z     vdW  Elec       q    Type
                         _______ _______ _______ _____ _____    ______ ____

>  <TORSDO>
F 2

$$$$
=
 OpenBabel11052413513D

 27 31  0  0  1  0  0  0  0  0999 V2000
  184.8590  178.9060  142.0950 C   0  0  2  0  0  3  0  0  0  0  0  0
  185.7450  179.0620  140.8370 C   0  0  2  0  0  3  0  0  0  0  0  0
  187.0020  178.0470  142.4960 C   0  0  0  0  0  0  0  0  0  0  0  0
  188.8320  177.4780  137.8850 S   0  0  0  0  0  0  0  0  0  0  0  0
  191.1440  176.4970  139.1450 C   0  0  0  0  0  1  0  0  0  0  0  0
  185.1950  178.5590  139.4890 C   0  0  0  0  0  2  0  0  0  0  0  0
  189.1690  177.3850  140.3940 N   0  0  0  0  0  0  0  0  0  0  0  0
  186.6960  177.8150  145.3280 C   0  0  2  0  0  3  0  0  0  0  0  0
  187.8690  175.9730  143.2320 O   0  0  0  0  0  1  0  0  0  0  0  0
  186.7780  178.2550  146.6500 O   0  0  0  0  0  1  0  0  0  0  0  0
  187.9420  177.9250  140.1710 C   0  0  0  0  0  0  0  0  0  0  0  0
  189.7830  177.0910  139.2250 C   0  0  0  0  0  0  0  0  0  0  0  0
  187.5690  178.0340  138.8410 C   0  0  0  0  0  0  0  0  0  0  0  0
  185.7690  178.3830  143.1150 N   0  0  0  0  0  0  0  0  0  0  0  0
  186.9930  178.3330  141.2090 C   0  0  0  0  0  0  0  0  0  0  0  0
  188.0930  177.8580  144.6960 C   0  0  0  0  0  2  0  0  0  0  0  0
  186.2680  178.6370  138.3820 C   0  0  0  0  0  2  0  0  0  0  0  0
  184.2970  178.4550  145.0750 C   0  0  0  0  0  1  0  0  0  0  0  0
  185.7020  178.6900  144.5460 C   0  0  1  0  0  3  0  0  0  0  0  0
  188.0860  177.3520  143.2520 C   0  0  2  0  0  3  0  0  0  0  0  0
  183.6290  177.9910  141.9160 C   0  0  0  0  0  2  0  0  0  0  0  0
  179.6240  179.5180  141.6470 C   0  0  0  0  0  2  0  0  0  0  0  0
  182.3150  178.7150  141.8110 C   0  0  0  0  0  0  0  0  0  0  0  0
  181.7300  178.9460  140.4350 C   0  0  0  0  0  2  0  0  0  0  0  0
  180.4950  179.8430  140.4470 C   0  0  0  0  0  2  0  0  0  0  0  0
  180.4420  179.8040  142.8970 C   0  0  0  0  0  2  0  0  0  0  0  0
  181.6930  179.0710  142.8880 N   0  0  0  0  0  0  0  0  0  0  0  0
  1 21  1  6  0  0  0
  1 14  1  0  0  0  0
  2  6  1  6  0  0  0
  2 15  1  0  0  0  0
  2  1  1  0  0  0  0
  3 14  1  0  0  0  0
  3 20  1  0  0  0  0
  4 13  1  0  0  0  0
  4 12  1  0  0  0  0
  5 12  1  0  0  0  0
  8 10  1  1  0  0  0
 11  7  1  0  0  0  0
 11 15  1  0  0  0  0
 12  7  2  0  0  0  0
 13 11  2  0  0  0  0
 14 19  1  0  0  0  0
 15  3  2  0  0  0  0
 16  8  1  0  0  0  0
 17 13  1  0  0  0  0
 17  6  1  0  0  0  0
 19 18  1  1  0  0  0
 19  8  1  0  0  0  0
 20  9  1  1  0  0  0
 20 16  1  0  0  0  0
 22 26  1  0  0  0  0
 23 21  1  0  0  0  0
 23 27  2  0  0  0  0
 24 25  1  0  0  0  0
 24 23  1  0  0  0  0
 25 22  1  0  0  0  0
 27 26  1  0  0  0  0
M  END
>  <MODEL>
8

>  <REMARK>
 VINA RESULT:      -7.7      3.126      5.567
  Name = 
  2 active torsions:
  status: ('A' for Active; 'I' for Inactive)
    1  A    between atoms: C_1  and  C_15
    2  A    between atoms: C_9  and  C_15
                            x       y       z     vdW  Elec       q    Type
                         _______ _______ _______ _____ _____    ______ ____

>  <TORSDO>
F 2

$$$$
=
 OpenBabel11052413513D

 27 31  0  0  1  0  0  0  0  0999 V2000
  189.7610  177.7400  141.4440 C   0  0  2  0  0  3  0  0  0  0  0  0
  190.3500  177.8850  142.8670 C   0  0  2  0  0  3  0  0  0  0  0  0
  188.0470  178.0990  143.0010 C   0  0  0  0  0  0  0  0  0  0  0  0
  190.2750  177.0420  147.3430 S   0  0  0  0  0  0  0  0  0  0  0  0
  187.7950  177.6370  148.5240 C   0  0  0  0  0  1  0  0  0  0  0  0
  191.3280  176.8060  143.3680 C   0  0  0  0  0  2  0  0  0  0  0  0
  188.2450  177.8780  146.0770 N   0  0  0  0  0  0  0  0  0  0  0  0
  186.0080  178.6280  141.0690 C   0  0  2  0  0  3  0  0  0  0  0  0
  186.0590  176.9690  143.6010 O   0  0  0  0  0  1  0  0  0  0  0  0
  185.2310  179.4360  140.2380 O   0  0  0  0  0  1  0  0  0  0  0  0
  189.2460  177.7130  145.1730 C   0  0  0  0  0  0  0  0  0  0  0  0
  188.6650  177.5510  147.3210 C   0  0  0  0  0  0  0  0  0  0  0  0
  190.4410  177.2340  145.6840 C   0  0  0  0  0  0  0  0  0  0  0  0
  188.3340  178.0180  141.6120 N   0  0  0  0  0  0  0  0  0  0  0  0
  189.1350  177.9450  143.7310 C   0  0  0  0  0  0  0  0  0  0  0  0
  185.8480  179.0980  142.5210 C   0  0  0  0  0  2  0  0  0  0  0  0
  191.6800  177.0180  144.8560 C   0  0  0  0  0  2  0  0  0  0  0  0
  187.6200  178.0130  139.2660 C   0  0  0  0  0  1  0  0  0  0  0  0
  187.4790  178.6800  140.6250 C   0  0  1  0  0  3  0  0  0  0  0  0
  186.6460  178.2320  143.4970 C   0  0  2  0  0  3  0  0  0  0  0  0
  189.9920  176.3640  140.7820 C   0  0  0  0  0  2  0  0  0  0  0  0
  192.8960  175.8820  137.6560 C   0  0  0  0  0  2  0  0  0  0  0  0
  190.9380  176.3780  139.6140 C   0  0  0  0  0  0  0  0  0  0  0  0
  192.2980  177.0140  139.7990 C   0  0  0  0  0  2  0  0  0  0  0  0
  193.0930  177.1280  138.5000 C   0  0  0  0  0  2  0  0  0  0  0  0
  191.4170  175.7910  137.3110 C   0  0  0  0  0  2  0  0  0  0  0  0
  190.5960  175.8040  138.5060 N   0  0  0  0  0  0  0  0  0  0  0  0
  1 21  1  1  0  0  0
  1 14  1  0  0  0  0
  1  2  1  0  0  0  0
  2  6  1  1  0  0  0
  2 15  1  0  0  0  0
  3 20  1  0  0  0  0
  3 15  2  0  0  0  0
  6 17  1  0  0  0  0
  7 12  2  0  0  0  0
  8 10  1  6  0  0  0
  8 16  1  0  0  0  0
 11 13  2  0  0  0  0
 11  7  1  0  0  0  0
 12  4  1  0  0  0  0
 12  5  1  0  0  0  0
 13  4  1  0  0  0  0
 14  3  1  0  0  0  0
 15 11  1  0  0  0  0
 16 20  1  0  0  0  0
 17 13  1  0  0  0  0
 19 18  1  6  0  0  0
 19  8  1  0  0  0  0
 19 14  1  0  0  0  0
 20  9  1  6  0  0  0
 22 25  1  0  0  0  0
 23 24  1  0  0  0  0
 23 21  1  0  0  0  0
 25 24  1  0  0  0  0
 26 22  1  0  0  0  0
 26 27  1  0  0  0  0
 27 23  2  0  0  0  0
M  END
>  <MODEL>
9

>  <REMARK>
 VINA RESULT:      -7.7      2.620      5.345
  Name = 
  2 active torsions:
  status: ('A' for Active; 'I' for Inactive)
    1  A    between atoms: C_1  and  C_15
    2  A    between atoms: C_9  and  C_15
                            x       y       z     vdW  Elec       q    Type
                         _______ _______ _______ _____ _____    ______ ____

>  <TORSDO>
F 2

$$$$
