=
 OpenBabel11052416463D

 32 38  0  0  1  0  0  0  0  0999 V2000
  187.3680  177.5640  137.2180 C   0  0  0  0  0  2  0  0  0  0  0  0
  187.6180  177.8780  142.3810 C   0  0  0  0  0  0  0  0  0  0  0  0
  183.0160  179.0900  143.4330 C   0  0  0  0  0  3  0  0  0  0  0  0
  183.3020  178.9920  144.7950 C   0  0  0  0  0  3  0  0  0  0  0  0
  189.3740  177.5730  144.2250 C   0  0  0  0  0  0  0  0  0  0  0  0
  189.5020  177.4540  145.7150 C   0  0  0  0  0  0  0  0  0  0  0  0
  188.3480  177.8590  140.0630 C   0  0  0  0  0  0  0  0  0  0  0  0
  186.0910  178.4370  140.6150 N   0  0  0  0  0  0  0  0  0  0  0  0
  189.0070  177.5230  147.8200 C   0  0  0  0  0  0  0  0  0  0  0  0
  186.6790  178.5120  138.2160 C   0  0  0  0  0  2  0  0  0  0  0  0
  184.0220  178.8560  142.4940 C   0  0  0  0  0  3  0  0  0  0  0  0
  186.3380  178.2860  141.9590 C   0  0  0  0  0  0  0  0  0  0  0  0
  185.3140  178.4880  142.8970 C   0  0  0  0  0  0  0  0  0  0  0  0
  186.8830  178.0310  144.7200 C   0  0  0  0  0  0  0  0  0  0  0  0
  190.2710  177.1710  147.6740 O   0  0  0  0  0  0  0  0  0  0  0  0
  189.4380  178.6360  137.9250 C   0  0  0  0  0  2  0  0  0  0  0  0
  187.0410  178.2190  139.6580 C   0  0  0  0  0  0  0  0  0  0  0  0
  190.6100  177.1310  146.4130 N   0  0  0  0  0  0  0  0  0  0  0  0
  189.5150  177.6960  139.1340 C   0  0  0  0  0  2  0  0  0  0  0  0
  188.7090  178.0210  136.7950 N   0  0  1  0  0  0  0  0  0  0  0  0
  184.5800  178.6340  145.2160 C   0  0  0  0  0  3  0  0  0  0  0  0
  185.5930  178.3650  144.2850 C   0  0  0  0  0  0  0  0  0  0  0  0
  187.1760  178.0500  146.1370 N   0  0  0  0  0  0  0  0  0  0  0  0
  188.6070  177.6720  141.4180 C   0  0  0  0  0  3  0  0  0  0  0  0
  190.2390  178.7490  143.7470 C   0  0  0  0  0  1  0  0  0  0  0  0
  188.3050  177.6700  149.1190 C   0  0  0  0  0  1  0  0  0  0  0  0
  187.9160  177.7690  143.7680 C   0  0  0  0  0  0  0  0  0  0  0  0
  188.4890  177.7220  146.5680 C   0  0  0  0  0  0  0  0  0  0  0  0
  189.7990  176.8930  134.8410 C   0  0  2  0  0  3  0  0  0  0  0  0
  189.3840  176.8060  136.3070 C   0  0  2  0  0  3  0  0  0  0  0  0
  188.5650  176.0910  135.2500 C   0  0  0  0  0  2  0  0  0  0  0  0
  190.8370  175.9960  134.5940 O   0  0  0  0  0  1  0  0  0  0  0  0
  1 10  1  0  0  0  0
  2 27  1  0  0  0  0
  3  4  1  0  0  0  0
  4 21  2  0  0  0  0
  5  6  1  0  0  0  0
  6 18  2  0  0  0  0
  6 28  1  0  0  0  0
  7 24  1  0  0  0  0
  8 12  2  0  0  0  0
  9 26  1  0  0  0  0
 10 17  1  0  0  0  0
 11 13  1  0  0  0  0
 11  3  2  0  0  0  0
 12  2  1  0  0  0  0
 12 13  1  0  0  0  0
 13 22  2  0  0  0  0
 14 23  2  0  0  0  0
 15  9  1  0  0  0  0
 16 19  1  0  0  0  0
 17  7  2  0  0  0  0
 17  8  1  0  0  0  0
 18 15  1  0  0  0  0
 19  7  1  0  0  0  0
 20  1  1  1  0  0  0
 20 16  1  0  0  0  0
 22 14  1  0  0  0  0
 22 21  1  0  0  0  0
 23 28  1  0  0  0  0
 24  2  2  0  0  0  0
 25  5  1  0  0  0  0
 27  5  2  0  0  0  0
 27 14  1  0  0  0  0
 28  9  2  0  0  0  0
 29 32  1  1  0  0  0
 29 31  1  0  0  0  0
 29 30  1  0  0  0  0
 30 31  1  6  0  0  0
 30 20  1  0  0  0  0
M  END
>  <MODEL>
1

>  <REMARK>
 VINA RESULT:     -11.4      0.000      0.000
  Name = 
  1 active torsions:
  status: ('A' for Active; 'I' for Inactive)
    1  A    between atoms: C_10  and  N_24
                            x       y       z     vdW  Elec       q    Type
                         _______ _______ _______ _____ _____    ______ ____

>  <TORSDO>
F 1

$$$$
=
 OpenBabel11052416463D

 32 38  0  0  1  0  0  0  0  0999 V2000
  183.4290  179.7770  139.0850 C   0  0  0  0  0  2  0  0  0  0  0  0
  187.1000  178.2190  142.3890 C   0  0  0  0  0  0  0  0  0  0  0  0
  190.8450  177.5790  139.3380 C   0  0  0  0  0  3  0  0  0  0  0  0
  191.6810  177.3040  140.4220 C   0  0  0  0  0  3  0  0  0  0  0  0
  187.3370  177.7850  144.9050 C   0  0  0  0  0  0  0  0  0  0  0  0
  188.3730  177.5260  145.9590 C   0  0  0  0  0  0  0  0  0  0  0  0
  184.8860  178.6620  141.4880 C   0  0  0  0  0  0  0  0  0  0  0  0
  186.7510  178.3550  140.0180 N   0  0  0  0  0  0  0  0  0  0  0  0
  190.2690  177.0470  146.8860 C   0  0  0  0  0  0  0  0  0  0  0  0
  184.5660  178.7500  138.9360 C   0  0  0  0  0  2  0  0  0  0  0  0
  189.4950  177.8570  139.5550 C   0  0  0  0  0  3  0  0  0  0  0  0
  187.6030  178.1420  141.0760 C   0  0  0  0  0  0  0  0  0  0  0  0
  188.9670  177.8990  140.8540 C   0  0  0  0  0  0  0  0  0  0  0  0
  189.3230  177.6450  143.2630 C   0  0  0  0  0  0  0  0  0  0  0  0
  189.3480  177.2070  147.8180 O   0  0  0  0  0  0  0  0  0  0  0  0
  182.5150  178.2400  140.7380 C   0  0  0  0  0  2  0  0  0  0  0  0
  185.4240  178.6310  140.1790 C   0  0  0  0  0  0  0  0  0  0  0  0
  188.1850  177.4860  147.2940 N   0  0  0  0  0  0  0  0  0  0  0  0
  183.4320  178.8420  141.8100 C   0  0  0  0  0  2  0  0  0  0  0  0
  182.1950  179.2160  139.6750 N   0  0  1  0  0  0  0  0  0  0  0  0
  191.1740  177.3350  141.7190 C   0  0  0  0  0  3  0  0  0  0  0  0
  189.8280  177.6430  141.9550 C   0  0  0  0  0  0  0  0  0  0  0  0
  190.1860  177.2440  144.3530 N   0  0  0  0  0  0  0  0  0  0  0  0
  185.7400  178.4790  142.5720 C   0  0  0  0  0  3  0  0  0  0  0  0
  186.3280  176.6270  144.9120 C   0  0  0  0  0  1  0  0  0  0  0  0
  191.6930  176.7170  147.1390 C   0  0  0  0  0  1  0  0  0  0  0  0
  187.9460  177.9480  143.5000 C   0  0  0  0  0  0  0  0  0  0  0  0
  189.6620  177.2380  145.6740 C   0  0  0  0  0  0  0  0  0  0  0  0
  180.1030  180.0270  140.7900 C   0  0  2  0  0  3  0  0  0  0  0  0
  181.4680  180.3820  140.2060 C   0  0  2  0  0  3  0  0  0  0  0  0
  180.2110  180.6730  139.4100 C   0  0  0  0  0  2  0  0  0  0  0  0
  179.7130  181.0090  141.6990 O   0  0  0  0  0  1  0  0  0  0  0  0
  2 24  1  0  0  0  0
  2 27  1  0  0  0  0
  3 11  2  0  0  0  0
  3  4  1  0  0  0  0
  4 21  2  0  0  0  0
  5 25  1  0  0  0  0
  5  6  1  0  0  0  0
  6 18  2  0  0  0  0
  7 19  1  0  0  0  0
  7 24  2  0  0  0  0
  8 17  2  0  0  0  0
  8 12  1  0  0  0  0
  9 26  1  0  0  0  0
  9 15  1  0  0  0  0
 10  1  1  0  0  0  0
 10 17  1  0  0  0  0
 11 13  1  0  0  0  0
 12  2  2  0  0  0  0
 13 12  1  0  0  0  0
 13 22  2  0  0  0  0
 14 27  1  0  0  0  0
 14 23  2  0  0  0  0
 16 19  1  0  0  0  0
 17  7  1  0  0  0  0
 18 15  1  0  0  0  0
 20  1  1  1  0  0  0
 20 30  1  0  0  0  0
 20 16  1  0  0  0  0
 21 22  1  0  0  0  0
 22 14  1  0  0  0  0
 23 28  1  0  0  0  0
 27  5  2  0  0  0  0
 28  6  1  0  0  0  0
 28  9  2  0  0  0  0
 29 32  1  1  0  0  0
 30 31  1  6  0  0  0
 30 29  1  0  0  0  0
 31 29  1  0  0  0  0
M  END
>  <MODEL>
2

>  <REMARK>
 VINA RESULT:      -9.8      3.164      5.969
  Name = 
  1 active torsions:
  status: ('A' for Active; 'I' for Inactive)
    1  A    between atoms: C_10  and  N_24
                            x       y       z     vdW  Elec       q    Type
                         _______ _______ _______ _____ _____    ______ ____

>  <TORSDO>
F 1

$$$$
=
 OpenBabel11052416463D

 32 38  0  0  1  0  0  0  0  0999 V2000
  191.4560  176.6630  144.4380 C   0  0  0  0  0  2  0  0  0  0  0  0
  186.7730  178.0010  142.6760 C   0  0  0  0  0  0  0  0  0  0  0  0
  187.6630  178.3040  137.8940 C   0  0  0  0  0  3  0  0  0  0  0  0
  186.3070  178.5340  137.6570 C   0  0  0  0  0  3  0  0  0  0  0  0
  184.4390  178.4610  143.6320 C   0  0  0  0  0  0  0  0  0  0  0  0
  183.0150  178.6610  143.2060 C   0  0  0  0  0  0  0  0  0  0  0  0
  188.6280  177.7090  144.2200 C   0  0  0  0  0  0  0  0  0  0  0  0
  189.0270  177.8490  141.8640 N   0  0  0  0  0  0  0  0  0  0  0  0
  181.2890  179.0120  141.9500 C   0  0  0  0  0  0  0  0  0  0  0  0
  191.0260  177.6000  143.2940 C   0  0  0  0  0  2  0  0  0  0  0  0
  188.1200  178.1320  139.2020 C   0  0  0  0  0  3  0  0  0  0  0  0
  187.6880  178.0170  141.6050 C   0  0  0  0  0  0  0  0  0  0  0  0
  187.2290  178.1530  140.2850 C   0  0  0  0  0  0  0  0  0  0  0  0
  184.9360  178.4230  141.1000 C   0  0  0  0  0  0  0  0  0  0  0  0
  180.9100  178.9380  143.2120 O   0  0  0  0  0  0  0  0  0  0  0  0
  190.4070  178.2950  145.9100 C   0  0  0  0  0  2  0  0  0  0  0  0
  189.5220  177.6760  143.1240 C   0  0  0  0  0  0  0  0  0  0  0  0
  181.9300  178.7380  144.0030 N   0  0  0  0  0  0  0  0  0  0  0  0
  189.0400  177.6440  145.6610 C   0  0  0  0  0  2  0  0  0  0  0  0
  191.5130  177.3260  145.7580 N   0  0  1  0  0  0  0  0  0  0  0  0
  185.4080  178.5650  138.7200 C   0  0  0  0  0  3  0  0  0  0  0  0
  185.8460  178.3630  140.0360 C   0  0  0  0  0  0  0  0  0  0  0  0
  183.5590  178.7770  140.8320 N   0  0  0  0  0  0  0  0  0  0  0  0
  187.2650  177.8470  143.9740 C   0  0  0  0  0  3  0  0  0  0  0  0
  184.8900  179.6910  144.4340 C   0  0  0  0  0  1  0  0  0  0  0  0
  180.3820  179.2390  140.7970 C   0  0  0  0  0  1  0  0  0  0  0  0
  185.3890  178.2280  142.4420 C   0  0  0  0  0  0  0  0  0  0  0  0
  182.6470  178.8460  141.9190 C   0  0  0  0  0  0  0  0  0  0  0  0
  192.7520  175.8730  147.3800 C   0  0  2  0  0  3  0  0  0  0  0  0
  191.4150  176.2280  146.7350 C   0  0  2  0  0  3  0  0  0  0  0  0
  192.1680  174.9950  146.2750 C   0  0  0  0  0  2  0  0  0  0  0  0
  192.5290  175.2390  148.6020 O   0  0  0  0  0  1  0  0  0  0  0  0
  2 24  1  0  0  0  0
  3 11  1  0  0  0  0
  4  3  2  0  0  0  0
  4 21  1  0  0  0  0
  5 25  1  0  0  0  0
  6  5  1  0  0  0  0
  6 18  2  0  0  0  0
  7 19  1  0  0  0  0
  8 17  2  0  0  0  0
  9 15  1  0  0  0  0
 10  1  1  0  0  0  0
 11 13  2  0  0  0  0
 12  8  1  0  0  0  0
 12  2  2  0  0  0  0
 13 12  1  0  0  0  0
 14 27  1  0  0  0  0
 15 18  1  0  0  0  0
 17 10  1  0  0  0  0
 17  7  1  0  0  0  0
 19 16  1  0  0  0  0
 20  1  1  6  0  0  0
 20 16  1  0  0  0  0
 20 30  1  0  0  0  0
 21 22  2  0  0  0  0
 22 13  1  0  0  0  0
 22 14  1  0  0  0  0
 23 14  2  0  0  0  0
 23 28  1  0  0  0  0
 24  7  2  0  0  0  0
 26  9  1  0  0  0  0
 27  2  1  0  0  0  0
 27  5  2  0  0  0  0
 28  9  2  0  0  0  0
 28  6  1  0  0  0  0
 29 32  1  1  0  0  0
 30 31  1  6  0  0  0
 30 29  1  0  0  0  0
 31 29  1  0  0  0  0
M  END
>  <MODEL>
3

>  <REMARK>
 VINA RESULT:      -9.6      3.173      7.608
  Name = 
  1 active torsions:
  status: ('A' for Active; 'I' for Inactive)
    1  A    between atoms: C_10  and  N_24
                            x       y       z     vdW  Elec       q    Type
                         _______ _______ _______ _____ _____    ______ ____

>  <TORSDO>
F 1

$$$$
=
 OpenBabel11052416463D

 32 38  0  0  1  0  0  0  0  0999 V2000
  183.1170  178.1990  145.2820 C   0  0  0  0  0  2  0  0  0  0  0  0
  187.7270  177.6190  142.9920 C   0  0  0  0  0  0  0  0  0  0  0  0
  190.5940  177.0000  146.8840 C   0  0  0  0  0  3  0  0  0  0  0  0
  191.6800  176.7530  146.0440 C   0  0  0  0  0  3  0  0  0  0  0  0
  188.6800  177.5850  140.6120 C   0  0  0  0  0  0  0  0  0  0  0  0
  189.9280  177.2440  139.8520 C   0  0  0  0  0  0  0  0  0  0  0  0
  185.4080  178.2740  143.3090 C   0  0  0  0  0  0  0  0  0  0  0  0
  186.8410  177.9480  145.1990 N   0  0  0  0  0  0  0  0  0  0  0  0
  191.9920  176.7520  139.4300 C   0  0  0  0  0  0  0  0  0  0  0  0
  184.5270  178.6580  145.6960 C   0  0  0  0  0  2  0  0  0  0  0  0
  189.3450  177.2940  146.3350 C   0  0  0  0  0  3  0  0  0  0  0  0
  187.9090  177.6440  144.3890 C   0  0  0  0  0  0  0  0  0  0  0  0
  189.1540  177.3130  144.9460 C   0  0  0  0  0  0  0  0  0  0  0  0
  190.1070  177.0810  142.7030 C   0  0  0  0  0  0  0  0  0  0  0  0
  191.3260  176.8790  138.2970 O   0  0  0  0  0  0  0  0  0  0  0  0
  183.3670  179.7530  143.4230 C   0  0  0  0  0  2  0  0  0  0  0  0
  185.6000  178.2420  144.7100 C   0  0  0  0  0  0  0  0  0  0  0  0
  190.0760  177.1880  138.5130 N   0  0  0  0  0  0  0  0  0  0  0  0
  184.1340  178.6870  142.6310 C   0  0  0  0  0  2  0  0  0  0  0  0
  182.4230  179.1480  144.3870 N   0  0  1  0  0  0  0  0  0  0  0  0
  191.5130  176.7740  144.6620 C   0  0  0  0  0  3  0  0  0  0  0  0
  190.2580  177.0370  144.0960 C   0  0  0  0  0  0  0  0  0  0  0  0
  191.2750  176.9350  141.8610 N   0  0  0  0  0  0  0  0  0  0  0  0
  186.4700  177.9380  142.4750 C   0  0  0  0  0  3  0  0  0  0  0  0
  188.3150  179.0500  140.3280 C   0  0  0  0  0  1  0  0  0  0  0  0
  193.4320  176.4130  139.5410 C   0  0  0  0  0  1  0  0  0  0  0  0
  188.8280  177.3620  142.1290 C   0  0  0  0  0  0  0  0  0  0  0  0
  191.1130  176.9930  140.4510 C   0  0  0  0  0  0  0  0  0  0  0  0
  180.4240  179.1780  142.8770 C   0  0  2  0  0  3  0  0  0  0  0  0
  181.3930  178.3430  143.7100 C   0  0  2  0  0  3  0  0  0  0  0  0
  180.0040  178.6380  144.2430 C   0  0  0  0  0  2  0  0  0  0  0  0
  179.8390  178.3780  141.8960 O   0  0  0  0  0  1  0  0  0  0  0  0
  1 10  1  0  0  0  0
  2 12  1  0  0  0  0
  4  3  2  0  0  0  0
  5 27  2  0  0  0  0
  6 28  1  0  0  0  0
  6  5  1  0  0  0  0
  7 17  2  0  0  0  0
  9 26  1  0  0  0  0
  9 28  2  0  0  0  0
 11  3  1  0  0  0  0
 12 13  1  0  0  0  0
 12  8  2  0  0  0  0
 13 11  2  0  0  0  0
 14 22  1  0  0  0  0
 15 18  1  0  0  0  0
 15  9  1  0  0  0  0
 17  8  1  0  0  0  0
 17 10  1  0  0  0  0
 18  6  2  0  0  0  0
 19  7  1  0  0  0  0
 19 16  1  0  0  0  0
 20 16  1  6  0  0  0
 20  1  1  0  0  0  0
 21  4  1  0  0  0  0
 22 21  2  0  0  0  0
 22 13  1  0  0  0  0
 23 14  2  0  0  0  0
 24  2  2  0  0  0  0
 24  7  1  0  0  0  0
 25  5  1  0  0  0  0
 27 14  1  0  0  0  0
 27  2  1  0  0  0  0
 28 23  1  0  0  0  0
 29 32  1  6  0  0  0
 29 30  1  0  0  0  0
 29 31  1  0  0  0  0
 30 31  1  1  0  0  0
 30 20  1  0  0  0  0
M  END
>  <MODEL>
4

>  <REMARK>
 VINA RESULT:      -9.5      3.000      7.630
  Name = 
  1 active torsions:
  status: ('A' for Active; 'I' for Inactive)
    1  A    between atoms: C_10  and  N_24
                            x       y       z     vdW  Elec       q    Type
                         _______ _______ _______ _____ _____    ______ ____

>  <TORSDO>
F 1

$$$$
=
 OpenBabel11052416463D

 32 38  0  0  1  0  0  0  0  0999 V2000
  180.8040  178.5060  140.8680 C   0  0  0  0  0  2  0  0  0  0  0  0
  185.6730  177.9630  142.5490 C   0  0  0  0  0  0  0  0  0  0  0  0
  185.0490  178.6100  147.3390 C   0  0  0  0  0  3  0  0  0  0  0  0
  186.3930  178.3070  147.5550 C   0  0  0  0  0  3  0  0  0  0  0  0
  187.9890  177.4920  141.5550 C   0  0  0  0  0  0  0  0  0  0  0  0
  189.3890  177.1350  141.9590 C   0  0  0  0  0  0  0  0  0  0  0  0
  183.8210  178.3930  141.0340 C   0  0  0  0  0  0  0  0  0  0  0  0
  183.5460  178.6880  143.3940 N   0  0  0  0  0  0  0  0  0  0  0  0
  191.1400  176.8080  143.1870 C   0  0  0  0  0  0  0  0  0  0  0  0
  181.5790  179.2140  141.9940 C   0  0  0  0  0  2  0  0  0  0  0  0
  184.5380  178.6180  146.0400 C   0  0  0  0  0  3  0  0  0  0  0  0
  184.8520  178.3330  143.6320 C   0  0  0  0  0  0  0  0  0  0  0  0
  185.3510  178.2920  144.9440 C   0  0  0  0  0  0  0  0  0  0  0  0
  187.5590  177.6610  144.0940 C   0  0  0  0  0  0  0  0  0  0  0  0
  191.4400  176.5880  141.9210 O   0  0  0  0  0  0  0  0  0  0  0  0
  182.3710  179.6040  139.3620 C   0  0  0  0  0  2  0  0  0  0  0  0
  183.0010  178.7110  142.1430 C   0  0  0  0  0  0  0  0  0  0  0  0
  190.4070  176.7880  141.1470 N   0  0  0  0  0  0  0  0  0  0  0  0
  183.3900  178.4830  139.6000 C   0  0  0  0  0  2  0  0  0  0  0  0
  180.9820  179.1320  139.5410 N   0  0  1  0  0  0  0  0  0  0  0  0
  187.2180  177.9860  146.4790 C   0  0  0  0  0  3  0  0  0  0  0  0
  186.7130  177.9590  145.1720 C   0  0  0  0  0  0  0  0  0  0  0  0
  188.9710  177.4640  144.3390 N   0  0  0  0  0  0  0  0  0  0  0  0
  185.1370  178.0020  141.2600 C   0  0  0  0  0  3  0  0  0  0  0  0
  188.0280  178.7970  140.7450 C   0  0  0  0  0  1  0  0  0  0  0  0
  192.0840  176.6780  144.3250 C   0  0  0  0  0  1  0  0  0  0  0  0
  187.0430  177.6460  142.7610 C   0  0  0  0  0  0  0  0  0  0  0  0
  189.8220  177.1730  143.2390 C   0  0  0  0  0  0  0  0  0  0  0  0
  179.4070  178.4040  137.7330 C   0  0  2  0  0  3  0  0  0  0  0  0
  180.6360  178.0750  138.5760 C   0  0  2  0  0  3  0  0  0  0  0  0
  179.3050  177.4260  138.9020 C   0  0  0  0  0  2  0  0  0  0  0  0
  179.4380  177.6660  136.5510 O   0  0  0  0  0  1  0  0  0  0  0  0
  1 10  1  0  0  0  0
  2 27  1  0  0  0  0
  2 12  1  0  0  0  0
  3  4  1  0  0  0  0
  5  6  1  0  0  0  0
  5 27  2  0  0  0  0
  6 28  1  0  0  0  0
  7 24  1  0  0  0  0
  7 17  2  0  0  0  0
  8 12  2  0  0  0  0
  9 28  2  0  0  0  0
  9 26  1  0  0  0  0
 10 17  1  0  0  0  0
 11  3  2  0  0  0  0
 12 13  1  0  0  0  0
 13 22  2  0  0  0  0
 13 11  1  0  0  0  0
 14 23  2  0  0  0  0
 14 22  1  0  0  0  0
 15  9  1  0  0  0  0
 16 19  1  0  0  0  0
 17  8  1  0  0  0  0
 18 15  1  0  0  0  0
 18  6  2  0  0  0  0
 19  7  1  0  0  0  0
 20 16  1  6  0  0  0
 20  1  1  0  0  0  0
 21  4  2  0  0  0  0
 22 21  1  0  0  0  0
 24  2  2  0  0  0  0
 25  5  1  0  0  0  0
 27 14  1  0  0  0  0
 28 23  1  0  0  0  0
 29 32  1  6  0  0  0
 29 30  1  0  0  0  0
 29 31  1  0  0  0  0
 30 31  1  1  0  0  0
 30 20  1  0  0  0  0
M  END
>  <MODEL>
5

>  <REMARK>
 VINA RESULT:      -8.7      3.652      5.673
  Name = 
  1 active torsions:
  status: ('A' for Active; 'I' for Inactive)
    1  A    between atoms: C_10  and  N_24
                            x       y       z     vdW  Elec       q    Type
                         _______ _______ _______ _____ _____    ______ ____

>  <TORSDO>
F 1

$$$$
=
 OpenBabel11052416463D

 32 38  0  0  1  0  0  0  0  0999 V2000
  185.4060  178.2380  138.4630 C   0  0  0  0  0  2  0  0  0  0  0  0
  188.1520  177.3780  142.7690 C   0  0  0  0  0  0  0  0  0  0  0  0
  185.0390  178.9810  146.1590 C   0  0  0  0  0  3  0  0  0  0  0  0
  185.9070  178.5470  147.1610 C   0  0  0  0  0  3  0  0  0  0  0  0
  190.4470  176.4280  143.4060 C   0  0  0  0  0  0  0  0  0  0  0  0
  191.2390  175.9700  144.5950 C   0  0  0  0  0  0  0  0  0  0  0  0
  187.6610  177.7600  140.4200 C   0  0  0  0  0  0  0  0  0  0  0  0
  186.1480  178.5220  142.1100 N   0  0  0  0  0  0  0  0  0  0  0  0
  191.8380  175.6480  146.6490 C   0  0  0  0  0  0  0  0  0  0  0  0
  185.5200  179.0340  139.7760 C   0  0  0  0  0  2  0  0  0  0  0  0
  185.3880  178.8140  144.8170 C   0  0  0  0  0  3  0  0  0  0  0  0
  186.9620  178.0480  143.1110 C   0  0  0  0  0  0  0  0  0  0  0  0
  186.5890  178.1850  144.4570 C   0  0  0  0  0  0  0  0  0  0  0  0
  188.6800  177.1210  145.1550 C   0  0  0  0  0  0  0  0  0  0  0  0
  192.7570  175.1590  145.8380 O   0  0  0  0  0  0  0  0  0  0  0  0
  187.7470  178.8200  138.1320 C   0  0  0  0  0  2  0  0  0  0  0  0
  186.4450  178.3840  140.7860 C   0  0  0  0  0  0  0  0  0  0  0  0
  192.4340  175.3460  144.5870 N   0  0  0  0  0  0  0  0  0  0  0  0
  188.1690  177.6370  139.0130 C   0  0  0  0  0  2  0  0  0  0  0  0
  186.4480  178.5770  137.4710 N   0  0  1  0  0  0  0  0  0  0  0  0
  187.1070  177.9260  146.8240 C   0  0  0  0  0  3  0  0  0  0  0  0
  187.4580  177.7240  145.4820 C   0  0  0  0  0  0  0  0  0  0  0  0
  189.6090  176.7870  146.2140 N   0  0  0  0  0  0  0  0  0  0  0  0
  188.4820  177.2460  141.4190 C   0  0  0  0  0  3  0  0  0  0  0  0
  191.2280  177.5420  142.6940 C   0  0  0  0  0  1  0  0  0  0  0  0
  191.8980  175.6070  148.1320 C   0  0  0  0  0  1  0  0  0  0  0  0
  189.0400  176.9270  143.7850 C   0  0  0  0  0  0  0  0  0  0  0  0
  190.8500  176.1870  145.8710 C   0  0  0  0  0  0  0  0  0  0  0  0
  187.0610  177.7460  135.1880 C   0  0  2  0  0  3  0  0  0  0  0  0
  186.5020  177.4140  136.5700 C   0  0  2  0  0  3  0  0  0  0  0  0
  185.5580  177.5670  135.3930 C   0  0  0  0  0  2  0  0  0  0  0  0
  187.5590  176.5870  134.5940 O   0  0  0  0  0  1  0  0  0  0  0  0
  1 10  1  0  0  0  0
  2 12  1  0  0  0  0
  2 27  1  0  0  0  0
  3  4  1  0  0  0  0
  5 27  2  0  0  0  0
  5  6  1  0  0  0  0
  6 28  1  0  0  0  0
  7 17  2  0  0  0  0
  7 24  1  0  0  0  0
  8 12  2  0  0  0  0
  9 26  1  0  0  0  0
 10 17  1  0  0  0  0
 11  3  2  0  0  0  0
 12 13  1  0  0  0  0
 13 11  1  0  0  0  0
 13 22  2  0  0  0  0
 14 22  1  0  0  0  0
 14 23  2  0  0  0  0
 15  9  1  0  0  0  0
 16 19  1  0  0  0  0
 17  8  1  0  0  0  0
 18  6  2  0  0  0  0
 18 15  1  0  0  0  0
 19  7  1  0  0  0  0
 20 16  1  1  0  0  0
 20  1  1  0  0  0  0
 21  4  2  0  0  0  0
 22 21  1  0  0  0  0
 24  2  2  0  0  0  0
 25  5  1  0  0  0  0
 27 14  1  0  0  0  0
 28 23  1  0  0  0  0
 28  9  2  0  0  0  0
 29 32  1  6  0  0  0
 29 31  1  0  0  0  0
 29 30  1  0  0  0  0
 30 31  1  6  0  0  0
 30 20  1  0  0  0  0
M  END
>  <MODEL>
6

>  <REMARK>
 VINA RESULT:      -8.5      1.916      2.545
  Name = 
  1 active torsions:
  status: ('A' for Active; 'I' for Inactive)
    1  A    between atoms: C_10  and  N_24
                            x       y       z     vdW  Elec       q    Type
                         _______ _______ _______ _____ _____    ______ ____

>  <TORSDO>
F 1

$$$$
