=
 OpenBabel11052412183D

 30 35  0  0  1  0  0  0  0  0999 V2000
  186.5450  178.4440  139.3700 C   0  0  1  0  0  3  0  0  0  0  0  0
  189.1220  178.5510  139.0450 C   0  0  2  0  0  3  0  0  0  0  0  0
  187.1390  176.1630  137.1030 C   0  0  1  0  0  3  0  0  0  0  0  0
  185.1710  177.9240  138.8000 C   0  0  1  0  0  3  0  0  0  0  0  0
  186.6260  178.1910  140.8920 C   0  0  0  0  0  2  0  0  0  0  0  0
  183.1750  178.7250  141.9250 N   0  0  0  0  0  0  0  0  0  0  0  0
  184.1350  178.5480  141.0030 C   0  0  2  0  0  3  0  0  0  0  0  0
  185.2060  178.5760  142.9380 N   0  0  0  0  0  0  0  0  0  0  0  0
  186.0300  176.2340  136.0320 C   0  0  2  0  0  3  0  0  0  0  0  0
  185.3530  178.4880  141.6070 C   0  0  0  0  0  0  0  0  0  0  0  0
  183.9420  178.5360  139.5250 C   0  0  1  0  0  3  0  0  0  0  0  0
  190.2690  177.5710  139.2710 C   0  0  0  0  0  2  0  0  0  0  0  0
  183.2190  178.8880  144.4130 C   0  0  0  0  0  1  0  0  0  0  0  0
  189.0280  179.3880  140.1440 F   0  0  0  0  0  0  0  0  0  0  0  0
  188.5670  176.4320  136.6510 C   0  0  2  0  0  3  0  0  0  0  0  0
  190.6460  176.8050  138.0050 C   0  0  0  0  0  2  0  0  0  0  0  0
  183.8700  178.7310  143.0850 C   0  0  0  0  0  0  0  0  0  0  0  0
  187.8180  177.7850  138.7710 C   0  0  2  0  0  3  0  0  0  0  0  0
  184.9730  178.0790  137.2720 C   0  0  0  0  0  2  0  0  0  0  0  0
  186.4160  176.8700  134.6970 C   0  0  0  0  0  1  0  0  0  0  0  0
  184.7700  176.8080  136.5390 N   0  0  2  0  0  0  0  0  0  0  0  0
  189.5620  175.8050  137.6250 C   0  0  0  0  0  2  0  0  0  0  0  0
  187.7250  177.5500  137.2730 C   0  0  2  0  0  3  0  0  0  0  0  0
  183.8420  174.5440  136.5010 C   0  0  2  0  0  3  0  0  0  0  0  0
  184.0440  175.8030  137.3240 C   0  0  2  0  0  3  0  0  0  0  0  0
  182.6710  175.4760  136.7300 C   0  0  1  0  0  3  0  0  0  0  0  0
  182.4180  176.1940  135.5590 O   0  0  0  0  0  1  0  0  0  0  0  0
  183.7220  173.3580  137.4340 C   0  0  0  0  0  1  0  0  0  0  0  0
  182.0620  179.9970  138.6080 C   0  0  0  0  0  1  0  0  0  0  0  0
  183.5270  179.9260  139.0150 C   0  0  0  0  0  2  0  0  0  0  0  0
  1  5  1  1  0  0  0
  2 12  1  0  0  0  0
  2 14  1  1  0  0  0
  3 23  1  0  0  0  0
  4  1  1  0  0  0  0
  4 11  1  0  0  0  0
  5 10  1  0  0  0  0
  6 17  2  0  0  0  0
  7 10  1  0  0  0  0
  7  6  1  0  0  0  0
  8 17  1  0  0  0  0
  9 21  1  0  0  0  0
  9  3  1  0  0  0  0
 10  8  2  0  0  0  0
 11  7  1  0  0  0  0
 15  3  1  0  0  0  0
 15 23  1  0  0  0  0
 15 22  1  0  0  0  0
 16 12  1  0  0  0  0
 17 13  1  0  0  0  0
 18  2  1  0  0  0  0
 18  1  1  0  0  0  0
 19  4  1  0  0  0  0
 20  9  1  0  0  0  0
 21 19  1  0  0  0  0
 21 25  1  0  0  0  0
 22 16  1  0  0  0  0
 23 18  1  0  0  0  0
 24 26  1  0  0  0  0
 24 25  1  0  0  0  0
 24 28  1  0  0  0  0
 26 25  1  0  0  0  0
 27 26  1  0  0  0  0
 29 30  1  0  0  0  0
 30 11  1  0  0  0  0
M  END
>  <MODEL>
1

>  <REMARK>
 VINA RESULT:      -5.9      0.000      0.000
  Name = 
  2 active torsions:
  status: ('A' for Active; 'I' for Inactive)
    1  A    between atoms: C_10  and  N_25
    2  A    between atoms: C_13  and  C_30
                            x       y       z     vdW  Elec       q    Type
                         _______ _______ _______ _____ _____    ______ ____

>  <TORSDO>
F 2

$$$$
=
 OpenBabel11052412183D

 30 35  0  0  1  0  0  0  0  0999 V2000
  183.3120  174.8300  137.0040 C   0  0  1  0  0  3  0  0  0  0  0  0
  181.0930  173.4920  136.8050 C   0  0  2  0  0  3  0  0  0  0  0  0
  181.3630  176.2210  139.2310 C   0  0  1  0  0  3  0  0  0  0  0  0
  184.0190  176.1230  137.5620 C   0  0  1  0  0  3  0  0  0  0  0  0
  184.1810  173.5810  137.2760 C   0  0  0  0  0  2  0  0  0  0  0  0
  187.5480  174.9110  136.8740 N   0  0  0  0  0  0  0  0  0  0  0  0
  186.2180  175.0390  137.0040 C   0  0  2  0  0  3  0  0  0  0  0  0
  186.5750  172.8560  136.9680 N   0  0  0  0  0  0  0  0  0  0  0  0
  181.5730  177.7490  139.1820 C   0  0  2  0  0  3  0  0  0  0  0  0
  185.6340  173.8100  137.0330 C   0  0  0  0  0  0  0  0  0  0  0  0
  185.4550  176.3200  137.0020 C   0  0  1  0  0  3  0  0  0  0  0  0
  180.2970  172.5950  137.7490 C   0  0  0  0  0  2  0  0  0  0  0  0
  189.0580  172.9300  136.7450 C   0  0  0  0  0  1  0  0  0  0  0  0
  181.8750  172.6950  135.9880 F   0  0  0  0  0  0  0  0  0  0  0  0
  179.9720  175.6950  138.9070 C   0  0  2  0  0  3  0  0  0  0  0  0
  179.1910  173.3490  138.4840 C   0  0  0  0  0  2  0  0  0  0  0  0
  187.7210  173.5690  136.8610 C   0  0  0  0  0  0  0  0  0  0  0  0
  181.9190  174.5060  137.6110 C   0  0  2  0  0  3  0  0  0  0  0  0
  183.2350  177.4470  137.3920 C   0  0  0  0  0  2  0  0  0  0  0  0
  180.4670  178.5650  138.5150 C   0  0  0  0  0  1  0  0  0  0  0  0
  182.8960  178.1360  138.6580 N   0  0  2  0  0  0  0  0  0  0  0  0
  179.7720  174.3090  139.5150 C   0  0  0  0  0  2  0  0  0  0  0  0
  181.0570  175.7380  137.8280 C   0  0  2  0  0  3  0  0  0  0  0  0
  183.6050  178.8430  140.8920 C   0  0  2  0  0  3  0  0  0  0  0  0
  183.9160  177.9590  139.6990 C   0  0  2  0  0  3  0  0  0  0  0  0
  184.7230  179.2360  139.9510 C   0  0  1  0  0  3  0  0  0  0  0  0
  184.2990  180.2960  139.1470 O   0  0  0  0  0  1  0  0  0  0  0  0
  184.1980  178.2200  142.1380 C   0  0  0  0  0  1  0  0  0  0  0  0
  186.7060  177.9240  135.4630 C   0  0  0  0  0  1  0  0  0  0  0  0
  185.5140  176.9910  135.6200 C   0  0  0  0  0  2  0  0  0  0  0  0
  1  5  1  1  0  0  0
  1  4  1  0  0  0  0
  1 18  1  0  0  0  0
  2 14  1  1  0  0  0
  2 18  1  0  0  0  0
  2 12  1  0  0  0  0
  6  7  1  0  0  0  0
  7 10  1  0  0  0  0
  8 10  2  0  0  0  0
  9  3  1  0  0  0  0
 10  5  1  0  0  0  0
 11  7  1  0  0  0  0
 11  4  1  0  0  0  0
 12 16  1  0  0  0  0
 13 17  1  0  0  0  0
 15  3  1  0  0  0  0
 15 22  1  0  0  0  0
 16 22  1  0  0  0  0
 17  6  2  0  0  0  0
 17  8  1  0  0  0  0
 18 23  1  0  0  0  0
 19  4  1  0  0  0  0
 19 21  1  0  0  0  0
 20  9  1  0  0  0  0
 21  9  1  0  0  0  0
 21 25  1  0  0  0  0
 23 15  1  0  0  0  0
 23  3  1  0  0  0  0
 24 28  1  0  0  0  0
 25 26  1  0  0  0  0
 25 24  1  0  0  0  0
 26 24  1  0  0  0  0
 27 26  1  0  0  0  0
 29 30  1  0  0  0  0
 30 11  1  0  0  0  0
M  END
>  <MODEL>
2

>  <REMARK>
 VINA RESULT:      -5.8      3.308      7.323
  Name = 
  2 active torsions:
  status: ('A' for Active; 'I' for Inactive)
    1  A    between atoms: C_10  and  N_25
    2  A    between atoms: C_13  and  C_30
                            x       y       z     vdW  Elec       q    Type
                         _______ _______ _______ _____ _____    ______ ____

>  <TORSDO>
F 2

$$$$
=
 OpenBabel11052412183D

 30 35  0  0  1  0  0  0  0  0999 V2000
  184.9840  177.8490  140.7040 C   0  0  1  0  0  3  0  0  0  0  0  0
  185.2060  177.6900  143.2890 C   0  0  2  0  0  3  0  0  0  0  0  0
  182.3300  179.4080  141.8090 C   0  0  1  0  0  3  0  0  0  0  0  0
  184.0370  178.1670  139.4860 C   0  0  1  0  0  3  0  0  0  0  0  0
  186.3610  178.5210  140.5060 C   0  0  0  0  0  2  0  0  0  0  0  0
  186.8140  178.2510  136.9030 N   0  0  0  0  0  0  0  0  0  0  0  0
  186.0840  178.1740  138.0260 C   0  0  0  0  0  0  0  0  0  0  0  0
  188.1190  178.7070  138.7100 N   0  0  0  0  0  2  0  0  0  0  0  0
  181.1280  179.0220  140.9220 C   0  0  2  0  0  3  0  0  0  0  0  0
  186.8700  178.4200  139.1090 C   0  0  0  0  0  0  0  0  0  0  0  0
  184.6520  177.7670  138.1170 C   0  0  1  0  0  3  0  0  0  0  0  0
  185.3670  178.7110  144.4120 C   0  0  0  0  0  2  0  0  0  0  0  0
  189.2090  178.7950  136.4680 C   0  0  0  0  0  1  0  0  0  0  0  0
  186.4550  177.1960  142.9550 F   0  0  0  0  0  0  0  0  0  0  0  0
  182.2560  179.0420  143.2850 C   0  0  2  0  0  3  0  0  0  0  0  0
  184.0350  179.0950  145.0530 C   0  0  0  0  0  2  0  0  0  0  0  0
  188.0420  178.5810  137.3640 C   0  0  0  0  0  0  0  0  0  0  0  0
  184.4820  178.3300  142.0940 C   0  0  2  0  0  3  0  0  0  0  0  0
  182.6050  177.5860  139.5740 C   0  0  0  0  0  2  0  0  0  0  0  0
  180.1240  178.0420  141.5270 C   0  0  0  0  0  1  0  0  0  0  0  0
  181.5210  178.5960  139.5660 N   0  0  2  0  0  0  0  0  0  0  0  0
  183.1890  179.9320  144.1020 C   0  0  0  0  0  2  0  0  0  0  0  0
  182.9900  178.1330  142.2960 C   0  0  2  0  0  3  0  0  0  0  0  0
  180.6140  180.6540  138.6010 C   0  0  2  0  0  3  0  0  0  0  0  0
  181.8390  179.7710  138.7470 C   0  0  2  0  0  3  0  0  0  0  0  0
  181.0540  179.7990  137.4320 C   0  0  1  0  0  3  0  0  0  0  0  0
  180.1910  178.7060  137.3100 O   0  0  0  0  0  1  0  0  0  0  0  0
  181.0580  182.0820  138.3670 C   0  0  0  0  0  1  0  0  0  0  0  0
  183.8900  176.0800  136.3610 C   0  0  0  0  0  1  0  0  0  0  0  0
  184.4800  176.2840  137.7490 C   0  0  0  0  0  2  0  0  0  0  0  0
  1  5  1  6  0  0  0
  1 18  1  0  0  0  0
  2 14  1  6  0  0  0
  2 12  1  0  0  0  0
  3 23  1  0  0  0  0
  3 15  1  0  0  0  0
  4 19  1  0  0  0  0
  4  1  1  0  0  0  0
  6 17  2  0  0  0  0
  6  7  1  0  0  0  0
  7 11  1  0  0  0  0
  7 10  2  0  0  0  0
  8 10  1  0  0  0  0
  9 20  1  0  0  0  0
  9  3  1  0  0  0  0
 10  5  1  0  0  0  0
 11  4  1  0  0  0  0
 12 16  1  0  0  0  0
 13 17  1  0  0  0  0
 15 22  1  0  0  0  0
 17  8  1  0  0  0  0
 18 23  1  0  0  0  0
 18  2  1  0  0  0  0
 21 19  1  0  0  0  0
 21  9  1  0  0  0  0
 22 16  1  0  0  0  0
 23 15  1  0  0  0  0
 24 25  1  0  0  0  0
 25 21  1  0  0  0  0
 26 24  1  0  0  0  0
 26 25  1  0  0  0  0
 27 26  1  0  0  0  0
 28 24  1  0  0  0  0
 29 30  1  0  0  0  0
 30 11  1  0  0  0  0
M  END
>  <MODEL>
3

>  <REMARK>
 VINA RESULT:      -5.5      2.293      6.265
  Name = 
  2 active torsions:
  status: ('A' for Active; 'I' for Inactive)
    1  A    between atoms: C_10  and  N_25
    2  A    between atoms: C_13  and  C_30
                            x       y       z     vdW  Elec       q    Type
                         _______ _______ _______ _____ _____    ______ ____

>  <TORSDO>
F 2

$$$$
=
 OpenBabel11052412183D

 30 35  0  0  1  0  0  0  0  0999 V2000
  187.1760  175.6410  136.8250 C   0  0  1  0  0  3  0  0  0  0  0  0
  186.3950  173.4820  135.6070 C   0  0  2  0  0  3  0  0  0  0  0  0
  184.0440  175.3390  137.7120 C   0  0  1  0  0  3  0  0  0  0  0  0
  186.7400  176.9420  137.6000 C   0  0  1  0  0  3  0  0  0  0  0  0
  188.3520  174.9500  137.5530 C   0  0  0  0  0  2  0  0  0  0  0  0
  190.2260  177.8020  138.8250 N   0  0  0  0  0  0  0  0  0  0  0  0
  189.1460  177.2320  138.2670 C   0  0  2  0  0  3  0  0  0  0  0  0
  190.5930  175.5780  138.5170 N   0  0  0  0  0  0  0  0  0  0  0  0
  183.3930  176.7380  137.7020 C   0  0  2  0  0  3  0  0  0  0  0  0
  189.3770  175.9070  138.0580 C   0  0  0  0  0  0  0  0  0  0  0  0
  187.9100  177.9380  137.8230 C   0  0  1  0  0  3  0  0  0  0  0  0
  185.8900  172.1180  136.0690 C   0  0  0  0  0  2  0  0  0  0  0  0
  192.4320  176.9020  139.5610 C   0  0  0  0  0  1  0  0  0  0  0  0
  187.7480  173.3850  135.3290 F   0  0  0  0  0  0  0  0  0  0  0  0
  183.4740  174.2950  136.7620 C   0  0  2  0  0  3  0  0  0  0  0  0
  184.3660  172.0410  136.1170 C   0  0  0  0  0  2  0  0  0  0  0  0
  191.0780  176.7610  138.9630 C   0  0  0  0  0  0  0  0  0  0  0  0
  186.0830  174.5480  136.6690 C   0  0  2  0  0  3  0  0  0  0  0  0
  185.5400  177.7140  136.9980 C   0  0  0  0  0  2  0  0  0  0  0  0
  182.4560  177.0430  136.5340 C   0  0  0  0  0  1  0  0  0  0  0  0
  184.3640  177.8310  137.8920 N   0  0  2  0  0  0  0  0  0  0  0  0
  183.8080  172.8890  137.2530 C   0  0  0  0  0  2  0  0  0  0  0  0
  184.7060  175.1140  136.3680 C   0  0  2  0  0  3  0  0  0  0  0  0
  183.5280  178.3660  140.1290 C   0  0  2  0  0  3  0  0  0  0  0  0
  184.7290  177.9330  139.3090 C   0  0  2  0  0  3  0  0  0  0  0  0
  184.6260  179.3670  139.8390 C   0  0  1  0  0  3  0  0  0  0  0  0
  184.1870  180.2610  138.8590 O   0  0  0  0  0  1  0  0  0  0  0  0
  183.6840  177.8530  141.5450 C   0  0  0  0  0  1  0  0  0  0  0  0
  188.9470  178.1490  135.5020 C   0  0  0  0  0  1  0  0  0  0  0  0
  188.2040  178.8560  136.6260 C   0  0  0  0  0  2  0  0  0  0  0  0
  1  5  1  1  0  0  0
  1  4  1  0  0  0  0
  2 14  1  1  0  0  0
  2 12  1  0  0  0  0
  2 18  1  0  0  0  0
  4 11  1  0  0  0  0
  5 10  1  0  0  0  0
  6 17  2  0  0  0  0
  7  6  1  0  0  0  0
  8 17  1  0  0  0  0
  9  3  1  0  0  0  0
  9 21  1  0  0  0  0
 10  7  1  0  0  0  0
 10  8  2  0  0  0  0
 11  7  1  0  0  0  0
 12 16  1  0  0  0  0
 15 22  1  0  0  0  0
 15  3  1  0  0  0  0
 16 22  1  0  0  0  0
 17 13  1  0  0  0  0
 18  1  1  0  0  0  0
 19  4  1  0  0  0  0
 19 21  1  0  0  0  0
 20  9  1  0  0  0  0
 21 25  1  0  0  0  0
 23 18  1  0  0  0  0
 23 15  1  0  0  0  0
 23  3  1  0  0  0  0
 24 28  1  0  0  0  0
 25 26  1  0  0  0  0
 25 24  1  0  0  0  0
 26 24  1  0  0  0  0
 27 26  1  0  0  0  0
 29 30  1  0  0  0  0
 30 11  1  0  0  0  0
M  END
>  <MODEL>
4

>  <REMARK>
 VINA RESULT:      -5.4      2.722      5.883
  Name = 
  2 active torsions:
  status: ('A' for Active; 'I' for Inactive)
    1  A    between atoms: C_10  and  N_25
    2  A    between atoms: C_13  and  C_30
                            x       y       z     vdW  Elec       q    Type
                         _______ _______ _______ _____ _____    ______ ____

>  <TORSDO>
F 2

$$$$
=
 OpenBabel11052412183D

 30 35  0  0  1  0  0  0  0  0999 V2000
  183.7750  177.6260  139.6570 C   0  0  1  0  0  3  0  0  0  0  0  0
  183.1190  177.9070  142.1560 C   0  0  2  0  0  3  0  0  0  0  0  0
  180.7430  178.8440  139.5320 C   0  0  1  0  0  3  0  0  0  0  0  0
  183.2710  177.5830  138.1650 C   0  0  1  0  0  3  0  0  0  0  0  0
  185.0510  178.4920  139.7690 C   0  0  0  0  0  2  0  0  0  0  0  0
  186.7340  177.7570  136.6250 N   0  0  0  0  0  0  0  0  0  0  0  0
  185.6780  177.7260  137.4530 C   0  0  2  0  0  3  0  0  0  0  0  0
  187.2810  178.7070  138.6180 N   0  0  0  0  0  0  0  0  0  0  0  0
  179.9690  178.1210  138.4090 C   0  0  2  0  0  3  0  0  0  0  0  0
  186.0140  178.2690  138.6550 C   0  0  0  0  0  0  0  0  0  0  0  0
  184.3580  177.0920  137.1700 C   0  0  1  0  0  3  0  0  0  0  0  0
  182.7680  179.1000  143.0410 C   0  0  0  0  0  2  0  0  0  0  0  0
  189.0540  178.6410  136.8640 C   0  0  0  0  0  1  0  0  0  0  0  0
  184.4550  177.5940  142.3390 F   0  0  0  0  0  0  0  0  0  0  0  0
  180.2130  178.7010  140.9520 C   0  0  2  0  0  3  0  0  0  0  0  0
  181.2630  179.3370  143.1400 C   0  0  0  0  0  2  0  0  0  0  0  0
  187.6840  178.3650  137.3720 C   0  0  0  0  0  0  0  0  0  0  0  0
  182.7780  178.2190  140.6910 C   0  0  2  0  0  3  0  0  0  0  0  0
  181.9710  176.7780  137.9150 C   0  0  0  0  0  2  0  0  0  0  0  0
  178.9390  177.0850  138.8540 C   0  0  0  0  0  1  0  0  0  0  0  0
  180.8470  177.5690  137.3620 N   0  0  2  0  0  0  0  0  0  0  0  0
  180.7020  179.8570  141.8220 C   0  0  0  0  0  2  0  0  0  0  0  0
  181.3390  177.7950  140.4490 C   0  0  2  0  0  3  0  0  0  0  0  0
  180.0890  179.4000  135.9260 C   0  0  2  0  0  3  0  0  0  0  0  0
  181.2880  178.6420  136.4640 C   0  0  2  0  0  3  0  0  0  0  0  0
  180.8180  178.4290  135.0220 C   0  0  1  0  0  3  0  0  0  0  0  0
  180.0550  177.2670  134.8820 O   0  0  0  0  0  1  0  0  0  0  0  0
  180.5090  180.8130  135.5810 C   0  0  0  0  0  1  0  0  0  0  0  0
  184.4500  175.0500  135.6440 C   0  0  0  0  0  1  0  0  0  0  0  0
  184.4930  175.5630  137.0760 C   0  0  0  0  0  2  0  0  0  0  0  0
  1  5  1  6  0  0  0
  1 18  1  0  0  0  0
  2 14  1  6  0  0  0
  2 12  1  0  0  0  0
  3 23  1  0  0  0  0
  3 15  1  0  0  0  0
  4  1  1  0  0  0  0
  6 17  2  0  0  0  0
  6  7  1  0  0  0  0
  7 10  1  0  0  0  0
  8 10  2  0  0  0  0
  9 20  1  0  0  0  0
  9  3  1  0  0  0  0
 10  5  1  0  0  0  0
 11  7  1  0  0  0  0
 11  4  1  0  0  0  0
 12 16  1  0  0  0  0
 13 17  1  0  0  0  0
 15 22  1  0  0  0  0
 17  8  1  0  0  0  0
 18  2  1  0  0  0  0
 19  4  1  0  0  0  0
 21 19  1  0  0  0  0
 21  9  1  0  0  0  0
 22 16  1  0  0  0  0
 23 18  1  0  0  0  0
 23 15  1  0  0  0  0
 24 25  1  0  0  0  0
 25 21  1  0  0  0  0
 26 24  1  0  0  0  0
 26 25  1  0  0  0  0
 27 26  1  0  0  0  0
 28 24  1  0  0  0  0
 29 30  1  0  0  0  0
 30 11  1  0  0  0  0
M  END
>  <MODEL>
5

>  <REMARK>
 VINA RESULT:      -5.3      2.628      6.368
  Name = 
  2 active torsions:
  status: ('A' for Active; 'I' for Inactive)
    1  A    between atoms: C_10  and  N_25
    2  A    between atoms: C_13  and  C_30
                            x       y       z     vdW  Elec       q    Type
                         _______ _______ _______ _____ _____    ______ ____

>  <TORSDO>
F 2

$$$$
=
 OpenBabel11052412183D

 30 35  0  0  1  0  0  0  0  0999 V2000
  185.5370  175.3500  136.2810 C   0  0  1  0  0  3  0  0  0  0  0  0
  184.0520  173.5040  135.2130 C   0  0  2  0  0  3  0  0  0  0  0  0
  182.6680  175.6750  137.8170 C   0  0  1  0  0  3  0  0  0  0  0  0
  185.5760  176.6570  137.1600 C   0  0  1  0  0  3  0  0  0  0  0  0
  186.6480  174.3710  136.7230 C   0  0  0  0  0  2  0  0  0  0  0  0
  189.3410  176.6510  137.6230 N   0  0  0  0  0  0  0  0  0  0  0  0
  188.0690  176.3690  137.2990 C   0  0  2  0  0  3  0  0  0  0  0  0
  189.1220  174.4270  137.1940 N   0  0  0  0  0  0  0  0  0  0  0  0
  182.3640  177.1800  137.9780 C   0  0  2  0  0  3  0  0  0  0  0  0
  187.9440  175.0440  137.0160 C   0  0  0  0  0  0  0  0  0  0  0  0
  186.9620  177.3570  137.1480 C   0  0  1  0  0  3  0  0  0  0  0  0
  183.3550  172.2540  135.7430 C   0  0  0  0  0  2  0  0  0  0  0  0
  191.3880  175.2420  137.8460 C   0  0  0  0  0  1  0  0  0  0  0  0
  185.2600  173.1340  134.6470 F   0  0  0  0  0  0  0  0  0  0  0  0
  181.6930  174.8500  136.9890 C   0  0  2  0  0  3  0  0  0  0  0  0
  181.8970  172.5060  136.1160 C   0  0  0  0  0  2  0  0  0  0  0  0
  189.9440  175.4420  137.5510 C   0  0  0  0  0  0  0  0  0  0  0  0
  184.2160  174.5350  136.3410 C   0  0  2  0  0  3  0  0  0  0  0  0
  184.4860  177.7120  136.8490 C   0  0  0  0  0  2  0  0  0  0  0  0
  181.3030  177.7620  137.0470 C   0  0  0  0  0  1  0  0  0  0  0  0
  183.5770  178.0190  137.9780 N   0  0  2  0  0  0  0  0  0  0  0  0
  181.7920  173.3730  137.3640 C   0  0  0  0  0  2  0  0  0  0  0  0
  182.9720  175.4060  136.3560 C   0  0  2  0  0  3  0  0  0  0  0  0
  183.3710  178.5840  140.3510 C   0  0  2  0  0  3  0  0  0  0  0  0
  184.2380  177.9390  139.2850 C   0  0  2  0  0  3  0  0  0  0  0  0
  184.5950  179.3200  139.8460 C   0  0  1  0  0  3  0  0  0  0  0  0
  184.1930  180.3540  138.9970 O   0  0  0  0  0  1  0  0  0  0  0  0
  183.6860  177.9570  141.6920 C   0  0  0  0  0  1  0  0  0  0  0  0
  187.6290  177.5070  134.6900 C   0  0  0  0  0  1  0  0  0  0  0  0
  187.2050  178.2710  135.9370 C   0  0  0  0  0  2  0  0  0  0  0  0
  1 18  1  0  0  0  0
  1  5  1  1  0  0  0
  1  4  1  0  0  0  0
  2 14  1  1  0  0  0
  2 12  1  0  0  0  0
  2 18  1  0  0  0  0
  3  9  1  0  0  0  0
  5 10  1  0  0  0  0
  7  6  1  0  0  0  0
  8 17  1  0  0  0  0
  9 21  1  0  0  0  0
 10  8  2  0  0  0  0
 10  7  1  0  0  0  0
 11  4  1  0  0  0  0
 11  7  1  0  0  0  0
 12 16  1  0  0  0  0
 15 22  1  0  0  0  0
 15  3  1  0  0  0  0
 16 22  1  0  0  0  0
 17  6  2  0  0  0  0
 17 13  1  0  0  0  0
 18 23  1  0  0  0  0
 19  4  1  0  0  0  0
 19 21  1  0  0  0  0
 20  9  1  0  0  0  0
 21 25  1  0  0  0  0
 23 15  1  0  0  0  0
 23  3  1  0  0  0  0
 24 28  1  0  0  0  0
 25 26  1  0  0  0  0
 25 24  1  0  0  0  0
 26 24  1  0  0  0  0
 27 26  1  0  0  0  0
 29 30  1  0  0  0  0
 30 11  1  0  0  0  0
M  END
>  <MODEL>
6

>  <REMARK>
 VINA RESULT:      -5.1      2.802      6.530
  Name = 
  2 active torsions:
  status: ('A' for Active; 'I' for Inactive)
    1  A    between atoms: C_10  and  N_25
    2  A    between atoms: C_13  and  C_30
                            x       y       z     vdW  Elec       q    Type
                         _______ _______ _______ _____ _____    ______ ____

>  <TORSDO>
F 2

$$$$
=
 OpenBabel11052412183D

 30 35  0  0  1  0  0  0  0  0999 V2000
  184.8710  178.8430  141.2150 C   0  0  1  0  0  3  0  0  0  0  0  0
  186.3570  178.9290  143.3460 C   0  0  2  0  0  3  0  0  0  0  0  0
  187.6510  177.3960  140.2830 C   0  0  1  0  0  3  0  0  0  0  0  0
  184.8220  178.6010  139.6590 C   0  0  1  0  0  3  0  0  0  0  0  0
  183.7040  178.1060  141.9110 C   0  0  0  0  0  2  0  0  0  0  0  0
  181.0370  178.4370  139.4540 N   0  0  0  0  0  0  0  0  0  0  0  0
  182.3160  178.5240  139.8510 C   0  0  2  0  0  3  0  0  0  0  0  0
  181.2090  177.8720  141.6520 N   0  0  0  0  0  0  0  0  0  0  0  0
  187.9930  177.8630  138.8520 C   0  0  2  0  0  3  0  0  0  0  0  0
  182.4150  178.2140  141.1730 C   0  0  0  0  0  0  0  0  0  0  0  0
  183.4620  179.0020  139.0250 C   0  0  1  0  0  3  0  0  0  0  0  0
  186.9790  177.8750  144.2580 C   0  0  0  0  0  2  0  0  0  0  0  0
  178.9360  177.7810  140.6280 C   0  0  0  0  0  1  0  0  0  0  0  0
  185.1730  179.3670  143.9150 F   0  0  0  0  0  0  0  0  0  0  0  0
  188.6470  177.7300  141.3850 C   0  0  2  0  0  3  0  0  0  0  0  0
  188.4200  177.5440  143.8770 C   0  0  0  0  0  2  0  0  0  0  0  0
  180.4010  178.0340  140.5780 C   0  0  0  0  0  0  0  0  0  0  0  0
  186.1590  178.3550  141.9340 C   0  0  2  0  0  3  0  0  0  0  0  0
  185.9620  179.2530  138.8390 C   0  0  0  0  0  2  0  0  0  0  0  0
  189.1270  178.8780  138.7230 C   0  0  0  0  0  1  0  0  0  0  0  0
  186.8110  178.3000  138.0870 N   0  0  2  0  0  0  0  0  0  0  0  0
  188.4780  176.7740  142.5640 C   0  0  0  0  0  2  0  0  0  0  0  0
  187.4270  178.6230  141.1430 C   0  0  2  0  0  3  0  0  0  0  0  0
  187.0100  176.1680  136.9010 C   0  0  2  0  0  3  0  0  0  0  0  0
  186.0690  177.1290  137.6040 C   0  0  2  0  0  3  0  0  0  0  0  0
  186.0730  177.0240  136.0750 C   0  0  1  0  0  3  0  0  0  0  0  0
  186.7990  178.0570  135.4770 O   0  0  0  0  0  1  0  0  0  0  0  0
  186.4480  174.7660  136.9970 C   0  0  0  0  0  1  0  0  0  0  0  0
  181.9010  180.8990  138.3370 C   0  0  0  0  0  1  0  0  0  0  0  0
  183.3220  180.4990  138.7080 C   0  0  0  0  0  2  0  0  0  0  0  0
  1  5  1  1  0  0  0
  1 18  1  0  0  0  0
  2 14  1  1  0  0  0
  2 12  1  0  0  0  0
  3 23  1  0  0  0  0
  3 15  1  0  0  0  0
  4  1  1  0  0  0  0
  6  7  1  0  0  0  0
  6 17  2  0  0  0  0
  7 10  1  0  0  0  0
  9  3  1  0  0  0  0
 10  8  2  0  0  0  0
 10  5  1  0  0  0  0
 11  4  1  0  0  0  0
 11  7  1  0  0  0  0
 15 22  1  0  0  0  0
 16 12  1  0  0  0  0
 17 13  1  0  0  0  0
 17  8  1  0  0  0  0
 18  2  1  0  0  0  0
 19  4  1  0  0  0  0
 20  9  1  0  0  0  0
 21 19  1  0  0  0  0
 21  9  1  0  0  0  0
 22 16  1  0  0  0  0
 23 15  1  0  0  0  0
 23 18  1  0  0  0  0
 24 28  1  0  0  0  0
 24 25  1  0  0  0  0
 25 21  1  0  0  0  0
 26 24  1  0  0  0  0
 26 25  1  0  0  0  0
 27 26  1  0  0  0  0
 29 30  1  0  0  0  0
 30 11  1  0  0  0  0
M  END
>  <MODEL>
7

>  <REMARK>
 VINA RESULT:      -5.1      2.351      3.909
  Name = 
  2 active torsions:
  status: ('A' for Active; 'I' for Inactive)
    1  A    between atoms: C_10  and  N_25
    2  A    between atoms: C_13  and  C_30
                            x       y       z     vdW  Elec       q    Type
                         _______ _______ _______ _____ _____    ______ ____

>  <TORSDO>
F 2

$$$$
=
 OpenBabel11052412183D

 30 35  0  0  1  0  0  0  0  0999 V2000
  184.9280  175.6240  136.5570 C   0  0  1  0  0  3  0  0  0  0  0  0
  182.3430  175.4110  136.7170 C   0  0  2  0  0  3  0  0  0  0  0  0
  184.1760  177.3090  139.2560 C   0  0  1  0  0  3  0  0  0  0  0  0
  186.2170  176.3780  137.0610 C   0  0  1  0  0  3  0  0  0  0  0  0
  185.1730  174.0980  136.5310 C   0  0  0  0  0  2  0  0  0  0  0  0
  188.6740  173.9180  135.5430 N   0  0  0  0  0  0  0  0  0  0  0  0
  187.5800  174.5750  135.9610 C   0  0  2  0  0  3  0  0  0  0  0  0
  186.9080  172.4890  135.6640 N   0  0  0  0  0  0  0  0  0  0  0  0
  185.0400  178.5870  139.2940 C   0  0  2  0  0  3  0  0  0  0  0  0
  186.5180  173.7260  136.0070 C   0  0  0  0  0  0  0  0  0  0  0  0
  187.4840  176.0380  136.2300 C   0  0  1  0  0  3  0  0  0  0  0  0
  181.3820  174.7910  137.7270 C   0  0  0  0  0  2  0  0  0  0  0  0
  189.0930  171.5370  134.9290 C   0  0  0  0  0  1  0  0  0  0  0  0
  182.5500  174.5090  135.6870 F   0  0  0  0  0  0  0  0  0  0  0  0
  182.6660  177.4880  139.1890 C   0  0  2  0  0  3  0  0  0  0  0  0
  180.8590  175.8060  138.7410 C   0  0  0  0  0  2  0  0  0  0  0  0
  188.2200  172.6540  135.3780 C   0  0  0  0  0  0  0  0  0  0  0  0
  183.6480  175.8250  137.4140 C   0  0  2  0  0  3  0  0  0  0  0  0
  186.0960  177.9170  137.1740 C   0  0  0  0  0  2  0  0  0  0  0  0
  184.3320  179.8960  138.9480 C   0  0  0  0  0  1  0  0  0  0  0  0
  186.2990  178.4580  138.5380 N   0  0  2  0  0  0  0  0  0  0  0  0
  181.9570  176.2370  139.7040 C   0  0  0  0  0  2  0  0  0  0  0  0
  183.4770  177.2490  137.9120 C   0  0  2  0  0  3  0  0  0  0  0  0
  187.8680  178.5590  140.4150 C   0  0  2  0  0  3  0  0  0  0  0  0
  187.2740  177.6900  139.3210 C   0  0  2  0  0  3  0  0  0  0  0  0
  188.6970  178.2420  139.1880 C   0  0  1  0  0  3  0  0  0  0  0  0
  188.7510  179.3700  138.3650 O   0  0  0  0  0  1  0  0  0  0  0  0
  188.3160  177.6750  141.5590 C   0  0  0  0  0  1  0  0  0  0  0  0
  189.0130  177.4550  134.7590 C   0  0  0  0  0  1  0  0  0  0  0  0
  187.6290  176.8450  134.9290 C   0  0  0  0  0  2  0  0  0  0  0  0
  1  5  1  1  0  0  0
  1  4  1  0  0  0  0
  1 18  1  0  0  0  0
  2 14  1  6  0  0  0
  2 18  1  0  0  0  0
  2 12  1  0  0  0  0
  3  9  1  0  0  0  0
  4 19  1  0  0  0  0
  6  7  1  0  0  0  0
  7 10  1  0  0  0  0
  7 11  1  0  0  0  0
  8 10  2  0  0  0  0
 10  5  1  0  0  0  0
 11  4  1  0  0  0  0
 12 16  1  0  0  0  0
 13 17  1  0  0  0  0
 15  3  1  0  0  0  0
 15 22  1  0  0  0  0
 16 22  1  0  0  0  0
 17  6  2  0  0  0  0
 17  8  1  0  0  0  0
 18 23  1  0  0  0  0
 19 21  1  0  0  0  0
 20  9  1  0  0  0  0
 21  9  1  0  0  0  0
 21 25  1  0  0  0  0
 23 15  1  0  0  0  0
 23  3  1  0  0  0  0
 24 28  1  0  0  0  0
 25 24  1  0  0  0  0
 26 25  1  0  0  0  0
 26 24  1  0  0  0  0
 27 26  1  0  0  0  0
 29 30  1  0  0  0  0
 30 11  1  0  0  0  0
M  END
>  <MODEL>
8

>  <REMARK>
 VINA RESULT:      -4.8      3.170      7.253
  Name = 
  2 active torsions:
  status: ('A' for Active; 'I' for Inactive)
    1  A    between atoms: C_10  and  N_25
    2  A    between atoms: C_13  and  C_30
                            x       y       z     vdW  Elec       q    Type
                         _______ _______ _______ _____ _____    ______ ____

>  <TORSDO>
F 2

$$$$
=
 OpenBabel11052412183D

 30 35  0  0  1  0  0  0  0  0999 V2000
  184.4500  178.1660  138.8460 C   0  0  1  0  0  3  0  0  0  0  0  0
  186.7210  177.8760  137.6150 C   0  0  2  0  0  3  0  0  0  0  0  0
  183.8310  175.8670  136.6050 C   0  0  1  0  0  3  0  0  0  0  0  0
  182.9010  177.8790  138.8270 C   0  0  1  0  0  3  0  0  0  0  0  0
  185.0340  177.8720  140.2470 C   0  0  0  0  0  2  0  0  0  0  0  0
  182.3120  178.9180  142.4280 N   0  0  0  0  0  0  0  0  0  0  0  0
  182.8370  178.6130  141.2300 C   0  0  2  0  0  3  0  0  0  0  0  0
  184.5230  178.4330  142.6500 N   0  0  0  0  0  0  0  0  0  0  0  0
  182.4360  176.1330  136.0010 C   0  0  2  0  0  3  0  0  0  0  0  0
  184.1660  178.3500  141.3590 C   0  0  0  0  0  0  0  0  0  0  0  0
  182.1250  178.6610  139.9210 C   0  0  1  0  0  3  0  0  0  0  0  0
  187.7080  176.7240  137.4510 C   0  0  0  0  0  2  0  0  0  0  0  0
  183.2730  179.0210  144.7270 C   0  0  0  0  0  1  0  0  0  0  0  0
  187.1590  178.6940  138.6420 F   0  0  0  0  0  0  0  0  0  0  0  0
  185.0240  175.9190  135.6610 C   0  0  2  0  0  3  0  0  0  0  0  0
  187.4820  175.9340  136.1640 C   0  0  0  0  0  2  0  0  0  0  0  0
  183.3700  178.7920  143.2610 C   0  0  0  0  0  0  0  0  0  0  0  0
  185.3050  177.3280  137.8560 C   0  0  2  0  0  3  0  0  0  0  0  0
  182.1930  178.0950  137.4670 C   0  0  0  0  0  2  0  0  0  0  0  0
  182.4080  176.7270  134.5940 C   0  0  0  0  0  1  0  0  0  0  0  0
  181.5470  176.8860  136.9040 N   0  0  2  0  0  0  0  0  0  0  0  0
  186.1940  175.1240  136.2360 C   0  0  0  0  0  2  0  0  0  0  0  0
  184.6440  177.1410  136.5010 C   0  0  2  0  0  3  0  0  0  0  0  0
  180.1670  174.9020  137.2930 C   0  0  2  0  0  3  0  0  0  0  0  0
  181.0080  175.9910  137.9340 C   0  0  2  0  0  3  0  0  0  0  0  0
  179.4790  176.0420  138.0130 C   0  0  1  0  0  3  0  0  0  0  0  0
  178.9310  176.9180  137.0720 O   0  0  0  0  0  1  0  0  0  0  0  0
  180.1740  173.6810  138.1870 C   0  0  0  0  0  1  0  0  0  0  0  0
  180.3150  180.4560  139.8150 C   0  0  0  0  0  1  0  0  0  0  0  0
  181.7720  180.1080  139.5420 C   0  0  0  0  0  2  0  0  0  0  0  0
  1  5  1  1  0  0  0
  2 18  1  0  0  0  0
  2 14  1  1  0  0  0
  4  1  1  0  0  0  0
  4 11  1  0  0  0  0
  5 10  1  0  0  0  0
  6 17  2  0  0  0  0
  7 10  1  0  0  0  0
  7  6  1  0  0  0  0
  8 17  1  0  0  0  0
  9  3  1  0  0  0  0
  9 21  1  0  0  0  0
 10  8  2  0  0  0  0
 11  7  1  0  0  0  0
 12  2  1  0  0  0  0
 15 22  1  0  0  0  0
 15 23  1  0  0  0  0
 15  3  1  0  0  0  0
 16 22  1  0  0  0  0
 16 12  1  0  0  0  0
 17 13  1  0  0  0  0
 18  1  1  0  0  0  0
 19  4  1  0  0  0  0
 20  9  1  0  0  0  0
 21 19  1  0  0  0  0
 21 25  1  0  0  0  0
 23  3  1  0  0  0  0
 23 18  1  0  0  0  0
 24 25  1  0  0  0  0
 24 26  1  0  0  0  0
 24 28  1  0  0  0  0
 25 26  1  0  0  0  0
 27 26  1  0  0  0  0
 30 29  1  0  0  0  0
 30 11  1  0  0  0  0
M  END
>  <MODEL>
9

>  <REMARK>
 VINA RESULT:      -4.8      1.873      2.811
  Name = 
  2 active torsions:
  status: ('A' for Active; 'I' for Inactive)
    1  A    between atoms: C_10  and  N_25
    2  A    between atoms: C_13  and  C_30
                            x       y       z     vdW  Elec       q    Type
                         _______ _______ _______ _____ _____    ______ ____

>  <TORSDO>
F 2

$$$$
