=
 OpenBabel11052416503D

 32 36  0  0  1  0  0  0  0  0999 V2000
  182.1070  177.6840  140.8070 C   0  0  0  0  0  3  0  0  0  0  0  0
  181.0520  182.6940  137.5620 C   0  0  0  0  0  2  0  0  0  0  0  0
  179.6280  182.4930  138.1170 C   0  0  0  0  0  2  0  0  0  0  0  0
  184.5870  178.3060  141.1270 C   0  0  2  0  0  3  0  0  0  0  0  0
  183.9720  179.5320  139.0170 C   0  0  0  0  0  3  0  0  0  0  0  0
  182.0680  181.9080  138.3400 C   0  0  0  0  0  3  0  0  0  0  0  0
  182.6030  179.7990  139.5460 C   0  0  1  0  0  3  0  0  0  0  0  0
  181.7820  180.6400  138.6540 C   0  0  0  0  0  0  0  0  0  0  0  0
  180.3800  178.7560  139.2010 C   0  0  2  0  0  0  0  0  0  0  0  0
  184.8540  178.8040  139.7190 C   0  0  0  0  0  0  0  0  0  0  0  0
  179.3630  181.1040  138.7390 C   0  0  0  0  0  2  0  0  0  0  0  0
  180.4360  180.0620  138.3730 C   0  0  1  0  0  3  0  0  0  0  0  0
  179.6260  178.9280  140.3720 O   0  0  0  0  0  1  0  0  0  0  0  0
  183.2890  177.5810  141.4400 C   0  0  0  0  0  3  0  0  0  0  0  0
  181.8600  178.4850  139.5580 C   0  0  2  0  0  3  0  0  0  0  0  0
  180.7610  177.1430  137.2670 C   0  0  0  0  0  3  0  0  0  0  0  0
  180.6370  175.9550  136.6570 C   0  0  0  0  0  0  0  0  0  0  0  0
  179.3150  176.3890  139.1290 C   0  0  0  0  0  0  0  0  0  0  0  0
  179.2490  175.1200  138.4710 N   0  0  0  0  0  2  0  0  0  0  0  0
  179.5320  175.0120  137.0430 C   0  0  0  0  0  2  0  0  0  0  0  0
  181.5830  175.5820  135.5710 C   0  0  0  0  0  1  0  0  0  0  0  0
  178.9310  176.4840  140.3240 O   0  0  0  0  0  0  0  0  0  0  0  0
  179.8010  177.5960  138.3490 C   0  0  1  0  0  3  0  0  0  0  0  0
  186.1550  178.7220  137.7410 O   0  0  0  0  0  1  0  0  0  0  0  0
  186.1950  178.5280  139.1230 C   0  0  0  0  0  2  0  0  0  0  0  0
  185.0090  179.2910  142.2200 C   0  0  0  0  0  2  0  0  0  0  0  0
  184.0830  179.3020  143.4350 C   0  0  0  0  0  2  0  0  0  0  0  0
  185.1850  178.4520  146.7230 C   0  0  0  0  0  3  0  0  0  0  0  0
  185.9290  178.0580  144.6680 C   0  0  0  0  0  3  0  0  0  0  0  0
  184.3570  179.0260  145.8840 O   0  0  0  0  0  0  0  0  0  0  0  0
  186.1940  177.8290  146.0070 C   0  0  0  0  0  3  0  0  0  0  0  0
  184.7780  178.8150  144.6630 C   0  0  0  0  0  0  0  0  0  0  0  0
  1 14  2  0  0  0  0
  2  3  1  0  0  0  0
  2  6  1  0  0  0  0
  3 11  1  0  0  0  0
  4 14  1  0  0  0  0
  4 26  1  1  0  0  0
  5 10  2  0  0  0  0
  6  8  2  0  0  0  0
  7  5  1  6  0  0  0
  7 15  1  0  0  0  0
  8  7  1  0  0  0  0
  9 15  1  0  0  0  0
  9 13  1  1  0  0  0
 10  4  1  0  0  0  0
 12  8  1  0  0  0  0
 12 11  1  1  0  0  0
 12  9  1  0  0  0  0
 15  1  1  1  0  0  0
 17 20  1  0  0  0  0
 17 16  2  0  0  0  0
 18 22  2  0  0  0  0
 19 18  1  0  0  0  0
 20 19  1  0  0  0  0
 21 17  1  0  0  0  0
 23 16  1  6  0  0  0
 23 18  1  0  0  0  0
 23  9  1  0  0  0  0
 24 25  1  0  0  0  0
 25 10  1  0  0  0  0
 26 27  1  0  0  0  0
 27 32  1  0  0  0  0
 29 31  1  0  0  0  0
 30 28  1  0  0  0  0
 31 28  2  0  0  0  0
 32 29  2  0  0  0  0
 32 30  1  0  0  0  0
M  END
>  <MODEL>
1

>  <REMARK>
 VINA RESULT:      -6.5      0.000      0.000
  Name = 
  5 active torsions:
  status: ('A' for Active; 'I' for Inactive)
    1  A    between atoms: C_8  and  C_23
    2  A    between atoms: C_12  and  C_21
    3  A    between atoms: C_16  and  C_32
    4  A    between atoms: C_19  and  C_23
    5  A    between atoms: C_19  and  C_24
                            x       y       z     vdW  Elec       q    Type
                         _______ _______ _______ _____ _____    ______ ____

>  <TORSDO>
F 5

$$$$
=
 OpenBabel11052416503D

 32 36  0  0  1  0  0  0  0  0999 V2000
  183.2500  179.1390  139.0070 C   0  0  0  0  0  3  0  0  0  0  0  0
  179.2250  174.6060  138.9240 C   0  0  0  0  0  2  0  0  0  0  0  0
  179.7620  174.4450  137.4880 C   0  0  0  0  0  2  0  0  0  0  0  0
  183.5430  178.9500  141.5590 C   0  0  2  0  0  3  0  0  0  0  0  0
  181.2490  177.9850  141.1890 C   0  0  0  0  0  3  0  0  0  0  0  0
  180.1480  175.4340  139.7720 C   0  0  0  0  0  3  0  0  0  0  0  0
  181.6870  177.3850  139.8960 C   0  0  1  0  0  3  0  0  0  0  0  0
  180.6490  176.5580  139.2500 C   0  0  0  0  0  0  0  0  0  0  0  0
  181.4420  178.0330  137.5150 C   0  0  2  0  0  0  0  0  0  0  0  0
  182.0840  178.7430  141.9170 C   0  0  0  0  0  0  0  0  0  0  0  0
  180.5850  175.6420  136.9630 C   0  0  0  0  0  2  0  0  0  0  0  0
  180.4210  176.9110  137.8190 C   0  0  1  0  0  3  0  0  0  0  0  0
  182.5470  177.5380  136.8070 O   0  0  0  0  0  1  0  0  0  0  0  0
  183.9270  179.3590  140.1480 C   0  0  0  0  0  3  0  0  0  0  0  0
  181.8830  178.5170  138.9170 C   0  0  2  0  0  3  0  0  0  0  0  0
  180.9600  180.5310  137.3960 C   0  0  0  0  0  3  0  0  0  0  0  0
  180.7840  181.6860  136.7360 C   0  0  0  0  0  0  0  0  0  0  0  0
  181.1480  179.2910  135.2620 C   0  0  0  0  0  0  0  0  0  0  0  0
  181.0060  180.5500  134.5980 N   0  0  0  0  0  2  0  0  0  0  0  0
  180.3940  181.6830  135.2840 C   0  0  0  0  0  2  0  0  0  0  0  0
  180.9460  182.9780  137.4570 C   0  0  0  0  0  1  0  0  0  0  0  0
  181.5470  178.2920  134.6090 O   0  0  0  0  0  0  0  0  0  0  0  0
  180.7660  179.1860  136.7260 C   0  0  1  0  0  3  0  0  0  0  0  0
  180.5010  180.2010  142.9080 O   0  0  0  0  0  1  0  0  0  0  0  0
  181.5800  179.3580  143.1810 C   0  0  0  0  0  2  0  0  0  0  0  0
  184.4800  177.8990  142.1600 C   0  0  0  0  0  2  0  0  0  0  0  0
  185.7580  178.4800  142.7620 C   0  0  0  0  0  2  0  0  0  0  0  0
  186.4830  177.9280  146.2140 C   0  0  0  0  0  3  0  0  0  0  0  0
  184.7480  178.7310  145.0840 C   0  0  0  0  0  3  0  0  0  0  0  0
  186.7870  177.8900  144.9400 O   0  0  0  0  0  0  0  0  0  0  0  0
  185.2070  178.4490  146.3590 C   0  0  0  0  0  3  0  0  0  0  0  0
  185.7760  178.3520  144.2500 C   0  0  0  0  0  0  0  0  0  0  0  0
  1 14  2  0  0  0  0
  2  6  1  0  0  0  0
  3  2  1  0  0  0  0
  4 10  1  0  0  0  0
  4 26  1  6  0  0  0
  5 10  2  0  0  0  0
  7  5  1  1  0  0  0
  8  6  2  0  0  0  0
  8  7  1  0  0  0  0
  9 13  1  6  0  0  0
  9 12  1  0  0  0  0
  9 15  1  0  0  0  0
 10 25  1  0  0  0  0
 11  3  1  0  0  0  0
 12 11  1  6  0  0  0
 12  8  1  0  0  0  0
 14  4  1  0  0  0  0
 15  1  1  6  0  0  0
 15  7  1  0  0  0  0
 17 16  2  0  0  0  0
 17 21  1  0  0  0  0
 18 23  1  0  0  0  0
 19 18  1  0  0  0  0
 19 20  1  0  0  0  0
 20 17  1  0  0  0  0
 22 18  2  0  0  0  0
 23 16  1  1  0  0  0
 23  9  1  0  0  0  0
 24 25  1  0  0  0  0
 26 27  1  0  0  0  0
 27 32  1  0  0  0  0
 28 31  2  0  0  0  0
 29 31  1  0  0  0  0
 30 28  1  0  0  0  0
 32 30  1  0  0  0  0
 32 29  2  0  0  0  0
M  END
>  <MODEL>
2

>  <REMARK>
 VINA RESULT:      -6.4      2.245      4.734
  Name = 
  5 active torsions:
  status: ('A' for Active; 'I' for Inactive)
    1  A    between atoms: C_8  and  C_23
    2  A    between atoms: C_12  and  C_21
    3  A    between atoms: C_16  and  C_32
    4  A    between atoms: C_19  and  C_23
    5  A    between atoms: C_19  and  C_24
                            x       y       z     vdW  Elec       q    Type
                         _______ _______ _______ _____ _____    ______ ____

>  <TORSDO>
F 5

$$$$
=
 OpenBabel11052416503D

 32 36  0  0  1  0  0  0  0  0999 V2000
  191.9920  176.9580  139.1120 C   0  0  0  0  0  3  0  0  0  0  0  0
  186.7770  176.3370  136.0850 C   0  0  0  0  0  2  0  0  0  0  0  0
  186.4650  177.6780  136.7780 C   0  0  0  0  0  2  0  0  0  0  0  0
  193.2750  175.5670  137.3640 C   0  0  2  0  0  3  0  0  0  0  0  0
  190.9100  174.7480  137.1000 C   0  0  0  0  0  3  0  0  0  0  0  0
  188.2470  176.0300  136.1040 C   0  0  0  0  0  3  0  0  0  0  0  0
  190.3840  176.1170  137.3750 C   0  0  1  0  0  3  0  0  0  0  0  0
  188.9170  176.2190  137.2450 C   0  0  0  0  0  0  0  0  0  0  0  0
  189.4290  177.2360  139.3710 C   0  0  2  0  0  0  0  0  0  0  0  0
  192.2270  174.4910  137.1500 C   0  0  0  0  0  0  0  0  0  0  0  0
  187.4140  178.0440  137.9410 C   0  0  0  0  0  2  0  0  0  0  0  0
  188.2650  176.8560  138.4260 C   0  0  1  0  0  3  0  0  0  0  0  0
  189.7230  178.6050  139.2920 O   0  0  0  0  0  1  0  0  0  0  0  0
  193.1240  176.5570  138.5060 C   0  0  0  0  0  3  0  0  0  0  0  0
  190.6200  176.4050  138.8380 C   0  0  2  0  0  3  0  0  0  0  0  0
  190.3300  176.4430  141.6180 C   0  0  0  0  0  3  0  0  0  0  0  0
  190.3410  176.4090  142.9590 C   0  0  0  0  0  0  0  0  0  0  0  0
  188.2980  177.8560  141.6250 C   0  0  0  0  0  0  0  0  0  0  0  0
  188.3740  177.8370  143.0530 N   0  0  0  0  0  2  0  0  0  0  0  0
  189.1110  176.7800  143.7410 C   0  0  0  0  0  2  0  0  0  0  0  0
  191.5690  175.9720  143.6750 C   0  0  0  0  0  1  0  0  0  0  0  0
  187.5430  178.6900  141.0600 O   0  0  0  0  0  0  0  0  0  0  0  0
  189.0950  176.8370  140.8330 C   0  0  1  0  0  3  0  0  0  0  0  0
  192.1600  172.6030  135.7220 O   0  0  0  0  0  1  0  0  0  0  0  0
  192.6970  173.0940  136.9120 C   0  0  0  0  0  2  0  0  0  0  0  0
  193.7710  176.2110  136.0660 C   0  0  0  0  0  2  0  0  0  0  0  0
  194.6420  175.2920  135.2120 C   0  0  0  0  0  2  0  0  0  0  0  0
  197.6140  174.8480  137.1390 C   0  0  0  0  0  3  0  0  0  0  0  0
  196.1700  173.4850  136.1450 C   0  0  0  0  0  3  0  0  0  0  0  0
  196.6990  175.5900  136.5630 O   0  0  0  0  0  0  0  0  0  0  0  0
  197.3270  173.5130  136.9040 C   0  0  0  0  0  3  0  0  0  0  0  0
  195.8380  174.8090  135.9630 C   0  0  0  0  0  0  0  0  0  0  0  0
  2  6  1  0  0  0  0
  2  3  1  0  0  0  0
  3 11  1  0  0  0  0
  4 26  1  6  0  0  0
  4 14  1  0  0  0  0
  5 10  2  0  0  0  0
  6  8  2  0  0  0  0
  7  5  1  1  0  0  0
  7 15  1  0  0  0  0
  8  7  1  0  0  0  0
  8 12  1  0  0  0  0
  9 13  1  6  0  0  0
  9 23  1  0  0  0  0
 10  4  1  0  0  0  0
 12 11  1  6  0  0  0
 12  9  1  0  0  0  0
 14  1  2  0  0  0  0
 15  1  1  6  0  0  0
 15  9  1  0  0  0  0
 16 17  2  0  0  0  0
 17 21  1  0  0  0  0
 17 20  1  0  0  0  0
 18 19  1  0  0  0  0
 19 20  1  0  0  0  0
 22 18  2  0  0  0  0
 23 16  1  1  0  0  0
 23 18  1  0  0  0  0
 24 25  1  0  0  0  0
 25 10  1  0  0  0  0
 27 32  1  0  0  0  0
 27 26  1  0  0  0  0
 29 31  1  0  0  0  0
 30 28  1  0  0  0  0
 31 28  2  0  0  0  0
 32 29  2  0  0  0  0
 32 30  1  0  0  0  0
M  END
>  <MODEL>
3

>  <REMARK>
 VINA RESULT:      -6.2      7.166     10.892
  Name = 
  5 active torsions:
  status: ('A' for Active; 'I' for Inactive)
    1  A    between atoms: C_8  and  C_23
    2  A    between atoms: C_12  and  C_21
    3  A    between atoms: C_16  and  C_32
    4  A    between atoms: C_19  and  C_23
    5  A    between atoms: C_19  and  C_24
                            x       y       z     vdW  Elec       q    Type
                         _______ _______ _______ _____ _____    ______ ____

>  <TORSDO>
F 5

$$$$
=
 OpenBabel11052416503D

 32 36  0  0  1  0  0  0  0  0999 V2000
  182.3070  178.1300  137.5290 C   0  0  0  0  0  3  0  0  0  0  0  0
  183.8960  178.7530  143.3450 C   0  0  0  0  0  2  0  0  0  0  0  0
  182.3680  178.7140  143.5420 C   0  0  0  0  0  2  0  0  0  0  0  0
  184.5380  176.9770  136.9510 C   0  0  2  0  0  3  0  0  0  0  0  0
  185.1220  178.3290  138.9910 C   0  0  0  0  0  3  0  0  0  0  0  0
  184.2960  178.2260  141.9970 C   0  0  0  0  0  3  0  0  0  0  0  0
  183.7700  178.0770  139.5700 C   0  0  1  0  0  3  0  0  0  0  0  0
  183.6010  178.6290  140.9290 C   0  0  0  0  0  0  0  0  0  0  0  0
  181.6710  179.3910  139.7010 C   0  0  2  0  0  0  0  0  0  0  0  0
  185.4470  177.8700  137.7720 C   0  0  0  0  0  0  0  0  0  0  0  0
  181.5410  178.9100  142.2520 C   0  0  0  0  0  2  0  0  0  0  0  0
  182.3720  179.4600  141.0780 C   0  0  1  0  0  3  0  0  0  0  0  0
  180.5910  178.4960  139.7230 O   0  0  0  0  0  1  0  0  0  0  0  0
  183.0830  177.3620  136.7430 C   0  0  0  0  0  3  0  0  0  0  0  0
  182.7760  178.8670  138.7530 C   0  0  2  0  0  3  0  0  0  0  0  0
  181.1780  180.9570  137.7530 C   0  0  0  0  0  3  0  0  0  0  0  0
  180.4830  181.9310  137.1470 C   0  0  0  0  0  0  0  0  0  0  0  0
  179.8650  181.2530  139.8300 C   0  0  0  0  0  0  0  0  0  0  0  0
  179.1150  182.2510  139.1310 N   0  0  0  0  0  2  0  0  0  0  0  0
  179.6750  182.9080  137.9540 C   0  0  0  0  0  2  0  0  0  0  0  0
  180.5370  182.0620  135.6650 C   0  0  0  0  0  1  0  0  0  0  0  0
  179.4250  180.8020  140.9200 O   0  0  0  0  0  0  0  0  0  0  0  0
  181.1970  180.8020  139.2600 C   0  0  1  0  0  3  0  0  0  0  0  0
  187.6400  178.6350  138.2410 O   0  0  0  0  0  1  0  0  0  0  0  0
  186.7980  178.1900  137.2210 C   0  0  0  0  0  2  0  0  0  0  0  0
  184.7350  175.4820  137.2190 C   0  0  0  0  0  2  0  0  0  0  0  0
  183.4830  174.7750  137.7330 C   0  0  0  0  0  2  0  0  0  0  0  0
  182.5310  171.5790  136.4590 C   0  0  0  0  0  3  0  0  0  0  0  0
  184.4590  172.5500  136.9780 C   0  0  0  0  0  3  0  0  0  0  0  0
  182.2630  172.7860  136.8940 O   0  0  0  0  0  0  0  0  0  0  0  0
  183.9010  171.3800  136.4920 C   0  0  0  0  0  3  0  0  0  0  0  0
  183.3850  173.3780  137.2140 C   0  0  0  0  0  0  0  0  0  0  0  0
  2  3  1  0  0  0  0
  4 26  1  1  0  0  0
  4 10  1  0  0  0  0
  6  2  1  0  0  0  0
  7  5  1  6  0  0  0
  7  8  1  0  0  0  0
  8 12  1  0  0  0  0
  8  6  2  0  0  0  0
  9 13  1  1  0  0  0
  9 12  1  0  0  0  0
 10  5  2  0  0  0  0
 11  3  1  0  0  0  0
 12 11  1  1  0  0  0
 14  4  1  0  0  0  0
 14  1  2  0  0  0  0
 15  1  1  6  0  0  0
 15  7  1  0  0  0  0
 15  9  1  0  0  0  0
 17 16  2  0  0  0  0
 17 20  1  0  0  0  0
 18 22  2  0  0  0  0
 19 18  1  0  0  0  0
 20 19  1  0  0  0  0
 21 17  1  0  0  0  0
 23 16  1  6  0  0  0
 23  9  1  0  0  0  0
 23 18  1  0  0  0  0
 25 10  1  0  0  0  0
 25 24  1  0  0  0  0
 26 27  1  0  0  0  0
 28 31  2  0  0  0  0
 28 30  1  0  0  0  0
 29 32  2  0  0  0  0
 30 32  1  0  0  0  0
 31 29  1  0  0  0  0
 32 27  1  0  0  0  0
M  END
>  <MODEL>
4

>  <REMARK>
 VINA RESULT:      -6.1      2.745      6.176
  Name = 
  5 active torsions:
  status: ('A' for Active; 'I' for Inactive)
    1  A    between atoms: C_8  and  C_23
    2  A    between atoms: C_12  and  C_21
    3  A    between atoms: C_16  and  C_32
    4  A    between atoms: C_19  and  C_23
    5  A    between atoms: C_19  and  C_24
                            x       y       z     vdW  Elec       q    Type
                         _______ _______ _______ _____ _____    ______ ____

>  <TORSDO>
F 5

$$$$
=
 OpenBabel11052416503D

 32 36  0  0  1  0  0  0  0  0999 V2000
  188.4310  178.4870  139.7630 C   0  0  0  0  0  3  0  0  0  0  0  0
  192.5330  175.0390  136.9300 C   0  0  0  0  0  2  0  0  0  0  0  0
  192.2230  176.0030  135.7680 C   0  0  0  0  0  2  0  0  0  0  0  0
  189.4740  177.9920  142.0660 C   0  0  2  0  0  3  0  0  0  0  0  0
  190.1800  176.0030  140.6950 C   0  0  0  0  0  3  0  0  0  0  0  0
  192.0700  175.5900  138.2480 C   0  0  0  0  0  3  0  0  0  0  0  0
  190.3270  176.8640  139.4850 C   0  0  1  0  0  3  0  0  0  0  0  0
  190.8540  176.1410  138.3100 C   0  0  0  0  0  0  0  0  0  0  0  0
  188.9100  177.3180  137.5010 C   0  0  2  0  0  0  0  0  0  0  0  0
  189.7390  176.5130  141.8550 C   0  0  0  0  0  0  0  0  0  0  0  0
  190.9480  176.8560  135.9530 C   0  0  0  0  0  2  0  0  0  0  0  0
  190.0340  176.3410  137.0800 C   0  0  1  0  0  3  0  0  0  0  0  0
  189.1770  178.6210  137.0570 O   0  0  0  0  0  1  0  0  0  0  0  0
  188.6290  178.7600  141.0650 C   0  0  0  0  0  3  0  0  0  0  0  0
  188.9400  177.2660  139.0470 C   0  0  2  0  0  3  0  0  0  0  0  0
  187.2890  175.3680  137.2620 C   0  0  0  0  0  3  0  0  0  0  0  0
  186.0600  174.8320  137.2180 C   0  0  0  0  0  0  0  0  0  0  0  0
  186.3370  177.6490  137.4020 C   0  0  0  0  0  0  0  0  0  0  0  0
  185.0450  177.0340  137.4030 N   0  0  0  0  0  2  0  0  0  0  0  0
  184.8680  175.6830  136.8790 C   0  0  0  0  0  2  0  0  0  0  0  0
  185.8810  173.3780  137.4780 C   0  0  0  0  0  1  0  0  0  0  0  0
  186.4420  178.8600  137.7260 O   0  0  0  0  0  0  0  0  0  0  0  0
  187.5380  176.8330  136.9630 C   0  0  1  0  0  3  0  0  0  0  0  0
  190.7400  174.8770  143.2450 O   0  0  0  0  0  1  0  0  0  0  0  0
  189.5660  175.5980  143.0230 C   0  0  0  0  0  2  0  0  0  0  0  0
  190.6970  178.7740  142.5520 C   0  0  0  0  0  2  0  0  0  0  0  0
  190.5560  179.3270  143.9690 C   0  0  0  0  0  2  0  0  0  0  0  0
  191.3980  176.6830  146.2140 C   0  0  0  0  0  3  0  0  0  0  0  0
  189.5710  177.8780  145.8130 C   0  0  0  0  0  3  0  0  0  0  0  0
  191.6800  177.5300  145.2550 O   0  0  0  0  0  0  0  0  0  0  0  0
  190.0800  176.8600  146.6010 C   0  0  0  0  0  3  0  0  0  0  0  0
  190.6150  178.2430  144.9940 C   0  0  0  0  0  0  0  0  0  0  0  0
  1 14  2  0  0  0  0
  2  6  1  0  0  0  0
  3 11  1  0  0  0  0
  3  2  1  0  0  0  0
  4 26  1  6  0  0  0
  5 10  2  0  0  0  0
  6  8  2  0  0  0  0
  7  5  1  1  0  0  0
  8  7  1  0  0  0  0
  9 13  1  6  0  0  0
  9 15  1  0  0  0  0
 10  4  1  0  0  0  0
 10 25  1  0  0  0  0
 12 11  1  6  0  0  0
 12  9  1  0  0  0  0
 12  8  1  0  0  0  0
 14  4  1  0  0  0  0
 15  7  1  0  0  0  0
 15  1  1  1  0  0  0
 17 16  2  0  0  0  0
 17 21  1  0  0  0  0
 18 19  1  0  0  0  0
 18 22  2  0  0  0  0
 20 17  1  0  0  0  0
 20 19  1  0  0  0  0
 23 16  1  1  0  0  0
 23 18  1  0  0  0  0
 23  9  1  0  0  0  0
 25 24  1  0  0  0  0
 26 27  1  0  0  0  0
 27 32  1  0  0  0  0
 28 31  2  0  0  0  0
 29 31  1  0  0  0  0
 30 28  1  0  0  0  0
 32 30  1  0  0  0  0
 32 29  2  0  0  0  0
M  END
>  <MODEL>
5

>  <REMARK>
 VINA RESULT:      -6.1      5.439      8.077
  Name = 
  5 active torsions:
  status: ('A' for Active; 'I' for Inactive)
    1  A    between atoms: C_8  and  C_23
    2  A    between atoms: C_12  and  C_21
    3  A    between atoms: C_16  and  C_32
    4  A    between atoms: C_19  and  C_23
    5  A    between atoms: C_19  and  C_24
                            x       y       z     vdW  Elec       q    Type
                         _______ _______ _______ _____ _____    ______ ____

>  <TORSDO>
F 5

$$$$
=
 OpenBabel11052416503D

 32 36  0  0  1  0  0  0  0  0999 V2000
  182.4540  177.7830  141.0400 C   0  0  0  0  0  3  0  0  0  0  0  0
  180.7900  182.6060  137.7680 C   0  0  0  0  0  2  0  0  0  0  0  0
  179.5420  182.5150  138.6670 C   0  0  0  0  0  2  0  0  0  0  0  0
  184.9540  178.3010  140.6980 C   0  0  2  0  0  3  0  0  0  0  0  0
  183.8780  179.4100  138.7120 C   0  0  0  0  0  3  0  0  0  0  0  0
  181.9420  181.8260  138.3350 C   0  0  0  0  0  3  0  0  0  0  0  0
  182.6910  179.7800  139.5360 C   0  0  1  0  0  3  0  0  0  0  0  0
  181.7020  180.5990  138.8070 C   0  0  0  0  0  0  0  0  0  0  0  0
  180.4190  178.8270  139.8240 C   0  0  2  0  0  0  0  0  0  0  0  0
  184.8830  178.6890  139.2330 C   0  0  0  0  0  0  0  0  0  0  0  0
  179.3940  181.1860  139.4410 C   0  0  0  0  0  2  0  0  0  0  0  0
  180.3110  180.0700  138.9080 C   0  0  1  0  0  3  0  0  0  0  0  0
  179.9820  179.1150  141.1250 O   0  0  0  0  0  1  0  0  0  0  0  0
  183.7520  177.6650  141.3730 C   0  0  0  0  0  3  0  0  0  0  0  0
  181.9330  178.5080  139.8300 C   0  0  2  0  0  3  0  0  0  0  0  0
  180.3100  177.0090  138.0440 C   0  0  0  0  0  3  0  0  0  0  0  0
  179.9950  175.7810  137.6040 C   0  0  0  0  0  0  0  0  0  0  0  0
  179.2150  176.5610  140.2170 C   0  0  0  0  0  0  0  0  0  0  0  0
  178.9420  175.2440  139.7290 N   0  0  0  0  0  2  0  0  0  0  0  0
  178.9310  174.9740  138.2950 C   0  0  0  0  0  2  0  0  0  0  0  0
  180.6830  175.2280  136.4070 C   0  0  0  0  0  1  0  0  0  0  0  0
  179.0800  176.8020  141.4450 O   0  0  0  0  0  0  0  0  0  0  0  0
  179.6120  177.6420  139.2300 C   0  0  1  0  0  3  0  0  0  0  0  0
  187.2290  178.4160  139.0520 O   0  0  0  0  0  1  0  0  0  0  0  0
  186.0270  178.3070  138.3520 C   0  0  0  0  0  2  0  0  0  0  0  0
  185.6630  179.3370  141.5760 C   0  0  0  0  0  2  0  0  0  0  0  0
  186.0590  178.8120  142.9550 C   0  0  0  0  0  2  0  0  0  0  0  0
  189.2160  177.2540  142.3590 C   0  0  0  0  0  3  0  0  0  0  0  0
  187.4260  176.7580  143.5750 C   0  0  0  0  0  3  0  0  0  0  0  0
  188.3390  178.2130  142.1850 O   0  0  0  0  0  0  0  0  0  0  0  0
  188.6880  176.3110  143.2260 C   0  0  0  0  0  3  0  0  0  0  0  0
  187.2690  177.9400  142.8870 C   0  0  0  0  0  0  0  0  0  0  0  0
  1 14  2  0  0  0  0
  2  6  1  0  0  0  0
  2  3  1  0  0  0  0
  3 11  1  0  0  0  0
  4 14  1  0  0  0  0
  4 26  1  1  0  0  0
  5 10  2  0  0  0  0
  6  8  2  0  0  0  0
  7  5  1  6  0  0  0
  7 15  1  0  0  0  0
  8 12  1  0  0  0  0
  8  7  1  0  0  0  0
  9 15  1  0  0  0  0
  9 13  1  1  0  0  0
 10  4  1  0  0  0  0
 12 11  1  1  0  0  0
 12  9  1  0  0  0  0
 15  1  1  1  0  0  0
 17 16  2  0  0  0  0
 17 20  1  0  0  0  0
 18 22  2  0  0  0  0
 19 18  1  0  0  0  0
 20 19  1  0  0  0  0
 21 17  1  0  0  0  0
 23 16  1  6  0  0  0
 23  9  1  0  0  0  0
 23 18  1  0  0  0  0
 25 24  1  0  0  0  0
 25 10  1  0  0  0  0
 26 27  1  0  0  0  0
 28 31  2  0  0  0  0
 30 28  1  0  0  0  0
 30 32  1  0  0  0  0
 31 29  1  0  0  0  0
 32 27  1  0  0  0  0
 32 29  2  0  0  0  0
M  END
>  <MODEL>
6

>  <REMARK>
 VINA RESULT:      -6.0      1.618      1.950
  Name = 
  5 active torsions:
  status: ('A' for Active; 'I' for Inactive)
    1  A    between atoms: C_8  and  C_23
    2  A    between atoms: C_12  and  C_21
    3  A    between atoms: C_16  and  C_32
    4  A    between atoms: C_19  and  C_23
    5  A    between atoms: C_19  and  C_24
                            x       y       z     vdW  Elec       q    Type
                         _______ _______ _______ _____ _____    ______ ____

>  <TORSDO>
F 5

$$$$
=
 OpenBabel11052416503D

 32 36  0  0  1  0  0  0  0  0999 V2000
  182.2820  179.0500  137.9490 C   0  0  0  0  0  3  0  0  0  0  0  0
  184.3350  178.4710  143.6230 C   0  0  0  0  0  2  0  0  0  0  0  0
  185.5120  179.2850  143.0500 C   0  0  0  0  0  2  0  0  0  0  0  0
  179.8310  178.8650  138.7230 C   0  0  2  0  0  3  0  0  0  0  0  0
  181.0840  177.6740  140.5510 C   0  0  0  0  0  3  0  0  0  0  0  0
  183.1210  178.5540  142.7430 C   0  0  0  0  0  3  0  0  0  0  0  0
  182.2200  178.6320  140.4250 C   0  0  1  0  0  3  0  0  0  0  0  0
  183.2860  178.4150  141.4240 C   0  0  0  0  0  0  0  0  0  0  0  0
  184.4330  178.5570  139.3070 C   0  0  2  0  0  0  0  0  0  0  0  0
  180.0210  177.7520  139.7350 C   0  0  0  0  0  0  0  0  0  0  0  0
  185.5600  179.3610  141.5080 C   0  0  0  0  0  2  0  0  0  0  0  0
  184.6480  178.3270  140.8220 C   0  0  1  0  0  3  0  0  0  0  0  0
  184.7840  179.8630  138.9360 O   0  0  0  0  0  1  0  0  0  0  0  0
  180.9600  179.2260  137.7730 C   0  0  0  0  0  3  0  0  0  0  0  0
  182.9130  178.3410  139.1160 C   0  0  2  0  0  3  0  0  0  0  0  0
  184.5670  177.1850  137.1650 C   0  0  0  0  0  3  0  0  0  0  0  0
  185.2310  176.6110  136.1520 C   0  0  0  0  0  0  0  0  0  0  0  0
  186.6930  177.8790  138.2240 C   0  0  0  0  0  0  0  0  0  0  0  0
  187.3610  177.2980  137.1010 N   0  0  0  0  0  2  0  0  0  0  0  0
  186.6940  176.2900  136.2830 C   0  0  0  0  0  2  0  0  0  0  0  0
  184.5060  176.2610  134.9000 C   0  0  0  0  0  1  0  0  0  0  0  0
  187.3340  178.6380  138.9970 O   0  0  0  0  0  0  0  0  0  0  0  0
  185.2410  177.5230  138.4800 C   0  0  1  0  0  3  0  0  0  0  0  0
  178.9320  176.2080  141.1640 O   0  0  0  0  0  1  0  0  0  0  0  0
  178.9320  176.7390  139.8740 C   0  0  0  0  0  2  0  0  0  0  0  0
  179.0960  180.0870  139.2800 C   0  0  0  0  0  2  0  0  0  0  0  0
  179.9810  181.3210  139.4450 C   0  0  0  0  0  2  0  0  0  0  0  0
  178.9720  184.3130  137.7800 C   0  0  0  0  0  3  0  0  0  0  0  0
  179.6280  182.2960  137.1220 C   0  0  0  0  0  3  0  0  0  0  0  0
  179.2160  183.6050  138.8550 O   0  0  0  0  0  0  0  0  0  0  0  0
  179.2150  183.5340  136.6600 C   0  0  0  0  0  3  0  0  0  0  0  0
  179.5980  182.4060  138.4940 C   0  0  0  0  0  0  0  0  0  0  0  0
  3  2  1  0  0  0  0
  4 26  1  1  0  0  0
  4 10  1  0  0  0  0
  6  2  1  0  0  0  0
  7  5  1  1  0  0  0
  7  8  1  0  0  0  0
  8  6  2  0  0  0  0
  9 13  1  6  0  0  0
  9 12  1  0  0  0  0
 10 25  1  0  0  0  0
 10  5  2  0  0  0  0
 11  3  1  0  0  0  0
 12  8  1  0  0  0  0
 12 11  1  1  0  0  0
 14  1  2  0  0  0  0
 14  4  1  0  0  0  0
 15  1  1  6  0  0  0
 15  9  1  0  0  0  0
 15  7  1  0  0  0  0
 17 20  1  0  0  0  0
 17 16  2  0  0  0  0
 18 23  1  0  0  0  0
 18 22  2  0  0  0  0
 19 18  1  0  0  0  0
 20 19  1  0  0  0  0
 21 17  1  0  0  0  0
 23 16  1  6  0  0  0
 23  9  1  0  0  0  0
 25 24  1  0  0  0  0
 26 27  1  0  0  0  0
 28 30  1  0  0  0  0
 29 32  2  0  0  0  0
 31 29  1  0  0  0  0
 31 28  2  0  0  0  0
 32 30  1  0  0  0  0
 32 27  1  0  0  0  0
M  END
>  <MODEL>
7

>  <REMARK>
 VINA RESULT:      -5.9      2.642      6.982
  Name = 
  5 active torsions:
  status: ('A' for Active; 'I' for Inactive)
    1  A    between atoms: C_8  and  C_23
    2  A    between atoms: C_12  and  C_21
    3  A    between atoms: C_16  and  C_32
    4  A    between atoms: C_19  and  C_23
    5  A    between atoms: C_19  and  C_24
                            x       y       z     vdW  Elec       q    Type
                         _______ _______ _______ _____ _____    ______ ____

>  <TORSDO>
F 5

$$$$
=
 OpenBabel11052416503D

 32 36  0  0  1  0  0  0  0  0999 V2000
  192.5630  176.6670  139.0170 C   0  0  0  0  0  3  0  0  0  0  0  0
  191.1440  172.5650  134.7860 C   0  0  0  0  0  2  0  0  0  0  0  0
  192.3130  171.8030  135.4420 C   0  0  0  0  0  2  0  0  0  0  0  0
  190.1540  177.5800  139.0670 C   0  0  2  0  0  3  0  0  0  0  0  0
  190.3190  176.5690  136.7680 C   0  0  0  0  0  3  0  0  0  0  0  0
  190.6330  173.6660  135.6700 C   0  0  0  0  0  3  0  0  0  0  0  0
  191.1850  175.4710  137.2910 C   0  0  1  0  0  3  0  0  0  0  0  0
  191.5260  174.4570  136.2740 C   0  0  0  0  0  0  0  0  0  0  0  0
  193.6280  175.0480  137.2980 C   0  0  2  0  0  0  0  0  0  0  0  0
  189.8970  177.5570  137.5720 C   0  0  0  0  0  0  0  0  0  0  0  0
  193.2050  172.6560  136.3710 C   0  0  0  0  0  2  0  0  0  0  0  0
  192.9870  174.1700  136.1960 C   0  0  1  0  0  3  0  0  0  0  0  0
  193.9410  174.2890  138.4350 O   0  0  0  0  0  1  0  0  0  0  0  0
  191.5570  177.3460  139.5980 C   0  0  0  0  0  3  0  0  0  0  0  0
  192.5240  176.0780  137.6340 C   0  0  2  0  0  3  0  0  0  0  0  0
  196.1240  174.8760  136.8190 C   0  0  0  0  0  3  0  0  0  0  0  0
  197.2250  175.1340  136.0980 C   0  0  0  0  0  0  0  0  0  0  0  0
  194.7710  176.3540  135.3660 C   0  0  0  0  0  0  0  0  0  0  0  0
  195.9570  176.5630  134.5940 N   0  0  0  0  0  2  0  0  0  0  0  0
  197.2720  176.3230  135.1790 C   0  0  0  0  0  2  0  0  0  0  0  0
  198.4170  174.2550  136.2330 C   0  0  0  0  0  1  0  0  0  0  0  0
  193.6580  176.7010  134.8920 O   0  0  0  0  0  0  0  0  0  0  0  0
  194.8950  175.7610  136.7570 C   0  0  1  0  0  3  0  0  0  0  0  0
  189.0650  179.7580  137.8430 O   0  0  0  0  0  1  0  0  0  0  0  0
  189.0710  178.6560  136.9880 C   0  0  0  0  0  2  0  0  0  0  0  0
  189.0710  176.8760  139.8890 C   0  0  0  0  0  2  0  0  0  0  0  0
  188.3780  177.7820  140.9060 C   0  0  0  0  0  2  0  0  0  0  0  0
  189.8380  176.9050  144.0430 C   0  0  0  0  0  3  0  0  0  0  0  0
  187.7630  177.1430  143.2900 C   0  0  0  0  0  3  0  0  0  0  0  0
  189.9110  177.2440  142.7790 O   0  0  0  0  0  0  0  0  0  0  0  0
  188.5050  176.8270  144.4150 C   0  0  0  0  0  3  0  0  0  0  0  0
  188.6980  177.3830  142.3090 C   0  0  0  0  0  0  0  0  0  0  0  0
  1 14  2  0  0  0  0
  2  3  1  0  0  0  0
  2  6  1  0  0  0  0
  3 11  1  0  0  0  0
  4 14  1  0  0  0  0
  4 26  1  1  0  0  0
  5 10  2  0  0  0  0
  6  8  2  0  0  0  0
  7  5  1  6  0  0  0
  7 15  1  0  0  0  0
  8  7  1  0  0  0  0
  9 15  1  0  0  0  0
  9 13  1  1  0  0  0
 10  4  1  0  0  0  0
 12  8  1  0  0  0  0
 12 11  1  1  0  0  0
 12  9  1  0  0  0  0
 15  1  1  1  0  0  0
 17 21  1  0  0  0  0
 17 16  2  0  0  0  0
 18 23  1  0  0  0  0
 19 20  1  0  0  0  0
 19 18  1  0  0  0  0
 20 17  1  0  0  0  0
 22 18  2  0  0  0  0
 23 16  1  6  0  0  0
 23  9  1  0  0  0  0
 25 10  1  0  0  0  0
 25 24  1  0  0  0  0
 26 27  1  0  0  0  0
 27 32  1  0  0  0  0
 28 31  2  0  0  0  0
 29 31  1  0  0  0  0
 30 28  1  0  0  0  0
 32 30  1  0  0  0  0
 32 29  2  0  0  0  0
M  END
>  <MODEL>
8

>  <REMARK>
 VINA RESULT:      -5.9      8.050     11.912
  Name = 
  5 active torsions:
  status: ('A' for Active; 'I' for Inactive)
    1  A    between atoms: C_8  and  C_23
    2  A    between atoms: C_12  and  C_21
    3  A    between atoms: C_16  and  C_32
    4  A    between atoms: C_19  and  C_23
    5  A    between atoms: C_19  and  C_24
                            x       y       z     vdW  Elec       q    Type
                         _______ _______ _______ _____ _____    ______ ____

>  <TORSDO>
F 5

$$$$
=
 OpenBabel11052416503D

 32 36  0  0  1  0  0  0  0  0999 V2000
  182.8830  176.5160  139.2370 C   0  0  0  0  0  3  0  0  0  0  0  0
  179.2150  181.3160  138.7340 C   0  0  0  0  0  2  0  0  0  0  0  0
  180.4750  181.9400  138.1020 C   0  0  0  0  0  2  0  0  0  0  0  0
  180.8960  174.8780  139.1600 C   0  0  2  0  0  3  0  0  0  0  0  0
  179.8370  176.9990  140.0050 C   0  0  0  0  0  3  0  0  0  0  0  0
  179.3010  179.8170  138.7810 C   0  0  0  0  0  3  0  0  0  0  0  0
  180.7360  177.8170  139.1390 C   0  0  1  0  0  3  0  0  0  0  0  0
  180.4460  179.2630  139.1920 C   0  0  0  0  0  0  0  0  0  0  0  0
  182.8280  179.0900  139.5310 C   0  0  2  0  0  0  0  0  0  0  0  0
  179.9510  175.6620  140.0510 C   0  0  0  0  0  0  0  0  0  0  0  0
  181.7820  181.1520  138.3430 C   0  0  0  0  0  2  0  0  0  0  0  0
  181.6550  180.0960  139.4570 C   0  0  1  0  0  3  0  0  0  0  0  0
  183.5740  179.0880  138.3430 O   0  0  0  0  0  1  0  0  0  0  0  0
  182.3520  175.2950  139.0460 C   0  0  0  0  0  3  0  0  0  0  0  0
  182.1270  177.7230  139.7190 C   0  0  2  0  0  3  0  0  0  0  0  0
  183.1090  179.0030  142.0610 C   0  0  0  0  0  3  0  0  0  0  0  0
  183.8320  178.8500  143.1800 C   0  0  0  0  0  0  0  0  0  0  0  0
  185.1500  178.8490  140.6690 C   0  0  0  0  0  0  0  0  0  0  0  0
  185.8780  178.6390  141.8820 N   0  0  0  0  0  2  0  0  0  0  0  0
  185.3200  179.0650  143.1620 C   0  0  0  0  0  2  0  0  0  0  0  0
  183.1520  178.4940  144.4550 C   0  0  0  0  0  1  0  0  0  0  0  0
  185.7070  178.6050  139.5670 O   0  0  0  0  0  0  0  0  0  0  0  0
  183.7410  179.4080  140.7450 C   0  0  1  0  0  3  0  0  0  0  0  0
  179.6810  173.7130  141.3700 O   0  0  0  0  0  1  0  0  0  0  0  0
  179.0570  174.8950  140.9690 C   0  0  0  0  0  2  0  0  0  0  0  0
  180.2790  174.4630  137.8220 C   0  0  0  0  0  2  0  0  0  0  0  0
  181.1190  174.8500  136.6060 C   0  0  0  0  0  2  0  0  0  0  0  0
  179.6310  177.9190  135.5520 C   0  0  0  0  0  3  0  0  0  0  0  0
  181.7130  177.1830  135.7820 C   0  0  0  0  0  3  0  0  0  0  0  0
  179.5690  176.6820  135.9810 O   0  0  0  0  0  0  0  0  0  0  0  0
  180.9590  178.2830  135.4090 C   0  0  0  0  0  3  0  0  0  0  0  0
  180.7860  176.2220  136.1190 C   0  0  0  0  0  0  0  0  0  0  0  0
  2  6  1  0  0  0  0
  3 11  1  0  0  0  0
  3  2  1  0  0  0  0
  4 26  1  6  0  0  0
  4 10  1  0  0  0  0
  5 10  2  0  0  0  0
  6  8  2  0  0  0  0
  7  8  1  0  0  0  0
  7 15  1  0  0  0  0
  7  5  1  1  0  0  0
  8 12  1  0  0  0  0
  9 13  1  6  0  0  0
  9 15  1  0  0  0  0
  9 23  1  0  0  0  0
 10 25  1  0  0  0  0
 12 11  1  6  0  0  0
 12  9  1  0  0  0  0
 14  4  1  0  0  0  0
 14  1  2  0  0  0  0
 15  1  1  6  0  0  0
 16 17  2  0  0  0  0
 17 21  1  0  0  0  0
 18 23  1  0  0  0  0
 18 19  1  0  0  0  0
 19 20  1  0  0  0  0
 20 17  1  0  0  0  0
 22 18  2  0  0  0  0
 23 16  1  1  0  0  0
 25 24  1  0  0  0  0
 27 26  1  0  0  0  0
 28 30  1  0  0  0  0
 29 32  2  0  0  0  0
 30 32  1  0  0  0  0
 31 28  2  0  0  0  0
 31 29  1  0  0  0  0
 32 27  1  0  0  0  0
M  END
>  <MODEL>
9

>  <REMARK>
 VINA RESULT:      -5.8      2.468      6.916
  Name = 
  5 active torsions:
  status: ('A' for Active; 'I' for Inactive)
    1  A    between atoms: C_8  and  C_23
    2  A    between atoms: C_12  and  C_21
    3  A    between atoms: C_16  and  C_32
    4  A    between atoms: C_19  and  C_23
    5  A    between atoms: C_19  and  C_24
                            x       y       z     vdW  Elec       q    Type
                         _______ _______ _______ _____ _____    ______ ____

>  <TORSDO>
F 5

$$$$
