=
 OpenBabel11052416343D

 43 49  0  0  1  0  0  0  0  0999 V2000
  185.3120  178.5110  146.7690 C   0  0  1  0  0  3  0  0  0  0  0  0
  183.1950  178.3410  142.3160 C   0  0  1  0  0  3  0  0  0  0  0  0
  185.0680  179.1220  140.1750 C   0  0  2  0  0  3  0  0  0  0  0  0
  183.7960  179.0510  144.9750 C   0  0  0  0  0  0  0  0  0  0  0  0
  186.0600  177.5170  145.8540 C   0  0  0  0  0  2  0  0  0  0  0  0
  186.0960  179.7260  146.9120 N   0  0  0  0  0  1  0  0  0  0  0  0
  184.9700  178.9120  144.0330 C   0  0  1  0  0  3  0  0  0  0  0  0
  183.9840  178.8370  146.2400 N   0  0  0  0  0  0  0  0  0  0  0  0
  185.6700  177.5930  144.3610 C   0  0  0  0  0  2  0  0  0  0  0  0
  185.5730  178.6620  141.5400 C   0  0  0  0  0  2  0  0  0  0  0  0
  184.5240  179.0550  142.5720 C   0  0  1  0  0  3  0  0  0  0  0  0
  182.1590  178.9220  143.2350 C   0  0  0  0  0  3  0  0  0  0  0  0
  182.7770  178.3680  140.8580 C   0  0  0  0  0  0  0  0  0  0  0  0
  183.6700  178.6320  139.8840 C   0  0  0  0  0  3  0  0  0  0  0  0
  182.4610  179.2080  144.4680 N   0  0  0  0  0  0  0  0  0  0  0  0
  186.0280  178.7530  139.0950 C   0  0  0  0  0  0  0  0  0  0  0  0
  187.3880  178.4900  139.4400 N   0  0  0  0  0  2  0  0  0  0  0  0
  185.6360  178.6360  137.9020 O   0  0  0  0  0  0  0  0  0  0  0  0
  188.5890  177.9740  138.2510 S   0  0  0  0  0  0  0  0  0  0  0  0
  191.0180  176.8950  138.9620 C   0  0  0  0  0  2  0  0  0  0  0  0
  189.2850  177.1840  140.7690 C   0  0  0  0  0  2  0  0  0  0  0  0
  191.6820  177.4610  142.0300 C   0  0  2  0  0  3  0  0  0  0  0  0
  189.8940  177.7800  139.5020 C   0  0  2  0  0  3  0  0  0  0  0  0
  192.1580  176.7450  139.9590 C   0  0  0  0  0  2  0  0  0  0  0  0
  190.1700  177.1910  142.0360 C   0  0  1  0  0  0  0  0  0  0  0  0
  190.6920  178.5260  142.5090 C   0  0  0  0  0  2  0  0  0  0  0  0
  192.2060  177.8670  140.7920 O   0  0  0  0  0  0  0  0  0  0  0  0
  189.7640  176.3380  143.0960 O   0  0  0  0  0  0  0  0  0  0  0  0
  189.7140  176.7880  144.4120 C   0  0  0  0  0  0  0  0  0  0  0  0
  189.0330  176.9300  145.6390 N   0  0  0  0  0  0  0  0  0  0  0  0
  190.3010  177.4100  145.4730 C   0  0  1  0  0  3  0  0  0  0  0  0
  192.0330  175.7300  145.3850 N   0  0  0  0  0  2  0  0  0  0  0  0
  191.6080  176.6150  147.5720 C   0  0  0  0  0  1  0  0  0  0  0  0
  191.2990  176.4880  146.1140 C   0  0  0  0  0  0  0  0  0  0  0  0
  181.4410  177.8210  140.4640 C   0  0  0  0  0  2  0  0  0  0  0  0
  180.1690  176.2320  137.2420 C   0  0  0  0  0  2  0  0  0  0  0  0
  179.7270  174.9480  137.9580 C   0  0  2  0  0  3  0  0  0  0  0  0
  181.6540  175.5090  139.5190 C   0  0  0  0  0  2  0  0  0  0  0  0
  180.4190  177.3630  138.2330 C   0  0  0  0  0  2  0  0  0  0  0  0
  181.5640  177.0070  139.1890 C   0  0  1  0  0  3  0  0  0  0  0  0
  180.3000  174.8120  139.3790 C   0  0  0  0  0  2  0  0  0  0  0  0
  179.8050  172.5670  137.7860 O   0  0  0  0  0  1  0  0  0  0  0  0
  180.1130  173.7500  137.1100 C   0  0  0  0  0  2  0  0  0  0  0  0
  1  6  1  6  0  0  0
  2 11  1  0  0  0  0
  2 12  1  1  0  0  0
  3 16  1  6  0  0  0
  3 10  1  0  0  0  0
  4  8  2  0  0  0  0
  5  1  1  0  0  0  0
  7  9  1  6  0  0  0
  7  4  1  0  0  0  0
  8  1  1  0  0  0  0
  9  5  1  0  0  0  0
 11 10  1  6  0  0  0
 11  7  1  0  0  0  0
 12 15  2  0  0  0  0
 13  2  1  0  0  0  0
 14  3  1  0  0  0  0
 14 13  2  0  0  0  0
 15  4  1  0  0  0  0
 16 17  1  0  0  0  0
 18 16  2  0  0  0  0
 19 17  1  0  0  0  0
 20 23  1  0  0  0  0
 20 24  1  0  0  0  0
 21 25  1  0  0  0  0
 22 25  1  0  0  0  0
 22 26  1  1  0  0  0
 23 19  1  6  0  0  0
 23 21  1  0  0  0  0
 24 27  1  0  0  0  0
 25 26  1  0  0  0  0
 25 28  1  1  0  0  0
 27 22  1  0  0  0  0
 28 29  1  0  0  0  0
 29 31  1  0  0  0  0
 29 30  2  0  0  0  0
 31 30  1  0  0  0  0
 31 34  1  1  0  0  0
 32 34  2  0  0  0  0
 34 33  1  0  0  0  0
 35 13  1  0  0  0  0
 36 37  1  0  0  0  0
 36 39  1  0  0  0  0
 37 43  1  6  0  0  0
 37 41  1  0  0  0  0
 39 40  1  0  0  0  0
 40 38  1  0  0  0  0
 40 35  1  1  0  0  0
 41 38  1  0  0  0  0
 43 42  1  0  0  0  0
M  END
>  <MODEL>
1

>  <REMARK>
 VINA RESULT:      -8.9      0.000      0.000
  Name = 
  9 active torsions:
  status: ('A' for Active; 'I' for Inactive)
    1  A    between atoms: C_1  and  C_34
    2  A    between atoms: C_1  and  C_35
    3  A    between atoms: C_2  and  C_13
    4  A    between atoms: N_6  and  S_17
    5  A    between atoms: C_11  and  O_14
    6  A    between atoms: C_12  and  S_17
    7  A    between atoms: O_14  and  C_22
    8  A    between atoms: C_19  and  C_37
    9  A    between atoms: C_31  and  C_40
                            x       y       z     vdW  Elec       q    Type
                         _______ _______ _______ _____ _____    ______ ____

>  <TORSDO>
F 9

$$$$
=
 OpenBabel11052416343D

 43 49  0  0  1  0  0  0  0  0999 V2000
  191.7610  176.3860  147.1170 C   0  0  1  0  0  3  0  0  0  0  0  0
  189.1750  177.7340  143.1380 C   0  0  1  0  0  3  0  0  0  0  0  0
  186.2680  177.6320  143.6260 C   0  0  2  0  0  3  0  0  0  0  0  0
  190.8960  176.3260  144.8680 C   0  0  0  0  0  0  0  0  0  0  0  0
  190.8830  177.6150  147.4350 C   0  0  0  0  0  2  0  0  0  0  0  0
  191.1790  175.2000  147.7230 N   0  0  0  0  0  1  0  0  0  0  0  0
  189.5650  176.7550  145.4430 C   0  0  1  0  0  3  0  0  0  0  0  0
  191.9040  176.1840  145.6710 N   0  0  0  0  0  0  0  0  0  0  0  0
  189.8220  177.9480  146.3630 C   0  0  0  0  0  2  0  0  0  0  0  0
  187.2630  177.7060  144.7810 C   0  0  0  0  0  2  0  0  0  0  0  0
  188.5410  177.0120  144.3290 C   0  0  1  0  0  3  0  0  0  0  0  0
  190.3060  176.8910  142.6200 C   0  0  0  0  0  3  0  0  0  0  0  0
  188.1710  178.1030  142.0630 C   0  0  0  0  0  0  0  0  0  0  0  0
  186.8500  178.1460  142.3310 C   0  0  0  0  0  3  0  0  0  0  0  0
  191.1030  176.2810  143.4470 N   0  0  0  0  0  0  0  0  0  0  0  0
  184.9880  178.3130  143.9750 C   0  0  0  0  0  0  0  0  0  0  0  0
  183.8960  178.2410  143.0590 N   0  0  0  0  0  2  0  0  0  0  0  0
  184.8590  178.9090  145.0800 O   0  0  0  0  0  0  0  0  0  0  0  0
  182.3130  178.9480  143.4070 S   0  0  0  0  0  0  0  0  0  0  0  0
  180.5030  178.2030  141.4740 C   0  0  0  0  0  2  0  0  0  0  0  0
  182.9340  178.3330  140.8210 C   0  0  0  0  0  2  0  0  0  0  0  0
  181.5540  178.9460  138.5550 C   0  0  2  0  0  3  0  0  0  0  0  0
  181.8200  178.9580  141.6570 C   0  0  2  0  0  3  0  0  0  0  0  0
  180.0240  178.2270  140.0300 C   0  0  0  0  0  2  0  0  0  0  0  0
  182.8250  178.4910  139.2880 C   0  0  1  0  0  0  0  0  0  0  0  0
  182.7420  179.8950  138.7390 C   0  0  0  0  0  2  0  0  0  0  0  0
  180.5100  179.3730  139.3920 O   0  0  0  0  0  0  0  0  0  0  0  0
  183.6370  177.6280  138.5040 O   0  0  0  0  0  0  0  0  0  0  0  0
  183.1810  176.3790  138.0910 C   0  0  0  0  0  0  0  0  0  0  0  0
  182.3470  175.5800  137.2800 N   0  0  0  0  0  0  0  0  0  0  0  0
  183.2230  175.0200  138.1660 C   0  0  1  0  0  3  0  0  0  0  0  0
  185.1190  175.2940  136.6960 N   0  0  0  0  0  2  0  0  0  0  0  0
  184.9970  173.1610  137.7850 C   0  0  0  0  0  1  0  0  0  0  0  0
  184.4400  174.5080  137.4490 C   0  0  0  0  0  0  0  0  0  0  0  0
  188.6510  178.7010  140.7790 C   0  0  0  0  0  2  0  0  0  0  0  0
  190.0540  176.9020  137.7250 C   0  0  0  0  0  2  0  0  0  0  0  0
  189.3410  177.8460  136.7460 C   0  0  2  0  0  3  0  0  0  0  0  0
  187.6150  177.9950  138.6080 C   0  0  0  0  0  2  0  0  0  0  0  0
  190.0810  177.4830  139.1340 C   0  0  0  0  0  2  0  0  0  0  0  0
  188.6580  177.6510  139.6820 C   0  0  1  0  0  3  0  0  0  0  0  0
  188.2470  178.7020  137.4070 C   0  0  0  0  0  2  0  0  0  0  0  0
  188.4910  175.7300  136.0340 O   0  0  0  0  0  1  0  0  0  0  0  0
  188.7630  177.0300  135.6030 C   0  0  0  0  0  2  0  0  0  0  0  0
  1  5  1  0  0  0  0
  1  6  1  1  0  0  0
  2 12  1  6  0  0  0
  2 11  1  0  0  0  0
  3 16  1  1  0  0  0
  3 10  1  0  0  0  0
  4  7  1  0  0  0  0
  4  8  2  0  0  0  0
  7  9  1  6  0  0  0
  8  1  1  0  0  0  0
  9  5  1  0  0  0  0
 11 10  1  1  0  0  0
 11  7  1  0  0  0  0
 12 15  2  0  0  0  0
 13 14  2  0  0  0  0
 13  2  1  0  0  0  0
 14  3  1  0  0  0  0
 15  4  1  0  0  0  0
 16 18  2  0  0  0  0
 17 19  1  0  0  0  0
 17 16  1  0  0  0  0
 20 23  1  0  0  0  0
 21 23  1  0  0  0  0
 22 26  1  6  0  0  0
 22 25  1  0  0  0  0
 22 27  1  0  0  0  0
 23 19  1  1  0  0  0
 24 20  1  0  0  0  0
 25 28  1  6  0  0  0
 25 21  1  0  0  0  0
 26 25  1  0  0  0  0
 27 24  1  0  0  0  0
 29 31  1  0  0  0  0
 29 28  1  0  0  0  0
 30 29  2  0  0  0  0
 30 31  1  0  0  0  0
 31 34  1  6  0  0  0
 32 34  2  0  0  0  0
 34 33  1  0  0  0  0
 35 13  1  0  0  0  0
 36 39  1  0  0  0  0
 37 43  1  6  0  0  0
 37 41  1  0  0  0  0
 37 36  1  0  0  0  0
 38 40  1  0  0  0  0
 39 40  1  0  0  0  0
 40 35  1  1  0  0  0
 41 38  1  0  0  0  0
 43 42  1  0  0  0  0
M  END
>  <MODEL>
2

>  <REMARK>
 VINA RESULT:      -8.8      2.934      8.365
  Name = 
  9 active torsions:
  status: ('A' for Active; 'I' for Inactive)
    1  A    between atoms: C_1  and  C_34
    2  A    between atoms: C_1  and  C_35
    3  A    between atoms: C_2  and  C_13
    4  A    between atoms: N_6  and  S_17
    5  A    between atoms: C_11  and  O_14
    6  A    between atoms: C_12  and  S_17
    7  A    between atoms: O_14  and  C_22
    8  A    between atoms: C_19  and  C_37
    9  A    between atoms: C_31  and  C_40
                            x       y       z     vdW  Elec       q    Type
                         _______ _______ _______ _____ _____    ______ ____

>  <TORSDO>
F 9

$$$$
=
 OpenBabel11052416343D

 43 49  0  0  1  0  0  0  0  0999 V2000
  191.5730  176.4890  147.1280 C   0  0  1  0  0  3  0  0  0  0  0  0
  189.2970  177.6730  142.9140 C   0  0  1  0  0  3  0  0  0  0  0  0
  186.3640  177.4660  143.1500 C   0  0  2  0  0  3  0  0  0  0  0  0
  190.9110  176.3610  144.8140 C   0  0  0  0  0  0  0  0  0  0  0  0
  190.6250  177.6880  147.3450 C   0  0  0  0  0  2  0  0  0  0  0  0
  190.9840  175.2910  147.7030 N   0  0  0  0  0  1  0  0  0  0  0  0
  189.5200  176.7460  145.2620 C   0  0  1  0  0  3  0  0  0  0  0  0
  191.8500  176.2700  145.7040 N   0  0  0  0  0  0  0  0  0  0  0  0
  189.6510  177.9630  146.1780 C   0  0  0  0  0  2  0  0  0  0  0  0
  187.2510  177.5980  144.3860 C   0  0  0  0  0  2  0  0  0  0  0  0
  188.5890  176.9470  144.0600 C   0  0  1  0  0  3  0  0  0  0  0  0
  190.4990  176.8670  142.5130 C   0  0  0  0  0  3  0  0  0  0  0  0
  188.3770  177.9860  141.7490 C   0  0  0  0  0  0  0  0  0  0  0  0
  187.0380  177.9820  141.9010 C   0  0  0  0  0  3  0  0  0  0  0  0
  191.2430  176.3010  143.4170 N   0  0  0  0  0  0  0  0  0  0  0  0
  185.0340  178.1030  143.3730 C   0  0  0  0  0  0  0  0  0  0  0  0
  184.1340  178.2260  142.2730 N   0  0  0  0  0  2  0  0  0  0  0  0
  184.6940  178.4900  144.5250 O   0  0  0  0  0  0  0  0  0  0  0  0
  182.5070  178.8960  142.4430 S   0  0  0  0  0  0  0  0  0  0  0  0
  183.0400  177.3990  140.1980 C   0  0  0  0  0  2  0  0  0  0  0  0
  181.8120  179.5780  139.8930 C   0  0  0  0  0  2  0  0  0  0  0  0
  180.9070  177.9650  137.8950 C   0  0  2  0  0  3  0  0  0  0  0  0
  181.9990  178.3530  140.7840 C   0  0  2  0  0  3  0  0  0  0  0  0
  182.6320  176.8770  138.8270 C   0  0  0  0  0  2  0  0  0  0  0  0
  181.1240  179.3480  138.5290 C   0  0  1  0  0  0  0  0  0  0  0  0
  179.7470  178.7280  138.5420 C   0  0  0  0  0  2  0  0  0  0  0  0
  181.2380  176.8770  138.7190 O   0  0  0  0  0  0  0  0  0  0  0  0
  181.2660  180.3820  137.5660 O   0  0  0  0  0  0  0  0  0  0  0  0
  180.5480  181.5700  137.6650 C   0  0  0  0  0  0  0  0  0  0  0  0
  180.0020  182.6170  138.4370 N   0  0  0  0  0  0  0  0  0  0  0  0
  179.8610  182.5900  137.0790 C   0  0  1  0  0  3  0  0  0  0  0  0
  180.9230  183.5900  135.1550 N   0  0  0  0  0  2  0  0  0  0  0  0
  181.4930  184.6040  137.2510 C   0  0  0  0  0  1  0  0  0  0  0  0
  180.8240  183.5460  136.4330 C   0  0  0  0  0  0  0  0  0  0  0  0
  188.9460  178.5830  140.5000 C   0  0  0  0  0  2  0  0  0  0  0  0
  190.0950  176.7880  137.3400 C   0  0  0  0  0  2  0  0  0  0  0  0
  189.5180  177.8740  136.4210 C   0  0  2  0  0  3  0  0  0  0  0  0
  187.8270  178.1490  138.2990 C   0  0  0  0  0  2  0  0  0  0  0  0
  190.1990  177.2780  138.7800 C   0  0  0  0  0  2  0  0  0  0  0  0
  188.8120  177.6060  139.3460 C   0  0  1  0  0  3  0  0  0  0  0  0
  188.5500  178.8310  137.1370 C   0  0  0  0  0  2  0  0  0  0  0  0
  187.5550  177.7400  135.0670 O   0  0  0  0  0  1  0  0  0  0  0  0
  188.8370  177.2120  135.2380 C   0  0  0  0  0  2  0  0  0  0  0  0
  1  5  1  0  0  0  0
  1  6  1  6  0  0  0
  2 12  1  6  0  0  0
  2 11  1  0  0  0  0
  3 16  1  1  0  0  0
  3 10  1  0  0  0  0
  4  7  1  0  0  0  0
  4  8  2  0  0  0  0
  7  9  1  6  0  0  0
  8  1  1  0  0  0  0
  9  5  1  0  0  0  0
 11 10  1  1  0  0  0
 11  7  1  0  0  0  0
 12 15  2  0  0  0  0
 13 14  2  0  0  0  0
 13  2  1  0  0  0  0
 14  3  1  0  0  0  0
 15  4  1  0  0  0  0
 16 18  2  0  0  0  0
 17 19  1  0  0  0  0
 17 16  1  0  0  0  0
 20 23  1  0  0  0  0
 21 23  1  0  0  0  0
 22 25  1  0  0  0  0
 22 26  1  1  0  0  0
 22 27  1  0  0  0  0
 23 19  1  1  0  0  0
 24 20  1  0  0  0  0
 25 28  1  6  0  0  0
 25 26  1  0  0  0  0
 25 21  1  0  0  0  0
 27 24  1  0  0  0  0
 28 29  1  0  0  0  0
 29 30  2  0  0  0  0
 31 34  1  6  0  0  0
 31 29  1  0  0  0  0
 31 30  1  0  0  0  0
 32 34  2  0  0  0  0
 34 33  1  0  0  0  0
 35 13  1  0  0  0  0
 36 39  1  0  0  0  0
 37 43  1  6  0  0  0
 37 41  1  0  0  0  0
 37 36  1  0  0  0  0
 38 40  1  0  0  0  0
 39 40  1  0  0  0  0
 40 35  1  1  0  0  0
 41 38  1  0  0  0  0
 42 43  1  0  0  0  0
M  END
>  <MODEL>
3

>  <REMARK>
 VINA RESULT:      -8.6      3.492      9.261
  Name = 
  9 active torsions:
  status: ('A' for Active; 'I' for Inactive)
    1  A    between atoms: C_1  and  C_34
    2  A    between atoms: C_1  and  C_35
    3  A    between atoms: C_2  and  C_13
    4  A    between atoms: N_6  and  S_17
    5  A    between atoms: C_11  and  O_14
    6  A    between atoms: C_12  and  S_17
    7  A    between atoms: O_14  and  C_22
    8  A    between atoms: C_19  and  C_37
    9  A    between atoms: C_31  and  C_40
                            x       y       z     vdW  Elec       q    Type
                         _______ _______ _______ _____ _____    ______ ____

>  <TORSDO>
F 9

$$$$
=
 OpenBabel11052416343D

 43 49  0  0  1  0  0  0  0  0999 V2000
  188.6690  177.4090  148.2510 C   0  0  1  0  0  3  0  0  0  0  0  0
  187.7160  178.1490  143.4680 C   0  0  1  0  0  3  0  0  0  0  0  0
  184.8260  178.0320  142.8890 C   0  0  2  0  0  3  0  0  0  0  0  0
  188.6690  177.0300  145.8710 C   0  0  0  0  0  0  0  0  0  0  0  0
  187.7620  178.6450  148.0660 C   0  0  0  0  0  2  0  0  0  0  0  0
  187.8820  176.2970  148.7590 N   0  0  0  0  0  1  0  0  0  0  0  0
  187.2300  177.4930  145.8670 C   0  0  1  0  0  3  0  0  0  0  0  0
  189.3180  177.0220  146.9940 N   0  0  0  0  0  0  0  0  0  0  0  0
  187.1660  178.8040  146.6510 C   0  0  0  0  0  2  0  0  0  0  0  0
  185.3410  178.2860  144.3030 C   0  0  0  0  0  2  0  0  0  0  0  0
  186.6810  177.5740  144.4370 C   0  0  1  0  0  3  0  0  0  0  0  0
  188.9390  177.2770  143.5070 C   0  0  0  0  0  3  0  0  0  0  0  0
  187.1730  178.3460  142.0650 C   0  0  0  0  0  0  0  0  0  0  0  0
  185.8460  178.3870  141.8330 C   0  0  0  0  0  3  0  0  0  0  0  0
  189.3710  176.8030  144.6390 N   0  0  0  0  0  0  0  0  0  0  0  0
  183.5210  178.7180  142.6610 C   0  0  0  0  0  0  0  0  0  0  0  0
  182.7520  178.3730  141.5100 N   0  0  0  0  0  2  0  0  0  0  0  0
  183.0860  179.5600  143.4940 O   0  0  0  0  0  0  0  0  0  0  0  0
  181.1600  179.0700  141.1840 S   0  0  0  0  0  0  0  0  0  0  0  0
  179.6880  176.7700  140.8510 C   0  0  0  0  0  2  0  0  0  0  0  0
  181.9080  176.9260  139.6680 C   0  0  0  0  0  2  0  0  0  0  0  0
  180.3590  175.3580  138.0700 C   0  0  2  0  0  3  0  0  0  0  0  0
  180.6620  177.6880  140.1120 C   0  0  2  0  0  3  0  0  0  0  0  0
  179.2040  175.6240  139.9740 C   0  0  0  0  0  2  0  0  0  0  0  0
  181.7230  175.8850  138.5410 C   0  0  1  0  0  0  0  0  0  0  0  0
  181.1450  176.3730  137.2350 C   0  0  0  0  0  2  0  0  0  0  0  0
  179.2470  176.0090  138.6300 O   0  0  0  0  0  0  0  0  0  0  0  0
  182.7690  174.9400  138.3750 O   0  0  0  0  0  0  0  0  0  0  0  0
  183.8890  175.2250  137.5990 C   0  0  0  0  0  0  0  0  0  0  0  0
  184.9160  176.1050  137.1970 N   0  0  0  0  0  0  0  0  0  0  0  0
  184.8110  174.8500  136.6690 C   0  0  1  0  0  3  0  0  0  0  0  0
  185.4290  172.9320  138.0000 N   0  0  0  0  0  2  0  0  0  0  0  0
  187.2630  174.0300  136.9160 C   0  0  0  0  0  1  0  0  0  0  0  0
  185.8200  173.9300  137.2960 C   0  0  0  0  0  0  0  0  0  0  0  0
  188.0960  178.7830  140.9720 C   0  0  0  0  0  2  0  0  0  0  0  0
  190.4350  176.6130  138.8850 C   0  0  0  0  0  2  0  0  0  0  0  0
  190.1730  177.4240  137.6080 C   0  0  2  0  0  3  0  0  0  0  0  0
  187.8950  177.8050  138.6720 C   0  0  0  0  0  2  0  0  0  0  0  0
  189.9720  177.3680  140.1260 C   0  0  0  0  0  2  0  0  0  0  0  0
  188.4560  177.6020  140.0880 C   0  0  1  0  0  3  0  0  0  0  0  0
  188.9530  178.3550  137.7130 C   0  0  0  0  0  2  0  0  0  0  0  0
  190.4770  175.1990  136.7940 O   0  0  0  0  0  1  0  0  0  0  0  0
  190.0170  176.4690  136.4390 C   0  0  0  0  0  2  0  0  0  0  0  0
  1  6  1  6  0  0  0
  2 12  1  6  0  0  0
  2 11  1  0  0  0  0
  3 16  1  6  0  0  0
  3 10  1  0  0  0  0
  4  8  2  0  0  0  0
  5  1  1  0  0  0  0
  7  4  1  0  0  0  0
  7  9  1  6  0  0  0
  8  1  1  0  0  0  0
  9  5  1  0  0  0  0
 11 10  1  1  0  0  0
 11  7  1  0  0  0  0
 12 15  2  0  0  0  0
 13  2  1  0  0  0  0
 14 13  2  0  0  0  0
 14  3  1  0  0  0  0
 15  4  1  0  0  0  0
 16 18  2  0  0  0  0
 17 16  1  0  0  0  0
 19 17  1  0  0  0  0
 21 23  1  0  0  0  0
 22 26  1  6  0  0  0
 22 25  1  0  0  0  0
 22 27  1  0  0  0  0
 23 20  1  0  0  0  0
 23 19  1  1  0  0  0
 24 20  1  0  0  0  0
 25 28  1  6  0  0  0
 25 21  1  0  0  0  0
 26 25  1  0  0  0  0
 27 24  1  0  0  0  0
 29 28  1  0  0  0  0
 30 29  2  0  0  0  0
 31 30  1  0  0  0  0
 31 34  1  1  0  0  0
 31 29  1  0  0  0  0
 33 34  1  0  0  0  0
 34 32  2  0  0  0  0
 35 13  1  0  0  0  0
 36 39  1  0  0  0  0
 37 43  1  6  0  0  0
 37 41  1  0  0  0  0
 37 36  1  0  0  0  0
 38 40  1  0  0  0  0
 40 39  1  0  0  0  0
 40 35  1  1  0  0  0
 41 38  1  0  0  0  0
 43 42  1  0  0  0  0
M  END
>  <MODEL>
4

>  <REMARK>
 VINA RESULT:      -8.5      3.005      8.242
  Name = 
  9 active torsions:
  status: ('A' for Active; 'I' for Inactive)
    1  A    between atoms: C_1  and  C_34
    2  A    between atoms: C_1  and  C_35
    3  A    between atoms: C_2  and  C_13
    4  A    between atoms: N_6  and  S_17
    5  A    between atoms: C_11  and  O_14
    6  A    between atoms: C_12  and  S_17
    7  A    between atoms: O_14  and  C_22
    8  A    between atoms: C_19  and  C_37
    9  A    between atoms: C_31  and  C_40
                            x       y       z     vdW  Elec       q    Type
                         _______ _______ _______ _____ _____    ______ ____

>  <TORSDO>
F 9

$$$$
=
 OpenBabel11052416343D

 43 49  0  0  1  0  0  0  0  0999 V2000
  187.9750  177.6240  148.3020 C   0  0  1  0  0  3  0  0  0  0  0  0
  185.7790  178.1320  143.9130 C   0  0  1  0  0  3  0  0  0  0  0  0
  187.7350  178.5570  141.7460 C   0  0  2  0  0  3  0  0  0  0  0  0
  186.5840  178.5730  146.5770 C   0  0  0  0  0  0  0  0  0  0  0  0
  188.4540  176.5270  147.3280 C   0  0  0  0  0  2  0  0  0  0  0  0
  189.0180  178.6220  148.4660 N   0  0  0  0  0  1  0  0  0  0  0  0
  187.6740  178.2100  145.5950 C   0  0  1  0  0  3  0  0  0  0  0  0
  186.7450  178.2670  147.8270 N   0  0  0  0  0  0  0  0  0  0  0  0
  188.0610  176.7530  145.8520 C   0  0  0  0  0  2  0  0  0  0  0  0
  188.1500  177.9360  143.0770 C   0  0  0  0  0  2  0  0  0  0  0  0
  187.2420  178.5140  144.1550 C   0  0  1  0  0  3  0  0  0  0  0  0
  184.9240  178.8940  144.8850 C   0  0  0  0  0  3  0  0  0  0  0  0
  185.3470  178.3160  142.4710 C   0  0  0  0  0  0  0  0  0  0  0  0
  186.2560  178.4110  141.4800 C   0  0  0  0  0  3  0  0  0  0  0  0
  185.3100  179.0510  146.1170 N   0  0  0  0  0  0  0  0  0  0  0  0
  188.5620  178.0260  140.6240 C   0  0  0  0  0  0  0  0  0  0  0  0
  188.4460  178.6290  139.3360 N   0  0  0  0  0  2  0  0  0  0  0  0
  189.3790  177.0850  140.8200 O   0  0  0  0  0  0  0  0  0  0  0  0
  189.4320  178.1260  137.9570 S   0  0  0  0  0  0  0  0  0  0  0  0
  186.7060  178.1050  137.5830 C   0  0  0  0  0  2  0  0  0  0  0  0
  187.9750  175.9800  137.1070 C   0  0  0  0  0  2  0  0  0  0  0  0
  185.8540  175.9400  135.4010 C   0  0  2  0  0  3  0  0  0  0  0  0
  187.9980  177.5040  137.0280 C   0  0  2  0  0  3  0  0  0  0  0  0
  185.4810  177.6510  136.8030 C   0  0  0  0  0  2  0  0  0  0  0  0
  186.9940  175.2490  136.1630 C   0  0  1  0  0  0  0  0  0  0  0  0
  187.1350  175.5060  134.6830 C   0  0  0  0  0  2  0  0  0  0  0  0
  185.8480  177.3420  135.4890 O   0  0  0  0  0  0  0  0  0  0  0  0
  186.7100  173.8930  136.4740 O   0  0  0  0  0  0  0  0  0  0  0  0
  185.5620  173.5340  137.1760 C   0  0  0  0  0  0  0  0  0  0  0  0
  184.4460  173.8780  137.9680 N   0  0  0  0  0  0  0  0  0  0  0  0
  184.6790  172.5850  137.5950 C   0  0  1  0  0  3  0  0  0  0  0  0
  183.7030  172.9350  135.4140 N   0  0  0  0  0  2  0  0  0  0  0  0
  183.1380  170.8430  136.4380 C   0  0  0  0  0  1  0  0  0  0  0  0
  183.7750  172.1960  136.4600 C   0  0  0  0  0  0  0  0  0  0  0  0
  183.9130  178.1060  142.0990 C   0  0  0  0  0  2  0  0  0  0  0  0
  182.7570  179.2410  138.6480 C   0  0  0  0  0  2  0  0  0  0  0  0
  181.4150  178.5050  138.7710 C   0  0  2  0  0  3  0  0  0  0  0  0
  182.7610  176.9080  140.2220 C   0  0  0  0  0  2  0  0  0  0  0  0
  183.4390  179.3800  140.0050 C   0  0  0  0  0  2  0  0  0  0  0  0
  183.7740  178.0020  140.5910 C   0  0  1  0  0  3  0  0  0  0  0  0
  181.3770  177.4890  139.9260 C   0  0  0  0  0  2  0  0  0  0  0  0
  182.2310  177.8270  136.6310 O   0  0  0  0  0  1  0  0  0  0  0  0
  181.1000  177.8250  137.4510 C   0  0  0  0  0  2  0  0  0  0  0  0
  1  6  1  6  0  0  0
  2 11  1  0  0  0  0
  2 12  1  1  0  0  0
  3 16  1  6  0  0  0
  3 10  1  0  0  0  0
  4  8  2  0  0  0  0
  5  1  1  0  0  0  0
  7  9  1  6  0  0  0
  7  4  1  0  0  0  0
  8  1  1  0  0  0  0
  9  5  1  0  0  0  0
 11 10  1  6  0  0  0
 11  7  1  0  0  0  0
 12 15  2  0  0  0  0
 13  2  1  0  0  0  0
 14  3  1  0  0  0  0
 14 13  2  0  0  0  0
 15  4  1  0  0  0  0
 16 18  2  0  0  0  0
 17 16  1  0  0  0  0
 19 17  1  0  0  0  0
 22 26  1  6  0  0  0
 22 27  1  0  0  0  0
 22 25  1  0  0  0  0
 23 21  1  0  0  0  0
 23 20  1  0  0  0  0
 23 19  1  1  0  0  0
 24 20  1  0  0  0  0
 25 28  1  1  0  0  0
 25 21  1  0  0  0  0
 26 25  1  0  0  0  0
 27 24  1  0  0  0  0
 28 29  1  0  0  0  0
 29 31  1  0  0  0  0
 29 30  2  0  0  0  0
 31 34  1  6  0  0  0
 31 30  1  0  0  0  0
 32 34  2  0  0  0  0
 33 34  1  0  0  0  0
 35 13  1  0  0  0  0
 36 37  1  0  0  0  0
 36 39  1  0  0  0  0
 37 43  1  6  0  0  0
 37 41  1  0  0  0  0
 38 40  1  0  0  0  0
 39 40  1  0  0  0  0
 40 35  1  1  0  0  0
 41 38  1  0  0  0  0
 42 43  1  0  0  0  0
M  END
>  <MODEL>
5

>  <REMARK>
 VINA RESULT:      -8.3      3.076      6.140
  Name = 
  9 active torsions:
  status: ('A' for Active; 'I' for Inactive)
    1  A    between atoms: C_1  and  C_34
    2  A    between atoms: C_1  and  C_35
    3  A    between atoms: C_2  and  C_13
    4  A    between atoms: N_6  and  S_17
    5  A    between atoms: C_11  and  O_14
    6  A    between atoms: C_12  and  S_17
    7  A    between atoms: O_14  and  C_22
    8  A    between atoms: C_19  and  C_37
    9  A    between atoms: C_31  and  C_40
                            x       y       z     vdW  Elec       q    Type
                         _______ _______ _______ _____ _____    ______ ____

>  <TORSDO>
F 9

$$$$
=
 OpenBabel11052416343D

 43 49  0  0  1  0  0  0  0  0999 V2000
  187.5660  177.5830  146.6660 C   0  0  1  0  0  3  0  0  0  0  0  0
  183.9290  178.4320  143.4440 C   0  0  1  0  0  3  0  0  0  0  0  0
  184.9590  179.3400  140.8340 C   0  0  2  0  0  3  0  0  0  0  0  0
  185.6060  178.6000  145.7010 C   0  0  0  0  0  0  0  0  0  0  0  0
  187.7230  176.6790  145.4250 C   0  0  0  0  0  2  0  0  0  0  0  0
  188.5480  178.6540  146.6180 N   0  0  0  0  0  1  0  0  0  0  0  0
  186.2910  178.4850  144.3600 C   0  0  1  0  0  3  0  0  0  0  0  0
  186.2170  178.1510  146.7540 N   0  0  0  0  0  0  0  0  0  0  0  0
  186.8180  177.0560  144.2310 C   0  0  0  0  0  2  0  0  0  0  0  0
  185.8520  178.5960  141.8220 C   0  0  0  0  0  2  0  0  0  0  0  0
  185.3590  178.9290  143.2250 C   0  0  1  0  0  3  0  0  0  0  0  0
  183.4380  178.9670  144.7590 C   0  0  0  0  0  3  0  0  0  0  0  0
  183.0020  178.7590  142.2890 C   0  0  0  0  0  0  0  0  0  0  0  0
  183.4910  179.0770  141.0740 C   0  0  0  0  0  3  0  0  0  0  0  0
  184.2290  179.0000  145.7920 N   0  0  0  0  0  0  0  0  0  0  0  0
  185.3570  179.0500  139.4260 C   0  0  0  0  0  0  0  0  0  0  0  0
  186.5830  178.3600  139.1830 N   0  0  0  0  0  2  0  0  0  0  0  0
  184.6040  179.3740  138.4670 O   0  0  0  0  0  0  0  0  0  0  0  0
  187.1120  177.9020  137.5610 S   0  0  0  0  0  0  0  0  0  0  0  0
  188.9960  175.8970  137.5230 C   0  0  0  0  0  2  0  0  0  0  0  0
  188.6750  177.1690  139.6760 C   0  0  0  0  0  2  0  0  0  0  0  0
  191.2950  176.4280  139.6700 C   0  0  2  0  0  3  0  0  0  0  0  0
  188.7080  177.2600  138.1520 C   0  0  2  0  0  3  0  0  0  0  0  0
  190.3470  175.3420  137.9520 C   0  0  0  0  0  2  0  0  0  0  0  0
  190.0210  176.9030  140.3860 C   0  0  1  0  0  0  0  0  0  0  0  0
  191.1440  177.8800  140.1320 C   0  0  0  0  0  2  0  0  0  0  0  0
  191.2090  176.3960  138.2690 O   0  0  0  0  0  0  0  0  0  0  0  0
  189.9490  176.4660  141.7350 O   0  0  0  0  0  0  0  0  0  0  0  0
  190.5210  177.2040  142.7680 C   0  0  0  0  0  0  0  0  0  0  0  0
  190.4410  178.2130  143.7510 N   0  0  0  0  0  0  0  0  0  0  0  0
  191.5760  177.4720  143.5860 C   0  0  1  0  0  3  0  0  0  0  0  0
  192.0170  175.2220  144.3420 N   0  0  0  0  0  2  0  0  0  0  0  0
  191.6050  176.8030  146.0960 C   0  0  0  0  0  1  0  0  0  0  0  0
  191.6750  176.4190  144.6530 C   0  0  0  0  0  0  0  0  0  0  0  0
  181.5420  178.4510  142.4050 C   0  0  0  0  0  2  0  0  0  0  0  0
  178.9320  177.2320  139.9080 C   0  0  0  0  0  2  0  0  0  0  0  0
  179.6370  175.8820  139.7130 C   0  0  2  0  0  3  0  0  0  0  0  0
  181.7290  177.2370  140.2190 C   0  0  0  0  0  2  0  0  0  0  0  0
  179.4400  177.9480  141.1550 C   0  0  0  0  0  2  0  0  0  0  0  0
  180.9330  178.2750  141.0250 C   0  0  1  0  0  3  0  0  0  0  0  0
  181.0730  175.8560  140.2650 C   0  0  0  0  0  2  0  0  0  0  0  0
  179.2750  174.1850  138.0720 O   0  0  0  0  0  1  0  0  0  0  0  0
  179.6260  175.5270  138.2370 C   0  0  0  0  0  2  0  0  0  0  0  0
  1  6  1  6  0  0  0
  1  8  1  0  0  0  0
  2 12  1  1  0  0  0
  3 16  1  6  0  0  0
  3 14  1  0  0  0  0
  3 10  1  0  0  0  0
  4 15  1  0  0  0  0
  4  8  2  0  0  0  0
  5  1  1  0  0  0  0
  7  9  1  6  0  0  0
  7  4  1  0  0  0  0
  9  5  1  0  0  0  0
 11 10  1  6  0  0  0
 11  2  1  0  0  0  0
 11  7  1  0  0  0  0
 12 15  2  0  0  0  0
 13 35  1  0  0  0  0
 13  2  1  0  0  0  0
 14 13  2  0  0  0  0
 17 16  1  0  0  0  0
 18 16  2  0  0  0  0
 19 17  1  0  0  0  0
 20 24  1  0  0  0  0
 20 23  1  0  0  0  0
 21 25  1  0  0  0  0
 22 26  1  6  0  0  0
 22 25  1  0  0  0  0
 23 19  1  6  0  0  0
 23 21  1  0  0  0  0
 24 27  1  0  0  0  0
 25 28  1  1  0  0  0
 26 25  1  0  0  0  0
 27 22  1  0  0  0  0
 28 29  1  0  0  0  0
 29 31  1  0  0  0  0
 29 30  2  0  0  0  0
 31 30  1  0  0  0  0
 31 34  1  1  0  0  0
 32 34  2  0  0  0  0
 34 33  1  0  0  0  0
 36 39  1  0  0  0  0
 37 43  1  6  0  0  0
 37 36  1  0  0  0  0
 37 41  1  0  0  0  0
 38 41  1  0  0  0  0
 38 40  1  0  0  0  0
 40 39  1  0  0  0  0
 40 35  1  1  0  0  0
 42 43  1  0  0  0  0
M  END
>  <MODEL>
6

>  <REMARK>
 VINA RESULT:      -8.3      1.458      1.987
  Name = 
  9 active torsions:
  status: ('A' for Active; 'I' for Inactive)
    1  A    between atoms: C_1  and  C_34
    2  A    between atoms: C_1  and  C_35
    3  A    between atoms: C_2  and  C_13
    4  A    between atoms: N_6  and  S_17
    5  A    between atoms: C_11  and  O_14
    6  A    between atoms: C_12  and  S_17
    7  A    between atoms: O_14  and  C_22
    8  A    between atoms: C_19  and  C_37
    9  A    between atoms: C_31  and  C_40
                            x       y       z     vdW  Elec       q    Type
                         _______ _______ _______ _____ _____    ______ ____

>  <TORSDO>
F 9

$$$$
=
 OpenBabel11052416343D

 43 49  0  0  1  0  0  0  0  0999 V2000
  179.9170  179.3400  140.1290 C   0  0  1  0  0  3  0  0  0  0  0  0
  183.7820  179.0470  143.1800 C   0  0  1  0  0  3  0  0  0  0  0  0
  186.1770  177.9830  141.8260 C   0  0  2  0  0  3  0  0  0  0  0  0
  181.2570  178.6330  142.0030 C   0  0  0  0  0  0  0  0  0  0  0  0
  181.0840  180.2050  139.6060 C   0  0  0  0  0  2  0  0  0  0  0  0
  179.8080  178.1310  139.3300 N   0  0  0  0  0  1  0  0  0  0  0  0
  182.4430  178.6360  141.0680 C   0  0  1  0  0  3  0  0  0  0  0  0
  180.0980  178.9860  141.5410 N   0  0  0  0  0  0  0  0  0  0  0  0
  182.4350  179.9670  140.3160 C   0  0  0  0  0  2  0  0  0  0  0  0
  185.0200  178.5840  141.0330 C   0  0  0  0  0  2  0  0  0  0  0  0
  183.7430  178.3360  141.8260 C   0  0  1  0  0  3  0  0  0  0  0  0
  182.5960  178.6000  143.9850 C   0  0  0  0  0  3  0  0  0  0  0  0
  185.0990  178.8630  143.9110 C   0  0  0  0  0  0  0  0  0  0  0  0
  186.2080  178.4680  143.2550 C   0  0  0  0  0  3  0  0  0  0  0  0
  181.4350  178.4500  143.4170 N   0  0  0  0  0  0  0  0  0  0  0  0
  187.4780  178.2030  141.1300 C   0  0  0  0  0  0  0  0  0  0  0  0
  187.4960  178.2660  139.7050 N   0  0  0  0  0  2  0  0  0  0  0  0
  188.5380  178.3700  141.7920 O   0  0  0  0  0  0  0  0  0  0  0  0
  188.9690  178.5960  138.7850 S   0  0  0  0  0  0  0  0  0  0  0  0
  189.2200  177.8470  136.1500 C   0  0  0  0  0  2  0  0  0  0  0  0
  186.9940  177.4730  137.2710 C   0  0  0  0  0  2  0  0  0  0  0  0
  187.2000  175.4880  135.4200 C   0  0  2  0  0  3  0  0  0  0  0  0
  188.5100  177.4540  137.4460 C   0  0  2  0  0  3  0  0  0  0  0  0
  188.9050  176.8870  135.0110 C   0  0  0  0  0  2  0  0  0  0  0  0
  186.3840  176.3750  136.3710 C   0  0  1  0  0  0  0  0  0  0  0  0
  186.6620  174.9390  136.7440 C   0  0  0  0  0  2  0  0  0  0  0  0
  188.5940  175.6260  135.5300 O   0  0  0  0  0  0  0  0  0  0  0  0
  185.0550  176.5930  135.9210 O   0  0  0  0  0  0  0  0  0  0  0  0
  184.0710  177.0850  136.7740 C   0  0  0  0  0  0  0  0  0  0  0  0
  182.9240  177.8740  137.0050 N   0  0  0  0  0  0  0  0  0  0  0  0
  183.4980  177.1480  138.0090 C   0  0  1  0  0  3  0  0  0  0  0  0
  182.3450  175.6020  139.4620 N   0  0  0  0  0  2  0  0  0  0  0  0
  182.1480  175.1130  137.1240 C   0  0  0  0  0  1  0  0  0  0  0  0
  182.7100  175.8960  138.2680 C   0  0  0  0  0  0  0  0  0  0  0  0
  185.2500  179.3920  145.3030 C   0  0  0  0  0  2  0  0  0  0  0  0
  187.5310  178.0970  148.0680 C   0  0  0  0  0  2  0  0  0  0  0  0
  188.7040  177.8740  147.1010 C   0  0  2  0  0  3  0  0  0  0  0  0
  186.8470  177.4630  145.4130 C   0  0  0  0  0  2  0  0  0  0  0  0
  186.4640  178.9910  147.4470 C   0  0  0  0  0  2  0  0  0  0  0  0
  185.8560  178.3310  146.2030 C   0  0  1  0  0  3  0  0  0  0  0  0
  188.2930  177.9190  145.6200 C   0  0  0  0  0  2  0  0  0  0  0  0
  190.7540  176.6590  147.2640 O   0  0  0  0  0  1  0  0  0  0  0  0
  189.3720  176.5510  147.4300 C   0  0  0  0  0  2  0  0  0  0  0  0
  1  6  1  6  0  0  0
  1  8  1  0  0  0  0
  2 13  1  0  0  0  0
  2 12  1  1  0  0  0
  3 16  1  6  0  0  0
  3 14  1  0  0  0  0
  4 15  1  0  0  0  0
  5  1  1  0  0  0  0
  5  9  1  0  0  0  0
  7  9  1  1  0  0  0
  7 11  1  0  0  0  0
  7  4  1  0  0  0  0
  8  4  2  0  0  0  0
 10  3  1  0  0  0  0
 11 10  1  6  0  0  0
 11  2  1  0  0  0  0
 13 35  1  0  0  0  0
 14 13  2  0  0  0  0
 15 12  2  0  0  0  0
 16 18  2  0  0  0  0
 17 16  1  0  0  0  0
 19 17  1  0  0  0  0
 20 23  1  0  0  0  0
 21 23  1  0  0  0  0
 22 27  1  0  0  0  0
 22 25  1  0  0  0  0
 22 26  1  1  0  0  0
 23 19  1  1  0  0  0
 24 27  1  0  0  0  0
 24 20  1  0  0  0  0
 25 28  1  6  0  0  0
 25 26  1  0  0  0  0
 25 21  1  0  0  0  0
 28 29  1  0  0  0  0
 29 30  2  0  0  0  0
 29 31  1  0  0  0  0
 30 31  1  0  0  0  0
 31 34  1  6  0  0  0
 33 34  1  0  0  0  0
 34 32  2  0  0  0  0
 37 43  1  1  0  0  0
 37 36  1  0  0  0  0
 38 41  1  0  0  0  0
 38 40  1  0  0  0  0
 39 36  1  0  0  0  0
 40 35  1  6  0  0  0
 40 39  1  0  0  0  0
 41 37  1  0  0  0  0
 42 43  1  0  0  0  0
M  END
>  <MODEL>
7

>  <REMARK>
 VINA RESULT:      -8.2      3.009      7.991
  Name = 
  9 active torsions:
  status: ('A' for Active; 'I' for Inactive)
    1  A    between atoms: C_1  and  C_34
    2  A    between atoms: C_1  and  C_35
    3  A    between atoms: C_2  and  C_13
    4  A    between atoms: N_6  and  S_17
    5  A    between atoms: C_11  and  O_14
    6  A    between atoms: C_12  and  S_17
    7  A    between atoms: O_14  and  C_22
    8  A    between atoms: C_19  and  C_37
    9  A    between atoms: C_31  and  C_40
                            x       y       z     vdW  Elec       q    Type
                         _______ _______ _______ _____ _____    ______ ____

>  <TORSDO>
F 9

$$$$
=
 OpenBabel11052416343D

 43 49  0  0  1  0  0  0  0  0999 V2000
  180.6590  179.6930  139.4260 C   0  0  1  0  0  3  0  0  0  0  0  0
  185.3070  178.9790  140.9170 C   0  0  1  0  0  3  0  0  0  0  0  0
  186.9940  177.8650  138.7680 C   0  0  2  0  0  3  0  0  0  0  0  0
  182.5060  178.7890  140.6830 C   0  0  0  0  0  0  0  0  0  0  0  0
  181.6350  180.5200  138.5630 C   0  0  0  0  0  2  0  0  0  0  0  0
  180.1870  178.5460  138.6680 N   0  0  0  0  0  1  0  0  0  0  0  0
  183.2920  178.7830  139.3920 C   0  0  1  0  0  3  0  0  0  0  0  0
  181.2900  179.2380  140.6700 N   0  0  0  0  0  0  0  0  0  0  0  0
  183.1260  180.1580  138.7450 C   0  0  0  0  0  2  0  0  0  0  0  0
  185.6840  178.5830  138.4550 C   0  0  0  0  0  2  0  0  0  0  0  0
  184.7470  178.3600  139.6340 C   0  0  1  0  0  3  0  0  0  0  0  0
  184.4420  178.5500  142.0670 C   0  0  0  0  0  3  0  0  0  0  0  0
  186.7770  178.6710  141.1330 C   0  0  0  0  0  0  0  0  0  0  0  0
  187.5560  178.2550  140.1140 C   0  0  0  0  0  3  0  0  0  0  0  0
  183.1490  178.5050  141.9360 N   0  0  0  0  0  0  0  0  0  0  0  0
  187.9860  178.0540  137.6700 C   0  0  0  0  0  0  0  0  0  0  0  0
  187.8630  177.2660  136.4870 N   0  0  0  0  0  2  0  0  0  0  0  0
  188.8950  178.9230  137.7700 O   0  0  0  0  0  0  0  0  0  0  0  0
  188.9390  177.4610  135.0970 S   0  0  0  0  0  0  0  0  0  0  0  0
  188.3660  174.8100  135.5590 C   0  0  0  0  0  2  0  0  0  0  0  0
  190.6630  175.6420  136.1790 C   0  0  0  0  0  2  0  0  0  0  0  0
  191.0110  173.0280  135.5040 C   0  0  2  0  0  3  0  0  0  0  0  0
  189.5170  175.7390  135.1740 C   0  0  2  0  0  3  0  0  0  0  0  0
  188.7920  173.3500  135.5870 C   0  0  0  0  0  2  0  0  0  0  0  0
  191.4670  174.3230  136.1920 C   0  0  1  0  0  0  0  0  0  0  0  0
  192.1180  173.8950  134.8990 C   0  0  0  0  0  2  0  0  0  0  0  0
  189.8620  173.1540  134.7070 O   0  0  0  0  0  0  0  0  0  0  0  0
  192.2770  174.0870  137.3350 O   0  0  0  0  0  0  0  0  0  0  0  0
  193.4550  174.7970  137.5490 C   0  0  0  0  0  0  0  0  0  0  0  0
  194.1300  175.9730  137.9360 N   0  0  0  0  0  0  0  0  0  0  0  0
  194.8160  174.8590  137.5470 C   0  0  1  0  0  3  0  0  0  0  0  0
  195.4280  172.8510  138.7410 N   0  0  0  0  0  2  0  0  0  0  0  0
  196.0340  174.8930  139.8410 C   0  0  0  0  0  1  0  0  0  0  0  0
  195.3590  174.1320  138.7450 C   0  0  0  0  0  0  0  0  0  0  0  0
  187.4410  179.0990  142.4030 C   0  0  0  0  0  2  0  0  0  0  0  0
  188.8120  177.0810  145.3320 C   0  0  0  0  0  2  0  0  0  0  0  0
  190.1740  177.7860  145.2800 C   0  0  2  0  0  3  0  0  0  0  0  0
  189.6480  177.9790  142.7990 C   0  0  0  0  0  2  0  0  0  0  0  0
  187.7590  177.8490  144.5410 C   0  0  0  0  0  2  0  0  0  0  0  0
  188.1350  177.9170  143.0550 C   0  0  1  0  0  3  0  0  0  0  0  0
  190.4020  178.5850  143.9850 C   0  0  0  0  0  2  0  0  0  0  0  0
  191.9820  177.0270  146.6450 O   0  0  0  0  0  1  0  0  0  0  0  0
  191.2730  176.7560  145.4720 C   0  0  0  0  0  2  0  0  0  0  0  0
  1  6  1  6  0  0  0
  1  8  1  0  0  0  0
  2 13  1  0  0  0  0
  2 12  1  1  0  0  0
  3 16  1  6  0  0  0
  3 14  1  0  0  0  0
  4 15  1  0  0  0  0
  5  9  1  0  0  0  0
  5  1  1  0  0  0  0
  7  9  1  1  0  0  0
  7 11  1  0  0  0  0
  7  4  1  0  0  0  0
  8  4  2  0  0  0  0
 10  3  1  0  0  0  0
 11 10  1  6  0  0  0
 11  2  1  0  0  0  0
 13 35  1  0  0  0  0
 14 13  2  0  0  0  0
 15 12  2  0  0  0  0
 16 18  2  0  0  0  0
 17 16  1  0  0  0  0
 19 17  1  0  0  0  0
 20 24  1  0  0  0  0
 21 25  1  0  0  0  0
 22 26  1  6  0  0  0
 22 25  1  0  0  0  0
 23 19  1  1  0  0  0
 23 20  1  0  0  0  0
 23 21  1  0  0  0  0
 25 28  1  1  0  0  0
 26 25  1  0  0  0  0
 27 22  1  0  0  0  0
 27 24  1  0  0  0  0
 28 29  1  0  0  0  0
 29 30  2  0  0  0  0
 31 29  1  0  0  0  0
 31 30  1  0  0  0  0
 31 34  1  1  0  0  0
 32 34  2  0  0  0  0
 34 33  1  0  0  0  0
 37 36  1  0  0  0  0
 37 43  1  6  0  0  0
 38 40  1  0  0  0  0
 38 41  1  0  0  0  0
 39 36  1  0  0  0  0
 40 35  1  1  0  0  0
 40 39  1  0  0  0  0
 41 37  1  0  0  0  0
 43 42  1  0  0  0  0
M  END
>  <MODEL>
8

>  <REMARK>
 VINA RESULT:      -8.2      3.680      7.709
  Name = 
  9 active torsions:
  status: ('A' for Active; 'I' for Inactive)
    1  A    between atoms: C_1  and  C_34
    2  A    between atoms: C_1  and  C_35
    3  A    between atoms: C_2  and  C_13
    4  A    between atoms: N_6  and  S_17
    5  A    between atoms: C_11  and  O_14
    6  A    between atoms: C_12  and  S_17
    7  A    between atoms: O_14  and  C_22
    8  A    between atoms: C_19  and  C_37
    9  A    between atoms: C_31  and  C_40
                            x       y       z     vdW  Elec       q    Type
                         _______ _______ _______ _____ _____    ______ ____

>  <TORSDO>
F 9

$$$$
=
 OpenBabel11052416343D

 43 49  0  0  1  0  0  0  0  0999 V2000
  191.1310  176.4390  145.6710 C   0  0  1  0  0  3  0  0  0  0  0  0
  187.1070  177.4920  143.0190 C   0  0  1  0  0  3  0  0  0  0  0  0
  187.7840  178.7880  140.4570 C   0  0  2  0  0  3  0  0  0  0  0  0
  189.0300  177.4590  145.0770 C   0  0  0  0  0  0  0  0  0  0  0  0
  191.1790  175.7140  144.3090 C   0  0  0  0  0  2  0  0  0  0  0  0
  192.0550  177.5610  145.6600 N   0  0  0  0  0  1  0  0  0  0  0  0
  189.5570  177.5590  143.6650 C   0  0  1  0  0  3  0  0  0  0  0  0
  189.7790  176.9130  145.9850 N   0  0  0  0  0  0  0  0  0  0  0  0
  190.1240  176.1910  143.2860 C   0  0  0  0  0  2  0  0  0  0  0  0
  188.8180  177.9740  141.2300 C   0  0  0  0  0  2  0  0  0  0  0  0
  188.4800  178.0930  142.7110 C   0  0  1  0  0  3  0  0  0  0  0  0
  186.7530  177.8220  144.4410 C   0  0  0  0  0  3  0  0  0  0  0  0
  186.0380  177.9120  142.0290 C   0  0  0  0  0  0  0  0  0  0  0  0
  186.3680  178.4130  140.8220 C   0  0  0  0  0  3  0  0  0  0  0  0
  187.6580  177.7650  145.3740 N   0  0  0  0  0  0  0  0  0  0  0  0
  188.0260  178.7070  138.9880 C   0  0  0  0  0  0  0  0  0  0  0  0
  187.0430  178.0860  138.1600 N   0  0  0  0  0  2  0  0  0  0  0  0
  189.0630  179.2150  138.4800 O   0  0  0  0  0  0  0  0  0  0  0  0
  187.1950  178.0030  136.4010 S   0  0  0  0  0  0  0  0  0  0  0  0
  186.2460  175.5550  137.2220 C   0  0  0  0  0  2  0  0  0  0  0  0
  188.7380  175.8200  136.9540 C   0  0  0  0  0  2  0  0  0  0  0  0
  188.2360  173.2040  136.3920 C   0  0  2  0  0  3  0  0  0  0  0  0
  187.3650  176.1930  136.3990 C   0  0  2  0  0  3  0  0  0  0  0  0
  186.3190  174.0350  137.2080 C   0  0  0  0  0  2  0  0  0  0  0  0
  189.1810  174.3500  136.7860 C   0  0  1  0  0  0  0  0  0  0  0  0
  189.2240  173.7950  135.3830 C   0  0  0  0  0  2  0  0  0  0  0  0
  186.9390  173.6040  136.0300 O   0  0  0  0  0  0  0  0  0  0  0  0
  190.2660  173.9200  137.5950 O   0  0  0  0  0  0  0  0  0  0  0  0
  191.5850  174.1900  137.2440 C   0  0  0  0  0  0  0  0  0  0  0  0
  192.5960  174.3240  136.2690 N   0  0  0  0  0  0  0  0  0  0  0  0
  192.8560  174.5330  137.5930 C   0  0  1  0  0  3  0  0  0  0  0  0
  193.7690  176.7460  137.2740 N   0  0  0  0  0  2  0  0  0  0  0  0
  191.8610  176.6500  138.7220 C   0  0  0  0  0  1  0  0  0  0  0  0
  192.9230  176.0040  137.8900 C   0  0  0  0  0  0  0  0  0  0  0  0
  184.6160  177.5090  142.2630 C   0  0  0  0  0  2  0  0  0  0  0  0
  181.7070  179.5510  143.6400 C   0  0  0  0  0  2  0  0  0  0  0  0
  180.7360  179.0330  142.5690 C   0  0  2  0  0  3  0  0  0  0  0  0
  182.8420  178.8890  141.1520 C   0  0  0  0  0  2  0  0  0  0  0  0
  182.9620  178.6890  143.7140 C   0  0  0  0  0  2  0  0  0  0  0  0
  183.7380  178.7410  142.3920 C   0  0  1  0  0  3  0  0  0  0  0  0
  181.4380  178.3320  141.3940 C   0  0  0  0  0  2  0  0  0  0  0  0
  179.4390  179.9270  140.7740 O   0  0  0  0  0  1  0  0  0  0  0  0
  179.8860  180.1870  142.0710 C   0  0  0  0  0  2  0  0  0  0  0  0
  1  6  1  6  0  0  0
  1  8  1  0  0  0  0
  2 12  1  1  0  0  0
  3 16  1  6  0  0  0
  3 14  1  0  0  0  0
  3 10  1  0  0  0  0
  4 15  1  0  0  0  0
  4  8  2  0  0  0  0
  5  1  1  0  0  0  0
  7  9  1  6  0  0  0
  7  4  1  0  0  0  0
  9  5  1  0  0  0  0
 11 10  1  6  0  0  0
 11  2  1  0  0  0  0
 11  7  1  0  0  0  0
 12 15  2  0  0  0  0
 13 35  1  0  0  0  0
 13  2  1  0  0  0  0
 14 13  2  0  0  0  0
 17 16  1  0  0  0  0
 18 16  2  0  0  0  0
 19 17  1  0  0  0  0
 22 26  1  6  0  0  0
 22 25  1  0  0  0  0
 23 19  1  1  0  0  0
 23 21  1  0  0  0  0
 23 20  1  0  0  0  0
 24 20  1  0  0  0  0
 25 21  1  0  0  0  0
 25 28  1  1  0  0  0
 26 25  1  0  0  0  0
 27 22  1  0  0  0  0
 27 24  1  0  0  0  0
 29 31  1  0  0  0  0
 29 28  1  0  0  0  0
 30 29  2  0  0  0  0
 30 31  1  0  0  0  0
 31 34  1  6  0  0  0
 32 34  2  0  0  0  0
 34 33  1  0  0  0  0
 36 39  1  0  0  0  0
 37 43  1  6  0  0  0
 37 36  1  0  0  0  0
 38 41  1  0  0  0  0
 38 40  1  0  0  0  0
 40 35  1  6  0  0  0
 40 39  1  0  0  0  0
 41 37  1  0  0  0  0
 42 43  1  0  0  0  0
M  END
>  <MODEL>
9

>  <REMARK>
 VINA RESULT:      -8.1      3.219      6.016
  Name = 
  9 active torsions:
  status: ('A' for Active; 'I' for Inactive)
    1  A    between atoms: C_1  and  C_34
    2  A    between atoms: C_1  and  C_35
    3  A    between atoms: C_2  and  C_13
    4  A    between atoms: N_6  and  S_17
    5  A    between atoms: C_11  and  O_14
    6  A    between atoms: C_12  and  S_17
    7  A    between atoms: O_14  and  C_22
    8  A    between atoms: C_19  and  C_37
    9  A    between atoms: C_31  and  C_40
                            x       y       z     vdW  Elec       q    Type
                         _______ _______ _______ _____ _____    ______ ____

>  <TORSDO>
F 9

$$$$
