=
 OpenBabel11052415223D

 37 41  0  0  1  0  0  0  0  0999 V2000
  184.0330  179.0090  145.0020 C   0  0  0  0  0  3  0  0  0  0  0  0
  181.8700  178.1420  140.6270 C   0  0  2  0  0  3  0  0  0  0  0  0
  184.4840  175.7030  137.4270 S   0  0  0  0  0  0  0  0  0  0  0  0
  182.2960  179.0120  143.0700 C   0  0  0  0  0  0  0  0  0  0  0  0
  182.7260  177.5700  139.5600 N   0  0  2  0  0  0  0  0  0  0  0  0
  182.7690  178.4710  141.7670 C   0  0  0  0  0  0  0  0  0  0  0  0
  182.5950  176.1170  139.4390 C   0  0  0  0  0  2  0  0  0  0  0  0
  180.9100  179.5450  143.2330 C   0  0  0  0  0  2  0  0  0  0  0  0
  184.0340  178.2980  141.3900 C   0  0  0  0  0  0  0  0  0  0  0  0
  185.4610  177.6680  143.3550 C   0  0  0  0  0  2  0  0  0  0  0  0
  179.5690  178.1160  141.6640 C   0  0  0  0  0  2  0  0  0  0  0  0
  179.8750  178.4360  143.1200 C   0  0  0  0  0  2  0  0  0  0  0  0
  185.2690  178.6300  142.1850 C   0  0  0  0  0  2  0  0  0  0  0  0
  184.5480  177.4800  136.9760 C   0  0  0  0  0  2  0  0  0  0  0  0
  180.6700  177.2740  141.0360 C   0  0  0  0  0  2  0  0  0  0  0  0
  184.1050  177.8230  139.9860 C   0  0  2  0  0  3  0  0  0  0  0  0
  183.1060  179.0430  144.0870 C   0  0  0  0  0  0  0  0  0  0  0  0
  182.7420  175.6610  137.9910 C   0  0  1  0  0  3  0  0  0  0  0  0
  185.3790  178.4010  144.7030 C   0  0  0  0  0  2  0  0  0  0  0  0
  185.4600  178.3160  137.8890 C   0  0  1  0  0  3  0  0  0  0  0  0
  184.7090  178.8980  139.0900 C   0  0  0  0  0  2  0  0  0  0  0  0
  186.7890  177.6360  138.2670 C   0  0  1  0  0  3  0  0  0  0  0  0
  188.6370  178.8270  137.0810 C   0  0  0  0  0  1  0  0  0  0  0  0
  187.7300  177.6120  137.0690 C   0  0  0  0  0  2  0  0  0  0  0  0
  187.4600  178.3730  139.4220 C   0  0  0  0  0  2  0  0  0  0  0  0
  188.2540  177.4910  140.1540 O   0  0  0  0  0  0  0  0  0  0  0  0
  188.6390  178.2190  141.2790 C   0  0  0  0  0  2  0  0  0  0  0  0
  188.9810  176.5500  143.0450 C   0  0  0  0  0  2  0  0  0  0  0  0
  189.5130  177.3830  142.1550 C   0  0  0  0  0  3  0  0  0  0  0  0
  181.7580  176.3650  137.0500 C   0  0  0  0  0  2  0  0  0  0  0  0
  180.5300  175.4370  135.0370 C   0  0  0  0  0  2  0  0  0  0  0  0
  180.6330  175.4560  136.5580 C   0  0  1  0  0  3  0  0  0  0  0  0
  180.7660  174.0370  137.1240 C   0  0  0  0  0  2  0  0  0  0  0  0
  179.7590  171.4170  137.1010 Cl  0  0  0  0  0  0  0  0  0  0  0  0
  179.2440  173.3040  135.2800 C   0  0  0  0  0  3  0  0  0  0  0  0
  179.8580  173.0390  136.4460 C   0  0  0  0  0  0  0  0  0  0  0  0
  179.2760  174.6660  134.6410 C   0  0  0  0  0  2  0  0  0  0  0  0
  2 15  1  1  0  0  0
  2  6  1  0  0  0  0
  3 18  1  0  0  0  0
  4  8  1  0  0  0  0
  4 17  2  0  0  0  0
  5  7  1  1  0  0  0
  5 16  1  0  0  0  0
  5  2  1  0  0  0  0
  6  4  1  0  0  0  0
  9  6  2  0  0  0  0
  9 13  1  0  0  0  0
 10 19  1  0  0  0  0
 11 12  1  0  0  0  0
 12  8  1  0  0  0  0
 13 10  1  0  0  0  0
 14  3  1  0  0  0  0
 14 20  1  0  0  0  0
 15 11  1  0  0  0  0
 16 21  1  6  0  0  0
 16  9  1  0  0  0  0
 17  1  2  0  0  0  0
 18 30  1  6  0  0  0
 18  7  1  0  0  0  0
 19  1  1  0  0  0  0
 20 22  1  1  0  0  0
 20 21  1  0  0  0  0
 22 24  1  6  0  0  0
 22 25  1  0  0  0  0
 24 23  1  0  0  0  0
 25 26  1  0  0  0  0
 26 27  1  0  0  0  0
 27 29  1  0  0  0  0
 29 28  2  0  0  0  0
 31 32  1  0  0  0  0
 32 30  1  6  0  0  0
 32 33  1  0  0  0  0
 35 36  2  0  0  0  0
 36 34  1  0  0  0  0
 36 33  1  0  0  0  0
 37 31  1  0  0  0  0
 37 35  1  0  0  0  0
M  END
>  <MODEL>
1

>  <REMARK>
 VINA RESULT:      -7.0      0.000      0.000
  Name = 
  8 active torsions:
  status: ('A' for Active; 'I' for Inactive)
    1  A    between atoms: O_1  and  C_5
    2  A    between atoms: O_1  and  C_17
    3  A    between atoms: C_5  and  C_23
    4  A    between atoms: C_6  and  C_37
    5  A    between atoms: C_17  and  C_26
    6  A    between atoms: C_26  and  C_33
    7  A    between atoms: C_26  and  C_34
    8  A    between atoms: C_31  and  C_37
                            x       y       z     vdW  Elec       q    Type
                         _______ _______ _______ _____ _____    ______ ____

>  <TORSDO>
F 8

$$$$
=
 OpenBabel11052415223D

 37 41  0  0  1  0  0  0  0  0999 V2000
  192.3530  177.2520  140.1300 C   0  0  0  0  0  3  0  0  0  0  0  0
  187.4040  177.4170  140.3430 C   0  0  2  0  0  3  0  0  0  0  0  0
  185.5280  179.5300  144.2210 S   0  0  0  0  0  0  0  0  0  0  0  0
  189.8500  176.9050  139.5300 C   0  0  0  0  0  0  0  0  0  0  0  0
  186.8050  177.8830  141.6170 N   0  0  2  0  0  0  0  0  0  0  0  0
  188.8690  177.2890  140.5800 C   0  0  0  0  0  0  0  0  0  0  0  0
  186.4320  179.2980  141.5910 C   0  0  0  0  0  2  0  0  0  0  0  0
  189.4060  176.3310  138.2230 C   0  0  0  0  0  2  0  0  0  0  0  0
  189.1190  177.4710  141.8740 C   0  0  0  0  0  0  0  0  0  0  0  0
  191.4150  178.4280  142.2000 C   0  0  0  0  0  2  0  0  0  0  0  0
  187.2040  177.4690  137.8270 C   0  0  0  0  0  2  0  0  0  0  0  0
  188.6580  177.3630  137.3930 C   0  0  0  0  0  2  0  0  0  0  0  0
  190.4450  177.3100  142.5710 C   0  0  0  0  0  2  0  0  0  0  0  0
  185.4190  177.7150  144.4550 C   0  0  0  0  0  2  0  0  0  0  0  0
  187.0650  178.2720  139.1120 C   0  0  0  0  0  2  0  0  0  0  0  0
  187.8670  177.7560  142.6180 C   0  0  2  0  0  3  0  0  0  0  0  0
  191.1230  177.0500  139.7530 C   0  0  0  0  0  0  0  0  0  0  0  0
  185.1810  179.5620  142.4230 C   0  0  1  0  0  3  0  0  0  0  0  0
  192.6500  177.8800  141.4670 C   0  0  0  0  0  2  0  0  0  0  0  0
  186.7630  177.0550  144.8010 C   0  0  1  0  0  3  0  0  0  0  0  0
  187.5300  176.6020  143.5540 C   0  0  0  0  0  2  0  0  0  0  0  0
  187.6280  177.8430  145.8010 C   0  0  1  0  0  3  0  0  0  0  0  0
  187.8190  177.9250  148.2910 C   0  0  0  0  0  1  0  0  0  0  0  0
  186.8740  178.0430  147.1100 C   0  0  0  0  0  2  0  0  0  0  0  0
  188.9360  177.1080  146.0780 C   0  0  0  0  0  2  0  0  0  0  0  0
  190.0200  177.9380  145.8000 O   0  0  0  0  0  0  0  0  0  0  0  0
  191.1300  177.0960  145.8570 C   0  0  0  0  0  2  0  0  0  0  0  0
  192.2600  175.7040  147.5320 C   0  0  0  0  0  2  0  0  0  0  0  0
  191.1990  176.4300  147.1910 C   0  0  0  0  0  3  0  0  0  0  0  0
  183.9950  178.6910  141.9940 C   0  0  0  0  0  2  0  0  0  0  0  0
  183.4060  177.2040  140.0290 C   0  0  0  0  0  2  0  0  0  0  0  0
  183.8270  178.5980  140.4790 C   0  0  1  0  0  3  0  0  0  0  0  0
  182.8630  179.6670  139.9510 C   0  0  0  0  0  2  0  0  0  0  0  0
  181.4910  180.6670  137.7160 Cl  0  0  0  0  0  0  0  0  0  0  0  0
  182.6440  178.2630  137.8940 C   0  0  0  0  0  3  0  0  0  0  0  0
  182.4430  179.4350  138.5190 C   0  0  0  0  0  0  0  0  0  0  0  0
  183.4470  177.1470  138.5070 C   0  0  0  0  0  2  0  0  0  0  0  0
  1 19  1  0  0  0  0
  2 15  1  6  0  0  0
  2  6  1  0  0  0  0
  2  5  1  0  0  0  0
  3 14  1  0  0  0  0
  4 17  2  0  0  0  0
  4  6  1  0  0  0  0
  5  7  1  6  0  0  0
  5 16  1  0  0  0  0
  6  9  2  0  0  0  0
  7 18  1  0  0  0  0
  8  4  1  0  0  0  0
  9 13  1  0  0  0  0
  9 16  1  0  0  0  0
 10 13  1  0  0  0  0
 11 15  1  0  0  0  0
 12 11  1  0  0  0  0
 12  8  1  0  0  0  0
 14 20  1  0  0  0  0
 16 21  1  1  0  0  0
 17  1  2  0  0  0  0
 18 30  1  1  0  0  0
 18  3  1  0  0  0  0
 19 10  1  0  0  0  0
 20 22  1  6  0  0  0
 21 20  1  0  0  0  0
 22 25  1  1  0  0  0
 22 24  1  0  0  0  0
 24 23  1  0  0  0  0
 26 27  1  0  0  0  0
 26 25  1  0  0  0  0
 27 29  1  0  0  0  0
 29 28  2  0  0  0  0
 31 32  1  0  0  0  0
 32 30  1  1  0  0  0
 33 32  1  0  0  0  0
 34 36  1  0  0  0  0
 35 37  1  0  0  0  0
 35 36  2  0  0  0  0
 36 33  1  0  0  0  0
 37 31  1  0  0  0  0
M  END
>  <MODEL>
2

>  <REMARK>
 VINA RESULT:      -6.8      3.591      7.296
  Name = 
  8 active torsions:
  status: ('A' for Active; 'I' for Inactive)
    1  A    between atoms: O_1  and  C_5
    2  A    between atoms: O_1  and  C_17
    3  A    between atoms: C_5  and  C_23
    4  A    between atoms: C_6  and  C_37
    5  A    between atoms: C_17  and  C_26
    6  A    between atoms: C_26  and  C_33
    7  A    between atoms: C_26  and  C_34
    8  A    between atoms: C_31  and  C_37
                            x       y       z     vdW  Elec       q    Type
                         _______ _______ _______ _____ _____    ______ ____

>  <TORSDO>
F 8

$$$$
=
 OpenBabel11052415223D

 37 41  0  0  1  0  0  0  0  0999 V2000
  192.1250  175.6290  147.2590 C   0  0  0  0  0  3  0  0  0  0  0  0
  188.1980  178.2510  145.7540 C   0  0  2  0  0  3  0  0  0  0  0  0
  186.7260  177.4520  141.2570 S   0  0  0  0  0  0  0  0  0  0  0  0
  190.1610  177.3300  147.2370 C   0  0  0  0  0  0  0  0  0  0  0  0
  187.8510  178.1680  144.3140 N   0  0  2  0  0  0  0  0  0  0  0  0
  189.4910  177.5340  145.9240 C   0  0  0  0  0  0  0  0  0  0  0  0
  186.7860  177.2030  144.0360 C   0  0  0  0  0  2  0  0  0  0  0  0
  189.7350  178.0850  148.4530 C   0  0  0  0  0  2  0  0  0  0  0  0
  189.9730  177.2110  144.7260 C   0  0  0  0  0  0  0  0  0  0  0  0
  191.3630  175.1270  144.8680 C   0  0  0  0  0  2  0  0  0  0  0  0
  187.2670  178.3800  148.0960 C   0  0  0  0  0  2  0  0  0  0  0  0
  188.3430  177.6670  148.9030 C   0  0  0  0  0  2  0  0  0  0  0  0
  191.3110  176.5880  144.4270 C   0  0  0  0  0  2  0  0  0  0  0  0
  187.6880  179.0130  141.2700 C   0  0  0  0  0  2  0  0  0  0  0  0
  187.1040  177.7610  146.7160 C   0  0  0  0  0  2  0  0  0  0  0  0
  189.0530  177.6560  143.6510 C   0  0  2  0  0  3  0  0  0  0  0  0
  191.1520  176.4920  147.3310 C   0  0  0  0  0  0  0  0  0  0  0  0
  185.9030  177.6630  142.8800 C   0  0  1  0  0  3  0  0  0  0  0  0
  192.4150  174.9100  145.9670 C   0  0  0  0  0  2  0  0  0  0  0  0
  189.2060  178.8010  141.3840 C   0  0  1  0  0  3  0  0  0  0  0  0
  189.6860  178.7790  142.8380 C   0  0  0  0  0  2  0  0  0  0  0  0
  189.7590  177.6410  140.5370 C   0  0  1  0  0  3  0  0  0  0  0  0
  188.9350  176.7980  138.3340 C   0  0  0  0  0  1  0  0  0  0  0  0
  189.6100  177.9510  139.0530 C   0  0  0  0  0  2  0  0  0  0  0  0
  191.2300  177.3940  140.8570 C   0  0  0  0  0  2  0  0  0  0  0  0
  192.0300  177.8490  139.8100 O   0  0  0  0  0  0  0  0  0  0  0  0
  193.0630  176.9160  139.7270 C   0  0  0  0  0  2  0  0  0  0  0  0
  192.3290  175.4970  137.8650 C   0  0  0  0  0  2  0  0  0  0  0  0
  193.1810  176.4070  138.3290 C   0  0  0  0  0  3  0  0  0  0  0  0
  185.3120  179.0580  143.1100 C   0  0  0  0  0  2  0  0  0  0  0  0
  183.6050  178.2860  141.4030 C   0  0  0  0  0  2  0  0  0  0  0  0
  183.8840  179.2050  142.5870 C   0  0  1  0  0  3  0  0  0  0  0  0
  182.8510  179.0030  143.7030 C   0  0  0  0  0  2  0  0  0  0  0  0
  180.1260  178.7970  144.3440 Cl  0  0  0  0  0  0  0  0  0  0  0  0
  181.1720  178.6080  141.8930 C   0  0  0  0  0  3  0  0  0  0  0  0
  181.4400  178.8510  143.1860 C   0  0  0  0  0  0  0  0  0  0  0  0
  182.2360  178.6310  140.8280 C   0  0  0  0  0  2  0  0  0  0  0  0
  1 17  2  0  0  0  0
  2  6  1  0  0  0  0
  2 15  1  1  0  0  0
  3 14  1  0  0  0  0
  3 18  1  0  0  0  0
  4 17  2  0  0  0  0
  4  8  1  0  0  0  0
  5  7  1  1  0  0  0
  5  2  1  0  0  0  0
  6  4  1  0  0  0  0
  8 12  1  0  0  0  0
  9  6  2  0  0  0  0
 10 19  1  0  0  0  0
 11 12  1  0  0  0  0
 13  9  1  0  0  0  0
 13 10  1  0  0  0  0
 14 20  1  0  0  0  0
 15 11  1  0  0  0  0
 16 21  1  1  0  0  0
 16  5  1  0  0  0  0
 16  9  1  0  0  0  0
 18 30  1  1  0  0  0
 18  7  1  0  0  0  0
 19  1  1  0  0  0  0
 20 22  1  1  0  0  0
 20 21  1  0  0  0  0
 22 24  1  6  0  0  0
 22 25  1  0  0  0  0
 23 24  1  0  0  0  0
 26 25  1  0  0  0  0
 27 26  1  0  0  0  0
 28 29  2  0  0  0  0
 29 27  1  0  0  0  0
 31 32  1  0  0  0  0
 32 30  1  1  0  0  0
 32 33  1  0  0  0  0
 35 36  2  0  0  0  0
 36 33  1  0  0  0  0
 36 34  1  0  0  0  0
 37 31  1  0  0  0  0
 37 35  1  0  0  0  0
M  END
>  <MODEL>
3

>  <REMARK>
 VINA RESULT:      -6.6      4.118      7.302
  Name = 
  8 active torsions:
  status: ('A' for Active; 'I' for Inactive)
    1  A    between atoms: O_1  and  C_5
    2  A    between atoms: O_1  and  C_17
    3  A    between atoms: C_5  and  C_23
    4  A    between atoms: C_6  and  C_37
    5  A    between atoms: C_17  and  C_26
    6  A    between atoms: C_26  and  C_33
    7  A    between atoms: C_26  and  C_34
    8  A    between atoms: C_31  and  C_37
                            x       y       z     vdW  Elec       q    Type
                         _______ _______ _______ _____ _____    ______ ____

>  <TORSDO>
F 8

$$$$
=
 OpenBabel11052415223D

 37 41  0  0  1  0  0  0  0  0999 V2000
  179.7700  180.2040  142.5530 C   0  0  0  0  0  3  0  0  0  0  0  0
  184.2160  178.1500  141.7910 C   0  0  2  0  0  3  0  0  0  0  0  0
  185.8100  178.1880  137.2650 S   0  0  0  0  0  0  0  0  0  0  0  0
  182.0180  178.9700  142.9730 C   0  0  0  0  0  0  0  0  0  0  0  0
  184.6370  177.9720  140.3800 N   0  0  2  0  0  0  0  0  0  0  0  0
  182.8020  178.6130  141.7600 C   0  0  0  0  0  0  0  0  0  0  0  0
  185.5170  179.0430  139.9060 C   0  0  0  0  0  2  0  0  0  0  0  0
  182.4970  178.6110  144.3420 C   0  0  0  0  0  2  0  0  0  0  0  0
  182.3490  178.5530  140.5100 C   0  0  0  0  0  0  0  0  0  0  0  0
  180.5830  180.2930  140.1280 C   0  0  0  0  0  2  0  0  0  0  0  0
  184.9940  178.7430  144.1180 C   0  0  0  0  0  2  0  0  0  0  0  0
  183.7500  179.3900  144.7100 C   0  0  0  0  0  2  0  0  0  0  0  0
  180.9410  178.8120  140.0440 C   0  0  0  0  0  2  0  0  0  0  0  0
  185.1630  176.5110  137.6250 C   0  0  0  0  0  2  0  0  0  0  0  0
  185.1290  179.0530  142.6350 C   0  0  0  0  0  2  0  0  0  0  0  0
  183.4080  178.0700  139.5890 C   0  0  2  0  0  3  0  0  0  0  0  0
  180.8820  179.5920  142.8470 C   0  0  0  0  0  0  0  0  0  0  0  0
  186.5470  178.5190  138.9090 C   0  0  1  0  0  3  0  0  0  0  0  0
  179.4370  180.5380  141.1220 C   0  0  0  0  0  2  0  0  0  0  0  0
  183.6280  176.4350  137.6520 C   0  0  1  0  0  3  0  0  0  0  0  0
  183.0560  176.6890  139.0500 C   0  0  0  0  0  2  0  0  0  0  0  0
  182.9240  177.2390  136.5450 C   0  0  1  0  0  3  0  0  0  0  0  0
  182.6730  175.2340  135.0740 C   0  0  0  0  0  1  0  0  0  0  0  0
  183.2330  176.6400  135.1780 C   0  0  0  0  0  2  0  0  0  0  0  0
  181.4140  177.2470  136.7630 C   0  0  0  0  0  2  0  0  0  0  0  0
  180.8220  178.2320  135.9730 O   0  0  0  0  0  0  0  0  0  0  0  0
  181.2110  179.4340  136.5630 C   0  0  0  0  0  2  0  0  0  0  0  0
  180.4880  181.7790  136.5620 C   0  0  0  0  0  2  0  0  0  0  0  0
  180.3080  180.5370  136.1200 C   0  0  0  0  0  3  0  0  0  0  0  0
  187.3750  177.3600  139.4740 C   0  0  0  0  0  2  0  0  0  0  0  0
  188.3510  177.3240  141.8120 C   0  0  0  0  0  2  0  0  0  0  0  0
  188.5180  177.8160  140.3780 C   0  0  1  0  0  3  0  0  0  0  0  0
  189.8840  177.4130  139.8090 C   0  0  0  0  0  2  0  0  0  0  0  0
  192.6560  177.3390  140.2390 Cl  0  0  0  0  0  0  0  0  0  0  0  0
  190.7970  177.7610  142.1100 C   0  0  0  0  0  3  0  0  0  0  0  0
  191.0140  177.5820  140.7970 C   0  0  0  0  0  0  0  0  0  0  0  0
  189.4210  177.9750  142.6800 C   0  0  0  0  0  2  0  0  0  0  0  0
  1 17  2  0  0  0  0
  2 15  1  6  0  0  0
  3 14  1  0  0  0  0
  3 18  1  0  0  0  0
  4  8  1  0  0  0  0
  5  7  1  6  0  0  0
  5  2  1  0  0  0  0
  6  2  1  0  0  0  0
  6  4  1  0  0  0  0
  8 12  1  0  0  0  0
  9  6  2  0  0  0  0
 10 19  1  0  0  0  0
 11 12  1  0  0  0  0
 13 10  1  0  0  0  0
 13  9  1  0  0  0  0
 14 20  1  0  0  0  0
 15 11  1  0  0  0  0
 16 21  1  1  0  0  0
 16  5  1  0  0  0  0
 16  9  1  0  0  0  0
 17  4  2  0  0  0  0
 18 30  1  1  0  0  0
 18  7  1  0  0  0  0
 19  1  1  0  0  0  0
 20 22  1  6  0  0  0
 20 21  1  0  0  0  0
 22 24  1  6  0  0  0
 22 25  1  0  0  0  0
 23 24  1  0  0  0  0
 26 27  1  0  0  0  0
 26 25  1  0  0  0  0
 29 28  2  0  0  0  0
 29 27  1  0  0  0  0
 31 37  1  0  0  0  0
 32 30  1  6  0  0  0
 32 31  1  0  0  0  0
 33 32  1  0  0  0  0
 33 36  1  0  0  0  0
 34 36  1  0  0  0  0
 35 37  1  0  0  0  0
 36 35  2  0  0  0  0
M  END
>  <MODEL>
4

>  <REMARK>
 VINA RESULT:      -6.2      3.340      7.291
  Name = 
  8 active torsions:
  status: ('A' for Active; 'I' for Inactive)
    1  A    between atoms: O_1  and  C_5
    2  A    between atoms: O_1  and  C_17
    3  A    between atoms: C_5  and  C_23
    4  A    between atoms: C_6  and  C_37
    5  A    between atoms: C_17  and  C_26
    6  A    between atoms: C_26  and  C_33
    7  A    between atoms: C_26  and  C_34
    8  A    between atoms: C_31  and  C_37
                            x       y       z     vdW  Elec       q    Type
                         _______ _______ _______ _____ _____    ______ ____

>  <TORSDO>
F 8

$$$$
=
 OpenBabel11052415223D

 37 41  0  0  1  0  0  0  0  0999 V2000
  185.8110  177.0710  135.8310 C   0  0  0  0  0  3  0  0  0  0  0  0
  188.3560  178.3350  139.8920 C   0  0  2  0  0  3  0  0  0  0  0  0
  186.2480  177.3580  144.0910 S   0  0  0  0  0  0  0  0  0  0  0  0
  187.6690  178.0280  137.3750 C   0  0  0  0  0  0  0  0  0  0  0  0
  187.6430  178.2260  141.1880 N   0  0  2  0  0  0  0  0  0  0  0  0
  187.3480  178.0750  138.8260 C   0  0  0  0  0  0  0  0  0  0  0  0
  187.9370  176.9820  141.9010 C   0  0  0  0  0  2  0  0  0  0  0  0
  188.9750  178.5280  136.8490 C   0  0  0  0  0  2  0  0  0  0  0  0
  186.1390  178.0000  139.3780 C   0  0  0  0  0  0  0  0  0  0  0  0
  184.6530  176.4860  138.0370 C   0  0  0  0  0  2  0  0  0  0  0  0
  190.5680  178.0130  138.7200 C   0  0  0  0  0  2  0  0  0  0  0  0
  190.1280  177.6490  137.3100 C   0  0  0  0  0  2  0  0  0  0  0  0
  184.8230  177.8710  138.6570 C   0  0  0  0  0  2  0  0  0  0  0  0
  186.0270  179.1460  143.7460 C   0  0  0  0  0  2  0  0  0  0  0  0
  189.6100  177.4570  139.7630 C   0  0  0  0  0  2  0  0  0  0  0  0
  186.2180  178.1780  140.8490 C   0  0  2  0  0  3  0  0  0  0  0  0
  186.7910  177.5600  136.5360 C   0  0  0  0  0  0  0  0  0  0  0  0
  187.9410  177.1910  143.4120 C   0  0  1  0  0  3  0  0  0  0  0  0
  184.5620  176.5650  136.5050 C   0  0  0  0  0  2  0  0  0  0  0  0
  184.9690  179.4400  142.6710 C   0  0  1  0  0  3  0  0  0  0  0  0
  185.5670  179.4920  141.2610 C   0  0  0  0  0  2  0  0  0  0  0  0
  183.6970  178.5780  142.7660 C   0  0  1  0  0  3  0  0  0  0  0  0
  181.4990  179.2580  143.7410 C   0  0  0  0  0  1  0  0  0  0  0  0
  182.9390  178.8930  144.0500 C   0  0  0  0  0  2  0  0  0  0  0  0
  182.7860  178.8270  141.5680 C   0  0  0  0  0  2  0  0  0  0  0  0
  182.5960  177.6420  140.8570 O   0  0  0  0  0  0  0  0  0  0  0  0
  181.2880  177.7260  140.3810 C   0  0  0  0  0  2  0  0  0  0  0  0
  180.9320  175.4420  139.5580 C   0  0  0  0  0  2  0  0  0  0  0  0
  181.0780  176.7360  139.2850 C   0  0  0  0  0  3  0  0  0  0  0  0
  188.9080  178.2970  143.8500 C   0  0  0  0  0  2  0  0  0  0  0  0
  188.4660  177.6910  146.2700 C   0  0  0  0  0  2  0  0  0  0  0  0
  189.5180  178.0590  145.2300 C   0  0  1  0  0  3  0  0  0  0  0  0
  190.6380  177.0130  145.1790 C   0  0  0  0  0  2  0  0  0  0  0  0
  192.4610  175.4790  146.6630 Cl  0  0  0  0  0  0  0  0  0  0  0  0
  190.3380  176.7680  147.6490 C   0  0  0  0  0  3  0  0  0  0  0  0
  191.0680  176.5360  146.5450 C   0  0  0  0  0  0  0  0  0  0  0  0
  189.1250  177.6590  147.6430 C   0  0  0  0  0  2  0  0  0  0  0  0
  1 19  1  0  0  0  0
  1 17  2  0  0  0  0
  2 15  1  1  0  0  0
  2  5  1  0  0  0  0
  4  6  1  0  0  0  0
  5  7  1  6  0  0  0
  6  9  2  0  0  0  0
  6  2  1  0  0  0  0
  7 18  1  0  0  0  0
  8 12  1  0  0  0  0
  8  4  1  0  0  0  0
  9 16  1  0  0  0  0
 10 13  1  0  0  0  0
 11 15  1  0  0  0  0
 12 11  1  0  0  0  0
 13  9  1  0  0  0  0
 14  3  1  0  0  0  0
 16  5  1  0  0  0  0
 16 21  1  6  0  0  0
 17  4  2  0  0  0  0
 18 30  1  6  0  0  0
 18  3  1  0  0  0  0
 19 10  1  0  0  0  0
 20 22  1  6  0  0  0
 20 14  1  0  0  0  0
 21 20  1  0  0  0  0
 22 25  1  6  0  0  0
 22 24  1  0  0  0  0
 23 24  1  0  0  0  0
 26 25  1  0  0  0  0
 27 26  1  0  0  0  0
 29 28  2  0  0  0  0
 29 27  1  0  0  0  0
 31 37  1  0  0  0  0
 32 30  1  6  0  0  0
 32 31  1  0  0  0  0
 33 32  1  0  0  0  0
 33 36  1  0  0  0  0
 36 34  1  0  0  0  0
 36 35  2  0  0  0  0
 37 35  1  0  0  0  0
M  END
>  <MODEL>
5

>  <REMARK>
 VINA RESULT:      -6.2      3.799      9.457
  Name = 
  8 active torsions:
  status: ('A' for Active; 'I' for Inactive)
    1  A    between atoms: O_1  and  C_5
    2  A    between atoms: O_1  and  C_17
    3  A    between atoms: C_5  and  C_23
    4  A    between atoms: C_6  and  C_37
    5  A    between atoms: C_17  and  C_26
    6  A    between atoms: C_26  and  C_33
    7  A    between atoms: C_26  and  C_34
    8  A    between atoms: C_31  and  C_37
                            x       y       z     vdW  Elec       q    Type
                         _______ _______ _______ _____ _____    ______ ____

>  <TORSDO>
F 8

$$$$
=
 OpenBabel11052415223D

 37 41  0  0  1  0  0  0  0  0999 V2000
  187.7290  177.5880  145.4180 C   0  0  0  0  0  3  0  0  0  0  0  0
  184.2090  178.8140  142.1510 C   0  0  2  0  0  3  0  0  0  0  0  0
  184.4930  176.7010  137.8520 S   0  0  0  0  0  0  0  0  0  0  0  0
  185.6630  178.7350  144.3380 C   0  0  0  0  0  0  0  0  0  0  0  0
  184.3900  178.3310  140.7600 N   0  0  2  0  0  0  0  0  0  0  0  0
  185.4580  178.4760  142.8880 C   0  0  0  0  0  0  0  0  0  0  0  0
  183.6380  177.1070  140.4770 C   0  0  0  0  0  2  0  0  0  0  0  0
  184.7410  179.6240  145.1070 C   0  0  0  0  0  2  0  0  0  0  0  0
  186.3610  178.0120  142.0270 C   0  0  0  0  0  0  0  0  0  0  0  0
  187.9110  176.3970  143.1600 C   0  0  0  0  0  2  0  0  0  0  0  0
  182.5280  179.2480  143.9820 C   0  0  0  0  0  2  0  0  0  0  0  0
  183.3570  179.0060  145.2350 C   0  0  0  0  0  2  0  0  0  0  0  0
  187.7970  177.6670  142.3210 C   0  0  0  0  0  2  0  0  0  0  0  0
  185.1520  178.4050  137.6910 C   0  0  0  0  0  2  0  0  0  0  0  0
  182.9380  178.3140  142.8550 C   0  0  0  0  0  2  0  0  0  0  0  0
  185.8080  177.9760  140.6510 C   0  0  2  0  0  3  0  0  0  0  0  0
  186.6740  178.1950  144.9530 C   0  0  0  0  0  0  0  0  0  0  0  0
  183.1450  177.0750  139.0340 C   0  0  1  0  0  3  0  0  0  0  0  0
  188.5450  176.6850  144.5300 C   0  0  0  0  0  2  0  0  0  0  0  0
  186.5540  178.5840  138.2950 C   0  0  1  0  0  3  0  0  0  0  0  0
  186.5070  179.0020  139.7680 C   0  0  0  0  0  2  0  0  0  0  0  0
  187.5260  177.4240  138.0170 C   0  0  1  0  0  3  0  0  0  0  0  0
  189.0540  178.6290  136.4500 C   0  0  0  0  0  1  0  0  0  0  0  0
  188.0490  177.5010  136.5880 C   0  0  0  0  0  2  0  0  0  0  0  0
  188.7030  177.4630  138.9880 C   0  0  0  0  0  2  0  0  0  0  0  0
  189.4650  176.3020  138.8640 O   0  0  0  0  0  0  0  0  0  0  0  0
  190.7580  176.6940  139.2060 C   0  0  0  0  0  2  0  0  0  0  0  0
  191.7190  177.5020  141.3140 C   0  0  0  0  0  2  0  0  0  0  0  0
  190.7270  177.5490  140.4290 C   0  0  0  0  0  3  0  0  0  0  0  0
  182.3120  178.3090  138.6700 C   0  0  0  0  0  2  0  0  0  0  0  0
  180.6400  177.0490  140.0980 C   0  0  0  0  0  2  0  0  0  0  0  0
  180.9500  178.3480  139.3630 C   0  0  1  0  0  3  0  0  0  0  0  0
  180.8260  179.5580  140.2960 C   0  0  0  0  0  2  0  0  0  0  0  0
  179.2460  180.8720  142.2080 Cl  0  0  0  0  0  0  0  0  0  0  0  0
  178.9400  178.3430  141.4000 C   0  0  0  0  0  3  0  0  0  0  0  0
  179.6280  179.4810  141.2120 C   0  0  0  0  0  0  0  0  0  0  0  0
  179.2000  177.0990  140.5940 C   0  0  0  0  0  2  0  0  0  0  0  0
  2 15  1  1  0  0  0
  2  6  1  0  0  0  0
  3 18  1  0  0  0  0
  4 17  2  0  0  0  0
  4  8  1  0  0  0  0
  5  7  1  1  0  0  0
  5  2  1  0  0  0  0
  6  4  1  0  0  0  0
  8 12  1  0  0  0  0
  9 13  1  0  0  0  0
  9  6  2  0  0  0  0
 10 19  1  0  0  0  0
 11 12  1  0  0  0  0
 13 10  1  0  0  0  0
 14  3  1  0  0  0  0
 14 20  1  0  0  0  0
 15 11  1  0  0  0  0
 16 21  1  6  0  0  0
 16  5  1  0  0  0  0
 16  9  1  0  0  0  0
 17  1  2  0  0  0  0
 18 30  1  6  0  0  0
 18  7  1  0  0  0  0
 19  1  1  0  0  0  0
 20 22  1  1  0  0  0
 20 21  1  0  0  0  0
 22 24  1  6  0  0  0
 22 25  1  0  0  0  0
 23 24  1  0  0  0  0
 26 25  1  0  0  0  0
 26 27  1  0  0  0  0
 27 29  1  0  0  0  0
 29 28  2  0  0  0  0
 31 37  1  0  0  0  0
 32 30  1  1  0  0  0
 32 31  1  0  0  0  0
 32 33  1  0  0  0  0
 33 36  1  0  0  0  0
 36 35  2  0  0  0  0
 36 34  1  0  0  0  0
 37 35  1  0  0  0  0
M  END
>  <MODEL>
6

>  <REMARK>
 VINA RESULT:      -6.1      2.999      3.987
  Name = 
  8 active torsions:
  status: ('A' for Active; 'I' for Inactive)
    1  A    between atoms: O_1  and  C_5
    2  A    between atoms: O_1  and  C_17
    3  A    between atoms: C_5  and  C_23
    4  A    between atoms: C_6  and  C_37
    5  A    between atoms: C_17  and  C_26
    6  A    between atoms: C_26  and  C_33
    7  A    between atoms: C_26  and  C_34
    8  A    between atoms: C_31  and  C_37
                            x       y       z     vdW  Elec       q    Type
                         _______ _______ _______ _____ _____    ______ ____

>  <TORSDO>
F 8

$$$$
=
 OpenBabel11052415223D

 37 41  0  0  1  0  0  0  0  0999 V2000
  188.4120  175.6630  135.2390 C   0  0  0  0  0  3  0  0  0  0  0  0
  190.2300  177.3360  139.5360 C   0  0  2  0  0  3  0  0  0  0  0  0
  187.2270  177.2380  143.2780 S   0  0  0  0  0  0  0  0  0  0  0  0
  190.0260  176.6890  136.9980 C   0  0  0  0  0  0  0  0  0  0  0  0
  189.2660  177.5010  140.6510 N   0  0  2  0  0  0  0  0  0  0  0  0
  189.4310  176.9980  138.3260 C   0  0  0  0  0  0  0  0  0  0  0  0
  189.2610  176.3670  141.5760 C   0  0  0  0  0  2  0  0  0  0  0  0
  191.4610  176.9810  136.7010 C   0  0  0  0  0  2  0  0  0  0  0  0
  188.1370  177.1190  138.6090 C   0  0  0  0  0  0  0  0  0  0  0  0
  186.7770  175.5460  137.2050 C   0  0  0  0  0  2  0  0  0  0  0  0
  192.5770  176.6370  138.9240 C   0  0  0  0  0  2  0  0  0  0  0  0
  192.3860  176.0900  137.5170 C   0  0  0  0  0  2  0  0  0  0  0  0
  186.9840  176.9920  137.6480 C   0  0  0  0  0  2  0  0  0  0  0  0
  187.2940  178.9590  142.6480 C   0  0  0  0  0  2  0  0  0  0  0  0
  191.3710  176.3420  139.8030 C   0  0  0  0  0  2  0  0  0  0  0  0
  187.9420  177.5240  140.0230 C   0  0  2  0  0  3  0  0  0  0  0  0
  189.2830  176.1710  136.0640 C   0  0  0  0  0  0  0  0  0  0  0  0
  188.9890  176.8160  143.0090 C   0  0  1  0  0  3  0  0  0  0  0  0
  187.0030  175.3840  135.6930 C   0  0  0  0  0  2  0  0  0  0  0  0
  186.5140  179.1680  141.3400 C   0  0  1  0  0  3  0  0  0  0  0  0
  187.3830  178.9400  140.0990 C   0  0  0  0  0  2  0  0  0  0  0  0
  185.1560  178.4480  141.2790 C   0  0  1  0  0  3  0  0  0  0  0  0
  182.8950  178.2550  142.3250 C   0  0  0  0  0  1  0  0  0  0  0  0
  184.2100  179.0100  142.3340 C   0  0  0  0  0  2  0  0  0  0  0  0
  184.5240  178.6050  139.8990 C   0  0  0  0  0  2  0  0  0  0  0  0
  184.3240  179.9560  139.6150 O   0  0  0  0  0  0  0  0  0  0  0  0
  183.2210  179.9750  138.7640 C   0  0  0  0  0  2  0  0  0  0  0  0
  181.9310  178.2470  137.5930 C   0  0  0  0  0  2  0  0  0  0  0  0
  182.6230  178.6100  138.6700 C   0  0  0  0  0  3  0  0  0  0  0  0
  189.9750  177.8890  143.4860 C   0  0  0  0  0  2  0  0  0  0  0  0
  188.8950  177.6600  145.7670 C   0  0  0  0  0  2  0  0  0  0  0  0
  190.1920  177.8830  144.9980 C   0  0  1  0  0  3  0  0  0  0  0  0
  191.2640  176.8670  145.4100 C   0  0  0  0  0  2  0  0  0  0  0  0
  192.5970  175.6250  147.5450 Cl  0  0  0  0  0  0  0  0  0  0  0  0
  190.3160  177.0060  147.7200 C   0  0  0  0  0  3  0  0  0  0  0  0
  191.3070  176.6200  146.8990 C   0  0  0  0  0  0  0  0  0  0  0  0
  189.1670  177.8580  147.2530 C   0  0  0  0  0  2  0  0  0  0  0  0
  1 19  1  0  0  0  0
  1 17  2  0  0  0  0
  2 15  1  1  0  0  0
  2  5  1  0  0  0  0
  4  6  1  0  0  0  0
  5  7  1  1  0  0  0
  6  9  2  0  0  0  0
  6  2  1  0  0  0  0
  7 18  1  0  0  0  0
  8  4  1  0  0  0  0
  8 12  1  0  0  0  0
  9 16  1  0  0  0  0
 10 13  1  0  0  0  0
 11 15  1  0  0  0  0
 12 11  1  0  0  0  0
 13  9  1  0  0  0  0
 14  3  1  0  0  0  0
 16 21  1  6  0  0  0
 16  5  1  0  0  0  0
 17  4  2  0  0  0  0
 18  3  1  0  0  0  0
 18 30  1  6  0  0  0
 19 10  1  0  0  0  0
 20 22  1  6  0  0  0
 20 14  1  0  0  0  0
 21 20  1  0  0  0  0
 22 25  1  6  0  0  0
 22 24  1  0  0  0  0
 23 24  1  0  0  0  0
 26 25  1  0  0  0  0
 27 26  1  0  0  0  0
 28 29  2  0  0  0  0
 29 27  1  0  0  0  0
 31 37  1  0  0  0  0
 32 30  1  6  0  0  0
 32 33  1  0  0  0  0
 32 31  1  0  0  0  0
 33 36  1  0  0  0  0
 36 34  1  0  0  0  0
 36 35  2  0  0  0  0
 37 35  1  0  0  0  0
M  END
>  <MODEL>
7

>  <REMARK>
 VINA RESULT:      -5.9      4.207      9.968
  Name = 
  8 active torsions:
  status: ('A' for Active; 'I' for Inactive)
    1  A    between atoms: O_1  and  C_5
    2  A    between atoms: O_1  and  C_17
    3  A    between atoms: C_5  and  C_23
    4  A    between atoms: C_6  and  C_37
    5  A    between atoms: C_17  and  C_26
    6  A    between atoms: C_26  and  C_33
    7  A    between atoms: C_26  and  C_34
    8  A    between atoms: C_31  and  C_37
                            x       y       z     vdW  Elec       q    Type
                         _______ _______ _______ _____ _____    ______ ____

>  <TORSDO>
F 8

$$$$
=
 OpenBabel11052415223D

 37 41  0  0  1  0  0  0  0  0999 V2000
  179.7760  179.7770  143.2170 C   0  0  0  0  0  3  0  0  0  0  0  0
  184.1600  178.2020  141.5250 C   0  0  2  0  0  3  0  0  0  0  0  0
  184.4620  177.4910  136.7890 S   0  0  0  0  0  0  0  0  0  0  0  0
  182.2420  178.9620  143.1510 C   0  0  0  0  0  0  0  0  0  0  0  0
  184.2170  177.7870  140.1020 N   0  0  2  0  0  0  0  0  0  0  0  0
  182.7280  178.4620  141.8380 C   0  0  0  0  0  0  0  0  0  0  0  0
  184.7270  178.8380  139.2190 C   0  0  0  0  0  2  0  0  0  0  0  0
  183.1240  178.9650  144.3570 C   0  0  0  0  0  2  0  0  0  0  0  0
  181.9790  178.0810  140.8050 C   0  0  0  0  0  0  0  0  0  0  0  0
  179.8850  179.4570  140.6800 C   0  0  0  0  0  2  0  0  0  0  0  0
  185.4040  179.3690  143.3860 C   0  0  0  0  0  2  0  0  0  0  0  0
  184.2640  179.9600  144.2040 C   0  0  0  0  0  2  0  0  0  0  0  0
  180.4750  178.0510  140.7400 C   0  0  0  0  0  2  0  0  0  0  0  0
  184.2540  175.8580  137.5960 C   0  0  0  0  0  2  0  0  0  0  0  0
  185.0810  179.3740  141.8990 C   0  0  0  0  0  2  0  0  0  0  0  0
  182.8260  177.5560  139.7050 C   0  0  2  0  0  3  0  0  0  0  0  0
  181.0180  179.3900  143.2650 C   0  0  0  0  0  0  0  0  0  0  0  0
  185.5340  178.2540  138.0630 C   0  0  1  0  0  3  0  0  0  0  0  0
  179.0190  179.7560  141.9140 C   0  0  0  0  0  2  0  0  0  0  0  0
  182.8220  175.5910  138.0890 C   0  0  1  0  0  3  0  0  0  0  0  0
  182.6040  176.0580  139.5310 C   0  0  0  0  0  2  0  0  0  0  0  0
  181.7140  176.0450  137.1220 C   0  0  1  0  0  3  0  0  0  0  0  0
  181.1870  176.1130  134.6810 C   0  0  0  0  0  1  0  0  0  0  0  0
  181.8390  175.3120  135.7920 C   0  0  0  0  0  2  0  0  0  0  0  0
  180.3360  175.7770  137.7190 C   0  0  0  0  0  2  0  0  0  0  0  0
  179.9920  174.4360  137.5470 O   0  0  0  0  0  0  0  0  0  0  0  0
  178.9320  174.2310  138.4280 C   0  0  0  0  0  2  0  0  0  0  0  0
  179.3160  174.4010  140.8460 C   0  0  0  0  0  2  0  0  0  0  0  0
  179.1470  175.0170  139.6790 C   0  0  0  0  0  3  0  0  0  0  0  0
  186.6810  177.3570  138.5410 C   0  0  0  0  0  2  0  0  0  0  0  0
  188.2110  178.2910  136.7500 C   0  0  0  0  0  2  0  0  0  0  0  0
  187.6960  177.0360  137.4460 C   0  0  1  0  0  3  0  0  0  0  0  0
  188.8530  176.1840  137.9820 C   0  0  0  0  0  2  0  0  0  0  0  0
  191.3330  175.0010  137.4090 Cl  0  0  0  0  0  0  0  0  0  0  0  0
  190.1420  176.9080  135.9650 C   0  0  0  0  0  3  0  0  0  0  0  0
  190.0150  176.0870  137.0210 C   0  0  0  0  0  0  0  0  0  0  0  0
  189.0630  177.8750  135.5580 C   0  0  0  0  0  2  0  0  0  0  0  0
  1 17  2  0  0  0  0
  2  6  1  0  0  0  0
  2 15  1  6  0  0  0
  3 14  1  0  0  0  0
  3 18  1  0  0  0  0
  4 17  2  0  0  0  0
  4  8  1  0  0  0  0
  5  7  1  6  0  0  0
  5  2  1  0  0  0  0
  6  4  1  0  0  0  0
  9  6  2  0  0  0  0
 10 13  1  0  0  0  0
 10 19  1  0  0  0  0
 11 12  1  0  0  0  0
 12  8  1  0  0  0  0
 13  9  1  0  0  0  0
 14 20  1  0  0  0  0
 15 11  1  0  0  0  0
 16 21  1  1  0  0  0
 16  5  1  0  0  0  0
 16  9  1  0  0  0  0
 18 30  1  1  0  0  0
 18  7  1  0  0  0  0
 19  1  1  0  0  0  0
 20 22  1  6  0  0  0
 20 21  1  0  0  0  0
 22 24  1  6  0  0  0
 22 25  1  0  0  0  0
 23 24  1  0  0  0  0
 26 25  1  0  0  0  0
 26 27  1  0  0  0  0
 27 29  1  0  0  0  0
 29 28  2  0  0  0  0
 31 32  1  0  0  0  0
 32 33  1  0  0  0  0
 32 30  1  1  0  0  0
 35 36  2  0  0  0  0
 36 34  1  0  0  0  0
 36 33  1  0  0  0  0
 37 35  1  0  0  0  0
 37 31  1  0  0  0  0
M  END
>  <MODEL>
8

>  <REMARK>
 VINA RESULT:      -5.9      3.027      6.692
  Name = 
  8 active torsions:
  status: ('A' for Active; 'I' for Inactive)
    1  A    between atoms: O_1  and  C_5
    2  A    between atoms: O_1  and  C_17
    3  A    between atoms: C_5  and  C_23
    4  A    between atoms: C_6  and  C_37
    5  A    between atoms: C_17  and  C_26
    6  A    between atoms: C_26  and  C_33
    7  A    between atoms: C_26  and  C_34
    8  A    between atoms: C_31  and  C_37
                            x       y       z     vdW  Elec       q    Type
                         _______ _______ _______ _____ _____    ______ ____

>  <TORSDO>
F 8

$$$$
=
 OpenBabel11052415223D

 37 41  0  0  1  0  0  0  0  0999 V2000
  179.6490  180.1770  141.3410 C   0  0  0  0  0  3  0  0  0  0  0  0
  184.1510  178.1910  141.9390 C   0  0  2  0  0  3  0  0  0  0  0  0
  187.0330  178.3040  138.1040 S   0  0  0  0  0  0  0  0  0  0  0  0
  181.6850  178.9690  142.4100 C   0  0  0  0  0  0  0  0  0  0  0  0
  184.9800  178.0360  140.7200 N   0  0  2  0  0  0  0  0  0  0  0  0
  182.8030  178.6360  141.4870 C   0  0  0  0  0  0  0  0  0  0  0  0
  185.9430  179.1230  140.5400 C   0  0  0  0  0  2  0  0  0  0  0  0
  181.7360  178.6000  143.8570 C   0  0  0  0  0  2  0  0  0  0  0  0
  182.7500  178.5850  140.1580 C   0  0  0  0  0  0  0  0  0  0  0  0
  181.1520  180.3050  139.2740 C   0  0  0  0  0  2  0  0  0  0  0  0
  184.1820  178.7680  144.3960 C   0  0  0  0  0  2  0  0  0  0  0  0
  182.8070  179.3910  144.5910 C   0  0  0  0  0  2  0  0  0  0  0  0
  181.5430  178.8300  139.2910 C   0  0  0  0  0  2  0  0  0  0  0  0
  186.3340  176.6140  138.2400 C   0  0  0  0  0  2  0  0  0  0  0  0
  184.7520  179.0970  143.0250 C   0  0  0  0  0  2  0  0  0  0  0  0
  184.0440  178.1270  139.5960 C   0  0  2  0  0  3  0  0  0  0  0  0
  180.6300  179.5760  141.9520 C   0  0  0  0  0  0  0  0  0  0  0  0
  187.2340  178.6250  139.8960 C   0  0  1  0  0  3  0  0  0  0  0  0
  179.7560  180.5230  139.8790 C   0  0  0  0  0  2  0  0  0  0  0  0
  184.8630  176.5170  137.8040 C   0  0  1  0  0  3  0  0  0  0  0  0
  183.8930  176.7470  138.9660 C   0  0  0  0  0  2  0  0  0  0  0  0
  184.5130  177.3240  136.5410 C   0  0  1  0  0  3  0  0  0  0  0  0
  186.0340  177.7250  134.6000 C   0  0  0  0  0  1  0  0  0  0  0  0
  185.1710  176.7030  135.3150 C   0  0  0  0  0  2  0  0  0  0  0  0
  183.0020  177.3710  136.3340 C   0  0  0  0  0  2  0  0  0  0  0  0
  182.5500  176.1520  135.8280 O   0  0  0  0  0  0  0  0  0  0  0  0
  181.1620  176.2240  135.9290 C   0  0  0  0  0  2  0  0  0  0  0  0
  180.9210  174.8240  137.9300 C   0  0  0  0  0  2  0  0  0  0  0  0
  180.6380  175.0240  136.6450 C   0  0  0  0  0  3  0  0  0  0  0  0
  187.8730  177.4710  140.6760 C   0  0  0  0  0  2  0  0  0  0  0  0
  187.6530  176.7580  143.0970 C   0  0  0  0  0  2  0  0  0  0  0  0
  188.1750  177.8170  142.1330 C   0  0  1  0  0  3  0  0  0  0  0  0
  189.6700  178.0790  142.3520 C   0  0  0  0  0  2  0  0  0  0  0  0
  191.6900  178.6110  144.2260 Cl  0  0  0  0  0  0  0  0  0  0  0  0
  189.2430  177.6970  144.7860 C   0  0  0  0  0  3  0  0  0  0  0  0
  190.0560  178.1370  143.8110 C   0  0  0  0  0  0  0  0  0  0  0  0
  187.8240  177.2680  144.5230 C   0  0  0  0  0  2  0  0  0  0  0  0
  1 17  2  0  0  0  0
  2 15  1  1  0  0  0
  3 14  1  0  0  0  0
  3 18  1  0  0  0  0
  4  8  1  0  0  0  0
  5  7  1  6  0  0  0
  5  2  1  0  0  0  0
  6  2  1  0  0  0  0
  6  4  1  0  0  0  0
  8 12  1  0  0  0  0
  9  6  2  0  0  0  0
 10 13  1  0  0  0  0
 10 19  1  0  0  0  0
 11 12  1  0  0  0  0
 13  9  1  0  0  0  0
 15 11  1  0  0  0  0
 16 21  1  1  0  0  0
 16  9  1  0  0  0  0
 16  5  1  0  0  0  0
 17  4  2  0  0  0  0
 18  7  1  0  0  0  0
 18 30  1  1  0  0  0
 19  1  1  0  0  0  0
 20 22  1  6  0  0  0
 20 14  1  0  0  0  0
 20 21  1  0  0  0  0
 22 24  1  6  0  0  0
 23 24  1  0  0  0  0
 25 22  1  0  0  0  0
 26 27  1  0  0  0  0
 26 25  1  0  0  0  0
 27 29  1  0  0  0  0
 29 28  2  0  0  0  0
 31 37  1  0  0  0  0
 32 30  1  6  0  0  0
 32 33  1  0  0  0  0
 32 31  1  0  0  0  0
 33 36  1  0  0  0  0
 36 34  1  0  0  0  0
 36 35  2  0  0  0  0
 37 35  1  0  0  0  0
M  END
>  <MODEL>
9

>  <REMARK>
 VINA RESULT:      -5.9      3.262      7.262
  Name = 
  8 active torsions:
  status: ('A' for Active; 'I' for Inactive)
    1  A    between atoms: O_1  and  C_5
    2  A    between atoms: O_1  and  C_17
    3  A    between atoms: C_5  and  C_23
    4  A    between atoms: C_6  and  C_37
    5  A    between atoms: C_17  and  C_26
    6  A    between atoms: C_26  and  C_33
    7  A    between atoms: C_26  and  C_34
    8  A    between atoms: C_31  and  C_37
                            x       y       z     vdW  Elec       q    Type
                         _______ _______ _______ _____ _____    ______ ____

>  <TORSDO>
F 8

$$$$
