=
 OpenBabel11052414403D

 32 36  0  0  1  0  0  0  0  0999 V2000
  186.0460  178.3500  141.8030 C   0  0  2  0  0  3  0  0  0  0  0  0
  187.0720  178.0690  144.4030 C   0  0  0  0  0  0  0  0  0  0  0  0
  185.5360  178.5290  140.5110 C   0  0  0  0  0  3  0  0  0  0  0  0
  185.1240  178.5040  142.9740 C   0  0  0  0  0  0  0  0  0  0  0  0
  184.9210  178.4850  145.4370 C   0  0  0  0  0  3  0  0  0  0  0  0
  189.5270  177.1280  147.1860 C   0  0  0  0  0  2  0  0  0  0  0  0
  185.6900  178.3530  144.2690 C   0  0  0  0  0  0  0  0  0  0  0  0
  187.3880  177.8560  148.2200 C   0  0  0  0  0  2  0  0  0  0  0  0
  186.8470  178.0780  146.8350 C   0  0  0  0  0  0  0  0  0  0  0  0
  183.7530  178.8000  142.7120 C   0  0  0  0  0  0  0  0  0  0  0  0
  185.4870  178.3440  146.6990 C   0  0  0  0  0  3  0  0  0  0  0  0
  183.3240  178.9520  141.3820 C   0  0  0  0  0  3  0  0  0  0  0  0
  187.8660  177.9350  143.2620 C   0  0  0  0  0  3  0  0  0  0  0  0
  187.3700  178.0620  142.0050 N   0  0  0  0  0  0  0  0  0  0  0  0
  187.6510  177.9190  145.6840 C   0  0  0  0  0  0  0  0  0  0  0  0
  182.8970  178.9310  143.6840 N   0  0  0  0  0  2  0  0  0  0  0  0
  184.1950  178.8230  140.3050 C   0  0  0  0  0  3  0  0  0  0  0  0
  188.9070  177.9820  148.2790 C   0  0  0  0  0  2  0  0  0  0  0  0
  189.1420  177.6960  145.8240 C   0  0  0  0  0  2  0  0  0  0  0  0
  190.2780  176.8700  139.9580 C   0  0  0  0  0  0  0  0  0  0  0  0
  191.3350  176.0270  140.0620 F   0  0  0  0  0  0  0  0  0  0  0  0
  188.2900  177.8910  140.9140 C   0  0  0  0  0  0  0  0  0  0  0  0
  190.0870  177.5980  138.7820 C   0  0  0  0  0  3  0  0  0  0  0  0
  188.1140  178.6250  139.7320 C   0  0  0  0  0  3  0  0  0  0  0  0
  189.3860  177.0170  141.0270 C   0  0  0  0  0  0  0  0  0  0  0  0
  189.5960  176.3250  142.1760 F   0  0  0  0  0  0  0  0  0  0  0  0
  189.0030  178.4830  138.6640 C   0  0  0  0  0  0  0  0  0  0  0  0
  187.7860  178.8970  136.5510 C   0  0  0  0  0  1  0  0  0  0  0  0
  188.7890  179.2280  137.5010 O   0  0  0  0  0  0  0  0  0  0  0  0
  181.4820  179.2330  143.5090 C   0  0  0  0  0  2  0  0  0  0  0  0
  180.6530  178.1660  144.1920 C   0  0  0  0  0  2  0  0  0  0  0  0
  179.6010  177.7910  143.3570 O   0  0  0  0  0  1  0  0  0  0  0  0
  1  3  1  1  0  0  0
  1 14  1  0  0  0  0
  1  4  1  0  0  0  0
  2 15  1  0  0  0  0
  4  7  2  0  0  0  0
  5 11  2  0  0  0  0
  6 18  1  0  0  0  0
  7  2  1  0  0  0  0
  7  5  1  0  0  0  0
  8 18  1  0  0  0  0
  9  8  1  0  0  0  0
 10  4  1  0  0  0  0
 10 16  1  0  0  0  0
 11  9  1  0  0  0  0
 12 10  2  0  0  0  0
 13  2  2  0  0  0  0
 14 13  1  0  0  0  0
 15 19  1  0  0  0  0
 15  9  2  0  0  0  0
 17  3  2  0  0  0  0
 17 12  1  0  0  0  0
 19  6  1  0  0  0  0
 20 21  1  0  0  0  0
 20 25  1  0  0  0  0
 22 25  2  0  0  0  0
 22 14  1  0  0  0  0
 23 20  2  0  0  0  0
 24 22  1  0  0  0  0
 25 26  1  0  0  0  0
 27 23  1  0  0  0  0
 27 24  2  0  0  0  0
 28 29  1  0  0  0  0
 29 27  1  0  0  0  0
 30 16  1  0  0  0  0
 30 31  1  0  0  0  0
 32 31  1  0  0  0  0
M  END
>  <MODEL>
1

>  <REMARK>
 VINA RESULT:     -10.6      0.000      0.000
  Name = 
  4 active torsions:
  status: ('A' for Active; 'I' for Inactive)
    1  A    between atoms: C_13  and  C_18
    2  A    between atoms: O_15  and  C_26
    3  A    between atoms: C_16  and  N_27
    4  A    between atoms: C_18  and  N_29
                            x       y       z     vdW  Elec       q    Type
                         _______ _______ _______ _____ _____    ______ ____

>  <TORSDO>
F 4

$$$$
=
 OpenBabel11052414403D

 32 36  0  0  1  0  0  0  0  0999 V2000
  188.0360  177.8090  141.3900 C   0  0  2  0  0  3  0  0  0  0  0  0
  189.3060  177.2480  143.8320 C   0  0  0  0  0  0  0  0  0  0  0  0
  187.4110  178.1260  140.1770 C   0  0  0  0  0  3  0  0  0  0  0  0
  187.2970  178.0490  142.6700 C   0  0  0  0  0  0  0  0  0  0  0  0
  187.3880  177.9460  145.1380 C   0  0  0  0  0  3  0  0  0  0  0  0
  191.8910  175.8030  146.2580 C   0  0  0  0  0  2  0  0  0  0  0  0
  187.9810  177.7510  143.8800 C   0  0  0  0  0  0  0  0  0  0  0  0
  190.0370  176.8070  147.5720 C   0  0  0  0  0  2  0  0  0  0  0  0
  189.3770  177.1760  146.2730 C   0  0  0  0  0  0  0  0  0  0  0  0
  185.9710  178.5680  142.5910 C   0  0  0  0  0  0  0  0  0  0  0  0
  188.0710  177.6580  146.3150 C   0  0  0  0  0  3  0  0  0  0  0  0
  185.4160  178.8480  141.3300 C   0  0  0  0  0  3  0  0  0  0  0  0
  189.9270  177.0450  142.5970 C   0  0  0  0  0  3  0  0  0  0  0  0
  189.3100  177.3080  141.4160 N   0  0  0  0  0  0  0  0  0  0  0  0
  190.0020  176.9490  145.0260 C   0  0  0  0  0  0  0  0  0  0  0  0
  185.2690  178.7850  143.6660 N   0  0  0  0  0  2  0  0  0  0  0  0
  186.1200  178.6350  140.1490 C   0  0  0  0  0  3  0  0  0  0  0  0
  191.5510  176.6910  147.4430 C   0  0  0  0  0  2  0  0  0  0  0  0
  191.4430  176.4890  144.9710 C   0  0  0  0  0  2  0  0  0  0  0  0
  192.1510  177.0140  138.9840 C   0  0  0  0  0  0  0  0  0  0  0  0
  193.4900  177.2190  138.9330 F   0  0  0  0  0  0  0  0  0  0  0  0
  190.0550  177.0470  140.2140 C   0  0  0  0  0  0  0  0  0  0  0  0
  191.4770  176.5580  137.8490 C   0  0  0  0  0  3  0  0  0  0  0  0
  189.3870  176.5990  139.0650 C   0  0  0  0  0  3  0  0  0  0  0  0
  191.4440  177.2640  140.1660 C   0  0  0  0  0  0  0  0  0  0  0  0
  192.1030  177.7320  141.2550 F   0  0  0  0  0  0  0  0  0  0  0  0
  190.0890  176.3490  137.8830 C   0  0  0  0  0  0  0  0  0  0  0  0
  187.9750  175.7490  136.7480 C   0  0  0  0  0  1  0  0  0  0  0  0
  189.3880  175.8990  136.7620 O   0  0  0  0  0  0  0  0  0  0  0  0
  183.9100  179.3120  143.6780 C   0  0  0  0  0  2  0  0  0  0  0  0
  183.2180  178.8860  144.9550 C   0  0  0  0  0  2  0  0  0  0  0  0
  184.1120  178.9750  146.0200 O   0  0  0  0  0  1  0  0  0  0  0  0
  1  3  1  1  0  0  0
  1 14  1  0  0  0  0
  1  4  1  0  0  0  0
  2  7  1  0  0  0  0
  2 15  1  0  0  0  0
  4  7  2  0  0  0  0
  5 11  2  0  0  0  0
  6 18  1  0  0  0  0
  7  5  1  0  0  0  0
  9 11  1  0  0  0  0
  9  8  1  0  0  0  0
 10  4  1  0  0  0  0
 10 16  1  0  0  0  0
 12 10  2  0  0  0  0
 13  2  2  0  0  0  0
 14 13  1  0  0  0  0
 15  9  2  0  0  0  0
 16 30  1  0  0  0  0
 17  3  2  0  0  0  0
 17 12  1  0  0  0  0
 18  8  1  0  0  0  0
 19 15  1  0  0  0  0
 19  6  1  0  0  0  0
 20 25  1  0  0  0  0
 21 20  1  0  0  0  0
 22 14  1  0  0  0  0
 23 27  1  0  0  0  0
 23 20  2  0  0  0  0
 24 22  1  0  0  0  0
 25 22  2  0  0  0  0
 25 26  1  0  0  0  0
 27 24  2  0  0  0  0
 28 29  1  0  0  0  0
 29 27  1  0  0  0  0
 30 31  1  0  0  0  0
 31 32  1  0  0  0  0
M  END
>  <MODEL>
2

>  <REMARK>
 VINA RESULT:     -10.6      2.018      2.662
  Name = 
  4 active torsions:
  status: ('A' for Active; 'I' for Inactive)
    1  A    between atoms: C_13  and  C_18
    2  A    between atoms: O_15  and  C_26
    3  A    between atoms: C_16  and  N_27
    4  A    between atoms: C_18  and  N_29
                            x       y       z     vdW  Elec       q    Type
                         _______ _______ _______ _____ _____    ______ ____

>  <TORSDO>
F 4

$$$$
=
 OpenBabel11052414403D

 32 36  0  0  0  0  0  0  0  0999 V2000
  188.7370  177.7370  143.0230 C   0  0  0  0  0  0  0  0  0  0  0  0
  185.9770  178.2600  142.9600 C   0  0  0  0  0  0  0  0  0  0  0  0
  190.1190  177.5140  143.0500 C   0  0  0  0  0  3  0  0  0  0  0  0
  188.0580  177.9250  141.7010 C   0  0  0  0  0  0  0  0  0  0  0  0
  185.9250  178.3880  140.5410 C   0  0  0  0  0  3  0  0  0  0  0  0
  182.3670  178.5190  144.2070 C   0  0  0  0  0  2  0  0  0  0  0  0
  186.6610  178.1870  141.7200 C   0  0  0  0  0  0  0  0  0  0  0  0
  182.3990  178.9470  141.7590 C   0  0  0  0  0  2  0  0  0  0  0  0
  183.8870  178.7380  141.7890 C   0  0  0  0  0  0  0  0  0  0  0  0
  188.8550  177.8380  140.5210 C   0  0  0  0  0  0  0  0  0  0  0  0
  184.5600  178.6530  140.5730 C   0  0  0  0  0  3  0  0  0  0  0  0
  190.2350  177.6010  140.6400 C   0  0  0  0  0  3  0  0  0  0  0  0
  186.6790  178.0680  144.1520 C   0  0  0  0  0  3  0  0  0  0  0  0
  188.0110  177.8080  144.1830 N   0  0  0  0  0  0  0  0  0  0  0  0
  184.5890  178.5240  142.9970 C   0  0  0  0  0  0  0  0  0  0  0  0
  188.3240  177.9770  139.3410 N   0  0  0  0  0  0  0  0  0  0  0  0
  190.8550  177.4450  141.8750 C   0  0  0  0  0  3  0  0  0  0  0  0
  181.8510  179.4240  143.1000 C   0  0  0  0  0  2  0  0  0  0  0  0
  183.8790  178.6800  144.3250 C   0  0  0  0  0  2  0  0  0  0  0  0
  188.4690  177.6130  147.9010 C   0  0  0  0  0  0  0  0  0  0  0  0
  187.7480  177.7720  149.0380 F   0  0  0  0  0  0  0  0  0  0  0  0
  188.6140  177.6200  145.4750 C   0  0  0  0  0  0  0  0  0  0  0  0
  189.8220  177.2780  147.9810 C   0  0  0  0  0  3  0  0  0  0  0  0
  189.9750  177.2950  145.5670 C   0  0  0  0  0  3  0  0  0  0  0  0
  187.8630  177.7890  146.6510 C   0  0  0  0  0  0  0  0  0  0  0  0
  186.5540  178.1410  146.5850 F   0  0  0  0  0  0  0  0  0  0  0  0
  190.5840  177.1190  146.8130 C   0  0  0  0  0  0  0  0  0  0  0  0
  192.4430  175.7160  147.6470 C   0  0  0  0  0  1  0  0  0  0  0  0
  191.9410  176.7900  146.8620 O   0  0  0  0  0  0  0  0  0  0  0  0
  189.0610  177.9050  138.0850 C   0  0  0  0  0  2  0  0  0  0  0  0
  188.7550  179.1300  137.2520 C   0  0  0  0  0  2  0  0  0  0  0  0
  187.3760  179.2490  137.0890 O   0  0  0  0  0  1  0  0  0  0  0  0
  1  3  2  0  0  0  0
  1 14  1  0  0  0  0
  2 15  1  0  0  0  0
  2 13  2  0  0  0  0
  4  7  2  0  0  0  0
  4  1  1  0  0  0  0
  5 11  2  0  0  0  0
  5  7  1  0  0  0  0
  6 19  1  0  0  0  0
  7  2  1  0  0  0  0
  8  9  1  0  0  0  0
  8 18  1  0  0  0  0
  9 15  2  0  0  0  0
 10 12  1  0  0  0  0
 10  4  1  0  0  0  0
 11  9  1  0  0  0  0
 12 17  2  0  0  0  0
 13 14  1  0  0  0  0
 14 22  1  0  0  0  0
 15 19  1  0  0  0  0
 16 10  2  0  0  0  0
 17  3  1  0  0  0  0
 18  6  1  0  0  0  0
 20 23  1  0  0  0  0
 20 21  1  0  0  0  0
 22 24  2  0  0  0  0
 22 25  1  0  0  0  0
 24 27  1  0  0  0  0
 25 20  2  0  0  0  0
 26 25  1  0  0  0  0
 27 29  1  0  0  0  0
 27 23  2  0  0  0  0
 29 28  1  0  0  0  0
 30 16  1  0  0  0  0
 31 30  1  0  0  0  0
 32 31  1  0  0  0  0
M  END
>  <MODEL>
3

>  <REMARK>
 VINA RESULT:     -10.4      2.897      7.094
  Name = 
  4 active torsions:
  status: ('A' for Active; 'I' for Inactive)
    1  A    between atoms: C_13  and  C_18
    2  A    between atoms: O_15  and  C_26
    3  A    between atoms: C_16  and  N_27
    4  A    between atoms: C_18  and  N_29
                            x       y       z     vdW  Elec       q    Type
                         _______ _______ _______ _____ _____    ______ ____

>  <TORSDO>
F 4

$$$$
=
 OpenBabel11052414403D

 32 36  0  0  1  0  0  0  0  0999 V2000
  189.6570  177.2350  142.8980 C   0  0  2  0  0  3  0  0  0  0  0  0
  187.0160  177.9330  143.5530 C   0  0  0  0  0  0  0  0  0  0  0  0
  190.9650  176.8500  142.5790 C   0  0  0  0  0  3  0  0  0  0  0  0
  189.2730  177.3740  144.3390 C   0  0  0  0  0  0  0  0  0  0  0  0
  187.4540  177.8790  145.9350 C   0  0  0  0  0  3  0  0  0  0  0  0
  183.4390  179.2100  143.0660 C   0  0  0  0  0  2  0  0  0  0  0  0
  187.9250  177.7290  144.6200 C   0  0  0  0  0  0  0  0  0  0  0  0
  183.8350  178.8490  145.4920 C   0  0  0  0  0  2  0  0  0  0  0  0
  185.2310  178.4060  145.1520 C   0  0  0  0  0  0  0  0  0  0  0  0
  190.2750  177.1340  145.3250 C   0  0  0  0  0  0  0  0  0  0  0  0
  186.1310  178.2180  146.1970 C   0  0  0  0  0  3  0  0  0  0  0  0
  191.5670  176.7620  144.9160 C   0  0  0  0  0  3  0  0  0  0  0  0
  187.4510  177.7890  142.2330 C   0  0  0  0  0  3  0  0  0  0  0  0
  188.7290  177.4600  141.9160 N   0  0  0  0  0  0  0  0  0  0  0  0
  185.6710  178.2830  143.8150 C   0  0  0  0  0  0  0  0  0  0  0  0
  190.0100  177.2530  146.5950 N   0  0  0  0  0  2  0  0  0  0  0  0
  191.9050  176.6190  143.5740 C   0  0  0  0  0  3  0  0  0  0  0  0
  182.8570  178.6280  144.3440 C   0  0  0  0  0  2  0  0  0  0  0  0
  184.6840  178.4210  142.6750 C   0  0  0  0  0  2  0  0  0  0  0  0
  188.5580  177.8240  138.1870 C   0  0  0  0  0  0  0  0  0  0  0  0
  187.7730  178.3980  137.2420 F   0  0  0  0  0  0  0  0  0  0  0  0
  189.0520  177.3520  140.5190 C   0  0  0  0  0  0  0  0  0  0  0  0
  189.6900  177.1020  137.8010 C   0  0  0  0  0  3  0  0  0  0  0  0
  190.1810  176.6210  140.1200 C   0  0  0  0  0  3  0  0  0  0  0  0
  188.2340  177.9480  139.5430 C   0  0  0  0  0  0  0  0  0  0  0  0
  187.1170  178.6280  139.9050 F   0  0  0  0  0  0  0  0  0  0  0  0
  190.5070  176.4940  138.7670 C   0  0  0  0  0  0  0  0  0  0  0  0
  192.8490  176.3780  137.9800 C   0  0  0  0  0  1  0  0  0  0  0  0
  191.6430  175.7630  138.4110 O   0  0  0  0  0  0  0  0  0  0  0  0
  190.9710  177.0270  147.6680 C   0  0  0  0  0  2  0  0  0  0  0  0
  191.5480  175.6340  147.5390 C   0  0  0  0  0  2  0  0  0  0  0  0
  192.8530  175.6250  148.0300 O   0  0  0  0  0  1  0  0  0  0  0  0
  1  3  1  1  0  0  0
  1  4  1  0  0  0  0
  2 15  1  0  0  0  0
  2  7  1  0  0  0  0
  3 17  2  0  0  0  0
  4  7  2  0  0  0  0
  4 10  1  0  0  0  0
  5 11  2  0  0  0  0
  6 18  1  0  0  0  0
  7  5  1  0  0  0  0
  9  8  1  0  0  0  0
  9 11  1  0  0  0  0
 10 16  1  0  0  0  0
 12 10  2  0  0  0  0
 13  2  2  0  0  0  0
 14 13  1  0  0  0  0
 14  1  1  0  0  0  0
 15  9  2  0  0  0  0
 16 30  1  0  0  0  0
 17 12  1  0  0  0  0
 18  8  1  0  0  0  0
 19  6  1  0  0  0  0
 19 15  1  0  0  0  0
 20 25  1  0  0  0  0
 21 20  1  0  0  0  0
 22 14  1  0  0  0  0
 23 20  2  0  0  0  0
 23 27  1  0  0  0  0
 24 22  1  0  0  0  0
 25 26  1  0  0  0  0
 25 22  2  0  0  0  0
 27 24  2  0  0  0  0
 28 29  1  0  0  0  0
 29 27  1  0  0  0  0
 31 30  1  0  0  0  0
 31 32  1  0  0  0  0
M  END
>  <MODEL>
4

>  <REMARK>
 VINA RESULT:     -10.4      3.212      5.906
  Name = 
  4 active torsions:
  status: ('A' for Active; 'I' for Inactive)
    1  A    between atoms: C_13  and  C_18
    2  A    between atoms: O_15  and  C_26
    3  A    between atoms: C_16  and  N_27
    4  A    between atoms: C_18  and  N_29
                            x       y       z     vdW  Elec       q    Type
                         _______ _______ _______ _____ _____    ______ ____

>  <TORSDO>
F 4

$$$$
=
 OpenBabel11052414403D

 32 36  0  0  0  0  0  0  0  0999 V2000
  186.3850  178.1180  144.2700 C   0  0  0  0  0  0  0  0  0  0  0  0
  186.9140  178.2040  141.5120 C   0  0  0  0  0  0  0  0  0  0  0  0
  186.1070  178.0390  145.6400 C   0  0  0  0  0  3  0  0  0  0  0  0
  185.2760  178.4590  143.3230 C   0  0  0  0  0  0  0  0  0  0  0  0
  184.6280  178.7890  140.9610 C   0  0  0  0  0  3  0  0  0  0  0  0
  188.9510  178.3330  138.2740 C   0  0  0  0  0  2  0  0  0  0  0  0
  185.5920  178.4900  141.9380 C   0  0  0  0  0  0  0  0  0  0  0  0
  186.5480  178.6290  137.7170 C   0  0  0  0  0  2  0  0  0  0  0  0
  186.2410  178.5150  139.1840 C   0  0  0  0  0  0  0  0  0  0  0  0
  183.9850  178.7180  143.8710 C   0  0  0  0  0  0  0  0  0  0  0  0
  184.9480  178.8080  139.6070 C   0  0  0  0  0  3  0  0  0  0  0  0
  183.7960  178.6270  145.2600 C   0  0  0  0  0  3  0  0  0  0  0  0
  187.8960  177.8990  142.4570 C   0  0  0  0  0  3  0  0  0  0  0  0
  187.6440  177.8650  143.7900 N   0  0  0  0  0  0  0  0  0  0  0  0
  187.2440  178.2270  140.1370 C   0  0  0  0  0  0  0  0  0  0  0  0
  182.9810  179.0340  143.1030 N   0  0  0  0  0  0  0  0  0  0  0  0
  184.8320  178.2930  146.1270 C   0  0  0  0  0  3  0  0  0  0  0  0
  187.8350  177.9080  137.3340 C   0  0  0  0  0  2  0  0  0  0  0  0
  188.6360  177.8430  139.6830 C   0  0  0  0  0  2  0  0  0  0  0  0
  190.9480  176.5910  145.0270 C   0  0  0  0  0  0  0  0  0  0  0  0
  192.0560  175.9700  144.5520 F   0  0  0  0  0  0  0  0  0  0  0  0
  188.7440  177.5480  144.6600 C   0  0  0  0  0  0  0  0  0  0  0  0
  190.8620  176.9130  146.3820 C   0  0  0  0  0  3  0  0  0  0  0  0
  188.6640  177.8570  146.0250 C   0  0  0  0  0  3  0  0  0  0  0  0
  189.8910  176.9010  144.1630 C   0  0  0  0  0  0  0  0  0  0  0  0
  189.9720  176.5590  142.8530 F   0  0  0  0  0  0  0  0  0  0  0  0
  189.7180  177.5480  146.8900 C   0  0  0  0  0  0  0  0  0  0  0  0
  188.3640  178.2350  148.8430 C   0  0  0  0  0  1  0  0  0  0  0  0
  189.6020  177.8780  148.2430 O   0  0  0  0  0  0  0  0  0  0  0  0
  181.6310  179.3140  143.5760 C   0  0  0  0  0  2  0  0  0  0  0  0
  180.7060  179.4710  142.3890 C   0  0  0  0  0  2  0  0  0  0  0  0
  180.0550  180.7010  142.4670 O   0  0  0  0  0  1  0  0  0  0  0  0
  1  3  2  0  0  0  0
  2  7  1  0  0  0  0
  2 13  2  0  0  0  0
  3 17  1  0  0  0  0
  4 10  1  0  0  0  0
  4  1  1  0  0  0  0
  5  7  1  0  0  0  0
  6 19  1  0  0  0  0
  7  4  2  0  0  0  0
  8  9  1  0  0  0  0
  9 11  1  0  0  0  0
  9 15  2  0  0  0  0
 10 12  1  0  0  0  0
 11  5  2  0  0  0  0
 12 17  2  0  0  0  0
 13 14  1  0  0  0  0
 14  1  1  0  0  0  0
 14 22  1  0  0  0  0
 15  2  1  0  0  0  0
 16 30  1  0  0  0  0
 16 10  2  0  0  0  0
 18  8  1  0  0  0  0
 18  6  1  0  0  0  0
 19 15  1  0  0  0  0
 20 23  1  0  0  0  0
 21 20  1  0  0  0  0
 22 24  2  0  0  0  0
 23 27  2  0  0  0  0
 24 27  1  0  0  0  0
 25 22  1  0  0  0  0
 25 20  2  0  0  0  0
 26 25  1  0  0  0  0
 27 29  1  0  0  0  0
 29 28  1  0  0  0  0
 31 32  1  0  0  0  0
 31 30  1  0  0  0  0
M  END
>  <MODEL>
5

>  <REMARK>
 VINA RESULT:     -10.0      2.356      5.969
  Name = 
  4 active torsions:
  status: ('A' for Active; 'I' for Inactive)
    1  A    between atoms: C_13  and  C_18
    2  A    between atoms: O_15  and  C_26
    3  A    between atoms: C_16  and  N_27
    4  A    between atoms: C_18  and  N_29
                            x       y       z     vdW  Elec       q    Type
                         _______ _______ _______ _____ _____    ______ ____

>  <TORSDO>
F 4

$$$$
=
 OpenBabel11052414403D

 32 36  0  0  0  0  0  0  0  0999 V2000
  187.2860  178.0280  141.5720 C   0  0  0  0  0  0  0  0  0  0  0  0
  188.8490  177.4470  143.8320 C   0  0  0  0  0  0  0  0  0  0  0  0
  186.5030  178.2800  140.4380 C   0  0  0  0  0  3  0  0  0  0  0  0
  188.7340  177.6920  141.3920 C   0  0  0  0  0  0  0  0  0  0  0  0
  190.8460  177.0690  142.5140 C   0  0  0  0  0  3  0  0  0  0  0  0
  189.8460  177.2460  147.5230 C   0  0  0  0  0  2  0  0  0  0  0  0
  189.4830  177.4050  142.5660 C   0  0  0  0  0  0  0  0  0  0  0  0
  191.7900  176.5690  146.1330 C   0  0  0  0  0  2  0  0  0  0  0  0
  190.9440  176.8090  144.9140 C   0  0  0  0  0  0  0  0  0  0  0  0
  189.2570  177.6720  140.0660 C   0  0  0  0  0  0  0  0  0  0  0  0
  191.5670  176.7820  143.6690 C   0  0  0  0  0  3  0  0  0  0  0  0
  188.4020  177.9480  138.9850 C   0  0  0  0  0  3  0  0  0  0  0  0
  187.4930  177.7750  143.9190 C   0  0  0  0  0  3  0  0  0  0  0  0
  186.7400  178.0640  142.8280 N   0  0  0  0  0  0  0  0  0  0  0  0
  189.5790  177.1610  145.0090 C   0  0  0  0  0  0  0  0  0  0  0  0
  190.5110  177.4020  139.8430 N   0  0  0  0  0  0  0  0  0  0  0  0
  187.0550  178.2430  139.1650 C   0  0  0  0  0  3  0  0  0  0  0  0
  190.9570  176.2220  147.3610 C   0  0  0  0  0  2  0  0  0  0  0  0
  188.8780  177.1280  146.3500 C   0  0  0  0  0  2  0  0  0  0  0  0
  183.5500  179.0480  144.5390 C   0  0  0  0  0  0  0  0  0  0  0  0
  183.1040  179.3810  145.7750 F   0  0  0  0  0  0  0  0  0  0  0  0
  185.3580  178.3950  143.0520 C   0  0  0  0  0  0  0  0  0  0  0  0
  182.6550  179.0080  143.4680 C   0  0  0  0  0  3  0  0  0  0  0  0
  184.4490  178.3480  141.9860 C   0  0  0  0  0  3  0  0  0  0  0  0
  184.9000  178.7380  144.3370 C   0  0  0  0  0  0  0  0  0  0  0  0
  185.7560  178.7530  145.3900 F   0  0  0  0  0  0  0  0  0  0  0  0
  183.1000  178.6560  142.1840 C   0  0  0  0  0  0  0  0  0  0  0  0
  182.2880  177.5800  140.1100 C   0  0  0  0  0  1  0  0  0  0  0  0
  182.2270  178.6030  141.0950 O   0  0  0  0  0  0  0  0  0  0  0  0
  191.1290  177.3590  138.5230 C   0  0  0  0  0  2  0  0  0  0  0  0
  191.8240  176.0280  138.3370 C   0  0  0  0  0  2  0  0  0  0  0  0
  190.8780  175.0040  138.3520 O   0  0  0  0  0  1  0  0  0  0  0  0
  1 14  1  0  0  0  0
  2 13  2  0  0  0  0
  2 15  1  0  0  0  0
  3  1  2  0  0  0  0
  4  1  1  0  0  0  0
  4  7  2  0  0  0  0
  5  7  1  0  0  0  0
  5 11  2  0  0  0  0
  7  2  1  0  0  0  0
  8 18  1  0  0  0  0
  9 15  2  0  0  0  0
  9  8  1  0  0  0  0
 10  4  1  0  0  0  0
 11  9  1  0  0  0  0
 12 17  2  0  0  0  0
 12 10  1  0  0  0  0
 14 22  1  0  0  0  0
 14 13  1  0  0  0  0
 15 19  1  0  0  0  0
 16 10  2  0  0  0  0
 17  3  1  0  0  0  0
 18  6  1  0  0  0  0
 19  6  1  0  0  0  0
 20 21  1  0  0  0  0
 22 25  2  0  0  0  0
 23 20  2  0  0  0  0
 24 27  2  0  0  0  0
 24 22  1  0  0  0  0
 25 20  1  0  0  0  0
 25 26  1  0  0  0  0
 27 23  1  0  0  0  0
 28 29  1  0  0  0  0
 29 27  1  0  0  0  0
 30 16  1  0  0  0  0
 31 32  1  0  0  0  0
 31 30  1  0  0  0  0
M  END
>  <MODEL>
6

>  <REMARK>
 VINA RESULT:     -10.0      2.556      6.389
  Name = 
  4 active torsions:
  status: ('A' for Active; 'I' for Inactive)
    1  A    between atoms: C_13  and  C_18
    2  A    between atoms: O_15  and  C_26
    3  A    between atoms: C_16  and  N_27
    4  A    between atoms: C_18  and  N_29
                            x       y       z     vdW  Elec       q    Type
                         _______ _______ _______ _____ _____    ______ ____

>  <TORSDO>
F 4

$$$$
=
 OpenBabel11052414403D

 32 36  0  0  1  0  0  0  0  0999 V2000
  185.4820  178.3390  143.9280 C   0  0  2  0  0  3  0  0  0  0  0  0
  187.8890  177.8490  142.5650 C   0  0  0  0  0  0  0  0  0  0  0  0
  184.2930  178.6210  144.6130 C   0  0  0  0  0  3  0  0  0  0  0  0
  186.7290  178.0840  144.7170 C   0  0  0  0  0  0  0  0  0  0  0  0
  189.1510  177.5980  144.6180 C   0  0  0  0  0  3  0  0  0  0  0  0
  190.2340  177.0070  139.6590 C   0  0  0  0  0  2  0  0  0  0  0  0
  187.9220  177.8410  143.9820 C   0  0  0  0  0  0  0  0  0  0  0  0
  191.5550  177.0580  141.7620 C   0  0  0  0  0  2  0  0  0  0  0  0
  190.2870  177.3900  142.4970 C   0  0  0  0  0  0  0  0  0  0  0  0
  186.6390  178.1110  146.1390 C   0  0  0  0  0  0  0  0  0  0  0  0
  190.3130  177.3700  143.8890 C   0  0  0  0  0  3  0  0  0  0  0  0
  185.4020  178.3910  146.7450 C   0  0  0  0  0  3  0  0  0  0  0  0
  186.6840  178.0900  141.9010 C   0  0  0  0  0  3  0  0  0  0  0  0
  185.5190  178.3190  142.5590 N   0  0  0  0  0  0  0  0  0  0  0  0
  189.0670  177.6120  141.8200 C   0  0  0  0  0  0  0  0  0  0  0  0
  187.6840  177.8820  146.8830 N   0  0  0  0  0  2  0  0  0  0  0  0
  184.2550  178.6430  146.0000 C   0  0  0  0  0  3  0  0  0  0  0  0
  191.5170  177.5030  140.3040 C   0  0  0  0  0  2  0  0  0  0  0  0
  189.0420  177.7020  140.3090 C   0  0  0  0  0  2  0  0  0  0  0  0
  183.3030  179.1040  139.6350 C   0  0  0  0  0  0  0  0  0  0  0  0
  183.4050  179.4230  138.3220 F   0  0  0  0  0  0  0  0  0  0  0  0
  184.3450  178.5450  141.7580 C   0  0  0  0  0  0  0  0  0  0  0  0
  182.0430  179.0080  140.2280 C   0  0  0  0  0  3  0  0  0  0  0  0
  183.0750  178.4610  142.3470 C   0  0  0  0  0  3  0  0  0  0  0  0
  184.4560  178.8780  140.3970 C   0  0  0  0  0  0  0  0  0  0  0  0
  185.6770  179.0000  139.8170 F   0  0  0  0  0  0  0  0  0  0  0  0
  181.9220  178.6870  141.5900 C   0  0  0  0  0  0  0  0  0  0  0  0
  180.5150  178.6270  143.6230 C   0  0  0  0  0  1  0  0  0  0  0  0
  180.6750  178.5890  142.2120 O   0  0  0  0  0  0  0  0  0  0  0  0
  187.6830  177.8910  148.3410 C   0  0  0  0  0  2  0  0  0  0  0  0
  189.0650  178.2520  148.8410 C   0  0  0  0  0  2  0  0  0  0  0  0
  190.0220  177.5680  148.0950 O   0  0  0  0  0  1  0  0  0  0  0  0
  1  3  1  6  0  0  0
  1  4  1  0  0  0  0
  2  7  1  0  0  0  0
  3 17  2  0  0  0  0
  4 10  1  0  0  0  0
  6 18  1  0  0  0  0
  6 19  1  0  0  0  0
  7  5  1  0  0  0  0
  7  4  2  0  0  0  0
  8  9  1  0  0  0  0
  9 11  1  0  0  0  0
 10 12  2  0  0  0  0
 10 16  1  0  0  0  0
 11  5  2  0  0  0  0
 13 14  1  0  0  0  0
 13  2  2  0  0  0  0
 14  1  1  0  0  0  0
 15  9  2  0  0  0  0
 15  2  1  0  0  0  0
 16 30  1  0  0  0  0
 17 12  1  0  0  0  0
 18  8  1  0  0  0  0
 19 15  1  0  0  0  0
 20 23  2  0  0  0  0
 20 25  1  0  0  0  0
 21 20  1  0  0  0  0
 22 24  1  0  0  0  0
 22 14  1  0  0  0  0
 23 27  1  0  0  0  0
 25 22  2  0  0  0  0
 26 25  1  0  0  0  0
 27 29  1  0  0  0  0
 27 24  2  0  0  0  0
 29 28  1  0  0  0  0
 30 31  1  0  0  0  0
 32 31  1  0  0  0  0
M  END
>  <MODEL>
7

>  <REMARK>
 VINA RESULT:     -10.0      2.910      6.437
  Name = 
  4 active torsions:
  status: ('A' for Active; 'I' for Inactive)
    1  A    between atoms: C_13  and  C_18
    2  A    between atoms: O_15  and  C_26
    3  A    between atoms: C_16  and  N_27
    4  A    between atoms: C_18  and  N_29
                            x       y       z     vdW  Elec       q    Type
                         _______ _______ _______ _____ _____    ______ ____

>  <TORSDO>
F 4

$$$$
=
 OpenBabel11052414403D

 32 36  0  0  1  0  0  0  0  0999 V2000
  189.3340  177.7070  143.0190 C   0  0  2  0  0  3  0  0  0  0  0  0
  186.5700  178.1380  143.2770 C   0  0  0  0  0  0  0  0  0  0  0  0
  190.7070  177.4550  142.8980 C   0  0  0  0  0  3  0  0  0  0  0  0
  188.7400  177.8420  144.3870 C   0  0  0  0  0  0  0  0  0  0  0  0
  186.6730  178.1910  145.6970 C   0  0  0  0  0  3  0  0  0  0  0  0
  182.9870  179.0170  142.2540 C   0  0  0  0  0  2  0  0  0  0  0  0
  187.3370  178.0590  144.4660 C   0  0  0  0  0  0  0  0  0  0  0  0
  183.0730  178.7610  144.7240 C   0  0  0  0  0  2  0  0  0  0  0  0
  184.5400  178.4600  144.5960 C   0  0  0  0  0  0  0  0  0  0  0  0
  189.6120  177.7340  145.5100 C   0  0  0  0  0  0  0  0  0  0  0  0
  185.2980  178.3950  145.7620 C   0  0  0  0  0  3  0  0  0  0  0  0
  190.9800  177.4900  145.2970 C   0  0  0  0  0  3  0  0  0  0  0  0
  187.1990  178.0080  142.0360 C   0  0  0  0  0  3  0  0  0  0  0  0
  188.5360  177.8080  141.9110 N   0  0  0  0  0  0  0  0  0  0  0  0
  185.1740  178.3510  143.3380 C   0  0  0  0  0  0  0  0  0  0  0  0
  189.1610  177.8560  146.7250 N   0  0  0  0  0  2  0  0  0  0  0  0
  191.5160  177.3500  144.0210 C   0  0  0  0  0  3  0  0  0  0  0  0
  182.2940  178.4090  143.4620 C   0  0  0  0  0  2  0  0  0  0  0  0
  184.3480  178.3540  142.0690 C   0  0  0  0  0  2  0  0  0  0  0  0
  190.5560  176.6630  138.9650 C   0  0  0  0  0  0  0  0  0  0  0  0
  191.5050  175.7440  138.6610 F   0  0  0  0  0  0  0  0  0  0  0  0
  189.0620  177.7000  140.5770 C   0  0  0  0  0  0  0  0  0  0  0  0
  190.0910  177.5310  137.9750 C   0  0  0  0  0  3  0  0  0  0  0  0
  188.6090  178.5740  139.5770 C   0  0  0  0  0  3  0  0  0  0  0  0
  190.0480  176.7470  140.2670 C   0  0  0  0  0  0  0  0  0  0  0  0
  190.5260  175.9160  141.2270 F   0  0  0  0  0  0  0  0  0  0  0  0
  189.1150  178.4950  138.2770 C   0  0  0  0  0  0  0  0  0  0  0  0
  187.5550  179.0580  136.4420 C   0  0  0  0  0  1  0  0  0  0  0  0
  188.6350  179.3800  137.3090 O   0  0  0  0  0  0  0  0  0  0  0  0
  189.9790  177.7600  147.9280 C   0  0  0  0  0  2  0  0  0  0  0  0
  189.1840  178.2550  149.1170 C   0  0  0  0  0  2  0  0  0  0  0  0
  187.8520  177.8720  148.9760 O   0  0  0  0  0  1  0  0  0  0  0  0
  1  3  1  1  0  0  0
  1  4  1  0  0  0  0
  2 15  1  0  0  0  0
  2  7  1  0  0  0  0
  3 17  2  0  0  0  0
  4  7  2  0  0  0  0
  4 10  1  0  0  0  0
  5 11  2  0  0  0  0
  6 18  1  0  0  0  0
  7  5  1  0  0  0  0
  9  8  1  0  0  0  0
  9 11  1  0  0  0  0
 10 16  1  0  0  0  0
 12 10  2  0  0  0  0
 13  2  2  0  0  0  0
 14 13  1  0  0  0  0
 14  1  1  0  0  0  0
 15  9  2  0  0  0  0
 16 30  1  0  0  0  0
 17 12  1  0  0  0  0
 18  8  1  0  0  0  0
 19  6  1  0  0  0  0
 19 15  1  0  0  0  0
 20 25  1  0  0  0  0
 21 20  1  0  0  0  0
 22 14  1  0  0  0  0
 23 27  1  0  0  0  0
 23 20  2  0  0  0  0
 24 22  1  0  0  0  0
 25 22  2  0  0  0  0
 25 26  1  0  0  0  0
 27 24  2  0  0  0  0
 28 29  1  0  0  0  0
 29 27  1  0  0  0  0
 30 31  1  0  0  0  0
 32 31  1  0  0  0  0
M  END
>  <MODEL>
8

>  <REMARK>
 VINA RESULT:      -9.9      2.321      5.124
  Name = 
  4 active torsions:
  status: ('A' for Active; 'I' for Inactive)
    1  A    between atoms: C_13  and  C_18
    2  A    between atoms: O_15  and  C_26
    3  A    between atoms: C_16  and  N_27
    4  A    between atoms: C_18  and  N_29
                            x       y       z     vdW  Elec       q    Type
                         _______ _______ _______ _____ _____    ______ ____

>  <TORSDO>
F 4

$$$$
=
 OpenBabel11052414403D

 32 36  0  0  1  0  0  0  0  0999 V2000
  189.3740  177.3630  141.6080 C   0  0  2  0  0  3  0  0  0  0  0  0
  186.9480  178.0030  142.8710 C   0  0  0  0  0  0  0  0  0  0  0  0
  190.5760  177.0060  140.9850 C   0  0  0  0  0  3  0  0  0  0  0  0
  189.3120  177.3850  143.1050 C   0  0  0  0  0  0  0  0  0  0  0  0
  187.8880  177.7560  145.0900 C   0  0  0  0  0  3  0  0  0  0  0  0
  183.3720  179.3120  143.2710 C   0  0  0  0  0  2  0  0  0  0  0  0
  188.0620  177.7140  143.6970 C   0  0  0  0  0  0  0  0  0  0  0  0
  184.2750  178.7560  145.5180 C   0  0  0  0  0  2  0  0  0  0  0  0
  185.5570  178.3430  144.8510 C   0  0  0  0  0  0  0  0  0  0  0  0
  190.4990  177.0660  143.8280 C   0  0  0  0  0  0  0  0  0  0  0  0
  186.6580  178.0720  145.6590 C   0  0  0  0  0  3  0  0  0  0  0  0
  191.6660  176.7300  143.1220 C   0  0  0  0  0  3  0  0  0  0  0  0
  187.0860  177.9670  141.4810 C   0  0  0  0  0  3  0  0  0  0  0  0
  188.2600  177.6660  140.8710 N   0  0  0  0  0  0  0  0  0  0  0  0
  185.6970  178.3300  143.4450 C   0  0  0  0  0  0  0  0  0  0  0  0
  190.5160  177.0820  145.1300 N   0  0  0  0  0  2  0  0  0  0  0  0
  191.7040  176.6970  141.7310 C   0  0  0  0  0  3  0  0  0  0  0  0
  183.0690  178.6270  144.5940 C   0  0  0  0  0  2  0  0  0  0  0  0
  184.4900  178.5580  142.5590 C   0  0  0  0  0  2  0  0  0  0  0  0
  188.8610  178.7260  137.3230 C   0  0  0  0  0  0  0  0  0  0  0  0
  189.4340  179.7440  136.6350 F   0  0  0  0  0  0  0  0  0  0  0  0
  188.2730  177.6720  139.4330 C   0  0  0  0  0  0  0  0  0  0  0  0
  188.2590  177.6750  136.6300 C   0  0  0  0  0  3  0  0  0  0  0  0
  187.6620  176.6260  138.7260 C   0  0  0  0  0  3  0  0  0  0  0  0
  188.8670  178.7320  138.7230 C   0  0  0  0  0  0  0  0  0  0  0  0
  189.4300  179.7720  139.3870 F   0  0  0  0  0  0  0  0  0  0  0  0
  187.6530  176.6180  137.3290 C   0  0  0  0  0  0  0  0  0  0  0  0
  185.6680  175.2270  136.8400 C   0  0  0  0  0  1  0  0  0  0  0  0
  187.0390  175.5550  136.6620 O   0  0  0  0  0  0  0  0  0  0  0  0
  191.6810  176.7700  145.9490 C   0  0  0  0  0  2  0  0  0  0  0  0
  191.2270  176.3780  147.3390 C   0  0  0  0  0  2  0  0  0  0  0  0
  190.1580  177.1840  147.7230 O   0  0  0  0  0  1  0  0  0  0  0  0
  1  3  1  1  0  0  0
  1  4  1  0  0  0  0
  2 15  1  0  0  0  0
  2  7  1  0  0  0  0
  3 17  2  0  0  0  0
  4  7  2  0  0  0  0
  4 10  1  0  0  0  0
  5 11  2  0  0  0  0
  6 18  1  0  0  0  0
  7  5  1  0  0  0  0
  9  8  1  0  0  0  0
  9 11  1  0  0  0  0
 10 16  1  0  0  0  0
 12 10  2  0  0  0  0
 13  2  2  0  0  0  0
 14 13  1  0  0  0  0
 14  1  1  0  0  0  0
 15  9  2  0  0  0  0
 16 30  1  0  0  0  0
 17 12  1  0  0  0  0
 18  8  1  0  0  0  0
 19  6  1  0  0  0  0
 19 15  1  0  0  0  0
 20 25  1  0  0  0  0
 21 20  1  0  0  0  0
 22 14  1  0  0  0  0
 23 20  2  0  0  0  0
 23 27  1  0  0  0  0
 24 22  1  0  0  0  0
 25 26  1  0  0  0  0
 25 22  2  0  0  0  0
 27 24  2  0  0  0  0
 29 28  1  0  0  0  0
 29 27  1  0  0  0  0
 30 31  1  0  0  0  0
 31 32  1  0  0  0  0
M  END
>  <MODEL>
9

>  <REMARK>
 VINA RESULT:      -9.8      2.944      5.619
  Name = 
  4 active torsions:
  status: ('A' for Active; 'I' for Inactive)
    1  A    between atoms: C_13  and  C_18
    2  A    between atoms: O_15  and  C_26
    3  A    between atoms: C_16  and  N_27
    4  A    between atoms: C_18  and  N_29
                            x       y       z     vdW  Elec       q    Type
                         _______ _______ _______ _____ _____    ______ ____

>  <TORSDO>
F 4

$$$$
