=
 OpenBabel11052415263D

 37 39  0  0  1  0  0  0  0  0999 V2000
  183.9250  179.7540  138.9470 C   0  0  0  0  0  2  0  0  0  0  0  0
  181.0700  176.8570  140.5390 C   0  0  0  0  0  2  0  0  0  0  0  0
  184.7500  178.5080  138.5720 C   0  0  2  0  0  3  0  0  0  0  0  0
  182.1730  177.5670  139.7520 C   0  0  2  0  0  3  0  0  0  0  0  0
  181.6470  178.7590  139.0060 C   0  0  0  0  0  3  0  0  0  0  0  0
  182.9420  176.6000  138.8230 C   0  0  1  0  0  3  0  0  0  0  0  0
  180.9590  175.0510  138.8220 C   0  0  0  0  0  2  0  0  0  0  0  0
  182.4540  179.7370  138.5880 C   0  0  0  0  0  0  0  0  0  0  0  0
  181.9720  175.7860  137.9550 C   0  0  0  0  0  2  0  0  0  0  0  0
  183.9470  177.3480  137.9240 C   0  0  2  0  0  3  0  0  0  0  0  0
  180.1460  176.0590  139.6230 C   0  0  1  0  0  3  0  0  0  0  0  0
  179.1920  175.3890  140.3900 O   0  0  0  0  0  0  0  0  0  0  0  0
  179.6900  174.0930  140.5300 C   0  0  0  0  0  1  0  0  0  0  0  0
  180.5850  180.7050  137.3010 C   0  0  0  0  0  1  0  0  0  0  0  0
  181.8940  180.7790  137.8460 O   0  0  0  0  0  0  0  0  0  0  0  0
  185.7340  178.1920  139.7160 C   0  0  1  0  0  3  0  0  0  0  0  0
  187.9220  178.9200  140.3370 O   0  0  0  0  0  1  0  0  0  0  0  0
  187.2210  178.1730  139.3910 C   0  0  0  0  0  2  0  0  0  0  0  0
  185.4190  178.9750  140.9860 C   0  0  0  0  0  2  0  0  0  0  0  0
  184.6820  178.1290  142.0130 C   0  0  0  0  0  2  0  0  0  0  0  0
  186.7120  177.4960  143.3320 C   0  0  0  0  0  3  0  0  0  0  0  0
  185.4460  178.0900  143.2900 C   0  0  0  0  0  0  0  0  0  0  0  0
  184.8880  178.6280  144.4550 C   0  0  0  0  0  3  0  0  0  0  0  0
  185.0470  179.1170  146.8120 O   0  0  0  0  0  1  0  0  0  0  0  0
  186.8660  177.9900  145.6980 C   0  0  0  0  0  3  0  0  0  0  0  0
  185.5990  178.5800  145.6580 C   0  0  0  0  0  0  0  0  0  0  0  0
  187.4230  177.4470  144.5350 C   0  0  0  0  0  3  0  0  0  0  0  0
  184.6700  176.4950  136.8650 C   0  0  1  0  0  3  0  0  0  0  0  0
  185.2500  177.3310  135.7640 C   0  0  0  0  0  0  0  0  0  0  0  0
  184.5860  177.6170  134.7800 O   0  0  0  0  0  0  0  0  0  0  0  0
  187.4190  177.5000  134.5940 C   0  0  0  0  0  1  0  0  0  0  0  0
  186.6620  177.8000  135.8750 C   0  0  0  0  0  2  0  0  0  0  0  0
  185.6950  175.5180  137.4230 C   0  0  0  0  0  2  0  0  0  0  0  0
  185.5780  174.1760  136.7280 C   0  0  0  0  0  2  0  0  0  0  0  0
  185.2140  173.1150  137.7420 C   0  0  0  0  0  2  0  0  0  0  0  0
  183.2400  172.7320  136.3570 C   0  0  0  0  0  2  0  0  0  0  0  0
  184.1610  172.2290  137.1750 C   0  0  0  0  0  3  0  0  0  0  0  0
  3  1  1  0  0  0  0
  3 16  1  1  0  0  0
  4  5  1  6  0  0  0
  4  2  1  0  0  0  0
  6  9  1  6  0  0  0
  6  4  1  0  0  0  0
  7 11  1  0  0  0  0
  8  1  1  0  0  0  0
  8  5  2  0  0  0  0
  9  7  1  0  0  0  0
 10 28  1  1  0  0  0
 10  3  1  0  0  0  0
 10  6  1  0  0  0  0
 11 12  1  1  0  0  0
 11  2  1  0  0  0  0
 12 13  1  0  0  0  0
 14 15  1  0  0  0  0
 15  8  1  0  0  0  0
 16 18  1  6  0  0  0
 16 19  1  0  0  0  0
 18 17  1  0  0  0  0
 19 20  1  0  0  0  0
 20 22  1  0  0  0  0
 21 27  1  0  0  0  0
 22 21  2  0  0  0  0
 22 23  1  0  0  0  0
 23 26  2  0  0  0  0
 26 25  1  0  0  0  0
 26 24  1  0  0  0  0
 27 25  2  0  0  0  0
 28 33  1  1  0  0  0
 29 32  1  0  0  0  0
 29 28  1  0  0  0  0
 30 29  2  0  0  0  0
 31 32  1  0  0  0  0
 34 33  1  0  0  0  0
 34 35  1  0  0  0  0
 36 37  2  0  0  0  0
 37 35  1  0  0  0  0
M  END
>  <MODEL>
1

>  <REMARK>
 VINA RESULT:      -5.9      0.000      0.000
  Name = 
  14 active torsions:
  status: ('A' for Active; 'I' for Inactive)
    1  A    between atoms: C_1  and  C_23
    2  A    between atoms: C_1  and  C_36
    3  A    between atoms: O_3  and  C_32
    4  A    between atoms: C_6  and  C_31
    5  A    between atoms: C_10  and  C_14
    6  A    between atoms: C_14  and  C_27
    7  A    between atoms: C_14  and  C_37
    8  A    between atoms: C_17  and  C_26
    9  A    between atoms: C_17  and  C_33
   10  A    between atoms: C_24  and  O_28
   11  A    between atoms: C_26  and  C_34
   12  A    between atoms: C_29  and  C_36
   13  A    between atoms: C_31  and  C_37
   14  A    between atoms: C_33  and  C_36
                            x       y       z     vdW  Elec       q    Type
                         _______ _______ _______ _____ _____    ______ ____

>  <TORSDO>
F 14

$$$$
=
 OpenBabel11052415263D

 37 39  0  0  1  0  0  0  0  0999 V2000
  183.5380  180.1920  138.6880 C   0  0  0  0  0  2  0  0  0  0  0  0
  181.0350  178.7600  141.9690 C   0  0  0  0  0  2  0  0  0  0  0  0
  183.7820  178.6950  138.4200 C   0  0  2  0  0  3  0  0  0  0  0  0
  181.8260  178.9070  140.6670 C   0  0  2  0  0  3  0  0  0  0  0  0
  181.3430  180.0700  139.8500 C   0  0  0  0  0  3  0  0  0  0  0  0
  181.8500  177.5960  139.8460 C   0  0  1  0  0  3  0  0  0  0  0  0
  179.7480  176.8500  141.0090 C   0  0  0  0  0  2  0  0  0  0  0  0
  182.1040  180.6270  138.9040 C   0  0  0  0  0  0  0  0  0  0  0  0
  180.4320  177.0400  139.6630 C   0  0  0  0  0  2  0  0  0  0  0  0
  182.5170  177.7950  138.4710 C   0  0  2  0  0  3  0  0  0  0  0  0
  179.6400  178.1930  141.7200 C   0  0  1  0  0  3  0  0  0  0  0  0
  178.9790  178.0270  142.9390 O   0  0  0  0  0  0  0  0  0  0  0  0
  179.8050  178.6430  143.8800 C   0  0  0  0  0  1  0  0  0  0  0  0
  180.6140  181.4300  137.1090 C   0  0  0  0  0  1  0  0  0  0  0  0
  181.5550  181.6630  138.1460 O   0  0  0  0  0  0  0  0  0  0  0  0
  185.0520  178.2480  139.1710 C   0  0  1  0  0  3  0  0  0  0  0  0
  186.3390  177.0740  137.5380 O   0  0  0  0  0  1  0  0  0  0  0  0
  186.3550  178.1800  138.3870 C   0  0  0  0  0  2  0  0  0  0  0  0
  185.2080  178.9510  140.5150 C   0  0  0  0  0  2  0  0  0  0  0  0
  186.4650  178.5100  141.2500 C   0  0  0  0  0  2  0  0  0  0  0  0
  187.0710  177.6370  143.5140 C   0  0  0  0  0  3  0  0  0  0  0  0
  186.1830  178.3500  142.7020 C   0  0  0  0  0  0  0  0  0  0  0  0
  185.0170  178.8940  143.2510 C   0  0  0  0  0  3  0  0  0  0  0  0
  183.5890  179.2750  145.1580 O   0  0  0  0  0  1  0  0  0  0  0  0
  185.6340  178.0240  145.4250 C   0  0  0  0  0  3  0  0  0  0  0  0
  184.7440  178.7320  144.6130 C   0  0  0  0  0  0  0  0  0  0  0  0
  186.7980  177.4750  144.8760 C   0  0  0  0  0  3  0  0  0  0  0  0
  182.4730  176.5860  137.5190 C   0  0  1  0  0  3  0  0  0  0  0  0
  182.7810  176.9680  136.1030 C   0  0  0  0  0  0  0  0  0  0  0  0
  183.8510  176.6700  135.5930 O   0  0  0  0  0  0  0  0  0  0  0  0
  180.3670  177.3180  135.7210 C   0  0  0  0  0  1  0  0  0  0  0  0
  181.7690  177.7350  135.3200 C   0  0  0  0  0  2  0  0  0  0  0  0
  183.3020  175.3900  137.9670 C   0  0  0  0  0  2  0  0  0  0  0  0
  182.7250  174.1070  137.4020 C   0  0  0  0  0  2  0  0  0  0  0  0
  183.8170  173.0640  137.3080 C   0  0  0  0  0  2  0  0  0  0  0  0
  186.2520  172.9860  137.4610 C   0  0  0  0  0  2  0  0  0  0  0  0
  185.1440  173.7210  137.4600 C   0  0  0  0  0  3  0  0  0  0  0  0
  1  8  1  0  0  0  0
  3 10  1  0  0  0  0
  3  1  1  0  0  0  0
  3 16  1  1  0  0  0
  4  5  1  6  0  0  0
  4  2  1  0  0  0  0
  6  9  1  6  0  0  0
  6  4  1  0  0  0  0
  7 11  1  0  0  0  0
  8  5  2  0  0  0  0
  9  7  1  0  0  0  0
 10 28  1  1  0  0  0
 10  6  1  0  0  0  0
 11  2  1  0  0  0  0
 11 12  1  1  0  0  0
 12 13  1  0  0  0  0
 14 15  1  0  0  0  0
 15  8  1  0  0  0  0
 16 18  1  6  0  0  0
 16 19  1  0  0  0  0
 17 18  1  0  0  0  0
 19 20  1  0  0  0  0
 20 22  1  0  0  0  0
 21 27  1  0  0  0  0
 22 23  1  0  0  0  0
 22 21  2  0  0  0  0
 23 26  2  0  0  0  0
 26 24  1  0  0  0  0
 26 25  1  0  0  0  0
 27 25  2  0  0  0  0
 28 33  1  1  0  0  0
 29 28  1  0  0  0  0
 30 29  2  0  0  0  0
 32 31  1  0  0  0  0
 32 29  1  0  0  0  0
 34 33  1  0  0  0  0
 35 34  1  0  0  0  0
 35 37  1  0  0  0  0
 37 36  2  0  0  0  0
M  END
>  <MODEL>
2

>  <REMARK>
 VINA RESULT:      -5.8      1.748      2.563
  Name = 
  14 active torsions:
  status: ('A' for Active; 'I' for Inactive)
    1  A    between atoms: C_1  and  C_23
    2  A    between atoms: C_1  and  C_36
    3  A    between atoms: O_3  and  C_32
    4  A    between atoms: C_6  and  C_31
    5  A    between atoms: C_10  and  C_14
    6  A    between atoms: C_14  and  C_27
    7  A    between atoms: C_14  and  C_37
    8  A    between atoms: C_17  and  C_26
    9  A    between atoms: C_17  and  C_33
   10  A    between atoms: C_24  and  O_28
   11  A    between atoms: C_26  and  C_34
   12  A    between atoms: C_29  and  C_36
   13  A    between atoms: C_31  and  C_37
   14  A    between atoms: C_33  and  C_36
                            x       y       z     vdW  Elec       q    Type
                         _______ _______ _______ _____ _____    ______ ____

>  <TORSDO>
F 14

$$$$
=
 OpenBabel11052415263D

 37 39  0  0  1  0  0  0  0  0999 V2000
  183.2220  180.1210  138.5830 C   0  0  0  0  0  2  0  0  0  0  0  0
  180.9480  178.8560  142.0920 C   0  0  0  0  0  2  0  0  0  0  0  0
  183.4120  178.6100  138.3480 C   0  0  2  0  0  3  0  0  0  0  0  0
  181.6390  178.9420  140.7290 C   0  0  2  0  0  3  0  0  0  0  0  0
  181.1200  180.0890  139.9120 C   0  0  0  0  0  3  0  0  0  0  0  0
  181.5730  177.6050  139.9550 C   0  0  1  0  0  3  0  0  0  0  0  0
  179.5500  176.9470  141.2990 C   0  0  0  0  0  2  0  0  0  0  0  0
  181.8180  180.5970  138.8920 C   0  0  0  0  0  0  0  0  0  0  0  0
  180.1330  177.0770  139.8990 C   0  0  0  0  0  2  0  0  0  0  0  0
  182.1360  177.7430  138.5270 C   0  0  2  0  0  3  0  0  0  0  0  0
  179.5250  178.3150  141.9700 C   0  0  1  0  0  3  0  0  0  0  0  0
  178.9570  178.2050  143.2400 O   0  0  0  0  0  0  0  0  0  0  0  0
  179.9860  178.5340  144.1220 C   0  0  0  0  0  1  0  0  0  0  0  0
  180.4740  181.3660  136.9710 C   0  0  0  0  0  1  0  0  0  0  0  0
  181.2350  181.6210  138.1430 O   0  0  0  0  0  0  0  0  0  0  0  0
  184.7260  178.1580  139.0160 C   0  0  1  0  0  3  0  0  0  0  0  0
  186.5820  178.9990  137.7720 O   0  0  0  0  0  1  0  0  0  0  0  0
  185.9060  177.8290  138.1130 C   0  0  0  0  0  2  0  0  0  0  0  0
  185.1140  179.0450  140.1940 C   0  0  0  0  0  2  0  0  0  0  0  0
  186.1520  178.3880  141.0900 C   0  0  0  0  0  2  0  0  0  0  0  0
  184.5650  179.1670  142.8600 C   0  0  0  0  0  3  0  0  0  0  0  0
  185.7260  178.4680  142.5140 C   0  0  0  0  0  0  0  0  0  0  0  0
  186.5000  177.8630  143.5100 C   0  0  0  0  0  3  0  0  0  0  0  0
  186.8760  177.3460  145.8370 O   0  0  0  0  0  1  0  0  0  0  0  0
  184.9460  178.6430  145.1950 C   0  0  0  0  0  3  0  0  0  0  0  0
  186.1090  177.9490  144.8490 C   0  0  0  0  0  0  0  0  0  0  0  0
  184.1740  179.2540  144.2000 C   0  0  0  0  0  3  0  0  0  0  0  0
  181.9930  176.5050  137.6220 C   0  0  1  0  0  3  0  0  0  0  0  0
  182.6110  176.7140  136.2730 C   0  0  0  0  0  0  0  0  0  0  0  0
  183.6700  176.1810  135.9800 O   0  0  0  0  0  0  0  0  0  0  0  0
  180.4230  177.3700  135.3320 C   0  0  0  0  0  1  0  0  0  0  0  0
  181.9230  177.5990  135.2880 C   0  0  0  0  0  2  0  0  0  0  0  0
  182.4570  175.1990  138.2510 C   0  0  0  0  0  2  0  0  0  0  0  0
  181.7480  174.0230  137.6100 C   0  0  0  0  0  2  0  0  0  0  0  0
  180.3180  173.9710  138.0980 C   0  0  0  0  0  2  0  0  0  0  0  0
  179.7760  173.7410  135.7280 C   0  0  0  0  0  2  0  0  0  0  0  0
  179.3940  174.1300  136.9410 C   0  0  0  0  0  3  0  0  0  0  0  0
  1  8  1  0  0  0  0
  3 10  1  0  0  0  0
  3  1  1  0  0  0  0
  3 16  1  1  0  0  0
  4  5  1  6  0  0  0
  4  2  1  0  0  0  0
  6  9  1  6  0  0  0
  6  4  1  0  0  0  0
  7 11  1  0  0  0  0
  8  5  2  0  0  0  0
  9  7  1  0  0  0  0
 10 28  1  1  0  0  0
 10  6  1  0  0  0  0
 11  2  1  0  0  0  0
 11 12  1  1  0  0  0
 12 13  1  0  0  0  0
 14 15  1  0  0  0  0
 15  8  1  0  0  0  0
 16 18  1  6  0  0  0
 16 19  1  0  0  0  0
 17 18  1  0  0  0  0
 19 20  1  0  0  0  0
 20 22  1  0  0  0  0
 21 27  1  0  0  0  0
 22 21  2  0  0  0  0
 22 23  1  0  0  0  0
 23 26  2  0  0  0  0
 26 25  1  0  0  0  0
 26 24  1  0  0  0  0
 27 25  2  0  0  0  0
 28 33  1  1  0  0  0
 29 28  1  0  0  0  0
 30 29  2  0  0  0  0
 32 31  1  0  0  0  0
 32 29  1  0  0  0  0
 34 35  1  0  0  0  0
 34 33  1  0  0  0  0
 36 37  2  0  0  0  0
 37 35  1  0  0  0  0
M  END
>  <MODEL>
3

>  <REMARK>
 VINA RESULT:      -5.6      1.992      3.060
  Name = 
  14 active torsions:
  status: ('A' for Active; 'I' for Inactive)
    1  A    between atoms: C_1  and  C_23
    2  A    between atoms: C_1  and  C_36
    3  A    between atoms: O_3  and  C_32
    4  A    between atoms: C_6  and  C_31
    5  A    between atoms: C_10  and  C_14
    6  A    between atoms: C_14  and  C_27
    7  A    between atoms: C_14  and  C_37
    8  A    between atoms: C_17  and  C_26
    9  A    between atoms: C_17  and  C_33
   10  A    between atoms: C_24  and  O_28
   11  A    between atoms: C_26  and  C_34
   12  A    between atoms: C_29  and  C_36
   13  A    between atoms: C_31  and  C_37
   14  A    between atoms: C_33  and  C_36
                            x       y       z     vdW  Elec       q    Type
                         _______ _______ _______ _____ _____    ______ ____

>  <TORSDO>
F 14

$$$$
=
 OpenBabel11052415263D

 37 39  0  0  1  0  0  0  0  0999 V2000
  183.8720  179.9180  139.1250 C   0  0  0  0  0  2  0  0  0  0  0  0
  180.9580  177.3920  141.1760 C   0  0  0  0  0  2  0  0  0  0  0  0
  184.6380  178.5990  138.9080 C   0  0  2  0  0  3  0  0  0  0  0  0
  182.0630  177.9400  140.2700 C   0  0  2  0  0  3  0  0  0  0  0  0
  181.5610  179.0380  139.3780 C   0  0  0  0  0  3  0  0  0  0  0  0
  182.7670  176.8210  139.4660 C   0  0  1  0  0  3  0  0  0  0  0  0
  180.7280  175.3710  139.7300 C   0  0  0  0  0  2  0  0  0  0  0  0
  182.3920  179.9140  138.8070 C   0  0  0  0  0  0  0  0  0  0  0  0
  181.7410  175.9370  138.7450 C   0  0  0  0  0  2  0  0  0  0  0  0
  183.7720  177.3950  138.4480 C   0  0  2  0  0  3  0  0  0  0  0  0
  179.9770  176.5140  140.4020 C   0  0  1  0  0  3  0  0  0  0  0  0
  179.0220  175.9970  141.2790 O   0  0  0  0  0  0  0  0  0  0  0  0
  178.9970  174.6280  141.0140 C   0  0  0  0  0  1  0  0  0  0  0  0
  180.8990  181.8290  138.3700 C   0  0  0  0  0  1  0  0  0  0  0  0
  181.8490  180.8650  137.9410 O   0  0  0  0  0  0  0  0  0  0  0  0
  185.6430  178.4040  140.0600 C   0  0  1  0  0  3  0  0  0  0  0  0
  187.8740  177.6510  140.4600 O   0  0  0  0  0  1  0  0  0  0  0  0
  187.1230  178.5890  139.7530 C   0  0  0  0  0  2  0  0  0  0  0  0
  185.2120  179.1210  141.3340 C   0  0  0  0  0  2  0  0  0  0  0  0
  184.6210  178.1650  142.3590 C   0  0  0  0  0  2  0  0  0  0  0  0
  186.7010  177.4850  143.5720 C   0  0  0  0  0  3  0  0  0  0  0  0
  185.4640  178.1400  143.5850 C   0  0  0  0  0  0  0  0  0  0  0  0
  185.0100  178.7520  144.7580 C   0  0  0  0  0  3  0  0  0  0  0  0
  185.3460  179.3270  147.0770 O   0  0  0  0  0  1  0  0  0  0  0  0
  187.0340  178.0670  145.9000 C   0  0  0  0  0  3  0  0  0  0  0  0
  185.7950  178.7170  145.9140 C   0  0  0  0  0  0  0  0  0  0  0  0
  187.4860  177.4500  144.7290 C   0  0  0  0  0  3  0  0  0  0  0  0
  184.4300  176.3740  137.5010 C   0  0  1  0  0  3  0  0  0  0  0  0
  183.6440  176.1850  136.2380 C   0  0  0  0  0  0  0  0  0  0  0  0
  183.2830  175.0720  135.8880 O   0  0  0  0  0  0  0  0  0  0  0  0
  181.8180  177.5820  135.3370 C   0  0  0  0  0  1  0  0  0  0  0  0
  183.3200  177.3750  135.3990 C   0  0  0  0  0  2  0  0  0  0  0  0
  185.9010  176.6300  137.2090 C   0  0  0  0  0  2  0  0  0  0  0  0
  186.5340  175.4090  136.5720 C   0  0  0  0  0  2  0  0  0  0  0  0
  187.9300  175.7520  136.1030 C   0  0  0  0  0  2  0  0  0  0  0  0
  189.2480  177.7870  136.3910 C   0  0  0  0  0  2  0  0  0  0  0  0
  188.4770  176.8530  136.9410 C   0  0  0  0  0  3  0  0  0  0  0  0
  3  1  1  0  0  0  0
  3 16  1  1  0  0  0
  4  5  1  6  0  0  0
  4  2  1  0  0  0  0
  6  9  1  6  0  0  0
  6  4  1  0  0  0  0
  7 11  1  0  0  0  0
  8  1  1  0  0  0  0
  8  5  2  0  0  0  0
  9  7  1  0  0  0  0
 10 28  1  1  0  0  0
 10  3  1  0  0  0  0
 10  6  1  0  0  0  0
 11  2  1  0  0  0  0
 11 12  1  1  0  0  0
 13 12  1  0  0  0  0
 15 14  1  0  0  0  0
 15  8  1  0  0  0  0
 16 18  1  6  0  0  0
 16 19  1  0  0  0  0
 18 17  1  0  0  0  0
 19 20  1  0  0  0  0
 20 22  1  0  0  0  0
 21 22  2  0  0  0  0
 21 27  1  0  0  0  0
 22 23  1  0  0  0  0
 23 26  2  0  0  0  0
 25 26  1  0  0  0  0
 26 24  1  0  0  0  0
 27 25  2  0  0  0  0
 28 33  1  6  0  0  0
 29 28  1  0  0  0  0
 30 29  2  0  0  0  0
 31 32  1  0  0  0  0
 32 29  1  0  0  0  0
 34 33  1  0  0  0  0
 35 34  1  0  0  0  0
 35 37  1  0  0  0  0
 36 37  2  0  0  0  0
M  END
>  <MODEL>
4

>  <REMARK>
 VINA RESULT:      -5.5      1.427      2.283
  Name = 
  14 active torsions:
  status: ('A' for Active; 'I' for Inactive)
    1  A    between atoms: C_1  and  C_23
    2  A    between atoms: C_1  and  C_36
    3  A    between atoms: O_3  and  C_32
    4  A    between atoms: C_6  and  C_31
    5  A    between atoms: C_10  and  C_14
    6  A    between atoms: C_14  and  C_27
    7  A    between atoms: C_14  and  C_37
    8  A    between atoms: C_17  and  C_26
    9  A    between atoms: C_17  and  C_33
   10  A    between atoms: C_24  and  O_28
   11  A    between atoms: C_26  and  C_34
   12  A    between atoms: C_29  and  C_36
   13  A    between atoms: C_31  and  C_37
   14  A    between atoms: C_33  and  C_36
                            x       y       z     vdW  Elec       q    Type
                         _______ _______ _______ _____ _____    ______ ____

>  <TORSDO>
F 14

$$$$
=
 OpenBabel11052415263D

 37 39  0  0  1  0  0  0  0  0999 V2000
  184.4100  178.9260  140.9980 C   0  0  0  0  0  2  0  0  0  0  0  0
  181.7390  181.3210  138.5050 C   0  0  0  0  0  2  0  0  0  0  0  0
  183.1230  178.1790  141.3960 C   0  0  2  0  0  3  0  0  0  0  0  0
  182.3910  180.2120  139.3340 C   0  0  2  0  0  3  0  0  0  0  0  0
  183.7250  179.8090  138.7770 C   0  0  0  0  0  3  0  0  0  0  0  0
  181.4540  178.9950  139.5200 C   0  0  1  0  0  3  0  0  0  0  0  0
  180.1920  179.6720  137.4510 C   0  0  0  0  0  2  0  0  0  0  0  0
  184.6330  179.1720  139.5200 C   0  0  0  0  0  0  0  0  0  0  0  0
  180.8900  178.5270  138.1720 C   0  0  0  0  0  2  0  0  0  0  0  0
  182.1690  177.8250  140.2240 C   0  0  2  0  0  3  0  0  0  0  0  0
  181.1910  180.7910  137.1830 C   0  0  1  0  0  3  0  0  0  0  0  0
  180.5610  181.8260  136.4900 O   0  0  0  0  0  0  0  0  0  0  0  0
  180.9820  182.9930  137.1290 C   0  0  0  0  0  1  0  0  0  0  0  0
  185.8450  178.0060  137.7140 C   0  0  0  0  0  1  0  0  0  0  0  0
  185.8230  178.7770  138.9070 O   0  0  0  0  0  0  0  0  0  0  0  0
  182.5400  178.8240  142.6700 C   0  0  1  0  0  3  0  0  0  0  0  0
  180.5040  178.7620  143.9140 O   0  0  0  0  0  1  0  0  0  0  0  0
  181.5940  177.9880  143.5210 C   0  0  0  0  0  2  0  0  0  0  0  0
  183.6030  179.5370  143.4980 C   0  0  0  0  0  2  0  0  0  0  0  0
  183.6120  179.0710  144.9450 C   0  0  0  0  0  2  0  0  0  0  0  0
  185.4470  178.7440  146.6140 C   0  0  0  0  0  3  0  0  0  0  0  0
  184.9610  178.5630  145.3140 C   0  0  0  0  0  0  0  0  0  0  0  0
  185.7540  177.9240  144.3550 C   0  0  0  0  0  3  0  0  0  0  0  0
  187.8120  176.8220  143.7450 O   0  0  0  0  0  1  0  0  0  0  0  0
  187.5100  177.6350  145.9970 C   0  0  0  0  0  3  0  0  0  0  0  0
  187.0270  177.4590  144.6970 C   0  0  0  0  0  0  0  0  0  0  0  0
  186.7210  178.2790  146.9560 C   0  0  0  0  0  3  0  0  0  0  0  0
  181.3670  176.5150  140.3380 C   0  0  1  0  0  3  0  0  0  0  0  0
  179.9140  176.7620  140.6100 C   0  0  0  0  0  0  0  0  0  0  0  0
  179.5310  177.8460  141.0230 O   0  0  0  0  0  0  0  0  0  0  0  0
  179.1630  174.5410  141.3870 C   0  0  0  0  0  1  0  0  0  0  0  0
  178.9350  175.6590  140.3860 C   0  0  0  0  0  2  0  0  0  0  0  0
  181.5610  175.5460  139.1810 C   0  0  0  0  0  2  0  0  0  0  0  0
  183.0170  175.5100  138.7600 C   0  0  0  0  0  2  0  0  0  0  0  0
  183.1190  175.8010  137.2800 C   0  0  0  0  0  2  0  0  0  0  0  0
  183.5770  173.4160  137.0350 C   0  0  0  0  0  2  0  0  0  0  0  0
  183.0550  174.5240  136.5180 C   0  0  0  0  0  3  0  0  0  0  0  0
  1  3  1  0  0  0  0
  3 16  1  1  0  0  0
  4  2  1  6  0  0  0
  4  6  1  0  0  0  0
  5  4  1  0  0  0  0
  5  8  2  0  0  0  0
  6  9  1  6  0  0  0
  6 10  1  0  0  0  0
  7  9  1  0  0  0  0
  8  1  1  0  0  0  0
 10 28  1  1  0  0  0
 10  3  1  0  0  0  0
 11 12  1  1  0  0  0
 11  7  1  0  0  0  0
 11  2  1  0  0  0  0
 12 13  1  0  0  0  0
 14 15  1  0  0  0  0
 15  8  1  0  0  0  0
 16 19  1  1  0  0  0
 16 18  1  0  0  0  0
 18 17  1  0  0  0  0
 19 20  1  0  0  0  0
 20 22  1  0  0  0  0
 21 27  1  0  0  0  0
 22 21  2  0  0  0  0
 23 26  2  0  0  0  0
 23 22  1  0  0  0  0
 24 26  1  0  0  0  0
 25 27  2  0  0  0  0
 26 25  1  0  0  0  0
 28 33  1  6  0  0  0
 28 29  1  0  0  0  0
 29 30  2  0  0  0  0
 32 29  1  0  0  0  0
 32 31  1  0  0  0  0
 34 33  1  0  0  0  0
 35 34  1  0  0  0  0
 37 36  2  0  0  0  0
 37 35  1  0  0  0  0
M  END
>  <MODEL>
5

>  <REMARK>
 VINA RESULT:      -5.1      1.872      5.081
  Name = 
  14 active torsions:
  status: ('A' for Active; 'I' for Inactive)
    1  A    between atoms: C_1  and  C_23
    2  A    between atoms: C_1  and  C_36
    3  A    between atoms: O_3  and  C_32
    4  A    between atoms: C_6  and  C_31
    5  A    between atoms: C_10  and  C_14
    6  A    between atoms: C_14  and  C_27
    7  A    between atoms: C_14  and  C_37
    8  A    between atoms: C_17  and  C_26
    9  A    between atoms: C_17  and  C_33
   10  A    between atoms: C_24  and  O_28
   11  A    between atoms: C_26  and  C_34
   12  A    between atoms: C_29  and  C_36
   13  A    between atoms: C_31  and  C_37
   14  A    between atoms: C_33  and  C_36
                            x       y       z     vdW  Elec       q    Type
                         _______ _______ _______ _____ _____    ______ ____

>  <TORSDO>
F 14

$$$$
=
 OpenBabel11052415263D

 37 39  0  0  1  0  0  0  0  0999 V2000
  182.7200  179.1760  138.0880 C   0  0  0  0  0  2  0  0  0  0  0  0
  180.6870  176.4590  140.8390 C   0  0  0  0  0  2  0  0  0  0  0  0
  183.6340  177.9680  137.8080 C   0  0  2  0  0  3  0  0  0  0  0  0
  181.5000  177.0730  139.6970 C   0  0  2  0  0  3  0  0  0  0  0  0
  180.6690  177.9960  138.8540 C   0  0  0  0  0  3  0  0  0  0  0  0
  182.2120  175.9980  138.8430 C   0  0  1  0  0  3  0  0  0  0  0  0
  180.5190  174.2980  139.6020 C   0  0  0  0  0  2  0  0  0  0  0  0
  181.2260  178.9260  138.0740 C   0  0  0  0  0  0  0  0  0  0  0  0
  181.2250  174.9090  138.4000 C   0  0  0  0  0  2  0  0  0  0  0  0
  182.9030  176.6130  137.6090 C   0  0  2  0  0  3  0  0  0  0  0  0
  179.7330  175.3780  140.3350 C   0  0  1  0  0  3  0  0  0  0  0  0
  179.0550  174.8130  141.4160 O   0  0  0  0  0  0  0  0  0  0  0  0
  179.7450  173.6330  141.6950 C   0  0  0  0  0  1  0  0  0  0  0  0
  180.8270  180.8900  136.6340 C   0  0  0  0  0  1  0  0  0  0  0  0
  180.3850  179.7020  137.2740 O   0  0  0  0  0  0  0  0  0  0  0  0
  184.8550  178.0310  138.7470 C   0  0  1  0  0  3  0  0  0  0  0  0
  187.0570  177.1490  138.4750 O   0  0  0  0  0  1  0  0  0  0  0  0
  186.2290  178.2110  138.1160 C   0  0  0  0  0  2  0  0  0  0  0  0
  184.6260  178.9590  139.9350 C   0  0  0  0  0  2  0  0  0  0  0  0
  185.2380  178.4120  141.2160 C   0  0  0  0  0  2  0  0  0  0  0  0
  182.9230  178.6980  142.1200 C   0  0  0  0  0  3  0  0  0  0  0  0
  184.2990  178.5970  142.3550 C   0  0  0  0  0  0  0  0  0  0  0  0
  184.7940  178.6930  143.6600 C   0  0  0  0  0  3  0  0  0  0  0  0
  184.4040  178.9730  146.0250 O   0  0  0  0  0  1  0  0  0  0  0  0
  182.5380  178.9770  144.4950 C   0  0  0  0  0  3  0  0  0  0  0  0
  183.9140  178.8810  144.7300 C   0  0  0  0  0  0  0  0  0  0  0  0
  182.0430  178.8860  143.1910 C   0  0  0  0  0  3  0  0  0  0  0  0
  183.5270  175.6130  136.6180 C   0  0  1  0  0  3  0  0  0  0  0  0
  183.7340  176.2150  135.2610 C   0  0  0  0  0  0  0  0  0  0  0  0
  184.7300  175.9520  134.6050 O   0  0  0  0  0  0  0  0  0  0  0  0
  181.3200  176.5710  134.8760 C   0  0  0  0  0  1  0  0  0  0  0  0
  182.7110  177.1580  134.7210 C   0  0  0  0  0  2  0  0  0  0  0  0
  184.7870  174.9210  137.1180 C   0  0  0  0  0  2  0  0  0  0  0  0
  184.4460  173.5670  137.7090 C   0  0  0  0  0  2  0  0  0  0  0  0
  184.2590  172.5640  136.5930 C   0  0  0  0  0  2  0  0  0  0  0  0
  181.8490  172.3130  136.2990 C   0  0  0  0  0  2  0  0  0  0  0  0
  182.9820  171.8270  136.7980 C   0  0  0  0  0  3  0  0  0  0  0  0
  3  1  1  0  0  0  0
  3 16  1  1  0  0  0
  4  5  1  6  0  0  0
  4  2  1  0  0  0  0
  6  9  1  6  0  0  0
  6  4  1  0  0  0  0
  7 11  1  0  0  0  0
  8  1  1  0  0  0  0
  8  5  2  0  0  0  0
  9  7  1  0  0  0  0
 10 28  1  1  0  0  0
 10  3  1  0  0  0  0
 10  6  1  0  0  0  0
 11  2  1  0  0  0  0
 11 12  1  1  0  0  0
 12 13  1  0  0  0  0
 14 15  1  0  0  0  0
 15  8  1  0  0  0  0
 16 18  1  6  0  0  0
 16 19  1  0  0  0  0
 18 17  1  0  0  0  0
 19 20  1  0  0  0  0
 20 22  1  0  0  0  0
 21 22  2  0  0  0  0
 21 27  1  0  0  0  0
 22 23  1  0  0  0  0
 23 26  2  0  0  0  0
 25 26  1  0  0  0  0
 26 24  1  0  0  0  0
 27 25  2  0  0  0  0
 28 33  1  1  0  0  0
 29 28  1  0  0  0  0
 30 29  2  0  0  0  0
 32 31  1  0  0  0  0
 32 29  1  0  0  0  0
 33 34  1  0  0  0  0
 35 37  1  0  0  0  0
 35 34  1  0  0  0  0
 36 37  2  0  0  0  0
M  END
>  <MODEL>
6

>  <REMARK>
 VINA RESULT:      -4.9      1.576      2.277
  Name = 
  14 active torsions:
  status: ('A' for Active; 'I' for Inactive)
    1  A    between atoms: C_1  and  C_23
    2  A    between atoms: C_1  and  C_36
    3  A    between atoms: O_3  and  C_32
    4  A    between atoms: C_6  and  C_31
    5  A    between atoms: C_10  and  C_14
    6  A    between atoms: C_14  and  C_27
    7  A    between atoms: C_14  and  C_37
    8  A    between atoms: C_17  and  C_26
    9  A    between atoms: C_17  and  C_33
   10  A    between atoms: C_24  and  O_28
   11  A    between atoms: C_26  and  C_34
   12  A    between atoms: C_29  and  C_36
   13  A    between atoms: C_31  and  C_37
   14  A    between atoms: C_33  and  C_36
                            x       y       z     vdW  Elec       q    Type
                         _______ _______ _______ _____ _____    ______ ____

>  <TORSDO>
F 14

$$$$
=
 OpenBabel11052415263D

 37 39  0  0  1  0  0  0  0  0999 V2000
  181.5430  176.2360  138.1390 C   0  0  0  0  0  2  0  0  0  0  0  0
  181.1760  180.1620  136.2580 C   0  0  0  0  0  2  0  0  0  0  0  0
  182.5670  176.9370  139.0520 C   0  0  2  0  0  3  0  0  0  0  0  0
  181.4170  179.0030  137.2280 C   0  0  2  0  0  3  0  0  0  0  0  0
  180.1720  178.1930  137.4490 C   0  0  0  0  0  3  0  0  0  0  0  0
  182.0400  179.4770  138.5610 C   0  0  1  0  0  3  0  0  0  0  0  0
  181.1140  181.7810  138.1550 C   0  0  0  0  0  2  0  0  0  0  0  0
  180.2220  176.9440  137.9180 C   0  0  0  0  0  0  0  0  0  0  0  0
  181.2370  180.6420  139.1570 C   0  0  0  0  0  2  0  0  0  0  0  0
  182.1380  178.3300  139.5860 C   0  0  2  0  0  3  0  0  0  0  0  0
  180.3830  181.2900  136.9110 C   0  0  1  0  0  3  0  0  0  0  0  0
  180.2360  182.3430  136.0070 O   0  0  0  0  0  0  0  0  0  0  0  0
  179.7300  183.3990  136.7650 C   0  0  0  0  0  1  0  0  0  0  0  0
  178.9450  174.8800  138.3600 C   0  0  0  0  0  1  0  0  0  0  0  0
  179.0150  176.2830  138.1550 O   0  0  0  0  0  0  0  0  0  0  0  0
  183.9770  176.7630  138.4540 C   0  0  1  0  0  3  0  0  0  0  0  0
  184.6030  174.6060  137.6450 O   0  0  0  0  0  1  0  0  0  0  0  0
  184.1300  175.8530  137.2430 C   0  0  0  0  0  2  0  0  0  0  0  0
  184.7050  178.0930  138.2880 C   0  0  0  0  0  2  0  0  0  0  0  0
  185.8860  177.9850  137.3360 C   0  0  0  0  0  2  0  0  0  0  0  0
  187.1810  178.2240  139.4630 C   0  0  0  0  0  3  0  0  0  0  0  0
  187.1580  177.8960  138.1020 C   0  0  0  0  0  0  0  0  0  0  0  0
  188.3360  177.5050  137.4580 C   0  0  0  0  0  3  0  0  0  0  0  0
  190.7030  177.0420  137.5350 O   0  0  0  0  0  1  0  0  0  0  0  0
  189.5570  177.7560  139.5340 C   0  0  0  0  0  3  0  0  0  0  0  0
  189.5350  177.4340  138.1740 C   0  0  0  0  0  0  0  0  0  0  0  0
  188.3810  178.1530  140.1790 C   0  0  0  0  0  3  0  0  0  0  0  0
  182.6200  178.7240  140.9950 C   0  0  1  0  0  3  0  0  0  0  0  0
  181.4990  178.7520  141.9900 C   0  0  0  0  0  0  0  0  0  0  0  0
  181.6560  179.2500  143.0940 O   0  0  0  0  0  0  0  0  0  0  0  0
  179.0530  178.8980  142.2960 C   0  0  0  0  0  1  0  0  0  0  0  0
  180.1860  178.1470  141.6230 C   0  0  0  0  0  2  0  0  0  0  0  0
  183.8050  177.9210  141.5120 C   0  0  0  0  0  2  0  0  0  0  0  0
  184.8520  178.8450  142.1000 C   0  0  0  0  0  2  0  0  0  0  0  0
  185.8010  178.0440  142.9650 C   0  0  0  0  0  2  0  0  0  0  0  0
  184.6080  179.2360  144.7300 C   0  0  0  0  0  2  0  0  0  0  0  0
  185.5410  178.3480  144.3980 C   0  0  0  0  0  3  0  0  0  0  0  0
  1  3  1  0  0  0  0
  2 11  1  0  0  0  0
  3 16  1  6  0  0  0
  3 10  1  0  0  0  0
  4  2  1  6  0  0  0
  4  5  1  0  0  0  0
  4  6  1  0  0  0  0
  5  8  2  0  0  0  0
  6  9  1  1  0  0  0
  6 10  1  0  0  0  0
  7  9  1  0  0  0  0
  8  1  1  0  0  0  0
  8 15  1  0  0  0  0
 10 28  1  1  0  0  0
 11 12  1  6  0  0  0
 11  7  1  0  0  0  0
 12 13  1  0  0  0  0
 15 14  1  0  0  0  0
 16 18  1  6  0  0  0
 18 17  1  0  0  0  0
 19 16  1  0  0  0  0
 20 22  1  0  0  0  0
 20 19  1  0  0  0  0
 21 27  1  0  0  0  0
 22 21  2  0  0  0  0
 23 22  1  0  0  0  0
 23 26  2  0  0  0  0
 24 26  1  0  0  0  0
 25 27  2  0  0  0  0
 26 25  1  0  0  0  0
 28 33  1  1  0  0  0
 28 29  1  0  0  0  0
 29 30  2  0  0  0  0
 32 29  1  0  0  0  0
 32 31  1  0  0  0  0
 33 34  1  0  0  0  0
 34 35  1  0  0  0  0
 35 37  1  0  0  0  0
 37 36  2  0  0  0  0
M  END
>  <MODEL>
7

>  <REMARK>
 VINA RESULT:      -4.9      2.157      6.590
  Name = 
  14 active torsions:
  status: ('A' for Active; 'I' for Inactive)
    1  A    between atoms: C_1  and  C_23
    2  A    between atoms: C_1  and  C_36
    3  A    between atoms: O_3  and  C_32
    4  A    between atoms: C_6  and  C_31
    5  A    between atoms: C_10  and  C_14
    6  A    between atoms: C_14  and  C_27
    7  A    between atoms: C_14  and  C_37
    8  A    between atoms: C_17  and  C_26
    9  A    between atoms: C_17  and  C_33
   10  A    between atoms: C_24  and  O_28
   11  A    between atoms: C_26  and  C_34
   12  A    between atoms: C_29  and  C_36
   13  A    between atoms: C_31  and  C_37
   14  A    between atoms: C_33  and  C_36
                            x       y       z     vdW  Elec       q    Type
                         _______ _______ _______ _____ _____    ______ ____

>  <TORSDO>
F 14

$$$$
=
 OpenBabel11052415263D

 37 39  0  0  1  0  0  0  0  0999 V2000
  189.8670  177.2520  136.9660 C   0  0  0  0  0  2  0  0  0  0  0  0
  187.7360  173.4400  136.9090 C   0  0  0  0  0  2  0  0  0  0  0  0
  191.1050  176.3840  137.2620 C   0  0  2  0  0  3  0  0  0  0  0  0
  188.7900  174.5470  136.8320 C   0  0  2  0  0  3  0  0  0  0  0  0
  188.4380  175.5820  135.8040 C   0  0  0  0  0  3  0  0  0  0  0  0
  190.2140  173.9830  136.6180 C   0  0  1  0  0  3  0  0  0  0  0  0
  189.2200  171.8910  135.6340 C   0  0  0  0  0  2  0  0  0  0  0  0
  188.9710  176.8060  135.8290 C   0  0  0  0  0  0  0  0  0  0  0  0
  190.2430  173.0020  135.4390 C   0  0  0  0  0  2  0  0  0  0  0  0
  191.2450  175.1060  136.3920 C   0  0  2  0  0  3  0  0  0  0  0  0
  187.8230  172.4940  135.7140 C   0  0  1  0  0  3  0  0  0  0  0  0
  186.8800  171.4740  135.8560 O   0  0  0  0  0  0  0  0  0  0  0  0
  185.6730  172.1330  136.0940 C   0  0  0  0  0  1  0  0  0  0  0  0
  187.3130  178.1530  134.5940 C   0  0  0  0  0  1  0  0  0  0  0  0
  188.6390  177.6880  134.7990 O   0  0  0  0  0  0  0  0  0  0  0  0
  191.2910  176.2760  138.7890 C   0  0  1  0  0  3  0  0  0  0  0  0
  193.4970  177.0930  138.3770 O   0  0  0  0  0  1  0  0  0  0  0  0
  192.5770  176.8280  139.3890 C   0  0  0  0  0  2  0  0  0  0  0  0
  190.0480  176.7100  139.5570 C   0  0  0  0  0  2  0  0  0  0  0  0
  190.3470  176.9880  141.0220 C   0  0  0  0  0  2  0  0  0  0  0  0
  188.7850  176.5840  142.9340 C   0  0  0  0  0  3  0  0  0  0  0  0
  189.0860  177.2790  141.7580 C   0  0  0  0  0  0  0  0  0  0  0  0
  188.1920  178.2340  141.2620 C   0  0  0  0  0  3  0  0  0  0  0  0
  186.1160  179.4480  141.4550 O   0  0  0  0  0  1  0  0  0  0  0  0
  186.7020  177.8070  143.1230 C   0  0  0  0  0  3  0  0  0  0  0  0
  187.0020  178.4980  141.9450 C   0  0  0  0  0  0  0  0  0  0  0  0
  187.5930  176.8490  143.6180 C   0  0  0  0  0  3  0  0  0  0  0  0
  192.6720  174.6490  136.0340 C   0  0  1  0  0  3  0  0  0  0  0  0
  193.4280  175.6970  135.2730 C   0  0  0  0  0  0  0  0  0  0  0  0
  192.8380  176.5460  134.6240 O   0  0  0  0  0  0  0  0  0  0  0  0
  195.4610  177.1000  135.2730 C   0  0  0  0  0  1  0  0  0  0  0  0
  194.9200  175.6820  135.3040 C   0  0  0  0  0  2  0  0  0  0  0  0
  193.4840  174.1160  137.2050 C   0  0  0  0  0  2  0  0  0  0  0  0
  193.9280  172.6930  136.9350 C   0  0  0  0  0  2  0  0  0  0  0  0
  195.2270  172.4240  137.6620 C   0  0  0  0  0  2  0  0  0  0  0  0
  196.6480  174.1170  138.7000 C   0  0  0  0  0  2  0  0  0  0  0  0
  195.4690  173.5040  138.6590 C   0  0  0  0  0  3  0  0  0  0  0  0
  1  3  1  0  0  0  0
  3 16  1  1  0  0  0
  4  5  1  6  0  0  0
  4  2  1  0  0  0  0
  5  8  2  0  0  0  0
  6  9  1  6  0  0  0
  6  4  1  0  0  0  0
  7 11  1  0  0  0  0
  8  1  1  0  0  0  0
  9  7  1  0  0  0  0
 10 28  1  1  0  0  0
 10  6  1  0  0  0  0
 10  3  1  0  0  0  0
 11 12  1  1  0  0  0
 11  2  1  0  0  0  0
 12 13  1  0  0  0  0
 14 15  1  0  0  0  0
 15  8  1  0  0  0  0
 16 18  1  1  0  0  0
 16 19  1  0  0  0  0
 17 18  1  0  0  0  0
 19 20  1  0  0  0  0
 20 22  1  0  0  0  0
 21 27  1  0  0  0  0
 22 21  2  0  0  0  0
 23 22  1  0  0  0  0
 23 26  2  0  0  0  0
 24 26  1  0  0  0  0
 25 27  2  0  0  0  0
 26 25  1  0  0  0  0
 28 33  1  1  0  0  0
 29 32  1  0  0  0  0
 29 28  1  0  0  0  0
 30 29  2  0  0  0  0
 31 32  1  0  0  0  0
 34 33  1  0  0  0  0
 34 35  1  0  0  0  0
 35 37  1  0  0  0  0
 37 36  2  0  0  0  0
M  END
>  <MODEL>
8

>  <REMARK>
 VINA RESULT:      -4.8      5.319      7.662
  Name = 
  14 active torsions:
  status: ('A' for Active; 'I' for Inactive)
    1  A    between atoms: C_1  and  C_23
    2  A    between atoms: C_1  and  C_36
    3  A    between atoms: O_3  and  C_32
    4  A    between atoms: C_6  and  C_31
    5  A    between atoms: C_10  and  C_14
    6  A    between atoms: C_14  and  C_27
    7  A    between atoms: C_14  and  C_37
    8  A    between atoms: C_17  and  C_26
    9  A    between atoms: C_17  and  C_33
   10  A    between atoms: C_24  and  O_28
   11  A    between atoms: C_26  and  C_34
   12  A    between atoms: C_29  and  C_36
   13  A    between atoms: C_31  and  C_37
   14  A    between atoms: C_33  and  C_36
                            x       y       z     vdW  Elec       q    Type
                         _______ _______ _______ _____ _____    ______ ____

>  <TORSDO>
F 14

$$$$
=
 OpenBabel11052415263D

 37 39  0  0  1  0  0  0  0  0999 V2000
  181.9850  179.6840  138.2650 C   0  0  0  0  0  2  0  0  0  0  0  0
  180.2260  175.6870  138.1360 C   0  0  0  0  0  2  0  0  0  0  0  0
  183.2270  178.9560  138.8140 C   0  0  2  0  0  3  0  0  0  0  0  0
  181.1800  176.8840  138.1510 C   0  0  2  0  0  3  0  0  0  0  0  0
  180.9150  177.8220  137.0100 C   0  0  0  0  0  3  0  0  0  0  0  0
  182.6630  176.4480  138.2070 C   0  0  1  0  0  3  0  0  0  0  0  0
  182.0280  174.2200  137.2250 C   0  0  0  0  0  2  0  0  0  0  0  0
  181.3300  179.0920  137.0340 C   0  0  0  0  0  0  0  0  0  0  0  0
  182.9700  175.4110  137.1180 C   0  0  0  0  0  2  0  0  0  0  0  0
  183.6170  177.6510  138.0690 C   0  0  2  0  0  3  0  0  0  0  0  0
  180.5900  174.6890  137.0400 C   0  0  1  0  0  3  0  0  0  0  0  0
  179.7270  173.5930  137.1010 O   0  0  0  0  0  0  0  0  0  0  0  0
  179.9150  173.0610  138.3770 C   0  0  0  0  0  1  0  0  0  0  0  0
  180.6080  181.2100  135.9950 C   0  0  0  0  0  1  0  0  0  0  0  0
  181.0980  179.8800  135.9060 O   0  0  0  0  0  0  0  0  0  0  0  0
  183.1670  178.9510  140.3550 C   0  0  1  0  0  3  0  0  0  0  0  0
  181.9570  178.7220  142.4000 O   0  0  0  0  0  1  0  0  0  0  0  0
  181.8320  178.6370  141.0140 C   0  0  0  0  0  2  0  0  0  0  0  0
  184.3280  178.1820  140.9780 C   0  0  0  0  0  2  0  0  0  0  0  0
  185.3270  179.1040  141.6580 C   0  0  0  0  0  2  0  0  0  0  0  0
  186.8240  177.7140  143.1020 C   0  0  0  0  0  3  0  0  0  0  0  0
  185.7120  178.5550  142.9870 C   0  0  0  0  0  0  0  0  0  0  0  0
  184.9480  178.8620  144.1180 C   0  0  0  0  0  3  0  0  0  0  0  0
  184.5440  178.6440  146.4870 O   0  0  0  0  0  1  0  0  0  0  0  0
  186.4140  177.5000  145.4800 C   0  0  0  0  0  3  0  0  0  0  0  0
  185.3000  178.3360  145.3640 C   0  0  0  0  0  0  0  0  0  0  0  0
  187.1760  177.1870  144.3490 C   0  0  0  0  0  3  0  0  0  0  0  0
  185.1170  177.3140  137.9750 C   0  0  1  0  0  3  0  0  0  0  0  0
  185.5310  176.9510  136.5810 C   0  0  0  0  0  0  0  0  0  0  0  0
  185.0240  177.5010  135.6150 O   0  0  0  0  0  0  0  0  0  0  0  0
  186.2320  174.6710  137.2190 C   0  0  0  0  0  1  0  0  0  0  0  0
  186.5630  175.8920  136.3810 C   0  0  0  0  0  2  0  0  0  0  0  0
  186.0450  178.3600  138.5770 C   0  0  0  0  0  2  0  0  0  0  0  0
  187.4790  177.8690  138.5550 C   0  0  0  0  0  2  0  0  0  0  0  0
  188.2350  178.4740  139.7170 C   0  0  0  0  0  2  0  0  0  0  0  0
  190.0810  176.9020  139.4340 C   0  0  0  0  0  2  0  0  0  0  0  0
  189.2030  177.4770  140.2500 C   0  0  0  0  0  3  0  0  0  0  0  0
  1  3  1  0  0  0  0
  2  4  1  0  0  0  0
  3 16  1  1  0  0  0
  4  5  1  6  0  0  0
  4  6  1  0  0  0  0
  5  8  2  0  0  0  0
  6  9  1  6  0  0  0
  8  1  1  0  0  0  0
  9  7  1  0  0  0  0
 10 28  1  1  0  0  0
 10  6  1  0  0  0  0
 10  3  1  0  0  0  0
 11 12  1  1  0  0  0
 11  7  1  0  0  0  0
 11  2  1  0  0  0  0
 12 13  1  0  0  0  0
 15 14  1  0  0  0  0
 15  8  1  0  0  0  0
 16 19  1  1  0  0  0
 16 18  1  0  0  0  0
 18 17  1  0  0  0  0
 19 20  1  0  0  0  0
 20 22  1  0  0  0  0
 21 27  1  0  0  0  0
 22 21  2  0  0  0  0
 22 23  1  0  0  0  0
 23 26  2  0  0  0  0
 26 25  1  0  0  0  0
 26 24  1  0  0  0  0
 27 25  2  0  0  0  0
 28 33  1  6  0  0  0
 29 28  1  0  0  0  0
 30 29  2  0  0  0  0
 32 29  1  0  0  0  0
 32 31  1  0  0  0  0
 34 33  1  0  0  0  0
 34 35  1  0  0  0  0
 35 37  1  0  0  0  0
 36 37  2  0  0  0  0
M  END
>  <MODEL>
9

>  <REMARK>
 VINA RESULT:      -4.6      1.751      3.238
  Name = 
  14 active torsions:
  status: ('A' for Active; 'I' for Inactive)
    1  A    between atoms: C_1  and  C_23
    2  A    between atoms: C_1  and  C_36
    3  A    between atoms: O_3  and  C_32
    4  A    between atoms: C_6  and  C_31
    5  A    between atoms: C_10  and  C_14
    6  A    between atoms: C_14  and  C_27
    7  A    between atoms: C_14  and  C_37
    8  A    between atoms: C_17  and  C_26
    9  A    between atoms: C_17  and  C_33
   10  A    between atoms: C_24  and  O_28
   11  A    between atoms: C_26  and  C_34
   12  A    between atoms: C_29  and  C_36
   13  A    between atoms: C_31  and  C_37
   14  A    between atoms: C_33  and  C_36
                            x       y       z     vdW  Elec       q    Type
                         _______ _______ _______ _____ _____    ______ ____

>  <TORSDO>
F 14

$$$$
