=
 OpenBabel11052414423D

 32 37  0  0  1  0  0  0  0  0999 V2000
  189.1180  177.4600  141.3550 C   0  0  0  0  0  0  0  0  0  0  0  0
  187.9280  177.5830  143.5660 C   0  0  0  0  0  0  0  0  0  0  0  0
  190.4200  177.3170  140.6670 C   0  0  0  0  0  3  0  0  0  0  0  0
  189.0190  176.9310  142.7680 C   0  0  2  0  0  3  0  0  0  0  0  0
  187.9540  177.5730  144.9150 C   0  0  0  0  0  0  0  0  0  0  0  0
  183.1670  178.9760  143.5810 C   0  0  0  0  0  3  0  0  0  0  0  0
  186.7600  178.0790  142.8190 C   0  0  0  0  0  0  0  0  0  0  0  0
  184.3660  178.6740  145.6630 C   0  0  0  0  0  3  0  0  0  0  0  0
  185.5370  178.3840  144.9560 C   0  0  0  0  0  0  0  0  0  0  0  0
  190.3320  176.9330  143.5000 C   0  0  0  0  0  0  0  0  0  0  0  0
  186.8090  178.1470  145.7260 C   0  0  0  0  0  3  0  0  0  0  0  0
  190.3160  176.8910  144.8930 O   0  0  0  0  0  0  0  0  0  0  0  0
  191.4920  176.9290  142.8370 C   0  0  0  0  0  3  0  0  0  0  0  0
  186.8330  178.2370  141.5280 N   0  0  0  0  0  2  0  0  0  0  0  0
  188.0250  177.9890  140.7540 C   0  0  0  0  0  0  0  0  0  0  0  0
  185.5240  178.4000  143.5500 C   0  0  0  0  0  0  0  0  0  0  0  0
  189.1410  177.1060  145.5920 N   0  0  0  0  0  0  0  0  0  0  0  0
  191.5280  177.0530  141.3660 C   0  0  0  0  0  3  0  0  0  0  0  0
  183.1830  178.9640  144.9780 C   0  0  0  0  0  3  0  0  0  0  0  0
  184.3360  178.6960  142.8670 C   0  0  0  0  0  3  0  0  0  0  0  0
  186.6150  177.0560  137.6720 C   0  0  1  0  0  3  0  0  0  0  0  0
  188.8380  177.7960  135.1720 O   0  0  0  0  0  0  0  0  0  0  0  0
  185.5310  177.2210  136.6220 C   0  0  0  0  0  1  0  0  0  0  0  0
  189.2630  178.8880  137.2160 C   0  0  0  0  0  2  0  0  0  0  0  0
  188.0140  178.3940  139.3260 C   0  0  0  0  0  0  0  0  0  0  0  0
  187.9270  176.6200  136.9980 C   0  0  0  0  0  2  0  0  0  0  0  0
  189.1750  178.6220  138.6950 C   0  0  0  0  0  3  0  0  0  0  0  0
  186.7400  178.3390  138.5100 C   0  0  2  0  0  3  0  0  0  0  0  0
  185.5590  178.5400  139.3380 N   0  0  0  0  0  1  0  0  0  0  0  0
  188.6940  177.7640  136.3820 C   0  0  0  0  0  0  0  0  0  0  0  0
  189.1820  177.0170  147.0440 C   0  0  0  0  0  2  0  0  0  0  0  0
  190.5090  177.0090  147.4760 O   0  0  0  0  0  1  0  0  0  0  0  0
  2  5  1  0  0  0  0
  3  1  1  0  0  0  0
  3 18  2  0  0  0  0
  4  1  1  6  0  0  0
  4 10  1  0  0  0  0
  4  2  1  0  0  0  0
  5 17  1  0  0  0  0
  5 11  2  0  0  0  0
  6 19  1  0  0  0  0
  7 16  1  0  0  0  0
  7  2  2  0  0  0  0
  9  8  1  0  0  0  0
  9 11  1  0  0  0  0
 10 12  1  0  0  0  0
 12 17  1  0  0  0  0
 13 10  2  0  0  0  0
 14  7  1  0  0  0  0
 15  1  2  0  0  0  0
 15 14  1  0  0  0  0
 16  9  2  0  0  0  0
 17 31  1  0  0  0  0
 18 13  1  0  0  0  0
 19  8  2  0  0  0  0
 20 16  1  0  0  0  0
 20  6  2  0  0  0  0
 21 23  1  6  0  0  0
 21 28  1  0  0  0  0
 22 30  2  0  0  0  0
 24 27  1  0  0  0  0
 25 15  1  0  0  0  0
 26 21  1  0  0  0  0
 27 25  2  0  0  0  0
 28 25  1  0  0  0  0
 28 29  1  1  0  0  0
 30 26  1  0  0  0  0
 30 24  1  0  0  0  0
 31 32  1  0  0  0  0
M  END
>  <MODEL>
1

>  <REMARK>
 VINA RESULT:     -11.9      0.000      0.000
  Name = 
  2 active torsions:
  status: ('A' for Active; 'I' for Inactive)
    1  A    between atoms: C_13  and  N_29
    2  A    between atoms: C_16  and  C_27
                            x       y       z     vdW  Elec       q    Type
                         _______ _______ _______ _____ _____    ______ ____

>  <TORSDO>
F 2

$$$$
=
 OpenBabel11052414423D

 32 37  0  0  1  0  0  0  0  0999 V2000
  189.6980  176.9110  142.9420 C   0  0  2  0  0  3  0  0  0  0  0  0
  187.7290  177.5150  144.3840 C   0  0  0  0  0  0  0  0  0  0  0  0
  191.1560  176.6690  142.8940 C   0  0  0  0  0  3  0  0  0  0  0  0
  189.0100  176.7410  144.2790 C   0  0  2  0  0  3  0  0  0  0  0  0
  187.2100  177.8370  145.5870 C   0  0  0  0  0  0  0  0  0  0  0  0
  183.4480  178.6330  142.1430 C   0  0  0  0  0  3  0  0  0  0  0  0
  186.9880  177.7540  143.1340 C   0  0  0  0  0  0  0  0  0  0  0  0
  183.6910  178.9110  144.5360 C   0  0  0  0  0  3  0  0  0  0  0  0
  185.0300  178.5140  144.4530 C   0  0  0  0  0  0  0  0  0  0  0  0
  189.9170  176.9870  145.4530 C   0  0  0  0  0  0  0  0  0  0  0  0
  185.8700  178.5360  145.7030 C   0  0  0  0  0  3  0  0  0  0  0  0
  189.3400  177.2880  146.6850 O   0  0  0  0  0  0  0  0  0  0  0  0
  191.2440  176.8780  145.3350 C   0  0  0  0  0  3  0  0  0  0  0  0
  187.5820  177.5940  141.9860 N   0  0  0  0  0  0  0  0  0  0  0  0
  188.9680  177.2220  141.8430 C   0  0  0  0  0  0  0  0  0  0  0  0
  185.5830  178.1830  143.2040 C   0  0  0  0  0  0  0  0  0  0  0  0
  187.9980  177.6100  146.7770 N   0  0  0  0  0  0  0  0  0  0  0  0
  191.8740  176.6390  144.0210 C   0  0  0  0  0  3  0  0  0  0  0  0
  182.9000  178.9650  143.3850 C   0  0  0  0  0  3  0  0  0  0  0  0
  184.7870  178.2440  142.0510 C   0  0  0  0  0  3  0  0  0  0  0  0
  188.0100  177.5770  138.4800 C   0  0  1  0  0  3  0  0  0  0  0  0
  190.1490  175.7520  136.5240 O   0  0  0  0  0  0  0  0  0  0  0  0
  187.8040  178.4580  137.2610 C   0  0  0  0  0  1  0  0  0  0  0  0
  190.9440  176.1920  138.6980 C   0  0  0  0  0  2  0  0  0  0  0  0
  189.5540  177.2640  140.4790 C   0  0  0  0  0  0  0  0  0  0  0  0
  188.3870  176.1550  138.0340 C   0  0  0  0  0  2  0  0  0  0  0  0
  190.4210  176.3120  140.1040 C   0  0  0  0  0  3  0  0  0  0  0  0
  189.0270  178.2230  139.4340 C   0  0  2  0  0  3  0  0  0  0  0  0
  188.4850  179.4330  140.0360 N   0  0  0  0  0  1  0  0  0  0  0  0
  189.8460  176.0060  137.6770 C   0  0  0  0  0  0  0  0  0  0  0  0
  187.4470  177.8820  148.0970 C   0  0  0  0  0  2  0  0  0  0  0  0
  188.4810  178.1960  148.9790 O   0  0  0  0  0  1  0  0  0  0  0  0
  1  3  1  6  0  0  0
  1  4  1  0  0  0  0
  2  5  1  0  0  0  0
  3 18  2  0  0  0  0
  4  2  1  6  0  0  0
  4 10  1  0  0  0  0
  5 11  2  0  0  0  0
  5 17  1  0  0  0  0
  6 19  1  0  0  0  0
  7 16  1  0  0  0  0
  7  2  2  0  0  0  0
  9  8  1  0  0  0  0
  9 11  1  0  0  0  0
 10 12  1  0  0  0  0
 12 17  1  0  0  0  0
 13 10  2  0  0  0  0
 14  7  1  0  0  0  0
 15 14  2  0  0  0  0
 15  1  1  0  0  0  0
 16  9  2  0  0  0  0
 17 31  1  0  0  0  0
 18 13  1  0  0  0  0
 19  8  2  0  0  0  0
 20  6  2  0  0  0  0
 20 16  1  0  0  0  0
 21 23  1  6  0  0  0
 21 28  1  0  0  0  0
 22 30  2  0  0  0  0
 24 27  1  0  0  0  0
 25 15  1  0  0  0  0
 26 21  1  0  0  0  0
 27 25  2  0  0  0  0
 28 29  1  1  0  0  0
 28 25  1  0  0  0  0
 30 26  1  0  0  0  0
 30 24  1  0  0  0  0
 31 32  1  0  0  0  0
M  END
>  <MODEL>
2

>  <REMARK>
 VINA RESULT:     -11.8      1.458      2.029
  Name = 
  2 active torsions:
  status: ('A' for Active; 'I' for Inactive)
    1  A    between atoms: C_13  and  N_29
    2  A    between atoms: C_16  and  C_27
                            x       y       z     vdW  Elec       q    Type
                         _______ _______ _______ _____ _____    ______ ____

>  <TORSDO>
F 2

$$$$
=
 OpenBabel11052414423D

 32 37  0  0  1  0  0  0  0  0999 V2000
  183.3670  178.7070  142.1110 C   0  0  2  0  0  3  0  0  0  0  0  0
  185.3950  178.4720  143.5770 C   0  0  0  0  0  0  0  0  0  0  0  0
  181.8920  178.8010  142.0620 C   0  0  0  0  0  3  0  0  0  0  0  0
  184.0440  179.1000  143.4050 C   0  0  2  0  0  3  0  0  0  0  0  0
  185.9520  178.3460  144.8000 C   0  0  0  0  0  0  0  0  0  0  0  0
  189.7500  177.5120  141.4030 C   0  0  0  0  0  3  0  0  0  0  0  0
  186.1470  178.1580  142.3500 C   0  0  0  0  0  0  0  0  0  0  0  0
  189.5520  177.4990  143.8170 C   0  0  0  0  0  3  0  0  0  0  0  0
  188.1800  177.7520  143.7130 C   0  0  0  0  0  0  0  0  0  0  0  0
  183.1740  178.9090  144.6160 C   0  0  0  0  0  0  0  0  0  0  0  0
  187.3550  177.7990  144.9720 C   0  0  0  0  0  3  0  0  0  0  0  0
  183.7860  178.8140  145.8650 O   0  0  0  0  0  0  0  0  0  0  0  0
  181.8420  178.8750  144.5110 C   0  0  0  0  0  3  0  0  0  0  0  0
  185.5320  178.1230  141.2020 N   0  0  0  0  0  0  0  0  0  0  0  0
  184.1150  178.3390  141.0430 C   0  0  0  0  0  0  0  0  0  0  0  0
  187.5880  177.8770  142.4440 C   0  0  0  0  0  0  0  0  0  0  0  0
  185.1540  178.6360  145.9690 N   0  0  0  0  0  0  0  0  0  0  0  0
  181.1820  178.8950  143.1900 C   0  0  0  0  0  3  0  0  0  0  0  0
  190.3360  177.3850  142.6650 C   0  0  0  0  0  3  0  0  0  0  0  0
  188.3780  177.7570  141.2920 C   0  0  0  0  0  3  0  0  0  0  0  0
  181.7550  179.6710  138.8040 C   0  0  1  0  0  3  0  0  0  0  0  0
  180.3080  177.0980  137.0660 O   0  0  0  0  0  0  0  0  0  0  0  0
  181.4330  180.5350  137.5990 C   0  0  0  0  0  1  0  0  0  0  0  0
  182.3300  176.5400  138.1390 C   0  0  0  0  0  2  0  0  0  0  0  0
  183.5270  178.0800  139.7040 C   0  0  0  0  0  0  0  0  0  0  0  0
  180.7460  178.5140  138.8960 C   0  0  0  0  0  2  0  0  0  0  0  0
  183.0750  176.8520  139.4090 C   0  0  0  0  0  3  0  0  0  0  0  0
  183.2230  179.2170  138.7530 C   0  0  2  0  0  3  0  0  0  0  0  0
  184.1250  180.3430  138.9510 N   0  0  0  0  0  1  0  0  0  0  0  0
  181.0710  177.3600  137.9790 C   0  0  0  0  0  0  0  0  0  0  0  0
  185.7380  178.5780  147.3010 C   0  0  0  0  0  2  0  0  0  0  0  0
  185.9700  179.8720  147.7670 O   0  0  0  0  0  1  0  0  0  0  0  0
  1  3  1  6  0  0  0
  1  4  1  0  0  0  0
  2  5  1  0  0  0  0
  3 18  2  0  0  0  0
  4  2  1  1  0  0  0
  4 10  1  0  0  0  0
  5 11  2  0  0  0  0
  5 17  1  0  0  0  0
  6 19  1  0  0  0  0
  7 16  1  0  0  0  0
  7  2  2  0  0  0  0
  9  8  1  0  0  0  0
  9 11  1  0  0  0  0
 10 12  1  0  0  0  0
 12 17  1  0  0  0  0
 13 10  2  0  0  0  0
 14  7  1  0  0  0  0
 15 14  2  0  0  0  0
 15  1  1  0  0  0  0
 16  9  2  0  0  0  0
 17 31  1  0  0  0  0
 18 13  1  0  0  0  0
 19  8  2  0  0  0  0
 20  6  2  0  0  0  0
 20 16  1  0  0  0  0
 21 23  1  6  0  0  0
 21 26  1  0  0  0  0
 22 30  2  0  0  0  0
 24 27  1  0  0  0  0
 25 15  1  0  0  0  0
 27 25  2  0  0  0  0
 28 21  1  0  0  0  0
 28 29  1  1  0  0  0
 28 25  1  0  0  0  0
 30 24  1  0  0  0  0
 30 26  1  0  0  0  0
 31 32  1  0  0  0  0
M  END
>  <MODEL>
3

>  <REMARK>
 VINA RESULT:     -11.6      3.340      5.911
  Name = 
  2 active torsions:
  status: ('A' for Active; 'I' for Inactive)
    1  A    between atoms: C_13  and  N_29
    2  A    between atoms: C_16  and  C_27
                            x       y       z     vdW  Elec       q    Type
                         _______ _______ _______ _____ _____    ______ ____

>  <TORSDO>
F 2

$$$$
=
 OpenBabel11052414423D

 32 37  0  0  1  0  0  0  0  0999 V2000
  184.2100  178.6170  142.6230 C   0  0  2  0  0  3  0  0  0  0  0  0
  186.5760  178.2320  143.3810 C   0  0  0  0  0  0  0  0  0  0  0  0
  182.7950  178.7410  143.0330 C   0  0  0  0  0  3  0  0  0  0  0  0
  185.2630  178.8970  143.6730 C   0  0  2  0  0  3  0  0  0  0  0  0
  187.4710  178.0030  144.3640 C   0  0  0  0  0  0  0  0  0  0  0  0
  190.0240  177.3630  139.9220 C   0  0  0  0  0  3  0  0  0  0  0  0
  186.9080  178.0000  141.9650 C   0  0  0  0  0  0  0  0  0  0  0  0
  190.5660  177.1680  142.2740 C   0  0  0  0  0  3  0  0  0  0  0  0
  189.2390  177.4540  142.6110 C   0  0  0  0  0  0  0  0  0  0  0  0
  184.7940  178.6290  145.0760 C   0  0  0  0  0  0  0  0  0  0  0  0
  188.8370  177.4180  144.0620 C   0  0  0  0  0  3  0  0  0  0  0  0
  185.7510  178.4280  146.0690 O   0  0  0  0  0  0  0  0  0  0  0  0
  183.4930  178.6280  145.3800 C   0  0  0  0  0  3  0  0  0  0  0  0
  185.9730  178.0640  141.0600 N   0  0  0  0  0  0  0  0  0  0  0  0
  184.5840  178.3190  141.3560 C   0  0  0  0  0  0  0  0  0  0  0  0
  188.2960  177.6870  141.5950 C   0  0  0  0  0  0  0  0  0  0  0  0
  187.0780  178.2160  145.7380 N   0  0  0  0  0  0  0  0  0  0  0  0
  182.4650  178.7610  144.3280 C   0  0  0  0  0  3  0  0  0  0  0  0
  190.9590  177.1290  140.9330 C   0  0  0  0  0  3  0  0  0  0  0  0
  188.6940  177.6410  140.2510 C   0  0  0  0  0  3  0  0  0  0  0  0
  182.1450  180.1600  139.6200 C   0  0  1  0  0  3  0  0  0  0  0  0
  179.6530  178.0300  138.6260 O   0  0  0  0  0  0  0  0  0  0  0  0
  181.7480  181.0200  138.4340 C   0  0  0  0  0  1  0  0  0  0  0  0
  181.6680  176.9680  139.2270 C   0  0  0  0  0  2  0  0  0  0  0  0
  183.6080  178.1730  140.2460 C   0  0  0  0  0  0  0  0  0  0  0  0
  180.9300  179.3490  140.1010 C   0  0  0  0  0  2  0  0  0  0  0  0
  182.7850  177.1150  140.2260 C   0  0  0  0  0  3  0  0  0  0  0  0
  183.3690  179.3010  139.2660 C   0  0  2  0  0  3  0  0  0  0  0  0
  184.5560  180.1280  139.0940 N   0  0  0  0  0  1  0  0  0  0  0  0
  180.6770  178.1070  139.2820 C   0  0  0  0  0  0  0  0  0  0  0  0
  188.0350  178.0450  146.8210 C   0  0  0  0  0  2  0  0  0  0  0  0
  187.3930  178.2290  148.0460 O   0  0  0  0  0  1  0  0  0  0  0  0
  1  3  1  6  0  0  0
  1  4  1  0  0  0  0
  2  5  1  0  0  0  0
  3 18  2  0  0  0  0
  4  2  1  6  0  0  0
  4 10  1  0  0  0  0
  5 17  1  0  0  0  0
  6 20  2  0  0  0  0
  6 19  1  0  0  0  0
  7  2  2  0  0  0  0
  8  9  1  0  0  0  0
  9 11  1  0  0  0  0
 10 13  2  0  0  0  0
 10 12  1  0  0  0  0
 11  5  2  0  0  0  0
 14 15  2  0  0  0  0
 14  7  1  0  0  0  0
 15  1  1  0  0  0  0
 16  7  1  0  0  0  0
 16  9  2  0  0  0  0
 17 12  1  0  0  0  0
 17 31  1  0  0  0  0
 18 13  1  0  0  0  0
 19  8  2  0  0  0  0
 20 16  1  0  0  0  0
 21 23  1  6  0  0  0
 21 26  1  0  0  0  0
 22 30  2  0  0  0  0
 24 30  1  0  0  0  0
 24 27  1  0  0  0  0
 25 15  1  0  0  0  0
 27 25  2  0  0  0  0
 28 29  1  1  0  0  0
 28 21  1  0  0  0  0
 28 25  1  0  0  0  0
 30 26  1  0  0  0  0
 31 32  1  0  0  0  0
M  END
>  <MODEL>
4

>  <REMARK>
 VINA RESULT:     -10.9      3.080      5.826
  Name = 
  2 active torsions:
  status: ('A' for Active; 'I' for Inactive)
    1  A    between atoms: C_13  and  N_29
    2  A    between atoms: C_16  and  C_27
                            x       y       z     vdW  Elec       q    Type
                         _______ _______ _______ _____ _____    ______ ____

>  <TORSDO>
F 2

$$$$
=
 OpenBabel11052414423D

 32 37  0  0  1  0  0  0  0  0999 V2000
  187.9640  177.8510  142.0250 C   0  0  2  0  0  3  0  0  0  0  0  0
  185.9280  178.1810  143.4620 C   0  0  0  0  0  0  0  0  0  0  0  0
  189.4400  177.7800  141.9850 C   0  0  0  0  0  3  0  0  0  0  0  0
  187.2910  177.5650  143.3500 C   0  0  2  0  0  3  0  0  0  0  0  0
  185.3670  178.4080  144.6680 C   0  0  0  0  0  0  0  0  0  0  0  0
  181.5610  178.8570  141.2080 C   0  0  0  0  0  3  0  0  0  0  0  0
  185.1730  178.3680  142.2110 C   0  0  0  0  0  0  0  0  0  0  0  0
  181.7540  179.0940  143.6100 C   0  0  0  0  0  3  0  0  0  0  0  0
  183.1300  178.8580  143.5300 C   0  0  0  0  0  0  0  0  0  0  0  0
  188.1550  177.8820  144.5390 C   0  0  0  0  0  0  0  0  0  0  0  0
  183.9530  178.9430  144.7890 C   0  0  0  0  0  3  0  0  0  0  0  0
  187.5380  178.0800  145.7730 O   0  0  0  0  0  0  0  0  0  0  0  0
  189.4860  177.9310  144.4320 C   0  0  0  0  0  3  0  0  0  0  0  0
  185.7900  178.3090  141.0660 N   0  0  0  0  0  0  0  0  0  0  0  0
  187.2110  178.1050  140.9280 C   0  0  0  0  0  0  0  0  0  0  0  0
  183.7270  178.6290  142.2780 C   0  0  0  0  0  0  0  0  0  0  0  0
  186.1670  178.2420  145.8590 N   0  0  0  0  0  0  0  0  0  0  0  0
  190.1490  177.8030  143.1180 C   0  0  0  0  0  3  0  0  0  0  0  0
  180.9700  179.0880  142.4520 C   0  0  0  0  0  3  0  0  0  0  0  0
  182.9380  178.6280  141.1200 C   0  0  0  0  0  3  0  0  0  0  0  0
  186.8370  176.8790  137.6540 C   0  0  1  0  0  3  0  0  0  0  0  0
  189.9100  176.8180  136.1410 O   0  0  0  0  0  0  0  0  0  0  0  0
  186.2620  177.0250  136.2570 C   0  0  0  0  0  1  0  0  0  0  0  0
  189.7930  178.1700  138.0660 C   0  0  0  0  0  2  0  0  0  0  0  0
  187.7980  178.2520  139.5710 C   0  0  0  0  0  0  0  0  0  0  0  0
  188.1810  176.1340  137.5860 C   0  0  0  0  0  2  0  0  0  0  0  0
  189.1280  178.1840  139.4160 C   0  0  0  0  0  3  0  0  0  0  0  0
  186.9190  178.2540  138.3390 C   0  0  2  0  0  3  0  0  0  0  0  0
  185.5900  178.7760  138.6220 N   0  0  0  0  0  1  0  0  0  0  0  0
  189.3390  177.0210  137.1980 C   0  0  0  0  0  0  0  0  0  0  0  0
  185.5790  178.4110  147.1800 C   0  0  0  0  0  2  0  0  0  0  0  0
  185.7220  179.7360  147.5900 O   0  0  0  0  0  1  0  0  0  0  0  0
  1  3  1  6  0  0  0
  1  4  1  0  0  0  0
  2  5  1  0  0  0  0
  3 18  2  0  0  0  0
  4  2  1  1  0  0  0
  4 10  1  0  0  0  0
  5 11  2  0  0  0  0
  5 17  1  0  0  0  0
  6 19  1  0  0  0  0
  7 16  1  0  0  0  0
  7  2  2  0  0  0  0
  9  8  1  0  0  0  0
  9 11  1  0  0  0  0
 10 12  1  0  0  0  0
 12 17  1  0  0  0  0
 13 10  2  0  0  0  0
 14  7  1  0  0  0  0
 15 14  2  0  0  0  0
 15  1  1  0  0  0  0
 16  9  2  0  0  0  0
 17 31  1  0  0  0  0
 18 13  1  0  0  0  0
 19  8  2  0  0  0  0
 20  6  2  0  0  0  0
 20 16  1  0  0  0  0
 21 23  1  6  0  0  0
 21 28  1  0  0  0  0
 22 30  2  0  0  0  0
 24 27  1  0  0  0  0
 25 15  1  0  0  0  0
 26 21  1  0  0  0  0
 27 25  2  0  0  0  0
 28 29  1  1  0  0  0
 28 25  1  0  0  0  0
 30 26  1  0  0  0  0
 30 24  1  0  0  0  0
 31 32  1  0  0  0  0
M  END
>  <MODEL>
5

>  <REMARK>
 VINA RESULT:     -10.5      1.728      2.359
  Name = 
  2 active torsions:
  status: ('A' for Active; 'I' for Inactive)
    1  A    between atoms: C_13  and  N_29
    2  A    between atoms: C_16  and  C_27
                            x       y       z     vdW  Elec       q    Type
                         _______ _______ _______ _____ _____    ______ ____

>  <TORSDO>
F 2

$$$$
=
 OpenBabel11052414423D

 32 37  0  0  1  0  0  0  0  0999 V2000
  187.2160  178.2420  139.9860 C   0  0  0  0  0  0  0  0  0  0  0  0
  186.7110  178.2540  142.4480 C   0  0  0  0  0  0  0  0  0  0  0  0
  186.6540  178.2420  138.6170 C   0  0  0  0  0  3  0  0  0  0  0  0
  186.3400  178.7830  141.0940 C   0  0  2  0  0  3  0  0  0  0  0  0
  185.8240  178.2650  143.4650 C   0  0  0  0  0  0  0  0  0  0  0  0
  190.4410  177.3830  145.6000 C   0  0  0  0  0  3  0  0  0  0  0  0
  188.1220  177.8850  142.6580 C   0  0  0  0  0  0  0  0  0  0  0  0
  188.1650  177.5590  146.4080 C   0  0  0  0  0  3  0  0  0  0  0  0
  187.7040  177.7190  145.0970 C   0  0  0  0  0  0  0  0  0  0  0  0
  184.8690  178.6410  140.8160 C   0  0  0  0  0  0  0  0  0  0  0  0
  186.2210  177.8200  144.8590 C   0  0  0  0  0  3  0  0  0  0  0  0
  183.9830  178.6880  141.8910 O   0  0  0  0  0  0  0  0  0  0  0  0
  184.4110  178.5170  139.5670 C   0  0  0  0  0  3  0  0  0  0  0  0
  188.9080  177.7170  141.6330 N   0  0  0  0  0  2  0  0  0  0  0  0
  188.4770  177.8330  140.2620 C   0  0  0  0  0  0  0  0  0  0  0  0
  188.6190  177.7020  144.0300 C   0  0  0  0  0  0  0  0  0  0  0  0
  184.4460  178.6020  143.1920 N   0  0  0  0  0  0  0  0  0  0  0  0
  185.3390  178.3870  138.4260 C   0  0  0  0  0  3  0  0  0  0  0  0
  189.5300  177.3980  146.6600 C   0  0  0  0  0  3  0  0  0  0  0  0
  189.9870  177.5340  144.2870 C   0  0  0  0  0  3  0  0  0  0  0  0
  188.6520  177.3650  136.7830 C   0  0  1  0  0  3  0  0  0  0  0  0
  190.8560  174.8280  136.1190 O   0  0  0  0  0  0  0  0  0  0  0  0
  189.0000  177.8960  135.4030 C   0  0  0  0  0  1  0  0  0  0  0  0
  191.0430  175.7480  138.2800 C   0  0  0  0  0  2  0  0  0  0  0  0
  189.4370  177.4280  139.2030 C   0  0  0  0  0  0  0  0  0  0  0  0
  188.8460  175.8400  136.8150 C   0  0  0  0  0  2  0  0  0  0  0  0
  190.1630  176.3120  139.3630 C   0  0  0  0  0  3  0  0  0  0  0  0
  189.4500  178.1200  137.8580 C   0  0  2  0  0  3  0  0  0  0  0  0
  189.0120  179.5050  137.9580 N   0  0  0  0  0  1  0  0  0  0  0  0
  190.2830  175.4230  137.0150 C   0  0  0  0  0  0  0  0  0  0  0  0
  183.4740  178.6910  144.2720 C   0  0  0  0  0  2  0  0  0  0  0  0
  182.2170  178.9910  143.7470 O   0  0  0  0  0  1  0  0  0  0  0  0
  1 15  2  0  0  0  0
  2  7  2  0  0  0  0
  2  5  1  0  0  0  0
  3  1  1  0  0  0  0
  4  1  1  6  0  0  0
  4  2  1  0  0  0  0
  5 11  2  0  0  0  0
  6 19  1  0  0  0  0
  7 16  1  0  0  0  0
  8 19  2  0  0  0  0
  9  8  1  0  0  0  0
 10  4  1  0  0  0  0
 10 12  1  0  0  0  0
 11  9  1  0  0  0  0
 12 17  1  0  0  0  0
 13 10  2  0  0  0  0
 14  7  1  0  0  0  0
 15 14  1  0  0  0  0
 16 20  1  0  0  0  0
 16  9  2  0  0  0  0
 17  5  1  0  0  0  0
 17 31  1  0  0  0  0
 18  3  2  0  0  0  0
 18 13  1  0  0  0  0
 20  6  2  0  0  0  0
 21 23  1  6  0  0  0
 21 26  1  0  0  0  0
 21 28  1  0  0  0  0
 22 30  2  0  0  0  0
 24 27  1  0  0  0  0
 25 27  2  0  0  0  0
 25 15  1  0  0  0  0
 26 30  1  0  0  0  0
 28 29  1  1  0  0  0
 28 25  1  0  0  0  0
 30 24  1  0  0  0  0
 32 31  1  0  0  0  0
M  END
>  <MODEL>
6

>  <REMARK>
 VINA RESULT:     -10.3      2.616      4.618
  Name = 
  2 active torsions:
  status: ('A' for Active; 'I' for Inactive)
    1  A    between atoms: C_13  and  N_29
    2  A    between atoms: C_16  and  C_27
                            x       y       z     vdW  Elec       q    Type
                         _______ _______ _______ _____ _____    ______ ____

>  <TORSDO>
F 2

$$$$
=
 OpenBabel11052414423D

 32 37  0  0  1  0  0  0  0  0999 V2000
  186.2420  178.5530  139.7250 C   0  0  0  0  0  0  0  0  0  0  0  0
  186.9350  178.2530  142.1220 C   0  0  0  0  0  0  0  0  0  0  0  0
  185.1160  178.7550  138.7880 C   0  0  0  0  0  3  0  0  0  0  0  0
  186.0310  178.9700  141.1630 C   0  0  2  0  0  3  0  0  0  0  0  0
  186.6220  178.1580  143.4320 C   0  0  0  0  0  0  0  0  0  0  0  0
  191.5990  176.8400  143.0470 C   0  0  0  0  0  3  0  0  0  0  0  0
  188.2410  177.8110  141.6060 C   0  0  0  0  0  0  0  0  0  0  0  0
  189.9800  176.9850  144.8420 C   0  0  0  0  0  3  0  0  0  0  0  0
  188.9830  177.3340  143.9250 C   0  0  0  0  0  0  0  0  0  0  0  0
  184.5920  178.9180  141.5960 C   0  0  0  0  0  0  0  0  0  0  0  0
  187.5740  177.5170  144.4220 C   0  0  0  0  0  3  0  0  0  0  0  0
  184.3110  178.8510  142.9590 O   0  0  0  0  0  0  0  0  0  0  0  0
  183.6000  178.9790  140.7020 C   0  0  0  0  0  3  0  0  0  0  0  0
  188.4470  177.7540  140.3210 N   0  0  0  0  0  2  0  0  0  0  0  0
  187.4450  178.0680  139.3330 C   0  0  0  0  0  0  0  0  0  0  0  0
  189.2960  177.4280  142.5570 C   0  0  0  0  0  0  0  0  0  0  0  0
  185.3120  178.5760  143.8740 N   0  0  0  0  0  0  0  0  0  0  0  0
  183.8810  178.9700  139.2520 C   0  0  0  0  0  3  0  0  0  0  0  0
  191.2860  176.7440  144.4050 C   0  0  0  0  0  3  0  0  0  0  0  0
  190.6060  177.1800  142.1240 C   0  0  0  0  0  3  0  0  0  0  0  0
  188.5630  175.4410  137.2830 C   0  0  1  0  0  3  0  0  0  0  0  0
  190.4240  176.7530  134.7230 O   0  0  0  0  0  0  0  0  0  0  0  0
  188.2560  174.2910  136.3390 C   0  0  0  0  0  1  0  0  0  0  0  0
  189.0560  178.3120  135.8390 C   0  0  0  0  0  2  0  0  0  0  0  0
  187.7650  177.7740  137.9130 C   0  0  0  0  0  0  0  0  0  0  0  0
  189.9220  176.0620  136.9180 C   0  0  0  0  0  2  0  0  0  0  0  0
  188.5590  178.6100  137.2290 C   0  0  0  0  0  3  0  0  0  0  0  0
  187.3990  176.4440  137.2900 C   0  0  2  0  0  3  0  0  0  0  0  0
  186.2140  175.8660  137.9090 N   0  0  0  0  0  1  0  0  0  0  0  0
  189.8470  177.0280  135.7610 C   0  0  0  0  0  0  0  0  0  0  0  0
  184.9610  178.5530  145.2860 C   0  0  0  0  0  2  0  0  0  0  0  0
  183.6500  179.0030  145.4510 O   0  0  0  0  0  1  0  0  0  0  0  0
  2  5  1  0  0  0  0
  3 18  2  0  0  0  0
  3  1  1  0  0  0  0
  4  1  1  6  0  0  0
  4 10  1  0  0  0  0
  4  2  1  0  0  0  0
  5 17  1  0  0  0  0
  5 11  2  0  0  0  0
  6 19  1  0  0  0  0
  7  2  2  0  0  0  0
  7 16  1  0  0  0  0
  9 11  1  0  0  0  0
  9  8  1  0  0  0  0
 10 12  1  0  0  0  0
 12 17  1  0  0  0  0
 13 10  2  0  0  0  0
 14  7  1  0  0  0  0
 15  1  2  0  0  0  0
 15 14  1  0  0  0  0
 16  9  2  0  0  0  0
 17 31  1  0  0  0  0
 18 13  1  0  0  0  0
 19  8  2  0  0  0  0
 20 16  1  0  0  0  0
 20  6  2  0  0  0  0
 21 23  1  6  0  0  0
 21 28  1  0  0  0  0
 22 30  2  0  0  0  0
 24 27  1  0  0  0  0
 25 15  1  0  0  0  0
 26 21  1  0  0  0  0
 27 25  2  0  0  0  0
 28 29  1  1  0  0  0
 28 25  1  0  0  0  0
 30 24  1  0  0  0  0
 30 26  1  0  0  0  0
 31 32  1  0  0  0  0
M  END
>  <MODEL>
7

>  <REMARK>
 VINA RESULT:     -10.2      2.363      4.717
  Name = 
  2 active torsions:
  status: ('A' for Active; 'I' for Inactive)
    1  A    between atoms: C_13  and  N_29
    2  A    between atoms: C_16  and  C_27
                            x       y       z     vdW  Elec       q    Type
                         _______ _______ _______ _____ _____    ______ ____

>  <TORSDO>
F 2

$$$$
=
 OpenBabel11052414423D

 32 37  0  0  1  0  0  0  0  0999 V2000
  186.9280  178.1500  140.2830 C   0  0  0  0  0  0  0  0  0  0  0  0
  185.1770  178.6010  142.0290 C   0  0  0  0  0  0  0  0  0  0  0  0
  187.1980  177.9100  138.8490 C   0  0  0  0  0  3  0  0  0  0  0  0
  185.6520  178.8830  140.6350 C   0  0  2  0  0  3  0  0  0  0  0  0
  183.8880  178.7950  142.3760 C   0  0  0  0  0  0  0  0  0  0  0  0
  186.5020  178.2840  146.7990 C   0  0  0  0  0  3  0  0  0  0  0  0
  186.2050  178.2680  143.0310 C   0  0  0  0  0  0  0  0  0  0  0  0
  184.1820  178.6120  146.1870 C   0  0  0  0  0  3  0  0  0  0  0  0
  184.5210  178.5390  144.8320 C   0  0  0  0  0  0  0  0  0  0  0  0
  184.5590  178.7010  139.6180 C   0  0  0  0  0  0  0  0  0  0  0  0
  183.4220  178.6030  143.8060 C   0  0  0  0  0  3  0  0  0  0  0  0
  183.2430  178.9420  140.0080 O   0  0  0  0  0  0  0  0  0  0  0  0
  184.8400  178.3600  138.3570 C   0  0  0  0  0  3  0  0  0  0  0  0
  187.3990  177.9170  142.6450 N   0  0  0  0  0  2  0  0  0  0  0  0
  187.7920  177.7910  141.2630 C   0  0  0  0  0  0  0  0  0  0  0  0
  185.8610  178.3280  144.4590 C   0  0  0  0  0  0  0  0  0  0  0  0
  182.9190  179.0860  141.3460 N   0  0  0  0  0  0  0  0  0  0  0  0
  186.2180  178.0250  137.9470 C   0  0  0  0  0  3  0  0  0  0  0  0
  185.1700  178.4900  147.1680 C   0  0  0  0  0  3  0  0  0  0  0  0
  186.8470  178.2020  145.4470 C   0  0  0  0  0  3  0  0  0  0  0  0
  190.8370  177.0530  142.8560 C   0  0  1  0  0  3  0  0  0  0  0  0
  193.3780  177.3680  140.5800 O   0  0  0  0  0  0  0  0  0  0  0  0
  191.7350  176.0610  143.5740 C   0  0  0  0  0  1  0  0  0  0  0  0
  191.2300  177.1810  139.6310 C   0  0  0  0  0  2  0  0  0  0  0  0
  189.1240  177.1990  140.9780 C   0  0  0  0  0  0  0  0  0  0  0  0
  191.6970  178.0620  142.0760 C   0  0  0  0  0  2  0  0  0  0  0  0
  189.8150  177.6140  139.9070 C   0  0  0  0  0  3  0  0  0  0  0  0
  189.8110  176.3060  141.9880 C   0  0  2  0  0  3  0  0  0  0  0  0
  188.8520  175.5870  142.8160 N   0  0  0  0  0  1  0  0  0  0  0  0
  192.1830  177.5350  140.7480 C   0  0  0  0  0  0  0  0  0  0  0  0
  181.5320  179.3690  141.6870 C   0  0  0  0  0  2  0  0  0  0  0  0
  180.8460  179.7890  140.5470 O   0  0  0  0  0  1  0  0  0  0  0  0
  1  4  1  0  0  0  0
  1 15  2  0  0  0  0
  2  5  2  0  0  0  0
  2  7  1  0  0  0  0
  3  1  1  0  0  0  0
  4 10  1  6  0  0  0
  4  2  1  0  0  0  0
  5 11  1  0  0  0  0
  6 19  1  0  0  0  0
  7 16  2  0  0  0  0
  8 19  2  0  0  0  0
  9  8  1  0  0  0  0
 10 12  1  0  0  0  0
 11  9  2  0  0  0  0
 12 17  1  0  0  0  0
 13 10  2  0  0  0  0
 14  7  1  0  0  0  0
 15 14  1  0  0  0  0
 16  9  1  0  0  0  0
 16 20  1  0  0  0  0
 17 31  1  0  0  0  0
 17  5  1  0  0  0  0
 18 13  1  0  0  0  0
 18  3  2  0  0  0  0
 20  6  2  0  0  0  0
 21 23  1  6  0  0  0
 22 30  2  0  0  0  0
 24 27  1  0  0  0  0
 24 30  1  0  0  0  0
 25 15  1  0  0  0  0
 25 28  1  0  0  0  0
 26 21  1  0  0  0  0
 27 25  2  0  0  0  0
 28 29  1  1  0  0  0
 28 21  1  0  0  0  0
 30 26  1  0  0  0  0
 32 31  1  0  0  0  0
M  END
>  <MODEL>
8

>  <REMARK>
 VINA RESULT:     -10.1      2.775      5.628
  Name = 
  2 active torsions:
  status: ('A' for Active; 'I' for Inactive)
    1  A    between atoms: C_13  and  N_29
    2  A    between atoms: C_16  and  C_27
                            x       y       z     vdW  Elec       q    Type
                         _______ _______ _______ _____ _____    ______ ____

>  <TORSDO>
F 2

$$$$
=
 OpenBabel11052414423D

 32 37  0  0  1  0  0  0  0  0999 V2000
  182.5590  178.7360  141.7880 C   0  0  2  0  0  3  0  0  0  0  0  0
  184.7620  178.5670  142.9860 C   0  0  0  0  0  0  0  0  0  0  0  0
  181.0860  178.7380  141.9220 C   0  0  0  0  0  3  0  0  0  0  0  0
  183.3660  179.1150  143.0100 C   0  0  2  0  0  3  0  0  0  0  0  0
  185.4710  178.4230  144.1250 C   0  0  0  0  0  0  0  0  0  0  0  0
  188.8640  177.9830  140.2580 C   0  0  0  0  0  3  0  0  0  0  0  0
  185.3740  178.3550  141.6630 C   0  0  0  0  0  0  0  0  0  0  0  0
  188.9660  177.8510  142.6740 C   0  0  0  0  0  3  0  0  0  0  0  0
  187.5790  178.0210  142.7490 C   0  0  0  0  0  0  0  0  0  0  0  0
  182.6640  178.8160  144.3060 C   0  0  0  0  0  0  0  0  0  0  0  0
  186.9140  177.9590  144.0990 C   0  0  0  0  0  3  0  0  0  0  0  0
  183.4290  178.7050  145.4650 O   0  0  0  0  0  0  0  0  0  0  0  0
  181.3340  178.7010  144.3600 C   0  0  0  0  0  3  0  0  0  0  0  0
  184.6260  178.3320  140.5970 N   0  0  0  0  0  0  0  0  0  0  0  0
  183.1900  178.4650  140.6210 C   0  0  0  0  0  0  0  0  0  0  0  0
  186.8290  178.1640  141.5690 C   0  0  0  0  0  0  0  0  0  0  0  0
  184.8080  178.6100  145.3950 N   0  0  0  0  0  0  0  0  0  0  0  0
  180.5160  178.7370  143.1310 C   0  0  0  0  0  3  0  0  0  0  0  0
  189.6080  177.8380  141.4330 C   0  0  0  0  0  3  0  0  0  0  0  0
  187.4780  178.1450  140.3250 C   0  0  0  0  0  3  0  0  0  0  0  0
  183.2160  176.3400  137.8210 C   0  0  1  0  0  3  0  0  0  0  0  0
  182.1290  178.0990  135.0890 O   0  0  0  0  0  0  0  0  0  0  0  0
  182.6990  175.1030  137.1070 C   0  0  0  0  0  1  0  0  0  0  0  0
  181.6030  179.0850  137.1630 C   0  0  0  0  0  2  0  0  0  0  0  0
  182.4570  178.2270  139.3510 C   0  0  0  0  0  0  0  0  0  0  0  0
  183.6090  177.4080  136.7870 C   0  0  0  0  0  2  0  0  0  0  0  0
  182.2030  179.2580  138.5330 C   0  0  0  0  0  3  0  0  0  0  0  0
  182.1890  176.8220  138.8580 C   0  0  2  0  0  3  0  0  0  0  0  0
  182.0740  175.8750  139.9590 N   0  0  0  0  0  1  0  0  0  0  0  0
  182.4330  178.1980  136.2650 C   0  0  0  0  0  0  0  0  0  0  0  0
  185.5540  178.5300  146.6420 C   0  0  0  0  0  2  0  0  0  0  0  0
  185.6570  179.8010  147.2080 O   0  0  0  0  0  1  0  0  0  0  0  0
  1  3  1  6  0  0  0
  1  4  1  0  0  0  0
  2  5  1  0  0  0  0
  3 18  2  0  0  0  0
  4  2  1  1  0  0  0
  4 10  1  0  0  0  0
  5 17  1  0  0  0  0
  6 20  2  0  0  0  0
  6 19  1  0  0  0  0
  7  2  2  0  0  0  0
  8  9  1  0  0  0  0
  9 11  1  0  0  0  0
 10 13  2  0  0  0  0
 10 12  1  0  0  0  0
 11  5  2  0  0  0  0
 14 15  2  0  0  0  0
 14  7  1  0  0  0  0
 15  1  1  0  0  0  0
 16  7  1  0  0  0  0
 16  9  2  0  0  0  0
 17 12  1  0  0  0  0
 17 31  1  0  0  0  0
 18 13  1  0  0  0  0
 19  8  2  0  0  0  0
 20 16  1  0  0  0  0
 21 23  1  6  0  0  0
 21 28  1  0  0  0  0
 22 30  2  0  0  0  0
 24 27  1  0  0  0  0
 25 15  1  0  0  0  0
 26 21  1  0  0  0  0
 27 25  2  0  0  0  0
 28 25  1  0  0  0  0
 28 29  1  1  0  0  0
 30 26  1  0  0  0  0
 30 24  1  0  0  0  0
 31 32  1  0  0  0  0
M  END
>  <MODEL>
9

>  <REMARK>
 VINA RESULT:     -10.0      3.141      5.907
  Name = 
  2 active torsions:
  status: ('A' for Active; 'I' for Inactive)
    1  A    between atoms: C_13  and  N_29
    2  A    between atoms: C_16  and  C_27
                            x       y       z     vdW  Elec       q    Type
                         _______ _______ _______ _____ _____    ______ ____

>  <TORSDO>
F 2

$$$$
