=
 OpenBabel11052414353D

 32 37  0  0  1  0  0  0  0  0999 V2000
  189.4170  177.3820  143.6110 C   0  0  0  0  0  0  0  0  0  0  0  0
  187.5040  177.9450  145.0540 N   0  0  0  0  0  0  0  0  0  0  0  0
  190.7450  176.9460  143.4850 C   0  0  0  0  0  3  0  0  0  0  0  0
  188.8270  177.4120  144.8900 C   0  0  0  0  0  0  0  0  0  0  0  0
  186.9200  178.0410  146.3690 C   0  0  0  0  0  0  0  0  0  0  0  0
  183.2690  178.8520  142.9790 C   0  0  0  0  0  3  0  0  0  0  0  0
  186.7500  178.2880  143.8790 C   0  0  0  0  0  0  0  0  0  0  0  0
  183.4130  178.6620  145.4250 C   0  0  0  0  0  3  0  0  0  0  0  0
  184.8790  178.9820  145.3480 C   0  0  0  0  0  0  0  0  0  0  0  0
  189.5270  176.9090  146.0030 C   0  0  0  0  0  0  0  0  0  0  0  0
  185.6690  178.4800  146.5210 C   0  0  0  0  0  3  0  0  0  0  0  0
  188.8230  176.7080  147.3120 C   0  0  0  0  0  2  0  0  0  0  0  0
  190.8370  176.4520  145.8510 C   0  0  0  0  0  3  0  0  0  0  0  0
  187.3710  178.1800  142.5910 N   0  0  0  0  0  0  0  0  0  0  0  0
  188.6030  177.7890  142.4250 C   0  0  0  0  0  0  0  0  0  0  0  0
  185.4700  178.6640  143.9920 C   0  0  0  0  0  0  0  0  0  0  0  0
  187.7560  177.7700  147.5860 C   0  0  1  0  0  3  0  0  0  0  0  0
  191.4540  176.4930  144.5990 C   0  0  0  0  0  3  0  0  0  0  0  0
  182.6620  178.6550  144.3160 C   0  0  0  0  0  3  0  0  0  0  0  0
  184.5970  178.8440  142.8170 C   0  0  0  0  0  2  0  0  0  0  0  0
  188.8360  177.9580  138.6350 C   0  0  0  0  0  0  0  0  0  0  0  0
  188.0660  178.3000  137.5730 F   0  0  0  0  0  0  0  0  0  0  0  0
  189.1350  177.7180  141.0410 C   0  0  0  0  0  0  0  0  0  0  0  0
  190.1380  177.5020  138.4250 C   0  0  0  0  0  3  0  0  0  0  0  0
  190.4380  177.2520  140.8100 C   0  0  0  0  0  3  0  0  0  0  0  0
  188.3300  178.0630  139.9360 C   0  0  0  0  0  0  0  0  0  0  0  0
  187.0650  178.5240  140.1170 F   0  0  0  0  0  0  0  0  0  0  0  0
  190.9480  177.1460  139.5130 C   0  0  0  0  0  0  0  0  0  0  0  0
  192.8210  176.4580  138.0510 C   0  0  0  0  0  1  0  0  0  0  0  0
  192.2550  176.6840  139.3350 O   0  0  0  0  0  0  0  0  0  0  0  0
  188.3670  178.9520  148.0070 O   0  0  0  0  0  0  0  0  0  0  0  0
  189.3110  178.5620  148.8370 O   0  0  0  0  0  1  0  0  0  0  0  0
  1  4  1  0  0  0  0
  2  5  1  0  0  0  0
  3  1  2  0  0  0  0
  3 18  1  0  0  0  0
  4  2  1  0  0  0  0
  4 10  2  0  0  0  0
  5 11  2  0  0  0  0
  5 17  1  0  0  0  0
  6 19  2  0  0  0  0
  7 16  2  0  0  0  0
  7  2  1  0  0  0  0
  9  8  2  0  0  0  0
  9 11  1  0  0  0  0
 10 12  1  0  0  0  0
 12 17  1  0  0  0  0
 13 10  1  0  0  0  0
 14  7  1  0  0  0  0
 15 14  2  0  0  0  0
 15  1  1  0  0  0  0
 16  9  1  0  0  0  0
 17 31  1  6  0  0  0
 18 13  2  0  0  0  0
 19  8  1  0  0  0  0
 20  6  1  0  0  0  0
 20 16  1  0  0  0  0
 21 26  1  0  0  0  0
 22 21  1  0  0  0  0
 23 15  1  0  0  0  0
 24 21  2  0  0  0  0
 24 28  1  0  0  0  0
 25 23  1  0  0  0  0
 26 27  1  0  0  0  0
 26 23  2  0  0  0  0
 28 25  2  0  0  0  0
 29 30  1  0  0  0  0
 30 28  1  0  0  0  0
 31 32  1  0  0  0  0
M  END
>  <MODEL>
1

>  <REMARK>
 VINA RESULT:     -11.4      0.000      0.000
  Name = 
  3 active torsions:
  status: ('A' for Active; 'I' for Inactive)
    1  A    between atoms: O_13  and  C_29
    2  A    between atoms: O_15  and  C_26
    3  A    between atoms: C_16  and  C_27
                            x       y       z     vdW  Elec       q    Type
                         _______ _______ _______ _____ _____    ______ ____

>  <TORSDO>
F 3

$$$$
=
 OpenBabel11052414353D

 32 37  0  0  1  0  0  0  0  0999 V2000
  187.1220  177.9420  143.7400 C   0  0  0  0  0  0  0  0  0  0  0  0
  187.1530  178.0290  141.2810 N   0  0  0  0  0  0  0  0  0  0  0  0
  186.4110  178.0790  144.9420 C   0  0  0  0  0  3  0  0  0  0  0  0
  186.4290  178.0690  142.5200 C   0  0  0  0  0  0  0  0  0  0  0  0
  186.4610  178.2250  140.0310 C   0  0  0  0  0  0  0  0  0  0  0  0
  191.0900  176.5030  138.9930 C   0  0  0  0  0  3  0  0  0  0  0  0
  188.5520  177.6970  141.3110 C   0  0  0  0  0  0  0  0  0  0  0  0
  189.0710  177.0580  137.7070 C   0  0  0  0  0  3  0  0  0  0  0  0
  188.6040  177.9220  138.8440 C   0  0  1  0  0  3  0  0  0  0  0  0
  185.0300  178.2230  142.5150 C   0  0  0  0  0  0  0  0  0  0  0  0
  187.1180  178.1310  138.8740 C   0  0  0  0  0  3  0  0  0  0  0  0
  184.2620  178.1100  141.2300 C   0  0  0  0  0  2  0  0  0  0  0  0
  184.3370  178.3270  143.7220 C   0  0  0  0  0  3  0  0  0  0  0  0
  189.2010  177.5130  142.5760 N   0  0  0  0  0  0  0  0  0  0  0  0
  188.5860  177.6380  143.7180 C   0  0  0  0  0  0  0  0  0  0  0  0
  189.2230  177.5250  140.1650 C   0  0  0  0  0  0  0  0  0  0  0  0
  185.0250  178.6650  140.0270 C   0  0  1  0  0  3  0  0  0  0  0  0
  185.0300  178.2800  144.9340 C   0  0  0  0  0  3  0  0  0  0  0  0
  190.2580  176.4410  137.7690 C   0  0  0  0  0  3  0  0  0  0  0  0
  190.6020  177.0020  140.1340 C   0  0  0  0  0  3  0  0  0  0  0  0
  191.3060  176.5150  146.1220 C   0  0  0  0  0  0  0  0  0  0  0  0
  192.4960  175.8670  146.0960 F   0  0  0  0  0  0  0  0  0  0  0  0
  189.3660  177.4220  144.9620 C   0  0  0  0  0  0  0  0  0  0  0  0
  190.7890  176.9600  147.3400 C   0  0  0  0  0  3  0  0  0  0  0  0
  188.8570  177.8540  146.1960 C   0  0  0  0  0  3  0  0  0  0  0  0
  190.5990  176.7390  144.9350 C   0  0  0  0  0  0  0  0  0  0  0  0
  191.1290  176.3110  143.7600 F   0  0  0  0  0  0  0  0  0  0  0  0
  189.5600  177.6320  147.3840 C   0  0  0  0  0  0  0  0  0  0  0  0
  187.6150  178.1930  148.8050 C   0  0  0  0  0  1  0  0  0  0  0  0
  189.0150  178.0880  148.5880 O   0  0  0  0  0  0  0  0  0  0  0  0
  184.9620  180.0600  140.0330 O   0  0  0  0  0  0  0  0  0  0  0  0
  184.2120  180.3640  138.9950 O   0  0  0  0  0  1  0  0  0  0  0  0
  1  3  2  0  0  0  0
  2  7  1  0  0  0  0
  2  4  1  0  0  0  0
  4  1  1  0  0  0  0
  5  2  1  0  0  0  0
  6 20  2  0  0  0  0
  7 14  1  0  0  0  0
  8 19  2  0  0  0  0
  9  8  1  6  0  0  0
  9 11  1  0  0  0  0
  9 16  1  0  0  0  0
 10  4  2  0  0  0  0
 10 13  1  0  0  0  0
 11  5  2  0  0  0  0
 12 10  1  0  0  0  0
 13 18  2  0  0  0  0
 14 15  2  0  0  0  0
 15  1  1  0  0  0  0
 15 23  1  0  0  0  0
 16  7  2  0  0  0  0
 17  5  1  0  0  0  0
 17 31  1  1  0  0  0
 17 12  1  0  0  0  0
 18  3  1  0  0  0  0
 19  6  1  0  0  0  0
 20 16  1  0  0  0  0
 21 24  1  0  0  0  0
 22 21  1  0  0  0  0
 23 25  2  0  0  0  0
 24 28  2  0  0  0  0
 25 28  1  0  0  0  0
 26 23  1  0  0  0  0
 26 21  2  0  0  0  0
 27 26  1  0  0  0  0
 28 30  1  0  0  0  0
 30 29  1  0  0  0  0
 32 31  1  0  0  0  0
M  END
>  <MODEL>
2

>  <REMARK>
 VINA RESULT:     -11.2      3.035      7.306
  Name = 
  3 active torsions:
  status: ('A' for Active; 'I' for Inactive)
    1  A    between atoms: O_13  and  C_29
    2  A    between atoms: O_15  and  C_26
    3  A    between atoms: C_16  and  C_27
                            x       y       z     vdW  Elec       q    Type
                         _______ _______ _______ _____ _____    ______ ____

>  <TORSDO>
F 3

$$$$
=
 OpenBabel11052414353D

 32 37  0  0  1  0  0  0  0  0999 V2000
  189.8640  177.0600  144.2490 C   0  0  0  0  0  0  0  0  0  0  0  0
  187.7700  177.7970  145.3130 N   0  0  0  0  0  0  0  0  0  0  0  0
  191.1710  176.5660  144.3760 C   0  0  0  0  0  3  0  0  0  0  0  0
  189.0740  177.2040  145.4070 C   0  0  0  0  0  0  0  0  0  0  0  0
  186.9830  178.0100  146.5020 C   0  0  0  0  0  0  0  0  0  0  0  0
  183.9840  178.7110  142.5040 C   0  0  0  0  0  3  0  0  0  0  0  0
  187.2370  178.0830  144.0080 C   0  0  0  0  0  0  0  0  0  0  0  0
  183.7140  178.6940  144.9460 C   0  0  0  0  0  3  0  0  0  0  0  0
  185.1870  178.9510  145.0950 C   0  0  0  0  0  0  0  0  0  0  0  0
  189.5570  176.7570  146.6520 C   0  0  0  0  0  0  0  0  0  0  0  0
  185.7480  178.5070  146.4130 C   0  0  0  0  0  3  0  0  0  0  0  0
  188.6370  176.6790  147.8350 C   0  0  0  0  0  2  0  0  0  0  0  0
  190.8490  176.2410  146.7520 C   0  0  0  0  0  3  0  0  0  0  0  0
  188.0560  177.8590  142.8520 N   0  0  0  0  0  0  0  0  0  0  0  0
  189.2780  177.4100  142.9200 C   0  0  0  0  0  0  0  0  0  0  0  0
  185.9760  178.5150  143.8810 C   0  0  0  0  0  0  0  0  0  0  0  0
  187.5940  177.7970  147.8570 C   0  0  1  0  0  3  0  0  0  0  0  0
  191.6650  176.1680  145.6200 C   0  0  0  0  0  3  0  0  0  0  0  0
  183.1570  178.6350  143.7300 C   0  0  0  0  0  3  0  0  0  0  0  0
  185.3180  178.6410  142.5670 C   0  0  0  0  0  2  0  0  0  0  0  0
  192.0410  177.4860  140.3130 C   0  0  0  0  0  0  0  0  0  0  0  0
  193.3310  177.8860  140.1950 F   0  0  0  0  0  0  0  0  0  0  0  0
  190.0250  177.2190  141.6520 C   0  0  0  0  0  0  0  0  0  0  0  0
  191.3940  176.9140  139.2170 C   0  0  0  0  0  3  0  0  0  0  0  0
  189.3860  176.6540  140.5370 C   0  0  0  0  0  3  0  0  0  0  0  0
  191.3630  177.6440  141.5270 C   0  0  0  0  0  0  0  0  0  0  0  0
  192.0180  178.1900  142.5830 F   0  0  0  0  0  0  0  0  0  0  0  0
  190.0610  176.4940  139.3230 C   0  0  0  0  0  0  0  0  0  0  0  0
  188.3240  176.5780  137.5640 C   0  0  0  0  0  1  0  0  0  0  0  0
  189.3840  175.9190  138.2440 O   0  0  0  0  0  0  0  0  0  0  0  0
  188.1860  178.9830  148.2960 O   0  0  0  0  0  0  0  0  0  0  0  0
  189.2130  178.5940  149.0210 O   0  0  0  0  0  1  0  0  0  0  0  0
  1  3  2  0  0  0  0
  1  4  1  0  0  0  0
  2  4  1  0  0  0  0
  2  5  1  0  0  0  0
  3 18  1  0  0  0  0
  4 10  2  0  0  0  0
  5 17  1  0  0  0  0
  6 20  1  0  0  0  0
  6 19  2  0  0  0  0
  7  2  1  0  0  0  0
  8  9  2  0  0  0  0
  9 11  1  0  0  0  0
 10 13  1  0  0  0  0
 10 12  1  0  0  0  0
 11  5  2  0  0  0  0
 12 17  1  0  0  0  0
 14 15  2  0  0  0  0
 14  7  1  0  0  0  0
 15  1  1  0  0  0  0
 16  7  2  0  0  0  0
 16  9  1  0  0  0  0
 17 31  1  6  0  0  0
 18 13  2  0  0  0  0
 19  8  1  0  0  0  0
 20 16  1  0  0  0  0
 21 26  1  0  0  0  0
 22 21  1  0  0  0  0
 23 15  1  0  0  0  0
 24 28  1  0  0  0  0
 24 21  2  0  0  0  0
 25 23  1  0  0  0  0
 26 23  2  0  0  0  0
 26 27  1  0  0  0  0
 28 25  2  0  0  0  0
 29 30  1  0  0  0  0
 30 28  1  0  0  0  0
 31 32  1  0  0  0  0
M  END
>  <MODEL>
3

>  <REMARK>
 VINA RESULT:     -11.0      1.757      2.076
  Name = 
  3 active torsions:
  status: ('A' for Active; 'I' for Inactive)
    1  A    between atoms: O_13  and  C_29
    2  A    between atoms: O_15  and  C_26
    3  A    between atoms: C_16  and  C_27
                            x       y       z     vdW  Elec       q    Type
                         _______ _______ _______ _____ _____    ______ ____

>  <TORSDO>
F 3

$$$$
=
 OpenBabel11052414353D

 32 37  0  0  1  0  0  0  0  0999 V2000
  189.4300  177.3440  143.6250 C   0  0  0  0  0  0  0  0  0  0  0  0
  187.5300  177.9350  145.0740 N   0  0  0  0  0  0  0  0  0  0  0  0
  190.7560  176.9060  143.4960 C   0  0  0  0  0  3  0  0  0  0  0  0
  188.8510  177.3990  144.9090 C   0  0  0  0  0  0  0  0  0  0  0  0
  186.9580  178.0580  146.3920 C   0  0  0  0  0  0  0  0  0  0  0  0
  183.2750  178.7980  143.0200 C   0  0  0  0  0  3  0  0  0  0  0  0
  186.7650  178.2540  143.8990 C   0  0  0  0  0  0  0  0  0  0  0  0
  183.4420  178.6580  145.4680 C   0  0  0  0  0  3  0  0  0  0  0  0
  184.9070  178.9760  145.3710 C   0  0  0  0  0  0  0  0  0  0  0  0
  189.5630  176.9200  146.0250 C   0  0  0  0  0  0  0  0  0  0  0  0
  185.7080  178.5000  146.5460 C   0  0  0  0  0  3  0  0  0  0  0  0
  188.8700  176.7450  147.3450 C   0  0  0  0  0  2  0  0  0  0  0  0
  190.8710  176.4600  145.8710 C   0  0  0  0  0  3  0  0  0  0  0  0
  187.3740  178.1200  142.6080 N   0  0  0  0  0  0  0  0  0  0  0  0
  188.6050  177.7260  142.4380 C   0  0  0  0  0  0  0  0  0  0  0  0
  185.4850  178.6320  144.0170 C   0  0  0  0  0  0  0  0  0  0  0  0
  187.8050  177.8120  147.6060 C   0  0  1  0  0  3  0  0  0  0  0  0
  191.4760  176.4760  144.6120 C   0  0  0  0  0  3  0  0  0  0  0  0
  182.6810  178.6280  144.3660 C   0  0  0  0  0  3  0  0  0  0  0  0
  184.6020  178.7870  142.8460 C   0  0  0  0  0  2  0  0  0  0  0  0
  190.6050  176.6140  139.4040 C   0  0  0  0  0  0  0  0  0  0  0  0
  191.5390  175.6910  139.0720 F   0  0  0  0  0  0  0  0  0  0  0  0
  189.1230  177.6260  141.0510 C   0  0  0  0  0  0  0  0  0  0  0  0
  190.1440  177.5080  138.4360 C   0  0  0  0  0  3  0  0  0  0  0  0
  188.6780  178.5230  140.0670 C   0  0  0  0  0  3  0  0  0  0  0  0
  190.1030  176.6720  140.7090 C   0  0  0  0  0  0  0  0  0  0  0  0
  190.5550  175.7830  141.6300 F   0  0  0  0  0  0  0  0  0  0  0  0
  189.1770  178.4690  138.7630 C   0  0  0  0  0  0  0  0  0  0  0  0
  187.8000  179.0050  136.7790 C   0  0  0  0  0  1  0  0  0  0  0  0
  188.6970  179.3780  137.8170 O   0  0  0  0  0  0  0  0  0  0  0  0
  188.4200  179.0030  147.9970 O   0  0  0  0  0  0  0  0  0  0  0  0
  189.3580  178.6320  148.8430 O   0  0  0  0  0  1  0  0  0  0  0  0
  1  4  1  0  0  0  0
  2  5  1  0  0  0  0
  3  1  2  0  0  0  0
  3 18  1  0  0  0  0
  4  2  1  0  0  0  0
  4 10  2  0  0  0  0
  5 11  2  0  0  0  0
  5 17  1  0  0  0  0
  6 19  2  0  0  0  0
  7 16  2  0  0  0  0
  7  2  1  0  0  0  0
  9  8  2  0  0  0  0
  9 11  1  0  0  0  0
 10 12  1  0  0  0  0
 12 17  1  0  0  0  0
 13 10  1  0  0  0  0
 14  7  1  0  0  0  0
 15 14  2  0  0  0  0
 15  1  1  0  0  0  0
 16  9  1  0  0  0  0
 17 31  1  6  0  0  0
 18 13  2  0  0  0  0
 19  8  1  0  0  0  0
 20  6  1  0  0  0  0
 20 16  1  0  0  0  0
 21 26  1  0  0  0  0
 22 21  1  0  0  0  0
 23 15  1  0  0  0  0
 24 28  1  0  0  0  0
 24 21  2  0  0  0  0
 25 23  1  0  0  0  0
 26 23  2  0  0  0  0
 26 27  1  0  0  0  0
 28 25  2  0  0  0  0
 29 30  1  0  0  0  0
 30 28  1  0  0  0  0
 31 32  1  0  0  0  0
M  END
>  <MODEL>
4

>  <REMARK>
 VINA RESULT:     -10.7      1.518      1.942
  Name = 
  3 active torsions:
  status: ('A' for Active; 'I' for Inactive)
    1  A    between atoms: O_13  and  C_29
    2  A    between atoms: O_15  and  C_26
    3  A    between atoms: C_16  and  C_27
                            x       y       z     vdW  Elec       q    Type
                         _______ _______ _______ _____ _____    ______ ____

>  <TORSDO>
F 3

$$$$
=
 OpenBabel11052414353D

 32 37  0  0  1  0  0  0  0  0999 V2000
  187.7820  177.9430  143.0570 C   0  0  0  0  0  0  0  0  0  0  0  0
  185.5410  178.4270  143.9530 N   0  0  0  0  0  0  0  0  0  0  0  0
  189.1340  177.6480  143.2870 C   0  0  0  0  0  3  0  0  0  0  0  0
  186.9060  178.0310  144.1570 C   0  0  0  0  0  0  0  0  0  0  0  0
  184.6570  178.5840  145.0810 C   0  0  0  0  0  0  0  0  0  0  0  0
  181.8550  178.6520  140.8840 C   0  0  0  0  0  3  0  0  0  0  0  0
  185.0600  178.5690  142.6060 C   0  0  0  0  0  0  0  0  0  0  0  0
  181.4330  178.7170  143.3040 C   0  0  0  0  0  3  0  0  0  0  0  0
  182.8430  179.1890  143.5210 C   0  0  0  0  0  0  0  0  0  0  0  0
  187.3640  177.7190  145.4510 C   0  0  0  0  0  0  0  0  0  0  0  0
  183.3730  178.8950  144.8930 C   0  0  0  0  0  3  0  0  0  0  0  0
  186.3900  177.5690  146.5830 C   0  0  0  0  0  2  0  0  0  0  0  0
  188.7070  177.3980  145.6550 C   0  0  0  0  0  3  0  0  0  0  0  0
  185.9750  178.4070  141.5140 N   0  0  0  0  0  0  0  0  0  0  0  0
  187.2400  178.1400  141.6780 C   0  0  0  0  0  0  0  0  0  0  0  0
  183.7620  178.8100  142.3820 C   0  0  0  0  0  0  0  0  0  0  0  0
  185.2020  178.5270  146.4790 C   0  0  1  0  0  3  0  0  0  0  0  0
  189.5960  177.3860  144.5780 C   0  0  0  0  0  3  0  0  0  0  0  0
  180.9690  178.5190  142.0630 C   0  0  0  0  0  3  0  0  0  0  0  0
  183.1790  178.7760  141.0270 C   0  0  0  0  0  2  0  0  0  0  0  0
  188.3510  177.9920  138.0470 C   0  0  0  0  0  0  0  0  0  0  0  0
  187.8330  178.1650  136.8060 F   0  0  0  0  0  0  0  0  0  0  0  0
  188.0870  177.9950  140.4680 C   0  0  0  0  0  0  0  0  0  0  0  0
  189.6940  177.6400  138.1900 C   0  0  0  0  0  3  0  0  0  0  0  0
  189.4370  177.6330  140.5930 C   0  0  0  0  0  3  0  0  0  0  0  0
  187.5450  178.1650  139.1780 C   0  0  0  0  0  0  0  0  0  0  0  0
  186.2450  178.5220  139.0140 F   0  0  0  0  0  0  0  0  0  0  0  0
  190.2450  177.4580  139.4660 C   0  0  0  0  0  0  0  0  0  0  0  0
  192.3450  177.5120  140.7730 C   0  0  0  0  0  1  0  0  0  0  0  0
  191.5860  177.1040  139.6430 O   0  0  0  0  0  0  0  0  0  0  0  0
  185.5930  179.8050  146.8820 O   0  0  0  0  0  0  0  0  0  0  0  0
  186.2200  179.6170  148.0240 O   0  0  0  0  0  1  0  0  0  0  0  0
  1  3  2  0  0  0  0
  1  4  1  0  0  0  0
  2  4  1  0  0  0  0
  2  5  1  0  0  0  0
  3 18  1  0  0  0  0
  4 10  2  0  0  0  0
  5 17  1  0  0  0  0
  6 20  1  0  0  0  0
  6 19  2  0  0  0  0
  7  2  1  0  0  0  0
  8  9  2  0  0  0  0
  9 11  1  0  0  0  0
 10 13  1  0  0  0  0
 10 12  1  0  0  0  0
 11  5  2  0  0  0  0
 14 15  2  0  0  0  0
 14  7  1  0  0  0  0
 15  1  1  0  0  0  0
 16  7  2  0  0  0  0
 16  9  1  0  0  0  0
 17 12  1  0  0  0  0
 17 31  1  6  0  0  0
 18 13  2  0  0  0  0
 19  8  1  0  0  0  0
 20 16  1  0  0  0  0
 21 24  2  0  0  0  0
 21 26  1  0  0  0  0
 22 21  1  0  0  0  0
 23 25  1  0  0  0  0
 23 15  1  0  0  0  0
 24 28  1  0  0  0  0
 26 23  2  0  0  0  0
 27 26  1  0  0  0  0
 28 30  1  0  0  0  0
 28 25  2  0  0  0  0
 30 29  1  0  0  0  0
 31 32  1  0  0  0  0
M  END
>  <MODEL>
5

>  <REMARK>
 VINA RESULT:     -10.6      1.430      2.180
  Name = 
  3 active torsions:
  status: ('A' for Active; 'I' for Inactive)
    1  A    between atoms: O_13  and  C_29
    2  A    between atoms: O_15  and  C_26
    3  A    between atoms: C_16  and  C_27
                            x       y       z     vdW  Elec       q    Type
                         _______ _______ _______ _____ _____    ______ ____

>  <TORSDO>
F 3

$$$$
=
 OpenBabel11052414353D

 32 37  0  0  1  0  0  0  0  0999 V2000
  186.4780  178.1060  145.0840 C   0  0  0  0  0  0  0  0  0  0  0  0
  188.8320  177.4900  144.7070 N   0  0  0  0  0  0  0  0  0  0  0  0
  185.4390  178.4040  145.9780 C   0  0  0  0  0  3  0  0  0  0  0  0
  187.7750  177.8900  145.5920 C   0  0  0  0  0  0  0  0  0  0  0  0
  190.1440  177.2010  145.2300 C   0  0  0  0  0  0  0  0  0  0  0  0
  190.5010  177.5030  140.2040 C   0  0  0  0  0  3  0  0  0  0  0  0
  188.5760  177.4750  143.2920 C   0  0  0  0  0  0  0  0  0  0  0  0
  192.0560  177.1840  142.0810 C   0  0  0  0  0  3  0  0  0  0  0  0
  190.9080  176.7220  142.9330 C   0  0  0  0  0  0  0  0  0  0  0  0
  188.0360  178.0780  146.9630 C   0  0  0  0  0  0  0  0  0  0  0  0
  191.1440  176.8860  144.4050 C   0  0  0  0  0  3  0  0  0  0  0  0
  189.4490  178.0940  147.4680 C   0  0  0  0  0  2  0  0  0  0  0  0
  186.9930  178.4040  147.8310 C   0  0  0  0  0  3  0  0  0  0  0  0
  187.2540  177.7660  142.8160 N   0  0  0  0  0  0  0  0  0  0  0  0
  186.2550  178.0390  143.6070 C   0  0  0  0  0  0  0  0  0  0  0  0
  189.5750  177.2330  142.4340 C   0  0  0  0  0  0  0  0  0  0  0  0
  190.3640  177.1280  146.7130 C   0  0  1  0  0  3  0  0  0  0  0  0
  185.6920  178.5430  147.3440 C   0  0  0  0  0  3  0  0  0  0  0  0
  191.8600  177.4980  140.7930 C   0  0  0  0  0  3  0  0  0  0  0  0
  189.4140  177.3920  140.9770 C   0  0  0  0  0  2  0  0  0  0  0  0
  183.5720  178.9320  141.0690 C   0  0  0  0  0  0  0  0  0  0  0  0
  183.4620  179.2210  139.7500 F   0  0  0  0  0  0  0  0  0  0  0  0
  184.9340  178.3230  142.9940 C   0  0  0  0  0  0  0  0  0  0  0  0
  182.4310  178.9320  141.8730 C   0  0  0  0  0  3  0  0  0  0  0  0
  183.7780  178.3370  143.7890 C   0  0  0  0  0  3  0  0  0  0  0  0
  184.8220  178.6340  141.6240 C   0  0  0  0  0  0  0  0  0  0  0  0
  185.9160  178.6260  140.8190 F   0  0  0  0  0  0  0  0  0  0  0  0
  182.5270  178.6340  143.2390 C   0  0  0  0  0  0  0  0  0  0  0  0
  180.0760  178.6180  143.5650 C   0  0  0  0  0  1  0  0  0  0  0  0
  181.4040  178.6280  144.0700 O   0  0  0  0  0  0  0  0  0  0  0  0
  190.1370  175.8230  147.1560 O   0  0  0  0  0  0  0  0  0  0  0  0
  191.2990  175.4250  147.6280 O   0  0  0  0  0  1  0  0  0  0  0  0
  1  4  1  0  0  0  0
  1  3  2  0  0  0  0
  2  5  1  0  0  0  0
  2  4  1  0  0  0  0
  3 18  1  0  0  0  0
  4 10  2  0  0  0  0
  5 17  1  0  0  0  0
  6 19  2  0  0  0  0
  6 20  1  0  0  0  0
  7  2  1  0  0  0  0
  8  9  2  0  0  0  0
  9 11  1  0  0  0  0
 10 12  1  0  0  0  0
 10 13  1  0  0  0  0
 11  5  2  0  0  0  0
 14  7  1  0  0  0  0
 14 15  2  0  0  0  0
 15  1  1  0  0  0  0
 16  9  1  0  0  0  0
 16  7  2  0  0  0  0
 17 31  1  1  0  0  0
 17 12  1  0  0  0  0
 18 13  2  0  0  0  0
 19  8  1  0  0  0  0
 20 16  1  0  0  0  0
 21 26  2  0  0  0  0
 21 24  1  0  0  0  0
 22 21  1  0  0  0  0
 23 15  1  0  0  0  0
 23 25  2  0  0  0  0
 24 28  2  0  0  0  0
 26 23  1  0  0  0  0
 27 26  1  0  0  0  0
 28 25  1  0  0  0  0
 28 30  1  0  0  0  0
 29 30  1  0  0  0  0
 31 32  1  0  0  0  0
M  END
>  <MODEL>
6

>  <REMARK>
 VINA RESULT:     -10.6      2.179      6.190
  Name = 
  3 active torsions:
  status: ('A' for Active; 'I' for Inactive)
    1  A    between atoms: O_13  and  C_29
    2  A    between atoms: O_15  and  C_26
    3  A    between atoms: C_16  and  C_27
                            x       y       z     vdW  Elec       q    Type
                         _______ _______ _______ _____ _____    ______ ____

>  <TORSDO>
F 3

$$$$
=
 OpenBabel11052414353D

 32 37  0  0  1  0  0  0  0  0999 V2000
  185.8240  178.2990  143.6940 C   0  0  0  0  0  0  0  0  0  0  0  0
  186.4310  178.2640  141.3080 N   0  0  0  0  0  0  0  0  0  0  0  0
  184.8480  178.4730  144.6870 C   0  0  0  0  0  3  0  0  0  0  0  0
  185.4360  178.3430  142.3400 C   0  0  0  0  0  0  0  0  0  0  0  0
  186.0490  178.3760  139.9230 C   0  0  0  0  0  0  0  0  0  0  0  0
  190.8260  176.7560  140.0940 C   0  0  0  0  0  3  0  0  0  0  0  0
  187.7900  177.9810  141.6840 C   0  0  0  0  0  0  0  0  0  0  0  0
  189.1550  177.1800  138.3430 C   0  0  0  0  0  3  0  0  0  0  0  0
  188.4160  178.0840  139.2890 C   0  0  1  0  0  3  0  0  0  0  0  0
  184.0750  178.4510  141.9990 C   0  0  0  0  0  0  0  0  0  0  0  0
  186.9620  178.2450  138.9580 C   0  0  0  0  0  3  0  0  0  0  0  0
  183.6320  178.2490  140.5790 C   0  0  0  0  0  2  0  0  0  0  0  0
  183.1150  178.5920  143.0030 C   0  0  0  0  0  3  0  0  0  0  0  0
  188.1270  177.8810  143.0740 N   0  0  0  0  0  0  0  0  0  0  0  0
  187.2580  178.0430  144.0320 C   0  0  0  0  0  0  0  0  0  0  0  0
  188.7150  177.7740  140.7380 C   0  0  0  0  0  0  0  0  0  0  0  0
  184.6460  178.7670  139.5580 C   0  0  1  0  0  3  0  0  0  0  0  0
  183.5040  178.6280  144.3440 C   0  0  0  0  0  3  0  0  0  0  0  0
  190.3060  176.6060  138.7150 C   0  0  0  0  0  3  0  0  0  0  0  0
  190.0730  177.2950  141.0600 C   0  0  0  0  0  3  0  0  0  0  0  0
  187.5800  178.5210  147.7880 C   0  0  0  0  0  0  0  0  0  0  0  0
  186.9730  179.1980  148.7930 F   0  0  0  0  0  0  0  0  0  0  0  0
  187.7280  177.9150  145.4330 C   0  0  0  0  0  0  0  0  0  0  0  0
  188.6850  177.7140  148.0680 C   0  0  0  0  0  3  0  0  0  0  0  0
  188.8430  177.1160  145.7320 C   0  0  0  0  0  3  0  0  0  0  0  0
  187.1020  178.6280  146.4770 C   0  0  0  0  0  0  0  0  0  0  0  0
  186.0180  179.4070  146.2310 F   0  0  0  0  0  0  0  0  0  0  0  0
  189.3230  177.0070  147.0400 C   0  0  0  0  0  0  0  0  0  0  0  0
  191.6800  176.3780  146.6350 C   0  0  0  0  0  1  0  0  0  0  0  0
  190.4320  176.1930  147.2880 O   0  0  0  0  0  0  0  0  0  0  0  0
  184.5560  180.1580  139.4720 O   0  0  0  0  0  0  0  0  0  0  0  0
  183.3330  180.3860  139.0420 O   0  0  0  0  0  1  0  0  0  0  0  0
  1 15  1  0  0  0  0
  1  3  2  0  0  0  0
  2  7  1  0  0  0  0
  2  4  1  0  0  0  0
  4  1  1  0  0  0  0
  5  2  1  0  0  0  0
  6 20  2  0  0  0  0
  7 14  1  0  0  0  0
  8 19  2  0  0  0  0
  9  8  1  6  0  0  0
  9 16  1  0  0  0  0
 10  4  2  0  0  0  0
 10 13  1  0  0  0  0
 11  9  1  0  0  0  0
 11  5  2  0  0  0  0
 12 10  1  0  0  0  0
 13 18  2  0  0  0  0
 14 15  2  0  0  0  0
 15 23  1  0  0  0  0
 16 20  1  0  0  0  0
 16  7  2  0  0  0  0
 17 31  1  1  0  0  0
 17  5  1  0  0  0  0
 17 12  1  0  0  0  0
 18  3  1  0  0  0  0
 19  6  1  0  0  0  0
 21 24  1  0  0  0  0
 21 22  1  0  0  0  0
 23 25  2  0  0  0  0
 23 26  1  0  0  0  0
 25 28  1  0  0  0  0
 26 21  2  0  0  0  0
 27 26  1  0  0  0  0
 28 30  1  0  0  0  0
 28 24  2  0  0  0  0
 29 30  1  0  0  0  0
 32 31  1  0  0  0  0
M  END
>  <MODEL>
7

>  <REMARK>
 VINA RESULT:     -10.0      3.222      7.415
  Name = 
  3 active torsions:
  status: ('A' for Active; 'I' for Inactive)
    1  A    between atoms: O_13  and  C_29
    2  A    between atoms: O_15  and  C_26
    3  A    between atoms: C_16  and  C_27
                            x       y       z     vdW  Elec       q    Type
                         _______ _______ _______ _____ _____    ______ ____

>  <TORSDO>
F 3

$$$$
=
 OpenBabel11052414353D

 32 37  0  0  1  0  0  0  0  0999 V2000
  187.1570  178.1850  141.8370 C   0  0  0  0  0  0  0  0  0  0  0  0
  186.6100  178.2540  144.2360 N   0  0  0  0  0  0  0  0  0  0  0  0
  186.7700  178.4020  140.5060 C   0  0  0  0  0  3  0  0  0  0  0  0
  186.2760  178.5560  142.8730 C   0  0  0  0  0  0  0  0  0  0  0  0
  185.6830  178.5690  145.2950 C   0  0  0  0  0  0  0  0  0  0  0  0
  190.1180  177.3990  147.4020 C   0  0  0  0  0  3  0  0  0  0  0  0
  187.9150  177.7240  144.5240 C   0  0  0  0  0  0  0  0  0  0  0  0
  187.9260  178.1810  148.1920 C   0  0  0  0  0  3  0  0  0  0  0  0
  187.3040  177.6680  146.9240 C   0  0  0  0  0  0  0  0  0  0  0  0
  185.0770  179.2290  142.5730 C   0  0  0  0  0  0  0  0  0  0  0  0
  186.0130  178.3450  146.5690 C   0  0  0  0  0  3  0  0  0  0  0  0
  184.2590  179.8430  143.6720 C   0  0  0  0  0  2  0  0  0  0  0  0
  184.7240  179.4630  141.2430 C   0  0  0  0  0  3  0  0  0  0  0  0
  188.8040  177.4230  143.4400 N   0  0  0  0  0  0  0  0  0  0  0  0
  188.4860  177.5990  142.1880 C   0  0  0  0  0  0  0  0  0  0  0  0
  188.3030  177.5550  145.7940 C   0  0  0  0  0  0  0  0  0  0  0  0
  184.2930  179.0300  144.9670 C   0  0  1  0  0  3  0  0  0  0  0  0
  185.5580  179.0280  140.2100 C   0  0  0  0  0  3  0  0  0  0  0  0
  189.2330  178.0030  148.4250 C   0  0  0  0  0  3  0  0  0  0  0  0
  189.6880  177.1970  146.1510 C   0  0  0  0  0  2  0  0  0  0  0  0
  191.7910  177.2270  140.3500 C   0  0  0  0  0  0  0  0  0  0  0  0
  193.1070  177.4890  140.5400 F   0  0  0  0  0  0  0  0  0  0  0  0
  189.4930  177.2500  141.1540 C   0  0  0  0  0  0  0  0  0  0  0  0
  191.3690  176.6490  139.1520 C   0  0  0  0  0  3  0  0  0  0  0  0
  189.0860  176.6770  139.9400 C   0  0  0  0  0  3  0  0  0  0  0  0
  190.8600  177.5330  141.3490 C   0  0  0  0  0  0  0  0  0  0  0  0
  191.2960  178.0810  142.5120 F   0  0  0  0  0  0  0  0  0  0  0  0
  190.0120  176.3710  138.9400 C   0  0  0  0  0  0  0  0  0  0  0  0
  188.2820  176.0830  137.1950 C   0  0  0  0  0  1  0  0  0  0  0  0
  189.5580  175.7940  137.7500 O   0  0  0  0  0  0  0  0  0  0  0  0
  183.4480  177.9240  144.8490 O   0  0  0  0  0  0  0  0  0  0  0  0
  182.3100  178.4190  144.4110 O   0  0  0  0  0  1  0  0  0  0  0  0
  1 15  1  0  0  0  0
  1  4  2  0  0  0  0
  2  7  1  0  0  0  0
  2  5  1  0  0  0  0
  3  1  1  0  0  0  0
  4  2  1  0  0  0  0
  5 11  2  0  0  0  0
  6 19  2  0  0  0  0
  7 16  2  0  0  0  0
  8 19  1  0  0  0  0
  9  8  2  0  0  0  0
 10  4  1  0  0  0  0
 10 12  1  0  0  0  0
 11  9  1  0  0  0  0
 12 17  1  0  0  0  0
 13 10  2  0  0  0  0
 14  7  1  0  0  0  0
 15 14  2  0  0  0  0
 16 20  1  0  0  0  0
 16  9  1  0  0  0  0
 17 31  1  6  0  0  0
 17  5  1  0  0  0  0
 18  3  2  0  0  0  0
 18 13  1  0  0  0  0
 20  6  1  0  0  0  0
 21 22  1  0  0  0  0
 21 26  1  0  0  0  0
 23 26  2  0  0  0  0
 23 15  1  0  0  0  0
 24 21  2  0  0  0  0
 25 23  1  0  0  0  0
 26 27  1  0  0  0  0
 28 24  1  0  0  0  0
 28 25  2  0  0  0  0
 29 30  1  0  0  0  0
 30 28  1  0  0  0  0
 32 31  1  0  0  0  0
M  END
>  <MODEL>
8

>  <REMARK>
 VINA RESULT:     -10.0      2.523      4.777
  Name = 
  3 active torsions:
  status: ('A' for Active; 'I' for Inactive)
    1  A    between atoms: O_13  and  C_29
    2  A    between atoms: O_15  and  C_26
    3  A    between atoms: C_16  and  C_27
                            x       y       z     vdW  Elec       q    Type
                         _______ _______ _______ _____ _____    ______ ____

>  <TORSDO>
F 3

$$$$
=
 OpenBabel11052414353D

 32 37  0  0  1  0  0  0  0  0999 V2000
  187.5760  177.8900  141.4280 C   0  0  0  0  0  0  0  0  0  0  0  0
  189.6980  177.4070  142.5790 N   0  0  0  0  0  0  0  0  0  0  0  0
  186.8670  178.0650  140.2300 C   0  0  0  0  0  3  0  0  0  0  0  0
  188.9280  177.4970  141.3710 C   0  0  0  0  0  0  0  0  0  0  0  0
  191.0990  177.0710  142.5220 C   0  0  0  0  0  0  0  0  0  0  0  0
  189.6160  176.7530  147.3360 C   0  0  0  0  0  3  0  0  0  0  0  0
  189.0220  177.5640  143.8380 C   0  0  0  0  0  0  0  0  0  0  0  0
  191.6800  176.3070  146.0790 C   0  0  0  0  0  3  0  0  0  0  0  0
  191.1900  177.2130  144.9840 C   0  0  1  0  0  3  0  0  0  0  0  0
  189.5200  177.1830  140.1330 C   0  0  0  0  0  0  0  0  0  0  0  0
  191.8040  176.9280  143.6450 C   0  0  0  0  0  3  0  0  0  0  0  0
  190.8710  176.5310  140.0840 C   0  0  0  0  0  2  0  0  0  0  0  0
  188.7880  177.3350  138.9540 C   0  0  0  0  0  3  0  0  0  0  0  0
  187.6280  177.9010  143.8490 N   0  0  0  0  0  0  0  0  0  0  0  0
  186.9300  178.0820  142.7630 C   0  0  0  0  0  0  0  0  0  0  0  0
  189.6850  177.3570  144.9830 C   0  0  0  0  0  0  0  0  0  0  0  0
  191.8040  177.0070  141.1980 C   0  0  1  0  0  3  0  0  0  0  0  0
  187.4720  177.7990  139.0000 C   0  0  0  0  0  3  0  0  0  0  0  0
  190.9580  176.1420  147.1940 C   0  0  0  0  0  3  0  0  0  0  0  0
  189.0020  177.3180  146.2900 C   0  0  0  0  0  3  0  0  0  0  0  0
  183.5830  179.0490  144.2790 C   0  0  0  0  0  0  0  0  0  0  0  0
  183.0580  179.3770  145.4840 F   0  0  0  0  0  0  0  0  0  0  0  0
  185.4940  178.4270  142.9030 C   0  0  0  0  0  0  0  0  0  0  0  0
  182.7550  179.0030  143.1550 C   0  0  0  0  0  3  0  0  0  0  0  0
  184.6450  178.3770  141.7860 C   0  0  0  0  0  3  0  0  0  0  0  0
  184.9460  178.7580  144.1590 C   0  0  0  0  0  0  0  0  0  0  0  0
  185.7350  178.8240  145.2630 F   0  0  0  0  0  0  0  0  0  0  0  0
  183.2830  178.6660  141.9010 C   0  0  0  0  0  0  0  0  0  0  0  0
  182.9450  179.0040  139.4750 C   0  0  0  0  0  1  0  0  0  0  0  0
  182.4800  178.6100  140.7580 O   0  0  0  0  0  0  0  0  0  0  0  0
  192.3140  178.2670  140.8770 O   0  0  0  0  0  0  0  0  0  0  0  0
  193.3490  178.0200  140.1020 O   0  0  0  0  0  1  0  0  0  0  0  0
  1 15  1  0  0  0  0
  2  7  1  0  0  0  0
  3  1  1  0  0  0  0
  4  1  2  0  0  0  0
  4  2  1  0  0  0  0
  5  2  1  0  0  0  0
  5 11  2  0  0  0  0
  7 14  1  0  0  0  0
  7 16  2  0  0  0  0
  8 19  2  0  0  0  0
  9 11  1  6  0  0  0
  9  8  1  0  0  0  0
 10  4  1  0  0  0  0
 12 10  1  0  0  0  0
 12 17  1  0  0  0  0
 13 18  1  0  0  0  0
 13 10  2  0  0  0  0
 15 23  1  0  0  0  0
 15 14  2  0  0  0  0
 16  9  1  0  0  0  0
 16 20  1  0  0  0  0
 17 31  1  6  0  0  0
 17  5  1  0  0  0  0
 18  3  2  0  0  0  0
 19  6  1  0  0  0  0
 20  6  2  0  0  0  0
 21 22  1  0  0  0  0
 23 26  2  0  0  0  0
 24 21  2  0  0  0  0
 25 28  2  0  0  0  0
 25 23  1  0  0  0  0
 26 21  1  0  0  0  0
 26 27  1  0  0  0  0
 28 24  1  0  0  0  0
 29 30  1  0  0  0  0
 30 28  1  0  0  0  0
 32 31  1  0  0  0  0
M  END
>  <MODEL>
9

>  <REMARK>
 VINA RESULT:      -9.6      2.964      6.832
  Name = 
  3 active torsions:
  status: ('A' for Active; 'I' for Inactive)
    1  A    between atoms: O_13  and  C_29
    2  A    between atoms: O_15  and  C_26
    3  A    between atoms: C_16  and  C_27
                            x       y       z     vdW  Elec       q    Type
                         _______ _______ _______ _____ _____    ______ ____

>  <TORSDO>
F 3

$$$$
