=
 OpenBabel11052412193D

 30 33  0  0  1  0  0  0  0  0999 V2000
  190.4990  176.0920  135.8610 C   0  0  0  0  0  0  0  0  0  0  0  0
  188.9200  174.1430  135.3780 C   0  0  1  0  0  3  0  0  0  0  0  0
  187.4820  176.1960  137.0200 C   0  0  1  0  0  3  0  0  0  0  0  0
  190.5410  176.5380  137.3380 C   0  0  2  0  0  3  0  0  0  0  0  0
  191.6020  175.9120  135.0980 C   0  0  0  0  0  3  0  0  0  0  0  0
  194.7700  174.7700  136.4790 O   0  0  0  0  0  0  0  0  0  0  0  0
  193.3800  174.7480  136.3370 C   0  0  2  0  0  3  0  0  0  0  0  0
  194.0630  176.0880  134.5950 C   0  0  0  0  0  2  0  0  0  0  0  0
  187.3370  177.3680  137.8980 N   0  0  0  0  0  0  0  0  0  0  0  0
  192.9930  176.0160  135.6290 C   0  0  1  0  0  3  0  0  0  0  0  0
  192.6190  174.4250  137.6330 C   0  0  0  0  0  2  0  0  0  0  0  0
  187.5550  173.7780  134.8040 C   0  0  0  0  0  2  0  0  0  0  0  0
  196.3200  176.3750  135.6100 C   0  0  0  0  0  1  0  0  0  0  0  0
  189.9740  173.3070  134.6740 C   0  0  0  0  0  1  0  0  0  0  0  0
  186.2020  175.3780  136.9760 C   0  0  0  0  0  2  0  0  0  0  0  0
  186.6420  173.1350  135.8490 C   0  0  0  0  0  2  0  0  0  0  0  0
  195.2270  175.3750  135.2840 C   0  0  1  0  0  3  0  0  0  0  0  0
  189.1940  175.6550  135.2190 C   0  0  1  0  0  3  0  0  0  0  0  0
  189.7950  177.8620  137.5210 C   0  0  0  0  0  2  0  0  0  0  0  0
  186.7410  178.5120  137.2120 C   0  0  0  0  0  1  0  0  0  0  0  0
  188.6130  177.7760  138.5050 C   0  0  2  0  0  3  0  0  0  0  0  0
  191.8480  176.7490  137.8130 O   0  0  0  0  0  0  0  0  0  0  0  0
  186.5460  173.9080  137.1670 C   0  0  0  0  0  2  0  0  0  0  0  0
  187.9950  176.5300  135.6100 C   0  0  0  0  0  2  0  0  0  0  0  0
  192.2510  175.6140  138.5360 C   0  0  0  0  0  2  0  0  0  0  0  0
  188.9260  176.9630  139.7600 C   0  0  0  0  0  2  0  0  0  0  0  0
  189.0730  177.8560  140.9840 C   0  0  1  0  0  3  0  0  0  0  0  0
  187.7580  178.5660  141.2270 C   0  0  0  0  0  1  0  0  0  0  0  0
  189.4200  177.0330  142.2150 C   0  0  0  0  0  2  0  0  0  0  0  0
  188.1610  176.6170  142.9520 C   0  0  0  0  0  1  0  0  0  0  0  0
  1  4  1  0  0  0  0
  2 14  1  6  0  0  0
  3 24  1  6  0  0  0
  3  9  1  0  0  0  0
  4 19  1  6  0  0  0
  4 22  1  0  0  0  0
  5 10  1  0  0  0  0
  5  1  2  0  0  0  0
  7  6  1  0  0  0  0
  7 11  1  1  0  0  0
  8 17  1  0  0  0  0
  9 21  1  0  0  0  0
 10  8  1  6  0  0  0
 10  7  1  0  0  0  0
 11 25  1  0  0  0  0
 12  2  1  0  0  0  0
 12 16  1  0  0  0  0
 15  3  1  0  0  0  0
 15 23  1  0  0  0  0
 16 23  1  0  0  0  0
 17 13  1  1  0  0  0
 17  6  1  0  0  0  0
 18  2  1  0  0  0  0
 18 24  1  1  0  0  0
 18  1  1  0  0  0  0
 19 21  1  0  0  0  0
 20  9  1  0  0  0  0
 21 26  1  1  0  0  0
 22 25  1  0  0  0  0
 26 27  1  0  0  0  0
 27 28  1  1  0  0  0
 27 29  1  0  0  0  0
 29 30  1  0  0  0  0
M  END
>  <MODEL>
1

>  <REMARK>
 VINA RESULT:      -5.5      0.000      0.000
  Name = 
  3 active torsions:
  status: ('A' for Active; 'I' for Inactive)
    1  A    between atoms: C_7  and  C_10
    2  A    between atoms: C_7  and  C_15
    3  A    between atoms: C_10  and  C_25
                            x       y       z     vdW  Elec       q    Type
                         _______ _______ _______ _____ _____    ______ ____

>  <TORSDO>
F 3

$$$$
=
 OpenBabel11052412193D

 30 33  0  0  1  0  0  0  0  0999 V2000
  181.9610  178.1700  138.9600 C   0  0  0  0  0  0  0  0  0  0  0  0
  181.0860  180.1230  137.5660 C   0  0  1  0  0  3  0  0  0  0  0  0
  180.1560  177.5480  136.3490 C   0  0  1  0  0  3  0  0  0  0  0  0
  182.6260  177.0410  138.1430 C   0  0  2  0  0  3  0  0  0  0  0  0
  182.4870  178.6890  140.0920 C   0  0  0  0  0  3  0  0  0  0  0  0
  186.0760  178.9290  140.6480 O   0  0  0  0  0  0  0  0  0  0  0  0
  184.9130  179.0430  139.8830 C   0  0  2  0  0  3  0  0  0  0  0  0
  184.1090  178.7480  142.0190 C   0  0  0  0  0  2  0  0  0  0  0  0
  180.1270  176.0970  136.1100 N   0  0  0  0  0  0  0  0  0  0  0  0
  183.8300  178.3090  140.6220 C   0  0  1  0  0  3  0  0  0  0  0  0
  185.0970  178.6840  138.3990 C   0  0  0  0  0  2  0  0  0  0  0  0
  179.8260  180.7510  136.9800 C   0  0  0  0  0  2  0  0  0  0  0  0
  186.3280  177.9510  142.8190 C   0  0  0  0  0  1  0  0  0  0  0  0
  181.8160  181.1820  138.3740 C   0  0  0  0  0  1  0  0  0  0  0  0
  179.3860  178.3000  135.2760 C   0  0  0  0  0  2  0  0  0  0  0  0
  179.8600  180.7970  135.4520 C   0  0  0  0  0  2  0  0  0  0  0  0
  185.6160  178.9980  141.9840 C   0  0  1  0  0  3  0  0  0  0  0  0
  180.7350  178.8920  138.4300 C   0  0  1  0  0  3  0  0  0  0  0  0
  181.7090  175.8170  138.0710 C   0  0  0  0  0  2  0  0  0  0  0  0
  178.9310  175.4620  136.6580 C   0  0  0  0  0  1  0  0  0  0  0  0
  181.3210  175.4170  136.6360 C   0  0  2  0  0  3  0  0  0  0  0  0
  183.8390  176.5980  138.7020 O   0  0  0  0  0  0  0  0  0  0  0  0
  180.2290  179.4690  134.7860 C   0  0  0  0  0  2  0  0  0  0  0  0
  179.7140  177.9590  137.7620 C   0  0  0  0  0  2  0  0  0  0  0  0
  184.9000  177.2090  138.0130 C   0  0  0  0  0  2  0  0  0  0  0  0
  182.4870  175.4840  135.6500 C   0  0  0  0  0  2  0  0  0  0  0  0
  183.1040  174.1120  135.4180 C   0  0  1  0  0  3  0  0  0  0  0  0
  184.4050  174.0280  136.1890 C   0  0  0  0  0  1  0  0  0  0  0  0
  182.1750  173.0120  135.9070 C   0  0  0  0  0  2  0  0  0  0  0  0
  182.9150  172.0510  136.8170 C   0  0  0  0  0  1  0  0  0  0  0  0
  1  5  2  0  0  0  0
  2 14  1  1  0  0  0
  2 18  1  0  0  0  0
  3 15  1  6  0  0  0
  3 24  1  0  0  0  0
  4 19  1  1  0  0  0
  4 22  1  0  0  0  0
  4  1  1  0  0  0  0
  6 17  1  0  0  0  0
  7 11  1  6  0  0  0
  7 10  1  0  0  0  0
  7  6  1  0  0  0  0
  9  3  1  0  0  0  0
  9 21  1  0  0  0  0
  9 20  1  0  0  0  0
 10  5  1  6  0  0  0
 10  8  1  0  0  0  0
 12  2  1  0  0  0  0
 16 12  1  0  0  0  0
 17  8  1  0  0  0  0
 17 13  1  1  0  0  0
 18 24  1  6  0  0  0
 18  1  1  0  0  0  0
 21 26  1  6  0  0  0
 21 19  1  0  0  0  0
 23 15  1  0  0  0  0
 23 16  1  0  0  0  0
 25 11  1  0  0  0  0
 25 22  1  0  0  0  0
 27 26  1  0  0  0  0
 27 29  1  0  0  0  0
 27 28  1  1  0  0  0
 29 30  1  0  0  0  0
M  END
>  <MODEL>
2

>  <REMARK>
 VINA RESULT:      -5.1      6.303      9.537
  Name = 
  3 active torsions:
  status: ('A' for Active; 'I' for Inactive)
    1  A    between atoms: C_7  and  C_10
    2  A    between atoms: C_7  and  C_15
    3  A    between atoms: C_10  and  C_25
                            x       y       z     vdW  Elec       q    Type
                         _______ _______ _______ _____ _____    ______ ____

>  <TORSDO>
F 3

$$$$
=
 OpenBabel11052412193D

 30 33  0  0  1  0  0  0  0  0999 V2000
  185.1730  178.7530  139.8730 C   0  0  0  0  0  0  0  0  0  0  0  0
  185.7140  178.0880  142.2790 C   0  0  1  0  0  3  0  0  0  0  0  0
  188.1140  177.5930  140.5540 C   0  0  1  0  0  3  0  0  0  0  0  0
  185.5590  177.7020  138.8110 C   0  0  2  0  0  3  0  0  0  0  0  0
  183.9850  179.3990  139.8940 C   0  0  0  0  0  3  0  0  0  0  0  0
  180.9000  177.8570  138.7310 O   0  0  0  0  0  0  0  0  0  0  0  0
  182.1150  177.8720  139.4200 C   0  0  2  0  0  3  0  0  0  0  0  0
  181.7650  180.0930  138.9280 C   0  0  0  0  0  2  0  0  0  0  0  0
  188.8670  177.4090  139.3040 N   0  0  0  0  0  0  0  0  0  0  0  0
  182.8650  179.0890  138.9570 C   0  0  1  0  0  3  0  0  0  0  0  0
  182.8780  176.5380  139.3800 C   0  0  0  0  0  2  0  0  0  0  0  0
  186.6960  178.3060  143.4260 C   0  0  0  0  0  2  0  0  0  0  0  0
  180.0230  179.5170  137.2430 C   0  0  0  0  0  1  0  0  0  0  0  0
  184.3110  178.3530  142.7950 C   0  0  0  0  0  1  0  0  0  0  0  0
  188.9200  177.1340  141.7580 C   0  0  0  0  0  2  0  0  0  0  0  0
  187.4230  177.0190  143.8160 C   0  0  0  0  0  2  0  0  0  0  0  0
  180.5420  179.2230  138.6380 C   0  0  1  0  0  3  0  0  0  0  0  0
  186.0610  178.9980  141.0810 C   0  0  1  0  0  3  0  0  0  0  0  0
  186.8020  178.1520  138.0370 C   0  0  0  0  0  2  0  0  0  0  0  0
  189.7580  178.5300  139.0160 C   0  0  0  0  0  1  0  0  0  0  0  0
  187.9880  177.1770  138.1480 C   0  0  2  0  0  3  0  0  0  0  0  0
  184.5500  177.4880  137.8540 O   0  0  0  0  0  0  0  0  0  0  0  0
  188.0420  176.2590  142.6400 C   0  0  0  0  0  2  0  0  0  0  0  0
  187.5590  179.0130  140.7480 C   0  0  0  0  0  2  0  0  0  0  0  0
  183.8420  176.3250  138.2020 C   0  0  0  0  0  2  0  0  0  0  0  0
  187.5800  175.7080  138.0350 C   0  0  0  0  0  2  0  0  0  0  0  0
  187.3010  175.3140  136.5910 C   0  0  1  0  0  3  0  0  0  0  0  0
  188.4920  175.7040  135.7420 C   0  0  0  0  0  1  0  0  0  0  0  0
  187.0870  173.8130  136.4740 C   0  0  0  0  0  2  0  0  0  0  0  0
  185.9890  173.3540  137.4150 C   0  0  0  0  0  1  0  0  0  0  0  0
  1  5  2  0  0  0  0
  1 18  1  0  0  0  0
  2 14  1  1  0  0  0
  2 12  1  0  0  0  0
  3 24  1  1  0  0  0
  3 15  1  0  0  0  0
  4 19  1  6  0  0  0
  4  1  1  0  0  0  0
  6  7  1  0  0  0  0
  7 11  1  6  0  0  0
  9  3  1  0  0  0  0
 10  8  1  1  0  0  0
 10  7  1  0  0  0  0
 10  5  1  0  0  0  0
 12 16  1  0  0  0  0
 15 23  1  0  0  0  0
 17 13  1  6  0  0  0
 17  6  1  0  0  0  0
 17  8  1  0  0  0  0
 18 24  1  6  0  0  0
 18  2  1  0  0  0  0
 19 21  1  0  0  0  0
 20  9  1  0  0  0  0
 21 26  1  1  0  0  0
 21  9  1  0  0  0  0
 22 25  1  0  0  0  0
 22  4  1  0  0  0  0
 23 16  1  0  0  0  0
 25 11  1  0  0  0  0
 27 28  1  6  0  0  0
 27 26  1  0  0  0  0
 29 27  1  0  0  0  0
 29 30  1  0  0  0  0
M  END
>  <MODEL>
3

>  <REMARK>
 VINA RESULT:      -5.1      3.842      8.802
  Name = 
  3 active torsions:
  status: ('A' for Active; 'I' for Inactive)
    1  A    between atoms: C_7  and  C_10
    2  A    between atoms: C_7  and  C_15
    3  A    between atoms: C_10  and  C_25
                            x       y       z     vdW  Elec       q    Type
                         _______ _______ _______ _____ _____    ______ ____

>  <TORSDO>
F 3

$$$$
=
 OpenBabel11052412193D

 30 33  0  0  1  0  0  0  0  0999 V2000
  184.9490  178.2940  138.1000 C   0  0  0  0  0  0  0  0  0  0  0  0
  186.9770  178.1760  139.6480 C   0  0  1  0  0  3  0  0  0  0  0  0
  187.6750  176.9390  137.0100 C   0  0  1  0  0  3  0  0  0  0  0  0
  184.6040  176.9690  137.3870 C   0  0  2  0  0  3  0  0  0  0  0  0
  184.0310  179.0840  138.7020 C   0  0  0  0  0  3  0  0  0  0  0  0
  181.0420  177.7500  140.2930 O   0  0  0  0  0  0  0  0  0  0  0  0
  182.4070  177.7650  139.9950 C   0  0  2  0  0  3  0  0  0  0  0  0
  181.6870  179.8210  139.2540 C   0  0  0  0  0  2  0  0  0  0  0  0
  187.4300  176.3470  135.6860 N   0  0  0  0  0  0  0  0  0  0  0  0
  182.5930  178.7120  138.8430 C   0  0  1  0  0  3  0  0  0  0  0  0
  183.0340  176.3690  139.8450 C   0  0  0  0  0  2  0  0  0  0  0  0
  188.4550  178.5320  139.7700 C   0  0  0  0  0  2  0  0  0  0  0  0
  179.3060  179.0950  139.3390 C   0  0  0  0  0  1  0  0  0  0  0  0
  186.2460  178.7540  140.8470 C   0  0  0  0  0  1  0  0  0  0  0  0
  189.1000  176.6840  137.4740 C   0  0  0  0  0  2  0  0  0  0  0  0
  189.3360  177.2930  139.9360 C   0  0  0  0  0  2  0  0  0  0  0  0
  180.6300  179.0860  140.0780 C   0  0  1  0  0  3  0  0  0  0  0  0
  186.3940  178.7040  138.3180 C   0  0  1  0  0  3  0  0  0  0  0  0
  185.0010  177.0350  135.9090 C   0  0  0  0  0  2  0  0  0  0  0  0
  187.8420  177.2260  134.5940 C   0  0  0  0  0  1  0  0  0  0  0  0
  186.0230  175.9620  135.4940 C   0  0  2  0  0  3  0  0  0  0  0  0
  183.2300  176.6680  137.4170 O   0  0  0  0  0  0  0  0  0  0  0  0
  189.0730  176.1860  138.9120 C   0  0  0  0  0  2  0  0  0  0  0  0
  187.3000  178.4260  137.1110 C   0  0  0  0  0  2  0  0  0  0  0  0
  182.9970  175.7380  138.4440 C   0  0  0  0  0  2  0  0  0  0  0  0
  185.7310  174.5830  136.0850 C   0  0  0  0  0  2  0  0  0  0  0  0
  184.8420  173.7570  135.1660 C   0  0  1  0  0  3  0  0  0  0  0  0
  185.6610  172.6190  134.5940 C   0  0  0  0  0  1  0  0  0  0  0  0
  183.6650  173.1750  135.9340 C   0  0  0  0  0  2  0  0  0  0  0  0
  184.1500  172.3450  137.1080 C   0  0  0  0  0  1  0  0  0  0  0  0
  1 18  1  0  0  0  0
  1  5  2  0  0  0  0
  2 12  1  0  0  0  0
  2 14  1  1  0  0  0
  3 24  1  6  0  0  0
  3 15  1  0  0  0  0
  4 19  1  6  0  0  0
  4 22  1  0  0  0  0
  4  1  1  0  0  0  0
  7 11  1  6  0  0  0
  7  6  1  0  0  0  0
  8 17  1  0  0  0  0
  9  3  1  0  0  0  0
 10  5  1  1  0  0  0
 10  8  1  0  0  0  0
 10  7  1  0  0  0  0
 12 16  1  0  0  0  0
 15 23  1  0  0  0  0
 17 13  1  6  0  0  0
 17  6  1  0  0  0  0
 18 24  1  6  0  0  0
 18  2  1  0  0  0  0
 20  9  1  0  0  0  0
 21  9  1  0  0  0  0
 21 19  1  0  0  0  0
 21 26  1  1  0  0  0
 22 25  1  0  0  0  0
 23 16  1  0  0  0  0
 25 11  1  0  0  0  0
 27 28  1  1  0  0  0
 27 29  1  0  0  0  0
 27 26  1  0  0  0  0
 29 30  1  0  0  0  0
M  END
>  <MODEL>
4

>  <REMARK>
 VINA RESULT:      -4.9      4.140      8.782
  Name = 
  3 active torsions:
  status: ('A' for Active; 'I' for Inactive)
    1  A    between atoms: C_7  and  C_10
    2  A    between atoms: C_7  and  C_15
    3  A    between atoms: C_10  and  C_25
                            x       y       z     vdW  Elec       q    Type
                         _______ _______ _______ _____ _____    ______ ____

>  <TORSDO>
F 3

$$$$
=
 OpenBabel11052412193D

 30 33  0  0  1  0  0  0  0  0999 V2000
  188.3000  175.3500  135.8530 C   0  0  0  0  0  0  0  0  0  0  0  0
  187.0470  173.2290  136.5290 C   0  0  1  0  0  3  0  0  0  0  0  0
  185.0800  175.4530  136.1250 C   0  0  1  0  0  3  0  0  0  0  0  0
  187.9000  176.6150  136.6420 C   0  0  2  0  0  3  0  0  0  0  0  0
  189.5800  174.9950  135.6000 C   0  0  0  0  0  3  0  0  0  0  0  0
  192.3060  175.7390  137.8950 O   0  0  0  0  0  0  0  0  0  0  0  0
  191.0150  175.3120  137.5730 C   0  0  2  0  0  3  0  0  0  0  0  0
  192.0680  175.3820  135.5280 C   0  0  0  0  0  2  0  0  0  0  0  0
  184.6200  176.8410  135.9640 N   0  0  0  0  0  0  0  0  0  0  0  0
  190.7590  175.7260  136.1510 C   0  0  1  0  0  3  0  0  0  0  0  0
  189.9460  175.7050  138.6060 C   0  0  0  0  0  2  0  0  0  0  0  0
  185.9220  172.2820  136.1240 C   0  0  0  0  0  2  0  0  0  0  0  0
  193.9290  176.7530  136.4550 C   0  0  0  0  0  1  0  0  0  0  0  0
  188.3070  172.4100  136.7460 C   0  0  0  0  0  1  0  0  0  0  0  0
  183.9180  174.5180  136.4210 C   0  0  0  0  0  2  0  0  0  0  0  0
  184.7980  172.2440  137.1600 C   0  0  0  0  0  2  0  0  0  0  0  0
  193.0370  175.5510  136.6980 C   0  0  1  0  0  3  0  0  0  0  0  0
  187.2560  174.3210  135.4560 C   0  0  1  0  0  3  0  0  0  0  0  0
  187.0480  177.5430  135.7720 C   0  0  0  0  0  2  0  0  0  0  0  0
  184.1660  177.1280  134.6060 C   0  0  0  0  0  1  0  0  0  0  0  0
  185.6480  177.8210  136.3500 C   0  0  2  0  0  3  0  0  0  0  0  0
  189.0070  177.3720  137.0670 O   0  0  0  0  0  0  0  0  0  0  0  0
  184.2890  173.6210  137.5930 C   0  0  0  0  0  2  0  0  0  0  0  0
  185.9420  174.9400  134.9610 C   0  0  0  0  0  2  0  0  0  0  0  0
  189.2650  177.0700  138.4150 C   0  0  0  0  0  2  0  0  0  0  0  0
  185.6510  178.0710  137.8570 C   0  0  0  0  0  2  0  0  0  0  0  0
  184.2540  178.3850  138.3760 C   0  0  1  0  0  3  0  0  0  0  0  0
  183.6830  177.1370  139.0160 C   0  0  0  0  0  1  0  0  0  0  0  0
  184.3010  179.4920  139.4170 C   0  0  0  0  0  2  0  0  0  0  0  0
  184.9710  179.0030  140.6880 C   0  0  0  0  0  1  0  0  0  0  0  0
  1  4  1  0  0  0  0
  2 14  1  6  0  0  0
  3 24  1  6  0  0  0
  3 15  1  0  0  0  0
  4 19  1  6  0  0  0
  4 22  1  0  0  0  0
  5  1  2  0  0  0  0
  5 10  1  0  0  0  0
  7  6  1  0  0  0  0
  7 11  1  1  0  0  0
  8 17  1  0  0  0  0
  9  3  1  0  0  0  0
  9 21  1  0  0  0  0
 10  8  1  6  0  0  0
 10  7  1  0  0  0  0
 12  2  1  0  0  0  0
 12 16  1  0  0  0  0
 15 23  1  0  0  0  0
 16 23  1  0  0  0  0
 17 13  1  6  0  0  0
 17  6  1  0  0  0  0
 18 24  1  1  0  0  0
 18  1  1  0  0  0  0
 18  2  1  0  0  0  0
 19 21  1  0  0  0  0
 20  9  1  0  0  0  0
 21 26  1  1  0  0  0
 22 25  1  0  0  0  0
 25 11  1  0  0  0  0
 26 27  1  0  0  0  0
 27 28  1  1  0  0  0
 27 29  1  0  0  0  0
 29 30  1  0  0  0  0
M  END
>  <MODEL>
5

>  <REMARK>
 VINA RESULT:      -4.8      2.033      3.303
  Name = 
  3 active torsions:
  status: ('A' for Active; 'I' for Inactive)
    1  A    between atoms: C_7  and  C_10
    2  A    between atoms: C_7  and  C_15
    3  A    between atoms: C_10  and  C_25
                            x       y       z     vdW  Elec       q    Type
                         _______ _______ _______ _____ _____    ______ ____

>  <TORSDO>
F 3

$$$$
=
 OpenBabel11052412193D

 30 33  0  0  1  0  0  0  0  0999 V2000
  188.0100  178.2460  140.5210 C   0  0  0  0  0  0  0  0  0  0  0  0
  187.8520  176.6550  138.5290 C   0  0  1  0  0  3  0  0  0  0  0  0
  185.2390  178.0820  138.8630 C   0  0  1  0  0  3  0  0  0  0  0  0
  186.8320  178.1550  141.5140 C   0  0  2  0  0  3  0  0  0  0  0  0
  189.3080  178.2890  140.8970 C   0  0  0  0  0  3  0  0  0  0  0  0
  190.5400  176.6010  143.8760 O   0  0  0  0  0  0  0  0  0  0  0  0
  189.7820  176.6920  142.7060 C   0  0  2  0  0  3  0  0  0  0  0  0
  191.1780  178.5160  142.5690 C   0  0  0  0  0  2  0  0  0  0  0  0
  184.2130  178.8860  139.5450 N   0  0  0  0  0  0  0  0  0  0  0  0
  189.7590  178.1420  142.3120 C   0  0  1  0  0  3  0  0  0  0  0  0
  188.4220  175.9780  142.7790 C   0  0  0  0  0  2  0  0  0  0  0  0
  187.5130  176.5710  137.0440 C   0  0  0  0  0  2  0  0  0  0  0  0
  191.7660  178.3350  144.9830 C   0  0  0  0  0  1  0  0  0  0  0  0
  189.2350  176.0640  138.7370 C   0  0  0  0  0  1  0  0  0  0  0  0
  184.6690  177.3870  137.6370 C   0  0  0  0  0  2  0  0  0  0  0  0
  186.3220  175.6500  136.7750 C   0  0  0  0  0  2  0  0  0  0  0  0
  191.5660  177.5580  143.6960 C   0  0  1  0  0  3  0  0  0  0  0  0
  187.7760  178.1150  139.0260 C   0  0  1  0  0  3  0  0  0  0  0  0
  185.9100  179.3680  141.3660 C   0  0  0  0  0  2  0  0  0  0  0  0
  184.0730  180.2210  138.9700 C   0  0  0  0  0  1  0  0  0  0  0  0
  184.4620  179.0030  140.9900 C   0  0  2  0  0  3  0  0  0  0  0  0
  187.2450  178.1310  142.8590 O   0  0  0  0  0  0  0  0  0  0  0  0
  185.0970  175.9260  137.6500 C   0  0  0  0  0  2  0  0  0  0  0  0
  186.5250  178.8560  138.5340 C   0  0  0  0  0  2  0  0  0  0  0  0
  187.2350  176.8000  143.3070 C   0  0  0  0  0  2  0  0  0  0  0  0
  183.9210  177.7950  141.7550 C   0  0  0  0  0  2  0  0  0  0  0  0
  182.9880  178.2170  142.8820 C   0  0  1  0  0  3  0  0  0  0  0  0
  183.7620  179.0820  143.8540 C   0  0  0  0  0  1  0  0  0  0  0  0
  181.8150  179.0180  142.3400 C   0  0  0  0  0  2  0  0  0  0  0  0
  180.6780  179.0470  143.3440 C   0  0  0  0  0  1  0  0  0  0  0  0
  1  5  2  0  0  0  0
  1  4  1  0  0  0  0
  2 14  1  6  0  0  0
  2 18  1  0  0  0  0
  3 15  1  6  0  0  0
  3  9  1  0  0  0  0
  4 19  1  1  0  0  0
  4 22  1  0  0  0  0
  7 11  1  1  0  0  0
  7  6  1  0  0  0  0
  8 17  1  0  0  0  0
  9 21  1  0  0  0  0
 10  5  1  6  0  0  0
 10  8  1  0  0  0  0
 10  7  1  0  0  0  0
 11 25  1  0  0  0  0
 12  2  1  0  0  0  0
 15 23  1  0  0  0  0
 16 12  1  0  0  0  0
 16 23  1  0  0  0  0
 17  6  1  0  0  0  0
 17 13  1  1  0  0  0
 18 24  1  1  0  0  0
 18  1  1  0  0  0  0
 20  9  1  0  0  0  0
 21 19  1  0  0  0  0
 21 26  1  1  0  0  0
 22 25  1  0  0  0  0
 24  3  1  0  0  0  0
 26 27  1  0  0  0  0
 27 28  1  1  0  0  0
 29 27  1  0  0  0  0
 29 30  1  0  0  0  0
M  END
>  <MODEL>
6

>  <REMARK>
 VINA RESULT:      -4.4      3.906      6.207
  Name = 
  3 active torsions:
  status: ('A' for Active; 'I' for Inactive)
    1  A    between atoms: C_7  and  C_10
    2  A    between atoms: C_7  and  C_15
    3  A    between atoms: C_10  and  C_25
                            x       y       z     vdW  Elec       q    Type
                         _______ _______ _______ _____ _____    ______ ____

>  <TORSDO>
F 3

$$$$
=
 OpenBabel11052412193D

 30 33  0  0  1  0  0  0  0  0999 V2000
  184.5070  177.6760  137.8080 C   0  0  0  0  0  0  0  0  0  0  0  0
  185.0470  178.2010  140.2480 C   0  0  1  0  0  3  0  0  0  0  0  0
  187.6030  177.8780  138.7190 C   0  0  1  0  0  3  0  0  0  0  0  0
  185.2860  176.4820  137.2170 C   0  0  2  0  0  3  0  0  0  0  0  0
  183.1780  177.8620  137.6430 C   0  0  0  0  0  3  0  0  0  0  0  0
  180.8370  175.0910  137.3460 O   0  0  0  0  0  0  0  0  0  0  0  0
  181.9290  175.7580  137.9050 C   0  0  2  0  0  3  0  0  0  0  0  0
  180.9320  177.3780  136.6100 C   0  0  0  0  0  2  0  0  0  0  0  0
  188.4680  177.4780  137.5980 N   0  0  0  0  0  0  0  0  0  0  0  0
  182.2880  176.8740  136.9640 C   0  0  1  0  0  3  0  0  0  0  0  0
  183.0760  174.8340  138.3440 C   0  0  0  0  0  2  0  0  0  0  0  0
  185.8190  179.1470  141.1620 C   0  0  0  0  0  2  0  0  0  0  0  0
  179.5950  175.6720  135.3830 C   0  0  0  0  0  1  0  0  0  0  0  0
  183.5970  178.1790  140.6990 C   0  0  0  0  0  1  0  0  0  0  0  0
  188.4200  178.2030  139.9580 C   0  0  0  0  0  2  0  0  0  0  0  0
  186.8850  178.4170  141.9810 C   0  0  0  0  0  2  0  0  0  0  0  0
  180.0730  176.1220  136.7500 C   0  0  1  0  0  3  0  0  0  0  0  0
  185.1770  178.6380  138.7720 C   0  0  1  0  0  3  0  0  0  0  0  0
  186.3760  176.9710  136.2600 C   0  0  0  0  0  2  0  0  0  0  0  0
  188.9770  178.6230  136.8470 C   0  0  0  0  0  1  0  0  0  0  0  0
  187.7980  176.5510  136.6740 C   0  0  2  0  0  3  0  0  0  0  0  0
  184.4720  175.6040  136.4780 O   0  0  0  0  0  0  0  0  0  0  0  0
  187.8000  177.5040  141.1600 C   0  0  0  0  0  2  0  0  0  0  0  0
  186.6140  179.0030  138.3760 C   0  0  0  0  0  2  0  0  0  0  0  0
  184.1450  174.5050  137.2890 C   0  0  0  0  0  2  0  0  0  0  0  0
  187.8860  175.1060  137.1640 C   0  0  0  0  0  2  0  0  0  0  0  0
  188.8370  174.2800  136.3070 C   0  0  1  0  0  3  0  0  0  0  0  0
  189.3580  175.1520  135.1850 C   0  0  0  0  0  1  0  0  0  0  0  0
  190.0150  173.7860  137.1320 C   0  0  0  0  0  2  0  0  0  0  0  0
  191.0910  174.8510  137.2180 C   0  0  0  0  0  1  0  0  0  0  0  0
  1 18  1  0  0  0  0
  2 14  1  1  0  0  0
  2 12  1  0  0  0  0
  3 24  1  6  0  0  0
  3 15  1  0  0  0  0
  4 19  1  6  0  0  0
  4  1  1  0  0  0  0
  5  1  2  0  0  0  0
  6  7  1  0  0  0  0
  7 11  1  6  0  0  0
  8 17  1  0  0  0  0
  9  3  1  0  0  0  0
 10  8  1  1  0  0  0
 10  5  1  0  0  0  0
 10  7  1  0  0  0  0
 12 16  1  0  0  0  0
 15 23  1  0  0  0  0
 17 13  1  6  0  0  0
 17  6  1  0  0  0  0
 18 24  1  6  0  0  0
 18  2  1  0  0  0  0
 19 21  1  0  0  0  0
 20  9  1  0  0  0  0
 21 26  1  1  0  0  0
 21  9  1  0  0  0  0
 22  4  1  0  0  0  0
 22 25  1  0  0  0  0
 23 16  1  0  0  0  0
 25 11  1  0  0  0  0
 27 28  1  6  0  0  0
 27 29  1  0  0  0  0
 27 26  1  0  0  0  0
 29 30  1  0  0  0  0
M  END
>  <MODEL>
7

>  <REMARK>
 VINA RESULT:      -4.4      3.790      8.397
  Name = 
  3 active torsions:
  status: ('A' for Active; 'I' for Inactive)
    1  A    between atoms: C_7  and  C_10
    2  A    between atoms: C_7  and  C_15
    3  A    between atoms: C_10  and  C_25
                            x       y       z     vdW  Elec       q    Type
                         _______ _______ _______ _____ _____    ______ ____

>  <TORSDO>
F 3

$$$$
=
 OpenBabel11052412193D

 30 33  0  0  1  0  0  0  0  0999 V2000
  183.2550  177.9030  137.6490 C   0  0  0  0  0  0  0  0  0  0  0  0
  182.1820  175.7120  138.4070 C   0  0  1  0  0  3  0  0  0  0  0  0
  180.1240  177.8890  138.4560 C   0  0  1  0  0  3  0  0  0  0  0  0
  182.9640  179.1140  138.5600 C   0  0  2  0  0  3  0  0  0  0  0  0
  184.4830  177.6020  137.1690 C   0  0  0  0  0  3  0  0  0  0  0  0
  187.5360  178.3180  139.0170 O   0  0  0  0  0  0  0  0  0  0  0  0
  186.2190  177.8670  138.8910 C   0  0  2  0  0  3  0  0  0  0  0  0
  186.9140  178.0710  136.7070 C   0  0  0  0  0  2  0  0  0  0  0  0
  179.6120  179.2690  138.4490 N   0  0  0  0  0  0  0  0  0  0  0  0
  185.7200  178.3420  137.5560 C   0  0  1  0  0  3  0  0  0  0  0  0
  185.3290  178.1740  140.1060 C   0  0  0  0  0  2  0  0  0  0  0  0
  181.0280  174.7510  138.1440 C   0  0  0  0  0  2  0  0  0  0  0  0
  188.8720  179.4530  137.3860 C   0  0  0  0  0  1  0  0  0  0  0  0
  183.4790  174.9240  138.3680 C   0  0  0  0  0  1  0  0  0  0  0  0
  179.0500  176.9050  138.8890 C   0  0  0  0  0  2  0  0  0  0  0  0
  180.0940  174.6260  139.3480 C   0  0  0  0  0  2  0  0  0  0  0  0
  188.0610  178.2120  137.7080 C   0  0  1  0  0  3  0  0  0  0  0  0
  182.1840  176.8620  137.3750 C   0  0  1  0  0  3  0  0  0  0  0  0
  181.9570  180.0570  137.8960 C   0  0  0  0  0  2  0  0  0  0  0  0
  178.9310  179.6080  137.2020 C   0  0  0  0  0  1  0  0  0  0  0  0
  180.6670  180.2600  138.7110 C   0  0  2  0  0  3  0  0  0  0  0  0
  184.1080  179.8840  138.8370 O   0  0  0  0  0  0  0  0  0  0  0  0
  179.6320  175.9630  139.9340 C   0  0  0  0  0  2  0  0  0  0  0  0
  180.7910  177.4620  137.1390 C   0  0  0  0  0  2  0  0  0  0  0  0
  184.5950  179.5240  140.1050 C   0  0  0  0  0  2  0  0  0  0  0  0
  180.9160  180.4360  140.2090 C   0  0  0  0  0  2  0  0  0  0  0  0
  180.1830  179.3810  141.0260 C   0  0  1  0  0  3  0  0  0  0  0  0
  181.1840  178.6710  141.9120 C   0  0  0  0  0  1  0  0  0  0  0  0
  179.1200  180.0220  141.9050 C   0  0  0  0  0  2  0  0  0  0  0  0
  179.4530  179.8310  143.3730 C   0  0  0  0  0  1  0  0  0  0  0  0
  1  4  1  0  0  0  0
  2 14  1  6  0  0  0
  3 24  1  6  0  0  0
  3 15  1  0  0  0  0
  4 19  1  6  0  0  0
  4 22  1  0  0  0  0
  5 10  1  0  0  0  0
  5  1  2  0  0  0  0
  7  6  1  0  0  0  0
  7 11  1  1  0  0  0
  8 17  1  0  0  0  0
  9  3  1  0  0  0  0
  9 21  1  0  0  0  0
 10  8  1  6  0  0  0
 10  7  1  0  0  0  0
 12  2  1  0  0  0  0
 12 16  1  0  0  0  0
 15 23  1  0  0  0  0
 16 23  1  0  0  0  0
 17 13  1  6  0  0  0
 17  6  1  0  0  0  0
 18 24  1  1  0  0  0
 18  1  1  0  0  0  0
 18  2  1  0  0  0  0
 19 21  1  0  0  0  0
 20  9  1  0  0  0  0
 21 26  1  1  0  0  0
 22 25  1  0  0  0  0
 25 11  1  0  0  0  0
 26 27  1  0  0  0  0
 27 29  1  0  0  0  0
 27 28  1  1  0  0  0
 29 30  1  0  0  0  0
M  END
>  <MODEL>
8

>  <REMARK>
 VINA RESULT:      -4.3      5.654      8.113
  Name = 
  3 active torsions:
  status: ('A' for Active; 'I' for Inactive)
    1  A    between atoms: C_7  and  C_10
    2  A    between atoms: C_7  and  C_15
    3  A    between atoms: C_10  and  C_25
                            x       y       z     vdW  Elec       q    Type
                         _______ _______ _______ _____ _____    ______ ____

>  <TORSDO>
F 3

$$$$
=
 OpenBabel11052412193D

 30 33  0  0  1  0  0  0  0  0999 V2000
  191.4490  174.7080  135.3040 C   0  0  0  0  0  0  0  0  0  0  0  0
  190.2820  172.4410  135.4550 C   0  0  1  0  0  3  0  0  0  0  0  0
  188.2810  174.6170  135.9440 C   0  0  1  0  0  3  0  0  0  0  0  0
  191.1420  175.6710  136.4700 C   0  0  2  0  0  3  0  0  0  0  0  0
  192.6920  174.4870  134.8190 C   0  0  0  0  0  3  0  0  0  0  0  0
  195.6620  174.6170  136.9190 O   0  0  0  0  0  0  0  0  0  0  0  0
  194.3430  174.2600  136.6290 C   0  0  2  0  0  3  0  0  0  0  0  0
  195.1550  174.9630  134.5940 C   0  0  0  0  0  2  0  0  0  0  0  0
  187.8060  175.9750  136.2520 N   0  0  0  0  0  0  0  0  0  0  0  0
  193.9260  175.0640  135.4300 C   0  0  1  0  0  3  0  0  0  0  0  0
  193.3990  174.2950  137.8420 C   0  0  0  0  0  2  0  0  0  0  0  0
  189.1190  171.6170  134.9130 C   0  0  0  0  0  2  0  0  0  0  0  0
  197.1100  176.0640  135.6760 C   0  0  0  0  0  1  0  0  0  0  0  0
  191.5590  171.6380  135.2810 C   0  0  0  0  0  1  0  0  0  0  0  0
  187.1610  173.5980  136.0760 C   0  0  0  0  0  2  0  0  0  0  0  0
  188.1200  171.2380  136.0080 C   0  0  0  0  0  2  0  0  0  0  0  0
  196.2520  174.8130  135.6480 C   0  0  1  0  0  3  0  0  0  0  0  0
  190.3670  173.8060  134.7370 C   0  0  1  0  0  3  0  0  0  0  0  0
  190.1960  176.7850  136.0130 C   0  0  0  0  0  2  0  0  0  0  0  0
  187.1990  176.6320  135.0980 C   0  0  0  0  0  1  0  0  0  0  0  0
  188.8710  176.8320  136.7960 C   0  0  2  0  0  3  0  0  0  0  0  0
  192.2900  176.3070  136.9770 O   0  0  0  0  0  0  0  0  0  0  0  0
  187.6640  172.4090  136.8820 C   0  0  0  0  0  2  0  0  0  0  0  0
  189.0040  174.4980  134.5940 C   0  0  0  0  0  2  0  0  0  0  0  0
  192.7010  175.6320  138.1390 C   0  0  0  0  0  2  0  0  0  0  0  0
  189.0460  176.6290  138.3000 C   0  0  0  0  0  2  0  0  0  0  0  0
  188.8210  177.9220  139.0710 C   0  0  1  0  0  3  0  0  0  0  0  0
  189.0430  179.0900  138.1330 C   0  0  0  0  0  1  0  0  0  0  0  0
  187.4000  177.9900  139.6090 C   0  0  0  0  0  2  0  0  0  0  0  0
  186.4310  178.3870  138.5120 C   0  0  0  0  0  1  0  0  0  0  0  0
  1  4  1  0  0  0  0
  2 14  1  6  0  0  0
  3 24  1  6  0  0  0
  3 15  1  0  0  0  0
  3  9  1  0  0  0  0
  4 19  1  6  0  0  0
  4 22  1  0  0  0  0
  5  1  2  0  0  0  0
  5 10  1  0  0  0  0
  7  6  1  0  0  0  0
  7 11  1  1  0  0  0
  8 17  1  0  0  0  0
  9 21  1  0  0  0  0
 10  8  1  6  0  0  0
 10  7  1  0  0  0  0
 11 25  1  0  0  0  0
 12  2  1  0  0  0  0
 12 16  1  0  0  0  0
 15 23  1  0  0  0  0
 16 23  1  0  0  0  0
 17 13  1  1  0  0  0
 17  6  1  0  0  0  0
 18 24  1  1  0  0  0
 18  1  1  0  0  0  0
 18  2  1  0  0  0  0
 19 21  1  0  0  0  0
 20  9  1  0  0  0  0
 21 26  1  1  0  0  0
 22 25  1  0  0  0  0
 26 27  1  0  0  0  0
 27 28  1  6  0  0  0
 27 29  1  0  0  0  0
 30 29  1  0  0  0  0
M  END
>  <MODEL>
9

>  <REMARK>
 VINA RESULT:      -4.1      1.536      2.177
  Name = 
  3 active torsions:
  status: ('A' for Active; 'I' for Inactive)
    1  A    between atoms: C_7  and  C_10
    2  A    between atoms: C_7  and  C_15
    3  A    between atoms: C_10  and  C_25
                            x       y       z     vdW  Elec       q    Type
                         _______ _______ _______ _____ _____    ______ ____

>  <TORSDO>
F 3

$$$$
