=
 OpenBabel11052413243D

 28 31  0  0  1  0  0  0  0  0999 V2000
  188.0660  177.8790  139.1490 C   0  0  1  0  0  3  0  0  0  0  0  0
  184.5240  178.8240  139.1380 C   0  0  0  0  0  2  0  0  0  0  0  0
  186.6070  178.1340  138.9030 C   0  0  0  0  0  0  0  0  0  0  0  0
  184.6930  177.9930  137.9080 C   0  0  0  0  0  3  0  0  0  0  0  0
  185.8650  178.8290  139.6980 N   0  0  0  0  0  0  0  0  0  0  0  0
  185.9150  177.5990  137.7880 N   0  0  0  0  0  0  0  0  0  0  0  0
  188.9310  178.4950  138.0870 C   0  0  0  0  0  0  0  0  0  0  0  0
  189.8680  177.7050  137.3430 N   0  0  0  0  0  2  0  0  0  0  0  0
  188.9140  179.7420  137.9090 O   0  0  0  0  0  0  0  0  0  0  0  0
  189.9130  176.2730  137.3000 C   0  0  0  0  0  0  0  0  0  0  0  0
  189.5590  174.1460  136.5610 N   0  0  0  0  0  0  0  0  0  0  0  0
  191.1970  175.3570  138.1290 S   0  0  0  0  0  0  0  0  0  0  0  0
  188.2030  176.0330  135.5080 C   0  0  0  0  0  1  0  0  0  0  0  0
  189.1890  175.5140  136.5030 C   0  0  0  0  0  0  0  0  0  0  0  0
  188.8800  173.1100  135.8020 C   0  0  0  0  0  1  0  0  0  0  0  0
  190.6370  173.8270  137.4020 N   0  0  0  0  0  2  0  0  0  0  0  0
  188.5030  178.3470  140.5400 C   0  0  0  0  0  2  0  0  0  0  0  0
  186.6070  177.8700  142.8630 C   0  0  0  0  0  3  0  0  0  0  0  0
  188.6150  177.2920  144.0970 C   0  0  0  0  0  0  0  0  0  0  0  0
  188.6470  177.1970  141.5450 C   0  0  2  0  0  3  0  0  0  0  0  0
  186.6070  177.9530  145.2810 C   0  0  0  0  0  0  0  0  0  0  0  0
  187.9570  177.4890  142.8630 C   0  0  0  0  0  0  0  0  0  0  0  0
  190.3720  175.9720  142.9430 C   0  0  0  0  0  2  0  0  0  0  0  0
  187.9430  177.5450  145.2960 C   0  0  0  0  0  3  0  0  0  0  0  0
  190.0430  176.8420  144.1480 C   0  0  0  0  0  2  0  0  0  0  0  0
  185.8970  178.2190  146.5580 C   0  0  0  0  0  1  0  0  0  0  0  0
  185.9370  178.1040  144.0660 C   0  0  0  0  0  3  0  0  0  0  0  0
  190.1170  176.7700  141.6730 C   0  0  0  0  0  2  0  0  0  0  0  0
  1 17  1  1  0  0  0
  2  5  1  0  0  0  0
  3  1  1  0  0  0  0
  3  5  2  0  0  0  0
  4  2  1  0  0  0  0
  6  4  2  0  0  0  0
  6  3  1  0  0  0  0
  7  1  1  0  0  0  0
  8  7  1  0  0  0  0
  9  7  2  0  0  0  0
 10  8  1  0  0  0  0
 10 12  1  0  0  0  0
 11 16  1  0  0  0  0
 13 14  1  0  0  0  0
 14 11  1  0  0  0  0
 14 10  2  0  0  0  0
 15 11  1  0  0  0  0
 16 12  1  0  0  0  0
 18 22  2  0  0  0  0
 18 27  1  0  0  0  0
 19 25  1  0  0  0  0
 19 24  2  0  0  0  0
 20 17  1  6  0  0  0
 20 28  1  0  0  0  0
 20 22  1  0  0  0  0
 21 24  1  0  0  0  0
 21 26  1  0  0  0  0
 22 19  1  0  0  0  0
 23 25  1  0  0  0  0
 27 21  2  0  0  0  0
 28 23  1  0  0  0  0
M  END
>  <MODEL>
1

>  <REMARK>
 VINA RESULT:      -8.5      0.000      0.000
  Name = 
  5 active torsions:
  status: ('A' for Active; 'I' for Inactive)
    1  A    between atoms: C_1  and  C_27
    2  A    between atoms: N_2  and  C_3
    3  A    between atoms: C_10  and  C_17
    4  A    between atoms: C_16  and  C_27
    5  A    between atoms: C_17  and  C_27
                            x       y       z     vdW  Elec       q    Type
                         _______ _______ _______ _____ _____    ______ ____

>  <TORSDO>
F 5

$$$$
=
 OpenBabel11052413243D

 28 31  0  0  1  0  0  0  0  0999 V2000
  187.9430  177.9530  139.0420 C   0  0  1  0  0  3  0  0  0  0  0  0
  184.4100  178.2260  138.1020 C   0  0  0  0  0  2  0  0  0  0  0  0
  186.4700  178.2030  138.8940 C   0  0  0  0  0  0  0  0  0  0  0  0
  184.5220  179.0090  139.3690 C   0  0  0  0  0  3  0  0  0  0  0  0
  185.7710  177.7570  137.9050 N   0  0  0  0  0  0  0  0  0  0  0  0
  185.7310  178.9840  139.8160 N   0  0  0  0  0  0  0  0  0  0  0  0
  188.7380  178.6130  137.9530 C   0  0  0  0  0  0  0  0  0  0  0  0
  189.2470  177.8600  136.8450 N   0  0  0  0  0  2  0  0  0  0  0  0
  189.0540  179.8290  138.0560 O   0  0  0  0  0  0  0  0  0  0  0  0
  188.8630  176.5270  136.4870 C   0  0  0  0  0  0  0  0  0  0  0  0
  188.7050  174.2540  136.5690 N   0  0  0  0  0  0  0  0  0  0  0  0
  187.3920  176.2060  135.5340 S   0  0  0  0  0  0  0  0  0  0  0  0
  190.4790  175.3950  138.0040 C   0  0  0  0  0  1  0  0  0  0  0  0
  189.3900  175.4250  136.9810 C   0  0  0  0  0  0  0  0  0  0  0  0
  189.1230  172.9160  136.9530 C   0  0  0  0  0  1  0  0  0  0  0  0
  187.5760  174.4460  135.7560 N   0  0  0  0  0  2  0  0  0  0  0  0
  188.4600  178.3760  140.4200 C   0  0  0  0  0  2  0  0  0  0  0  0
  186.5980  177.8560  142.7610 C   0  0  0  0  0  3  0  0  0  0  0  0
  188.6210  177.2310  143.9480 C   0  0  0  0  0  0  0  0  0  0  0  0
  188.6110  177.2000  141.3940 C   0  0  2  0  0  3  0  0  0  0  0  0
  186.6390  177.8780  145.1810 C   0  0  0  0  0  0  0  0  0  0  0  0
  187.9440  177.4640  142.7300 C   0  0  0  0  0  0  0  0  0  0  0  0
  190.3480  175.9270  142.7320 C   0  0  0  0  0  2  0  0  0  0  0  0
  187.9710  177.4600  145.1630 C   0  0  0  0  0  3  0  0  0  0  0  0
  190.0460  176.7690  143.9640 C   0  0  0  0  0  2  0  0  0  0  0  0
  185.9520  178.1180  146.4750 C   0  0  0  0  0  1  0  0  0  0  0  0
  185.9490  178.0650  143.9800 C   0  0  0  0  0  3  0  0  0  0  0  0
  190.0790  176.7580  141.4870 C   0  0  0  0  0  2  0  0  0  0  0  0
  1 17  1  1  0  0  0
  2  4  1  0  0  0  0
  3  1  1  0  0  0  0
  3  6  1  0  0  0  0
  4  6  2  0  0  0  0
  5  2  1  0  0  0  0
  5  3  2  0  0  0  0
  7  9  2  0  0  0  0
  7  1  1  0  0  0  0
  8  7  1  0  0  0  0
 10  8  1  0  0  0  0
 10 14  2  0  0  0  0
 11 15  1  0  0  0  0
 11 14  1  0  0  0  0
 12 16  1  0  0  0  0
 12 10  1  0  0  0  0
 14 13  1  0  0  0  0
 16 11  1  0  0  0  0
 18 27  1  0  0  0  0
 19 25  1  0  0  0  0
 19 24  2  0  0  0  0
 20 17  1  6  0  0  0
 20 28  1  0  0  0  0
 20 22  1  0  0  0  0
 21 26  1  0  0  0  0
 22 18  2  0  0  0  0
 22 19  1  0  0  0  0
 23 25  1  0  0  0  0
 24 21  1  0  0  0  0
 27 21  2  0  0  0  0
 28 23  1  0  0  0  0
M  END
>  <MODEL>
2

>  <REMARK>
 VINA RESULT:      -7.9      1.090      1.543
  Name = 
  5 active torsions:
  status: ('A' for Active; 'I' for Inactive)
    1  A    between atoms: C_1  and  C_27
    2  A    between atoms: N_2  and  C_3
    3  A    between atoms: C_10  and  C_17
    4  A    between atoms: C_16  and  C_27
    5  A    between atoms: C_17  and  C_27
                            x       y       z     vdW  Elec       q    Type
                         _______ _______ _______ _____ _____    ______ ____

>  <TORSDO>
F 5

$$$$
=
 OpenBabel11052413243D

 28 31  0  0  1  0  0  0  0  0999 V2000
  184.7130  178.5220  140.4190 C   0  0  1  0  0  3  0  0  0  0  0  0
  181.1850  178.4070  141.4070 C   0  0  0  0  0  2  0  0  0  0  0  0
  183.3630  178.5340  141.0750 C   0  0  0  0  0  0  0  0  0  0  0  0
  181.9080  178.8100  142.6500 C   0  0  0  0  0  3  0  0  0  0  0  0
  182.2680  178.2640  140.4490 N   0  0  0  0  0  0  0  0  0  0  0  0
  183.1770  178.8800  142.4370 N   0  0  0  0  0  0  0  0  0  0  0  0
  184.7180  179.2870  139.1270 C   0  0  0  0  0  0  0  0  0  0  0  0
  185.2650  178.7190  137.9300 N   0  0  0  0  0  2  0  0  0  0  0  0
  184.3290  180.4860  139.1060 O   0  0  0  0  0  0  0  0  0  0  0  0
  185.6010  177.3410  137.7310 C   0  0  0  0  0  0  0  0  0  0  0  0
  185.3640  175.1440  137.1700 N   0  0  0  0  0  0  0  0  0  0  0  0
  187.2880  176.8180  137.4950 S   0  0  0  0  0  0  0  0  0  0  0  0
  183.2610  176.5740  137.3680 C   0  0  0  0  0  1  0  0  0  0  0  0
  184.7380  176.3760  137.4840 C   0  0  0  0  0  0  0  0  0  0  0  0
  184.6220  173.9250  136.8970 C   0  0  0  0  0  1  0  0  0  0  0  0
  186.7680  175.1510  137.1280 N   0  0  0  0  0  2  0  0  0  0  0  0
  185.8100  179.0380  141.3550 C   0  0  0  0  0  2  0  0  0  0  0  0
  186.1610  177.6790  144.0480 C   0  0  0  0  0  3  0  0  0  0  0  0
  188.5370  177.9030  143.6040 C   0  0  0  0  0  0  0  0  0  0  0  0
  186.8880  177.9890  141.6550 C   0  0  2  0  0  3  0  0  0  0  0  0
  187.7460  177.6040  145.8750 C   0  0  0  0  0  0  0  0  0  0  0  0
  187.2050  177.8880  143.1350 C   0  0  0  0  0  0  0  0  0  0  0  0
  189.3500  177.4980  141.2940 C   0  0  0  0  0  2  0  0  0  0  0  0
  188.7970  177.7820  144.9710 C   0  0  0  0  0  3  0  0  0  0  0  0
  189.6870  178.0790  142.6610 C   0  0  0  0  0  2  0  0  0  0  0  0
  188.0280  177.4730  147.3270 C   0  0  0  0  0  1  0  0  0  0  0  0
  186.4300  177.5400  145.4110 C   0  0  0  0  0  3  0  0  0  0  0  0
  188.1130  178.1980  140.7510 C   0  0  0  0  0  2  0  0  0  0  0  0
  1  3  1  0  0  0  0
  1 17  1  1  0  0  0
  2  4  1  0  0  0  0
  3  6  1  0  0  0  0
  5  3  2  0  0  0  0
  5  2  1  0  0  0  0
  6  4  2  0  0  0  0
  7  1  1  0  0  0  0
  8  7  1  0  0  0  0
  9  7  2  0  0  0  0
 10  8  1  0  0  0  0
 11 14  1  0  0  0  0
 12 10  1  0  0  0  0
 13 14  1  0  0  0  0
 14 10  2  0  0  0  0
 15 11  1  0  0  0  0
 16 11  1  0  0  0  0
 16 12  1  0  0  0  0
 18 27  1  0  0  0  0
 19 24  2  0  0  0  0
 20 17  1  1  0  0  0
 20 22  1  0  0  0  0
 21 26  1  0  0  0  0
 22 19  1  0  0  0  0
 22 18  2  0  0  0  0
 23 25  1  0  0  0  0
 24 21  1  0  0  0  0
 25 19  1  0  0  0  0
 27 21  2  0  0  0  0
 28 23  1  0  0  0  0
 28 20  1  0  0  0  0
M  END
>  <MODEL>
3

>  <REMARK>
 VINA RESULT:      -7.7      2.585      3.643
  Name = 
  5 active torsions:
  status: ('A' for Active; 'I' for Inactive)
    1  A    between atoms: C_1  and  C_27
    2  A    between atoms: N_2  and  C_3
    3  A    between atoms: C_10  and  C_17
    4  A    between atoms: C_16  and  C_27
    5  A    between atoms: C_17  and  C_27
                            x       y       z     vdW  Elec       q    Type
                         _______ _______ _______ _____ _____    ______ ____

>  <TORSDO>
F 5

$$$$
=
 OpenBabel11052413243D

 28 31  0  0  1  0  0  0  0  0999 V2000
  183.4900  177.9800  140.0280 C   0  0  1  0  0  3  0  0  0  0  0  0
  185.3530  177.5940  136.8950 C   0  0  0  0  0  2  0  0  0  0  0  0
  184.4470  177.9700  138.8720 C   0  0  0  0  0  0  0  0  0  0  0  0
  186.2900  178.3270  137.7990 C   0  0  0  0  0  3  0  0  0  0  0  0
  184.1810  177.4200  137.7350 N   0  0  0  0  0  0  0  0  0  0  0  0
  185.7440  178.5370  138.9470 N   0  0  0  0  0  0  0  0  0  0  0  0
  182.2350  177.2110  139.7260 C   0  0  0  0  0  0  0  0  0  0  0  0
  180.9800  177.8800  139.5520 N   0  0  0  0  0  2  0  0  0  0  0  0
  182.2570  175.9510  139.7240 O   0  0  0  0  0  0  0  0  0  0  0  0
  180.7960  179.2890  139.3670 C   0  0  0  0  0  0  0  0  0  0  0  0
  180.5360  181.2880  138.3020 N   0  0  0  0  0  0  0  0  0  0  0  0
  180.0470  180.3040  140.6260 S   0  0  0  0  0  0  0  0  0  0  0  0
  181.3150  179.2820  136.9330 C   0  0  0  0  0  1  0  0  0  0  0  0
  180.9390  179.9310  138.2250 C   0  0  0  0  0  0  0  0  0  0  0  0
  180.6360  182.2090  137.1830 C   0  0  0  0  0  1  0  0  0  0  0  0
  180.0210  181.7160  139.5360 N   0  0  0  0  0  2  0  0  0  0  0  0
  184.1410  177.4660  141.3150 C   0  0  0  0  0  2  0  0  0  0  0  0
  186.7410  177.8950  142.8220 C   0  0  0  0  0  3  0  0  0  0  0  0
  185.3070  178.3620  144.7240 C   0  0  0  0  0  0  0  0  0  0  0  0
  184.3570  178.5670  142.3620 C   0  0  2  0  0  3  0  0  0  0  0  0
  187.6130  177.7070  145.0720 C   0  0  0  0  0  0  0  0  0  0  0  0
  185.4790  178.2370  143.3270 C   0  0  0  0  0  0  0  0  0  0  0  0
  183.2390  179.6810  144.3460 C   0  0  0  0  0  2  0  0  0  0  0  0
  186.3680  178.0760  145.5860 C   0  0  0  0  0  3  0  0  0  0  0  0
  183.9890  178.7690  145.3070 C   0  0  0  0  0  2  0  0  0  0  0  0
  188.7390  177.4060  145.9930 C   0  0  0  0  0  1  0  0  0  0  0  0
  187.8030  177.6280  143.6910 C   0  0  0  0  0  3  0  0  0  0  0  0
  183.0270  178.9470  143.0310 C   0  0  0  0  0  2  0  0  0  0  0  0
  1 17  1  1  0  0  0
  2  5  1  0  0  0  0
  2  4  1  0  0  0  0
  3  6  1  0  0  0  0
  3  1  1  0  0  0  0
  4  6  2  0  0  0  0
  5  3  2  0  0  0  0
  7  1  1  0  0  0  0
  8  7  1  0  0  0  0
  9  7  2  0  0  0  0
 10  8  1  0  0  0  0
 10 12  1  0  0  0  0
 11 16  1  0  0  0  0
 13 14  1  0  0  0  0
 14 11  1  0  0  0  0
 14 10  2  0  0  0  0
 15 11  1  0  0  0  0
 16 12  1  0  0  0  0
 18 22  2  0  0  0  0
 18 27  1  0  0  0  0
 19 25  1  0  0  0  0
 19 24  2  0  0  0  0
 20 17  1  6  0  0  0
 20 28  1  0  0  0  0
 20 22  1  0  0  0  0
 21 24  1  0  0  0  0
 21 26  1  0  0  0  0
 22 19  1  0  0  0  0
 23 25  1  0  0  0  0
 27 21  2  0  0  0  0
 28 23  1  0  0  0  0
M  END
>  <MODEL>
4

>  <REMARK>
 VINA RESULT:      -7.4      4.093      6.956
  Name = 
  5 active torsions:
  status: ('A' for Active; 'I' for Inactive)
    1  A    between atoms: C_1  and  C_27
    2  A    between atoms: N_2  and  C_3
    3  A    between atoms: C_10  and  C_17
    4  A    between atoms: C_16  and  C_27
    5  A    between atoms: C_17  and  C_27
                            x       y       z     vdW  Elec       q    Type
                         _______ _______ _______ _____ _____    ______ ____

>  <TORSDO>
F 5

$$$$
=
 OpenBabel11052413243D

 28 31  0  0  1  0  0  0  0  0999 V2000
  185.7590  177.8750  141.9580 C   0  0  1  0  0  3  0  0  0  0  0  0
  182.3240  178.1600  140.7100 C   0  0  0  0  0  2  0  0  0  0  0  0
  184.2930  178.0730  141.7040 C   0  0  0  0  0  0  0  0  0  0  0  0
  182.2510  178.6470  142.1200 C   0  0  0  0  0  3  0  0  0  0  0  0
  183.7290  177.8200  140.5700 N   0  0  0  0  0  0  0  0  0  0  0  0
  183.4090  178.5890  142.6830 N   0  0  0  0  0  0  0  0  0  0  0  0
  186.5320  179.1550  141.8150 C   0  0  0  0  0  0  0  0  0  0  0  0
  187.8540  179.1640  141.2630 N   0  0  0  0  0  2  0  0  0  0  0  0
  186.0600  180.2280  142.2770 O   0  0  0  0  0  0  0  0  0  0  0  0
  188.4780  178.0860  140.5550 C   0  0  0  0  0  0  0  0  0  0  0  0
  189.0340  176.7000  138.8320 N   0  0  0  0  0  0  0  0  0  0  0  0
  190.0040  177.3590  141.1200 S   0  0  0  0  0  0  0  0  0  0  0  0
  187.0540  178.2780  138.5220 C   0  0  0  0  0  1  0  0  0  0  0  0
  188.1430  177.6750  139.3480 C   0  0  0  0  0  0  0  0  0  0  0  0
  188.8530  176.0680  137.5360 C   0  0  0  0  0  1  0  0  0  0  0  0
  190.1290  176.3650  139.6440 N   0  0  0  0  0  2  0  0  0  0  0  0
  186.0220  177.2360  143.3250 C   0  0  0  0  0  2  0  0  0  0  0  0
  188.8400  177.4960  144.4250 C   0  0  0  0  0  3  0  0  0  0  0  0
  187.7390  177.8580  146.5570 C   0  0  0  0  0  0  0  0  0  0  0  0
  186.4370  178.2540  144.3960 C   0  0  2  0  0  3  0  0  0  0  0  0
  190.0480  177.1270  146.4890 C   0  0  0  0  0  0  0  0  0  0  0  0
  187.6850  177.8300  145.1460 C   0  0  0  0  0  0  0  0  0  0  0  0
  185.6830  179.2480  146.6030 C   0  0  0  0  0  2  0  0  0  0  0  0
  188.9120  177.4870  147.2180 C   0  0  0  0  0  3  0  0  0  0  0  0
  186.5430  178.2520  147.3690 C   0  0  0  0  0  2  0  0  0  0  0  0
  191.2930  176.7360  147.1970 C   0  0  0  0  0  1  0  0  0  0  0  0
  190.0150  177.1440  145.0930 C   0  0  0  0  0  3  0  0  0  0  0  0
  185.2420  178.6150  145.2920 C   0  0  0  0  0  2  0  0  0  0  0  0
  1 17  1  1  0  0  0
  2  4  1  0  0  0  0
  3  1  1  0  0  0  0
  3  6  1  0  0  0  0
  4  6  2  0  0  0  0
  5  2  1  0  0  0  0
  5  3  2  0  0  0  0
  7  1  1  0  0  0  0
  7  9  2  0  0  0  0
  8  7  1  0  0  0  0
 10 12  1  0  0  0  0
 10  8  1  0  0  0  0
 11 14  1  0  0  0  0
 11 16  1  0  0  0  0
 13 14  1  0  0  0  0
 14 10  2  0  0  0  0
 15 11  1  0  0  0  0
 16 12  1  0  0  0  0
 18 27  2  0  0  0  0
 18 22  1  0  0  0  0
 19 24  1  0  0  0  0
 19 25  1  0  0  0  0
 20 17  1  6  0  0  0
 20 22  1  0  0  0  0
 20 28  1  0  0  0  0
 21 26  1  0  0  0  0
 21 24  2  0  0  0  0
 22 19  2  0  0  0  0
 23 25  1  0  0  0  0
 27 21  1  0  0  0  0
 28 23  1  0  0  0  0
M  END
>  <MODEL>
5

>  <REMARK>
 VINA RESULT:      -7.3      2.278      4.180
  Name = 
  5 active torsions:
  status: ('A' for Active; 'I' for Inactive)
    1  A    between atoms: C_1  and  C_27
    2  A    between atoms: N_2  and  C_3
    3  A    between atoms: C_10  and  C_17
    4  A    between atoms: C_16  and  C_27
    5  A    between atoms: C_17  and  C_27
                            x       y       z     vdW  Elec       q    Type
                         _______ _______ _______ _____ _____    ______ ____

>  <TORSDO>
F 5

$$$$
=
 OpenBabel11052413243D

 28 31  0  0  1  0  0  0  0  0999 V2000
  184.8520  178.4560  140.1440 C   0  0  1  0  0  3  0  0  0  0  0  0
  181.3400  177.4700  140.5030 C   0  0  0  0  0  2  0  0  0  0  0  0
  183.4210  178.2040  140.5200 C   0  0  0  0  0  0  0  0  0  0  0  0
  181.5850  178.4010  141.6450 C   0  0  0  0  0  3  0  0  0  0  0  0
  182.6340  177.4360  139.8440 N   0  0  0  0  0  0  0  0  0  0  0  0
  182.8040  178.8190  141.6380 N   0  0  0  0  0  0  0  0  0  0  0  0
  184.9690  179.3940  138.9770 C   0  0  0  0  0  0  0  0  0  0  0  0
  185.8340  179.0990  137.8720 N   0  0  0  0  0  2  0  0  0  0  0  0
  184.3800  180.5070  139.0050 O   0  0  0  0  0  0  0  0  0  0  0  0
  186.4470  177.8330  137.5990 C   0  0  0  0  0  0  0  0  0  0  0  0
  188.0100  176.1730  137.5940 N   0  0  0  0  0  0  0  0  0  0  0  0
  185.4740  176.3850  137.2360 S   0  0  0  0  0  0  0  0  0  0  0  0
  188.7250  178.5040  138.3440 C   0  0  0  0  0  1  0  0  0  0  0  0
  187.7180  177.5460  137.7970 C   0  0  0  0  0  0  0  0  0  0  0  0
  189.3490  175.6230  137.7140 C   0  0  0  0  0  1  0  0  0  0  0  0
  186.9240  175.3460  137.2660 N   0  0  0  0  0  2  0  0  0  0  0  0
  185.6750  178.9660  141.3300 C   0  0  0  0  0  2  0  0  0  0  0  0
  185.0250  178.4030  144.2420 C   0  0  0  0  0  3  0  0  0  0  0  0
  187.4010  177.9560  144.4580 C   0  0  0  0  0  0  0  0  0  0  0  0
  186.3120  177.8370  142.1510 C   0  0  2  0  0  3  0  0  0  0  0  0
  186.0840  178.5110  146.4150 C   0  0  0  0  0  0  0  0  0  0  0  0
  186.2560  178.1020  143.6430 C   0  0  0  0  0  0  0  0  0  0  0  0
  188.5420  176.7290  142.6280 C   0  0  0  0  0  2  0  0  0  0  0  0
  187.3110  178.1820  145.8340 C   0  0  0  0  0  3  0  0  0  0  0  0
  188.7280  177.5910  143.8690 C   0  0  0  0  0  2  0  0  0  0  0  0
  185.9940  178.7490  147.8780 C   0  0  0  0  0  1  0  0  0  0  0  0
  184.9400  178.6100  145.6210 C   0  0  0  0  0  3  0  0  0  0  0  0
  187.7100  177.4970  141.6130 C   0  0  0  0  0  2  0  0  0  0  0  0
  1  3  1  0  0  0  0
  1 17  1  1  0  0  0
  2  4  1  0  0  0  0
  3  6  1  0  0  0  0
  5  2  1  0  0  0  0
  5  3  2  0  0  0  0
  6  4  2  0  0  0  0
  7  9  2  0  0  0  0
  7  1  1  0  0  0  0
  8  7  1  0  0  0  0
 10 14  2  0  0  0  0
 10  8  1  0  0  0  0
 11 15  1  0  0  0  0
 11 14  1  0  0  0  0
 12 16  1  0  0  0  0
 12 10  1  0  0  0  0
 14 13  1  0  0  0  0
 16 11  1  0  0  0  0
 18 27  1  0  0  0  0
 19 24  2  0  0  0  0
 20 17  1  6  0  0  0
 20 22  1  0  0  0  0
 21 26  1  0  0  0  0
 22 18  2  0  0  0  0
 22 19  1  0  0  0  0
 23 25  1  0  0  0  0
 24 21  1  0  0  0  0
 25 19  1  0  0  0  0
 27 21  2  0  0  0  0
 28 20  1  0  0  0  0
 28 23  1  0  0  0  0
M  END
>  <MODEL>
6

>  <REMARK>
 VINA RESULT:      -7.2      2.319      3.334
  Name = 
  5 active torsions:
  status: ('A' for Active; 'I' for Inactive)
    1  A    between atoms: C_1  and  C_27
    2  A    between atoms: N_2  and  C_3
    3  A    between atoms: C_10  and  C_17
    4  A    between atoms: C_16  and  C_27
    5  A    between atoms: C_17  and  C_27
                            x       y       z     vdW  Elec       q    Type
                         _______ _______ _______ _____ _____    ______ ____

>  <TORSDO>
F 5

$$$$
=
 OpenBabel11052413243D

 28 31  0  0  1  0  0  0  0  0999 V2000
  187.3040  177.9550  138.4510 C   0  0  1  0  0  3  0  0  0  0  0  0
  183.8820  178.8930  139.3740 C   0  0  0  0  0  2  0  0  0  0  0  0
  185.8300  178.1910  138.6090 C   0  0  0  0  0  0  0  0  0  0  0  0
  183.7170  177.9830  138.2020 C   0  0  0  0  0  3  0  0  0  0  0  0
  185.3260  178.9360  139.5340 N   0  0  0  0  0  0  0  0  0  0  0  0
  184.8630  177.5830  137.7690 N   0  0  0  0  0  0  0  0  0  0  0  0
  187.8250  178.5030  137.1530 C   0  0  0  0  0  0  0  0  0  0  0  0
  188.6390  177.7040  136.2850 N   0  0  0  0  0  2  0  0  0  0  0  0
  187.6350  179.7140  136.8620 O   0  0  0  0  0  0  0  0  0  0  0  0
  188.8240  176.2860  136.3750 C   0  0  0  0  0  0  0  0  0  0  0  0
  189.8670  174.2840  136.6910 N   0  0  0  0  0  0  0  0  0  0  0  0
  187.4610  175.1880  136.7080 S   0  0  0  0  0  0  0  0  0  0  0  0
  191.3100  176.3730  136.4480 C   0  0  0  0  0  1  0  0  0  0  0  0
  189.9900  175.6750  136.4460 C   0  0  0  0  0  0  0  0  0  0  0  0
  191.0100  173.3910  136.7730 C   0  0  0  0  0  1  0  0  0  0  0  0
  188.5620  173.7930  136.8590 N   0  0  0  0  0  2  0  0  0  0  0  0
  188.1030  178.5130  139.6320 C   0  0  0  0  0  2  0  0  0  0  0  0
  187.6400  177.4240  142.4280 C   0  0  0  0  0  3  0  0  0  0  0  0
  190.0570  177.5170  142.6270 C   0  0  0  0  0  0  0  0  0  0  0  0
  188.9960  177.4620  140.3040 C   0  0  2  0  0  3  0  0  0  0  0  0
  188.6730  177.4790  144.6160 C   0  0  0  0  0  0  0  0  0  0  0  0
  188.9000  177.5010  141.8180 C   0  0  0  0  0  0  0  0  0  0  0  0
  191.4290  176.8490  140.6700 C   0  0  0  0  0  2  0  0  0  0  0  0
  189.9350  177.5270  144.0190 C   0  0  0  0  0  3  0  0  0  0  0  0
  191.4260  177.5540  142.0200 C   0  0  0  0  0  2  0  0  0  0  0  0
  188.5500  177.4880  146.0960 C   0  0  0  0  0  1  0  0  0  0  0  0
  187.5270  177.4160  143.8200 C   0  0  0  0  0  3  0  0  0  0  0  0
  190.4280  177.5340  139.7520 C   0  0  0  0  0  2  0  0  0  0  0  0
  1  3  1  0  0  0  0
  1 17  1  1  0  0  0
  2  5  1  0  0  0  0
  3  5  2  0  0  0  0
  4  2  1  0  0  0  0
  6  4  2  0  0  0  0
  6  3  1  0  0  0  0
  7  1  1  0  0  0  0
  8 10  1  0  0  0  0
  8  7  1  0  0  0  0
  9  7  2  0  0  0  0
 10 14  2  0  0  0  0
 10 12  1  0  0  0  0
 11 15  1  0  0  0  0
 11 16  1  0  0  0  0
 12 16  1  0  0  0  0
 14 13  1  0  0  0  0
 14 11  1  0  0  0  0
 18 27  1  0  0  0  0
 19 24  2  0  0  0  0
 20 17  1  6  0  0  0
 20 22  1  0  0  0  0
 21 26  1  0  0  0  0
 22 18  2  0  0  0  0
 22 19  1  0  0  0  0
 23 25  1  0  0  0  0
 24 21  1  0  0  0  0
 25 19  1  0  0  0  0
 27 21  2  0  0  0  0
 28 20  1  0  0  0  0
 28 23  1  0  0  0  0
M  END
>  <MODEL>
7

>  <REMARK>
 VINA RESULT:      -6.9      1.472      1.909
  Name = 
  5 active torsions:
  status: ('A' for Active; 'I' for Inactive)
    1  A    between atoms: C_1  and  C_27
    2  A    between atoms: N_2  and  C_3
    3  A    between atoms: C_10  and  C_17
    4  A    between atoms: C_16  and  C_27
    5  A    between atoms: C_17  and  C_27
                            x       y       z     vdW  Elec       q    Type
                         _______ _______ _______ _____ _____    ______ ____

>  <TORSDO>
F 5

$$$$
=
 OpenBabel11052413243D

 28 31  0  0  1  0  0  0  0  0999 V2000
  183.6590  177.8430  139.1420 C   0  0  1  0  0  3  0  0  0  0  0  0
  180.0750  178.0960  138.4120 C   0  0  0  0  0  2  0  0  0  0  0  0
  182.2720  178.1070  138.6340 C   0  0  0  0  0  0  0  0  0  0  0  0
  180.7370  178.8540  137.3070 C   0  0  0  0  0  3  0  0  0  0  0  0
  181.2080  177.6560  139.2080 N   0  0  0  0  0  0  0  0  0  0  0  0
  182.0170  178.8490  137.4540 N   0  0  0  0  0  0  0  0  0  0  0  0
  184.5470  179.0460  139.0030 C   0  0  0  0  0  0  0  0  0  0  0  0
  185.8430  178.9450  138.4010 N   0  0  0  0  0  2  0  0  0  0  0  0
  184.1980  180.1450  139.5110 O   0  0  0  0  0  0  0  0  0  0  0  0
  186.3330  177.8340  137.6400 C   0  0  0  0  0  0  0  0  0  0  0  0
  187.5930  176.0180  137.0800 N   0  0  0  0  0  0  0  0  0  0  0  0
  185.3200  177.0220  136.4190 S   0  0  0  0  0  0  0  0  0  0  0  0
  188.3680  177.4720  139.0270 C   0  0  0  0  0  1  0  0  0  0  0  0
  187.4420  177.1690  137.8950 C   0  0  0  0  0  0  0  0  0  0  0  0
  188.7530  175.1470  137.1480 C   0  0  0  0  0  1  0  0  0  0  0  0
  186.5460  175.7480  136.1840 N   0  0  0  0  0  2  0  0  0  0  0  0
  183.6530  177.3400  140.5890 C   0  0  0  0  0  2  0  0  0  0  0  0
  186.1820  177.9580  142.1510 C   0  0  0  0  0  3  0  0  0  0  0  0
  184.6730  178.3680  144.0070 C   0  0  0  0  0  0  0  0  0  0  0  0
  183.7730  178.4710  141.6190 C   0  0  2  0  0  3  0  0  0  0  0  0
  187.0050  177.8650  144.4250 C   0  0  0  0  0  0  0  0  0  0  0  0
  184.8880  178.2290  142.6180 C   0  0  0  0  0  0  0  0  0  0  0  0
  182.5370  179.5470  143.5530 C   0  0  0  0  0  2  0  0  0  0  0  0
  185.7270  178.1640  144.9010 C   0  0  0  0  0  3  0  0  0  0  0  0
  183.3170  178.7010  144.5500 C   0  0  0  0  0  2  0  0  0  0  0  0
  188.1230  177.6510  145.3790 C   0  0  0  0  0  1  0  0  0  0  0  0
  187.2350  177.7740  143.0500 C   0  0  0  0  0  3  0  0  0  0  0  0
  182.4050  178.7780  142.2480 C   0  0  0  0  0  2  0  0  0  0  0  0
  1 17  1  1  0  0  0
  2  5  1  0  0  0  0
  3  1  1  0  0  0  0
  3  5  2  0  0  0  0
  4  6  2  0  0  0  0
  4  2  1  0  0  0  0
  6  3  1  0  0  0  0
  7  1  1  0  0  0  0
  7  9  2  0  0  0  0
  8  7  1  0  0  0  0
 10 14  2  0  0  0  0
 10  8  1  0  0  0  0
 11 15  1  0  0  0  0
 11 14  1  0  0  0  0
 12 10  1  0  0  0  0
 14 13  1  0  0  0  0
 16 12  1  0  0  0  0
 16 11  1  0  0  0  0
 18 22  2  0  0  0  0
 18 27  1  0  0  0  0
 19 25  1  0  0  0  0
 19 24  2  0  0  0  0
 20 17  1  1  0  0  0
 20 28  1  0  0  0  0
 20 22  1  0  0  0  0
 21 24  1  0  0  0  0
 21 26  1  0  0  0  0
 22 19  1  0  0  0  0
 23 25  1  0  0  0  0
 27 21  2  0  0  0  0
 28 23  1  0  0  0  0
M  END
>  <MODEL>
8

>  <REMARK>
 VINA RESULT:      -6.8      2.834      4.528
  Name = 
  5 active torsions:
  status: ('A' for Active; 'I' for Inactive)
    1  A    between atoms: C_1  and  C_27
    2  A    between atoms: N_2  and  C_3
    3  A    between atoms: C_10  and  C_17
    4  A    between atoms: C_16  and  C_27
    5  A    between atoms: C_17  and  C_27
                            x       y       z     vdW  Elec       q    Type
                         _______ _______ _______ _____ _____    ______ ____

>  <TORSDO>
F 5

$$$$
=
 OpenBabel11052413243D

 28 31  0  0  1  0  0  0  0  0999 V2000
  183.4890  177.4600  138.9700 C   0  0  1  0  0  3  0  0  0  0  0  0
  180.4740  176.3380  137.2110 C   0  0  0  0  0  2  0  0  0  0  0  0
  182.3590  177.1380  138.0350 C   0  0  0  0  0  0  0  0  0  0  0  0
  181.2650  177.0640  136.1720 C   0  0  0  0  0  3  0  0  0  0  0  0
  181.3180  176.4620  138.3870 N   0  0  0  0  0  0  0  0  0  0  0  0
  182.3610  177.5230  136.6710 N   0  0  0  0  0  0  0  0  0  0  0  0
  183.9610  178.8770  138.8140 C   0  0  0  0  0  0  0  0  0  0  0  0
  185.3560  179.2020  138.8480 N   0  0  0  0  0  2  0  0  0  0  0  0
  183.1210  179.8150  138.7530 O   0  0  0  0  0  0  0  0  0  0  0  0
  186.4390  178.2680  138.7530 C   0  0  0  0  0  0  0  0  0  0  0  0
  187.9650  176.8550  137.8200 N   0  0  0  0  0  0  0  0  0  0  0  0
  187.6920  178.1640  140.0160 S   0  0  0  0  0  0  0  0  0  0  0  0
  186.0210  177.6560  136.3770 C   0  0  0  0  0  1  0  0  0  0  0  0
  186.7520  177.5740  137.6770 C   0  0  0  0  0  0  0  0  0  0  0  0
  188.4980  175.9860  136.7840 C   0  0  0  0  0  1  0  0  0  0  0  0
  188.6500  177.0220  139.0350 N   0  0  0  0  0  2  0  0  0  0  0  0
  183.1260  177.1690  140.4290 C   0  0  0  0  0  2  0  0  0  0  0  0
  184.8740  178.4480  142.5560 C   0  0  0  0  0  3  0  0  0  0  0  0
  182.7870  178.8120  143.7410 C   0  0  0  0  0  0  0  0  0  0  0  0
  182.7400  178.4290  141.2160 C   0  0  2  0  0  3  0  0  0  0  0  0
  184.8870  178.8120  144.9490 C   0  0  0  0  0  0  0  0  0  0  0  0
  183.4750  178.5340  142.5390 C   0  0  0  0  0  0  0  0  0  0  0  0
  180.7940  179.5030  142.4340 C   0  0  0  0  0  2  0  0  0  0  0  0
  183.4950  178.9290  144.9390 C   0  0  0  0  0  3  0  0  0  0  0  0
  181.2960  178.9570  143.7630 C   0  0  0  0  0  2  0  0  0  0  0  0
  185.6360  178.9380  146.2250 C   0  0  0  0  0  1  0  0  0  0  0  0
  185.5770  178.5830  143.7560 C   0  0  0  0  0  3  0  0  0  0  0  0
  181.2130  178.5570  141.3190 C   0  0  0  0  0  2  0  0  0  0  0  0
  1 17  1  1  0  0  0
  2  5  1  0  0  0  0
  3  5  2  0  0  0  0
  3  1  1  0  0  0  0
  4  6  2  0  0  0  0
  4  2  1  0  0  0  0
  6  3  1  0  0  0  0
  7  8  1  0  0  0  0
  7  1  1  0  0  0  0
  9  7  2  0  0  0  0
 10  8  1  0  0  0  0
 10 12  1  0  0  0  0
 11 16  1  0  0  0  0
 13 14  1  0  0  0  0
 14 11  1  0  0  0  0
 14 10  2  0  0  0  0
 15 11  1  0  0  0  0
 16 12  1  0  0  0  0
 18 27  1  0  0  0  0
 19 25  1  0  0  0  0
 19 24  2  0  0  0  0
 20 17  1  1  0  0  0
 20 28  1  0  0  0  0
 20 22  1  0  0  0  0
 21 26  1  0  0  0  0
 22 18  2  0  0  0  0
 22 19  1  0  0  0  0
 23 25  1  0  0  0  0
 24 21  1  0  0  0  0
 27 21  2  0  0  0  0
 28 23  1  0  0  0  0
M  END
>  <MODEL>
9

>  <REMARK>
 VINA RESULT:      -6.8      3.100      5.111
  Name = 
  5 active torsions:
  status: ('A' for Active; 'I' for Inactive)
    1  A    between atoms: C_1  and  C_27
    2  A    between atoms: N_2  and  C_3
    3  A    between atoms: C_10  and  C_17
    4  A    between atoms: C_16  and  C_27
    5  A    between atoms: C_17  and  C_27
                            x       y       z     vdW  Elec       q    Type
                         _______ _______ _______ _____ _____    ______ ____

>  <TORSDO>
F 5

$$$$
