=
 OpenBabel11052414163D

 34 39  0  0  1  0  0  0  0  0999 V2000
  188.0200  177.3650  145.2660 C   0  0  0  0  0  0  0  0  0  0  0  0
  189.8900  176.9930  143.5990 C   0  0  2  0  0  3  0  0  0  0  0  0
  187.5510  177.8470  142.9090 C   0  0  0  0  0  0  0  0  0  0  0  0
  187.0090  178.5090  140.6580 N   0  0  1  0  0  0  0  0  0  0  0  0
  190.3480  177.5160  146.0530 C   0  0  0  0  0  2  0  0  0  0  0  0
  190.8250  176.7960  144.8020 C   0  0  0  0  0  2  0  0  0  0  0  0
  189.2000  177.8270  141.0310 N   0  0  0  0  0  0  0  0  0  0  0  0
  188.4620  177.4190  143.9240 C   0  0  0  0  0  0  0  0  0  0  0  0
  187.6930  178.4550  139.4740 O   0  0  0  0  0  0  0  0  0  0  0  0
  188.9530  177.0220  146.3830 C   0  0  0  0  0  2  0  0  0  0  0  0
  186.1800  178.0860  143.2510 C   0  0  0  0  0  0  0  0  0  0  0  0
  186.6940  177.6250  145.5840 C   0  0  0  0  0  3  0  0  0  0  0  0
  189.8650  175.8030  142.8700 O   0  0  0  0  0  1  0  0  0  0  0  0
  185.5740  178.4050  140.8310 C   0  0  0  0  0  2  0  0  0  0  0  0
  185.2390  178.3980  142.3050 C   0  0  1  0  0  3  0  0  0  0  0  0
  189.0000  178.0700  139.7710 C   0  0  0  0  0  0  0  0  0  0  0  0
  187.9260  178.0670  141.6310 C   0  0  2  0  0  3  0  0  0  0  0  0
  185.7880  177.9630  144.5900 C   0  0  0  0  0  3  0  0  0  0  0  0
  181.5020  178.8610  141.9800 C   0  0  0  0  0  0  0  0  0  0  0  0
  181.1380  179.0820  143.3110 C   0  0  0  0  0  3  0  0  0  0  0  0
  183.8230  178.6340  142.6500 C   0  0  0  0  0  0  0  0  0  0  0  0
  182.1110  179.0750  144.3120 C   0  0  0  0  0  3  0  0  0  0  0  0
  182.8410  178.6370  141.6490 C   0  0  0  0  0  3  0  0  0  0  0  0
  183.4530  178.8520  143.9840 C   0  0  0  0  0  3  0  0  0  0  0  0
  180.2810  178.8650  140.7270 Cl  0  0  0  0  0  0  0  0  0  0  0  0
  190.7210  176.8370  138.6920 C   0  0  0  0  0  3  0  0  0  0  0  0
  190.0290  177.9230  138.7920 N   0  0  0  0  0  0  0  0  0  0  0  0
  193.5590  177.1040  139.3530 N   0  0  0  0  0  1  0  0  0  0  0  0
  191.8050  176.7520  137.6740 C   0  0  1  0  0  3  0  0  0  0  0  0
  193.1040  176.2150  138.2990 C   0  0  1  0  0  3  0  0  0  0  0  0
  193.7410  175.1500  136.2630 C   0  0  0  0  0  2  0  0  0  0  0  0
  192.5060  175.6700  135.5290 C   0  0  0  0  0  2  0  0  0  0  0  0
  191.3640  175.8410  136.5270 C   0  0  0  0  0  2  0  0  0  0  0  0
  194.1560  176.1060  137.2870 N   0  0  0  0  0  2  0  0  0  0  0  0
  1 12  1  0  0  0  0
  1 10  1  0  0  0  0
  2 13  1  1  0  0  0
  2  8  1  0  0  0  0
  2  6  1  0  0  0  0
  3 11  2  0  0  0  0
  3  8  1  0  0  0  0
  4 14  1  6  0  0  0
  4 17  1  0  0  0  0
  5 10  1  0  0  0  0
  6  5  1  0  0  0  0
  8  1  2  0  0  0  0
  9 16  1  0  0  0  0
  9  4  1  0  0  0  0
 11 18  1  0  0  0  0
 14 15  1  0  0  0  0
 15 21  1  6  0  0  0
 15 11  1  0  0  0  0
 16  7  2  0  0  0  0
 17  7  1  6  0  0  0
 17  3  1  0  0  0  0
 18 12  2  0  0  0  0
 19 20  1  0  0  0  0
 20 22  2  0  0  0  0
 21 24  2  0  0  0  0
 23 19  2  0  0  0  0
 23 21  1  0  0  0  0
 24 22  1  0  0  0  0
 25 19  1  0  0  0  0
 26 27  2  0  0  0  0
 27 16  1  0  0  0  0
 29 30  1  0  0  0  0
 29 26  1  1  0  0  0
 30 28  1  1  0  0  0
 31 34  1  0  0  0  0
 32 31  1  0  0  0  0
 32 33  1  0  0  0  0
 33 29  1  0  0  0  0
 34 30  1  0  0  0  0
M  END
>  <MODEL>
1

>  <REMARK>
 VINA RESULT:     -11.9      0.000      0.000
  Name = 
  3 active torsions:
  status: ('A' for Active; 'I' for Inactive)
    1  A    between atoms: C_3  and  C_13
    2  A    between atoms: C_12  and  C_28
    3  A    between atoms: N_17  and  C_29
                            x       y       z     vdW  Elec       q    Type
                         _______ _______ _______ _____ _____    ______ ____

>  <TORSDO>
F 3

$$$$
=
 OpenBabel11052414163D

 34 39  0  0  1  0  0  0  0  0999 V2000
  186.7880  177.7450  145.7020 C   0  0  0  0  0  0  0  0  0  0  0  0
  188.8300  177.4130  144.2420 C   0  0  2  0  0  3  0  0  0  0  0  0
  186.5410  178.1500  143.2980 C   0  0  0  0  0  0  0  0  0  0  0  0
  186.2020  178.7330  140.9860 N   0  0  1  0  0  0  0  0  0  0  0  0
  189.0160  178.0140  146.7130 C   0  0  0  0  0  2  0  0  0  0  0  0
  189.6460  177.2860  145.5370 C   0  0  0  0  0  2  0  0  0  0  0  0
  188.3700  178.1540  141.5950 N   0  0  0  0  0  0  0  0  0  0  0  0
  187.3600  177.7850  144.4100 C   0  0  0  0  0  0  0  0  0  0  0  0
  187.0040  178.6790  139.8780 O   0  0  0  0  0  0  0  0  0  0  0  0
  187.6160  177.4690  146.9160 C   0  0  0  0  0  2  0  0  0  0  0  0
  185.1330  178.3380  143.4940 C   0  0  0  0  0  0  0  0  0  0  0  0
  185.4270  177.9560  145.8790 C   0  0  0  0  0  3  0  0  0  0  0  0
  188.9270  176.2060  143.5480 O   0  0  0  0  0  1  0  0  0  0  0  0
  184.7630  178.5720  141.0170 C   0  0  0  0  0  2  0  0  0  0  0  0
  184.2810  178.5860  142.4500 C   0  0  1  0  0  3  0  0  0  0  0  0
  188.2890  178.3580  140.3150 C   0  0  0  0  0  0  0  0  0  0  0  0
  187.0330  178.3550  142.0580 C   0  0  2  0  0  3  0  0  0  0  0  0
  184.6130  178.2300  144.7910 C   0  0  0  0  0  3  0  0  0  0  0  0
  180.6090  179.1160  141.7310 C   0  0  0  0  0  0  0  0  0  0  0  0
  180.0750  179.1160  143.0220 C   0  0  0  0  0  3  0  0  0  0  0  0
  182.8290  178.7690  142.6450 C   0  0  0  0  0  0  0  0  0  0  0  0
  180.9120  178.9390  144.1250 C   0  0  0  0  0  3  0  0  0  0  0  0
  181.9820  178.9430  141.5420 C   0  0  0  0  0  3  0  0  0  0  0  0
  182.2890  178.7660  143.9380 C   0  0  0  0  0  3  0  0  0  0  0  0
  179.5570  179.3340  140.3490 Cl  0  0  0  0  0  0  0  0  0  0  0  0
  189.8100  177.0820  139.0100 C   0  0  0  0  0  3  0  0  0  0  0  0
  189.4160  178.2320  139.4480 N   0  0  0  0  0  0  0  0  0  0  0  0
  192.5380  177.4120  140.0140 N   0  0  0  0  0  1  0  0  0  0  0  0
  191.0130  177.0070  138.1350 C   0  0  1  0  0  3  0  0  0  0  0  0
  192.2340  176.5030  138.9230 C   0  0  1  0  0  3  0  0  0  0  0  0
  193.1380  175.4270  136.9970 C   0  0  0  0  0  2  0  0  0  0  0  0
  191.9950  175.9140  136.1090 C   0  0  0  0  0  2  0  0  0  0  0  0
  190.7350  176.0750  136.9550 C   0  0  0  0  0  2  0  0  0  0  0  0
  193.4050  176.4030  138.0510 N   0  0  0  0  0  2  0  0  0  0  0  0
  1 12  1  0  0  0  0
  1 10  1  0  0  0  0
  2 13  1  1  0  0  0
  2  8  1  0  0  0  0
  2  6  1  0  0  0  0
  3 11  2  0  0  0  0
  3  8  1  0  0  0  0
  4 14  1  6  0  0  0
  4 17  1  0  0  0  0
  5 10  1  0  0  0  0
  6  5  1  0  0  0  0
  8  1  2  0  0  0  0
  9 16  1  0  0  0  0
  9  4  1  0  0  0  0
 11 18  1  0  0  0  0
 14 15  1  0  0  0  0
 15 21  1  6  0  0  0
 15 11  1  0  0  0  0
 16  7  2  0  0  0  0
 17  7  1  6  0  0  0
 17  3  1  0  0  0  0
 18 12  2  0  0  0  0
 19 20  1  0  0  0  0
 20 22  2  0  0  0  0
 21 24  2  0  0  0  0
 23 19  2  0  0  0  0
 23 21  1  0  0  0  0
 24 22  1  0  0  0  0
 25 19  1  0  0  0  0
 26 27  2  0  0  0  0
 27 16  1  0  0  0  0
 29 30  1  0  0  0  0
 29 26  1  1  0  0  0
 30 28  1  1  0  0  0
 31 34  1  0  0  0  0
 32 33  1  0  0  0  0
 32 31  1  0  0  0  0
 33 29  1  0  0  0  0
 34 30  1  0  0  0  0
M  END
>  <MODEL>
2

>  <REMARK>
 VINA RESULT:     -11.3      0.962      1.117
  Name = 
  3 active torsions:
  status: ('A' for Active; 'I' for Inactive)
    1  A    between atoms: C_3  and  C_13
    2  A    between atoms: C_12  and  C_28
    3  A    between atoms: N_17  and  C_29
                            x       y       z     vdW  Elec       q    Type
                         _______ _______ _______ _____ _____    ______ ____

>  <TORSDO>
F 3

$$$$
=
 OpenBabel11052414163D

 34 39  0  0  1  0  0  0  0  0999 V2000
  189.0030  177.0870  145.3740 C   0  0  0  0  0  0  0  0  0  0  0  0
  190.7400  176.4250  143.6530 C   0  0  2  0  0  3  0  0  0  0  0  0
  188.4550  177.4460  143.0120 C   0  0  0  0  0  0  0  0  0  0  0  0
  187.8540  177.9990  140.7470 N   0  0  1  0  0  0  0  0  0  0  0  0
  191.3730  177.0710  146.0380 C   0  0  0  0  0  2  0  0  0  0  0  0
  191.7160  176.2250  144.8230 C   0  0  0  0  0  2  0  0  0  0  0  0
  189.9920  177.1400  141.0660 N   0  0  0  0  0  0  0  0  0  0  0  0
  189.3750  177.0050  144.0130 C   0  0  0  0  0  0  0  0  0  0  0  0
  188.4670  177.7980  139.5390 O   0  0  0  0  0  0  0  0  0  0  0  0
  189.9590  176.7350  146.4680 C   0  0  0  0  0  2  0  0  0  0  0  0
  187.1300  177.8360  143.3990 C   0  0  0  0  0  0  0  0  0  0  0  0
  187.7240  177.4920  145.7340 C   0  0  0  0  0  3  0  0  0  0  0  0
  190.5680  175.1950  143.0170 O   0  0  0  0  0  1  0  0  0  0  0  0
  186.4280  178.0420  140.9930 C   0  0  0  0  0  2  0  0  0  0  0  0
  186.1730  178.1690  142.4780 C   0  0  1  0  0  3  0  0  0  0  0  0
  189.7480  177.3130  139.8020 C   0  0  0  0  0  0  0  0  0  0  0  0
  188.7790  177.5410  141.7050 C   0  0  2  0  0  3  0  0  0  0  0  0
  186.8010  177.8440  144.7610 C   0  0  0  0  0  3  0  0  0  0  0  0
  182.4470  178.7870  142.3440 C   0  0  0  0  0  0  0  0  0  0  0  0
  182.2100  179.3050  143.6210 C   0  0  0  0  0  3  0  0  0  0  0  0
  184.8040  178.5600  142.8700 C   0  0  0  0  0  0  0  0  0  0  0  0
  183.2650  179.4470  144.5240 C   0  0  0  0  0  3  0  0  0  0  0  0
  183.7400  178.4150  141.9690 C   0  0  0  0  0  3  0  0  0  0  0  0
  184.5620  179.0760  144.1500 C   0  0  0  0  0  3  0  0  0  0  0  0
  181.1220  178.6050  141.2150 Cl  0  0  0  0  0  0  0  0  0  0  0  0
  190.8920  175.7910  138.3810 C   0  0  0  0  0  3  0  0  0  0  0  0
  190.7050  177.0020  138.7900 N   0  0  0  0  0  0  0  0  0  0  0  0
  190.2610  174.7310  135.7290 N   0  0  0  0  0  1  0  0  0  0  0  0
  191.9290  175.5210  137.3450 C   0  0  1  0  0  3  0  0  0  0  0  0
  191.3440  175.6760  135.9310 C   0  0  1  0  0  3  0  0  0  0  0  0
  193.4300  176.4380  135.0630 C   0  0  0  0  0  2  0  0  0  0  0  0
  194.1250  176.2760  136.4130 C   0  0  0  0  0  2  0  0  0  0  0  0
  193.1050  176.4800  137.5300 C   0  0  0  0  0  2  0  0  0  0  0  0
  192.3740  175.4380  134.9190 N   0  0  0  0  0  2  0  0  0  0  0  0
  1 12  1  0  0  0  0
  1 10  1  0  0  0  0
  2 13  1  1  0  0  0
  2  8  1  0  0  0  0
  2  6  1  0  0  0  0
  3 11  2  0  0  0  0
  3  8  1  0  0  0  0
  4 14  1  6  0  0  0
  4 17  1  0  0  0  0
  5 10  1  0  0  0  0
  6  5  1  0  0  0  0
  8  1  2  0  0  0  0
  9 16  1  0  0  0  0
  9  4  1  0  0  0  0
 11 18  1  0  0  0  0
 14 15  1  0  0  0  0
 15 21  1  1  0  0  0
 15 11  1  0  0  0  0
 16  7  2  0  0  0  0
 17  7  1  6  0  0  0
 17  3  1  0  0  0  0
 18 12  2  0  0  0  0
 19 20  1  0  0  0  0
 20 22  2  0  0  0  0
 21 24  2  0  0  0  0
 23 19  2  0  0  0  0
 23 21  1  0  0  0  0
 24 22  1  0  0  0  0
 25 19  1  0  0  0  0
 26 27  2  0  0  0  0
 27 16  1  0  0  0  0
 29 33  1  0  0  0  0
 29 26  1  1  0  0  0
 30 28  1  6  0  0  0
 30 29  1  0  0  0  0
 31 32  1  0  0  0  0
 32 33  1  0  0  0  0
 34 31  1  0  0  0  0
 34 30  1  0  0  0  0
M  END
>  <MODEL>
3

>  <REMARK>
 VINA RESULT:     -11.0      1.300      1.630
  Name = 
  3 active torsions:
  status: ('A' for Active; 'I' for Inactive)
    1  A    between atoms: C_3  and  C_13
    2  A    between atoms: C_12  and  C_28
    3  A    between atoms: N_17  and  C_29
                            x       y       z     vdW  Elec       q    Type
                         _______ _______ _______ _____ _____    ______ ____

>  <TORSDO>
F 3

$$$$
=
 OpenBabel11052414163D

 34 39  0  0  1  0  0  0  0  0999 V2000
  186.3240  178.3900  140.3280 C   0  0  0  0  0  0  0  0  0  0  0  0
  188.1650  178.2630  138.5940 C   0  0  2  0  0  3  0  0  0  0  0  0
  188.5790  177.8330  141.1070 C   0  0  0  0  0  0  0  0  0  0  0  0
  190.7070  177.1220  141.9830 N   0  0  1  0  0  0  0  0  0  0  0  0
  185.7190  177.8480  138.0040 C   0  0  0  0  0  2  0  0  0  0  0  0
  187.0650  178.3640  137.5250 C   0  0  0  0  0  2  0  0  0  0  0  0
  190.5800  177.3900  139.6760 N   0  0  0  0  0  0  0  0  0  0  0  0
  187.6860  178.1510  140.0380 C   0  0  0  0  0  0  0  0  0  0  0  0
  191.9440  176.9530  141.4190 O   0  0  0  0  0  0  0  0  0  0  0  0
  185.3230  178.6280  139.2430 C   0  0  0  0  0  2  0  0  0  0  0  0
  188.1060  177.8930  142.4590 C   0  0  0  0  0  0  0  0  0  0  0  0
  185.8750  178.4190  141.6420 C   0  0  0  0  0  3  0  0  0  0  0  0
  188.9960  179.3780  138.4660 O   0  0  0  0  0  1  0  0  0  0  0  0
  190.4290  177.5170  143.3480 C   0  0  0  0  0  2  0  0  0  0  0  0
  188.9390  177.7000  143.5300 C   0  0  1  0  0  3  0  0  0  0  0  0
  191.7910  177.0960  140.0400 C   0  0  0  0  0  0  0  0  0  0  0  0
  189.8580  177.4480  140.9080 C   0  0  2  0  0  3  0  0  0  0  0  0
  186.7560  178.1900  142.6880 C   0  0  0  0  0  3  0  0  0  0  0  0
  186.6460  178.0230  146.5170 C   0  0  0  0  0  0  0  0  0  0  0  0
  187.5550  177.9090  147.5720 C   0  0  0  0  0  3  0  0  0  0  0  0
  188.4590  177.7720  144.9240 C   0  0  0  0  0  0  0  0  0  0  0  0
  188.9130  177.7220  147.3080 C   0  0  0  0  0  3  0  0  0  0  0  0
  187.0960  177.9550  145.1960 C   0  0  0  0  0  3  0  0  0  0  0  0
  189.3670  177.6550  145.9850 C   0  0  0  0  0  3  0  0  0  0  0  0
  184.9430  178.2520  146.8500 Cl  0  0  0  0  0  0  0  0  0  0  0  0
  192.7750  176.1820  138.0810 C   0  0  0  0  0  3  0  0  0  0  0  0
  192.8600  176.9660  139.1040 N   0  0  0  0  0  0  0  0  0  0  0  0
  195.2850  174.8780  138.8270 N   0  0  0  0  0  1  0  0  0  0  0  0
  193.9350  176.0600  137.1540 C   0  0  1  0  0  3  0  0  0  0  0  0
  194.7630  174.8050  137.4740 C   0  0  1  0  0  3  0  0  0  0  0  0
  195.3650  174.5170  135.1850 C   0  0  0  0  0  2  0  0  0  0  0  0
  194.6120  175.7770  134.7610 C   0  0  0  0  0  2  0  0  0  0  0  0
  193.4370  176.0010  135.7090 C   0  0  0  0  0  2  0  0  0  0  0  0
  195.8840  174.6750  136.5420 N   0  0  0  0  0  2  0  0  0  0  0  0
  1 12  1  0  0  0  0
  2 13  1  1  0  0  0
  2  8  1  0  0  0  0
  3 11  2  0  0  0  0
  4 14  1  1  0  0  0
  5 10  1  0  0  0  0
  6  5  1  0  0  0  0
  6  2  1  0  0  0  0
  7 16  2  0  0  0  0
  8  1  2  0  0  0  0
  8  3  1  0  0  0  0
  9  4  1  0  0  0  0
 10  1  1  0  0  0  0
 11 18  1  0  0  0  0
 11 15  1  0  0  0  0
 12 18  2  0  0  0  0
 14 15  1  0  0  0  0
 15 21  1  1  0  0  0
 16  9  1  0  0  0  0
 17  7  1  1  0  0  0
 17  3  1  0  0  0  0
 17  4  1  0  0  0  0
 19 25  1  0  0  0  0
 19 20  1  0  0  0  0
 21 23  1  0  0  0  0
 21 24  2  0  0  0  0
 22 20  2  0  0  0  0
 23 19  2  0  0  0  0
 24 22  1  0  0  0  0
 26 27  2  0  0  0  0
 27 16  1  0  0  0  0
 29 30  1  0  0  0  0
 29 26  1  1  0  0  0
 30 28  1  1  0  0  0
 31 34  1  0  0  0  0
 32 31  1  0  0  0  0
 32 33  1  0  0  0  0
 33 29  1  0  0  0  0
 34 30  1  0  0  0  0
M  END
>  <MODEL>
4

>  <REMARK>
 VINA RESULT:     -10.5      2.513      4.976
  Name = 
  3 active torsions:
  status: ('A' for Active; 'I' for Inactive)
    1  A    between atoms: C_3  and  C_13
    2  A    between atoms: C_12  and  C_28
    3  A    between atoms: N_17  and  C_29
                            x       y       z     vdW  Elec       q    Type
                         _______ _______ _______ _____ _____    ______ ____

>  <TORSDO>
F 3

$$$$
=
 OpenBabel11052414163D

 34 39  0  0  1  0  0  0  0  0999 V2000
  184.1360  178.6050  143.2350 C   0  0  0  0  0  0  0  0  0  0  0  0
  184.8160  178.6080  140.7960 C   0  0  2  0  0  3  0  0  0  0  0  0
  186.4740  178.0910  142.7090 C   0  0  0  0  0  0  0  0  0  0  0  0
  188.7530  177.4160  142.3230 N   0  0  1  0  0  0  0  0  0  0  0  0
  182.4210  178.1370  141.5330 C   0  0  0  0  0  2  0  0  0  0  0  0
  183.3220  178.7150  140.4550 C   0  0  0  0  0  2  0  0  0  0  0  0
  187.4490  177.7710  140.4300 N   0  0  0  0  0  0  0  0  0  0  0  0
  185.1540  178.4220  142.2720 C   0  0  0  0  0  0  0  0  0  0  0  0
  189.5210  177.3100  141.1950 O   0  0  0  0  0  0  0  0  0  0  0  0
  182.7170  178.8540  142.8360 C   0  0  0  0  0  2  0  0  0  0  0  0
  186.7670  178.0820  144.1120 C   0  0  0  0  0  0  0  0  0  0  0  0
  184.4310  178.5670  144.5910 C   0  0  0  0  0  3  0  0  0  0  0  0
  185.4540  179.7530  140.3140 O   0  0  0  0  0  1  0  0  0  0  0  0
  189.2170  177.7470  143.6540 C   0  0  0  0  0  2  0  0  0  0  0  0
  188.0350  177.8740  144.5880 C   0  0  1  0  0  3  0  0  0  0  0  0
  188.6770  177.5030  140.1020 C   0  0  0  0  0  0  0  0  0  0  0  0
  187.4680  177.7570  141.8590 C   0  0  2  0  0  3  0  0  0  0  0  0
  185.7280  178.3260  145.0200 C   0  0  0  0  0  3  0  0  0  0  0  0
  189.9190  177.5440  147.8480 C   0  0  0  0  0  0  0  0  0  0  0  0
  188.9260  177.8780  148.7720 C   0  0  0  0  0  3  0  0  0  0  0  0
  188.3450  177.8750  146.0320 C   0  0  0  0  0  0  0  0  0  0  0  0
  187.6450  178.2140  148.3310 C   0  0  0  0  0  3  0  0  0  0  0  0
  189.6310  177.5420  146.4810 C   0  0  0  0  0  3  0  0  0  0  0  0
  187.3520  178.2120  146.9610 C   0  0  0  0  0  3  0  0  0  0  0  0
  191.5260  177.1270  148.4020 Cl  0  0  0  0  0  0  0  0  0  0  0  0
  190.1480  176.7640  138.3880 C   0  0  0  0  0  3  0  0  0  0  0  0
  189.1080  177.4450  138.7430 N   0  0  0  0  0  0  0  0  0  0  0  0
  192.9480  176.6270  137.5530 N   0  0  0  0  0  1  0  0  0  0  0  0
  190.5710  176.7670  136.9600 C   0  0  1  0  0  3  0  0  0  0  0  0
  191.8920  176.0000  136.7790 C   0  0  1  0  0  3  0  0  0  0  0  0
  191.2680  175.2770  134.5940 C   0  0  0  0  0  2  0  0  0  0  0  0
  189.9470  176.0420  134.6470 C   0  0  0  0  0  2  0  0  0  0  0  0
  189.4790  176.1340  136.0970 C   0  0  0  0  0  2  0  0  0  0  0  0
  192.2880  175.9810  135.3700 N   0  0  0  0  0  2  0  0  0  0  0  0
  1 12  1  0  0  0  0
  2 13  1  1  0  0  0
  2  8  1  0  0  0  0
  3 11  2  0  0  0  0
  4 14  1  1  0  0  0
  5 10  1  0  0  0  0
  6  2  1  0  0  0  0
  6  5  1  0  0  0  0
  8  3  1  0  0  0  0
  8  1  2  0  0  0  0
  9  4  1  0  0  0  0
 10  1  1  0  0  0  0
 11 15  1  0  0  0  0
 11 18  1  0  0  0  0
 12 18  2  0  0  0  0
 14 15  1  0  0  0  0
 15 21  1  1  0  0  0
 16  7  2  0  0  0  0
 16  9  1  0  0  0  0
 17  7  1  6  0  0  0
 17  4  1  0  0  0  0
 17  3  1  0  0  0  0
 19 25  1  0  0  0  0
 19 20  1  0  0  0  0
 21 23  1  0  0  0  0
 21 24  2  0  0  0  0
 22 20  2  0  0  0  0
 23 19  2  0  0  0  0
 24 22  1  0  0  0  0
 26 27  2  0  0  0  0
 27 16  1  0  0  0  0
 29 26  1  1  0  0  0
 30 29  1  0  0  0  0
 30 28  1  1  0  0  0
 31 32  1  0  0  0  0
 31 34  1  0  0  0  0
 32 33  1  0  0  0  0
 33 29  1  0  0  0  0
 34 30  1  0  0  0  0
M  END
>  <MODEL>
5

>  <REMARK>
 VINA RESULT:     -10.2      2.762      5.410
  Name = 
  3 active torsions:
  status: ('A' for Active; 'I' for Inactive)
    1  A    between atoms: C_3  and  C_13
    2  A    between atoms: C_12  and  C_28
    3  A    between atoms: N_17  and  C_29
                            x       y       z     vdW  Elec       q    Type
                         _______ _______ _______ _____ _____    ______ ____

>  <TORSDO>
F 3

$$$$
=
 OpenBabel11052414163D

 34 39  0  0  1  0  0  0  0  0999 V2000
  190.1630  176.9230  140.4420 C   0  0  0  0  0  0  0  0  0  0  0  0
  188.4400  177.5470  138.6940 C   0  0  2  0  0  3  0  0  0  0  0  0
  188.0410  177.8640  141.2260 C   0  0  0  0  0  0  0  0  0  0  0  0
  186.0710  178.9210  142.1210 N   0  0  1  0  0  0  0  0  0  0  0  0
  190.9370  177.5040  138.1780 C   0  0  0  0  0  2  0  0  0  0  0  0
  189.5300  177.3060  137.6380 C   0  0  0  0  0  2  0  0  0  0  0  0
  186.2150  178.8060  139.8030 N   0  0  0  0  0  0  0  0  0  0  0  0
  188.8860  177.4530  140.1490 C   0  0  0  0  0  0  0  0  0  0  0  0
  184.9110  179.3780  141.5530 O   0  0  0  0  0  0  0  0  0  0  0  0
  191.1300  176.5700  139.3570 C   0  0  0  0  0  2  0  0  0  0  0  0
  188.4490  177.6100  142.5770 C   0  0  0  0  0  0  0  0  0  0  0  0
  190.5550  176.7070  141.7560 C   0  0  0  0  0  3  0  0  0  0  0  0
  187.4070  176.6350  138.4650 O   0  0  0  0  0  1  0  0  0  0  0  0
  186.2220  178.3780  143.4550 C   0  0  0  0  0  2  0  0  0  0  0  0
  187.6380  177.8860  143.6460 C   0  0  1  0  0  3  0  0  0  0  0  0
  185.0750  179.3090  140.1700 C   0  0  0  0  0  0  0  0  0  0  0  0
  186.8710  178.5120  141.0370 C   0  0  2  0  0  3  0  0  0  0  0  0
  189.7050  177.0300  142.8020 C   0  0  0  0  0  3  0  0  0  0  0  0
  189.7500  176.9610  146.6410 C   0  0  0  0  0  0  0  0  0  0  0  0
  188.8250  177.1020  147.6800 C   0  0  0  0  0  3  0  0  0  0  0  0
  188.0500  177.6150  145.0370 C   0  0  0  0  0  0  0  0  0  0  0  0
  187.5170  177.5040  147.4030 C   0  0  0  0  0  3  0  0  0  0  0  0
  189.3640  177.2160  145.3230 C   0  0  0  0  0  3  0  0  0  0  0  0
  187.1280  177.7590  146.0820 C   0  0  0  0  0  3  0  0  0  0  0  0
  191.3900  176.4630  146.9910 Cl  0  0  0  0  0  0  0  0  0  0  0  0
  182.8250  179.5290  139.4420 C   0  0  0  0  0  3  0  0  0  0  0  0
  184.0840  179.7220  139.2300 N   0  0  0  0  0  0  0  0  0  0  0  0
  180.4750  177.9350  138.7380 N   0  0  0  0  0  1  0  0  0  0  0  0
  181.8360  179.9500  138.4100 C   0  0  1  0  0  3  0  0  0  0  0  0
  180.4400  179.3870  138.7260 C   0  0  1  0  0  3  0  0  0  0  0  0
  179.3660  181.2850  137.7630 C   0  0  0  0  0  2  0  0  0  0  0  0
  180.6970  181.9160  137.3600 C   0  0  0  0  0  2  0  0  0  0  0  0
  181.7780  181.4770  138.3440 C   0  0  0  0  0  2  0  0  0  0  0  0
  179.4680  179.8280  137.7250 N   0  0  0  0  0  2  0  0  0  0  0  0
  1 12  1  0  0  0  0
  2 13  1  1  0  0  0
  2  8  1  0  0  0  0
  3 11  2  0  0  0  0
  4 14  1  1  0  0  0
  5 10  1  0  0  0  0
  6  5  1  0  0  0  0
  6  2  1  0  0  0  0
  7 16  2  0  0  0  0
  8  1  2  0  0  0  0
  8  3  1  0  0  0  0
  9  4  1  0  0  0  0
 10  1  1  0  0  0  0
 11 18  1  0  0  0  0
 11 15  1  0  0  0  0
 12 18  2  0  0  0  0
 14 15  1  0  0  0  0
 15 21  1  6  0  0  0
 16  9  1  0  0  0  0
 17  7  1  6  0  0  0
 17  3  1  0  0  0  0
 17  4  1  0  0  0  0
 19 25  1  0  0  0  0
 19 20  1  0  0  0  0
 21 23  1  0  0  0  0
 21 24  2  0  0  0  0
 22 20  2  0  0  0  0
 23 19  2  0  0  0  0
 24 22  1  0  0  0  0
 27 26  2  0  0  0  0
 27 16  1  0  0  0  0
 29 30  1  0  0  0  0
 29 26  1  1  0  0  0
 30 28  1  6  0  0  0
 32 31  1  0  0  0  0
 32 33  1  0  0  0  0
 33 29  1  0  0  0  0
 34 31  1  0  0  0  0
 34 30  1  0  0  0  0
M  END
>  <MODEL>
6

>  <REMARK>
 VINA RESULT:     -10.1      3.770      8.079
  Name = 
  3 active torsions:
  status: ('A' for Active; 'I' for Inactive)
    1  A    between atoms: C_3  and  C_13
    2  A    between atoms: C_12  and  C_28
    3  A    between atoms: N_17  and  C_29
                            x       y       z     vdW  Elec       q    Type
                         _______ _______ _______ _____ _____    ______ ____

>  <TORSDO>
F 3

$$$$
=
 OpenBabel11052414163D

 34 39  0  0  1  0  0  0  0  0999 V2000
  189.1770  177.0490  145.5670 C   0  0  0  0  0  0  0  0  0  0  0  0
  191.2800  176.4930  144.2710 C   0  0  2  0  0  3  0  0  0  0  0  0
  189.1500  177.4270  143.1460 C   0  0  0  0  0  0  0  0  0  0  0  0
  189.0430  177.9930  140.8080 N   0  0  1  0  0  0  0  0  0  0  0  0
  191.3390  177.1230  146.7410 C   0  0  0  0  0  2  0  0  0  0  0  0
  191.9810  176.3140  145.6270 C   0  0  0  0  0  2  0  0  0  0  0  0
  191.0930  177.2210  141.5870 N   0  0  0  0  0  0  0  0  0  0  0  0
  189.8450  177.0070  144.3230 C   0  0  0  0  0  0  0  0  0  0  0  0
  189.9160  177.8400  139.7650 O   0  0  0  0  0  0  0  0  0  0  0  0
  189.8810  176.7190  146.8440 C   0  0  0  0  0  2  0  0  0  0  0  0
  187.7570  177.7520  143.2320 C   0  0  0  0  0  0  0  0  0  0  0  0
  187.8330  177.3920  145.6370 C   0  0  0  0  0  3  0  0  0  0  0  0
  191.3110  175.2680  143.6030 O   0  0  0  0  0  1  0  0  0  0  0  0
  187.5970  177.9710  140.7320 C   0  0  0  0  0  2  0  0  0  0  0  0
  187.0130  178.0600  142.1240 C   0  0  1  0  0  3  0  0  0  0  0  0
  191.1280  177.4060  140.3020 C   0  0  0  0  0  0  0  0  0  0  0  0
  189.7520  177.5580  141.9450 C   0  0  2  0  0  3  0  0  0  0  0  0
  187.1340  177.7220  144.4870 C   0  0  0  0  0  3  0  0  0  0  0  0
  183.5890  178.8320  143.5250 C   0  0  0  0  0  0  0  0  0  0  0  0
  182.8470  179.0020  142.3540 C   0  0  0  0  0  3  0  0  0  0  0  0
  185.5750  178.3850  142.2050 C   0  0  0  0  0  0  0  0  0  0  0  0
  183.4650  178.8700  141.1090 C   0  0  0  0  0  3  0  0  0  0  0  0
  184.9500  178.5240  143.4520 C   0  0  0  0  0  3  0  0  0  0  0  0
  184.8280  178.5610  141.0330 C   0  0  0  0  0  3  0  0  0  0  0  0
  182.8140  179.0030  145.0850 Cl  0  0  0  0  0  0  0  0  0  0  0  0
  192.2330  176.6170  138.3540 C   0  0  0  0  0  3  0  0  0  0  0  0
  192.2980  177.1550  139.5260 N   0  0  0  0  0  0  0  0  0  0  0  0
  194.6800  175.6440  139.6300 N   0  0  0  0  0  1  0  0  0  0  0  0
  193.4910  176.3470  137.6020 C   0  0  1  0  0  3  0  0  0  0  0  0
  194.3110  175.2400  138.2850 C   0  0  1  0  0  3  0  0  0  0  0  0
  195.1690  174.4710  136.1970 C   0  0  0  0  0  2  0  0  0  0  0  0
  194.4340  175.5620  135.4200 C   0  0  0  0  0  2  0  0  0  0  0  0
  193.1560  175.9360  136.1670 C   0  0  0  0  0  2  0  0  0  0  0  0
  195.5310  174.9590  137.5260 N   0  0  0  0  0  2  0  0  0  0  0  0
  1 12  1  0  0  0  0
  1 10  1  0  0  0  0
  2 13  1  1  0  0  0
  2  8  1  0  0  0  0
  2  6  1  0  0  0  0
  3 11  2  0  0  0  0
  3  8  1  0  0  0  0
  4 14  1  6  0  0  0
  4 17  1  0  0  0  0
  5 10  1  0  0  0  0
  6  5  1  0  0  0  0
  8  1  2  0  0  0  0
  9 16  1  0  0  0  0
  9  4  1  0  0  0  0
 11 18  1  0  0  0  0
 14 15  1  0  0  0  0
 15 21  1  6  0  0  0
 15 11  1  0  0  0  0
 16  7  2  0  0  0  0
 17  7  1  6  0  0  0
 17  3  1  0  0  0  0
 18 12  2  0  0  0  0
 19 25  1  0  0  0  0
 20 19  2  0  0  0  0
 21 23  2  0  0  0  0
 22 20  1  0  0  0  0
 23 19  1  0  0  0  0
 24 22  2  0  0  0  0
 24 21  1  0  0  0  0
 26 27  2  0  0  0  0
 27 16  1  0  0  0  0
 29 30  1  0  0  0  0
 29 26  1  1  0  0  0
 30 28  1  1  0  0  0
 31 34  1  0  0  0  0
 32 33  1  0  0  0  0
 32 31  1  0  0  0  0
 33 29  1  0  0  0  0
 34 30  1  0  0  0  0
M  END
>  <MODEL>
7

>  <REMARK>
 VINA RESULT:     -10.0      1.550      2.128
  Name = 
  3 active torsions:
  status: ('A' for Active; 'I' for Inactive)
    1  A    between atoms: C_3  and  C_13
    2  A    between atoms: C_12  and  C_28
    3  A    between atoms: N_17  and  C_29
                            x       y       z     vdW  Elec       q    Type
                         _______ _______ _______ _____ _____    ______ ____

>  <TORSDO>
F 3

$$$$
=
 OpenBabel11052414163D

 34 39  0  0  1  0  0  0  0  0999 V2000
  184.9670  178.6220  144.8250 C   0  0  0  0  0  0  0  0  0  0  0  0
  184.9850  178.6580  142.2930 C   0  0  2  0  0  3  0  0  0  0  0  0
  187.0470  177.9850  143.6970 C   0  0  0  0  0  0  0  0  0  0  0  0
  189.0970  177.1880  142.7170 N   0  0  1  0  0  0  0  0  0  0  0  0
  182.8400  178.3080  143.6270 C   0  0  0  0  0  2  0  0  0  0  0  0
  183.4640  178.8640  142.3580 C   0  0  0  0  0  2  0  0  0  0  0  0
  187.3710  177.6770  141.2380 N   0  0  0  0  0  0  0  0  0  0  0  0
  185.6840  178.4080  143.6260 C   0  0  0  0  0  0  0  0  0  0  0  0
  189.5350  177.0700  141.4250 O   0  0  0  0  0  0  0  0  0  0  0  0
  183.5120  178.9660  144.8160 C   0  0  0  0  0  2  0  0  0  0  0  0
  187.6960  177.9160  144.9740 C   0  0  0  0  0  0  0  0  0  0  0  0
  185.6030  178.5250  146.0560 C   0  0  0  0  0  3  0  0  0  0  0  0
  185.5480  179.7770  141.6770 O   0  0  0  0  0  1  0  0  0  0  0  0
  189.9140  177.4490  143.8840 C   0  0  0  0  0  2  0  0  0  0  0  0
  189.0270  177.6180  145.0970 C   0  0  1  0  0  3  0  0  0  0  0  0
  188.4500  177.3460  140.5950 C   0  0  0  0  0  0  0  0  0  0  0  0
  187.7600  177.6180  142.6110 C   0  0  2  0  0  3  0  0  0  0  0  0
  186.9470  178.1940  146.1260 C   0  0  0  0  0  3  0  0  0  0  0  0
  191.4810  176.7070  147.8240 C   0  0  0  0  0  0  0  0  0  0  0  0
  190.9780  177.4440  148.9000 C   0  0  0  0  0  3  0  0  0  0  0  0
  189.7020  177.5570  146.4090 C   0  0  0  0  0  0  0  0  0  0  0  0
  189.8440  178.2390  148.7340 C   0  0  0  0  0  3  0  0  0  0  0  0
  190.8450  176.7630  146.5810 C   0  0  0  0  0  3  0  0  0  0  0  0
  189.2040  178.2960  147.4900 C   0  0  0  0  0  3  0  0  0  0  0  0
  192.9070  175.7140  148.0320 Cl  0  0  0  0  0  0  0  0  0  0  0  0
  188.5980  178.3800  138.4610 C   0  0  0  0  0  3  0  0  0  0  0  0
  188.5070  177.3040  139.1700 N   0  0  0  0  0  0  0  0  0  0  0  0
  190.6720  176.9330  136.9910 N   0  0  0  0  0  1  0  0  0  0  0  0
  188.6200  178.2780  136.9750 C   0  0  1  0  0  3  0  0  0  0  0  0
  189.2970  176.9720  136.5250 C   0  0  1  0  0  3  0  0  0  0  0  0
  187.9070  176.8190  134.5940 C   0  0  0  0  0  2  0  0  0  0  0  0
  187.1980  178.1330  134.9200 C   0  0  0  0  0  2  0  0  0  0  0  0
  187.1910  178.3360  136.4330 C   0  0  0  0  0  2  0  0  0  0  0  0
  189.2890  176.8640  135.0660 N   0  0  0  0  0  2  0  0  0  0  0  0
  1 12  1  0  0  0  0
  2 13  1  1  0  0  0
  2  6  1  0  0  0  0
  2  8  1  0  0  0  0
  3 11  2  0  0  0  0
  4 14  1  1  0  0  0
  5 10  1  0  0  0  0
  6  5  1  0  0  0  0
  8  3  1  0  0  0  0
  8  1  2  0  0  0  0
  9  4  1  0  0  0  0
 10  1  1  0  0  0  0
 11 15  1  0  0  0  0
 11 18  1  0  0  0  0
 12 18  2  0  0  0  0
 14 15  1  0  0  0  0
 15 21  1  1  0  0  0
 16  7  2  0  0  0  0
 16  9  1  0  0  0  0
 17  7  1  6  0  0  0
 17  4  1  0  0  0  0
 17  3  1  0  0  0  0
 19 25  1  0  0  0  0
 19 20  1  0  0  0  0
 21 23  1  0  0  0  0
 21 24  2  0  0  0  0
 22 20  2  0  0  0  0
 23 19  2  0  0  0  0
 24 22  1  0  0  0  0
 26 27  2  0  0  0  0
 27 16  1  0  0  0  0
 29 26  1  1  0  0  0
 30 29  1  0  0  0  0
 30 28  1  6  0  0  0
 31 32  1  0  0  0  0
 31 34  1  0  0  0  0
 32 33  1  0  0  0  0
 33 29  1  0  0  0  0
 34 30  1  0  0  0  0
M  END
>  <MODEL>
8

>  <REMARK>
 VINA RESULT:      -9.9      3.316      6.131
  Name = 
  3 active torsions:
  status: ('A' for Active; 'I' for Inactive)
    1  A    between atoms: C_3  and  C_13
    2  A    between atoms: C_12  and  C_28
    3  A    between atoms: N_17  and  C_29
                            x       y       z     vdW  Elec       q    Type
                         _______ _______ _______ _____ _____    ______ ____

>  <TORSDO>
F 3

$$$$
=
 OpenBabel11052414163D

 34 39  0  0  1  0  0  0  0  0999 V2000
  186.3550  178.0310  144.3620 C   0  0  0  0  0  0  0  0  0  0  0  0
  188.6070  177.0790  143.7000 C   0  0  2  0  0  3  0  0  0  0  0  0
  186.9210  178.0110  141.9780 C   0  0  0  0  0  0  0  0  0  0  0  0
  187.4150  178.1970  139.6280 N   0  0  1  0  0  0  0  0  0  0  0  0
  188.1910  178.0940  146.0020 C   0  0  0  0  0  2  0  0  0  0  0  0
  188.9570  177.0580  145.1960 C   0  0  0  0  0  2  0  0  0  0  0  0
  189.1220  177.3740  140.9770 N   0  0  0  0  0  0  0  0  0  0  0  0
  187.2750  177.7260  143.3330 C   0  0  0  0  0  0  0  0  0  0  0  0
  188.4740  177.7950  138.8580 O   0  0  0  0  0  0  0  0  0  0  0  0
  186.7070  177.8490  145.8040 C   0  0  0  0  0  2  0  0  0  0  0  0
  185.5980  178.4740  141.6800 C   0  0  0  0  0  0  0  0  0  0  0  0
  185.0860  178.5050  144.0580 C   0  0  0  0  0  3  0  0  0  0  0  0
  188.6290  175.7630  143.2320 O   0  0  0  0  0  1  0  0  0  0  0  0
  186.0330  178.2970  139.2090 C   0  0  0  0  0  2  0  0  0  0  0  0
  185.1680  178.6660  140.3930 C   0  0  1  0  0  3  0  0  0  0  0  0
  189.4680  177.3440  139.7260 C   0  0  0  0  0  0  0  0  0  0  0  0
  187.7890  177.8880  140.9510 C   0  0  2  0  0  3  0  0  0  0  0  0
  184.7110  178.7060  142.7390 C   0  0  0  0  0  3  0  0  0  0  0  0
  181.4100  179.0550  140.4730 C   0  0  0  0  0  0  0  0  0  0  0  0
  181.2150  180.0210  139.4820 C   0  0  0  0  0  3  0  0  0  0  0  0
  183.8030  179.1320  140.0800 C   0  0  0  0  0  0  0  0  0  0  0  0
  182.3090  180.5470  138.7930 C   0  0  0  0  0  3  0  0  0  0  0  0
  182.7000  178.6110  140.7720 C   0  0  0  0  0  3  0  0  0  0  0  0
  183.6030  180.1030  139.0900 C   0  0  0  0  0  3  0  0  0  0  0  0
  180.0370  178.4010  141.3390 Cl  0  0  0  0  0  0  0  0  0  0  0  0
  191.0790  176.8540  138.0500 C   0  0  0  0  0  3  0  0  0  0  0  0
  190.7400  176.8620  139.2960 N   0  0  0  0  0  0  0  0  0  0  0  0
  193.5550  177.5000  139.4680 N   0  0  0  0  0  1  0  0  0  0  0  0
  192.4080  176.3070  137.6560 C   0  0  1  0  0  3  0  0  0  0  0  0
  193.3360  176.1920  138.8770 C   0  0  1  0  0  3  0  0  0  0  0  0
  194.4290  174.2770  137.9680 C   0  0  0  0  0  2  0  0  0  0  0  0
  193.5920  174.3260  136.6910 C   0  0  0  0  0  2  0  0  0  0  0  0
  192.2290  174.9350  137.0060 C   0  0  0  0  0  2  0  0  0  0  0  0
  194.6300  175.6280  138.4880 N   0  0  0  0  0  2  0  0  0  0  0  0
  1 10  1  0  0  0  0
  2 13  1  1  0  0  0
  2  6  1  0  0  0  0
  3  8  1  0  0  0  0
  4 14  1  6  0  0  0
  4 17  1  0  0  0  0
  6  5  1  0  0  0  0
  8  2  1  0  0  0  0
  8  1  2  0  0  0  0
  9  4  1  0  0  0  0
  9 16  1  0  0  0  0
 10  5  1  0  0  0  0
 11  3  2  0  0  0  0
 11 18  1  0  0  0  0
 12  1  1  0  0  0  0
 14 15  1  0  0  0  0
 15 21  1  6  0  0  0
 15 11  1  0  0  0  0
 16  7  2  0  0  0  0
 17  7  1  6  0  0  0
 17  3  1  0  0  0  0
 18 12  2  0  0  0  0
 19 23  1  0  0  0  0
 19 25  1  0  0  0  0
 20 19  2  0  0  0  0
 21 23  2  0  0  0  0
 22 24  2  0  0  0  0
 22 20  1  0  0  0  0
 24 21  1  0  0  0  0
 26 27  2  0  0  0  0
 27 16  1  0  0  0  0
 29 26  1  1  0  0  0
 29 30  1  0  0  0  0
 30 28  1  6  0  0  0
 31 34  1  0  0  0  0
 32 33  1  0  0  0  0
 32 31  1  0  0  0  0
 33 29  1  0  0  0  0
 34 30  1  0  0  0  0
M  END
>  <MODEL>
9

>  <REMARK>
 VINA RESULT:      -9.8      1.374      2.100
  Name = 
  3 active torsions:
  status: ('A' for Active; 'I' for Inactive)
    1  A    between atoms: C_3  and  C_13
    2  A    between atoms: C_12  and  C_28
    3  A    between atoms: N_17  and  C_29
                            x       y       z     vdW  Elec       q    Type
                         _______ _______ _______ _____ _____    ______ ____

>  <TORSDO>
F 3

$$$$
