=
 OpenBabel11052413223D

 28 31  0  0  1  0  0  0  0  0999 V2000
  183.0250  179.0300  140.1770 C   0  0  2  0  0  3  0  0  0  0  0  0
  186.2740  177.5290  137.7760 C   0  0  0  0  0  1  0  0  0  0  0  0
  185.8290  178.3560  142.6970 C   0  0  0  0  0  0  0  0  0  0  0  0
  185.5370  178.5350  139.8950 N   0  0  0  0  0  0  0  0  0  0  0  0
  184.5270  178.6830  142.0770 C   0  0  0  0  0  3  0  0  0  0  0  0
  183.9930  178.4600  137.9380 C   0  0  0  0  0  2  0  0  0  0  0  0
  186.8830  178.6640  140.4660 C   0  0  0  0  0  2  0  0  0  0  0  0
  185.4280  178.6080  138.4300 C   0  0  2  0  0  3  0  0  0  0  0  0
  186.9200  178.3030  141.9240 C   0  0  0  0  0  3  0  0  0  0  0  0
  183.0810  179.4080  138.6960 C   0  0  0  0  0  2  0  0  0  0  0  0
  184.3920  178.7660  140.7500 C   0  0  0  0  0  0  0  0  0  0  0  0
  185.0050  178.6360  144.9630 C   0  0  0  0  0  3  0  0  0  0  0  0
  187.6330  177.3380  145.8350 C   0  0  0  0  0  3  0  0  0  0  0  0
  186.1750  178.9090  147.1020 C   0  0  0  0  0  0  0  0  0  0  0  0
  185.9170  178.0730  144.1560 C   0  0  0  0  0  0  0  0  0  0  0  0
  187.3900  176.1340  143.8930 F   0  0  0  0  0  0  0  0  0  0  0  0
  187.3690  178.3720  146.8550 C   0  0  0  0  0  3  0  0  0  0  0  0
  186.9770  177.1590  144.6790 C   0  0  0  0  0  0  0  0  0  0  0  0
  186.0660  179.8640  148.0550 F   0  0  0  0  0  0  0  0  0  0  0  0
  184.9380  178.4090  146.4360 C   0  0  0  0  0  2  0  0  0  0  0  0
  182.0250  177.9000  140.4870 C   0  0  2  0  0  3  0  0  0  0  0  0
  182.3270  176.6270  139.7480 C   0  0  0  0  0  3  0  0  0  0  0  0
  179.5750  177.2560  140.1550 N   0  0  0  0  0  0  0  0  0  0  0  0
  181.4070  175.6660  139.7260 C   0  0  0  0  0  3  0  0  0  0  0  0
  180.1390  179.2940  141.3840 C   0  0  0  0  0  1  0  0  0  0  0  0
  180.5620  178.3510  140.2720 C   0  0  1  0  0  3  0  0  0  0  0  0
  178.9310  177.2850  138.5070 S   0  0  0  0  0  1  0  0  0  0  0  0
  180.1030  175.9090  140.4310 C   0  0  0  0  0  2  0  0  0  0  0  0
  1 10  1  6  0  0  0
  1 21  1  0  0  0  0
  1 11  1  0  0  0  0
  3 15  1  0  0  0  0
  4  7  1  0  0  0  0
  4 11  1  0  0  0  0
  5  3  1  0  0  0  0
  6  8  1  0  0  0  0
  6 10  1  0  0  0  0
  7  9  1  0  0  0  0
  8  2  1  6  0  0  0
  8  4  1  0  0  0  0
  9  3  2  0  0  0  0
 11  5  2  0  0  0  0
 12 20  1  0  0  0  0
 13 17  1  0  0  0  0
 14 19  1  0  0  0  0
 15 18  1  0  0  0  0
 15 12  2  0  0  0  0
 16 18  1  0  0  0  0
 17 14  2  0  0  0  0
 18 13  2  0  0  0  0
 20 14  1  0  0  0  0
 21 22  1  6  0  0  0
 23 26  1  0  0  0  0
 23 28  1  0  0  0  0
 24 22  2  0  0  0  0
 24 28  1  0  0  0  0
 26 21  1  0  0  0  0
 26 25  1  1  0  0  0
 27 23  1  0  0  0  0
M  END
>  <MODEL>
1

>  <REMARK>
 VINA RESULT:      -8.7      0.000      0.000
  Name = 
  2 active torsions:
  status: ('A' for Active; 'I' for Inactive)
    1  A    between atoms: C_1  and  C_2
    2  A    between atoms: C_10  and  C_13
                            x       y       z     vdW  Elec       q    Type
                         _______ _______ _______ _____ _____    ______ ____

>  <TORSDO>
F 2

$$$$
=
 OpenBabel11052413223D

 28 31  0  0  1  0  0  0  0  0999 V2000
  188.0860  177.9620  138.1320 C   0  0  2  0  0  3  0  0  0  0  0  0
  191.8280  175.9210  137.4900 C   0  0  0  0  0  1  0  0  0  0  0  0
  189.3760  177.2200  141.6610 C   0  0  0  0  0  0  0  0  0  0  0  0
  190.3740  177.1810  139.0210 N   0  0  0  0  0  0  0  0  0  0  0  0
  188.5370  177.6270  140.5130 C   0  0  0  0  0  3  0  0  0  0  0  0
  189.8560  177.0970  136.5830 C   0  0  0  0  0  2  0  0  0  0  0  0
  191.3350  177.2170  140.1300 C   0  0  0  0  0  2  0  0  0  0  0  0
  190.9330  177.1360  137.6610 C   0  0  2  0  0  3  0  0  0  0  0  0
  190.6780  176.9840  141.4610 C   0  0  0  0  0  3  0  0  0  0  0  0
  188.8390  178.1990  136.8220 C   0  0  0  0  0  2  0  0  0  0  0  0
  189.0120  177.6060  139.2650 C   0  0  0  0  0  0  0  0  0  0  0  0
  187.4540  177.2640  143.1430 C   0  0  0  0  0  3  0  0  0  0  0  0
  189.4920  177.1190  145.4170 C   0  0  0  0  0  3  0  0  0  0  0  0
  187.1890  178.0620  145.4480 C   0  0  0  0  0  0  0  0  0  0  0  0
  188.7730  177.0590  143.0130 C   0  0  0  0  0  0  0  0  0  0  0  0
  190.6790  175.8270  143.9340 F   0  0  0  0  0  0  0  0  0  0  0  0
  188.4340  178.0160  145.9200 C   0  0  0  0  0  3  0  0  0  0  0  0
  189.6260  176.6480  144.1690 C   0  0  0  0  0  0  0  0  0  0  0  0
  186.3130  178.9440  145.9830 F   0  0  0  0  0  0  0  0  0  0  0  0
  186.7030  177.0950  144.4210 C   0  0  0  0  0  2  0  0  0  0  0  0
  186.9110  176.9750  137.9960 C   0  0  2  0  0  3  0  0  0  0  0  0
  187.2740  175.7260  137.2450 C   0  0  0  0  0  3  0  0  0  0  0  0
  184.6310  176.7300  136.8720 N   0  0  0  0  0  0  0  0  0  0  0  0
  186.2980  174.9180  136.8380 C   0  0  0  0  0  3  0  0  0  0  0  0
  185.0210  178.5690  138.4350 C   0  0  0  0  0  1  0  0  0  0  0  0
  185.6550  177.6530  137.4040 C   0  0  1  0  0  3  0  0  0  0  0  0
  184.5440  176.9700  135.1210 S   0  0  0  0  0  1  0  0  0  0  0  0
  184.8790  175.3030  137.1400 C   0  0  0  0  0  2  0  0  0  0  0  0
  1 10  1  6  0  0  0
  1 11  1  0  0  0  0
  3 15  1  0  0  0  0
  4 11  1  0  0  0  0
  4  7  1  0  0  0  0
  5  3  1  0  0  0  0
  6 10  1  0  0  0  0
  6  8  1  0  0  0  0
  7  9  1  0  0  0  0
  8  2  1  1  0  0  0
  8  4  1  0  0  0  0
  9  3  2  0  0  0  0
 11  5  2  0  0  0  0
 12 20  1  0  0  0  0
 13 17  1  0  0  0  0
 14 17  2  0  0  0  0
 14 19  1  0  0  0  0
 15 12  2  0  0  0  0
 15 18  1  0  0  0  0
 16 18  1  0  0  0  0
 18 13  2  0  0  0  0
 20 14  1  0  0  0  0
 21 22  1  6  0  0  0
 21  1  1  0  0  0  0
 23 28  1  0  0  0  0
 23 26  1  0  0  0  0
 24 28  1  0  0  0  0
 24 22  2  0  0  0  0
 26 21  1  0  0  0  0
 26 25  1  1  0  0  0
 27 23  1  0  0  0  0
M  END
>  <MODEL>
2

>  <REMARK>
 VINA RESULT:      -8.3      3.313      4.775
  Name = 
  2 active torsions:
  status: ('A' for Active; 'I' for Inactive)
    1  A    between atoms: C_1  and  C_2
    2  A    between atoms: C_10  and  C_13
                            x       y       z     vdW  Elec       q    Type
                         _______ _______ _______ _____ _____    ______ ____

>  <TORSDO>
F 2

$$$$
=
 OpenBabel11052413223D

 28 31  0  0  1  0  0  0  0  0999 V2000
  188.6640  177.4460  137.4550 C   0  0  2  0  0  3  0  0  0  0  0  0
  192.2320  175.0310  137.5470 C   0  0  0  0  0  1  0  0  0  0  0  0
  189.8340  177.6280  141.0970 C   0  0  0  0  0  0  0  0  0  0  0  0
  190.8650  176.7760  138.6110 N   0  0  0  0  0  0  0  0  0  0  0  0
  189.0490  177.7590  139.8500 C   0  0  0  0  0  3  0  0  0  0  0  0
  190.3780  176.0520  136.2750 C   0  0  0  0  0  2  0  0  0  0  0  0
  191.8090  177.0490  139.7020 C   0  0  0  0  0  2  0  0  0  0  0  0
  191.4390  176.3090  137.3390 C   0  0  2  0  0  3  0  0  0  0  0  0
  191.1150  177.2480  141.0190 C   0  0  0  0  0  3  0  0  0  0  0  0
  189.4530  177.2500  136.1600 C   0  0  0  0  0  2  0  0  0  0  0  0
  189.5390  177.3530  138.6760 C   0  0  0  0  0  0  0  0  0  0  0  0
  189.9970  178.0020  143.4900 C   0  0  0  0  0  3  0  0  0  0  0  0
  186.9630  177.6260  143.5240 C   0  0  0  0  0  3  0  0  0  0  0  0
  188.6020  177.2420  145.3590 C   0  0  0  0  0  0  0  0  0  0  0  0
  189.2000  177.8980  142.4160 C   0  0  0  0  0  0  0  0  0  0  0  0
  187.0670  178.6360  141.4630 F   0  0  0  0  0  0  0  0  0  0  0  0
  187.4330  176.9890  144.7690 C   0  0  0  0  0  3  0  0  0  0  0  0
  187.7190  178.0770  142.5130 C   0  0  0  0  0  0  0  0  0  0  0  0
  188.9260  176.5770  146.4920 F   0  0  0  0  0  0  0  0  0  0  0  0
  189.5120  178.3150  144.8650 C   0  0  0  0  0  2  0  0  0  0  0  0
  187.4130  176.5530  137.5550 C   0  0  2  0  0  3  0  0  0  0  0  0
  187.5680  175.2400  136.8400 C   0  0  0  0  0  3  0  0  0  0  0  0
  184.9780  176.4340  136.7910 N   0  0  0  0  0  0  0  0  0  0  0  0
  186.4860  174.4930  136.6320 C   0  0  0  0  0  3  0  0  0  0  0  0
  185.7300  178.3160  138.1590 C   0  0  0  0  0  1  0  0  0  0  0  0
  186.1350  177.2980  137.1080 C   0  0  1  0  0  3  0  0  0  0  0  0
  184.6490  176.5870  135.0590 S   0  0  0  0  0  1  0  0  0  0  0  0
  185.1590  175.0080  137.1110 C   0  0  0  0  0  2  0  0  0  0  0  0
  1 10  1  6  0  0  0
  1 21  1  0  0  0  0
  1 11  1  0  0  0  0
  3 15  1  0  0  0  0
  4 11  1  0  0  0  0
  4  7  1  0  0  0  0
  5  3  1  0  0  0  0
  6  8  1  0  0  0  0
  7  9  1  0  0  0  0
  8  2  1  1  0  0  0
  8  4  1  0  0  0  0
  9  3  2  0  0  0  0
 10  6  1  0  0  0  0
 11  5  2  0  0  0  0
 12 20  1  0  0  0  0
 13 17  1  0  0  0  0
 14 19  1  0  0  0  0
 15 18  1  0  0  0  0
 15 12  2  0  0  0  0
 16 18  1  0  0  0  0
 17 14  2  0  0  0  0
 18 13  2  0  0  0  0
 20 14  1  0  0  0  0
 21 22  1  6  0  0  0
 23 26  1  0  0  0  0
 23 28  1  0  0  0  0
 24 22  2  0  0  0  0
 24 28  1  0  0  0  0
 26 21  1  0  0  0  0
 26 25  1  1  0  0  0
 27 23  1  0  0  0  0
M  END
>  <MODEL>
3

>  <REMARK>
 VINA RESULT:      -8.0      3.722      5.465
  Name = 
  2 active torsions:
  status: ('A' for Active; 'I' for Inactive)
    1  A    between atoms: C_1  and  C_2
    2  A    between atoms: C_10  and  C_13
                            x       y       z     vdW  Elec       q    Type
                         _______ _______ _______ _____ _____    ______ ____

>  <TORSDO>
F 2

$$$$
=
 OpenBabel11052413223D

 28 31  0  0  1  0  0  0  0  0999 V2000
  187.0820  178.5180  137.8680 C   0  0  2  0  0  3  0  0  0  0  0  0
  189.5900  175.8930  135.5450 C   0  0  0  0  0  1  0  0  0  0  0  0
  189.7330  177.3010  140.3510 C   0  0  0  0  0  0  0  0  0  0  0  0
  189.3180  177.2780  137.5590 N   0  0  0  0  0  0  0  0  0  0  0  0
  188.5420  177.9340  139.7420 C   0  0  0  0  0  3  0  0  0  0  0  0
  187.6920  177.4670  135.6770 C   0  0  0  0  0  2  0  0  0  0  0  0
  190.6790  177.0600  138.0640 C   0  0  0  0  0  2  0  0  0  0  0  0
  189.1380  177.2330  136.0990 C   0  0  2  0  0  3  0  0  0  0  0  0
  190.7070  176.8510  139.5520 C   0  0  0  0  0  3  0  0  0  0  0  0
  187.1470  178.7120  136.3530 C   0  0  0  0  0  2  0  0  0  0  0  0
  188.3490  177.9200  138.4210 C   0  0  0  0  0  0  0  0  0  0  0  0
  188.7380  176.7550  142.4970 C   0  0  0  0  0  3  0  0  0  0  0  0
  191.2470  178.0020  143.7200 C   0  0  0  0  0  3  0  0  0  0  0  0
  188.9760  177.7790  144.7130 C   0  0  0  0  0  0  0  0  0  0  0  0
  189.8310  177.1520  141.8290 C   0  0  0  0  0  0  0  0  0  0  0  0
  192.2810  177.1300  141.8620 F   0  0  0  0  0  0  0  0  0  0  0  0
  190.1520  178.3980  144.6260 C   0  0  0  0  0  3  0  0  0  0  0  0
  191.1300  177.4100  142.5220 C   0  0  0  0  0  0  0  0  0  0  0  0
  188.0440  178.2520  145.5740 F   0  0  0  0  0  0  0  0  0  0  0  0
  188.6970  176.5170  143.9690 C   0  0  0  0  0  2  0  0  0  0  0  0
  185.8210  177.7700  138.3400 C   0  0  2  0  0  3  0  0  0  0  0  0
  185.1150  177.0450  137.2290 C   0  0  0  0  0  3  0  0  0  0  0  0
  183.4760  178.1940  139.2600 N   0  0  0  0  0  0  0  0  0  0  0  0
  183.8880  176.5790  137.4470 C   0  0  0  0  0  3  0  0  0  0  0  0
  185.4270  179.0020  140.4920 C   0  0  0  0  0  1  0  0  0  0  0  0
  184.8590  178.6960  139.1180 C   0  0  1  0  0  3  0  0  0  0  0  0
  182.4130  179.2730  138.3450 S   0  0  0  0  0  1  0  0  0  0  0  0
  183.2630  176.8140  138.7920 C   0  0  0  0  0  2  0  0  0  0  0  0
  1 10  1  6  0  0  0
  1 21  1  0  0  0  0
  1 11  1  0  0  0  0
  3 15  1  0  0  0  0
  4  7  1  0  0  0  0
  4 11  1  0  0  0  0
  5  3  1  0  0  0  0
  6  8  1  0  0  0  0
  6 10  1  0  0  0  0
  7  9  1  0  0  0  0
  8  2  1  1  0  0  0
  8  4  1  0  0  0  0
  9  3  2  0  0  0  0
 11  5  2  0  0  0  0
 12 20  1  0  0  0  0
 13 17  1  0  0  0  0
 14 19  1  0  0  0  0
 15 12  2  0  0  0  0
 15 18  1  0  0  0  0
 16 18  1  0  0  0  0
 17 14  2  0  0  0  0
 18 13  2  0  0  0  0
 20 14  1  0  0  0  0
 21 22  1  6  0  0  0
 21 26  1  0  0  0  0
 22 24  2  0  0  0  0
 24 28  1  0  0  0  0
 26 23  1  0  0  0  0
 26 25  1  1  0  0  0
 27 23  1  0  0  0  0
 28 23  1  0  0  0  0
M  END
>  <MODEL>
4

>  <REMARK>
 VINA RESULT:      -7.8      3.029      4.452
  Name = 
  2 active torsions:
  status: ('A' for Active; 'I' for Inactive)
    1  A    between atoms: C_1  and  C_2
    2  A    between atoms: C_10  and  C_13
                            x       y       z     vdW  Elec       q    Type
                         _______ _______ _______ _____ _____    ______ ____

>  <TORSDO>
F 2

$$$$
=
 OpenBabel11052413223D

 28 31  0  0  1  0  0  0  0  0999 V2000
  187.8700  178.7120  139.6610 C   0  0  2  0  0  3  0  0  0  0  0  0
  190.9610  175.8620  138.7150 C   0  0  0  0  0  1  0  0  0  0  0  0
  188.9910  177.3680  143.0680 C   0  0  0  0  0  0  0  0  0  0  0  0
  189.9010  177.3090  140.3970 N   0  0  0  0  0  0  0  0  0  0  0  0
  188.2620  178.0700  141.9890 C   0  0  0  0  0  3  0  0  0  0  0  0
  189.3360  177.5690  137.9820 C   0  0  0  0  0  2  0  0  0  0  0  0
  190.8590  177.0060  141.4670 C   0  0  0  0  0  2  0  0  0  0  0  0
  190.4060  177.2430  139.0170 C   0  0  2  0  0  3  0  0  0  0  0  0
  190.1870  176.8310  142.8000 C   0  0  0  0  0  3  0  0  0  0  0  0
  188.6360  178.8660  138.3460 C   0  0  0  0  0  2  0  0  0  0  0  0
  188.6950  178.0390  140.7260 C   0  0  0  0  0  0  0  0  0  0  0  0
  187.0540  177.2860  144.5290 C   0  0  0  0  0  3  0  0  0  0  0  0
  189.0530  177.6100  146.8190 C   0  0  0  0  0  3  0  0  0  0  0  0
  186.6450  178.2390  146.7520 C   0  0  0  0  0  0  0  0  0  0  0  0
  188.3910  177.2470  144.4250 C   0  0  0  0  0  0  0  0  0  0  0  0
  190.4250  176.3630  145.4640 F   0  0  0  0  0  0  0  0  0  0  0  0
  187.8770  178.3990  147.2340 C   0  0  0  0  0  3  0  0  0  0  0  0
  189.2700  177.0550  145.6180 C   0  0  0  0  0  0  0  0  0  0  0  0
  185.6520  179.0410  147.2020 F   0  0  0  0  0  0  0  0  0  0  0  0
  186.3100  177.1310  145.8120 C   0  0  0  0  0  2  0  0  0  0  0  0
  186.4810  178.0670  139.4940 C   0  0  2  0  0  3  0  0  0  0  0  0
  186.1600  177.7230  138.0670 C   0  0  0  0  0  3  0  0  0  0  0  0
  183.9930  178.6070  139.6970 N   0  0  0  0  0  0  0  0  0  0  0  0
  184.9070  177.4040  137.7520 C   0  0  0  0  0  3  0  0  0  0  0  0
  185.4450  178.8230  141.6520 C   0  0  0  0  0  1  0  0  0  0  0  0
  185.3680  178.9220  140.1390 C   0  0  1  0  0  3  0  0  0  0  0  0
  183.3770  180.0070  138.8080 S   0  0  0  0  0  1  0  0  0  0  0  0
  183.8720  177.4150  138.8400 C   0  0  0  0  0  2  0  0  0  0  0  0
  1 10  1  6  0  0  0
  1 11  1  0  0  0  0
  3 15  1  0  0  0  0
  4 11  1  0  0  0  0
  4  7  1  0  0  0  0
  5  3  1  0  0  0  0
  6 10  1  0  0  0  0
  6  8  1  0  0  0  0
  7  9  1  0  0  0  0
  8  2  1  6  0  0  0
  8  4  1  0  0  0  0
  9  3  2  0  0  0  0
 11  5  2  0  0  0  0
 12 20  1  0  0  0  0
 13 17  1  0  0  0  0
 14 19  1  0  0  0  0
 14 17  2  0  0  0  0
 15 12  2  0  0  0  0
 15 18  1  0  0  0  0
 16 18  1  0  0  0  0
 18 13  2  0  0  0  0
 20 14  1  0  0  0  0
 21 22  1  6  0  0  0
 21  1  1  0  0  0  0
 21 26  1  0  0  0  0
 23 26  1  0  0  0  0
 24 22  2  0  0  0  0
 24 28  1  0  0  0  0
 26 25  1  1  0  0  0
 27 23  1  0  0  0  0
 28 23  1  0  0  0  0
M  END
>  <MODEL>
5

>  <REMARK>
 VINA RESULT:      -7.7      2.579      4.030
  Name = 
  2 active torsions:
  status: ('A' for Active; 'I' for Inactive)
    1  A    between atoms: C_1  and  C_2
    2  A    between atoms: C_10  and  C_13
                            x       y       z     vdW  Elec       q    Type
                         _______ _______ _______ _____ _____    ______ ____

>  <TORSDO>
F 2

$$$$
=
 OpenBabel11052413223D

 28 31  0  0  1  0  0  0  0  0999 V2000
  185.3780  179.1780  142.5160 C   0  0  2  0  0  3  0  0  0  0  0  0
  181.5360  178.2530  144.2360 C   0  0  0  0  0  1  0  0  0  0  0  0
  183.3200  177.8510  139.5710 C   0  0  0  0  0  0  0  0  0  0  0  0
  182.8610  178.7190  142.2180 N   0  0  0  0  0  0  0  0  0  0  0  0
  184.4230  178.3450  140.4230 C   0  0  0  0  0  3  0  0  0  0  0  0
  183.8200  179.1580  144.4780 C   0  0  0  0  0  2  0  0  0  0  0  0
  181.7250  178.6780  141.2900 C   0  0  0  0  0  2  0  0  0  0  0  0
  182.5780  179.1530  143.5950 C   0  0  2  0  0  3  0  0  0  0  0  0
  182.0610  177.9680  140.0090 C   0  0  0  0  0  3  0  0  0  0  0  0
  184.9470  179.9070  143.7890 C   0  0  0  0  0  2  0  0  0  0  0  0
  184.2030  178.7540  141.6750 C   0  0  0  0  0  0  0  0  0  0  0  0
  182.6500  176.4740  137.6880 C   0  0  0  0  0  3  0  0  0  0  0  0
  185.6060  176.5040  136.9080 C   0  0  0  0  0  3  0  0  0  0  0  0
  183.8710  174.8000  136.3750 C   0  0  0  0  0  0  0  0  0  0  0  0
  183.6120  177.2150  138.2570 C   0  0  0  0  0  0  0  0  0  0  0  0
  185.5550  178.6280  137.7820 F   0  0  0  0  0  0  0  0  0  0  0  0
  185.1440  175.1440  136.5710 C   0  0  0  0  0  3  0  0  0  0  0  0
  184.9330  177.4380  137.5950 C   0  0  0  0  0  0  0  0  0  0  0  0
  183.5730  173.5110  136.0870 F   0  0  0  0  0  0  0  0  0  0  0  0
  182.7790  175.8150  136.3550 C   0  0  0  0  0  2  0  0  0  0  0  0
  186.3680  178.0250  142.7720 C   0  0  2  0  0  3  0  0  0  0  0  0
  186.4300  177.6120  144.2150 C   0  0  0  0  0  3  0  0  0  0  0  0
  188.8670  177.4960  142.7370 N   0  0  0  0  0  0  0  0  0  0  0  0
  187.4200  176.8150  144.6100 C   0  0  0  0  0  3  0  0  0  0  0  0
  187.7560  178.2440  140.6910 C   0  0  0  0  0  1  0  0  0  0  0  0
  187.7720  178.3360  142.2060 C   0  0  1  0  0  3  0  0  0  0  0  0
  189.9450  178.5420  143.6730 S   0  0  0  0  0  1  0  0  0  0  0  0
  188.4350  176.3780  143.5930 C   0  0  0  0  0  2  0  0  0  0  0  0
  1 21  1  0  0  0  0
  1 10  1  1  0  0  0
  3  9  2  0  0  0  0
  3  5  1  0  0  0  0
  4  8  1  0  0  0  0
  5 11  2  0  0  0  0
  7  4  1  0  0  0  0
  8  2  1  1  0  0  0
  8  6  1  0  0  0  0
  9  7  1  0  0  0  0
 10  6  1  0  0  0  0
 11  4  1  0  0  0  0
 11  1  1  0  0  0  0
 12 15  2  0  0  0  0
 13 18  2  0  0  0  0
 14 17  2  0  0  0  0
 15  3  1  0  0  0  0
 17 13  1  0  0  0  0
 18 16  1  0  0  0  0
 18 15  1  0  0  0  0
 19 14  1  0  0  0  0
 20 14  1  0  0  0  0
 20 12  1  0  0  0  0
 21 22  1  1  0  0  0
 22 24  2  0  0  0  0
 23 28  1  0  0  0  0
 23 27  1  0  0  0  0
 26 25  1  6  0  0  0
 26 23  1  0  0  0  0
 26 21  1  0  0  0  0
 28 24  1  0  0  0  0
M  END
>  <MODEL>
6

>  <REMARK>
 VINA RESULT:      -7.4      3.764      7.753
  Name = 
  2 active torsions:
  status: ('A' for Active; 'I' for Inactive)
    1  A    between atoms: C_1  and  C_2
    2  A    between atoms: C_10  and  C_13
                            x       y       z     vdW  Elec       q    Type
                         _______ _______ _______ _____ _____    ______ ____

>  <TORSDO>
F 2

$$$$
=
 OpenBabel11052413223D

 28 31  0  0  1  0  0  0  0  0999 V2000
  188.5620  178.0610  138.5510 C   0  0  2  0  0  3  0  0  0  0  0  0
  192.0970  176.3760  140.3520 C   0  0  0  0  0  1  0  0  0  0  0  0
  187.7760  178.0000  142.2990 C   0  0  0  0  0  0  0  0  0  0  0  0
  190.0310  177.6810  140.6320 N   0  0  0  0  0  0  0  0  0  0  0  0
  187.6740  178.1350  140.8300 C   0  0  0  0  0  3  0  0  0  0  0  0
  190.8980  177.1780  138.3480 C   0  0  0  0  0  2  0  0  0  0  0  0
  190.2500  177.9880  142.0510 C   0  0  0  0  0  2  0  0  0  0  0  0
  191.2310  177.4960  139.8020 C   0  0  2  0  0  3  0  0  0  0  0  0
  188.9860  177.8840  142.8570 C   0  0  0  0  0  3  0  0  0  0  0  0
  189.8950  178.1830  137.8110 C   0  0  0  0  0  2  0  0  0  0  0  0
  188.7440  177.9830  140.0440 C   0  0  0  0  0  0  0  0  0  0  0  0
  185.3780  178.2800  142.5530 C   0  0  0  0  0  3  0  0  0  0  0  0
  185.9120  178.1520  145.5610 C   0  0  0  0  0  3  0  0  0  0  0  0
  184.0310  179.2530  144.3580 C   0  0  0  0  0  0  0  0  0  0  0  0
  186.5460  177.9760  143.1380 C   0  0  0  0  0  0  0  0  0  0  0  0
  187.5680  176.6810  144.9490 F   0  0  0  0  0  0  0  0  0  0  0  0
  184.8380  179.1540  145.4140 C   0  0  0  0  0  3  0  0  0  0  0  0
  186.6300  177.5880  144.5790 C   0  0  0  0  0  0  0  0  0  0  0  0
  183.0930  180.2290  144.3350 F   0  0  0  0  0  0  0  0  0  0  0  0
  184.0600  178.2530  143.2520 C   0  0  0  0  0  2  0  0  0  0  0  0
  187.6560  176.9400  138.0060 C   0  0  2  0  0  3  0  0  0  0  0  0
  188.4160  175.8730  137.2700 C   0  0  0  0  0  3  0  0  0  0  0  0
  185.8210  176.5190  136.2810 N   0  0  0  0  0  0  0  0  0  0  0  0
  187.7380  174.9950  136.5360 C   0  0  0  0  0  3  0  0  0  0  0  0
  185.4640  178.1630  138.0560 C   0  0  0  0  0  1  0  0  0  0  0  0
  186.4930  177.5020  137.1580 C   0  0  1  0  0  3  0  0  0  0  0  0
  186.1430  176.9840  134.6040 S   0  0  0  0  0  1  0  0  0  0  0  0
  186.2430  175.1210  136.4720 C   0  0  0  0  0  2  0  0  0  0  0  0
  1 10  1  6  0  0  0
  1 11  1  0  0  0  0
  3  9  2  0  0  0  0
  3 15  1  0  0  0  0
  4  7  1  0  0  0  0
  5  3  1  0  0  0  0
  6  8  1  0  0  0  0
  7  9  1  0  0  0  0
  8  2  1  1  0  0  0
  8  4  1  0  0  0  0
 10  6  1  0  0  0  0
 11  4  1  0  0  0  0
 11  5  2  0  0  0  0
 12 15  2  0  0  0  0
 12 20  1  0  0  0  0
 14 17  2  0  0  0  0
 15 18  1  0  0  0  0
 17 13  1  0  0  0  0
 18 16  1  0  0  0  0
 18 13  2  0  0  0  0
 19 14  1  0  0  0  0
 20 14  1  0  0  0  0
 21 22  1  6  0  0  0
 21  1  1  0  0  0  0
 23 28  1  0  0  0  0
 23 26  1  0  0  0  0
 24 22  2  0  0  0  0
 26 21  1  0  0  0  0
 26 25  1  1  0  0  0
 27 23  1  0  0  0  0
 28 24  1  0  0  0  0
M  END
>  <MODEL>
7

>  <REMARK>
 VINA RESULT:      -7.0      3.421      5.181
  Name = 
  2 active torsions:
  status: ('A' for Active; 'I' for Inactive)
    1  A    between atoms: C_1  and  C_2
    2  A    between atoms: C_10  and  C_13
                            x       y       z     vdW  Elec       q    Type
                         _______ _______ _______ _____ _____    ______ ____

>  <TORSDO>
F 2

$$$$
=
 OpenBabel11052413223D

 28 31  0  0  1  0  0  0  0  0999 V2000
  181.5800  176.9700  140.0200 C   0  0  2  0  0  3  0  0  0  0  0  0
  179.6820  180.3830  141.8430 C   0  0  0  0  0  1  0  0  0  0  0  0
  184.2160  178.3360  142.4400 C   0  0  0  0  0  0  0  0  0  0  0  0
  181.4610  178.6880  141.9360 N   0  0  0  0  0  0  0  0  0  0  0  0
  183.5200  177.5630  141.3890 C   0  0  0  0  0  3  0  0  0  0  0  0
  179.5750  178.4410  140.3220 C   0  0  0  0  0  2  0  0  0  0  0  0
  181.9920  179.1110  143.2370 C   0  0  0  0  0  2  0  0  0  0  0  0
  180.0260  178.9100  141.7010 C   0  0  2  0  0  3  0  0  0  0  0  0
  183.4940  179.0960  143.2710 C   0  0  0  0  0  3  0  0  0  0  0  0
  180.0520  177.0220  140.0730 C   0  0  0  0  0  2  0  0  0  0  0  0
  182.2160  177.7330  141.1520 C   0  0  0  0  0  0  0  0  0  0  0  0
  186.4280  178.6280  141.4840 C   0  0  0  0  0  3  0  0  0  0  0  0
  187.4410  177.1260  143.9470 C   0  0  0  0  0  3  0  0  0  0  0  0
  188.4830  177.3050  141.6940 C   0  0  0  0  0  0  0  0  0  0  0  0
  185.6990  178.2800  142.5550 C   0  0  0  0  0  0  0  0  0  0  0  0
  185.7050  178.1980  145.0030 F   0  0  0  0  0  0  0  0  0  0  0  0
  188.2990  176.6560  142.8430 C   0  0  0  0  0  3  0  0  0  0  0  0
  186.3360  177.8790  143.8460 C   0  0  0  0  0  0  0  0  0  0  0  0
  189.2850  176.7590  140.7500 F   0  0  0  0  0  0  0  0  0  0  0  0
  187.9190  178.6660  141.4640 C   0  0  0  0  0  2  0  0  0  0  0  0
  182.1630  177.3550  138.6470 C   0  0  2  0  0  3  0  0  0  0  0  0
  181.4220  178.4840  137.9880 C   0  0  0  0  0  3  0  0  0  0  0  0
  182.4510  176.4480  136.2760 N   0  0  0  0  0  0  0  0  0  0  0  0
  181.6570  178.7400  136.7040 C   0  0  0  0  0  3  0  0  0  0  0  0
  183.4310  175.2420  138.1640 C   0  0  0  0  0  1  0  0  0  0  0  0
  182.2870  176.1310  137.7110 C   0  0  1  0  0  3  0  0  0  0  0  0
  181.0050  175.8790  135.4300 S   0  0  0  0  0  1  0  0  0  0  0  0
  182.6430  177.8760  135.9720 C   0  0  0  0  0  2  0  0  0  0  0  0
  1 10  1  6  0  0  0
  1 11  1  0  0  0  0
  3 15  1  0  0  0  0
  3  9  2  0  0  0  0
  4  7  1  0  0  0  0
  5  3  1  0  0  0  0
  6  8  1  0  0  0  0
  7  9  1  0  0  0  0
  8  2  1  6  0  0  0
  8  4  1  0  0  0  0
 10  6  1  0  0  0  0
 11  5  2  0  0  0  0
 11  4  1  0  0  0  0
 12 15  2  0  0  0  0
 14 17  2  0  0  0  0
 15 18  1  0  0  0  0
 17 13  1  0  0  0  0
 18 13  2  0  0  0  0
 18 16  1  0  0  0  0
 19 14  1  0  0  0  0
 20 12  1  0  0  0  0
 20 14  1  0  0  0  0
 21 22  1  6  0  0  0
 21  1  1  0  0  0  0
 23 26  1  0  0  0  0
 24 22  2  0  0  0  0
 26 25  1  1  0  0  0
 26 21  1  0  0  0  0
 27 23  1  0  0  0  0
 28 23  1  0  0  0  0
 28 24  1  0  0  0  0
M  END
>  <MODEL>
8

>  <REMARK>
 VINA RESULT:      -6.9      2.327      4.554
  Name = 
  2 active torsions:
  status: ('A' for Active; 'I' for Inactive)
    1  A    between atoms: C_1  and  C_2
    2  A    between atoms: C_10  and  C_13
                            x       y       z     vdW  Elec       q    Type
                         _______ _______ _______ _____ _____    ______ ____

>  <TORSDO>
F 2

$$$$
=
 OpenBabel11052413223D

 28 31  0  0  1  0  0  0  0  0999 V2000
  188.7720  178.0710  139.2270 C   0  0  2  0  0  3  0  0  0  0  0  0
  189.6380  175.9730  142.8900 C   0  0  0  0  0  1  0  0  0  0  0  0
  185.6160  178.5320  141.3480 C   0  0  0  0  0  0  0  0  0  0  0  0
  188.2710  177.6470  141.7180 N   0  0  0  0  0  0  0  0  0  0  0  0
  186.5910  178.5340  140.2370 C   0  0  0  0  0  3  0  0  0  0  0  0
  190.3560  176.7700  140.6670 C   0  0  0  0  0  2  0  0  0  0  0  0
  187.5000  178.0520  142.8990 C   0  0  0  0  0  2  0  0  0  0  0  0
  189.6420  177.1680  141.9530 C   0  0  2  0  0  3  0  0  0  0  0  0
  186.0440  178.2570  142.5860 C   0  0  0  0  0  3  0  0  0  0  0  0
  190.2320  177.8780  139.6370 C   0  0  0  0  0  2  0  0  0  0  0  0
  187.8470  178.1130  140.4150 C   0  0  0  0  0  0  0  0  0  0  0  0
  183.3070  178.6280  142.0890 C   0  0  0  0  0  3  0  0  0  0  0  0
  182.6100  178.9550  139.1310 C   0  0  0  0  0  3  0  0  0  0  0  0
  181.2070  178.0320  140.9680 C   0  0  0  0  0  0  0  0  0  0  0  0
  184.1780  178.8120  141.0860 C   0  0  0  0  0  0  0  0  0  0  0  0
  184.5960  180.1060  139.0500 F   0  0  0  0  0  0  0  0  0  0  0  0
  181.5300  178.1110  139.6780 C   0  0  0  0  0  3  0  0  0  0  0  0
  183.7440  179.3150  139.7480 C   0  0  0  0  0  0  0  0  0  0  0  0
  180.2050  177.2040  141.3480 F   0  0  0  0  0  0  0  0  0  0  0  0
  181.8450  178.9100  141.9910 C   0  0  0  0  0  2  0  0  0  0  0  0
  188.3000  177.0820  138.1450 C   0  0  2  0  0  3  0  0  0  0  0  0
  189.1940  175.8810  138.0140 C   0  0  0  0  0  3  0  0  0  0  0  0
  188.0180  176.8770  135.6140 N   0  0  0  0  0  0  0  0  0  0  0  0
  189.0480  175.0870  136.9560 C   0  0  0  0  0  3  0  0  0  0  0  0
  186.8210  178.6280  136.8310 C   0  0  0  0  0  1  0  0  0  0  0  0
  188.0790  177.7800  136.7840 C   0  0  1  0  0  3  0  0  0  0  0  0
  189.4260  177.2150  134.5970 S   0  0  0  0  0  1  0  0  0  0  0  0
  188.0040  175.4400  135.9370 C   0  0  0  0  0  2  0  0  0  0  0  0
  1 10  1  1  0  0  0
  1 11  1  0  0  0  0
  3  9  2  0  0  0  0
  4  8  1  0  0  0  0
  4  7  1  0  0  0  0
  5 11  2  0  0  0  0
  5  3  1  0  0  0  0
  6  8  1  0  0  0  0
  8  2  1  1  0  0  0
  9  7  1  0  0  0  0
 10  6  1  0  0  0  0
 11  4  1  0  0  0  0
 13 17  1  0  0  0  0
 13 18  2  0  0  0  0
 14 19  1  0  0  0  0
 14 20  1  0  0  0  0
 15  3  1  0  0  0  0
 15 12  2  0  0  0  0
 16 18  1  0  0  0  0
 17 14  2  0  0  0  0
 18 15  1  0  0  0  0
 20 12  1  0  0  0  0
 21 22  1  6  0  0  0
 21  1  1  0  0  0  0
 23 28  1  0  0  0  0
 23 26  1  0  0  0  0
 24 22  2  0  0  0  0
 26 25  1  1  0  0  0
 26 21  1  0  0  0  0
 27 23  1  0  0  0  0
 28 24  1  0  0  0  0
M  END
>  <MODEL>
9

>  <REMARK>
 VINA RESULT:      -6.9      4.030      6.813
  Name = 
  2 active torsions:
  status: ('A' for Active; 'I' for Inactive)
    1  A    between atoms: C_1  and  C_2
    2  A    between atoms: C_10  and  C_13
                            x       y       z     vdW  Elec       q    Type
                         _______ _______ _______ _____ _____    ______ ____

>  <TORSDO>
F 2

$$$$
