=
 OpenBabel11052415143D

 37 43  0  0  1  0  0  0  0  0999 V2000
  187.6030  178.3430  142.3340 C   0  0  0  0  0  2  0  0  0  0  0  0
  189.7310  177.4280  137.2970 C   0  0  2  0  0  3  0  0  0  0  0  0
  185.3970  177.9270  138.0100 C   0  0  1  0  0  3  0  0  0  0  0  0
  187.8460  177.5770  143.6370 C   0  0  2  0  0  3  0  0  0  0  0  0
  183.2800  178.5690  140.9800 O   0  0  0  0  0  0  0  0  0  0  0  0
  187.3240  176.3480  137.4590 C   0  0  1  0  0  3  0  0  0  0  0  0
  185.0280  177.9390  139.4690 C   0  0  2  0  0  3  0  0  0  0  0  0
  186.8890  177.6860  137.9950 C   0  0  2  0  0  3  0  0  0  0  0  0
  183.8980  178.9260  139.7760 C   0  0  1  0  0  3  0  0  0  0  0  0
  186.6590  176.0750  136.1310 C   0  0  0  0  0  2  0  0  0  0  0  0
  186.5650  177.2410  144.4190 C   0  0  0  0  0  2  0  0  0  0  0  0
  187.4020  177.7950  139.3560 N   0  0  1  0  0  0  0  0  0  0  0  0
  189.3520  178.7440  138.0220 C   0  0  0  0  0  2  0  0  0  0  0  0
  183.1990  176.6320  137.7540 C   0  0  0  0  0  2  0  0  0  0  0  0
  185.1780  175.8560  136.4310 C   0  0  0  0  0  2  0  0  0  0  0  0
  188.6080  178.6390  139.3800 C   0  0  0  0  0  2  0  0  0  0  0  0
  185.3320  178.0490  143.9950 C   0  0  2  0  0  3  0  0  0  0  0  0
  184.0970  179.0950  141.9900 C   0  0  0  0  0  2  0  0  0  0  0  0
  184.4950  177.0820  137.0640 C   0  0  2  0  0  3  0  0  0  0  0  0
  186.3150  178.3620  140.1620 C   0  0  2  0  0  3  0  0  0  0  0  0
  188.8520  176.1730  137.4980 C   0  0  0  0  0  2  0  0  0  0  0  0
  182.8750  179.0670  138.6280 C   0  0  1  0  0  3  0  0  0  0  0  0
  191.1720  177.0800  137.6020 C   0  0  0  0  0  1  0  0  0  0  0  0
  185.0860  178.0260  142.4690 C   0  0  1  0  0  3  0  0  0  0  0  0
  186.3680  177.8230  141.6070 C   0  0  2  0  0  3  0  0  0  0  0  0
  182.2280  177.7690  138.1130 C   0  0  0  0  0  2  0  0  0  0  0  0
  181.8810  181.3490  138.1930 C   0  0  0  0  0  3  0  0  0  0  0  0
  181.8620  180.1350  138.8960 C   0  0  0  0  0  0  0  0  0  0  0  0
  180.8630  179.9040  139.8480 C   0  0  0  0  0  3  0  0  0  0  0  0
  178.9310  180.6510  141.0290 F   0  0  0  0  0  0  0  0  0  0  0  0
  179.9200  182.0900  139.4050 C   0  0  0  0  0  3  0  0  0  0  0  0
  179.8950  180.8790  140.1050 C   0  0  0  0  0  0  0  0  0  0  0  0
  180.9130  182.3240  138.4490 C   0  0  0  0  0  3  0  0  0  0  0  0
  185.2340  179.4160  144.6900 C   0  0  0  0  0  2  0  0  0  0  0  0
  185.5710  179.3690  146.1700 C   0  0  0  0  0  1  0  0  0  0  0  0
  188.8270  177.5440  145.6200 C   0  0  0  0  0  1  0  0  0  0  0  0
  188.7240  178.2980  144.4490 O   0  0  0  0  0  0  0  0  0  0  0  0
  1  4  1  0  0  0  0
  2 21  1  0  0  0  0
  2 23  1  1  0  0  0
  2 13  1  0  0  0  0
  3  7  1  0  0  0  0
  4 11  1  0  0  0  0
  4 37  1  0  0  0  0
  5 18  1  0  0  0  0
  6 21  1  0  0  0  0
  6  8  1  0  0  0  0
  7  9  1  0  0  0  0
  7 20  1  0  0  0  0
  8  3  1  0  0  0  0
  8 12  1  0  0  0  0
  9  5  1  0  0  0  0
 10 15  1  0  0  0  0
 10  6  1  0  0  0  0
 12 16  1  0  0  0  0
 12 20  1  0  0  0  0
 13 16  1  0  0  0  0
 14 26  1  0  0  0  0
 15 19  1  0  0  0  0
 17 11  1  0  0  0  0
 17 34  1  0  0  0  0
 18 24  1  0  0  0  0
 19 14  1  0  0  0  0
 19  3  1  0  0  0  0
 20 25  1  0  0  0  0
 22 28  1  0  0  0  0
 22  9  1  0  0  0  0
 24 17  1  0  0  0  0
 25  1  1  0  0  0  0
 25 24  1  0  0  0  0
 26 22  1  0  0  0  0
 27 33  2  0  0  0  0
 27 28  1  0  0  0  0
 28 29  2  0  0  0  0
 29 32  1  0  0  0  0
 31 32  2  0  0  0  0
 32 30  1  0  0  0  0
 33 31  1  0  0  0  0
 34 35  1  0  0  0  0
 37 36  1  0  0  0  0
M  END
>  <MODEL>
1

>  <REMARK>
 VINA RESULT:      -7.4      0.000      0.000
  Name = 
  3 active torsions:
  status: ('A' for Active; 'I' for Inactive)
    1  A    between atoms: C_5  and  O_23
    2  A    between atoms: C_6  and  C_31
    3  A    between atoms: C_11  and  C_26
                            x       y       z     vdW  Elec       q    Type
                         _______ _______ _______ _____ _____    ______ ____

>  <TORSDO>
F 3

$$$$
=
 OpenBabel11052415143D

 37 43  0  0  1  0  0  0  0  0999 V2000
  187.5600  178.3600  142.3030 C   0  0  0  0  0  2  0  0  0  0  0  0
  189.6670  177.4420  137.2580 C   0  0  2  0  0  3  0  0  0  0  0  0
  185.3340  177.9160  137.9930 C   0  0  1  0  0  3  0  0  0  0  0  0
  187.8150  177.5990  143.6080 C   0  0  2  0  0  3  0  0  0  0  0  0
  183.2280  178.5540  140.9720 O   0  0  0  0  0  0  0  0  0  0  0  0
  187.2680  176.3470  137.4360 C   0  0  1  0  0  3  0  0  0  0  0  0
  184.9720  177.9300  139.4530 C   0  0  2  0  0  3  0  0  0  0  0  0
  186.8280  177.6850  137.9700 C   0  0  2  0  0  3  0  0  0  0  0  0
  183.8380  178.9110  139.7630 C   0  0  1  0  0  3  0  0  0  0  0  0
  186.5970  176.0660  136.1130 C   0  0  0  0  0  2  0  0  0  0  0  0
  186.5400  177.2580  144.3980 C   0  0  0  0  0  2  0  0  0  0  0  0
  187.3460  177.8010  139.3280 N   0  0  1  0  0  0  0  0  0  0  0  0
  189.2840  178.7580  137.9810 C   0  0  0  0  0  2  0  0  0  0  0  0
  183.1430  176.6060  137.7530 C   0  0  0  0  0  2  0  0  0  0  0  0
  185.1200  175.8380  136.4210 C   0  0  0  0  0  2  0  0  0  0  0  0
  188.5480  178.6520  139.3430 C   0  0  0  0  0  2  0  0  0  0  0  0
  185.3000  178.0560  143.9780 C   0  0  2  0  0  3  0  0  0  0  0  0
  184.0480  179.0880  141.9750 C   0  0  0  0  0  2  0  0  0  0  0  0
  184.4330  177.0620  137.0550 C   0  0  2  0  0  3  0  0  0  0  0  0
  186.2610  178.3630  140.1390 C   0  0  2  0  0  3  0  0  0  0  0  0
  188.7970  176.1820  137.4680 C   0  0  0  0  0  2  0  0  0  0  0  0
  182.8080  179.0420  138.6200 C   0  0  1  0  0  3  0  0  0  0  0  0
  191.1120  177.1040  137.5570 C   0  0  0  0  0  1  0  0  0  0  0  0
  185.0460  178.0270  142.4530 C   0  0  1  0  0  3  0  0  0  0  0  0
  186.3250  177.8300  141.5850 C   0  0  2  0  0  3  0  0  0  0  0  0
  182.1660  177.7380  138.1130 C   0  0  0  0  0  2  0  0  0  0  0  0
  180.7750  179.9150  139.8400 C   0  0  0  0  0  3  0  0  0  0  0  0
  181.7890  180.1040  138.8900 C   0  0  0  0  0  0  0  0  0  0  0  0
  181.8690  181.3170  138.1970 C   0  0  0  0  0  3  0  0  0  0  0  0
  181.0180  183.5030  137.7670 F   0  0  0  0  0  0  0  0  0  0  0  0
  179.9270  182.1360  139.3880 C   0  0  0  0  0  3  0  0  0  0  0  0
  180.9390  182.3310  138.4430 C   0  0  0  0  0  0  0  0  0  0  0  0
  179.8450  180.9290  140.0870 C   0  0  0  0  0  3  0  0  0  0  0  0
  185.1970  179.4250  144.6690 C   0  0  0  0  0  2  0  0  0  0  0  0
  185.5360  179.3840  146.1490 C   0  0  0  0  0  1  0  0  0  0  0  0
  188.8170  177.5720  145.5810 C   0  0  0  0  0  1  0  0  0  0  0  0
  188.6920  178.3280  144.4130 O   0  0  0  0  0  0  0  0  0  0  0  0
  1  4  1  0  0  0  0
  2 21  1  0  0  0  0
  2 23  1  1  0  0  0
  2 13  1  0  0  0  0
  3  7  1  0  0  0  0
  4 11  1  0  0  0  0
  4 37  1  0  0  0  0
  5 18  1  0  0  0  0
  6 21  1  0  0  0  0
  6  8  1  0  0  0  0
  7  9  1  0  0  0  0
  7 20  1  0  0  0  0
  8  3  1  0  0  0  0
  8 12  1  0  0  0  0
  9  5  1  0  0  0  0
 10 15  1  0  0  0  0
 10  6  1  0  0  0  0
 12 16  1  0  0  0  0
 12 20  1  0  0  0  0
 13 16  1  0  0  0  0
 14 26  1  0  0  0  0
 15 19  1  0  0  0  0
 17 11  1  0  0  0  0
 17 34  1  0  0  0  0
 18 24  1  0  0  0  0
 19 14  1  0  0  0  0
 19  3  1  0  0  0  0
 20 25  1  0  0  0  0
 22 28  1  0  0  0  0
 22  9  1  0  0  0  0
 24 17  1  0  0  0  0
 25  1  1  0  0  0  0
 25 24  1  0  0  0  0
 26 22  1  0  0  0  0
 27 33  1  0  0  0  0
 28 27  2  0  0  0  0
 29 32  2  0  0  0  0
 29 28  1  0  0  0  0
 30 32  1  0  0  0  0
 31 33  2  0  0  0  0
 32 31  1  0  0  0  0
 34 35  1  0  0  0  0
 37 36  1  0  0  0  0
M  END
>  <MODEL>
2

>  <REMARK>
 VINA RESULT:      -7.4      0.793      1.123
  Name = 
  3 active torsions:
  status: ('A' for Active; 'I' for Inactive)
    1  A    between atoms: C_5  and  O_23
    2  A    between atoms: C_6  and  C_31
    3  A    between atoms: C_11  and  C_26
                            x       y       z     vdW  Elec       q    Type
                         _______ _______ _______ _____ _____    ______ ____

>  <TORSDO>
F 3

$$$$
=
 OpenBabel11052415143D

 37 43  0  0  1  0  0  0  0  0999 V2000
  182.5750  177.3170  140.1790 C   0  0  0  0  0  2  0  0  0  0  0  0
  183.4500  175.1050  135.1710 C   0  0  2  0  0  3  0  0  0  0  0  0
  186.6310  177.1220  137.4870 C   0  0  1  0  0  3  0  0  0  0  0  0
  181.4760  178.2860  140.6270 C   0  0  2  0  0  3  0  0  0  0  0  0
  186.8270  178.7730  140.7960 O   0  0  0  0  0  0  0  0  0  0  0  0
  185.0220  177.2040  135.5070 C   0  0  1  0  0  3  0  0  0  0  0  0
  186.1200  177.8400  138.7060 C   0  0  2  0  0  3  0  0  0  0  0  0
  185.3920  176.5670  136.8210 C   0  0  2  0  0  3  0  0  0  0  0  0
  187.0860  177.7380  139.8900 C   0  0  1  0  0  3  0  0  0  0  0  0
  186.2230  177.2510  134.5930 C   0  0  0  0  0  2  0  0  0  0  0  0
  181.9840  179.4750  141.4600 C   0  0  0  0  0  2  0  0  0  0  0  0
  184.2550  176.7370  137.7190 N   0  0  1  0  0  0  0  0  0  0  0  0
  183.6650  174.5300  136.5940 C   0  0  0  0  0  2  0  0  0  0  0  0
  188.2160  179.1300  137.3170 C   0  0  0  0  0  2  0  0  0  0  0  0
  187.1860  178.2670  135.2040 C   0  0  0  0  0  2  0  0  0  0  0  0
  183.4810  175.4860  137.8020 C   0  0  0  0  0  2  0  0  0  0  0  0
  183.3950  179.2920  142.0320 C   0  0  2  0  0  3  0  0  0  0  0  0
  185.7410  178.3320  141.5650 C   0  0  0  0  0  2  0  0  0  0  0  0
  187.6720  177.8780  136.6120 C   0  0  2  0  0  3  0  0  0  0  0  0
  184.8100  177.1300  139.0190 C   0  0  2  0  0  3  0  0  0  0  0  0
  183.7410  176.6000  134.9080 C   0  0  0  0  0  2  0  0  0  0  0  0
  188.5710  177.7040  139.4700 C   0  0  1  0  0  3  0  0  0  0  0  0
  182.0490  174.7800  134.7010 C   0  0  0  0  0  1  0  0  0  0  0  0
  184.4310  178.8620  140.9690 C   0  0  1  0  0  3  0  0  0  0  0  0
  183.8380  178.0660  139.7680 C   0  0  2  0  0  3  0  0  0  0  0  0
  189.0630  178.8510  138.5690 C   0  0  0  0  0  2  0  0  0  0  0  0
  190.8710  177.6610  140.5170 C   0  0  0  0  0  3  0  0  0  0  0  0
  189.4860  177.4670  140.6310 C   0  0  0  0  0  0  0  0  0  0  0  0
  188.9430  177.0680  141.8570 C   0  0  0  0  0  3  0  0  0  0  0  0
  189.2450  176.4670  144.1440 F   0  0  0  0  0  0  0  0  0  0  0  0
  191.1550  177.0460  142.8410 C   0  0  0  0  0  3  0  0  0  0  0  0
  189.7750  176.8560  142.9600 C   0  0  0  0  0  0  0  0  0  0  0  0
  191.7030  177.4490  141.6200 C   0  0  0  0  0  3  0  0  0  0  0  0
  183.4140  178.5260  143.3640 C   0  0  0  0  0  2  0  0  0  0  0  0
  183.7990  179.3880  144.5540 C   0  0  0  0  0  1  0  0  0  0  0  0
  179.7300  178.5800  141.9540 C   0  0  0  0  0  1  0  0  0  0  0  0
  180.4980  177.5890  141.3390 O   0  0  0  0  0  0  0  0  0  0  0  0
  1  4  1  0  0  0  0
  2 23  1  1  0  0  0
  2 13  1  0  0  0  0
  3  7  1  0  0  0  0
  4 37  1  0  0  0  0
  4 11  1  0  0  0  0
  5 18  1  0  0  0  0
  6  8  1  0  0  0  0
  7 20  1  0  0  0  0
  7  9  1  0  0  0  0
  8  3  1  0  0  0  0
  8 12  1  0  0  0  0
  9  5  1  0  0  0  0
 10 15  1  0  0  0  0
 10  6  1  0  0  0  0
 11 17  1  0  0  0  0
 12 16  1  0  0  0  0
 12 20  1  0  0  0  0
 13 16  1  0  0  0  0
 14 26  1  0  0  0  0
 15 19  1  0  0  0  0
 17 34  1  0  0  0  0
 19 14  1  0  0  0  0
 19  3  1  0  0  0  0
 20 25  1  0  0  0  0
 21  2  1  0  0  0  0
 21  6  1  0  0  0  0
 22  9  1  0  0  0  0
 22 28  1  0  0  0  0
 24 18  1  0  0  0  0
 24 17  1  0  0  0  0
 25  1  1  0  0  0  0
 25 24  1  0  0  0  0
 26 22  1  0  0  0  0
 27 28  2  0  0  0  0
 27 33  1  0  0  0  0
 28 29  1  0  0  0  0
 29 32  2  0  0  0  0
 31 32  1  0  0  0  0
 32 30  1  0  0  0  0
 33 31  2  0  0  0  0
 34 35  1  0  0  0  0
 37 36  1  0  0  0  0
M  END
>  <MODEL>
3

>  <REMARK>
 VINA RESULT:      -5.8      2.935      6.609
  Name = 
  3 active torsions:
  status: ('A' for Active; 'I' for Inactive)
    1  A    between atoms: C_5  and  O_23
    2  A    between atoms: C_6  and  C_31
    3  A    between atoms: C_11  and  C_26
                            x       y       z     vdW  Elec       q    Type
                         _______ _______ _______ _____ _____    ______ ____

>  <TORSDO>
F 3

$$$$
=
 OpenBabel11052415143D

 37 43  0  0  1  0  0  0  0  0999 V2000
  185.8150  175.9210  137.1320 C   0  0  0  0  0  2  0  0  0  0  0  0
  188.9840  171.6250  135.6370 C   0  0  2  0  0  3  0  0  0  0  0  0
  190.4770  174.9400  138.1520 C   0  0  1  0  0  3  0  0  0  0  0  0
  184.9410  176.8260  136.2570 C   0  0  2  0  0  3  0  0  0  0  0  0
  189.0150  178.0440  139.5460 O   0  0  0  0  0  0  0  0  0  0  0  0
  190.4750  173.7950  135.8720 C   0  0  1  0  0  3  0  0  0  0  0  0
  189.5220  176.0990  138.2430 C   0  0  2  0  0  3  0  0  0  0  0  0
  189.8070  173.9650  137.2100 C   0  0  2  0  0  3  0  0  0  0  0  0
  189.5130  176.7390  139.6340 C   0  0  1  0  0  3  0  0  0  0  0  0
  191.9510  173.5360  136.0530 C   0  0  0  0  0  2  0  0  0  0  0  0
  185.1060  178.3280  136.5420 C   0  0  0  0  0  2  0  0  0  0  0  0
  188.4410  174.4100  136.9600 N   0  0  1  0  0  0  0  0  0  0  0  0
  188.1470  171.8810  136.9170 C   0  0  0  0  0  2  0  0  0  0  0  0
  192.2630  176.7800  138.1250 C   0  0  0  0  0  2  0  0  0  0  0  0
  192.5550  174.8390  136.5700 C   0  0  0  0  0  2  0  0  0  0  0  0
  187.5050  173.2820  137.0970 C   0  0  0  0  0  2  0  0  0  0  0  0
  185.7860  178.6500  137.8780 C   0  0  2  0  0  3  0  0  0  0  0  0
  187.6200  177.9110  139.5310 C   0  0  0  0  0  2  0  0  0  0  0  0
  191.9780  175.2830  137.9260 C   0  0  2  0  0  3  0  0  0  0  0  0
  188.1680  175.4760  137.9300 C   0  0  2  0  0  3  0  0  0  0  0  0
  189.7210  172.8060  134.9660 C   0  0  0  0  0  2  0  0  0  0  0  0
  190.8870  176.6980  140.3390 C   0  0  1  0  0  3  0  0  0  0  0  0
  188.1280  170.9220  134.6060 C   0  0  0  0  0  1  0  0  0  0  0  0
  187.1140  177.8860  138.0840 C   0  0  1  0  0  3  0  0  0  0  0  0
  187.2010  176.5210  137.3370 C   0  0  2  0  0  3  0  0  0  0  0  0
  192.0800  177.2880  139.5650 C   0  0  0  0  0  2  0  0  0  0  0  0
  191.7620  178.1230  142.2320 C   0  0  0  0  0  3  0  0  0  0  0  0
  190.8210  177.2040  141.7450 C   0  0  0  0  0  0  0  0  0  0  0  0
  189.7860  176.7680  142.5790 C   0  0  0  0  0  3  0  0  0  0  0  0
  188.6900  176.8120  144.6960 F   0  0  0  0  0  0  0  0  0  0  0  0
  190.6360  178.1520  144.3750 C   0  0  0  0  0  3  0  0  0  0  0  0
  189.6940  177.2390  143.8920 C   0  0  0  0  0  0  0  0  0  0  0  0
  191.6700  178.5940  143.5450 C   0  0  0  0  0  3  0  0  0  0  0  0
  184.8110  178.6720  139.0650 C   0  0  0  0  0  2  0  0  0  0  0  0
  183.8790  179.8720  139.0620 C   0  0  0  0  0  1  0  0  0  0  0  0
  183.6140  175.0640  136.4390 C   0  0  0  0  0  1  0  0  0  0  0  0
  183.6010  176.4600  136.3960 O   0  0  0  0  0  0  0  0  0  0  0  0
  1 25  1  0  0  0  0
  2 23  1  6  0  0  0
  2 13  1  0  0  0  0
  3  7  1  0  0  0  0
  4 37  1  0  0  0  0
  4 11  1  0  0  0  0
  4  1  1  0  0  0  0
  5  9  1  0  0  0  0
  6 10  1  0  0  0  0
  6  8  1  0  0  0  0
  7  9  1  0  0  0  0
  8  3  1  0  0  0  0
  9 22  1  0  0  0  0
 10 15  1  0  0  0  0
 11 17  1  0  0  0  0
 12 16  1  0  0  0  0
 12  8  1  0  0  0  0
 12 20  1  0  0  0  0
 13 16  1  0  0  0  0
 14 26  1  0  0  0  0
 15 19  1  0  0  0  0
 17 24  1  0  0  0  0
 17 34  1  0  0  0  0
 18  5  1  0  0  0  0
 19 14  1  0  0  0  0
 19  3  1  0  0  0  0
 20  7  1  0  0  0  0
 21  2  1  0  0  0  0
 21  6  1  0  0  0  0
 22 28  1  0  0  0  0
 24 18  1  0  0  0  0
 25 20  1  0  0  0  0
 25 24  1  0  0  0  0
 26 22  1  0  0  0  0
 27 33  1  0  0  0  0
 28 27  2  0  0  0  0
 28 29  1  0  0  0  0
 29 32  2  0  0  0  0
 32 31  1  0  0  0  0
 32 30  1  0  0  0  0
 33 31  2  0  0  0  0
 35 34  1  0  0  0  0
 37 36  1  0  0  0  0
M  END
>  <MODEL>
4

>  <REMARK>
 VINA RESULT:      -5.8      3.418      7.798
  Name = 
  3 active torsions:
  status: ('A' for Active; 'I' for Inactive)
    1  A    between atoms: C_5  and  O_23
    2  A    between atoms: C_6  and  C_31
    3  A    between atoms: C_11  and  C_26
                            x       y       z     vdW  Elec       q    Type
                         _______ _______ _______ _____ _____    ______ ____

>  <TORSDO>
F 3

$$$$
=
 OpenBabel11052415143D

 37 43  0  0  1  0  0  0  0  0999 V2000
  182.1870  177.6800  136.6280 C   0  0  0  0  0  2  0  0  0  0  0  0
  179.9570  182.7250  137.1900 C   0  0  2  0  0  3  0  0  0  0  0  0
  181.3000  180.3050  140.6370 C   0  0  1  0  0  3  0  0  0  0  0  0
  181.6630  176.4760  135.8410 C   0  0  2  0  0  3  0  0  0  0  0  0
  182.8570  176.9710  141.0590 O   0  0  0  0  0  0  0  0  0  0  0  0
  179.3450  181.2400  139.2890 C   0  0  1  0  0  3  0  0  0  0  0  0
  181.6600  178.8900  140.2710 C   0  0  2  0  0  3  0  0  0  0  0  0
  180.8160  180.9230  139.3440 C   0  0  2  0  0  3  0  0  0  0  0  0
  182.8620  178.3710  141.0650 C   0  0  1  0  0  3  0  0  0  0  0  0
  178.9310  182.0150  140.5170 C   0  0  0  0  0  2  0  0  0  0  0  0
  181.7060  175.1480  136.6160 C   0  0  0  0  0  2  0  0  0  0  0  0
  181.1050  180.0100  138.2440 N   0  0  1  0  0  0  0  0  0  0  0  0
  181.4350  182.2640  137.1080 C   0  0  0  0  0  2  0  0  0  0  0  0
  180.3630  179.2180  142.7610 C   0  0  0  0  0  2  0  0  0  0  0  0
  179.0240  181.0420  141.6890 C   0  0  0  0  0  2  0  0  0  0  0  0
  181.7240  180.7400  137.1260 C   0  0  0  0  0  2  0  0  0  0  0  0
  182.6070  175.1660  137.8570 C   0  0  2  0  0  3  0  0  0  0  0  0
  183.4280  176.6010  139.8340 C   0  0  0  0  0  2  0  0  0  0  0  0
  180.4470  180.5020  141.9230 C   0  0  2  0  0  3  0  0  0  0  0  0
  181.9910  178.9750  138.7870 C   0  0  2  0  0  3  0  0  0  0  0  0
  178.9310  181.8440  137.9370 C   0  0  0  0  0  2  0  0  0  0  0  0
  182.9420  178.9360  142.4990 C   0  0  1  0  0  3  0  0  0  0  0  0
  179.4410  183.0180  135.7970 C   0  0  0  0  0  1  0  0  0  0  0  0
  182.3250  176.3610  138.7960 C   0  0  1  0  0  3  0  0  0  0  0  0
  181.7470  177.6230  138.0870 C   0  0  2  0  0  3  0  0  0  0  0  0
  181.6940  178.7630  143.3830 C   0  0  0  0  0  2  0  0  0  0  0  0
  185.3610  178.2040  142.4930 C   0  0  0  0  0  3  0  0  0  0  0  0
  184.1950  178.5230  143.2060 C   0  0  0  0  0  0  0  0  0  0  0  0
  184.2060  178.4790  144.6040 C   0  0  0  0  0  3  0  0  0  0  0  0
  185.3750  178.0690  146.6410 F   0  0  0  0  0  0  0  0  0  0  0  0
  186.5280  177.7910  144.5730 C   0  0  0  0  0  3  0  0  0  0  0  0
  185.3690  178.1120  145.2870 C   0  0  0  0  0  0  0  0  0  0  0  0
  186.5230  177.8380  143.1760 C   0  0  0  0  0  3  0  0  0  0  0  0
  184.0810  174.8700  137.5390 C   0  0  0  0  0  2  0  0  0  0  0  0
  184.4880  173.4360  137.8300 C   0  0  0  0  0  1  0  0  0  0  0  0
  183.3790  177.3180  134.7250 C   0  0  0  0  0  1  0  0  0  0  0  0
  182.3740  176.3520  134.6460 O   0  0  0  0  0  0  0  0  0  0  0  0
  1 25  1  0  0  0  0
  2 23  1  6  0  0  0
  2 21  1  0  0  0  0
  3 19  1  0  0  0  0
  4 11  1  0  0  0  0
  4  1  1  0  0  0  0
  5  9  1  0  0  0  0
  6  8  1  0  0  0  0
  6 10  1  0  0  0  0
  7  3  1  0  0  0  0
  7  9  1  0  0  0  0
  8  3  1  0  0  0  0
  9 22  1  0  0  0  0
 10 15  1  0  0  0  0
 11 17  1  0  0  0  0
 12 20  1  0  0  0  0
 12  8  1  0  0  0  0
 13 16  1  0  0  0  0
 13  2  1  0  0  0  0
 14 26  1  0  0  0  0
 15 19  1  0  0  0  0
 16 12  1  0  0  0  0
 17 24  1  0  0  0  0
 18  5  1  0  0  0  0
 19 14  1  0  0  0  0
 20  7  1  0  0  0  0
 21  6  1  0  0  0  0
 22 28  1  0  0  0  0
 22 26  1  0  0  0  0
 24 18  1  0  0  0  0
 25 20  1  0  0  0  0
 25 24  1  0  0  0  0
 27 33  2  0  0  0  0
 27 28  1  0  0  0  0
 28 29  2  0  0  0  0
 29 32  1  0  0  0  0
 31 32  2  0  0  0  0
 32 30  1  0  0  0  0
 33 31  1  0  0  0  0
 34 35  1  0  0  0  0
 34 17  1  0  0  0  0
 37 36  1  0  0  0  0
 37  4  1  0  0  0  0
M  END
>  <MODEL>
5

>  <REMARK>
 VINA RESULT:      -5.5      3.484      8.074
  Name = 
  3 active torsions:
  status: ('A' for Active; 'I' for Inactive)
    1  A    between atoms: C_5  and  O_23
    2  A    between atoms: C_6  and  C_31
    3  A    between atoms: C_11  and  C_26
                            x       y       z     vdW  Elec       q    Type
                         _______ _______ _______ _____ _____    ______ ____

>  <TORSDO>
F 3

$$$$
=
 OpenBabel11052415143D

 37 43  0  0  1  0  0  0  0  0999 V2000
  186.6890  176.6430  137.2930 C   0  0  0  0  0  2  0  0  0  0  0  0
  191.2110  173.7040  136.0100 C   0  0  2  0  0  3  0  0  0  0  0  0
  190.9260  176.1890  139.6550 C   0  0  1  0  0  3  0  0  0  0  0  0
  185.8970  177.6250  136.4240 C   0  0  2  0  0  3  0  0  0  0  0  0
  188.3240  178.3480  141.1660 O   0  0  0  0  0  0  0  0  0  0  0  0
  191.9100  175.8910  137.3200 C   0  0  1  0  0  3  0  0  0  0  0  0
  189.7060  177.0690  139.6860 C   0  0  2  0  0  3  0  0  0  0  0  0
  190.8580  175.4860  138.3180 C   0  0  2  0  0  3  0  0  0  0  0  0
  189.1130  177.1950  141.0920 C   0  0  1  0  0  3  0  0  0  0  0  0
  193.2790  175.8430  137.9540 C   0  0  0  0  0  2  0  0  0  0  0  0
  185.5510  178.9500  137.1240 C   0  0  0  0  0  2  0  0  0  0  0  0
  189.5590  175.7490  137.7100 N   0  0  1  0  0  0  0  0  0  0  0  0
  189.9980  173.3700  136.9150 C   0  0  0  0  0  2  0  0  0  0  0  0
  192.0620  178.2070  140.7540 C   0  0  0  0  0  2  0  0  0  0  0  0
  193.3210  176.9800  138.9710 C   0  0  0  0  0  2  0  0  0  0  0  0
  188.9720  174.4980  137.2020 C   0  0  0  0  0  2  0  0  0  0  0  0
  185.6920  178.9170  138.6510 C   0  0  2  0  0  3  0  0  0  0  0  0
  187.0880  177.9920  140.6100 C   0  0  0  0  0  2  0  0  0  0  0  0
  192.2710  176.8390  140.0890 C   0  0  2  0  0  3  0  0  0  0  0  0
  188.7310  176.3650  138.7520 C   0  0  2  0  0  3  0  0  0  0  0  0
  191.7580  175.1500  135.9810 C   0  0  0  0  0  2  0  0  0  0  0  0
  190.1740  177.1550  142.2130 C   0  0  1  0  0  3  0  0  0  0  0  0
  190.9240  173.2520  134.5940 C   0  0  0  0  0  1  0  0  0  0  0  0
  187.0570  178.3670  139.1230 C   0  0  1  0  0  3  0  0  0  0  0  0
  187.7320  177.3670  138.1370 C   0  0  2  0  0  3  0  0  0  0  0  0
  191.3320  178.1650  142.1070 C   0  0  0  0  0  2  0  0  0  0  0  0
  190.3570  177.1700  144.7330 C   0  0  0  0  0  3  0  0  0  0  0  0
  189.5610  177.1420  143.5780 C   0  0  0  0  0  0  0  0  0  0  0  0
  188.1670  177.1250  143.6990 C   0  0  0  0  0  3  0  0  0  0  0  0
  186.2210  177.1090  145.0760 F   0  0  0  0  0  0  0  0  0  0  0  0
  188.3680  177.1530  146.1120 C   0  0  0  0  0  3  0  0  0  0  0  0
  187.5710  177.1280  144.9630 C   0  0  0  0  0  0  0  0  0  0  0  0
  189.7610  177.1750  145.9970 C   0  0  0  0  0  3  0  0  0  0  0  0
  184.4440  178.3730  139.3630 C   0  0  0  0  0  2  0  0  0  0  0  0
  183.3160  179.3850  139.4660 C   0  0  0  0  0  1  0  0  0  0  0  0
  185.1500  176.1820  134.9220 C   0  0  0  0  0  1  0  0  0  0  0  0
  184.7310  177.0110  135.9650 O   0  0  0  0  0  0  0  0  0  0  0  0
  1 25  1  0  0  0  0
  2 23  1  6  0  0  0
  2 13  1  0  0  0  0
  3  7  1  0  0  0  0
  3 19  1  0  0  0  0
  4 11  1  0  0  0  0
  4  1  1  0  0  0  0
  6 10  1  0  0  0  0
  6  8  1  0  0  0  0
  7  9  1  0  0  0  0
  8  3  1  0  0  0  0
  9  5  1  0  0  0  0
  9 22  1  0  0  0  0
 10 15  1  0  0  0  0
 11 17  1  0  0  0  0
 12  8  1  0  0  0  0
 12 20  1  0  0  0  0
 13 16  1  0  0  0  0
 14 26  1  0  0  0  0
 15 19  1  0  0  0  0
 16 12  1  0  0  0  0
 17 24  1  0  0  0  0
 17 34  1  0  0  0  0
 18  5  1  0  0  0  0
 19 14  1  0  0  0  0
 20  7  1  0  0  0  0
 21  2  1  0  0  0  0
 21  6  1  0  0  0  0
 22 28  1  0  0  0  0
 24 18  1  0  0  0  0
 25 20  1  0  0  0  0
 25 24  1  0  0  0  0
 26 22  1  0  0  0  0
 27 33  1  0  0  0  0
 28 29  1  0  0  0  0
 28 27  2  0  0  0  0
 29 32  2  0  0  0  0
 32 30  1  0  0  0  0
 32 31  1  0  0  0  0
 33 31  2  0  0  0  0
 34 35  1  0  0  0  0
 36 37  1  0  0  0  0
 37  4  1  0  0  0  0
M  END
>  <MODEL>
6

>  <REMARK>
 VINA RESULT:      -5.4      2.781      7.405
  Name = 
  3 active torsions:
  status: ('A' for Active; 'I' for Inactive)
    1  A    between atoms: C_5  and  O_23
    2  A    between atoms: C_6  and  C_31
    3  A    between atoms: C_11  and  C_26
                            x       y       z     vdW  Elec       q    Type
                         _______ _______ _______ _____ _____    ______ ____

>  <TORSDO>
F 3

$$$$
=
 OpenBabel11052415143D

 37 43  0  0  1  0  0  0  0  0999 V2000
  187.5060  176.4770  136.4190 C   0  0  0  0  0  2  0  0  0  0  0  0
  192.1360  173.4530  136.0240 C   0  0  2  0  0  3  0  0  0  0  0  0
  191.2630  176.0530  139.4920 C   0  0  1  0  0  3  0  0  0  0  0  0
  186.8920  177.4390  135.3980 C   0  0  2  0  0  3  0  0  0  0  0  0
  188.4730  178.2840  140.4650 O   0  0  0  0  0  0  0  0  0  0  0  0
  192.6320  175.6730  137.3720 C   0  0  1  0  0  3  0  0  0  0  0  0
  190.0700  176.9460  139.2850 C   0  0  2  0  0  3  0  0  0  0  0  0
  191.4170  175.3100  138.1840 C   0  0  2  0  0  3  0  0  0  0  0  0
  189.2450  177.1210  140.5630 C   0  0  1  0  0  3  0  0  0  0  0  0
  193.8700  175.6300  138.2350 C   0  0  0  0  0  2  0  0  0  0  0  0
  186.4510  178.7890  135.9890 C   0  0  0  0  0  2  0  0  0  0  0  0
  190.2470  175.5670  137.3520 N   0  0  1  0  0  0  0  0  0  0  0  0
  190.7800  173.1600  136.7150 C   0  0  0  0  0  2  0  0  0  0  0  0
  192.2230  178.0920  140.7130 C   0  0  0  0  0  2  0  0  0  0  0  0
  193.7520  176.7980  139.2110 C   0  0  0  0  0  2  0  0  0  0  0  0
  189.7370  174.3060  136.7870 C   0  0  0  0  0  2  0  0  0  0  0  0
  186.3250  178.8020  137.5170 C   0  0  2  0  0  3  0  0  0  0  0  0
  187.3460  177.9230  139.7140 C   0  0  0  0  0  2  0  0  0  0  0  0
  192.5230  176.7020  140.1330 C   0  0  2  0  0  3  0  0  0  0  0  0
  189.2600  176.2230  138.2170 C   0  0  2  0  0  3  0  0  0  0  0  0
  192.7020  174.8910  136.0490 C   0  0  0  0  0  2  0  0  0  0  0  0
  190.0950  177.1050  141.8520 C   0  0  1  0  0  3  0  0  0  0  0  0
  192.0920  172.9610  134.5930 C   0  0  0  0  0  1  0  0  0  0  0  0
  187.5790  178.2530  138.2350 C   0  0  1  0  0  3  0  0  0  0  0  0
  188.3990  177.2160  137.4090 C   0  0  2  0  0  3  0  0  0  0  0  0
  191.2690  178.0990  141.9190 C   0  0  0  0  0  2  0  0  0  0  0  0
  187.8560  177.0710  143.0220 C   0  0  0  0  0  3  0  0  0  0  0  0
  189.2550  177.1400  143.0900 C   0  0  0  0  0  0  0  0  0  0  0  0
  189.8830  177.2180  144.3370 C   0  0  0  0  0  3  0  0  0  0  0  0
  189.7340  177.3140  146.7150 F   0  0  0  0  0  0  0  0  0  0  0  0
  187.7260  177.1710  145.4370 C   0  0  0  0  0  3  0  0  0  0  0  0
  189.1210  177.2360  145.5090 C   0  0  0  0  0  0  0  0  0  0  0  0
  187.0940  177.0880  144.1930 C   0  0  0  0  0  3  0  0  0  0  0  0
  184.9640  178.2930  138.0170 C   0  0  0  0  0  2  0  0  0  0  0  0
  184.2220  179.2970  138.8820 C   0  0  0  0  0  1  0  0  0  0  0  0
  185.7060  175.5710  135.3720 C   0  0  0  0  0  1  0  0  0  0  0  0
  185.8140  176.8230  134.7610 O   0  0  0  0  0  0  0  0  0  0  0  0
  1 25  1  0  0  0  0
  2 23  1  6  0  0  0
  2 21  1  0  0  0  0
  2 13  1  0  0  0  0
  3 19  1  0  0  0  0
  4 11  1  0  0  0  0
  4  1  1  0  0  0  0
  5  9  1  0  0  0  0
  6  8  1  0  0  0  0
  6 10  1  0  0  0  0
  7  3  1  0  0  0  0
  7  9  1  0  0  0  0
  8  3  1  0  0  0  0
  9 22  1  0  0  0  0
 10 15  1  0  0  0  0
 11 17  1  0  0  0  0
 12  8  1  0  0  0  0
 12 20  1  0  0  0  0
 13 16  1  0  0  0  0
 14 26  1  0  0  0  0
 15 19  1  0  0  0  0
 16 12  1  0  0  0  0
 17 34  1  0  0  0  0
 17 24  1  0  0  0  0
 18  5  1  0  0  0  0
 19 14  1  0  0  0  0
 20  7  1  0  0  0  0
 21  6  1  0  0  0  0
 22 26  1  0  0  0  0
 22 28  1  0  0  0  0
 24 18  1  0  0  0  0
 25 20  1  0  0  0  0
 25 24  1  0  0  0  0
 27 28  2  0  0  0  0
 27 33  1  0  0  0  0
 28 29  1  0  0  0  0
 29 32  2  0  0  0  0
 31 32  1  0  0  0  0
 32 30  1  0  0  0  0
 33 31  2  0  0  0  0
 34 35  1  0  0  0  0
 37 36  1  0  0  0  0
 37  4  1  0  0  0  0
M  END
>  <MODEL>
7

>  <REMARK>
 VINA RESULT:      -5.3      3.368      7.711
  Name = 
  3 active torsions:
  status: ('A' for Active; 'I' for Inactive)
    1  A    between atoms: C_5  and  O_23
    2  A    between atoms: C_6  and  C_31
    3  A    between atoms: C_11  and  C_26
                            x       y       z     vdW  Elec       q    Type
                         _______ _______ _______ _____ _____    ______ ____

>  <TORSDO>
F 3

$$$$
=
 OpenBabel11052415143D

 37 43  0  0  1  0  0  0  0  0999 V2000
  182.6870  176.5900  138.0030 C   0  0  0  0  0  2  0  0  0  0  0  0
  184.8040  172.1120  135.5140 C   0  0  2  0  0  3  0  0  0  0  0  0
  187.3250  175.3160  137.2250 C   0  0  1  0  0  3  0  0  0  0  0  0
  181.6050  177.5510  137.5020 C   0  0  2  0  0  3  0  0  0  0  0  0
  186.6780  178.4980  139.0050 O   0  0  0  0  0  0  0  0  0  0  0  0
  186.4010  174.1840  135.1330 C   0  0  1  0  0  3  0  0  0  0  0  0
  186.5440  176.5320  137.6450 C   0  0  2  0  0  3  0  0  0  0  0  0
  186.2940  174.3890  136.6210 C   0  0  2  0  0  3  0  0  0  0  0  0
  187.0950  177.1640  138.9260 C   0  0  1  0  0  3  0  0  0  0  0  0
  187.8200  173.8330  134.7540 C   0  0  0  0  0  2  0  0  0  0  0  0
  181.9540  179.0400  137.6760 C   0  0  0  0  0  2  0  0  0  0  0  0
  184.9630  174.9200  136.8900 N   0  0  1  0  0  0  0  0  0  0  0  0
  184.5240  172.4140  137.0080 C   0  0  0  0  0  2  0  0  0  0  0  0
  189.0770  177.0410  136.4980 C   0  0  0  0  0  2  0  0  0  0  0  0
  188.6500  175.0930  134.9830 C   0  0  0  0  0  2  0  0  0  0  0  0
  184.0810  173.8510  137.3890 C   0  0  0  0  0  2  0  0  0  0  0  0
  183.1020  179.3120  138.6550 C   0  0  2  0  0  3  0  0  0  0  0  0
  185.3740  178.4530  139.5160 C   0  0  0  0  0  2  0  0  0  0  0  0
  188.6490  175.5660  136.4480 C   0  0  2  0  0  3  0  0  0  0  0  0
  185.1370  175.9950  137.8720 C   0  0  2  0  0  3  0  0  0  0  0  0
  185.3060  173.2490  134.5940 C   0  0  0  0  0  2  0  0  0  0  0  0
  188.6270  177.0350  139.0660 C   0  0  1  0  0  3  0  0  0  0  0  0
  183.5840  171.4690  134.8900 C   0  0  0  0  0  1  0  0  0  0  0  0
  184.3630  178.4660  138.3630 C   0  0  1  0  0  3  0  0  0  0  0  0
  184.0830  177.1020  137.6640 C   0  0  2  0  0  3  0  0  0  0  0  0
  189.4770  177.5520  137.8920 C   0  0  0  0  0  2  0  0  0  0  0  0
  188.2870  178.2560  141.2520 C   0  0  0  0  0  3  0  0  0  0  0  0
  189.1230  177.5370  140.3860 C   0  0  0  0  0  0  0  0  0  0  0  0
  190.4400  177.2590  140.7690 C   0  0  0  0  0  3  0  0  0  0  0  0
  192.1980  177.4340  142.3700 F   0  0  0  0  0  0  0  0  0  0  0  0
  190.0850  178.4240  142.8630 C   0  0  0  0  0  3  0  0  0  0  0  0
  190.9220  177.7030  142.0040 C   0  0  0  0  0  0  0  0  0  0  0  0
  188.7680  178.7000  142.4860 C   0  0  0  0  0  3  0  0  0  0  0  0
  182.6450  179.3890  140.1190 C   0  0  0  0  0  2  0  0  0  0  0  0
  181.2310  179.9180  140.2860 C   0  0  0  0  0  1  0  0  0  0  0  0
  180.7160  176.3210  139.1120 C   0  0  0  0  0  1  0  0  0  0  0  0
  180.3950  177.2690  138.1380 O   0  0  0  0  0  0  0  0  0  0  0  0
  2 23  1  6  0  0  0
  2 13  1  0  0  0  0
  3  7  1  0  0  0  0
  4 11  1  0  0  0  0
  4  1  1  0  0  0  0
  4 37  1  0  0  0  0
  5 18  1  0  0  0  0
  6  8  1  0  0  0  0
  7 20  1  0  0  0  0
  7  9  1  0  0  0  0
  8 12  1  0  0  0  0
  8  3  1  0  0  0  0
  9  5  1  0  0  0  0
  9 22  1  0  0  0  0
 10 15  1  0  0  0  0
 10  6  1  0  0  0  0
 11 17  1  0  0  0  0
 12 16  1  0  0  0  0
 12 20  1  0  0  0  0
 13 16  1  0  0  0  0
 14 26  1  0  0  0  0
 15 19  1  0  0  0  0
 17 34  1  0  0  0  0
 19 14  1  0  0  0  0
 19  3  1  0  0  0  0
 21  6  1  0  0  0  0
 21  2  1  0  0  0  0
 22 28  1  0  0  0  0
 24 17  1  0  0  0  0
 24 18  1  0  0  0  0
 25 20  1  0  0  0  0
 25  1  1  0  0  0  0
 25 24  1  0  0  0  0
 26 22  1  0  0  0  0
 27 33  1  0  0  0  0
 28 29  1  0  0  0  0
 28 27  2  0  0  0  0
 29 32  2  0  0  0  0
 32 30  1  0  0  0  0
 32 31  1  0  0  0  0
 33 31  2  0  0  0  0
 34 35  1  0  0  0  0
 37 36  1  0  0  0  0
M  END
>  <MODEL>
8

>  <REMARK>
 VINA RESULT:      -5.3      3.322      7.181
  Name = 
  3 active torsions:
  status: ('A' for Active; 'I' for Inactive)
    1  A    between atoms: C_5  and  O_23
    2  A    between atoms: C_6  and  C_31
    3  A    between atoms: C_11  and  C_26
                            x       y       z     vdW  Elec       q    Type
                         _______ _______ _______ _____ _____    ______ ____

>  <TORSDO>
F 3

$$$$
=
 OpenBabel11052415143D

 37 43  0  0  1  0  0  0  0  0999 V2000
  182.9800  176.6340  138.1480 C   0  0  0  0  0  2  0  0  0  0  0  0
  184.6480  172.0310  135.5470 C   0  0  2  0  0  3  0  0  0  0  0  0
  187.4690  175.0670  137.0870 C   0  0  1  0  0  3  0  0  0  0  0  0
  181.9330  177.6630  137.7120 C   0  0  2  0  0  3  0  0  0  0  0  0
  187.1400  178.2820  138.8940 O   0  0  0  0  0  0  0  0  0  0  0  0
  186.3470  173.9980  135.0600 C   0  0  1  0  0  3  0  0  0  0  0  0
  186.7960  176.3290  137.5510 C   0  0  2  0  0  3  0  0  0  0  0  0
  186.3460  174.2080  136.5510 C   0  0  2  0  0  3  0  0  0  0  0  0
  187.4640  176.9250  138.7920 C   0  0  1  0  0  3  0  0  0  0  0  0
  187.7140  173.5560  134.5950 C   0  0  0  0  0  2  0  0  0  0  0  0
  182.3860  179.1260  137.8590 C   0  0  0  0  0  2  0  0  0  0  0  0
  185.0710  174.8220  136.9020 N   0  0  1  0  0  0  0  0  0  0  0  0
  184.4810  172.3500  137.0550 C   0  0  0  0  0  2  0  0  0  0  0  0
  189.2790  176.6760  136.2470 C   0  0  0  0  0  2  0  0  0  0  0  0
  188.6350  174.7610  134.7680 C   0  0  0  0  0  2  0  0  0  0  0  0
  184.1550  173.8120  137.4580 C   0  0  0  0  0  2  0  0  0  0  0  0
  183.6080  179.3240  138.7640 C   0  0  2  0  0  3  0  0  0  0  0  0
  185.8700  178.3200  139.4850 C   0  0  0  0  0  2  0  0  0  0  0  0
  188.7560  175.2320  136.2290 C   0  0  2  0  0  3  0  0  0  0  0  0
  185.3740  175.8840  137.8670 C   0  0  2  0  0  3  0  0  0  0  0  0
  185.1620  173.1340  134.5940 C   0  0  0  0  0  2  0  0  0  0  0  0
  188.9910  176.6970  138.8380 C   0  0  1  0  0  3  0  0  0  0  0  0
  183.3530  171.4680  135.0030 C   0  0  0  0  0  1  0  0  0  0  0  0
  184.7910  178.3990  138.3970 C   0  0  1  0  0  3  0  0  0  0  0  0
  184.3820  177.0560  137.7210 C   0  0  2  0  0  3  0  0  0  0  0  0
  189.7970  177.1600  137.6110 C   0  0  0  0  0  2  0  0  0  0  0  0
  190.9890  177.2990  140.2630 C   0  0  0  0  0  3  0  0  0  0  0  0
  189.6000  177.1660  140.1220 C   0  0  0  0  0  0  0  0  0  0  0  0
  188.7610  177.4990  141.1920 C   0  0  0  0  0  3  0  0  0  0  0  0
  188.4900  178.2750  143.4300 F   0  0  0  0  0  0  0  0  0  0  0  0
  190.6910  178.0830  142.5340 C   0  0  0  0  0  3  0  0  0  0  0  0
  189.3050  177.9550  142.3960 C   0  0  0  0  0  0  0  0  0  0  0  0
  191.5320  177.7550  141.4670 C   0  0  0  0  0  3  0  0  0  0  0  0
  183.2490  179.4290  140.2540 C   0  0  0  0  0  2  0  0  0  0  0  0
  183.2870  178.0970  140.9820 C   0  0  0  0  0  1  0  0  0  0  0  0
  180.0700  178.6760  138.3460 C   0  0  0  0  0  1  0  0  0  0  0  0
  180.7490  177.4580  138.4240 O   0  0  0  0  0  0  0  0  0  0  0  0
  2 23  1  6  0  0  0
  2 13  1  0  0  0  0
  3  7  1  0  0  0  0
  4 11  1  0  0  0  0
  4  1  1  0  0  0  0
  4 37  1  0  0  0  0
  5 18  1  0  0  0  0
  6  8  1  0  0  0  0
  7 20  1  0  0  0  0
  7  9  1  0  0  0  0
  8 12  1  0  0  0  0
  8  3  1  0  0  0  0
  9 22  1  0  0  0  0
  9  5  1  0  0  0  0
 10 15  1  0  0  0  0
 10  6  1  0  0  0  0
 11 17  1  0  0  0  0
 12 16  1  0  0  0  0
 12 20  1  0  0  0  0
 13 16  1  0  0  0  0
 14 26  1  0  0  0  0
 15 19  1  0  0  0  0
 17 34  1  0  0  0  0
 19 14  1  0  0  0  0
 19  3  1  0  0  0  0
 21  6  1  0  0  0  0
 21  2  1  0  0  0  0
 22 28  1  0  0  0  0
 24 17  1  0  0  0  0
 24 18  1  0  0  0  0
 25 20  1  0  0  0  0
 25  1  1  0  0  0  0
 25 24  1  0  0  0  0
 26 22  1  0  0  0  0
 27 33  1  0  0  0  0
 28 27  2  0  0  0  0
 28 29  1  0  0  0  0
 29 32  2  0  0  0  0
 32 31  1  0  0  0  0
 32 30  1  0  0  0  0
 33 31  2  0  0  0  0
 34 35  1  0  0  0  0
 36 37  1  0  0  0  0
M  END
>  <MODEL>
9

>  <REMARK>
 VINA RESULT:      -4.9      3.045      7.138
  Name = 
  3 active torsions:
  status: ('A' for Active; 'I' for Inactive)
    1  A    between atoms: C_5  and  O_23
    2  A    between atoms: C_6  and  C_31
    3  A    between atoms: C_11  and  C_26
                            x       y       z     vdW  Elec       q    Type
                         _______ _______ _______ _____ _____    ______ ____

>  <TORSDO>
F 3

$$$$
