=
 OpenBabel11052412423D

 25 28  0  0  1  0  0  0  0  0999 V2000
  185.7570  178.2230  144.4630 N   0  0  0  0  0  0  0  0  0  0  0  0
  186.8230  177.4190  145.0570 C   0  0  1  0  0  3  0  0  0  0  0  0
  184.9290  178.9020  146.6030 C   0  0  0  0  0  3  0  0  0  0  0  0
  185.1350  177.9750  143.1710 C   0  0  1  0  0  3  0  0  0  0  0  0
  183.5870  178.3690  140.8770 C   0  0  0  0  0  2  0  0  0  0  0  0
  186.1910  178.5080  147.1720 N   0  0  0  0  0  0  0  0  0  0  0  0
  183.7640  178.5720  143.3300 C   0  0  0  0  0  0  0  0  0  0  0  0
  182.8680  178.8020  142.1580 C   0  0  0  0  0  2  0  0  0  0  0  0
  188.4160  177.5690  147.0600 C   0  0  0  0  0  0  0  0  0  0  0  0
  188.6190  177.6130  148.4680 N   0  0  0  0  0  1  0  0  0  0  0  0
  188.0750  177.4340  144.2190 C   0  0  0  0  0  3  0  0  0  0  0  0
  185.0020  178.9660  140.7960 C   0  0  0  0  0  2  0  0  0  0  0  0
  184.7440  178.7650  145.2930 C   0  0  0  0  0  0  0  0  0  0  0  0
  183.5260  179.0320  144.5540 C   0  0  0  0  0  3  0  0  0  0  0  0
  189.4440  177.3090  146.2470 C   0  0  0  0  0  3  0  0  0  0  0  0
  185.8740  178.7070  142.0460 C   0  0  0  0  0  2  0  0  0  0  0  0
  189.2930  177.3220  144.7670 C   0  0  0  0  0  0  0  0  0  0  0  0
  187.0990  177.8750  146.4790 C   0  0  0  0  0  0  0  0  0  0  0  0
  190.3970  177.2590  143.9040 O   0  0  0  0  0  0  0  0  0  0  0  0
  190.4950  176.4770  142.7430 C   0  0  0  0  0  0  0  0  0  0  0  0
  190.4390  175.2190  142.7920 O   0  0  0  0  0  0  0  0  0  0  0  0
  190.4870  176.2200  140.4000 F   0  0  0  0  0  0  0  0  0  0  0  0
  190.5910  177.1540  141.4140 C   0  0  0  0  0  0  0  0  0  0  0  0
  191.8090  177.7980  141.3150 F   0  0  0  0  0  0  0  0  0  0  0  0
  189.5710  178.0790  141.2790 F   0  0  0  0  0  0  0  0  0  0  0  0
  1  2  1  0  0  0  0
  1 13  1  0  0  0  0
  2 11  1  6  0  0  0
  2 18  1  0  0  0  0
  3  6  1  0  0  0  0
  4 16  1  6  0  0  0
  4  7  1  0  0  0  0
  4  1  1  0  0  0  0
  5  8  1  0  0  0  0
  7 14  2  0  0  0  0
  8  7  1  0  0  0  0
  9 10  1  0  0  0  0
 11 17  2  0  0  0  0
 12  5  1  0  0  0  0
 12 16  1  0  0  0  0
 13  3  2  0  0  0  0
 14 13  1  0  0  0  0
 15  9  2  0  0  0  0
 17 15  1  0  0  0  0
 18  9  1  0  0  0  0
 18  6  2  0  0  0  0
 19 17  1  0  0  0  0
 20 21  2  0  0  0  0
 20 19  1  0  0  0  0
 22 23  1  0  0  0  0
 23 20  1  0  0  0  0
 24 23  1  0  0  0  0
 25 23  1  0  0  0  0
M  END
>  <MODEL>
1

>  <REMARK>
 VINA RESULT:      -9.5      0.000      0.000
  Name = 
  3 active torsions:
  status: ('A' for Active; 'I' for Inactive)
    1  A    between atoms: O_6  and  C_15
    2  A    between atoms: O_6  and  C_23
    3  A    between atoms: C_7  and  C_15
                            x       y       z     vdW  Elec       q    Type
                         _______ _______ _______ _____ _____    ______ ____

>  <TORSDO>
F 3

$$$$
=
 OpenBabel11052412423D

 25 28  0  0  1  0  0  0  0  0999 V2000
  187.2340  177.9950  145.3750 N   0  0  0  0  0  0  0  0  0  0  0  0
  188.4120  177.2100  145.0100 C   0  0  1  0  0  3  0  0  0  0  0  0
  187.8320  178.0140  147.6930 C   0  0  0  0  0  3  0  0  0  0  0  0
  185.9680  177.9960  144.6580 C   0  0  1  0  0  3  0  0  0  0  0  0
  183.3930  178.7440  143.8670 C   0  0  0  0  0  2  0  0  0  0  0  0
  189.1720  177.6550  147.3090 N   0  0  0  0  0  0  0  0  0  0  0  0
  184.9700  178.3560  145.7250 C   0  0  0  0  0  0  0  0  0  0  0  0
  183.5710  178.7520  145.3880 C   0  0  0  0  0  2  0  0  0  0  0  0
  190.8770  177.0630  145.7000 C   0  0  0  0  0  0  0  0  0  0  0  0
  191.8620  176.7830  146.6890 N   0  0  0  0  0  1  0  0  0  0  0  0
  188.9440  177.5910  143.6530 C   0  0  0  0  0  3  0  0  0  0  0  0
  184.5220  179.5170  143.1640 C   0  0  0  0  0  2  0  0  0  0  0  0
  186.9150  178.1820  146.7440 C   0  0  0  0  0  0  0  0  0  0  0  0
  185.5070  178.4660  146.9360 C   0  0  0  0  0  3  0  0  0  0  0  0
  191.2290  177.1440  144.4140 C   0  0  0  0  0  3  0  0  0  0  0  0
  185.9460  179.0710  143.5670 C   0  0  0  0  0  2  0  0  0  0  0  0
  190.2480  177.5030  143.3560 C   0  0  0  0  0  0  0  0  0  0  0  0
  189.4820  177.3330  146.0820 C   0  0  0  0  0  0  0  0  0  0  0  0
  190.6420  177.7960  142.0420 O   0  0  0  0  0  0  0  0  0  0  0  0
  190.1210  177.2170  140.8740 C   0  0  0  0  0  0  0  0  0  0  0  0
  190.4240  176.0430  140.5310 O   0  0  0  0  0  0  0  0  0  0  0  0
  188.1680  177.1230  139.5560 F   0  0  0  0  0  0  0  0  0  0  0  0
  189.1270  177.9820  140.0620 C   0  0  0  0  0  0  0  0  0  0  0  0
  189.7750  178.6070  139.0140 F   0  0  0  0  0  0  0  0  0  0  0  0
  188.5050  178.9350  140.8490 F   0  0  0  0  0  0  0  0  0  0  0  0
  1 13  1  0  0  0  0
  2 11  1  6  0  0  0
  2  1  1  0  0  0  0
  2 18  1  0  0  0  0
  4 16  1  6  0  0  0
  4  1  1  0  0  0  0
  4  7  1  0  0  0  0
  5  8  1  0  0  0  0
  6  3  1  0  0  0  0
  7 14  2  0  0  0  0
  8  7  1  0  0  0  0
  9 18  1  0  0  0  0
  9 10  1  0  0  0  0
 12 16  1  0  0  0  0
 12  5  1  0  0  0  0
 13 14  1  0  0  0  0
 13  3  2  0  0  0  0
 15  9  2  0  0  0  0
 17 11  2  0  0  0  0
 17 15  1  0  0  0  0
 18  6  2  0  0  0  0
 19 17  1  0  0  0  0
 20 19  1  0  0  0  0
 21 20  2  0  0  0  0
 22 23  1  0  0  0  0
 23 25  1  0  0  0  0
 23 20  1  0  0  0  0
 24 23  1  0  0  0  0
M  END
>  <MODEL>
2

>  <REMARK>
 VINA RESULT:      -9.4      1.640      2.516
  Name = 
  3 active torsions:
  status: ('A' for Active; 'I' for Inactive)
    1  A    between atoms: O_6  and  C_15
    2  A    between atoms: O_6  and  C_23
    3  A    between atoms: C_7  and  C_15
                            x       y       z     vdW  Elec       q    Type
                         _______ _______ _______ _____ _____    ______ ____

>  <TORSDO>
F 3

$$$$
=
 OpenBabel11052412423D

 25 28  0  0  1  0  0  0  0  0999 V2000
  185.5630  178.2930  144.3410 N   0  0  0  0  0  0  0  0  0  0  0  0
  186.5700  177.6000  145.1430 C   0  0  1  0  0  3  0  0  0  0  0  0
  184.2560  178.8500  146.2680 C   0  0  0  0  0  3  0  0  0  0  0  0
  185.2420  177.9960  142.9540 C   0  0  1  0  0  3  0  0  0  0  0  0
  184.1490  178.2520  140.3930 C   0  0  0  0  0  2  0  0  0  0  0  0
  185.4140  178.5870  147.0800 N   0  0  0  0  0  0  0  0  0  0  0  0
  183.8100  178.4400  142.8300 C   0  0  0  0  0  0  0  0  0  0  0  0
  183.1470  178.5880  141.5010 C   0  0  0  0  0  2  0  0  0  0  0  0
  187.7060  177.8950  147.4230 C   0  0  0  0  0  0  0  0  0  0  0  0
  187.6180  177.9410  148.8430 N   0  0  0  0  0  1  0  0  0  0  0  0
  187.9550  177.7610  144.5730 C   0  0  0  0  0  3  0  0  0  0  0  0
  185.4790  178.9990  140.5920 C   0  0  0  0  0  2  0  0  0  0  0  0
  184.3520  178.7120  144.9480 C   0  0  0  0  0  0  0  0  0  0  0  0
  183.2850  178.8550  143.9790 C   0  0  0  0  0  3  0  0  0  0  0  0
  188.8960  177.7580  146.8340 C   0  0  0  0  0  3  0  0  0  0  0  0
  186.1070  178.8190  141.9930 C   0  0  0  0  0  2  0  0  0  0  0  0
  189.0430  177.7740  145.3540 C   0  0  0  0  0  0  0  0  0  0  0  0
  186.5060  178.0650  146.5880 C   0  0  0  0  0  0  0  0  0  0  0  0
  190.2970  177.8430  144.7290 O   0  0  0  0  0  0  0  0  0  0  0  0
  191.3210  176.8880  144.8250 C   0  0  0  0  0  0  0  0  0  0  0  0
  191.9980  176.7540  145.8800 O   0  0  0  0  0  0  0  0  0  0  0  0
  192.3570  174.9040  144.0850 F   0  0  0  0  0  0  0  0  0  0  0  0
  191.5620  175.9600  143.6790 C   0  0  0  0  0  0  0  0  0  0  0  0
  192.2000  176.6440  142.6620 F   0  0  0  0  0  0  0  0  0  0  0  0
  190.3590  175.4630  143.2100 F   0  0  0  0  0  0  0  0  0  0  0  0
  1 13  1  0  0  0  0
  1  2  1  0  0  0  0
  2 11  1  6  0  0  0
  2 18  1  0  0  0  0
  3  6  1  0  0  0  0
  4 16  1  6  0  0  0
  4  1  1  0  0  0  0
  5 12  1  0  0  0  0
  5  8  1  0  0  0  0
  7  4  1  0  0  0  0
  7 14  2  0  0  0  0
  8  7  1  0  0  0  0
  9 10  1  0  0  0  0
 11 17  2  0  0  0  0
 12 16  1  0  0  0  0
 13  3  2  0  0  0  0
 14 13  1  0  0  0  0
 15  9  2  0  0  0  0
 17 15  1  0  0  0  0
 18  6  2  0  0  0  0
 18  9  1  0  0  0  0
 19 20  1  0  0  0  0
 19 17  1  0  0  0  0
 20 21  2  0  0  0  0
 23 22  1  0  0  0  0
 23 20  1  0  0  0  0
 24 23  1  0  0  0  0
 25 23  1  0  0  0  0
M  END
>  <MODEL>
3

>  <REMARK>
 VINA RESULT:      -9.4      1.434      1.664
  Name = 
  3 active torsions:
  status: ('A' for Active; 'I' for Inactive)
    1  A    between atoms: O_6  and  C_15
    2  A    between atoms: O_6  and  C_23
    3  A    between atoms: C_7  and  C_15
                            x       y       z     vdW  Elec       q    Type
                         _______ _______ _______ _____ _____    ______ ____

>  <TORSDO>
F 3

$$$$
=
 OpenBabel11052412423D

 25 28  0  0  1  0  0  0  0  0999 V2000
  189.5310  177.3850  143.7780 N   0  0  0  0  0  0  0  0  0  0  0  0
  188.8300  177.1890  142.5100 C   0  0  1  0  0  3  0  0  0  0  0  0
  191.6810  177.2540  142.7340 C   0  0  0  0  0  3  0  0  0  0  0  0
  189.0190  177.0130  145.0880 C   0  0  1  0  0  3  0  0  0  0  0  0
  188.7940  176.8260  147.8680 C   0  0  0  0  0  2  0  0  0  0  0  0
  191.0390  177.5090  141.4720 N   0  0  0  0  0  0  0  0  0  0  0  0
  190.2690  176.7800  145.8910 C   0  0  0  0  0  0  0  0  0  0  0  0
  190.2340  176.6530  147.3780 C   0  0  0  0  0  2  0  0  0  0  0  0
  189.1140  177.8960  140.0620 C   0  0  0  0  0  0  0  0  0  0  0  0
  189.8620  177.8610  138.8510 N   0  0  0  0  0  1  0  0  0  0  0  0
  187.5390  177.9620  142.4530 C   0  0  0  0  0  3  0  0  0  0  0  0
  188.1390  178.0790  147.2630 C   0  0  0  0  0  2  0  0  0  0  0  0
  190.9360  177.2070  143.8360 C   0  0  0  0  0  0  0  0  0  0  0  0
  191.3850  176.8880  145.1760 C   0  0  0  0  0  3  0  0  0  0  0  0
  187.8460  178.3170  140.0490 C   0  0  0  0  0  3  0  0  0  0  0  0
  188.2230  178.1590  145.7210 C   0  0  0  0  0  2  0  0  0  0  0  0
  187.0490  178.4360  141.2990 C   0  0  0  0  0  0  0  0  0  0  0  0
  189.7400  177.5380  141.3440 C   0  0  0  0  0  0  0  0  0  0  0  0
  185.7980  179.0690  141.3290 O   0  0  0  0  0  0  0  0  0  0  0  0
  184.6290  178.5620  141.9150 C   0  0  0  0  0  0  0  0  0  0  0  0
  183.9030  177.7240  141.3140 O   0  0  0  0  0  0  0  0  0  0  0  0
  184.8610  180.1830  143.6100 F   0  0  0  0  0  0  0  0  0  0  0  0
  184.2770  178.9660  143.3100 C   0  0  0  0  0  0  0  0  0  0  0  0
  184.7400  178.0100  144.1940 F   0  0  0  0  0  0  0  0  0  0  0  0
  182.9050  179.0820  143.4390 F   0  0  0  0  0  0  0  0  0  0  0  0
  1 13  1  0  0  0  0
  1  4  1  0  0  0  0
  2 11  1  1  0  0  0
  2  1  1  0  0  0  0
  3 13  2  0  0  0  0
  4 16  1  1  0  0  0
  4  7  1  0  0  0  0
  6  3  1  0  0  0  0
  7  8  1  0  0  0  0
  8  5  1  0  0  0  0
  9 18  1  0  0  0  0
 10  9  1  0  0  0  0
 12  5  1  0  0  0  0
 13 14  1  0  0  0  0
 14  7  2  0  0  0  0
 15  9  2  0  0  0  0
 15 17  1  0  0  0  0
 16 12  1  0  0  0  0
 17 19  1  0  0  0  0
 17 11  2  0  0  0  0
 18  6  2  0  0  0  0
 18  2  1  0  0  0  0
 19 20  1  0  0  0  0
 20 23  1  0  0  0  0
 21 20  2  0  0  0  0
 23 25  1  0  0  0  0
 23 22  1  0  0  0  0
 23 24  1  0  0  0  0
M  END
>  <MODEL>
4

>  <REMARK>
 VINA RESULT:      -9.1      3.664      6.751
  Name = 
  3 active torsions:
  status: ('A' for Active; 'I' for Inactive)
    1  A    between atoms: O_6  and  C_15
    2  A    between atoms: O_6  and  C_23
    3  A    between atoms: C_7  and  C_15
                            x       y       z     vdW  Elec       q    Type
                         _______ _______ _______ _____ _____    ______ ____

>  <TORSDO>
F 3

$$$$
=
 OpenBabel11052412423D

 25 28  0  0  1  0  0  0  0  0999 V2000
  186.2010  178.4910  142.4020 N   0  0  0  0  0  0  0  0  0  0  0  0
  187.3920  178.7610  141.5990 C   0  0  1  0  0  3  0  0  0  0  0  0
  184.7380  178.8000  140.5330 C   0  0  0  0  0  3  0  0  0  0  0  0
  186.0780  178.7300  143.8320 C   0  0  1  0  0  3  0  0  0  0  0  0
  185.0450  178.6770  146.4290 C   0  0  0  0  0  2  0  0  0  0  0  0
  185.8730  178.6230  139.6670 N   0  0  0  0  0  0  0  0  0  0  0  0
  184.6010  178.9500  144.0170 C   0  0  0  0  0  0  0  0  0  0  0  0
  183.9730  178.9520  145.3720 C   0  0  0  0  0  2  0  0  0  0  0  0
  188.2240  178.2710  139.2240 C   0  0  0  0  0  0  0  0  0  0  0  0
  188.0910  178.4390  137.8160 N   0  0  0  0  0  1  0  0  0  0  0  0
  188.5720  177.9400  142.0470 C   0  0  0  0  0  3  0  0  0  0  0  0
  185.8980  177.4510  146.0620 C   0  0  0  0  0  2  0  0  0  0  0  0
  184.9160  178.7240  141.8490 C   0  0  0  0  0  0  0  0  0  0  0  0
  183.9190  178.9490  142.8760 C   0  0  0  0  0  3  0  0  0  0  0  0
  189.3640  177.7990  139.7340 C   0  0  0  0  0  3  0  0  0  0  0  0
  186.5070  177.5020  144.6420 C   0  0  0  0  0  2  0  0  0  0  0  0
  189.5230  177.5430  141.1900 C   0  0  0  0  0  0  0  0  0  0  0  0
  187.0940  178.5480  140.1250 C   0  0  0  0  0  0  0  0  0  0  0  0
  190.6290  176.8560  141.7110 O   0  0  0  0  0  0  0  0  0  0  0  0
  190.6360  176.0520  142.8610 C   0  0  0  0  0  0  0  0  0  0  0  0
  190.1800  174.8770  142.8440 O   0  0  0  0  0  0  0  0  0  0  0  0
  192.0560  175.5950  144.6860 F   0  0  0  0  0  0  0  0  0  0  0  0
  191.2670  176.5740  144.1110 C   0  0  0  0  0  0  0  0  0  0  0  0
  190.2780  176.9430  145.0030 F   0  0  0  0  0  0  0  0  0  0  0  0
  192.0550  177.6730  143.8210 F   0  0  0  0  0  0  0  0  0  0  0  0
  1  4  1  0  0  0  0
  2 11  1  1  0  0  0
  2  1  1  0  0  0  0
  3 13  2  0  0  0  0
  4  7  1  0  0  0  0
  4 16  1  1  0  0  0
  6 18  2  0  0  0  0
  6  3  1  0  0  0  0
  7  8  1  0  0  0  0
  8  5  1  0  0  0  0
  9 15  2  0  0  0  0
  9 18  1  0  0  0  0
 10  9  1  0  0  0  0
 12  5  1  0  0  0  0
 13  1  1  0  0  0  0
 13 14  1  0  0  0  0
 14  7  2  0  0  0  0
 15 17  1  0  0  0  0
 16 12  1  0  0  0  0
 17 19  1  0  0  0  0
 17 11  2  0  0  0  0
 18  2  1  0  0  0  0
 19 20  1  0  0  0  0
 20 23  1  0  0  0  0
 21 20  2  0  0  0  0
 23 22  1  0  0  0  0
 23 24  1  0  0  0  0
 25 23  1  0  0  0  0
M  END
>  <MODEL>
5

>  <REMARK>
 VINA RESULT:      -8.9      2.532      4.717
  Name = 
  3 active torsions:
  status: ('A' for Active; 'I' for Inactive)
    1  A    between atoms: O_6  and  C_15
    2  A    between atoms: O_6  and  C_23
    3  A    between atoms: C_7  and  C_15
                            x       y       z     vdW  Elec       q    Type
                         _______ _______ _______ _____ _____    ______ ____

>  <TORSDO>
F 3

$$$$
=
 OpenBabel11052412423D

 25 28  0  0  1  0  0  0  0  0999 V2000
  188.0730  177.7020  142.7980 N   0  0  0  0  0  0  0  0  0  0  0  0
  187.7080  177.1720  144.1100 C   0  0  1  0  0  3  0  0  0  0  0  0
  185.9610  178.7970  142.5320 C   0  0  0  0  0  3  0  0  0  0  0  0
  189.0170  177.0890  141.8760 C   0  0  1  0  0  3  0  0  0  0  0  0
  190.7170  176.7650  139.6800 C   0  0  0  0  0  2  0  0  0  0  0  0
  185.7650  178.6750  143.9530 N   0  0  0  0  0  0  0  0  0  0  0  0
  188.5460  177.5730  140.5320 C   0  0  0  0  0  0  0  0  0  0  0  0
  189.3860  177.4240  139.3060 C   0  0  0  0  0  2  0  0  0  0  0  0
  186.4010  177.9560  146.1720 C   0  0  0  0  0  0  0  0  0  0  0  0
  185.1730  178.3590  146.7690 N   0  0  0  0  0  1  0  0  0  0  0  0
  188.8900  177.1040  145.0410 C   0  0  0  0  0  3  0  0  0  0  0  0
  191.3680  177.4580  140.8890 C   0  0  0  0  0  2  0  0  0  0  0  0
  187.0860  178.3300  141.9970 C   0  0  0  0  0  0  0  0  0  0  0  0
  187.4280  178.2910  140.5900 C   0  0  0  0  0  3  0  0  0  0  0  0
  187.4330  177.6070  146.9440 C   0  0  0  0  0  3  0  0  0  0  0  0
  190.4430  177.5950  142.1190 C   0  0  0  0  0  2  0  0  0  0  0  0
  188.7550  177.2460  146.3660 C   0  0  0  0  0  0  0  0  0  0  0  0
  186.5730  177.9840  144.7110 C   0  0  0  0  0  0  0  0  0  0  0  0
  189.8980  177.0830  147.1630 O   0  0  0  0  0  0  0  0  0  0  0  0
  191.1920  176.7960  146.7020 C   0  0  0  0  0  0  0  0  0  0  0  0
  191.7730  177.5420  145.8690 O   0  0  0  0  0  0  0  0  0  0  0  0
  192.5270  174.9060  146.2520 F   0  0  0  0  0  0  0  0  0  0  0  0
  191.9240  175.6230  147.2690 C   0  0  0  0  0  0  0  0  0  0  0  0
  191.0320  174.8040  147.9350 F   0  0  0  0  0  0  0  0  0  0  0  0
  192.8970  176.0540  148.1540 F   0  0  0  0  0  0  0  0  0  0  0  0
  1  2  1  0  0  0  0
  2 18  1  0  0  0  0
  2 11  1  1  0  0  0
  3  6  1  0  0  0  0
  4 16  1  1  0  0  0
  4  1  1  0  0  0  0
  5 12  1  0  0  0  0
  6 18  2  0  0  0  0
  7 14  2  0  0  0  0
  7  4  1  0  0  0  0
  8  5  1  0  0  0  0
  8  7  1  0  0  0  0
  9 10  1  0  0  0  0
  9 15  2  0  0  0  0
 11 17  2  0  0  0  0
 12 16  1  0  0  0  0
 13  3  2  0  0  0  0
 13  1  1  0  0  0  0
 14 13  1  0  0  0  0
 17 15  1  0  0  0  0
 17 19  1  0  0  0  0
 18  9  1  0  0  0  0
 20 19  1  0  0  0  0
 20 23  1  0  0  0  0
 21 20  2  0  0  0  0
 22 23  1  0  0  0  0
 23 24  1  0  0  0  0
 23 25  1  0  0  0  0
M  END
>  <MODEL>
6

>  <REMARK>
 VINA RESULT:      -8.9      2.889      4.811
  Name = 
  3 active torsions:
  status: ('A' for Active; 'I' for Inactive)
    1  A    between atoms: O_6  and  C_15
    2  A    between atoms: O_6  and  C_23
    3  A    between atoms: C_7  and  C_15
                            x       y       z     vdW  Elec       q    Type
                         _______ _______ _______ _____ _____    ______ ____

>  <TORSDO>
F 3

$$$$
=
 OpenBabel11052412423D

 25 28  0  0  1  0  0  0  0  0999 V2000
  189.3830  177.4010  143.7370 N   0  0  0  0  0  0  0  0  0  0  0  0
  188.6540  177.2440  142.4800 C   0  0  1  0  0  3  0  0  0  0  0  0
  191.5060  177.1450  142.6620 C   0  0  0  0  0  3  0  0  0  0  0  0
  188.8700  177.0620  145.0560 C   0  0  1  0  0  3  0  0  0  0  0  0
  188.6760  176.8920  147.8390 C   0  0  0  0  0  2  0  0  0  0  0  0
  190.8620  177.4350  141.4090 N   0  0  0  0  0  0  0  0  0  0  0  0
  190.1170  176.7580  145.8400 C   0  0  0  0  0  0  0  0  0  0  0  0
  190.0960  176.6360  147.3280 C   0  0  0  0  0  2  0  0  0  0  0  0
  188.9410  177.9300  140.0260 C   0  0  0  0  0  0  0  0  0  0  0  0
  189.6670  177.8500  138.8050 N   0  0  0  0  0  1  0  0  0  0  0  0
  187.4080  178.0900  142.4400 C   0  0  0  0  0  3  0  0  0  0  0  0
  188.0860  178.1800  147.2410 C   0  0  0  0  0  2  0  0  0  0  0  0
  190.7770  177.1430  143.7740 C   0  0  0  0  0  0  0  0  0  0  0  0
  191.2260  176.8010  145.1090 C   0  0  0  0  0  3  0  0  0  0  0  0
  187.6990  178.4230  140.0310 C   0  0  0  0  0  3  0  0  0  0  0  0
  188.1510  178.2530  145.6980 C   0  0  0  0  0  2  0  0  0  0  0  0
  186.9290  178.5890  141.2930 C   0  0  0  0  0  0  0  0  0  0  0  0
  189.5640  177.5390  141.3000 C   0  0  0  0  0  0  0  0  0  0  0  0
  185.7180  179.2940  141.3400 O   0  0  0  0  0  0  0  0  0  0  0  0
  184.6410  179.1460  140.4530 C   0  0  0  0  0  0  0  0  0  0  0  0
  184.5580  179.8330  139.3990 O   0  0  0  0  0  0  0  0  0  0  0  0
  183.8550  177.5030  141.9500 F   0  0  0  0  0  0  0  0  0  0  0  0
  183.6110  178.0980  140.7250 C   0  0  0  0  0  0  0  0  0  0  0  0
  183.6620  177.1360  139.7350 F   0  0  0  0  0  0  0  0  0  0  0  0
  182.3500  178.6670  140.7460 F   0  0  0  0  0  0  0  0  0  0  0  0
  1 13  1  0  0  0  0
  1  4  1  0  0  0  0
  2 11  1  1  0  0  0
  2  1  1  0  0  0  0
  3 13  2  0  0  0  0
  4 16  1  1  0  0  0
  4  7  1  0  0  0  0
  6  3  1  0  0  0  0
  7  8  1  0  0  0  0
  8  5  1  0  0  0  0
  9 15  2  0  0  0  0
  9 18  1  0  0  0  0
 10  9  1  0  0  0  0
 12  5  1  0  0  0  0
 13 14  1  0  0  0  0
 14  7  2  0  0  0  0
 15 17  1  0  0  0  0
 16 12  1  0  0  0  0
 17 19  1  0  0  0  0
 17 11  2  0  0  0  0
 18  6  2  0  0  0  0
 18  2  1  0  0  0  0
 20 23  1  0  0  0  0
 20 19  1  0  0  0  0
 21 20  2  0  0  0  0
 23 25  1  0  0  0  0
 23 22  1  0  0  0  0
 24 23  1  0  0  0  0
M  END
>  <MODEL>
7

>  <REMARK>
 VINA RESULT:      -8.7      3.753      6.805
  Name = 
  3 active torsions:
  status: ('A' for Active; 'I' for Inactive)
    1  A    between atoms: O_6  and  C_15
    2  A    between atoms: O_6  and  C_23
    3  A    between atoms: C_7  and  C_15
                            x       y       z     vdW  Elec       q    Type
                         _______ _______ _______ _____ _____    ______ ____

>  <TORSDO>
F 3

$$$$
=
 OpenBabel11052412423D

 25 28  0  0  1  0  0  0  0  0999 V2000
  187.4140  177.9700  144.0000 N   0  0  0  0  0  0  0  0  0  0  0  0
  188.0830  177.3550  142.8550 C   0  0  1  0  0  3  0  0  0  0  0  0
  189.3090  177.6390  145.4230 C   0  0  0  0  0  3  0  0  0  0  0  0
  185.9760  177.9940  144.2200 C   0  0  1  0  0  3  0  0  0  0  0  0
  183.4940  178.6620  145.3200 C   0  0  0  0  0  2  0  0  0  0  0  0
  190.1130  177.4570  144.2430 N   0  0  0  0  0  0  0  0  0  0  0  0
  185.8600  178.0870  145.7170 C   0  0  0  0  0  0  0  0  0  0  0  0
  184.5680  178.4240  146.3850 C   0  0  0  0  0  2  0  0  0  0  0  0
  190.4420  177.2860  141.8540 C   0  0  0  0  0  0  0  0  0  0  0  0
  191.8140  176.9190  141.9630 N   0  0  0  0  0  1  0  0  0  0  0  0
  187.6860  178.0020  141.5540 C   0  0  0  0  0  3  0  0  0  0  0  0
  183.9850  179.6300  144.2310 C   0  0  0  0  0  2  0  0  0  0  0  0
  188.0110  177.8940  145.2830 C   0  0  0  0  0  0  0  0  0  0  0  0
  187.0320  178.0300  146.3430 C   0  0  0  0  0  3  0  0  0  0  0  0
  189.9340  177.6130  140.6630 C   0  0  0  0  0  3  0  0  0  0  0  0
  185.3350  179.2350  143.5900 C   0  0  0  0  0  2  0  0  0  0  0  0
  188.5260  178.0690  140.5130 C   0  0  0  0  0  0  0  0  0  0  0  0
  189.5890  177.3760  143.0500 C   0  0  0  0  0  0  0  0  0  0  0  0
  188.0420  178.6130  139.3140 O   0  0  0  0  0  0  0  0  0  0  0  0
  188.0280  177.9750  138.0640 C   0  0  0  0  0  0  0  0  0  0  0  0
  187.1620  177.1040  137.7800 O   0  0  0  0  0  0  0  0  0  0  0  0
  190.1800  177.6600  137.1530 F   0  0  0  0  0  0  0  0  0  0  0  0
  189.0140  178.3930  137.0220 C   0  0  0  0  0  0  0  0  0  0  0  0
  189.3030  179.7350  137.1750 F   0  0  0  0  0  0  0  0  0  0  0  0
  188.4900  178.1790  135.7590 F   0  0  0  0  0  0  0  0  0  0  0  0
  1  4  1  0  0  0  0
  1 13  1  0  0  0  0
  2 11  1  6  0  0  0
  2 18  1  0  0  0  0
  2  1  1  0  0  0  0
  4 16  1  6  0  0  0
  4  7  1  0  0  0  0
  5  8  1  0  0  0  0
  6  3  1  0  0  0  0
  7 14  2  0  0  0  0
  7  8  1  0  0  0  0
  9 10  1  0  0  0  0
  9 18  1  0  0  0  0
 12  5  1  0  0  0  0
 13  3  2  0  0  0  0
 13 14  1  0  0  0  0
 15  9  2  0  0  0  0
 16 12  1  0  0  0  0
 17 15  1  0  0  0  0
 17 11  2  0  0  0  0
 18  6  2  0  0  0  0
 19 17  1  0  0  0  0
 20 19  1  0  0  0  0
 21 20  2  0  0  0  0
 23 22  1  0  0  0  0
 23 24  1  0  0  0  0
 23 20  1  0  0  0  0
 25 23  1  0  0  0  0
M  END
>  <MODEL>
8

>  <REMARK>
 VINA RESULT:      -8.6      3.236      4.505
  Name = 
  3 active torsions:
  status: ('A' for Active; 'I' for Inactive)
    1  A    between atoms: O_6  and  C_15
    2  A    between atoms: O_6  and  C_23
    3  A    between atoms: C_7  and  C_15
                            x       y       z     vdW  Elec       q    Type
                         _______ _______ _______ _____ _____    ______ ____

>  <TORSDO>
F 3

$$$$
=
 OpenBabel11052412423D

 25 28  0  0  1  0  0  0  0  0999 V2000
  189.2190  177.5720  143.6990 N   0  0  0  0  0  0  0  0  0  0  0  0
  189.5940  177.0030  142.4060 C   0  0  1  0  0  3  0  0  0  0  0  0
  191.5030  177.8520  144.3590 C   0  0  0  0  0  3  0  0  0  0  0  0
  187.9870  177.2880  144.4180 C   0  0  1  0  0  3  0  0  0  0  0  0
  185.9430  177.4840  146.3150 C   0  0  0  0  0  2  0  0  0  0  0  0
  191.8760  177.7290  142.9750 N   0  0  0  0  0  0  0  0  0  0  0  0
  188.3670  177.5210  145.8550 C   0  0  0  0  0  0  0  0  0  0  0  0
  187.3380  177.6230  146.9310 C   0  0  0  0  0  2  0  0  0  0  0  0
  191.4060  177.3690  140.6300 C   0  0  0  0  0  0  0  0  0  0  0  0
  192.7790  177.3440  140.2510 N   0  0  0  0  0  1  0  0  0  0  0  0
  188.6270  177.3890  141.3170 C   0  0  0  0  0  3  0  0  0  0  0  0
  185.7690  178.4100  145.0990 C   0  0  0  0  0  2  0  0  0  0  0  0
  190.2150  177.7830  144.6860 C   0  0  0  0  0  0  0  0  0  0  0  0
  189.6540  177.8070  146.0210 C   0  0  0  0  0  3  0  0  0  0  0  0
  190.4580  177.4320  139.6920 C   0  0  0  0  0  3  0  0  0  0  0  0
  186.8750  178.2670  144.0280 C   0  0  0  0  0  2  0  0  0  0  0  0
  189.0160  177.5300  140.0430 C   0  0  0  0  0  0  0  0  0  0  0  0
  191.0180  177.3940  142.0490 C   0  0  0  0  0  0  0  0  0  0  0  0
  188.0320  177.8080  139.0840 O   0  0  0  0  0  0  0  0  0  0  0  0
  188.1060  177.5110  137.7140 C   0  0  0  0  0  0  0  0  0  0  0  0
  187.8150  176.3660  137.2730 O   0  0  0  0  0  0  0  0  0  0  0  0
  189.2700  178.0920  135.7480 F   0  0  0  0  0  0  0  0  0  0  0  0
  188.4630  178.5970  136.7520 C   0  0  0  0  0  0  0  0  0  0  0  0
  189.1430  179.5970  137.4200 F   0  0  0  0  0  0  0  0  0  0  0  0
  187.3170  179.1240  136.1840 F   0  0  0  0  0  0  0  0  0  0  0  0
  1  4  1  0  0  0  0
  1 13  1  0  0  0  0
  2 11  1  6  0  0  0
  2  1  1  0  0  0  0
  3 13  2  0  0  0  0
  4 16  1  6  0  0  0
  4  7  1  0  0  0  0
  5  8  1  0  0  0  0
  6  3  1  0  0  0  0
  7 14  2  0  0  0  0
  7  8  1  0  0  0  0
  9 18  1  0  0  0  0
 10  9  1  0  0  0  0
 12  5  1  0  0  0  0
 13 14  1  0  0  0  0
 15 17  1  0  0  0  0
 15  9  2  0  0  0  0
 16 12  1  0  0  0  0
 17 11  2  0  0  0  0
 18  2  1  0  0  0  0
 18  6  2  0  0  0  0
 19 17  1  0  0  0  0
 20 19  1  0  0  0  0
 21 20  2  0  0  0  0
 22 23  1  0  0  0  0
 23 24  1  0  0  0  0
 23 20  1  0  0  0  0
 25 23  1  0  0  0  0
M  END
>  <MODEL>
9

>  <REMARK>
 VINA RESULT:      -8.6      3.676      5.663
  Name = 
  3 active torsions:
  status: ('A' for Active; 'I' for Inactive)
    1  A    between atoms: O_6  and  C_15
    2  A    between atoms: O_6  and  C_23
    3  A    between atoms: C_7  and  C_15
                            x       y       z     vdW  Elec       q    Type
                         _______ _______ _______ _____ _____    ______ ____

>  <TORSDO>
F 3

$$$$
