=
 OpenBabel11052414263D

 32 38  0  0  1  0  0  0  0  0999 V2000
  184.2420  178.1900  142.5670 C   0  0  2  0  0  3  0  0  0  0  0  0
  186.7430  177.9890  142.9850 C   0  0  0  0  0  0  0  0  0  0  0  0
  183.2030  179.2120  143.0090 C   0  0  0  0  0  2  0  0  0  0  0  0
  185.4420  178.2070  143.4810 C   0  0  0  0  0  0  0  0  0  0  0  0
  187.8020  177.7390  143.8890 C   0  0  0  0  0  0  0  0  0  0  0  0
  189.8450  177.1620  139.2150 C   0  0  0  0  0  2  0  0  0  0  0  0
  187.0010  178.0530  141.5990 C   0  0  0  0  0  0  0  0  0  0  0  0
  190.7030  177.0720  141.5480 C   0  0  0  0  0  2  0  0  0  0  0  0
  189.3300  177.4640  142.0180 C   0  0  0  0  0  0  0  0  0  0  0  0
  185.2320  178.3430  144.8660 C   0  0  0  0  0  0  0  0  0  0  0  0
  189.0780  177.4570  143.3900 C   0  0  0  0  0  3  0  0  0  0  0  0
  186.2930  178.1380  145.7500 C   0  0  0  0  0  3  0  0  0  0  0  0
  183.9290  178.8720  145.4130 C   0  0  0  0  0  2  0  0  0  0  0  0
  185.9430  178.5990  140.6780 C   0  0  0  0  0  2  0  0  0  0  0  0
  184.5590  178.0820  141.0610 C   0  0  2  0  0  3  0  0  0  0  0  0
  188.2910  177.7680  141.1100 C   0  0  0  0  0  0  0  0  0  0  0  0
  187.5640  177.8020  145.2770 C   0  0  0  0  0  0  0  0  0  0  0  0
  182.7610  178.8200  144.4170 C   0  0  0  0  0  2  0  0  0  0  0  0
  190.9930  177.5570  140.1310 C   0  0  0  0  0  2  0  0  0  0  0  0
  188.5840  177.9090  139.6350 C   0  0  0  0  0  2  0  0  0  0  0  0
  182.2820  177.4510  137.9130 C   0  0  2  0  0  3  0  0  0  0  0  0
  181.1050  180.4090  136.9270 O   0  0  0  0  0  1  0  0  0  0  0  0
  183.6200  176.7760  138.2100 C   0  0  0  0  0  2  0  0  0  0  0  0
  182.6420  180.5250  138.7490 C   0  0  0  0  0  2  0  0  0  0  0  0
  183.4380  178.5480  140.1200 C   0  0  1  0  0  3  0  0  0  0  0  0
  182.5420  178.6620  137.2540 O   0  0  0  0  0  0  0  0  0  0  0  0
  183.8520  179.7660  139.2890 C   0  0  0  0  0  2  0  0  0  0  0  0
  182.8150  177.3520  139.3520 C   0  0  1  0  0  0  0  0  0  0  0  0
  182.1250  176.2860  140.1800 C   0  0  0  0  0  1  0  0  0  0  0  0
  181.7570  179.6330  137.8850 C   0  0  2  0  0  3  0  0  0  0  0  0
  188.6460  177.5400  146.2750 C   0  0  0  0  0  2  0  0  0  0  0  0
  188.0890  177.0450  147.4540 O   0  0  0  0  0  1  0  0  0  0  0  0
  1  3  1  6  0  0  0
  1  4  1  0  0  0  0
  2  4  2  0  0  0  0
  2  5  1  0  0  0  0
  3 18  1  0  0  0  0
  4 10  1  0  0  0  0
  5 17  2  0  0  0  0
  6 20  1  0  0  0  0
  6 19  1  0  0  0  0
  7  2  1  0  0  0  0
  8  9  1  0  0  0  0
  9 11  2  0  0  0  0
 10 13  1  0  0  0  0
 10 12  2  0  0  0  0
 11  5  1  0  0  0  0
 14  7  1  0  0  0  0
 15 14  1  1  0  0  0
 15  1  1  0  0  0  0
 16  7  2  0  0  0  0
 16  9  1  0  0  0  0
 17 12  1  0  0  0  0
 17 31  1  0  0  0  0
 18 13  1  0  0  0  0
 19  8  1  0  0  0  0
 20 16  1  0  0  0  0
 21 23  1  6  0  0  0
 21 28  1  0  0  0  0
 23 28  1  0  0  0  0
 24 27  1  0  0  0  0
 25 27  1  6  0  0  0
 25 15  1  0  0  0  0
 26 30  1  0  0  0  0
 26 21  1  0  0  0  0
 28 25  1  0  0  0  0
 28 29  1  1  0  0  0
 30 22  1  6  0  0  0
 30 24  1  0  0  0  0
 31 32  1  0  0  0  0
M  END
>  <MODEL>
1

>  <REMARK>
 VINA RESULT:     -10.6      0.000      0.000
  Name = 
  2 active torsions:
  status: ('A' for Active; 'I' for Inactive)
    1  A    between atoms: C_13  and  C_29
    2  A    between atoms: C_16  and  C_27
                            x       y       z     vdW  Elec       q    Type
                         _______ _______ _______ _____ _____    ______ ____

>  <TORSDO>
F 2

$$$$
=
 OpenBabel11052414263D

 32 38  0  0  1  0  0  0  0  0999 V2000
  186.9310  178.5640  145.2640 C   0  0  2  0  0  3  0  0  0  0  0  0
  185.7170  178.4460  143.0320 C   0  0  0  0  0  0  0  0  0  0  0  0
  186.7830  177.7790  146.5590 C   0  0  0  0  0  2  0  0  0  0  0  0
  185.6690  178.4940  144.4390 C   0  0  0  0  0  0  0  0  0  0  0  0
  184.5320  178.6550  142.2860 C   0  0  0  0  0  0  0  0  0  0  0  0
  188.2820  178.2820  138.8000 C   0  0  0  0  0  2  0  0  0  0  0  0
  186.9260  178.1570  142.3650 C   0  0  0  0  0  0  0  0  0  0  0  0
  185.8120  178.5590  138.7220 C   0  0  0  0  0  2  0  0  0  0  0  0
  185.7990  178.4430  140.2220 C   0  0  0  0  0  0  0  0  0  0  0  0
  184.4290  178.5790  145.0980 C   0  0  0  0  0  0  0  0  0  0  0  0
  184.5960  178.6740  140.8890 C   0  0  0  0  0  3  0  0  0  0  0  0
  183.2590  178.7420  144.3530 C   0  0  0  0  0  3  0  0  0  0  0  0
  184.3100  178.3300  146.5810 C   0  0  0  0  0  2  0  0  0  0  0  0
  188.1020  177.6540  143.1590 C   0  0  0  0  0  2  0  0  0  0  0  0
  188.2470  178.4190  144.4730 C   0  0  2  0  0  3  0  0  0  0  0  0
  186.9760  178.1770  140.9570 C   0  0  0  0  0  0  0  0  0  0  0  0
  183.3040  178.8180  142.9580 C   0  0  0  0  0  0  0  0  0  0  0  0
  185.6400  178.4190  147.3430 C   0  0  0  0  0  2  0  0  0  0  0  0
  187.0070  177.8490  138.0950 C   0  0  0  0  0  2  0  0  0  0  0  0
  188.2520  177.7950  140.2440 C   0  0  0  0  0  2  0  0  0  0  0  0
  191.9320  177.0470  144.6480 C   0  0  2  0  0  3  0  0  0  0  0  0
  192.3940  175.8240  147.7130 O   0  0  0  0  0  1  0  0  0  0  0  0
  190.9670  176.8970  143.4730 C   0  0  0  0  0  2  0  0  0  0  0  0
  190.1760  176.5980  147.2920 C   0  0  0  0  0  2  0  0  0  0  0  0
  189.4690  178.0020  145.3050 C   0  0  1  0  0  3  0  0  0  0  0  0
  191.6930  175.9950  145.5450 O   0  0  0  0  0  0  0  0  0  0  0  0
  189.2030  176.7340  146.1230 C   0  0  0  0  0  2  0  0  0  0  0  0
  190.7650  178.0300  144.4520 C   0  0  1  0  0  0  0  0  0  0  0  0
  191.1930  179.3720  143.8930 C   0  0  0  0  0  1  0  0  0  0  0  0
  191.6260  176.5690  146.8200 C   0  0  2  0  0  3  0  0  0  0  0  0
  182.0250  179.0490  142.2190 C   0  0  0  0  0  2  0  0  0  0  0  0
  181.1620  179.8160  142.9990 O   0  0  0  0  0  1  0  0  0  0  0  0
  1  3  1  1  0  0  0
  2  4  2  0  0  0  0
  3 18  1  0  0  0  0
  4 10  1  0  0  0  0
  4  1  1  0  0  0  0
  5 17  2  0  0  0  0
  5  2  1  0  0  0  0
  6 20  1  0  0  0  0
  7  2  1  0  0  0  0
  7 14  1  0  0  0  0
  8  9  1  0  0  0  0
  9 11  2  0  0  0  0
  9 16  1  0  0  0  0
 10 13  1  0  0  0  0
 11  5  1  0  0  0  0
 12 10  2  0  0  0  0
 13 18  1  0  0  0  0
 15 14  1  6  0  0  0
 15  1  1  0  0  0  0
 15 25  1  0  0  0  0
 16  7  2  0  0  0  0
 17 12  1  0  0  0  0
 19  8  1  0  0  0  0
 19  6  1  0  0  0  0
 20 16  1  0  0  0  0
 21 23  1  6  0  0  0
 21 26  1  0  0  0  0
 23 28  1  0  0  0  0
 25 27  1  6  0  0  0
 26 30  1  0  0  0  0
 27 24  1  0  0  0  0
 28 29  1  6  0  0  0
 28 21  1  0  0  0  0
 28 25  1  0  0  0  0
 30 24  1  0  0  0  0
 30 22  1  1  0  0  0
 31 17  1  0  0  0  0
 31 32  1  0  0  0  0
M  END
>  <MODEL>
2

>  <REMARK>
 VINA RESULT:     -10.1      2.477      7.320
  Name = 
  2 active torsions:
  status: ('A' for Active; 'I' for Inactive)
    1  A    between atoms: C_13  and  C_29
    2  A    between atoms: C_16  and  C_27
                            x       y       z     vdW  Elec       q    Type
                         _______ _______ _______ _____ _____    ______ ____

>  <TORSDO>
F 2

$$$$
=
 OpenBabel11052414263D

 32 38  0  0  1  0  0  0  0  0999 V2000
  184.4650  178.3360  142.1630 C   0  0  2  0  0  3  0  0  0  0  0  0
  186.9870  178.0220  142.0660 C   0  0  0  0  0  0  0  0  0  0  0  0
  183.5790  179.3230  142.9100 C   0  0  0  0  0  2  0  0  0  0  0  0
  185.8150  178.2110  142.8250 C   0  0  0  0  0  0  0  0  0  0  0  0
  188.1840  177.6370  142.7150 C   0  0  0  0  0  0  0  0  0  0  0  0
  189.2810  177.5770  137.7010 C   0  0  0  0  0  2  0  0  0  0  0  0
  186.9830  178.2460  140.6730 C   0  0  0  0  0  0  0  0  0  0  0  0
  190.5570  177.1830  139.7980 C   0  0  0  0  0  2  0  0  0  0  0  0
  189.3170  177.5510  140.5660 C   0  0  0  0  0  0  0  0  0  0  0  0
  185.8760  178.1850  144.2300 C   0  0  0  0  0  0  0  0  0  0  0  0
  189.3280  177.3850  141.9510 C   0  0  0  0  0  3  0  0  0  0  0  0
  187.0730  177.8470  144.8650 C   0  0  0  0  0  3  0  0  0  0  0  0
  184.7260  178.6770  145.0750 C   0  0  0  0  0  2  0  0  0  0  0  0
  185.7980  178.9260  140.0410 C   0  0  0  0  0  2  0  0  0  0  0  0
  184.4870  178.4030  140.6220 C   0  0  2  0  0  3  0  0  0  0  0  0
  188.1420  177.9890  139.9160 C   0  0  0  0  0  0  0  0  0  0  0  0
  188.2150  177.5380  144.1210 C   0  0  0  0  0  0  0  0  0  0  0  0
  183.3910  178.7760  144.3230 C   0  0  0  0  0  2  0  0  0  0  0  0
  190.5980  177.8280  138.4170 C   0  0  0  0  0  2  0  0  0  0  0  0
  188.1590  178.3000  138.4370 C   0  0  0  0  0  2  0  0  0  0  0  0
  181.4100  178.0510  138.1920 C   0  0  2  0  0  3  0  0  0  0  0  0
  180.4220  181.1300  137.3860 O   0  0  0  0  0  1  0  0  0  0  0  0
  182.6780  177.1980  138.1740 C   0  0  0  0  0  2  0  0  0  0  0  0
  182.3790  181.0560  138.7500 C   0  0  0  0  0  2  0  0  0  0  0  0
  183.2330  179.0070  139.9740 C   0  0  1  0  0  3  0  0  0  0  0  0
  181.6500  179.2030  137.4270 O   0  0  0  0  0  0  0  0  0  0  0  0
  183.5760  180.1420  139.0030 C   0  0  0  0  0  2  0  0  0  0  0  0
  182.2800  177.9000  139.4520 C   0  0  1  0  0  0  0  0  0  0  0  0
  181.6920  176.9550  140.4820 C   0  0  0  0  0  1  0  0  0  0  0  0
  181.1900  180.2850  138.1860 C   0  0  2  0  0  3  0  0  0  0  0  0
  189.4510  177.1290  144.8560 C   0  0  0  0  0  2  0  0  0  0  0  0
  189.7510  178.0750  145.8350 O   0  0  0  0  0  1  0  0  0  0  0  0
  1  4  1  0  0  0  0
  1  3  1  1  0  0  0
  2  5  1  0  0  0  0
  2  4  2  0  0  0  0
  3 18  1  0  0  0  0
  4 10  1  0  0  0  0
  5 17  2  0  0  0  0
  6 19  1  0  0  0  0
  6 20  1  0  0  0  0
  7  2  1  0  0  0  0
  8  9  1  0  0  0  0
  9 11  2  0  0  0  0
 10 12  2  0  0  0  0
 10 13  1  0  0  0  0
 11  5  1  0  0  0  0
 14  7  1  0  0  0  0
 15 14  1  1  0  0  0
 15  1  1  0  0  0  0
 16  9  1  0  0  0  0
 16  7  2  0  0  0  0
 17 31  1  0  0  0  0
 17 12  1  0  0  0  0
 18 13  1  0  0  0  0
 19  8  1  0  0  0  0
 20 16  1  0  0  0  0
 21 23  1  6  0  0  0
 21 28  1  0  0  0  0
 23 28  1  0  0  0  0
 24 27  1  0  0  0  0
 25 27  1  6  0  0  0
 25 15  1  0  0  0  0
 26 30  1  0  0  0  0
 26 21  1  0  0  0  0
 28 25  1  0  0  0  0
 28 29  1  1  0  0  0
 30 22  1  6  0  0  0
 30 24  1  0  0  0  0
 31 32  1  0  0  0  0
M  END
>  <MODEL>
3

>  <REMARK>
 VINA RESULT:      -9.1      0.976      1.172
  Name = 
  2 active torsions:
  status: ('A' for Active; 'I' for Inactive)
    1  A    between atoms: C_13  and  C_29
    2  A    between atoms: C_16  and  C_27
                            x       y       z     vdW  Elec       q    Type
                         _______ _______ _______ _____ _____    ______ ____

>  <TORSDO>
F 2

$$$$
=
 OpenBabel11052414263D

 32 38  0  0  1  0  0  0  0  0999 V2000
  187.5480  178.6130  141.5720 C   0  0  2  0  0  3  0  0  0  0  0  0
  188.2740  177.7920  139.2770 C   0  0  0  0  0  0  0  0  0  0  0  0
  186.3690  178.2570  142.4670 C   0  0  0  0  0  2  0  0  0  0  0  0
  187.2600  178.2660  140.1320 C   0  0  0  0  0  0  0  0  0  0  0  0
  188.0410  177.7370  137.8810 C   0  0  0  0  0  0  0  0  0  0  0  0
  192.9600  176.4000  138.4900 C   0  0  0  0  0  2  0  0  0  0  0  0
  189.5020  177.3400  139.8030 C   0  0  0  0  0  0  0  0  0  0  0  0
  191.3990  176.5870  136.5620 C   0  0  0  0  0  2  0  0  0  0  0  0
  190.3090  176.9340  137.5380 C   0  0  0  0  0  0  0  0  0  0  0  0
  185.9730  178.5210  139.6230 C   0  0  0  0  0  0  0  0  0  0  0  0
  189.0730  177.3300  137.0300 C   0  0  0  0  0  3  0  0  0  0  0  0
  185.7400  178.4230  138.2500 C   0  0  0  0  0  3  0  0  0  0  0  0
  184.7940  178.7340  140.5400 C   0  0  0  0  0  2  0  0  0  0  0  0
  189.6330  177.1300  141.2880 C   0  0  0  0  0  2  0  0  0  0  0  0
  188.9660  178.2620  142.0650 C   0  0  2  0  0  3  0  0  0  0  0  0
  190.5320  176.9300  138.9340 C   0  0  0  0  0  0  0  0  0  0  0  0
  186.7700  178.0710  137.3730 C   0  0  0  0  0  0  0  0  0  0  0  0
  185.1770  179.0810  141.9860 C   0  0  0  0  0  2  0  0  0  0  0  0
  192.5010  175.7450  137.1960 C   0  0  0  0  0  2  0  0  0  0  0  0
  191.8190  176.3770  139.5000 C   0  0  0  0  0  2  0  0  0  0  0  0
  191.2320  177.5790  145.2110 C   0  0  2  0  0  3  0  0  0  0  0  0
  189.2130  176.7510  147.7300 O   0  0  0  0  0  1  0  0  0  0  0  0
  191.5290  177.1520  143.7740 C   0  0  0  0  0  2  0  0  0  0  0  0
  188.0950  177.0810  145.6480 C   0  0  0  0  0  2  0  0  0  0  0  0
  189.1200  178.1460  143.5890 C   0  0  1  0  0  3  0  0  0  0  0  0
  190.4300  176.5910  145.8020 O   0  0  0  0  0  0  0  0  0  0  0  0
  188.3710  176.9340  144.1530 C   0  0  0  0  0  2  0  0  0  0  0  0
  190.6000  178.3190  144.0200 C   0  0  1  0  0  0  0  0  0  0  0  0
  191.2500  179.6570  143.7270 C   0  0  0  0  0  1  0  0  0  0  0  0
  189.3830  177.2620  146.4440 C   0  0  2  0  0  3  0  0  0  0  0  0
  186.4730  178.0370  135.9080 C   0  0  0  0  0  2  0  0  0  0  0  0
  185.5310  177.0430  135.6410 O   0  0  0  0  0  1  0  0  0  0  0  0
  1 15  1  0  0  0  0
  1  3  1  1  0  0  0
  2  7  1  0  0  0  0
  2  4  2  0  0  0  0
  4  1  1  0  0  0  0
  5  2  1  0  0  0  0
  6 20  1  0  0  0  0
  7 14  1  0  0  0  0
  8 19  1  0  0  0  0
  8  9  1  0  0  0  0
  9 16  1  0  0  0  0
 10  4  1  0  0  0  0
 10 13  1  0  0  0  0
 11  9  2  0  0  0  0
 11  5  1  0  0  0  0
 12 10  2  0  0  0  0
 13 18  1  0  0  0  0
 15 14  1  6  0  0  0
 15 25  1  0  0  0  0
 16 20  1  0  0  0  0
 16  7  2  0  0  0  0
 17  5  2  0  0  0  0
 17 12  1  0  0  0  0
 18  3  1  0  0  0  0
 19  6  1  0  0  0  0
 21 23  1  6  0  0  0
 21 26  1  0  0  0  0
 23 28  1  0  0  0  0
 24 30  1  0  0  0  0
 25 28  1  0  0  0  0
 25 27  1  6  0  0  0
 26 30  1  0  0  0  0
 27 24  1  0  0  0  0
 28 29  1  6  0  0  0
 28 21  1  0  0  0  0
 30 22  1  1  0  0  0
 31 17  1  0  0  0  0
 32 31  1  0  0  0  0
M  END
>  <MODEL>
4

>  <REMARK>
 VINA RESULT:      -8.8      2.374      7.481
  Name = 
  2 active torsions:
  status: ('A' for Active; 'I' for Inactive)
    1  A    between atoms: C_13  and  C_29
    2  A    between atoms: C_16  and  C_27
                            x       y       z     vdW  Elec       q    Type
                         _______ _______ _______ _____ _____    ______ ____

>  <TORSDO>
F 2

$$$$
=
 OpenBabel11052414263D

 32 38  0  0  1  0  0  0  0  0999 V2000
  185.2460  177.8580  144.0630 C   0  0  2  0  0  3  0  0  0  0  0  0
  187.6190  177.9360  143.1490 C   0  0  0  0  0  0  0  0  0  0  0  0
  184.4980  178.7310  145.0600 C   0  0  0  0  0  2  0  0  0  0  0  0
  186.7390  177.9780  144.2490 C   0  0  0  0  0  0  0  0  0  0  0  0
  189.0080  177.7760  143.3730 C   0  0  0  0  0  0  0  0  0  0  0  0
  188.4290  177.6340  138.2740 C   0  0  0  0  0  2  0  0  0  0  0  0
  187.1310  178.0850  141.8340 C   0  0  0  0  0  0  0  0  0  0  0  0
  190.3580  177.5500  139.8420 C   0  0  0  0  0  2  0  0  0  0  0  0
  189.3880  177.7590  140.9720 C   0  0  0  0  0  0  0  0  0  0  0  0
  187.2520  178.0330  145.5580 C   0  0  0  0  0  0  0  0  0  0  0  0
  189.8700  177.6660  142.2780 C   0  0  0  0  0  3  0  0  0  0  0  0
  188.6270  177.9190  145.7680 C   0  0  0  0  0  3  0  0  0  0  0  0
  186.3700  178.3820  146.7320 C   0  0  0  0  0  2  0  0  0  0  0  0
  185.7120  178.5400  141.6240 C   0  0  0  0  0  2  0  0  0  0  0  0
  184.7610  177.8490  142.5990 C   0  0  2  0  0  3  0  0  0  0  0  0
  188.0110  177.9750  140.7400 C   0  0  0  0  0  0  0  0  0  0  0  0
  189.5040  177.7540  144.6920 C   0  0  0  0  0  0  0  0  0  0  0  0
  184.8670  178.2340  146.4560 C   0  0  0  0  0  2  0  0  0  0  0  0
  189.8470  178.1230  138.5240 C   0  0  0  0  0  2  0  0  0  0  0  0
  187.5000  178.2090  139.3380 C   0  0  0  0  0  2  0  0  0  0  0  0
  181.8630  179.1050  140.2500 C   0  0  2  0  0  3  0  0  0  0  0  0
  179.4310  180.2720  142.2070 O   0  0  0  0  0  1  0  0  0  0  0  0
  183.3610  179.3000  140.0200 C   0  0  0  0  0  2  0  0  0  0  0  0
  181.3850  179.5720  143.3850 C   0  0  0  0  0  2  0  0  0  0  0  0
  183.2840  178.2170  142.3950 C   0  0  1  0  0  3  0  0  0  0  0  0
  181.4080  180.1520  141.0660 O   0  0  0  0  0  0  0  0  0  0  0  0
  182.8940  179.4810  143.1680 C   0  0  0  0  0  2  0  0  0  0  0  0
  182.8920  178.1610  140.8950 C   0  0  1  0  0  0  0  0  0  0  0  0
  182.9900  176.8140  140.2080 C   0  0  0  0  0  1  0  0  0  0  0  0
  180.6230  179.5630  142.0640 C   0  0  2  0  0  3  0  0  0  0  0  0
  190.9600  177.5810  144.9840 C   0  0  0  0  0  2  0  0  0  0  0  0
  191.1220  176.7980  146.1260 O   0  0  0  0  0  1  0  0  0  0  0  0
  1  4  1  0  0  0  0
  1  3  1  1  0  0  0
  2  5  1  0  0  0  0
  2  4  2  0  0  0  0
  3 18  1  0  0  0  0
  4 10  1  0  0  0  0
  5 17  2  0  0  0  0
  6 19  1  0  0  0  0
  6 20  1  0  0  0  0
  7  2  1  0  0  0  0
  8  9  1  0  0  0  0
  9 11  2  0  0  0  0
 10 12  2  0  0  0  0
 10 13  1  0  0  0  0
 11  5  1  0  0  0  0
 14  7  1  0  0  0  0
 15 14  1  6  0  0  0
 15  1  1  0  0  0  0
 16  9  1  0  0  0  0
 16  7  2  0  0  0  0
 17 31  1  0  0  0  0
 17 12  1  0  0  0  0
 18 13  1  0  0  0  0
 19  8  1  0  0  0  0
 20 16  1  0  0  0  0
 21 23  1  6  0  0  0
 21 28  1  0  0  0  0
 21 26  1  0  0  0  0
 23 28  1  0  0  0  0
 25 15  1  0  0  0  0
 25 27  1  6  0  0  0
 26 30  1  0  0  0  0
 27 24  1  0  0  0  0
 28 29  1  6  0  0  0
 28 25  1  0  0  0  0
 30 22  1  1  0  0  0
 30 24  1  0  0  0  0
 31 32  1  0  0  0  0
M  END
>  <MODEL>
5

>  <REMARK>
 VINA RESULT:      -8.7      1.771      2.606
  Name = 
  2 active torsions:
  status: ('A' for Active; 'I' for Inactive)
    1  A    between atoms: C_13  and  C_29
    2  A    between atoms: C_16  and  C_27
                            x       y       z     vdW  Elec       q    Type
                         _______ _______ _______ _____ _____    ______ ____

>  <TORSDO>
F 2

$$$$
=
 OpenBabel11052414263D

 32 38  0  0  1  0  0  0  0  0999 V2000
  189.7680  177.8320  142.1670 C   0  0  2  0  0  3  0  0  0  0  0  0
  187.4740  177.9510  143.2600 C   0  0  0  0  0  0  0  0  0  0  0  0
  190.8710  176.7840  142.2010 C   0  0  0  0  0  2  0  0  0  0  0  0
  188.8560  177.7000  143.3630 C   0  0  0  0  0  0  0  0  0  0  0  0
  186.7000  178.0860  144.4370 C   0  0  0  0  0  0  0  0  0  0  0  0
  183.4870  179.1350  140.5740 C   0  0  0  0  0  2  0  0  0  0  0  0
  186.8520  178.0340  141.9960 C   0  0  0  0  0  0  0  0  0  0  0  0
  183.2880  178.9610  143.0470 C   0  0  0  0  0  2  0  0  0  0  0  0
  184.7310  178.5400  143.0860 C   0  0  0  0  0  0  0  0  0  0  0  0
  189.4280  177.4180  144.6170 C   0  0  0  0  0  0  0  0  0  0  0  0
  185.3420  178.4020  144.3330 C   0  0  0  0  0  3  0  0  0  0  0  0
  188.6470  177.5100  145.7700 C   0  0  0  0  0  3  0  0  0  0  0  0
  190.8220  176.8520  144.7340 C   0  0  0  0  0  2  0  0  0  0  0  0
  187.6150  177.6050  140.7720 C   0  0  0  0  0  2  0  0  0  0  0  0
  189.0600  178.0980  140.8230 C   0  0  2  0  0  3  0  0  0  0  0  0
  185.4830  178.3510  141.9050 C   0  0  0  0  0  0  0  0  0  0  0  0
  187.3010  177.8780  145.6950 C   0  0  0  0  0  0  0  0  0  0  0  0
  191.6800  177.0270  143.4720 C   0  0  0  0  0  2  0  0  0  0  0  0
  182.6210  178.6280  141.7170 C   0  0  0  0  0  2  0  0  0  0  0  0
  184.8030  178.3660  140.5560 C   0  0  0  0  0  2  0  0  0  0  0  0
  189.2020  177.2040  136.9920 C   0  0  2  0  0  3  0  0  0  0  0  0
  192.1310  175.7180  136.4250 O   0  0  0  0  0  1  0  0  0  0  0  0
  187.9880  177.0620  137.9080 C   0  0  0  0  0  2  0  0  0  0  0  0
  191.7260  176.2390  138.7190 C   0  0  0  0  0  2  0  0  0  0  0  0
  189.8800  177.7530  139.5710 C   0  0  1  0  0  3  0  0  0  0  0  0
  189.9730  176.0360  137.1060 O   0  0  0  0  0  0  0  0  0  0  0  0
  190.5480  176.3780  139.6800 C   0  0  0  0  0  2  0  0  0  0  0  0
  189.0770  178.0430  138.2750 C   0  0  1  0  0  0  0  0  0  0  0  0
  188.6810  179.4830  138.0190 C   0  0  0  0  0  1  0  0  0  0  0  0
  191.2990  176.4520  137.2700 C   0  0  2  0  0  3  0  0  0  0  0  0
  186.5310  178.0150  146.9690 C   0  0  0  0  0  2  0  0  0  0  0  0
  187.4100  178.2280  148.0300 O   0  0  0  0  0  1  0  0  0  0  0  0
  1  3  1  6  0  0  0
  1  4  1  0  0  0  0
  2  4  2  0  0  0  0
  2  5  1  0  0  0  0
  3 18  1  0  0  0  0
  4 10  1  0  0  0  0
  5 17  2  0  0  0  0
  6 19  1  0  0  0  0
  7  2  1  0  0  0  0
  8  9  1  0  0  0  0
  9 11  2  0  0  0  0
 10 13  1  0  0  0  0
 10 12  2  0  0  0  0
 11  5  1  0  0  0  0
 14  7  1  0  0  0  0
 15 14  1  1  0  0  0
 15  1  1  0  0  0  0
 16  7  2  0  0  0  0
 16  9  1  0  0  0  0
 17 12  1  0  0  0  0
 17 31  1  0  0  0  0
 18 13  1  0  0  0  0
 19  8  1  0  0  0  0
 20  6  1  0  0  0  0
 20 16  1  0  0  0  0
 21 26  1  0  0  0  0
 21 23  1  1  0  0  0
 21 28  1  0  0  0  0
 23 28  1  0  0  0  0
 24 27  1  0  0  0  0
 25 27  1  1  0  0  0
 25 15  1  0  0  0  0
 26 30  1  0  0  0  0
 28 29  1  6  0  0  0
 28 25  1  0  0  0  0
 30 22  1  6  0  0  0
 30 24  1  0  0  0  0
 31 32  1  0  0  0  0
M  END
>  <MODEL>
6

>  <REMARK>
 VINA RESULT:      -8.3      2.696      6.176
  Name = 
  2 active torsions:
  status: ('A' for Active; 'I' for Inactive)
    1  A    between atoms: C_13  and  C_29
    2  A    between atoms: C_16  and  C_27
                            x       y       z     vdW  Elec       q    Type
                         _______ _______ _______ _____ _____    ______ ____

>  <TORSDO>
F 2

$$$$
=
 OpenBabel11052414263D

 32 38  0  0  1  0  0  0  0  0999 V2000
  186.2860  178.7650  140.6010 C   0  0  2  0  0  3  0  0  0  0  0  0
  188.4880  177.7220  141.3300 C   0  0  0  0  0  0  0  0  0  0  0  0
  185.1800  178.2880  139.6700 C   0  0  0  0  0  2  0  0  0  0  0  0
  187.5870  178.0610  140.3020 C   0  0  0  0  0  0  0  0  0  0  0  0
  189.8040  177.3170  140.9990 C   0  0  0  0  0  0  0  0  0  0  0  0
  189.7060  177.5580  146.1260 C   0  0  0  0  0  2  0  0  0  0  0  0
  188.0790  177.7490  142.6800 C   0  0  0  0  0  0  0  0  0  0  0  0
  191.3860  176.9000  144.4150 C   0  0  0  0  0  2  0  0  0  0  0  0
  190.3340  177.1240  143.3640 C   0  0  0  0  0  0  0  0  0  0  0  0
  187.9380  177.8370  138.9570 C   0  0  0  0  0  0  0  0  0  0  0  0
  190.7160  177.0460  142.0250 C   0  0  0  0  0  3  0  0  0  0  0  0
  189.2240  177.3960  138.6420 C   0  0  0  0  0  3  0  0  0  0  0  0
  186.9070  177.8980  137.8570 C   0  0  0  0  0  2  0  0  0  0  0  0
  186.6160  177.8950  143.0020 C   0  0  0  0  0  2  0  0  0  0  0  0
  185.9540  178.9320  142.0970 C   0  0  2  0  0  3  0  0  0  0  0  0
  189.0070  177.4710  143.7020 C   0  0  0  0  0  0  0  0  0  0  0  0
  190.1700  177.1710  139.6460 C   0  0  0  0  0  0  0  0  0  0  0  0
  185.6140  178.6290  138.2470 C   0  0  0  0  0  2  0  0  0  0  0  0
  190.7860  176.5480  145.7720 C   0  0  0  0  0  2  0  0  0  0  0  0
  188.5500  177.4280  145.1420 C   0  0  0  0  0  2  0  0  0  0  0  0
  183.0100  179.0420  144.7090 C   0  0  2  0  0  3  0  0  0  0  0  0
  180.1570  178.8060  143.0020 O   0  0  0  0  0  1  0  0  0  0  0  0
  184.3320  178.2920  144.8680 C   0  0  0  0  0  2  0  0  0  0  0  0
  182.1200  178.6190  141.6580 C   0  0  0  0  0  2  0  0  0  0  0  0
  184.4720  179.1820  142.4160 C   0  0  1  0  0  3  0  0  0  0  0  0
  182.1190  178.2110  144.0130 O   0  0  0  0  0  0  0  0  0  0  0  0
  183.5610  178.1270  141.7800 C   0  0  0  0  0  2  0  0  0  0  0  0
  184.2630  179.4720  143.9260 C   0  0  1  0  0  0  0  0  0  0  0  0
  184.9310  180.7110  144.4880 C   0  0  0  0  0  1  0  0  0  0  0  0
  181.5380  179.0010  143.0150 C   0  0  2  0  0  3  0  0  0  0  0  0
  191.5470  176.7530  139.2430 C   0  0  0  0  0  2  0  0  0  0  0  0
  191.5000  175.4990  138.6350 O   0  0  0  0  0  1  0  0  0  0  0  0
  1  3  1  6  0  0  0
  1 15  1  0  0  0  0
  2  7  1  0  0  0  0
  4  1  1  0  0  0  0
  4  2  1  0  0  0  0
  5  2  2  0  0  0  0
  5 11  1  0  0  0  0
  7 14  1  0  0  0  0
  7 16  2  0  0  0  0
  8 19  1  0  0  0  0
  9 16  1  0  0  0  0
  9  8  1  0  0  0  0
 10  4  2  0  0  0  0
 11  9  2  0  0  0  0
 12 10  1  0  0  0  0
 12 17  2  0  0  0  0
 13 18  1  0  0  0  0
 13 10  1  0  0  0  0
 15 25  1  0  0  0  0
 15 14  1  1  0  0  0
 16 20  1  0  0  0  0
 17  5  1  0  0  0  0
 18  3  1  0  0  0  0
 19  6  1  0  0  0  0
 20  6  1  0  0  0  0
 21 23  1  1  0  0  0
 24 27  1  0  0  0  0
 24 30  1  0  0  0  0
 25 27  1  1  0  0  0
 25 28  1  0  0  0  0
 26 21  1  0  0  0  0
 28 29  1  1  0  0  0
 28 21  1  0  0  0  0
 28 23  1  0  0  0  0
 30 22  1  6  0  0  0
 30 26  1  0  0  0  0
 31 17  1  0  0  0  0
 32 31  1  0  0  0  0
M  END
>  <MODEL>
7

>  <REMARK>
 VINA RESULT:      -8.2      2.699      5.364
  Name = 
  2 active torsions:
  status: ('A' for Active; 'I' for Inactive)
    1  A    between atoms: C_13  and  C_29
    2  A    between atoms: C_16  and  C_27
                            x       y       z     vdW  Elec       q    Type
                         _______ _______ _______ _____ _____    ______ ____

>  <TORSDO>
F 2

$$$$
=
 OpenBabel11052414263D

 32 38  0  0  1  0  0  0  0  0999 V2000
  182.4360  178.3280  139.0510 C   0  0  2  0  0  3  0  0  0  0  0  0
  182.4470  178.7990  141.5510 C   0  0  0  0  0  0  0  0  0  0  0  0
  182.0500  179.1730  137.8460 C   0  0  0  0  0  2  0  0  0  0  0  0
  181.7830  178.8460  140.3090 C   0  0  0  0  0  0  0  0  0  0  0  0
  181.7180  179.0340  142.7410 C   0  0  0  0  0  0  0  0  0  0  0  0
  186.4380  177.7260  144.2760 C   0  0  0  0  0  2  0  0  0  0  0  0
  183.8350  178.5550  141.6130 C   0  0  0  0  0  0  0  0  0  0  0  0
  184.3410  178.4370  145.4070 C   0  0  0  0  0  2  0  0  0  0  0  0
  183.7270  178.6250  144.0470 C   0  0  0  0  0  0  0  0  0  0  0  0
  180.4490  179.2890  140.2420 C   0  0  0  0  0  0  0  0  0  0  0  0
  182.3660  178.9200  143.9760 C   0  0  0  0  0  3  0  0  0  0  0  0
  179.7490  179.5610  141.4190 C   0  0  0  0  0  3  0  0  0  0  0  0
  179.8050  179.6400  138.9230 C   0  0  0  0  0  2  0  0  0  0  0  0
  184.6460  178.5950  140.3450 C   0  0  0  0  0  2  0  0  0  0  0  0
  183.9110  177.9040  139.1990 C   0  0  2  0  0  3  0  0  0  0  0  0
  184.4750  178.4450  142.8630 C   0  0  0  0  0  0  0  0  0  0  0  0
  180.3590  179.4020  142.6670 C   0  0  0  0  0  0  0  0  0  0  0  0
  180.5340  179.0750  137.6960 C   0  0  0  0  0  2  0  0  0  0  0  0
  185.8580  178.5880  145.3860 C   0  0  0  0  0  2  0  0  0  0  0  0
  185.9730  178.2580  142.9260 C   0  0  0  0  0  2  0  0  0  0  0  0
  185.4350  175.8140  136.2320 C   0  0  2  0  0  3  0  0  0  0  0  0
  187.8710  177.6410  134.8760 O   0  0  0  0  0  1  0  0  0  0  0  0
  185.0160  175.2710  137.5970 C   0  0  0  0  0  2  0  0  0  0  0  0
  186.8660  178.6260  136.8040 C   0  0  0  0  0  2  0  0  0  0  0  0
  184.7110  177.8490  137.8890 C   0  0  1  0  0  3  0  0  0  0  0  0
  186.7540  176.2840  136.3360 O   0  0  0  0  0  0  0  0  0  0  0  0
  186.1900  178.1910  138.1030 C   0  0  0  0  0  2  0  0  0  0  0  0
  184.3980  176.5550  137.0930 C   0  0  1  0  0  0  0  0  0  0  0  0
  182.9720  176.3710  136.6120 C   0  0  0  0  0  1  0  0  0  0  0  0
  186.7730  177.5460  135.7310 C   0  0  2  0  0  3  0  0  0  0  0  0
  179.5420  179.6550  143.8930 C   0  0  0  0  0  2  0  0  0  0  0  0
  178.9780  178.4600  144.3370 O   0  0  0  0  0  1  0  0  0  0  0  0
  1  3  1  6  0  0  0
  1 15  1  0  0  0  0
  1  4  1  0  0  0  0
  2  7  2  0  0  0  0
  2  5  1  0  0  0  0
  4  2  1  0  0  0  0
  5 11  2  0  0  0  0
  6 19  1  0  0  0  0
  7 16  1  0  0  0  0
  9  8  1  0  0  0  0
 10  4  2  0  0  0  0
 10 12  1  0  0  0  0
 11  9  1  0  0  0  0
 12 17  2  0  0  0  0
 13 10  1  0  0  0  0
 14  7  1  0  0  0  0
 15 14  1  1  0  0  0
 16 20  1  0  0  0  0
 16  9  2  0  0  0  0
 17  5  1  0  0  0  0
 17 31  1  0  0  0  0
 18  3  1  0  0  0  0
 18 13  1  0  0  0  0
 19  8  1  0  0  0  0
 20  6  1  0  0  0  0
 21 26  1  0  0  0  0
 21 28  1  0  0  0  0
 21 23  1  1  0  0  0
 24 27  1  0  0  0  0
 25 27  1  1  0  0  0
 25 15  1  0  0  0  0
 28 29  1  6  0  0  0
 28 23  1  0  0  0  0
 28 25  1  0  0  0  0
 30 22  1  6  0  0  0
 30 26  1  0  0  0  0
 30 24  1  0  0  0  0
 31 32  1  0  0  0  0
M  END
>  <MODEL>
8

>  <REMARK>
 VINA RESULT:      -8.2      3.148      5.815
  Name = 
  2 active torsions:
  status: ('A' for Active; 'I' for Inactive)
    1  A    between atoms: C_13  and  C_29
    2  A    between atoms: C_16  and  C_27
                            x       y       z     vdW  Elec       q    Type
                         _______ _______ _______ _____ _____    ______ ____

>  <TORSDO>
F 2

$$$$
=
 OpenBabel11052414263D

 32 38  0  0  1  0  0  0  0  0999 V2000
  185.3270  178.6470  139.0070 C   0  0  2  0  0  3  0  0  0  0  0  0
  186.3030  178.2810  141.3270 C   0  0  0  0  0  0  0  0  0  0  0  0
  185.3370  177.8020  137.7410 C   0  0  0  0  0  2  0  0  0  0  0  0
  186.4590  178.2590  139.9270 C   0  0  0  0  0  0  0  0  0  0  0  0
  187.4450  178.1810  142.1570 C   0  0  0  0  0  0  0  0  0  0  0  0
  183.5120  179.0030  145.3520 C   0  0  0  0  0  2  0  0  0  0  0  0
  185.0190  178.3670  141.9040 C   0  0  0  0  0  0  0  0  0  0  0  0
  185.9500  178.5840  145.6130 C   0  0  0  0  0  2  0  0  0  0  0  0
  186.0320  178.4110  144.1220 C   0  0  0  0  0  0  0  0  0  0  0  0
  187.7150  177.9700  139.3630 C   0  0  0  0  0  0  0  0  0  0  0  0
  187.2940  178.2710  143.5450 C   0  0  0  0  0  3  0  0  0  0  0  0
  188.8300  177.8290  140.1920 C   0  0  0  0  0  3  0  0  0  0  0  0
  187.8610  177.6400  137.8980 C   0  0  0  0  0  2  0  0  0  0  0  0
  183.8070  178.1820  141.0320 C   0  0  0  0  0  2  0  0  0  0  0  0
  183.9730  178.9050  139.6970 C   0  0  2  0  0  3  0  0  0  0  0  0
  184.8810  178.4550  143.3040 C   0  0  0  0  0  0  0  0  0  0  0  0
  188.7130  177.9680  141.5780 C   0  0  0  0  0  0  0  0  0  0  0  0
  186.6640  178.0670  137.0350 C   0  0  0  0  0  2  0  0  0  0  0  0
  184.5640  178.2590  146.1610 C   0  0  0  0  0  2  0  0  0  0  0  0
  183.5030  178.4720  143.9230 C   0  0  0  0  0  2  0  0  0  0  0  0
  180.2450  179.8910  138.9040 C   0  0  2  0  0  3  0  0  0  0  0  0
  179.0430  177.6150  136.7870 O   0  0  0  0  0  1  0  0  0  0  0  0
  180.9260  179.9590  140.2700 C   0  0  0  0  0  2  0  0  0  0  0  0
  181.2610  177.1690  137.5470 C   0  0  0  0  0  2  0  0  0  0  0  0
  182.7420  178.8140  138.7820 C   0  0  1  0  0  3  0  0  0  0  0  0
  179.7460  178.5910  138.7300 O   0  0  0  0  0  0  0  0  0  0  0  0
  182.1290  177.4090  138.7810 C   0  0  0  0  0  2  0  0  0  0  0  0
  181.7750  180.0030  139.0200 C   0  0  1  0  0  0  0  0  0  0  0  0
  182.3040  181.3910  138.7190 C   0  0  0  0  0  1  0  0  0  0  0  0
  180.1300  178.1880  137.4460 C   0  0  2  0  0  3  0  0  0  0  0  0
  189.9510  177.8620  142.4090 C   0  0  0  0  0  2  0  0  0  0  0  0
  190.4070  176.5440  142.4070 O   0  0  0  0  0  1  0  0  0  0  0  0
  1  3  1  6  0  0  0
  1 15  1  0  0  0  0
  1  4  1  0  0  0  0
  2  7  2  0  0  0  0
  2  5  1  0  0  0  0
  4  2  1  0  0  0  0
  5 11  2  0  0  0  0
  6 19  1  0  0  0  0
  7 16  1  0  0  0  0
  8 19  1  0  0  0  0
  9  8  1  0  0  0  0
 10  4  2  0  0  0  0
 10 12  1  0  0  0  0
 11  9  1  0  0  0  0
 12 17  2  0  0  0  0
 13 10  1  0  0  0  0
 14  7  1  0  0  0  0
 15 14  1  1  0  0  0
 16 20  1  0  0  0  0
 16  9  2  0  0  0  0
 17  5  1  0  0  0  0
 17 31  1  0  0  0  0
 18  3  1  0  0  0  0
 18 13  1  0  0  0  0
 20  6  1  0  0  0  0
 21 28  1  0  0  0  0
 21 23  1  1  0  0  0
 24 27  1  0  0  0  0
 25 27  1  1  0  0  0
 25 28  1  0  0  0  0
 25 15  1  0  0  0  0
 26 21  1  0  0  0  0
 28 29  1  6  0  0  0
 28 23  1  0  0  0  0
 30 22  1  1  0  0  0
 30 24  1  0  0  0  0
 30 26  1  0  0  0  0
 32 31  1  0  0  0  0
M  END
>  <MODEL>
9

>  <REMARK>
 VINA RESULT:      -8.2      1.807      4.889
  Name = 
  2 active torsions:
  status: ('A' for Active; 'I' for Inactive)
    1  A    between atoms: C_13  and  C_29
    2  A    between atoms: C_16  and  C_27
                            x       y       z     vdW  Elec       q    Type
                         _______ _______ _______ _____ _____    ______ ____

>  <TORSDO>
F 2

$$$$
