=
 OpenBabel11052414443D

 32 34  0  0  1  0  0  0  0  0999 V2000
  187.1220  178.4030  141.5930 N   0  0  0  0  0  0  0  0  0  0  0  0
  186.1440  178.2010  142.4330 C   0  0  0  0  0  0  0  0  0  0  0  0
  184.8160  177.8850  141.9840 N   0  0  0  0  0  2  0  0  0  0  0  0
  184.5070  179.7260  140.5760 O   0  0  0  0  0  0  0  0  0  0  0  0
  184.0800  178.6170  140.9950 C   0  0  0  0  0  0  0  0  0  0  0  0
  186.4280  178.1920  143.8810 C   0  0  0  0  0  0  0  0  0  0  0  0
  185.4450  178.6010  144.7940 C   0  0  0  0  0  3  0  0  0  0  0  0
  189.4330  177.2970  147.5840 C   0  0  0  0  0  3  0  0  0  0  0  0
  187.6770  177.7660  144.3610 C   0  0  0  0  0  3  0  0  0  0  0  0
  187.1990  178.1350  148.0180 C   0  0  0  0  0  3  0  0  0  0  0  0
  186.9390  178.1580  146.6450 C   0  0  0  0  0  0  0  0  0  0  0  0
  185.6990  178.5840  146.1700 C   0  0  0  0  0  3  0  0  0  0  0  0
  187.9370  177.7450  145.7330 C   0  0  0  0  0  0  0  0  0  0  0  0
  188.4450  177.7060  148.4860 C   0  0  0  0  0  3  0  0  0  0  0  0
  189.1800  177.3170  146.2080 C   0  0  0  0  0  3  0  0  0  0  0  0
  187.0290  178.3140  140.1390 C   0  0  0  0  0  2  0  0  0  0  0  0
  188.3850  178.1680  139.5260 C   0  0  0  0  0  0  0  0  0  0  0  0
  188.7670  178.9880  138.7070 O   0  0  0  0  0  0  0  0  0  0  0  0
  189.2870  177.0490  139.9390 C   0  0  0  0  0  2  0  0  0  0  0  0
  190.6600  177.3410  139.5500 N   0  0  0  0  0  0  0  0  0  0  0  0
  191.1790  176.1540  138.8810 C   0  0  1  0  0  3  0  0  0  0  0  0
  190.3090  175.8060  137.6880 C   0  0  0  0  0  2  0  0  0  0  0  0
  191.6250  176.5200  137.4760 C   0  0  2  0  0  3  0  0  0  0  0  0
  192.5830  175.6010  137.0500 O   0  0  0  0  0  1  0  0  0  0  0  0
  191.4200  177.4990  140.7830 C   0  0  0  0  0  2  0  0  0  0  0  0
  190.6800  176.8320  141.9280 C   0  0  0  0  0  2  0  0  0  0  0  0
  191.6250  175.8580  143.8260 C   0  0  0  0  0  1  0  0  0  0  0  0
  191.3490  177.1290  143.1820 N   0  0  0  0  0  2  0  0  0  0  0  0
  182.8620  178.1330  140.5170 O   0  0  0  0  0  0  0  0  0  0  0  0
  181.6380  178.8370  140.6940 C   0  0  0  0  0  2  0  0  0  0  0  0
  179.9520  178.1580  142.3970 C   0  0  0  0  0  1  0  0  0  0  0  0
  181.2560  178.8960  142.1640 C   0  0  0  0  0  2  0  0  0  0  0  0
  1  2  2  0  0  0  0
  2  6  1  0  0  0  0
  3  2  1  0  0  0  0
  4  5  2  0  0  0  0
  5  3  1  0  0  0  0
  6  9  2  0  0  0  0
  6  7  1  0  0  0  0
  7 12  2  0  0  0  0
  8 14  1  0  0  0  0
  9 13  1  0  0  0  0
 10 14  2  0  0  0  0
 11 10  1  0  0  0  0
 12 11  1  0  0  0  0
 13 15  1  0  0  0  0
 13 11  2  0  0  0  0
 15  8  2  0  0  0  0
 16  1  1  0  0  0  0
 17 19  1  0  0  0  0
 17 16  1  0  0  0  0
 18 17  2  0  0  0  0
 20 19  1  0  0  0  0
 20 25  1  0  0  0  0
 21 20  1  1  0  0  0
 22 21  1  0  0  0  0
 23 24  1  6  0  0  0
 23 22  1  0  0  0  0
 23 21  1  0  0  0  0
 25 26  1  0  0  0  0
 26 28  1  0  0  0  0
 28 27  1  0  0  0  0
 29 30  1  0  0  0  0
 29  5  1  0  0  0  0
 30 32  1  0  0  0  0
 32 31  1  0  0  0  0
M  END
>  <MODEL>
1

>  <REMARK>
 VINA RESULT:      -7.9      0.000      0.000
  Name = 
  12 active torsions:
  status: ('A' for Active; 'I' for Inactive)
    1  A    between atoms: N_1  and  C_4
    2  A    between atoms: C_2  and  C_5
    3  A    between atoms: C_3  and  N_20
    4  A    between atoms: C_4  and  C_24
    5  A    between atoms: C_13  and  O_18
    6  A    between atoms: C_13  and  C_29
    7  A    between atoms: C_15  and  N_20
    8  A    between atoms: C_15  and  C_26
    9  A    between atoms: C_16  and  N_20
   10  A    between atoms: C_16  and  C_24
   11  A    between atoms: O_18  and  C_30
   12  A    between atoms: N_19  and  C_26
                            x       y       z     vdW  Elec       q    Type
                         _______ _______ _______ _____ _____    ______ ____

>  <TORSDO>
F 12

$$$$
=
 OpenBabel11052414443D

 32 34  0  0  1  0  0  0  0  0999 V2000
  186.4710  178.5880  140.3960 N   0  0  0  0  0  0  0  0  0  0  0  0
  185.3870  178.6370  141.1200 C   0  0  0  0  0  0  0  0  0  0  0  0
  184.0790  178.5820  140.5270 N   0  0  0  0  0  2  0  0  0  0  0  0
  184.3260  180.3730  139.0440 O   0  0  0  0  0  0  0  0  0  0  0  0
  183.6290  179.4000  139.4390 C   0  0  0  0  0  0  0  0  0  0  0  0
  185.5020  178.6410  142.5910 C   0  0  0  0  0  0  0  0  0  0  0  0
  184.4990  179.2320  143.3740 C   0  0  0  0  0  3  0  0  0  0  0  0
  187.8960  177.4450  146.6380 C   0  0  0  0  0  3  0  0  0  0  0  0
  186.6070  178.0480  143.2240 C   0  0  0  0  0  3  0  0  0  0  0  0
  185.7870  178.6320  146.7910 C   0  0  0  0  0  3  0  0  0  0  0  0
  185.6890  178.6400  145.3960 C   0  0  0  0  0  0  0  0  0  0  0  0
  184.5920  179.2320  144.7700 C   0  0  0  0  0  3  0  0  0  0  0  0
  186.7060  178.0430  144.6170 C   0  0  0  0  0  0  0  0  0  0  0  0
  186.8900  178.0360  147.4110 C   0  0  0  0  0  3  0  0  0  0  0  0
  187.8050  177.4480  145.2420 C   0  0  0  0  0  3  0  0  0  0  0  0
  186.5210  178.4470  138.9440 C   0  0  0  0  0  2  0  0  0  0  0  0
  187.9220  178.2050  138.4800 C   0  0  0  0  0  0  0  0  0  0  0  0
  188.4640  179.0210  137.7520 O   0  0  0  0  0  0  0  0  0  0  0  0
  188.6740  176.9940  138.9340 C   0  0  0  0  0  2  0  0  0  0  0  0
  190.0050  177.3700  139.3900 N   0  0  0  0  0  0  0  0  0  0  0  0
  190.9010  176.2720  139.0530 C   0  0  1  0  0  3  0  0  0  0  0  0
  190.4780  175.6370  137.7420 C   0  0  0  0  0  2  0  0  0  0  0  0
  191.6430  176.6000  137.7690 C   0  0  2  0  0  3  0  0  0  0  0  0
  192.8360  175.8790  137.7370 O   0  0  0  0  0  1  0  0  0  0  0  0
  189.9450  177.4390  140.8440 C   0  0  0  0  0  2  0  0  0  0  0  0
  191.3480  177.3680  141.4170 C   0  0  0  0  0  2  0  0  0  0  0  0
  190.1870  175.8820  142.7930 C   0  0  0  0  0  1  0  0  0  0  0  0
  191.3010  176.8130  142.7580 N   0  0  0  0  0  2  0  0  0  0  0  0
  182.3960  179.1570  138.8340 O   0  0  0  0  0  0  0  0  0  0  0  0
  182.1440  177.9940  138.0530 C   0  0  0  0  0  2  0  0  0  0  0  0
  183.7960  176.1880  137.5990 C   0  0  0  0  0  1  0  0  0  0  0  0
  183.3760  177.6030  137.2540 C   0  0  0  0  0  2  0  0  0  0  0  0
  1  2  2  0  0  0  0
  2  6  1  0  0  0  0
  3  2  1  0  0  0  0
  4  5  2  0  0  0  0
  5  3  1  0  0  0  0
  6  9  2  0  0  0  0
  6  7  1  0  0  0  0
  7 12  2  0  0  0  0
  8 14  1  0  0  0  0
  9 13  1  0  0  0  0
 10 14  2  0  0  0  0
 11 10  1  0  0  0  0
 12 11  1  0  0  0  0
 13 15  1  0  0  0  0
 13 11  2  0  0  0  0
 15  8  2  0  0  0  0
 16  1  1  0  0  0  0
 17 19  1  0  0  0  0
 17 16  1  0  0  0  0
 18 17  2  0  0  0  0
 19 20  1  0  0  0  0
 20 25  1  0  0  0  0
 21 20  1  6  0  0  0
 22 23  1  0  0  0  0
 22 21  1  0  0  0  0
 23 24  1  1  0  0  0
 23 21  1  0  0  0  0
 25 26  1  0  0  0  0
 26 28  1  0  0  0  0
 28 27  1  0  0  0  0
 29  5  1  0  0  0  0
 30 29  1  0  0  0  0
 32 31  1  0  0  0  0
 32 30  1  0  0  0  0
M  END
>  <MODEL>
2

>  <REMARK>
 VINA RESULT:      -7.7      1.572      2.113
  Name = 
  12 active torsions:
  status: ('A' for Active; 'I' for Inactive)
    1  A    between atoms: N_1  and  C_4
    2  A    between atoms: C_2  and  C_5
    3  A    between atoms: C_3  and  N_20
    4  A    between atoms: C_4  and  C_24
    5  A    between atoms: C_13  and  O_18
    6  A    between atoms: C_13  and  C_29
    7  A    between atoms: C_15  and  N_20
    8  A    between atoms: C_15  and  C_26
    9  A    between atoms: C_16  and  N_20
   10  A    between atoms: C_16  and  C_24
   11  A    between atoms: O_18  and  C_30
   12  A    between atoms: N_19  and  C_26
                            x       y       z     vdW  Elec       q    Type
                         _______ _______ _______ _____ _____    ______ ____

>  <TORSDO>
F 12

$$$$
=
 OpenBabel11052414443D

 32 34  0  0  1  0  0  0  0  0999 V2000
  187.0510  178.3640  141.5330 N   0  0  0  0  0  0  0  0  0  0  0  0
  186.0550  178.2110  142.3620 C   0  0  0  0  0  0  0  0  0  0  0  0
  184.7230  177.9330  141.9010 N   0  0  0  0  0  2  0  0  0  0  0  0
  184.4970  179.7560  140.4560 O   0  0  0  0  0  0  0  0  0  0  0  0
  184.0270  178.6710  140.8880 C   0  0  0  0  0  0  0  0  0  0  0  0
  186.3190  178.2180  143.8140 C   0  0  0  0  0  0  0  0  0  0  0  0
  185.3620  178.7350  144.7020 C   0  0  0  0  0  3  0  0  0  0  0  0
  189.1900  177.1790  147.5850 C   0  0  0  0  0  3  0  0  0  0  0  0
  187.5210  177.7020  144.3250 C   0  0  0  0  0  3  0  0  0  0  0  0
  187.0300  178.2140  147.9630 C   0  0  0  0  0  3  0  0  0  0  0  0
  186.7900  178.2200  146.5860 C   0  0  0  0  0  0  0  0  0  0  0  0
  185.5960  178.7360  146.0810 C   0  0  0  0  0  3  0  0  0  0  0  0
  187.7610  177.6990  145.7010 C   0  0  0  0  0  0  0  0  0  0  0  0
  188.2290  177.6950  148.4620 C   0  0  0  0  0  3  0  0  0  0  0  0
  188.9570  177.1810  146.2060 C   0  0  0  0  0  3  0  0  0  0  0  0
  186.9740  178.2510  140.0800 C   0  0  0  0  0  2  0  0  0  0  0  0
  188.2490  177.7060  139.5200 C   0  0  0  0  0  0  0  0  0  0  0  0
  188.2150  176.9800  138.5390 O   0  0  0  0  0  0  0  0  0  0  0  0
  189.5650  178.0750  140.1290 C   0  0  0  0  0  2  0  0  0  0  0  0
  190.3800  176.8840  140.3240 N   0  0  0  0  0  0  0  0  0  0  0  0
  191.1840  177.1050  141.5200 C   0  0  1  0  0  3  0  0  0  0  0  0
  190.3540  177.7970  142.5850 C   0  0  0  0  0  2  0  0  0  0  0  0
  190.6010  176.3080  142.6740 C   0  0  2  0  0  3  0  0  0  0  0  0
  191.6040  176.0640  143.6100 O   0  0  0  0  0  1  0  0  0  0  0  0
  191.3030  176.8200  139.1990 C   0  0  0  0  0  2  0  0  0  0  0  0
  192.7000  177.1870  139.6620 C   0  0  0  0  0  2  0  0  0  0  0  0
  192.9640  176.3600  137.4960 C   0  0  0  0  0  1  0  0  0  0  0  0
  193.6790  176.6730  138.7200 N   0  0  0  0  0  2  0  0  0  0  0  0
  182.7990  178.2200  140.4020 O   0  0  0  0  0  0  0  0  0  0  0  0
  181.5770  178.9020  140.6630 C   0  0  0  0  0  2  0  0  0  0  0  0
  180.5020  179.7400  142.7470 C   0  0  0  0  0  1  0  0  0  0  0  0
  181.0210  178.5130  142.0230 C   0  0  0  0  0  2  0  0  0  0  0  0
  1  2  2  0  0  0  0
  2  6  1  0  0  0  0
  3  2  1  0  0  0  0
  4  5  2  0  0  0  0
  5  3  1  0  0  0  0
  6  9  2  0  0  0  0
  6  7  1  0  0  0  0
  7 12  2  0  0  0  0
  8 14  1  0  0  0  0
  9 13  1  0  0  0  0
 10 14  2  0  0  0  0
 11 10  1  0  0  0  0
 12 11  1  0  0  0  0
 13 15  1  0  0  0  0
 13 11  2  0  0  0  0
 15  8  2  0  0  0  0
 16  1  1  0  0  0  0
 17 16  1  0  0  0  0
 17 19  1  0  0  0  0
 18 17  2  0  0  0  0
 19 20  1  0  0  0  0
 21 20  1  6  0  0  0
 21 22  1  0  0  0  0
 21 23  1  0  0  0  0
 22 23  1  0  0  0  0
 23 24  1  1  0  0  0
 25 26  1  0  0  0  0
 25 20  1  0  0  0  0
 27 28  1  0  0  0  0
 28 26  1  0  0  0  0
 29 30  1  0  0  0  0
 29  5  1  0  0  0  0
 30 32  1  0  0  0  0
 32 31  1  0  0  0  0
M  END
>  <MODEL>
3

>  <REMARK>
 VINA RESULT:      -7.7      1.459      2.490
  Name = 
  12 active torsions:
  status: ('A' for Active; 'I' for Inactive)
    1  A    between atoms: N_1  and  C_4
    2  A    between atoms: C_2  and  C_5
    3  A    between atoms: C_3  and  N_20
    4  A    between atoms: C_4  and  C_24
    5  A    between atoms: C_13  and  O_18
    6  A    between atoms: C_13  and  C_29
    7  A    between atoms: C_15  and  N_20
    8  A    between atoms: C_15  and  C_26
    9  A    between atoms: C_16  and  N_20
   10  A    between atoms: C_16  and  C_24
   11  A    between atoms: O_18  and  C_30
   12  A    between atoms: N_19  and  C_26
                            x       y       z     vdW  Elec       q    Type
                         _______ _______ _______ _____ _____    ______ ____

>  <TORSDO>
F 12

$$$$
=
 OpenBabel11052414443D

 32 34  0  0  1  0  0  0  0  0999 V2000
  186.6990  178.5300  140.4740 N   0  0  0  0  0  0  0  0  0  0  0  0
  185.5860  178.5900  141.1530 C   0  0  0  0  0  0  0  0  0  0  0  0
  184.3030  178.5030  140.5110 N   0  0  0  0  0  2  0  0  0  0  0  0
  184.5910  180.2510  138.9850 O   0  0  0  0  0  0  0  0  0  0  0  0
  183.8890  179.2830  139.3820 C   0  0  0  0  0  0  0  0  0  0  0  0
  185.6440  178.6400  142.6270 C   0  0  0  0  0  0  0  0  0  0  0  0
  184.6380  179.2990  143.3490 C   0  0  0  0  0  3  0  0  0  0  0  0
  187.8220  177.4830  146.8050 C   0  0  0  0  0  3  0  0  0  0  0  0
  186.6960  178.0220  143.3230 C   0  0  0  0  0  3  0  0  0  0  0  0
  185.7620  178.7630  146.8320 C   0  0  0  0  0  3  0  0  0  0  0  0
  185.7200  178.7270  145.4360 C   0  0  0  0  0  0  0  0  0  0  0  0
  184.6750  179.3430  144.7460 C   0  0  0  0  0  3  0  0  0  0  0  0
  186.7390  178.0610  144.7180 C   0  0  0  0  0  0  0  0  0  0  0  0
  186.8130  178.1420  147.5160 C   0  0  0  0  0  3  0  0  0  0  0  0
  187.7860  177.4420  145.4070 C   0  0  0  0  0  3  0  0  0  0  0  0
  186.8070  178.3460  139.0300 C   0  0  0  0  0  2  0  0  0  0  0  0
  188.2070  178.5900  138.5650 C   0  0  0  0  0  0  0  0  0  0  0  0
  188.4020  179.0170  137.4380 O   0  0  0  0  0  0  0  0  0  0  0  0
  189.3640  178.3500  139.4830 C   0  0  0  0  0  2  0  0  0  0  0  0
  189.4780  176.9290  139.7860 N   0  0  0  0  0  0  0  0  0  0  0  0
  190.3880  176.8040  140.9170 C   0  0  1  0  0  3  0  0  0  0  0  0
  189.9760  177.7540  142.0260 C   0  0  0  0  0  2  0  0  0  0  0  0
  189.6250  176.2860  142.1250 C   0  0  2  0  0  3  0  0  0  0  0  0
  190.5180  175.6580  142.9910 O   0  0  0  0  0  1  0  0  0  0  0  0
  190.1340  176.3090  138.6430 C   0  0  0  0  0  2  0  0  0  0  0  0
  191.6220  176.6040  138.6850 C   0  0  0  0  0  2  0  0  0  0  0  0
  191.5650  174.6590  137.3970 C   0  0  0  0  0  1  0  0  0  0  0  0
  192.2910  175.8980  137.6070 N   0  0  0  0  0  2  0  0  0  0  0  0
  182.6820  179.0090  138.7370 O   0  0  0  0  0  0  0  0  0  0  0  0
  182.0190  177.7560  138.8590 C   0  0  0  0  0  2  0  0  0  0  0  0
  180.6840  178.2850  140.8930 C   0  0  0  0  0  1  0  0  0  0  0  0
  180.6170  177.9380  139.4190 C   0  0  0  0  0  2  0  0  0  0  0  0
  1  2  2  0  0  0  0
  2  6  1  0  0  0  0
  3  2  1  0  0  0  0
  4  5  2  0  0  0  0
  5  3  1  0  0  0  0
  6  9  2  0  0  0  0
  6  7  1  0  0  0  0
  7 12  2  0  0  0  0
  8 14  1  0  0  0  0
  9 13  1  0  0  0  0
 10 14  2  0  0  0  0
 11 10  1  0  0  0  0
 12 11  1  0  0  0  0
 13 15  1  0  0  0  0
 13 11  2  0  0  0  0
 15  8  2  0  0  0  0
 16  1  1  0  0  0  0
 17 16  1  0  0  0  0
 17 19  1  0  0  0  0
 18 17  2  0  0  0  0
 19 20  1  0  0  0  0
 21 20  1  6  0  0  0
 21 22  1  0  0  0  0
 21 23  1  0  0  0  0
 22 23  1  0  0  0  0
 23 24  1  1  0  0  0
 25 26  1  0  0  0  0
 25 20  1  0  0  0  0
 27 28  1  0  0  0  0
 28 26  1  0  0  0  0
 29 30  1  0  0  0  0
 29  5  1  0  0  0  0
 30 32  1  0  0  0  0
 32 31  1  0  0  0  0
M  END
>  <MODEL>
4

>  <REMARK>
 VINA RESULT:      -7.5      1.746      2.848
  Name = 
  12 active torsions:
  status: ('A' for Active; 'I' for Inactive)
    1  A    between atoms: N_1  and  C_4
    2  A    between atoms: C_2  and  C_5
    3  A    between atoms: C_3  and  N_20
    4  A    between atoms: C_4  and  C_24
    5  A    between atoms: C_13  and  O_18
    6  A    between atoms: C_13  and  C_29
    7  A    between atoms: C_15  and  N_20
    8  A    between atoms: C_15  and  C_26
    9  A    between atoms: C_16  and  N_20
   10  A    between atoms: C_16  and  C_24
   11  A    between atoms: O_18  and  C_30
   12  A    between atoms: N_19  and  C_26
                            x       y       z     vdW  Elec       q    Type
                         _______ _______ _______ _____ _____    ______ ____

>  <TORSDO>
F 12

$$$$
=
 OpenBabel11052414443D

 32 34  0  0  1  0  0  0  0  0999 V2000
  183.0130  178.7830  143.8190 N   0  0  0  0  0  0  0  0  0  0  0  0
  184.3000  178.8450  143.6140 C   0  0  0  0  0  0  0  0  0  0  0  0
  184.8460  179.2750  142.3560 N   0  0  0  0  0  2  0  0  0  0  0  0
  183.7290  177.7460  140.9850 O   0  0  0  0  0  0  0  0  0  0  0  0
  184.4650  178.7650  141.0720 C   0  0  0  0  0  0  0  0  0  0  0  0
  185.2210  178.5710  144.7340 C   0  0  0  0  0  0  0  0  0  0  0  0
  184.8010  178.7710  146.0580 C   0  0  0  0  0  3  0  0  0  0  0  0
  189.5370  177.0820  146.3760 C   0  0  0  0  0  3  0  0  0  0  0  0
  186.5220  178.0990  144.4900 C   0  0  0  0  0  3  0  0  0  0  0  0
  187.8160  177.7560  147.9460 C   0  0  0  0  0  3  0  0  0  0  0  0
  186.9520  178.0310  146.8830 C   0  0  0  0  0  0  0  0  0  0  0  0
  185.6620  178.5020  147.1270 C   0  0  0  0  0  3  0  0  0  0  0  0
  187.3860  177.8270  145.5530 C   0  0  0  0  0  0  0  0  0  0  0  0
  189.1080  177.2830  147.6930 C   0  0  0  0  0  3  0  0  0  0  0  0
  188.6770  177.3530  145.3070 C   0  0  0  0  0  3  0  0  0  0  0  0
  181.9790  179.1510  142.8570 C   0  0  0  0  0  2  0  0  0  0  0  0
  180.6320  178.6940  143.3210 C   0  0  0  0  0  0  0  0  0  0  0  0
  180.5190  178.1690  144.4170 O   0  0  0  0  0  0  0  0  0  0  0  0
  179.4210  178.9130  142.4700 C   0  0  0  0  0  2  0  0  0  0  0  0
  179.8010  178.9820  141.0650 N   0  0  0  0  0  0  0  0  0  0  0  0
  178.9640  180.0000  140.4440 C   0  0  1  0  0  3  0  0  0  0  0  0
  178.9320  181.2470  141.3080 C   0  0  0  0  0  2  0  0  0  0  0  0
  179.8170  181.2040  140.0830 C   0  0  2  0  0  3  0  0  0  0  0  0
  179.2010  181.9030  139.0470 O   0  0  0  0  0  1  0  0  0  0  0  0
  179.4300  177.7060  140.4690 C   0  0  0  0  0  2  0  0  0  0  0  0
  179.8130  177.6970  139.0010 C   0  0  0  0  0  2  0  0  0  0  0  0
  181.1170  175.8310  139.5140 C   0  0  0  0  0  1  0  0  0  0  0  0
  181.1360  177.1180  138.8430 N   0  0  0  0  0  2  0  0  0  0  0  0
  184.9400  179.3620  139.9040 O   0  0  0  0  0  0  0  0  0  0  0  0
  184.3650  179.1080  138.6270 C   0  0  0  0  0  2  0  0  0  0  0  0
  186.4920  178.2430  137.6620 C   0  0  0  0  0  1  0  0  0  0  0  0
  185.0400  177.9210  137.9570 C   0  0  0  0  0  2  0  0  0  0  0  0
  2  1  2  0  0  0  0
  2  6  1  0  0  0  0
  3  2  1  0  0  0  0
  4  5  2  0  0  0  0
  5  3  1  0  0  0  0
  6  7  1  0  0  0  0
  7 12  2  0  0  0  0
  8 14  1  0  0  0  0
  9  6  2  0  0  0  0
  9 13  1  0  0  0  0
 11 12  1  0  0  0  0
 11 10  1  0  0  0  0
 13 11  2  0  0  0  0
 14 10  2  0  0  0  0
 15 13  1  0  0  0  0
 15  8  2  0  0  0  0
 16 17  1  0  0  0  0
 16  1  1  0  0  0  0
 17 18  2  0  0  0  0
 19 17  1  0  0  0  0
 20 19  1  0  0  0  0
 21 20  1  1  0  0  0
 21 22  1  0  0  0  0
 23 24  1  6  0  0  0
 23 21  1  0  0  0  0
 23 22  1  0  0  0  0
 25 20  1  0  0  0  0
 26 25  1  0  0  0  0
 28 26  1  0  0  0  0
 28 27  1  0  0  0  0
 29  5  1  0  0  0  0
 30 29  1  0  0  0  0
 31 32  1  0  0  0  0
 32 30  1  0  0  0  0
M  END
>  <MODEL>
5

>  <REMARK>
 VINA RESULT:      -7.4      3.438      7.613
  Name = 
  12 active torsions:
  status: ('A' for Active; 'I' for Inactive)
    1  A    between atoms: N_1  and  C_4
    2  A    between atoms: C_2  and  C_5
    3  A    between atoms: C_3  and  N_20
    4  A    between atoms: C_4  and  C_24
    5  A    between atoms: C_13  and  O_18
    6  A    between atoms: C_13  and  C_29
    7  A    between atoms: C_15  and  N_20
    8  A    between atoms: C_15  and  C_26
    9  A    between atoms: C_16  and  N_20
   10  A    between atoms: C_16  and  C_24
   11  A    between atoms: O_18  and  C_30
   12  A    between atoms: N_19  and  C_26
                            x       y       z     vdW  Elec       q    Type
                         _______ _______ _______ _____ _____    ______ ____

>  <TORSDO>
F 12

$$$$
=
 OpenBabel11052414443D

 32 34  0  0  1  0  0  0  0  0999 V2000
  188.1280  178.5360  139.6960 N   0  0  0  0  0  0  0  0  0  0  0  0
  188.1000  178.4250  140.9960 C   0  0  0  0  0  0  0  0  0  0  0  0
  189.3020  178.2530  141.7650 N   0  0  0  0  0  2  0  0  0  0  0  0
  190.1230  176.3650  140.6570 O   0  0  0  0  0  0  0  0  0  0  0  0
  190.3190  177.2770  141.5030 C   0  0  0  0  0  0  0  0  0  0  0  0
  186.8170  178.5860  141.7060 C   0  0  0  0  0  0  0  0  0  0  0  0
  185.6420  178.8500  140.9860 C   0  0  0  0  0  3  0  0  0  0  0  0
  184.2500  178.6230  145.8230 C   0  0  0  0  0  3  0  0  0  0  0  0
  186.7530  178.4670  143.1040 C   0  0  0  0  0  3  0  0  0  0  0  0
  183.1360  179.0090  143.7040 C   0  0  0  0  0  3  0  0  0  0  0  0
  184.3560  178.8720  143.0360 C   0  0  0  0  0  0  0  0  0  0  0  0
  184.4170  178.9930  141.6470 C   0  0  0  0  0  3  0  0  0  0  0  0
  185.5350  178.6070  143.7710 C   0  0  0  0  0  0  0  0  0  0  0  0
  183.0840  178.8850  145.0960 C   0  0  0  0  0  3  0  0  0  0  0  0
  185.4750  178.4830  145.1620 C   0  0  0  0  0  3  0  0  0  0  0  0
  189.3280  178.5330  138.8660 C   0  0  0  0  0  2  0  0  0  0  0  0
  188.9790  178.7230  137.4240 C   0  0  0  0  0  0  0  0  0  0  0  0
  188.3120  179.6880  137.0880 O   0  0  0  0  0  0  0  0  0  0  0  0
  189.4740  177.7610  136.3910 C   0  0  0  0  0  2  0  0  0  0  0  0
  188.6320  176.5720  136.3670 N   0  0  0  0  0  0  0  0  0  0  0  0
  189.5050  175.4320  136.1230 C   0  0  1  0  0  3  0  0  0  0  0  0
  190.8660  175.6740  136.7490 C   0  0  0  0  0  2  0  0  0  0  0  0
  189.8660  174.7790  137.4460 C   0  0  2  0  0  3  0  0  0  0  0  0
  190.2050  173.4470  137.2190 O   0  0  0  0  0  1  0  0  0  0  0  0
  187.7640  176.6980  135.2030 C   0  0  0  0  0  2  0  0  0  0  0  0
  186.3140  176.5690  135.6310 C   0  0  0  0  0  2  0  0  0  0  0  0
  185.3600  177.5290  137.5320 C   0  0  0  0  0  1  0  0  0  0  0  0
  186.2370  176.4650  137.0770 N   0  0  0  0  0  2  0  0  0  0  0  0
  191.5200  177.2990  142.2140 O   0  0  0  0  0  0  0  0  0  0  0  0
  191.6810  176.6360  143.4630 C   0  0  0  0  0  2  0  0  0  0  0  0
  191.2990  176.7690  145.9200 C   0  0  0  0  0  1  0  0  0  0  0  0
  191.2350  177.5290  144.6100 C   0  0  0  0  0  2  0  0  0  0  0  0
  1  2  2  0  0  0  0
  2  6  1  0  0  0  0
  2  3  1  0  0  0  0
  4  5  2  0  0  0  0
  5  3  1  0  0  0  0
  5 29  1  0  0  0  0
  6  9  1  0  0  0  0
  7 12  1  0  0  0  0
  7  6  2  0  0  0  0
  9 13  2  0  0  0  0
 10 14  2  0  0  0  0
 11 10  1  0  0  0  0
 11 13  1  0  0  0  0
 12 11  2  0  0  0  0
 13 15  1  0  0  0  0
 14  8  1  0  0  0  0
 15  8  2  0  0  0  0
 16  1  1  0  0  0  0
 17 16  1  0  0  0  0
 18 17  2  0  0  0  0
 19 17  1  0  0  0  0
 20 19  1  0  0  0  0
 21 20  1  1  0  0  0
 21 22  1  0  0  0  0
 21 23  1  0  0  0  0
 22 23  1  0  0  0  0
 23 24  1  6  0  0  0
 25 26  1  0  0  0  0
 25 20  1  0  0  0  0
 26 28  1  0  0  0  0
 28 27  1  0  0  0  0
 29 30  1  0  0  0  0
 30 32  1  0  0  0  0
 32 31  1  0  0  0  0
M  END
>  <MODEL>
6

>  <REMARK>
 VINA RESULT:      -7.3      2.631      5.808
  Name = 
  12 active torsions:
  status: ('A' for Active; 'I' for Inactive)
    1  A    between atoms: N_1  and  C_4
    2  A    between atoms: C_2  and  C_5
    3  A    between atoms: C_3  and  N_20
    4  A    between atoms: C_4  and  C_24
    5  A    between atoms: C_13  and  O_18
    6  A    between atoms: C_13  and  C_29
    7  A    between atoms: C_15  and  N_20
    8  A    between atoms: C_15  and  C_26
    9  A    between atoms: C_16  and  N_20
   10  A    between atoms: C_16  and  C_24
   11  A    between atoms: O_18  and  C_30
   12  A    between atoms: N_19  and  C_26
                            x       y       z     vdW  Elec       q    Type
                         _______ _______ _______ _____ _____    ______ ____

>  <TORSDO>
F 12

$$$$
=
 OpenBabel11052414443D

 32 34  0  0  1  0  0  0  0  0999 V2000
  188.3280  177.5250  141.2380 N   0  0  0  0  0  0  0  0  0  0  0  0
  188.2730  177.5690  142.5410 C   0  0  0  0  0  0  0  0  0  0  0  0
  189.4490  177.4220  143.3530 N   0  0  0  0  0  2  0  0  0  0  0  0
  190.1790  175.3750  142.4910 O   0  0  0  0  0  0  0  0  0  0  0  0
  190.4130  176.3680  143.2300 C   0  0  0  0  0  0  0  0  0  0  0  0
  186.9890  177.8820  143.1980 C   0  0  0  0  0  0  0  0  0  0  0  0
  186.9170  177.9760  144.5960 C   0  0  0  0  0  3  0  0  0  0  0  0
  182.2610  178.9380  142.9290 C   0  0  0  0  0  3  0  0  0  0  0  0
  185.8290  178.0990  142.4350 C   0  0  0  0  0  3  0  0  0  0  0  0
  183.3480  178.8140  145.0940 C   0  0  0  0  0  3  0  0  0  0  0  0
  184.5590  178.5020  144.4690 C   0  0  0  0  0  0  0  0  0  0  0  0
  185.7090  178.2850  145.2290 C   0  0  0  0  0  3  0  0  0  0  0  0
  184.6200  178.4080  143.0600 C   0  0  0  0  0  0  0  0  0  0  0  0
  182.2000  179.0310  144.3240 C   0  0  0  0  0  3  0  0  0  0  0  0
  183.4690  178.6270  142.2970 C   0  0  0  0  0  3  0  0  0  0  0  0
  189.5400  177.3580  140.4420 C   0  0  0  0  0  2  0  0  0  0  0  0
  189.4040  178.0390  139.1170 C   0  0  0  0  0  0  0  0  0  0  0  0
  188.6420  178.9840  139.0010 O   0  0  0  0  0  0  0  0  0  0  0  0
  190.2250  177.5930  137.9480 C   0  0  0  0  0  2  0  0  0  0  0  0
  189.5990  176.4470  137.3030 N   0  0  0  0  0  0  0  0  0  0  0  0
  190.6660  175.6580  136.7000 C   0  0  1  0  0  3  0  0  0  0  0  0
  191.7480  175.3760  137.7250 C   0  0  0  0  0  2  0  0  0  0  0  0
  190.7390  174.3030  137.3820 C   0  0  2  0  0  3  0  0  0  0  0  0
  191.3220  173.3860  136.5090 O   0  0  0  0  0  1  0  0  0  0  0  0
  188.7900  176.9720  136.2110 C   0  0  0  0  0  2  0  0  0  0  0  0
  187.3180  176.7840  136.5290 C   0  0  0  0  0  2  0  0  0  0  0  0
  186.5150  174.6160  136.2120 C   0  0  0  0  0  1  0  0  0  0  0  0
  187.1190  175.5050  137.1870 N   0  0  0  0  0  2  0  0  0  0  0  0
  191.6020  176.4070  143.9610 O   0  0  0  0  0  0  0  0  0  0  0  0
  191.6890  177.0160  145.2440 C   0  0  0  0  0  2  0  0  0  0  0  0
  191.2830  176.2720  147.5850 C   0  0  0  0  0  1  0  0  0  0  0  0
  192.0460  175.9890  146.3060 C   0  0  0  0  0  2  0  0  0  0  0  0
  1  2  2  0  0  0  0
  2  6  1  0  0  0  0
  2  3  1  0  0  0  0
  4  5  2  0  0  0  0
  5  3  1  0  0  0  0
  5 29  1  0  0  0  0
  6  7  1  0  0  0  0
  7 12  2  0  0  0  0
  8 14  1  0  0  0  0
  9 13  1  0  0  0  0
  9  6  2  0  0  0  0
 11 10  1  0  0  0  0
 11 12  1  0  0  0  0
 13 11  2  0  0  0  0
 14 10  2  0  0  0  0
 15  8  2  0  0  0  0
 15 13  1  0  0  0  0
 16  1  1  0  0  0  0
 17 16  1  0  0  0  0
 18 17  2  0  0  0  0
 19 17  1  0  0  0  0
 20 19  1  0  0  0  0
 21 20  1  1  0  0  0
 21 23  1  0  0  0  0
 21 22  1  0  0  0  0
 23 24  1  6  0  0  0
 23 22  1  0  0  0  0
 25 26  1  0  0  0  0
 25 20  1  0  0  0  0
 26 28  1  0  0  0  0
 27 28  1  0  0  0  0
 29 30  1  0  0  0  0
 30 32  1  0  0  0  0
 32 31  1  0  0  0  0
M  END
>  <MODEL>
7

>  <REMARK>
 VINA RESULT:      -7.3      2.484      6.001
  Name = 
  12 active torsions:
  status: ('A' for Active; 'I' for Inactive)
    1  A    between atoms: N_1  and  C_4
    2  A    between atoms: C_2  and  C_5
    3  A    between atoms: C_3  and  N_20
    4  A    between atoms: C_4  and  C_24
    5  A    between atoms: C_13  and  O_18
    6  A    between atoms: C_13  and  C_29
    7  A    between atoms: C_15  and  N_20
    8  A    between atoms: C_15  and  C_26
    9  A    between atoms: C_16  and  N_20
   10  A    between atoms: C_16  and  C_24
   11  A    between atoms: O_18  and  C_30
   12  A    between atoms: N_19  and  C_26
                            x       y       z     vdW  Elec       q    Type
                         _______ _______ _______ _____ _____    ______ ____

>  <TORSDO>
F 12

$$$$
=
 OpenBabel11052414443D

 32 34  0  0  1  0  0  0  0  0999 V2000
  188.9870  177.4600  141.7870 N   0  0  0  0  0  0  0  0  0  0  0  0
  188.8610  177.3970  143.0840 C   0  0  0  0  0  0  0  0  0  0  0  0
  189.9810  177.1130  143.9390 N   0  0  0  0  0  2  0  0  0  0  0  0
  190.6440  175.1050  142.9400 O   0  0  0  0  0  0  0  0  0  0  0  0
  190.8910  176.0170  143.7740 C   0  0  0  0  0  0  0  0  0  0  0  0
  187.5620  177.7300  143.6990 C   0  0  0  0  0  0  0  0  0  0  0  0
  187.4320  177.7650  145.0960 C   0  0  0  0  0  3  0  0  0  0  0  0
  182.8930  178.9800  143.2790 C   0  0  0  0  0  3  0  0  0  0  0  0
  186.4460  178.0250  142.8980 C   0  0  0  0  0  3  0  0  0  0  0  0
  183.8780  178.7170  145.4790 C   0  0  0  0  0  3  0  0  0  0  0  0
  185.1020  178.3860  144.8930 C   0  0  0  0  0  0  0  0  0  0  0  0
  186.2080  178.0910  145.6900 C   0  0  0  0  0  3  0  0  0  0  0  0
  185.2220  178.3530  143.4850 C   0  0  0  0  0  0  0  0  0  0  0  0
  182.7740  179.0130  144.6720 C   0  0  0  0  0  3  0  0  0  0  0  0
  184.1160  178.6500  142.6850 C   0  0  0  0  0  3  0  0  0  0  0  0
  190.2300  177.2880  141.0420 C   0  0  0  0  0  2  0  0  0  0  0  0
  189.9790  177.3370  139.5680 C   0  0  0  0  0  0  0  0  0  0  0  0
  190.5290  176.5300  138.8360 O   0  0  0  0  0  0  0  0  0  0  0  0
  189.0300  178.3410  138.9930 C   0  0  0  0  0  2  0  0  0  0  0  0
  187.8630  177.6680  138.4390 N   0  0  0  0  0  0  0  0  0  0  0  0
  187.6630  178.1920  137.0940 C   0  0  1  0  0  3  0  0  0  0  0  0
  188.9940  178.6040  136.4920 C   0  0  0  0  0  2  0  0  0  0  0  0
  188.3620  177.2900  136.0910 C   0  0  2  0  0  3  0  0  0  0  0  0
  187.7510  177.4350  134.8470 O   0  0  0  0  0  1  0  0  0  0  0  0
  186.7190  178.0940  139.2340 C   0  0  0  0  0  2  0  0  0  0  0  0
  185.6440  178.6580  138.3230 C   0  0  0  0  0  2  0  0  0  0  0  0
  183.6230  177.7070  138.9980 C   0  0  0  0  0  1  0  0  0  0  0  0
  184.4350  178.9070  139.0880 N   0  0  0  0  0  2  0  0  0  0  0  0
  192.0360  175.9230  144.5650 O   0  0  0  0  0  0  0  0  0  0  0  0
  192.0600  175.2050  145.7930 C   0  0  0  0  0  2  0  0  0  0  0  0
  192.6040  175.9300  148.1130 C   0  0  0  0  0  1  0  0  0  0  0  0
  191.6460  176.1000  146.9500 C   0  0  0  0  0  2  0  0  0  0  0  0
  1  2  2  0  0  0  0
  2  6  1  0  0  0  0
  2  3  1  0  0  0  0
  4  5  2  0  0  0  0
  5  3  1  0  0  0  0
  5 29  1  0  0  0  0
  6  7  1  0  0  0  0
  7 12  2  0  0  0  0
  8 14  1  0  0  0  0
  9 13  1  0  0  0  0
  9  6  2  0  0  0  0
 11 10  1  0  0  0  0
 11 12  1  0  0  0  0
 13 11  2  0  0  0  0
 14 10  2  0  0  0  0
 15  8  2  0  0  0  0
 15 13  1  0  0  0  0
 16  1  1  0  0  0  0
 17 16  1  0  0  0  0
 18 17  2  0  0  0  0
 19 17  1  0  0  0  0
 20 19  1  0  0  0  0
 20 25  1  0  0  0  0
 21 20  1  1  0  0  0
 22 21  1  0  0  0  0
 23 24  1  6  0  0  0
 23 22  1  0  0  0  0
 23 21  1  0  0  0  0
 26 28  1  0  0  0  0
 26 25  1  0  0  0  0
 27 28  1  0  0  0  0
 29 30  1  0  0  0  0
 30 32  1  0  0  0  0
 32 31  1  0  0  0  0
M  END
>  <MODEL>
8

>  <REMARK>
 VINA RESULT:      -7.2      2.681      6.364
  Name = 
  12 active torsions:
  status: ('A' for Active; 'I' for Inactive)
    1  A    between atoms: N_1  and  C_4
    2  A    between atoms: C_2  and  C_5
    3  A    between atoms: C_3  and  N_20
    4  A    between atoms: C_4  and  C_24
    5  A    between atoms: C_13  and  O_18
    6  A    between atoms: C_13  and  C_29
    7  A    between atoms: C_15  and  N_20
    8  A    between atoms: C_15  and  C_26
    9  A    between atoms: C_16  and  N_20
   10  A    between atoms: C_16  and  C_24
   11  A    between atoms: O_18  and  C_30
   12  A    between atoms: N_19  and  C_26
                            x       y       z     vdW  Elec       q    Type
                         _______ _______ _______ _____ _____    ______ ____

>  <TORSDO>
F 12

$$$$
=
 OpenBabel11052414443D

 32 34  0  0  1  0  0  0  0  0999 V2000
  189.9340  177.6470  142.9430 N   0  0  0  0  0  0  0  0  0  0  0  0
  188.9810  177.4390  142.0780 C   0  0  0  0  0  0  0  0  0  0  0  0
  189.1980  176.6700  140.8840 N   0  0  0  0  0  2  0  0  0  0  0  0
  191.0090  177.8870  140.0440 O   0  0  0  0  0  0  0  0  0  0  0  0
  190.2710  176.8700  139.9540 C   0  0  0  0  0  0  0  0  0  0  0  0
  187.6170  177.9150  142.3800 C   0  0  0  0  0  0  0  0  0  0  0  0
  186.8150  178.4490  141.3600 C   0  0  0  0  0  3  0  0  0  0  0  0
  183.9980  178.6220  145.5330 C   0  0  0  0  0  3  0  0  0  0  0  0
  187.1030  177.8310  143.6840 C   0  0  0  0  0  3  0  0  0  0  0  0
  183.7090  179.2420  143.2070 C   0  0  0  0  0  3  0  0  0  0  0  0
  185.0070  178.8050  142.9280 C   0  0  0  0  0  0  0  0  0  0  0  0
  185.5160  178.8920  141.6320 C   0  0  0  0  0  3  0  0  0  0  0  0
  185.8070  178.2700  143.9630 C   0  0  0  0  0  0  0  0  0  0  0  0
  183.2060  179.1510  144.5090 C   0  0  0  0  0  3  0  0  0  0  0  0
  185.2980  178.1810  145.2610 C   0  0  0  0  0  3  0  0  0  0  0  0
  191.2960  177.1290  142.8520 C   0  0  0  0  0  2  0  0  0  0  0  0
  191.6660  176.3810  144.0930 C   0  0  0  0  0  0  0  0  0  0  0  0
  191.9980  175.2100  144.0150 O   0  0  0  0  0  0  0  0  0  0  0  0
  191.6700  177.0710  145.4210 C   0  0  0  0  0  2  0  0  0  0  0  0
  191.0160  176.2370  146.4210 N   0  0  0  0  0  0  0  0  0  0  0  0
  190.2640  177.1270  147.2960 C   0  0  1  0  0  3  0  0  0  0  0  0
  189.3060  177.9740  146.4800 C   0  0  0  0  0  2  0  0  0  0  0  0
  188.7890  176.7700  147.2330 C   0  0  2  0  0  3  0  0  0  0  0  0
  188.1680  177.1940  148.4070 O   0  0  0  0  0  1  0  0  0  0  0  0
  192.0740  175.6440  147.2280 C   0  0  0  0  0  2  0  0  0  0  0  0
  192.3130  176.4930  148.4630 C   0  0  0  0  0  2  0  0  0  0  0  0
  193.8680  177.1090  150.0900 C   0  0  0  0  0  1  0  0  0  0  0  0
  193.5580  176.0970  149.0960 N   0  0  0  0  0  2  0  0  0  0  0  0
  190.4820  175.9660  138.9120 O   0  0  0  0  0  0  0  0  0  0  0  0
  189.4500  175.5870  138.0090 C   0  0  0  0  0  2  0  0  0  0  0  0
  189.5550  176.8240  135.8500 C   0  0  0  0  0  1  0  0  0  0  0  0
  188.9390  176.7920  137.2350 C   0  0  0  0  0  2  0  0  0  0  0  0
  2  6  1  0  0  0  0
  2  1  2  0  0  0  0
  3  2  1  0  0  0  0
  5  4  2  0  0  0  0
  5  3  1  0  0  0  0
  6  9  1  0  0  0  0
  7 12  1  0  0  0  0
  7  6  2  0  0  0  0
  9 13  2  0  0  0  0
 10 14  2  0  0  0  0
 11 10  1  0  0  0  0
 11 13  1  0  0  0  0
 12 11  2  0  0  0  0
 13 15  1  0  0  0  0
 14  8  1  0  0  0  0
 15  8  2  0  0  0  0
 16  1  1  0  0  0  0
 16 17  1  0  0  0  0
 17 19  1  0  0  0  0
 18 17  2  0  0  0  0
 19 20  1  0  0  0  0
 20 25  1  0  0  0  0
 21 20  1  6  0  0  0
 22 23  1  0  0  0  0
 22 21  1  0  0  0  0
 23 21  1  0  0  0  0
 23 24  1  1  0  0  0
 25 26  1  0  0  0  0
 26 28  1  0  0  0  0
 28 27  1  0  0  0  0
 29  5  1  0  0  0  0
 30 29  1  0  0  0  0
 31 32  1  0  0  0  0
 32 30  1  0  0  0  0
M  END
>  <MODEL>
9

>  <REMARK>
 VINA RESULT:      -7.2      3.031      6.809
  Name = 
  12 active torsions:
  status: ('A' for Active; 'I' for Inactive)
    1  A    between atoms: N_1  and  C_4
    2  A    between atoms: C_2  and  C_5
    3  A    between atoms: C_3  and  N_20
    4  A    between atoms: C_4  and  C_24
    5  A    between atoms: C_13  and  O_18
    6  A    between atoms: C_13  and  C_29
    7  A    between atoms: C_15  and  N_20
    8  A    between atoms: C_15  and  C_26
    9  A    between atoms: C_16  and  N_20
   10  A    between atoms: C_16  and  C_24
   11  A    between atoms: O_18  and  C_30
   12  A    between atoms: N_19  and  C_26
                            x       y       z     vdW  Elec       q    Type
                         _______ _______ _______ _____ _____    ______ ____

>  <TORSDO>
F 12

$$$$
