=
 OpenBabel11052413413D

 27 31  0  0  1  0  0  0  0  0999 V2000
  189.3280  178.4110  139.9880 C   0  0  0  0  0  2  0  0  0  0  0  0
  187.0340  178.3630  140.9480 C   0  0  0  0  0  0  0  0  0  0  0  0
  188.1190  177.0030  142.6630 N   0  0  0  0  0  2  0  0  0  0  0  0
  184.0870  179.7140  143.5400 C   0  0  0  0  0  3  0  0  0  0  0  0
  183.9900  179.2560  144.8510 C   0  0  0  0  0  3  0  0  0  0  0  0
  186.0660  179.2320  140.5650 N   0  0  0  0  0  0  0  0  0  0  0  0
  185.9130  177.8140  144.5020 C   0  0  0  0  0  0  0  0  0  0  0  0
  190.9950  177.9350  144.8370 C   0  0  0  0  0  3  0  0  0  0  0  0
  186.7650  176.7380  145.0830 C   0  0  0  0  0  1  0  0  0  0  0  0
  192.0150  178.1000  143.8990 C   0  0  0  0  0  3  0  0  0  0  0  0
  186.0500  178.3000  143.1710 C   0  0  0  0  0  0  0  0  0  0  0  0
  187.9690  177.8860  139.9800 N   0  0  0  0  0  0  0  0  0  0  0  0
  184.8930  178.3040  145.3210 C   0  0  0  0  0  3  0  0  0  0  0  0
  185.0950  179.2380  142.7000 C   0  0  0  0  0  0  0  0  0  0  0  0
  190.2190  177.5100  140.7000 N   0  0  0  0  0  2  0  0  0  0  0  0
  187.0760  177.9020  142.2730 C   0  0  0  0  0  0  0  0  0  0  0  0
  189.7060  177.6070  144.4110 C   0  0  0  0  0  3  0  0  0  0  0  0
  185.1390  179.6680  141.4160 N   0  0  0  0  0  0  0  0  0  0  0  0
  191.7430  177.9470  142.5380 C   0  0  0  0  0  3  0  0  0  0  0  0
  190.4490  177.6400  142.1020 C   0  0  0  0  0  0  0  0  0  0  0  0
  189.4180  177.4610  143.0490 C   0  0  0  0  0  0  0  0  0  0  0  0
  187.0790  176.1690  136.1790 C   0  0  0  0  0  3  0  0  0  0  0  0
  187.4720  177.1200  138.8410 C   0  0  2  0  0  3  0  0  0  0  0  0
  188.6140  176.3770  138.1430 C   0  0  0  0  0  2  0  0  0  0  0  0
  188.1860  175.7770  136.8280 C   0  0  0  0  0  3  0  0  0  0  0  0
  186.1100  177.1680  136.7600 C   0  0  0  0  0  2  0  0  0  0  0  0
  186.7520  178.0270  137.8470 C   0  0  0  0  0  2  0  0  0  0  0  0
  1 15  1  0  0  0  0
  2 16  1  0  0  0  0
  3 21  1  0  0  0  0
  4  5  2  0  0  0  0
  5 13  1  0  0  0  0
  6  2  2  0  0  0  0
  6 18  1  0  0  0  0
  7  9  1  0  0  0  0
  7 13  2  0  0  0  0
 10  8  2  0  0  0  0
 11  7  1  0  0  0  0
 12  1  1  0  0  0  0
 12  2  1  0  0  0  0
 14 11  1  0  0  0  0
 14  4  1  0  0  0  0
 15 20  1  0  0  0  0
 16  3  1  0  0  0  0
 16 11  2  0  0  0  0
 17  8  1  0  0  0  0
 18 14  2  0  0  0  0
 19 10  1  0  0  0  0
 20 19  2  0  0  0  0
 20 21  1  0  0  0  0
 21 17  2  0  0  0  0
 22 26  1  0  0  0  0
 22 25  2  0  0  0  0
 23 27  1  6  0  0  0
 23 12  1  0  0  0  0
 24 23  1  0  0  0  0
 25 24  1  0  0  0  0
 26 27  1  0  0  0  0
M  END
>  <MODEL>
1

>  <REMARK>
 VINA RESULT:      -8.4      0.000      0.000
  Name = 
  1 active torsions:
  status: ('A' for Active; 'I' for Inactive)
    1  A    between atoms: C_9  and  N_15
                            x       y       z     vdW  Elec       q    Type
                         _______ _______ _______ _____ _____    ______ ____

>  <TORSDO>
F 1

$$$$
=
 OpenBabel11052413413D

 27 31  0  0  1  0  0  0  0  0999 V2000
  189.0280  178.5950  140.0320 C   0  0  0  0  0  2  0  0  0  0  0  0
  190.9520  177.0420  139.7680 C   0  0  0  0  0  0  0  0  0  0  0  0
  189.3190  175.7340  138.5060 N   0  0  0  0  0  2  0  0  0  0  0  0
  194.1790  175.4830  137.6740 C   0  0  0  0  0  3  0  0  0  0  0  0
  194.0240  174.4880  136.7130 C   0  0  0  0  0  3  0  0  0  0  0  0
  192.2320  177.4190  140.0100 N   0  0  0  0  0  0  0  0  0  0  0  0
  191.6280  174.4640  137.1060 C   0  0  0  0  0  0  0  0  0  0  0  0
  187.3850  176.7830  135.5010 C   0  0  0  0  0  3  0  0  0  0  0  0
  190.3380  173.7850  136.7980 C   0  0  0  0  0  1  0  0  0  0  0  0
  186.6040  177.8180  136.0160 C   0  0  0  0  0  3  0  0  0  0  0  0
  191.7630  175.5080  138.0640 C   0  0  0  0  0  0  0  0  0  0  0  0
  189.9020  177.5670  140.5800 N   0  0  0  0  0  0  0  0  0  0  0  0
  192.7570  173.9770  136.4410 C   0  0  0  0  0  3  0  0  0  0  0  0
  193.0680  175.9840  138.3540 C   0  0  0  0  0  0  0  0  0  0  0  0
  187.7990  178.0060  139.5300 N   0  0  0  0  0  2  0  0  0  0  0  0
  190.6790  176.1030  138.7610 C   0  0  0  0  0  0  0  0  0  0  0  0
  188.3020  176.1270  136.3260 C   0  0  0  0  0  3  0  0  0  0  0  0
  193.2520  176.9210  139.3160 N   0  0  0  0  0  0  0  0  0  0  0  0
  186.7470  178.2020  137.3510 C   0  0  0  0  0  3  0  0  0  0  0  0
  187.6790  177.5650  138.1780 C   0  0  0  0  0  0  0  0  0  0  0  0
  188.4630  176.5110  137.6640 C   0  0  0  0  0  0  0  0  0  0  0  0
  189.2340  177.3060  144.7850 C   0  0  0  0  0  3  0  0  0  0  0  0
  189.9120  177.2820  142.0120 C   0  0  2  0  0  3  0  0  0  0  0  0
  188.5820  176.6670  142.4560 C   0  0  0  0  0  2  0  0  0  0  0  0
  188.4610  176.5860  143.9560 C   0  0  0  0  0  3  0  0  0  0  0  0
  190.3620  178.1760  144.2900 C   0  0  0  0  0  2  0  0  0  0  0  0
  190.1990  178.5470  142.8180 C   0  0  0  0  0  2  0  0  0  0  0  0
  1 12  1  0  0  0  0
  2  6  1  0  0  0  0
  2 12  1  0  0  0  0
  3 16  1  0  0  0  0
  4 14  1  0  0  0  0
  5  4  2  0  0  0  0
  7 11  1  0  0  0  0
  8 10  2  0  0  0  0
  8 17  1  0  0  0  0
  9  7  1  0  0  0  0
 10 19  1  0  0  0  0
 11 14  2  0  0  0  0
 11 16  1  0  0  0  0
 13  5  1  0  0  0  0
 13  7  2  0  0  0  0
 14 18  1  0  0  0  0
 15  1  1  0  0  0  0
 16  2  2  0  0  0  0
 17 21  2  0  0  0  0
 18  6  2  0  0  0  0
 19 20  2  0  0  0  0
 20 15  1  0  0  0  0
 21 20  1  0  0  0  0
 21  3  1  0  0  0  0
 23 12  1  6  0  0  0
 23 24  1  0  0  0  0
 23 27  1  0  0  0  0
 24 25  1  0  0  0  0
 25 22  2  0  0  0  0
 26 22  1  0  0  0  0
 27 26  1  0  0  0  0
M  END
>  <MODEL>
2

>  <REMARK>
 VINA RESULT:      -8.2      2.649      7.929
  Name = 
  1 active torsions:
  status: ('A' for Active; 'I' for Inactive)
    1  A    between atoms: C_9  and  N_15
                            x       y       z     vdW  Elec       q    Type
                         _______ _______ _______ _____ _____    ______ ____

>  <TORSDO>
F 1

$$$$
=
 OpenBabel11052413413D

 27 31  0  0  1  0  0  0  0  0999 V2000
  189.0480  178.3910  138.6970 C   0  0  0  0  0  2  0  0  0  0  0  0
  187.0270  178.3350  140.1450 C   0  0  0  0  0  0  0  0  0  0  0  0
  188.4100  176.8270  141.4800 N   0  0  0  0  0  2  0  0  0  0  0  0
  184.7920  179.5720  143.4170 C   0  0  0  0  0  3  0  0  0  0  0  0
  184.9720  179.0230  144.6830 C   0  0  0  0  0  3  0  0  0  0  0  0
  186.0340  179.2540  140.0480 N   0  0  0  0  0  0  0  0  0  0  0  0
  186.7060  177.5600  143.8170 C   0  0  0  0  0  0  0  0  0  0  0  0
  191.7350  177.5250  143.0030 C   0  0  0  0  0  3  0  0  0  0  0  0
  187.6210  176.4240  144.1200 C   0  0  0  0  0  1  0  0  0  0  0  0
  192.5260  177.7300  141.8720 C   0  0  0  0  0  3  0  0  0  0  0  0
  186.5620  178.1370  142.5240 C   0  0  0  0  0  0  0  0  0  0  0  0
  187.7010  177.9040  138.9630 N   0  0  0  0  0  0  0  0  0  0  0  0
  185.9160  178.0170  144.8760 C   0  0  0  0  0  3  0  0  0  0  0  0
  185.5660  179.1320  142.3430 C   0  0  0  0  0  0  0  0  0  0  0  0
  190.0370  177.4190  139.1310 N   0  0  0  0  0  2  0  0  0  0  0  0
  187.3440  177.7790  141.3940 C   0  0  0  0  0  0  0  0  0  0  0  0
  190.3710  177.2610  142.8600 C   0  0  0  0  0  3  0  0  0  0  0  0
  185.3400  179.6510  141.1120 N   0  0  0  0  0  0  0  0  0  0  0  0
  191.9510  177.6830  140.6010 C   0  0  0  0  0  3  0  0  0  0  0  0
  190.5800  177.4410  140.4500 C   0  0  0  0  0  0  0  0  0  0  0  0
  189.7800  177.2220  141.5910 C   0  0  0  0  0  0  0  0  0  0  0  0
  186.2220  175.9940  135.4480 C   0  0  0  0  0  3  0  0  0  0  0  0
  186.9310  177.2350  137.9180 C   0  0  2  0  0  3  0  0  0  0  0  0
  187.5520  175.8820  137.5640 C   0  0  0  0  0  2  0  0  0  0  0  0
  186.9350  175.2750  136.3290 C   0  0  0  0  0  3  0  0  0  0  0  0
  185.8870  177.4470  135.6700 C   0  0  0  0  0  2  0  0  0  0  0  0
  186.8310  178.1100  136.6700 C   0  0  0  0  0  2  0  0  0  0  0  0
  1 12  1  0  0  0  0
  1 15  1  0  0  0  0
  2 16  1  0  0  0  0
  3 21  1  0  0  0  0
  4  5  2  0  0  0  0
  5 13  1  0  0  0  0
  6  2  2  0  0  0  0
  6 18  1  0  0  0  0
  7  9  1  0  0  0  0
  7 13  2  0  0  0  0
 10  8  2  0  0  0  0
 11  7  1  0  0  0  0
 12  2  1  0  0  0  0
 14 11  1  0  0  0  0
 14  4  1  0  0  0  0
 15 20  1  0  0  0  0
 16  3  1  0  0  0  0
 16 11  2  0  0  0  0
 17  8  1  0  0  0  0
 18 14  2  0  0  0  0
 19 10  1  0  0  0  0
 20 19  2  0  0  0  0
 20 21  1  0  0  0  0
 21 17  2  0  0  0  0
 22 26  1  0  0  0  0
 22 25  2  0  0  0  0
 23 27  1  6  0  0  0
 23 12  1  0  0  0  0
 24 23  1  0  0  0  0
 25 24  1  0  0  0  0
 26 27  1  0  0  0  0
M  END
>  <MODEL>
3

>  <REMARK>
 VINA RESULT:      -8.0      1.068      1.293
  Name = 
  1 active torsions:
  status: ('A' for Active; 'I' for Inactive)
    1  A    between atoms: C_9  and  N_15
                            x       y       z     vdW  Elec       q    Type
                         _______ _______ _______ _____ _____    ______ ____

>  <TORSDO>
F 1

$$$$
=
 OpenBabel11052413413D

 27 31  0  0  1  0  0  0  0  0999 V2000
  183.5050  179.8990  143.7450 C   0  0  0  0  0  2  0  0  0  0  0  0
  184.7190  178.7240  141.9200 C   0  0  0  0  0  0  0  0  0  0  0  0
  182.5280  177.7130  141.5390 N   0  0  0  0  0  2  0  0  0  0  0  0
  185.8880  178.2600  137.9640 C   0  0  0  0  0  3  0  0  0  0  0  0
  185.0890  177.6080  137.0300 C   0  0  0  0  0  3  0  0  0  0  0  0
  185.9250  179.1410  141.4600 N   0  0  0  0  0  0  0  0  0  0  0  0
  183.4060  177.2030  138.7340 C   0  0  0  0  0  0  0  0  0  0  0  0
  179.3150  179.4400  140.7880 C   0  0  0  0  0  3  0  0  0  0  0  0
  182.1200  176.5220  139.0550 C   0  0  0  0  0  1  0  0  0  0  0  0
  179.1070  180.1700  141.9590 C   0  0  0  0  0  3  0  0  0  0  0  0
  184.1930  177.9010  139.6930 C   0  0  0  0  0  0  0  0  0  0  0  0
  184.4180  178.8510  143.3090 N   0  0  0  0  0  0  0  0  0  0  0  0
  183.8610  177.0750  137.4180 C   0  0  0  0  0  3  0  0  0  0  0  0
  185.4580  178.3990  139.2840 C   0  0  0  0  0  0  0  0  0  0  0  0
  182.1630  179.3690  143.9150 N   0  0  0  0  0  2  0  0  0  0  0  0
  183.8040  178.1260  141.0400 C   0  0  0  0  0  0  0  0  0  0  0  0
  180.4660  178.6610  140.6500 C   0  0  0  0  0  3  0  0  0  0  0  0
  186.2750  179.0000  140.1830 N   0  0  0  0  0  0  0  0  0  0  0  0
  180.0530  180.1280  142.9840 C   0  0  0  0  0  3  0  0  0  0  0  0
  181.2200  179.3670  142.8450 C   0  0  0  0  0  0  0  0  0  0  0  0
  181.4280  178.6190  141.6670 C   0  0  0  0  0  0  0  0  0  0  0  0
  187.3270  177.5030  146.1230 C   0  0  0  0  0  3  0  0  0  0  0  0
  185.2440  178.1320  144.2760 C   0  0  2  0  0  3  0  0  0  0  0  0
  185.3050  178.8840  145.6080 C   0  0  0  0  0  2  0  0  0  0  0  0
  186.3370  178.3070  146.5430 C   0  0  0  0  0  3  0  0  0  0  0  0
  187.4290  177.0220  144.6980 C   0  0  0  0  0  2  0  0  0  0  0  0
  186.6540  177.9130  143.7320 C   0  0  0  0  0  2  0  0  0  0  0  0
  1 15  1  0  0  0  0
  2 12  1  0  0  0  0
  3 21  1  0  0  0  0
  4 14  1  0  0  0  0
  5 13  1  0  0  0  0
  5  4  2  0  0  0  0
  6  2  1  0  0  0  0
  7  9  1  0  0  0  0
  7 11  1  0  0  0  0
  8 10  1  0  0  0  0
 10 19  2  0  0  0  0
 11 16  1  0  0  0  0
 12  1  1  0  0  0  0
 13  7  2  0  0  0  0
 14 11  2  0  0  0  0
 14 18  1  0  0  0  0
 16  3  1  0  0  0  0
 16  2  2  0  0  0  0
 17  8  2  0  0  0  0
 17 21  1  0  0  0  0
 18  6  2  0  0  0  0
 20 19  1  0  0  0  0
 20 15  1  0  0  0  0
 21 20  2  0  0  0  0
 22 25  2  0  0  0  0
 23 12  1  6  0  0  0
 23 24  1  0  0  0  0
 24 25  1  0  0  0  0
 26 22  1  0  0  0  0
 27 23  1  0  0  0  0
 27 26  1  0  0  0  0
M  END
>  <MODEL>
4

>  <REMARK>
 VINA RESULT:      -7.6      2.848      7.800
  Name = 
  1 active torsions:
  status: ('A' for Active; 'I' for Inactive)
    1  A    between atoms: C_9  and  N_15
                            x       y       z     vdW  Elec       q    Type
                         _______ _______ _______ _____ _____    ______ ____

>  <TORSDO>
F 1

$$$$
=
 OpenBabel11052413413D

 27 31  0  0  1  0  0  0  0  0999 V2000
  190.3170  177.8500  141.4670 C   0  0  0  0  0  2  0  0  0  0  0  0
  187.8520  178.1410  141.6400 C   0  0  0  0  0  0  0  0  0  0  0  0
  188.1340  176.6960  143.5890 N   0  0  0  0  0  2  0  0  0  0  0  0
  184.4470  179.9520  143.1730 C   0  0  0  0  0  3  0  0  0  0  0  0
  183.8740  179.5480  144.3760 C   0  0  0  0  0  3  0  0  0  0  0  0
  187.1860  179.1220  140.9820 N   0  0  0  0  0  0  0  0  0  0  0  0
  185.5900  177.8500  144.6370 C   0  0  0  0  0  0  0  0  0  0  0  0
  190.2640  177.2910  146.5850 C   0  0  0  0  0  3  0  0  0  0  0  0
  186.0560  176.6860  145.4430 C   0  0  0  0  0  1  0  0  0  0  0  0
  191.5430  177.2900  146.0270 C   0  0  0  0  0  3  0  0  0  0  0  0
  186.2110  178.2750  143.4290 C   0  0  0  0  0  0  0  0  0  0  0  0
  188.9730  177.5150  141.0150 N   0  0  0  0  0  0  0  0  0  0  0  0
  184.4390  178.4970  145.0950 C   0  0  0  0  0  3  0  0  0  0  0  0
  185.5950  179.3200  142.6930 C   0  0  0  0  0  0  0  0  0  0  0  0
  190.8000  176.8580  142.4120 N   0  0  0  0  0  2  0  0  0  0  0  0
  187.4040  177.7170  142.9000 C   0  0  0  0  0  0  0  0  0  0  0  0
  189.1470  177.1280  145.7640 C   0  0  0  0  0  3  0  0  0  0  0  0
  186.1060  179.7030  141.4980 N   0  0  0  0  0  0  0  0  0  0  0  0
  191.7020  177.1360  144.6480 C   0  0  0  0  0  3  0  0  0  0  0  0
  190.5860  176.9950  143.8150 C   0  0  0  0  0  0  0  0  0  0  0  0
  189.2920  176.9850  144.3780 C   0  0  0  0  0  0  0  0  0  0  0  0
  188.8460  176.0740  137.0030 C   0  0  0  0  0  3  0  0  0  0  0  0
  188.7660  176.7910  139.7640 C   0  0  2  0  0  3  0  0  0  0  0  0
  190.1030  176.3780  139.1440 C   0  0  0  0  0  2  0  0  0  0  0  0
  189.9450  175.8490  137.7420 C   0  0  0  0  0  3  0  0  0  0  0  0
  187.6340  176.7830  137.5490 C   0  0  0  0  0  2  0  0  0  0  0  0
  187.9660  177.6330  138.7730 C   0  0  0  0  0  2  0  0  0  0  0  0
  1 15  1  0  0  0  0
  2 16  1  0  0  0  0
  3 21  1  0  0  0  0
  4  5  2  0  0  0  0
  5 13  1  0  0  0  0
  6 18  1  0  0  0  0
  6  2  2  0  0  0  0
  7 13  2  0  0  0  0
  7  9  1  0  0  0  0
 10  8  1  0  0  0  0
 11  7  1  0  0  0  0
 12  1  1  0  0  0  0
 12  2  1  0  0  0  0
 14  4  1  0  0  0  0
 14 11  1  0  0  0  0
 15 20  1  0  0  0  0
 16 11  2  0  0  0  0
 16  3  1  0  0  0  0
 17  8  2  0  0  0  0
 18 14  2  0  0  0  0
 19 10  2  0  0  0  0
 20 21  2  0  0  0  0
 20 19  1  0  0  0  0
 21 17  1  0  0  0  0
 22 26  1  0  0  0  0
 22 25  2  0  0  0  0
 23 27  1  6  0  0  0
 23 12  1  0  0  0  0
 24 23  1  0  0  0  0
 25 24  1  0  0  0  0
 26 27  1  0  0  0  0
M  END
>  <MODEL>
5

>  <REMARK>
 VINA RESULT:      -7.5      1.141      1.465
  Name = 
  1 active torsions:
  status: ('A' for Active; 'I' for Inactive)
    1  A    between atoms: C_9  and  N_15
                            x       y       z     vdW  Elec       q    Type
                         _______ _______ _______ _____ _____    ______ ____

>  <TORSDO>
F 1

$$$$
=
 OpenBabel11052413413D

 27 31  0  0  1  0  0  0  0  0999 V2000
  184.9070  179.2360  140.4320 C   0  0  0  0  0  2  0  0  0  0  0  0
  184.6880  178.7670  142.8640 C   0  0  0  0  0  0  0  0  0  0  0  0
  186.5670  177.2700  142.4260 N   0  0  0  0  0  2  0  0  0  0  0  0
  185.7410  179.3180  146.8410 C   0  0  0  0  0  3  0  0  0  0  0  0
  186.8060  178.6370  147.4240 C   0  0  0  0  0  3  0  0  0  0  0  0
  183.9870  179.5720  143.7020 N   0  0  0  0  0  0  0  0  0  0  0  0
  187.2470  177.5030  145.3220 C   0  0  0  0  0  0  0  0  0  0  0  0
  189.9040  178.1440  141.0230 C   0  0  0  0  0  3  0  0  0  0  0  0
  188.0480  176.4490  144.6380 C   0  0  0  0  0  1  0  0  0  0  0  0
  189.5650  178.5790  139.7410 C   0  0  0  0  0  3  0  0  0  0  0  0
  186.1850  178.2190  144.7000 C   0  0  0  0  0  0  0  0  0  0  0  0
  184.2200  178.5690  141.5300 N   0  0  0  0  0  0  0  0  0  0  0  0
  187.5450  177.7290  146.6690 C   0  0  0  0  0  3  0  0  0  0  0  0
  185.4200  179.1080  145.4990 C   0  0  0  0  0  0  0  0  0  0  0  0
  185.8580  178.3360  139.8030 N   0  0  0  0  0  2  0  0  0  0  0  0
  185.8290  178.0970  143.3310 C   0  0  0  0  0  0  0  0  0  0  0  0
  188.9010  177.7470  141.9100 C   0  0  0  0  0  3  0  0  0  0  0  0
  184.3510  179.7500  144.9700 N   0  0  0  0  0  0  0  0  0  0  0  0
  188.2260  178.6280  139.3520 C   0  0  0  0  0  3  0  0  0  0  0  0
  187.2130  178.2530  140.2430 C   0  0  0  0  0  0  0  0  0  0  0  0
  187.5520  177.8010  141.5350 C   0  0  0  0  0  0  0  0  0  0  0  0
  180.4580  177.1400  140.1180 C   0  0  0  0  0  3  0  0  0  0  0  0
  182.9120  177.9540  141.3270 C   0  0  2  0  0  3  0  0  0  0  0  0
  182.9520  176.9530  140.1700 C   0  0  0  0  0  2  0  0  0  0  0  0
  181.5760  176.4820  139.7720 C   0  0  0  0  0  3  0  0  0  0  0  0
  180.4740  178.3460  141.0220 C   0  0  0  0  0  2  0  0  0  0  0  0
  181.8450  179.0160  141.0650 C   0  0  0  0  0  2  0  0  0  0  0  0
  1 12  1  0  0  0  0
  2 16  2  0  0  0  0
  2  6  1  0  0  0  0
  3 16  1  0  0  0  0
  4  5  1  0  0  0  0
  6 18  2  0  0  0  0
  7 13  1  0  0  0  0
  8 17  1  0  0  0  0
  9  7  1  0  0  0  0
 10  8  2  0  0  0  0
 11  7  2  0  0  0  0
 11 14  1  0  0  0  0
 12  2  1  0  0  0  0
 13  5  2  0  0  0  0
 14  4  2  0  0  0  0
 15 20  1  0  0  0  0
 15  1  1  0  0  0  0
 16 11  1  0  0  0  0
 18 14  1  0  0  0  0
 19 10  1  0  0  0  0
 19 20  2  0  0  0  0
 20 21  1  0  0  0  0
 21 17  2  0  0  0  0
 21  3  1  0  0  0  0
 22 26  1  0  0  0  0
 23 24  1  6  0  0  0
 23 12  1  0  0  0  0
 25 22  2  0  0  0  0
 25 24  1  0  0  0  0
 26 27  1  0  0  0  0
 27 23  1  0  0  0  0
M  END
>  <MODEL>
6

>  <REMARK>
 VINA RESULT:      -7.2      2.551      4.330
  Name = 
  1 active torsions:
  status: ('A' for Active; 'I' for Inactive)
    1  A    between atoms: C_9  and  N_15
                            x       y       z     vdW  Elec       q    Type
                         _______ _______ _______ _____ _____    ______ ____

>  <TORSDO>
F 1

$$$$
=
 OpenBabel11052413413D

 27 31  0  0  1  0  0  0  0  0999 V2000
  182.9440  178.0650  140.4240 C   0  0  0  0  0  2  0  0  0  0  0  0
  184.3880  177.8650  138.4090 C   0  0  0  0  0  0  0  0  0  0  0  0
  186.0070  179.0030  139.8420 N   0  0  0  0  0  2  0  0  0  0  0  0
  187.3320  176.0120  136.1440 C   0  0  0  0  0  3  0  0  0  0  0  0
  188.6860  176.2660  136.3440 C   0  0  0  0  0  3  0  0  0  0  0  0
  184.1020  177.0210  137.3870 N   0  0  0  0  0  0  0  0  0  0  0  0
  188.1440  177.8290  138.1220 C   0  0  0  0  0  0  0  0  0  0  0  0
  187.3100  177.8880  143.1480 C   0  0  0  0  0  3  0  0  0  0  0  0
  188.6790  178.8430  139.0730 C   0  0  0  0  0  1  0  0  0  0  0  0
  186.1540  177.9110  143.9290 C   0  0  0  0  0  3  0  0  0  0  0  0
  186.7570  177.5530  137.9570 C   0  0  0  0  0  0  0  0  0  0  0  0
  183.3220  178.5230  139.0940 N   0  0  0  0  0  0  0  0  0  0  0  0
  189.0850  177.1770  137.3210 C   0  0  0  0  0  3  0  0  0  0  0  0
  186.3720  176.6530  136.9290 C   0  0  0  0  0  0  0  0  0  0  0  0
  183.5700  178.8880  141.4440 N   0  0  0  0  0  2  0  0  0  0  0  0
  185.7250  178.1250  138.7470 C   0  0  0  0  0  0  0  0  0  0  0  0
  187.2400  178.2180  141.7930 C   0  0  0  0  0  3  0  0  0  0  0  0
  185.0600  176.4220  136.6840 N   0  0  0  0  0  0  0  0  0  0  0  0
  184.9300  178.2520  143.3520 C   0  0  0  0  0  3  0  0  0  0  0  0
  184.8470  178.5620  141.9890 C   0  0  0  0  0  0  0  0  0  0  0  0
  186.0160  178.5510  141.2000 C   0  0  0  0  0  0  0  0  0  0  0  0
  180.4680  181.3760  137.7120 C   0  0  0  0  0  3  0  0  0  0  0  0
  182.4560  179.4270  138.3430 C   0  0  2  0  0  3  0  0  0  0  0  0
  182.6800  180.8800  138.7700 C   0  0  0  0  0  2  0  0  0  0  0  0
  181.6410  181.8110  138.1990 C   0  0  0  0  0  3  0  0  0  0  0  0
  180.1320  179.9110  137.5960 C   0  0  0  0  0  2  0  0  0  0  0  0
  180.9870  179.0490  138.5220 C   0  0  0  0  0  2  0  0  0  0  0  0
  1 15  1  0  0  0  0
  2 16  1  0  0  0  0
  2 12  1  0  0  0  0
  3 21  1  0  0  0  0
  4  5  2  0  0  0  0
  4 14  1  0  0  0  0
  5 13  1  0  0  0  0
  6  2  2  0  0  0  0
  7  9  1  0  0  0  0
  8 10  1  0  0  0  0
 11  7  1  0  0  0  0
 11 16  2  0  0  0  0
 12  1  1  0  0  0  0
 13  7  2  0  0  0  0
 14 11  1  0  0  0  0
 15 20  1  0  0  0  0
 16  3  1  0  0  0  0
 17  8  2  0  0  0  0
 18 14  2  0  0  0  0
 18  6  1  0  0  0  0
 19 10  2  0  0  0  0
 20 19  1  0  0  0  0
 21 17  1  0  0  0  0
 21 20  2  0  0  0  0
 22 25  2  0  0  0  0
 23 27  1  1  0  0  0
 23 24  1  0  0  0  0
 23 12  1  0  0  0  0
 25 24  1  0  0  0  0
 26 22  1  0  0  0  0
 26 27  1  0  0  0  0
M  END
>  <MODEL>
7

>  <REMARK>
 VINA RESULT:      -7.2      3.300      6.414
  Name = 
  1 active torsions:
  status: ('A' for Active; 'I' for Inactive)
    1  A    between atoms: C_9  and  N_15
                            x       y       z     vdW  Elec       q    Type
                         _______ _______ _______ _____ _____    ______ ____

>  <TORSDO>
F 1

$$$$
=
 OpenBabel11052413413D

 27 31  0  0  1  0  0  0  0  0999 V2000
  185.8750  179.0020  140.6890 C   0  0  0  0  0  2  0  0  0  0  0  0
  183.6270  179.3720  139.6890 C   0  0  0  0  0  0  0  0  0  0  0  0
  182.8910  178.1400  141.6660 N   0  0  0  0  0  2  0  0  0  0  0  0
  180.0370  181.4240  139.3330 C   0  0  0  0  0  3  0  0  0  0  0  0
  178.9550  181.1680  140.1690 C   0  0  0  0  0  3  0  0  0  0  0  0
  183.4040  180.2920  138.7180 N   0  0  0  0  0  0  0  0  0  0  0  0
  180.2390  179.4650  141.3300 C   0  0  0  0  0  0  0  0  0  0  0  0
  183.4700  179.0030  145.2420 C   0  0  0  0  0  3  0  0  0  0  0  0
  180.2040  178.3840  142.3550 C   0  0  0  0  0  1  0  0  0  0  0  0
  184.8590  178.9090  145.3330 C   0  0  0  0  0  3  0  0  0  0  0  0
  181.3680  179.7410  140.5090 C   0  0  0  0  0  0  0  0  0  0  0  0
  184.8610  178.6530  139.7020 N   0  0  0  0  0  0  0  0  0  0  0  0
  179.0550  180.1870  141.1530 C   0  0  0  0  0  3  0  0  0  0  0  0
  181.2290  180.7150  139.4870 C   0  0  0  0  0  0  0  0  0  0  0  0
  185.8050  178.1060  141.8300 N   0  0  0  0  0  2  0  0  0  0  0  0
  182.6280  179.0990  140.6350 C   0  0  0  0  0  0  0  0  0  0  0  0
  182.8370  178.7800  144.0170 C   0  0  0  0  0  3  0  0  0  0  0  0
  182.2520  180.9530  138.6310 N   0  0  0  0  0  0  0  0  0  0  0  0
  185.6140  178.6030  144.1990 C   0  0  0  0  0  3  0  0  0  0  0  0
  184.9890  178.4000  142.9630 C   0  0  0  0  0  0  0  0  0  0  0  0
  183.5840  178.4830  142.8700 C   0  0  0  0  0  0  0  0  0  0  0  0
  185.6400  176.9080  135.8890 C   0  0  0  0  0  3  0  0  0  0  0  0
  185.1910  177.8040  138.5620 C   0  0  2  0  0  3  0  0  0  0  0  0
  186.3720  178.3790  137.7750 C   0  0  0  0  0  2  0  0  0  0  0  0
  186.5850  177.6700  136.4620 C   0  0  0  0  0  3  0  0  0  0  0  0
  184.3230  176.6100  136.5590 C   0  0  0  0  0  2  0  0  0  0  0  0
  183.9840  177.6300  137.6430 C   0  0  0  0  0  2  0  0  0  0  0  0
  1 15  1  0  0  0  0
  2 12  1  0  0  0  0
  2 16  1  0  0  0  0
  3 21  1  0  0  0  0
  4 14  1  0  0  0  0
  4  5  2  0  0  0  0
  5 13  1  0  0  0  0
  6  2  2  0  0  0  0
  7  9  1  0  0  0  0
  8 10  1  0  0  0  0
 11 16  2  0  0  0  0
 11  7  1  0  0  0  0
 12  1  1  0  0  0  0
 13  7  2  0  0  0  0
 14 11  1  0  0  0  0
 15 20  1  0  0  0  0
 16  3  1  0  0  0  0
 17  8  2  0  0  0  0
 18  6  1  0  0  0  0
 18 14  2  0  0  0  0
 19 10  2  0  0  0  0
 20 19  1  0  0  0  0
 21 20  2  0  0  0  0
 21 17  1  0  0  0  0
 22 25  2  0  0  0  0
 22 26  1  0  0  0  0
 23 27  1  6  0  0  0
 23 12  1  0  0  0  0
 24 23  1  0  0  0  0
 25 24  1  0  0  0  0
 26 27  1  0  0  0  0
M  END
>  <MODEL>
8

>  <REMARK>
 VINA RESULT:      -7.1      3.185      5.249
  Name = 
  1 active torsions:
  status: ('A' for Active; 'I' for Inactive)
    1  A    between atoms: C_9  and  N_15
                            x       y       z     vdW  Elec       q    Type
                         _______ _______ _______ _____ _____    ______ ____

>  <TORSDO>
F 1

$$$$
=
 OpenBabel11052413413D

 27 31  0  0  1  0  0  0  0  0999 V2000
  183.4670  177.9990  140.9560 C   0  0  0  0  0  2  0  0  0  0  0  0
  183.6960  177.6140  138.5100 C   0  0  0  0  0  0  0  0  0  0  0  0
  185.7690  178.8660  138.8240 N   0  0  0  0  0  2  0  0  0  0  0  0
  185.1570  175.5520  135.2170 C   0  0  0  0  0  3  0  0  0  0  0  0
  186.4130  175.8160  134.6790 C   0  0  0  0  0  3  0  0  0  0  0  0
  182.9660  176.6830  137.8470 N   0  0  0  0  0  0  0  0  0  0  0  0
  186.7840  177.5340  136.3550 C   0  0  0  0  0  0  0  0  0  0  0  0
  188.6140  178.0440  141.0820 C   0  0  0  0  0  3  0  0  0  0  0  0
  187.6850  178.6260  136.8180 C   0  0  0  0  0  1  0  0  0  0  0  0
  188.0140  178.1420  142.3380 C   0  0  0  0  0  3  0  0  0  0  0  0
  185.5180  177.2500  136.9410 C   0  0  0  0  0  0  0  0  0  0  0  0
  183.0980  178.3350  139.5870 N   0  0  0  0  0  0  0  0  0  0  0  0
  187.2140  176.8080  135.2410 C   0  0  0  0  0  3  0  0  0  0  0  0
  184.7030  176.2640  136.3270 C   0  0  0  0  0  0  0  0  0  0  0  0
  184.4890  178.9070  141.4470 N   0  0  0  0  0  2  0  0  0  0  0  0
  185.0070  177.8960  138.0980 C   0  0  0  0  0  0  0  0  0  0  0  0
  187.8530  178.2520  139.9300 C   0  0  0  0  0  3  0  0  0  0  0  0
  183.4580  176.0190  136.8030 N   0  0  0  0  0  0  0  0  0  0  0  0
  186.6540  178.4360  142.4400 C   0  0  0  0  0  3  0  0  0  0  0  0
  185.8780  178.6240  141.2900 C   0  0  0  0  0  0  0  0  0  0  0  0
  186.4840  178.5380  140.0190 C   0  0  0  0  0  0  0  0  0  0  0  0
  180.0890  181.3490  139.3640 C   0  0  0  0  0  3  0  0  0  0  0  0
  181.9340  179.1720  139.3130 C   0  0  2  0  0  3  0  0  0  0  0  0
  182.3570  180.5170  138.7150 C   0  0  0  0  0  2  0  0  0  0  0  0
  181.2140  181.4970  138.6470 C   0  0  0  0  0  3  0  0  0  0  0  0
  179.8270  180.1350  140.2190 C   0  0  0  0  0  2  0  0  0  0  0  0
  181.1130  179.3970  140.5810 C   0  0  0  0  0  2  0  0  0  0  0  0
  1 15  1  0  0  0  0
  2 12  1  0  0  0  0
  3 21  1  0  0  0  0
  4 14  1  0  0  0  0
  5  4  2  0  0  0  0
  5 13  1  0  0  0  0
  6  2  2  0  0  0  0
  7  9  1  0  0  0  0
  7 11  1  0  0  0  0
  8 10  1  0  0  0  0
 10 19  2  0  0  0  0
 11 16  2  0  0  0  0
 12  1  1  0  0  0  0
 13  7  2  0  0  0  0
 14 18  2  0  0  0  0
 14 11  1  0  0  0  0
 16  2  1  0  0  0  0
 16  3  1  0  0  0  0
 17 21  1  0  0  0  0
 17  8  2  0  0  0  0
 18  6  1  0  0  0  0
 20 15  1  0  0  0  0
 20 19  1  0  0  0  0
 21 20  2  0  0  0  0
 22 26  1  0  0  0  0
 23 24  1  1  0  0  0
 23 12  1  0  0  0  0
 23 27  1  0  0  0  0
 25 24  1  0  0  0  0
 25 22  2  0  0  0  0
 26 27  1  0  0  0  0
M  END
>  <MODEL>
9

>  <REMARK>
 VINA RESULT:      -7.0      3.197      6.832
  Name = 
  1 active torsions:
  status: ('A' for Active; 'I' for Inactive)
    1  A    between atoms: C_9  and  N_15
                            x       y       z     vdW  Elec       q    Type
                         _______ _______ _______ _____ _____    ______ ____

>  <TORSDO>
F 1

$$$$
