=
 OpenBabel11052412313D

 30 33  0  0  0  0  0  0  0  0999 V2000
  183.7290  179.0400  140.3020 N   0  0  0  0  0  0  0  0  0  0  0  0
  185.7800  178.6930  141.4780 C   0  0  0  0  0  0  0  0  0  0  0  0
  181.4800  178.6220  143.8010 C   0  0  0  0  0  3  0  0  0  0  0  0
  182.3740  179.1380  140.2230 C   0  0  0  0  0  0  0  0  0  0  0  0
  180.0930  178.7640  143.7570 C   0  0  0  0  0  3  0  0  0  0  0  0
  186.4530  178.4330  142.6750 C   0  0  0  0  0  3  0  0  0  0  0  0
  186.4890  178.8470  140.3330 F   0  0  0  0  0  0  0  0  0  0  0  0
  182.2500  178.7490  142.6320 C   0  0  0  0  0  0  0  0  0  0  0  0
  185.7380  178.2730  143.8630 C   0  0  0  0  0  3  0  0  0  0  0  0
  184.3820  178.7930  141.4670 C   0  0  0  0  0  0  0  0  0  0  0  0
  181.6010  179.0130  141.3990 C   0  0  0  0  0  0  0  0  0  0  0  0
  179.4560  179.0400  142.5470 C   0  0  0  0  0  3  0  0  0  0  0  0
  180.2060  179.1680  141.3770 C   0  0  0  0  0  3  0  0  0  0  0  0
  184.3440  178.3720  143.8610 C   0  0  0  0  0  3  0  0  0  0  0  0
  183.6510  178.6320  142.6660 C   0  0  0  0  0  0  0  0  0  0  0  0
  180.8530  175.8870  137.6730 C   0  0  0  0  0  2  0  0  0  0  0  0
  180.2180  178.6480  137.3640 O   0  0  0  0  0  0  0  0  0  0  0  0
  181.1600  178.3530  138.1480 C   0  0  0  0  0  0  0  0  0  0  0  0
  182.9230  176.5970  138.6960 C   0  0  0  0  0  2  0  0  0  0  0  0
  181.6110  176.9910  138.2220 N   0  0  0  0  0  0  0  0  0  0  0  0
  181.7700  179.3900  138.9400 N   0  0  0  0  0  0  0  0  0  0  0  0
  181.6700  174.6440  137.9640 C   0  0  0  0  0  2  0  0  0  0  0  0
  183.0580  175.1250  138.3600 C   0  0  0  0  0  2  0  0  0  0  0  0
  181.8520  180.7380  138.3900 C   0  0  0  0  0  2  0  0  0  0  0  0
  180.7470  181.6060  138.9710 C   0  0  0  0  0  2  0  0  0  0  0  0
  179.8480  182.1210  137.8630 C   0  0  0  0  0  2  0  0  0  0  0  0
  180.2800  183.4460  137.4500 N   0  0  0  0  0  2  0  0  0  0  0  0
  180.8400  182.7820  135.2810 O   0  0  0  0  0  0  0  0  0  0  0  0
  180.7690  183.7060  136.1350 C   0  0  0  0  0  0  0  0  0  0  0  0
  181.1800  185.0220  135.7840 N   0  0  0  0  0  1  0  0  0  0  0  0
  1 10  1  0  0  0  0
  2  6  1  0  0  0  0
  4  1  2  0  0  0  0
  4 11  1  0  0  0  0
  5  3  1  0  0  0  0
  6  9  2  0  0  0  0
  7  2  1  0  0  0  0
  8 15  1  0  0  0  0
  8  3  2  0  0  0  0
 10  2  2  0  0  0  0
 10 15  1  0  0  0  0
 11  8  1  0  0  0  0
 12  5  2  0  0  0  0
 13 11  2  0  0  0  0
 13 12  1  0  0  0  0
 14  9  1  0  0  0  0
 15 14  2  0  0  0  0
 16 22  1  0  0  0  0
 16 20  1  0  0  0  0
 17 18  2  0  0  0  0
 18 20  1  0  0  0  0
 18 21  1  0  0  0  0
 20 19  1  0  0  0  0
 21  4  1  0  0  0  0
 22 23  1  0  0  0  0
 23 19  1  0  0  0  0
 24 21  1  0  0  0  0
 24 25  1  0  0  0  0
 26 25  1  0  0  0  0
 27 26  1  0  0  0  0
 28 29  2  0  0  0  0
 29 27  1  0  0  0  0
 30 29  1  0  0  0  0
M  END
>  <MODEL>
1

>  <REMARK>
 VINA RESULT:      -6.7      0.000      0.000
  Name = 
  5 active torsions:
  status: ('A' for Active; 'I' for Inactive)
    1  A    between atoms: C_4  and  N_13
    2  A    between atoms: N_7  and  C_16
    3  A    between atoms: N_13  and  C_27
    4  A    between atoms: C_16  and  C_30
    5  A    between atoms: C_27  and  C_30
                            x       y       z     vdW  Elec       q    Type
                         _______ _______ _______ _____ _____    ______ ____

>  <TORSDO>
F 5

$$$$
=
 OpenBabel11052412313D

 30 33  0  0  0  0  0  0  0  0999 V2000
  187.8130  177.6180  143.4520 N   0  0  0  0  0  0  0  0  0  0  0  0
  187.2690  177.7060  145.7760 C   0  0  0  0  0  0  0  0  0  0  0  0
  184.0340  179.0350  142.3620 C   0  0  0  0  0  3  0  0  0  0  0  0
  187.5280  177.7680  142.1290 C   0  0  0  0  0  0  0  0  0  0  0  0
  183.7300  179.2420  141.0160 C   0  0  0  0  0  3  0  0  0  0  0  0
  186.3440  177.9820  146.7870 C   0  0  0  0  0  3  0  0  0  0  0  0
  188.5050  177.2590  146.1060 F   0  0  0  0  0  0  0  0  0  0  0  0
  185.2960  178.5490  142.7440 C   0  0  0  0  0  0  0  0  0  0  0  0
  185.0660  178.4440  146.4650 C   0  0  0  0  0  3  0  0  0  0  0  0
  186.9150  177.8920  144.4330 C   0  0  0  0  0  0  0  0  0  0  0  0
  186.2590  178.2590  141.7450 C   0  0  0  0  0  0  0  0  0  0  0  0
  184.6840  178.9720  140.0340 C   0  0  0  0  0  3  0  0  0  0  0  0
  185.9410  178.4870  140.3980 C   0  0  0  0  0  3  0  0  0  0  0  0
  184.7070  178.6330  145.1290 C   0  0  0  0  0  3  0  0  0  0  0  0
  185.6240  178.3590  144.0990 C   0  0  0  0  0  0  0  0  0  0  0  0
  191.7560  177.2480  143.2450 C   0  0  0  0  0  2  0  0  0  0  0  0
  190.5860  176.3780  140.7960 O   0  0  0  0  0  0  0  0  0  0  0  0
  189.9050  177.1490  141.5240 C   0  0  0  0  0  0  0  0  0  0  0  0
  190.0320  178.9390  143.3320 C   0  0  0  0  0  2  0  0  0  0  0  0
  190.5080  177.7290  142.6920 N   0  0  0  0  0  0  0  0  0  0  0  0
  188.5410  177.4400  141.1590 N   0  0  0  0  0  0  0  0  0  0  0  0
  192.0300  178.1200  144.4550 C   0  0  0  0  0  2  0  0  0  0  0  0
  191.0990  179.3190  144.3400 C   0  0  0  0  0  2  0  0  0  0  0  0
  188.1850  177.4830  139.7470 C   0  0  0  0  0  2  0  0  0  0  0  0
  189.1080  178.4370  139.0050 C   0  0  0  0  0  2  0  0  0  0  0  0
  189.4000  177.9080  137.6140 C   0  0  0  0  0  2  0  0  0  0  0  0
  189.3990  176.4540  137.6260 N   0  0  0  0  0  2  0  0  0  0  0  0
  191.7180  176.2740  137.4020 O   0  0  0  0  0  0  0  0  0  0  0  0
  190.6030  175.6970  137.5150 C   0  0  0  0  0  0  0  0  0  0  0  0
  190.5450  174.2750  137.5310 N   0  0  0  0  0  1  0  0  0  0  0  0
  1 10  1  0  0  0  0
  2  7  1  0  0  0  0
  2  6  1  0  0  0  0
  3  8  1  0  0  0  0
  4  1  2  0  0  0  0
  5  3  2  0  0  0  0
  8 15  1  0  0  0  0
  9  6  2  0  0  0  0
 10  2  2  0  0  0  0
 11  4  1  0  0  0  0
 11  8  2  0  0  0  0
 12 13  2  0  0  0  0
 12  5  1  0  0  0  0
 13 11  1  0  0  0  0
 14  9  1  0  0  0  0
 15 10  1  0  0  0  0
 15 14  2  0  0  0  0
 16 22  1  0  0  0  0
 17 18  2  0  0  0  0
 18 20  1  0  0  0  0
 19 23  1  0  0  0  0
 20 16  1  0  0  0  0
 20 19  1  0  0  0  0
 21 18  1  0  0  0  0
 21  4  1  0  0  0  0
 23 22  1  0  0  0  0
 24 21  1  0  0  0  0
 25 24  1  0  0  0  0
 26 27  1  0  0  0  0
 26 25  1  0  0  0  0
 28 29  2  0  0  0  0
 29 30  1  0  0  0  0
 29 27  1  0  0  0  0
M  END
>  <MODEL>
2

>  <REMARK>
 VINA RESULT:      -6.6      5.848      8.336
  Name = 
  5 active torsions:
  status: ('A' for Active; 'I' for Inactive)
    1  A    between atoms: C_4  and  N_13
    2  A    between atoms: N_7  and  C_16
    3  A    between atoms: N_13  and  C_27
    4  A    between atoms: C_16  and  C_30
    5  A    between atoms: C_27  and  C_30
                            x       y       z     vdW  Elec       q    Type
                         _______ _______ _______ _____ _____    ______ ____

>  <TORSDO>
F 5

$$$$
=
 OpenBabel11052412313D

 30 33  0  0  0  0  0  0  0  0999 V2000
  183.9900  178.7310  139.6580 N   0  0  0  0  0  0  0  0  0  0  0  0
  186.3570  178.5160  139.4240 C   0  0  0  0  0  0  0  0  0  0  0  0
  184.2410  178.5990  143.8280 C   0  0  0  0  0  3  0  0  0  0  0  0
  182.8410  178.8060  140.3840 C   0  0  0  0  0  0  0  0  0  0  0  0
  183.0840  178.7200  144.5990 C   0  0  0  0  0  3  0  0  0  0  0  0
  187.6180  178.3720  140.0100 C   0  0  0  0  0  3  0  0  0  0  0  0
  186.2520  178.5750  138.0740 F   0  0  0  0  0  0  0  0  0  0  0  0
  184.1720  178.6310  142.4250 C   0  0  0  0  0  0  0  0  0  0  0  0
  187.7440  178.3100  141.4000 C   0  0  0  0  0  3  0  0  0  0  0  0
  185.2140  178.5970  140.2300 C   0  0  0  0  0  0  0  0  0  0  0  0
  182.9100  178.7760  141.7950 C   0  0  0  0  0  0  0  0  0  0  0  0
  181.8440  178.8790  143.9790 C   0  0  0  0  0  3  0  0  0  0  0  0
  181.7600  178.9110  142.5870 C   0  0  0  0  0  3  0  0  0  0  0  0
  186.6090  178.3910  142.2100 C   0  0  0  0  0  3  0  0  0  0  0  0
  185.3330  178.5350  141.6370 C   0  0  0  0  0  0  0  0  0  0  0  0
  180.9200  175.3940  138.3680 C   0  0  0  0  0  2  0  0  0  0  0  0
  179.6300  177.8480  139.0280 O   0  0  0  0  0  0  0  0  0  0  0  0
  180.8860  177.8070  139.1260 C   0  0  0  0  0  0  0  0  0  0  0  0
  182.9910  176.6370  138.2930 C   0  0  0  0  0  2  0  0  0  0  0  0
  181.5900  176.6430  138.6650 N   0  0  0  0  0  0  0  0  0  0  0  0
  181.5870  178.9350  139.6880 N   0  0  0  0  0  0  0  0  0  0  0  0
  182.0120  174.4410  137.9210 C   0  0  0  0  0  2  0  0  0  0  0  0
  183.2370  175.2960  137.6320 C   0  0  0  0  0  2  0  0  0  0  0  0
  181.0480  180.2720  139.4770 C   0  0  0  0  0  2  0  0  0  0  0  0
  181.4930  180.8080  138.1250 C   0  0  0  0  0  2  0  0  0  0  0  0
  181.4000  182.3210  138.1040 C   0  0  0  0  0  2  0  0  0  0  0  0
  180.8910  182.7680  136.8170 N   0  0  0  0  0  2  0  0  0  0  0  0
  181.7870  184.9170  137.0100 O   0  0  0  0  0  0  0  0  0  0  0  0
  181.1230  184.0890  136.3300 C   0  0  0  0  0  0  0  0  0  0  0  0
  180.6010  184.4750  135.0640 N   0  0  0  0  0  1  0  0  0  0  0  0
  1 10  2  0  0  0  0
  1  4  1  0  0  0  0
  2  6  2  0  0  0  0
  2 10  1  0  0  0  0
  3  5  2  0  0  0  0
  4 11  2  0  0  0  0
  6  9  1  0  0  0  0
  7  2  1  0  0  0  0
  8  3  1  0  0  0  0
  9 14  2  0  0  0  0
 10 15  1  0  0  0  0
 11  8  1  0  0  0  0
 11 13  1  0  0  0  0
 12  5  1  0  0  0  0
 13 12  2  0  0  0  0
 15 14  1  0  0  0  0
 15  8  2  0  0  0  0
 16 20  1  0  0  0  0
 17 18  2  0  0  0  0
 18 21  1  0  0  0  0
 19 20  1  0  0  0  0
 20 18  1  0  0  0  0
 21  4  1  0  0  0  0
 22 16  1  0  0  0  0
 23 22  1  0  0  0  0
 23 19  1  0  0  0  0
 24 21  1  0  0  0  0
 25 24  1  0  0  0  0
 26 25  1  0  0  0  0
 27 26  1  0  0  0  0
 29 27  1  0  0  0  0
 29 28  2  0  0  0  0
 30 29  1  0  0  0  0
M  END
>  <MODEL>
3

>  <REMARK>
 VINA RESULT:      -6.5      1.282      1.857
  Name = 
  5 active torsions:
  status: ('A' for Active; 'I' for Inactive)
    1  A    between atoms: C_4  and  N_13
    2  A    between atoms: N_7  and  C_16
    3  A    between atoms: N_13  and  C_27
    4  A    between atoms: C_16  and  C_30
    5  A    between atoms: C_27  and  C_30
                            x       y       z     vdW  Elec       q    Type
                         _______ _______ _______ _____ _____    ______ ____

>  <TORSDO>
F 5

$$$$
=
 OpenBabel11052412313D

 30 33  0  0  0  0  0  0  0  0999 V2000
  187.7490  177.6550  143.3490 N   0  0  0  0  0  0  0  0  0  0  0  0
  187.1730  177.7330  145.6660 C   0  0  0  0  0  0  0  0  0  0  0  0
  183.9720  179.0410  142.2120 C   0  0  0  0  0  3  0  0  0  0  0  0
  187.4800  177.8060  142.0230 C   0  0  0  0  0  0  0  0  0  0  0  0
  183.6850  179.2490  140.8630 C   0  0  0  0  0  3  0  0  0  0  0  0
  186.2330  177.9970  146.6650 C   0  0  0  0  0  3  0  0  0  0  0  0
  188.4090  177.2950  146.0110 F   0  0  0  0  0  0  0  0  0  0  0  0
  185.2340  178.5650  142.6100 C   0  0  0  0  0  0  0  0  0  0  0  0
  184.9560  178.4480  146.3270 C   0  0  0  0  0  3  0  0  0  0  0  0
  186.8360  177.9180  144.3180 C   0  0  0  0  0  0  0  0  0  0  0  0
  186.2120  178.2860  141.6230 C   0  0  0  0  0  0  0  0  0  0  0  0
  184.6540  178.9900  139.8930 C   0  0  0  0  0  3  0  0  0  0  0  0
  185.9110  178.5160  140.2720 C   0  0  0  0  0  3  0  0  0  0  0  0
  184.6120  178.6370  144.9870 C   0  0  0  0  0  3  0  0  0  0  0  0
  185.5450  178.3750  143.9680 C   0  0  0  0  0  0  0  0  0  0  0  0
  191.6280  176.9630  143.2380 C   0  0  0  0  0  2  0  0  0  0  0  0
  190.5040  176.3390  140.6930 O   0  0  0  0  0  0  0  0  0  0  0  0
  189.8400  177.0950  141.4530 C   0  0  0  0  0  0  0  0  0  0  0  0
  189.9990  178.7410  143.3910 C   0  0  0  0  0  2  0  0  0  0  0  0
  190.4300  177.5540  142.6800 N   0  0  0  0  0  0  0  0  0  0  0  0
  188.5090  177.4900  141.0660 N   0  0  0  0  0  0  0  0  0  0  0  0
  191.9050  177.7290  144.5160 C   0  0  0  0  0  2  0  0  0  0  0  0
  191.0470  178.9840  144.4590 C   0  0  0  0  0  2  0  0  0  0  0  0
  188.2090  177.6540  139.6490 C   0  0  0  0  0  2  0  0  0  0  0  0
  189.1050  178.7250  139.0470 C   0  0  0  0  0  2  0  0  0  0  0  0
  188.9320  178.7670  137.5410 C   0  0  0  0  0  2  0  0  0  0  0  0
  187.5220  178.6600  137.2010 N   0  0  0  0  0  2  0  0  0  0  0  0
  187.7720  176.6480  136.0420 O   0  0  0  0  0  0  0  0  0  0  0  0
  187.0080  177.5670  136.4430 C   0  0  0  0  0  0  0  0  0  0  0  0
  185.6190  177.5120  136.1370 N   0  0  0  0  0  1  0  0  0  0  0  0
  1 10  1  0  0  0  0
  2  7  1  0  0  0  0
  2  6  1  0  0  0  0
  3  8  1  0  0  0  0
  4  1  2  0  0  0  0
  5  3  2  0  0  0  0
  8 15  1  0  0  0  0
  9  6  2  0  0  0  0
 10  2  2  0  0  0  0
 11  4  1  0  0  0  0
 11  8  2  0  0  0  0
 12 13  2  0  0  0  0
 12  5  1  0  0  0  0
 13 11  1  0  0  0  0
 14  9  1  0  0  0  0
 15 10  1  0  0  0  0
 15 14  2  0  0  0  0
 16 22  1  0  0  0  0
 17 18  2  0  0  0  0
 18 20  1  0  0  0  0
 19 23  1  0  0  0  0
 20 16  1  0  0  0  0
 20 19  1  0  0  0  0
 21 18  1  0  0  0  0
 21  4  1  0  0  0  0
 23 22  1  0  0  0  0
 24 21  1  0  0  0  0
 25 24  1  0  0  0  0
 26 25  1  0  0  0  0
 27 26  1  0  0  0  0
 28 29  2  0  0  0  0
 29 27  1  0  0  0  0
 30 29  1  0  0  0  0
M  END
>  <MODEL>
4

>  <REMARK>
 VINA RESULT:      -6.5      4.796      7.503
  Name = 
  5 active torsions:
  status: ('A' for Active; 'I' for Inactive)
    1  A    between atoms: C_4  and  N_13
    2  A    between atoms: N_7  and  C_16
    3  A    between atoms: N_13  and  C_27
    4  A    between atoms: C_16  and  C_30
    5  A    between atoms: C_27  and  C_30
                            x       y       z     vdW  Elec       q    Type
                         _______ _______ _______ _____ _____    ______ ____

>  <TORSDO>
F 5

$$$$
=
 OpenBabel11052412313D

 30 33  0  0  0  0  0  0  0  0999 V2000
  183.2200  180.1480  139.3520 N   0  0  0  0  0  0  0  0  0  0  0  0
  181.9500  181.8970  138.3370 C   0  0  0  0  0  0  0  0  0  0  0  0
  180.2290  177.3300  138.5870 C   0  0  0  0  0  3  0  0  0  0  0  0
  183.4130  178.8630  139.7610 C   0  0  0  0  0  0  0  0  0  0  0  0
  180.4180  175.9970  138.9530 C   0  0  0  0  0  3  0  0  0  0  0  0
  180.7850  182.3230  137.6940 C   0  0  0  0  0  3  0  0  0  0  0  0
  182.9400  182.7900  138.5830 F   0  0  0  0  0  0  0  0  0  0  0  0
  181.2200  178.2920  138.8470 C   0  0  0  0  0  0  0  0  0  0  0  0
  179.7550  181.4160  137.4320 C   0  0  0  0  0  3  0  0  0  0  0  0
  182.0890  180.5570  138.7220 C   0  0  0  0  0  0  0  0  0  0  0  0
  182.4160  177.8960  139.4970 C   0  0  0  0  0  0  0  0  0  0  0  0
  181.6020  175.6060  139.5780 C   0  0  0  0  0  3  0  0  0  0  0  0
  182.5960  176.5490  139.8440 C   0  0  0  0  0  3  0  0  0  0  0  0
  179.8870  180.0790  137.8120 C   0  0  0  0  0  3  0  0  0  0  0  0
  181.0520  179.6340  138.4610 C   0  0  0  0  0  0  0  0  0  0  0  0
  187.2390  178.5210  137.6090 C   0  0  0  0  0  2  0  0  0  0  0  0
  186.9620  178.7620  140.4350 O   0  0  0  0  0  0  0  0  0  0  0  0
  185.9200  178.5260  139.7670 C   0  0  0  0  0  0  0  0  0  0  0  0
  185.0340  177.5340  137.5940 C   0  0  0  0  0  2  0  0  0  0  0  0
  186.0320  178.2500  138.3610 N   0  0  0  0  0  0  0  0  0  0  0  0
  184.6410  178.5250  140.4320 N   0  0  0  0  0  0  0  0  0  0  0  0
  186.9380  178.0940  136.1860 C   0  0  0  0  0  2  0  0  0  0  0  0
  185.6740  177.2490  136.2490 C   0  0  0  0  0  2  0  0  0  0  0  0
  184.5720  178.0880  141.8210 C   0  0  0  0  0  2  0  0  0  0  0  0
  184.3040  179.2770  142.7300 C   0  0  0  0  0  2  0  0  0  0  0  0
  183.4440  178.8550  143.9050 C   0  0  0  0  0  2  0  0  0  0  0  0
  184.0020  179.3780  145.1410 N   0  0  0  0  0  2  0  0  0  0  0  0
  185.7760  177.8590  145.1920 O   0  0  0  0  0  0  0  0  0  0  0  0
  185.1780  178.8280  145.7320 C   0  0  0  0  0  0  0  0  0  0  0  0
  185.6810  179.3780  146.9440 N   0  0  0  0  0  1  0  0  0  0  0  0
  1  4  1  0  0  0  0
  2  7  1  0  0  0  0
  2 10  1  0  0  0  0
  3  8  1  0  0  0  0
  3  5  2  0  0  0  0
  4 21  1  0  0  0  0
  5 12  1  0  0  0  0
  6  2  2  0  0  0  0
  8 11  1  0  0  0  0
  9  6  1  0  0  0  0
  9 14  2  0  0  0  0
 10  1  2  0  0  0  0
 11  4  2  0  0  0  0
 11 13  1  0  0  0  0
 12 13  2  0  0  0  0
 14 15  1  0  0  0  0
 15 10  1  0  0  0  0
 15  8  2  0  0  0  0
 16 20  1  0  0  0  0
 18 21  1  0  0  0  0
 18 17  2  0  0  0  0
 19 20  1  0  0  0  0
 20 18  1  0  0  0  0
 21 24  1  0  0  0  0
 22 23  1  0  0  0  0
 22 16  1  0  0  0  0
 23 19  1  0  0  0  0
 24 25  1  0  0  0  0
 25 26  1  0  0  0  0
 26 27  1  0  0  0  0
 27 29  1  0  0  0  0
 28 29  2  0  0  0  0
 29 30  1  0  0  0  0
M  END
>  <MODEL>
5

>  <REMARK>
 VINA RESULT:      -6.4      3.453      6.694
  Name = 
  5 active torsions:
  status: ('A' for Active; 'I' for Inactive)
    1  A    between atoms: C_4  and  N_13
    2  A    between atoms: N_7  and  C_16
    3  A    between atoms: N_13  and  C_27
    4  A    between atoms: C_16  and  C_30
    5  A    between atoms: C_27  and  C_30
                            x       y       z     vdW  Elec       q    Type
                         _______ _______ _______ _____ _____    ______ ____

>  <TORSDO>
F 5

$$$$
=
 OpenBabel11052412313D

 30 33  0  0  0  0  0  0  0  0999 V2000
  184.1460  178.3110  141.2830 N   0  0  0  0  0  0  0  0  0  0  0  0
  185.3140  178.0620  143.3520 C   0  0  0  0  0  0  0  0  0  0  0  0
  180.7280  179.7460  143.2150 C   0  0  0  0  0  3  0  0  0  0  0  0
  183.0570  178.6320  140.5320 C   0  0  0  0  0  0  0  0  0  0  0  0
  179.6140  180.1270  142.4660 C   0  0  0  0  0  3  0  0  0  0  0  0
  185.3320  178.1670  144.7460 C   0  0  0  0  0  3  0  0  0  0  0  0
  186.4160  177.6130  142.7030 F   0  0  0  0  0  0  0  0  0  0  0  0
  181.8810  179.2520  142.5810 C   0  0  0  0  0  0  0  0  0  0  0  0
  184.2060  178.6290  145.4300 C   0  0  0  0  0  3  0  0  0  0  0  0
  184.1630  178.4200  142.6370 C   0  0  0  0  0  0  0  0  0  0  0  0
  181.8990  179.1320  141.1690 C   0  0  0  0  0  0  0  0  0  0  0  0
  179.6380  180.0240  141.0750 C   0  0  0  0  0  3  0  0  0  0  0  0
  180.7750  179.5330  140.4310 C   0  0  0  0  0  3  0  0  0  0  0  0
  183.0550  178.9880  144.7240 C   0  0  0  0  0  3  0  0  0  0  0  0
  183.0200  178.8880  143.3230 C   0  0  0  0  0  0  0  0  0  0  0  0
  180.0510  176.3340  138.2800 C   0  0  0  0  0  2  0  0  0  0  0  0
  181.9110  178.1660  137.1360 O   0  0  0  0  0  0  0  0  0  0  0  0
  182.0930  177.8270  138.3370 C   0  0  0  0  0  0  0  0  0  0  0  0
  181.6480  176.0080  140.0640 C   0  0  0  0  0  2  0  0  0  0  0  0
  181.2700  176.7970  138.9080 N   0  0  0  0  0  0  0  0  0  0  0  0
  183.1290  178.4730  139.1030 N   0  0  0  0  0  0  0  0  0  0  0  0
  179.5000  175.2610  139.1980 C   0  0  0  0  0  2  0  0  0  0  0  0
  180.6260  174.8920  140.1520 C   0  0  0  0  0  2  0  0  0  0  0  0
  184.3370  178.9140  138.4170 C   0  0  0  0  0  2  0  0  0  0  0  0
  185.0930  177.7140  137.8670 C   0  0  0  0  0  2  0  0  0  0  0  0
  186.5760  178.0190  137.7910 C   0  0  0  0  0  2  0  0  0  0  0  0
  187.0430  178.5300  139.0690 N   0  0  0  0  0  2  0  0  0  0  0  0
  188.9970  177.2480  139.0690 O   0  0  0  0  0  0  0  0  0  0  0  0
  188.2710  178.0970  139.6530 C   0  0  0  0  0  0  0  0  0  0  0  0
  188.6800  178.6290  140.9080 N   0  0  0  0  0  1  0  0  0  0  0  0
  1 10  1  0  0  0  0
  2  6  1  0  0  0  0
  4 11  1  0  0  0  0
  4  1  2  0  0  0  0
  5  3  2  0  0  0  0
  6  9  2  0  0  0  0
  7  2  1  0  0  0  0
  8  3  1  0  0  0  0
  8 15  1  0  0  0  0
 10 15  1  0  0  0  0
 10  2  2  0  0  0  0
 11  8  2  0  0  0  0
 12  5  1  0  0  0  0
 13 12  2  0  0  0  0
 13 11  1  0  0  0  0
 14  9  1  0  0  0  0
 15 14  2  0  0  0  0
 16 20  1  0  0  0  0
 16 22  1  0  0  0  0
 17 18  2  0  0  0  0
 18 20  1  0  0  0  0
 18 21  1  0  0  0  0
 19 23  1  0  0  0  0
 20 19  1  0  0  0  0
 21  4  1  0  0  0  0
 22 23  1  0  0  0  0
 24 21  1  0  0  0  0
 25 24  1  0  0  0  0
 26 25  1  0  0  0  0
 26 27  1  0  0  0  0
 27 29  1  0  0  0  0
 28 29  2  0  0  0  0
 29 30  1  0  0  0  0
M  END
>  <MODEL>
6

>  <REMARK>
 VINA RESULT:      -6.4      2.773      4.410
  Name = 
  5 active torsions:
  status: ('A' for Active; 'I' for Inactive)
    1  A    between atoms: C_4  and  N_13
    2  A    between atoms: N_7  and  C_16
    3  A    between atoms: N_13  and  C_27
    4  A    between atoms: C_16  and  C_30
    5  A    between atoms: C_27  and  C_30
                            x       y       z     vdW  Elec       q    Type
                         _______ _______ _______ _____ _____    ______ ____

>  <TORSDO>
F 5

$$$$
=
 OpenBabel11052412313D

 30 33  0  0  0  0  0  0  0  0999 V2000
  188.1560  177.6690  143.9820 N   0  0  0  0  0  0  0  0  0  0  0  0
  189.2460  177.0220  146.0070 C   0  0  0  0  0  0  0  0  0  0  0  0
  184.6110  178.5710  146.0050 C   0  0  0  0  0  3  0  0  0  0  0  0
  187.0890  178.1110  143.2630 C   0  0  0  0  0  0  0  0  0  0  0  0
  183.5150  179.0700  145.3000 C   0  0  0  0  0  3  0  0  0  0  0  0
  189.2030  176.8310  147.3910 C   0  0  0  0  0  3  0  0  0  0  0  0
  190.3900  176.7490  145.3320 F   0  0  0  0  0  0  0  0  0  0  0  0
  185.8070  178.2520  145.3380 C   0  0  0  0  0  0  0  0  0  0  0  0
  188.0330  177.1070  148.1020 C   0  0  0  0  0  3  0  0  0  0  0  0
  188.1140  177.4900  145.3280 C   0  0  0  0  0  0  0  0  0  0  0  0
  185.8870  178.4330  143.9350 C   0  0  0  0  0  0  0  0  0  0  0  0
  183.6010  179.2630  143.9210 C   0  0  0  0  0  3  0  0  0  0  0  0
  184.7810  178.9510  143.2440 C   0  0  0  0  0  3  0  0  0  0  0  0
  186.9010  177.5760  147.4320 C   0  0  0  0  0  3  0  0  0  0  0  0
  186.9270  177.7720  146.0410 C   0  0  0  0  0  0  0  0  0  0  0  0
  190.8140  177.0870  141.1500 C   0  0  0  0  0  2  0  0  0  0  0  0
  188.2750  177.4630  139.9110 O   0  0  0  0  0  0  0  0  0  0  0  0
  188.3920  177.8170  141.1150 C   0  0  0  0  0  0  0  0  0  0  0  0
  190.0480  178.5650  142.9020 C   0  0  0  0  0  2  0  0  0  0  0  0
  189.6880  177.7840  141.7350 N   0  0  0  0  0  0  0  0  0  0  0  0
  187.2250  178.2590  141.8370 N   0  0  0  0  0  0  0  0  0  0  0  0
  191.9680  177.2970  142.1100 C   0  0  0  0  0  2  0  0  0  0  0  0
  191.5500  178.4220  143.0450 C   0  0  0  0  0  2  0  0  0  0  0  0
  186.1710  178.9550  141.1100 C   0  0  0  0  0  2  0  0  0  0  0  0
  185.3850  177.9700  140.2600 C   0  0  0  0  0  2  0  0  0  0  0  0
  184.9730  178.6180  138.9520 C   0  0  0  0  0  2  0  0  0  0  0  0
  185.3600  177.7710  137.8350 N   0  0  0  0  0  2  0  0  0  0  0  0
  187.1810  179.1020  137.2260 O   0  0  0  0  0  0  0  0  0  0  0  0
  186.4820  178.0760  137.0090 C   0  0  0  0  0  0  0  0  0  0  0  0
  186.8150  177.2120  135.9270 N   0  0  0  0  0  1  0  0  0  0  0  0
  1 10  1  0  0  0  0
  2  6  1  0  0  0  0
  4 11  1  0  0  0  0
  4  1  2  0  0  0  0
  5  3  2  0  0  0  0
  6  9  2  0  0  0  0
  7  2  1  0  0  0  0
  8  3  1  0  0  0  0
  8 15  1  0  0  0  0
 10  2  2  0  0  0  0
 10 15  1  0  0  0  0
 11  8  2  0  0  0  0
 12  5  1  0  0  0  0
 13 12  2  0  0  0  0
 13 11  1  0  0  0  0
 14  9  1  0  0  0  0
 15 14  2  0  0  0  0
 16 20  1  0  0  0  0
 16 22  1  0  0  0  0
 17 18  2  0  0  0  0
 18 20  1  0  0  0  0
 18 21  1  0  0  0  0
 19 23  1  0  0  0  0
 20 19  1  0  0  0  0
 21  4  1  0  0  0  0
 22 23  1  0  0  0  0
 24 21  1  0  0  0  0
 25 24  1  0  0  0  0
 26 25  1  0  0  0  0
 27 26  1  0  0  0  0
 29 28  2  0  0  0  0
 29 27  1  0  0  0  0
 30 29  1  0  0  0  0
M  END
>  <MODEL>
7

>  <REMARK>
 VINA RESULT:      -6.2      4.604      6.944
  Name = 
  5 active torsions:
  status: ('A' for Active; 'I' for Inactive)
    1  A    between atoms: C_4  and  N_13
    2  A    between atoms: N_7  and  C_16
    3  A    between atoms: N_13  and  C_27
    4  A    between atoms: C_16  and  C_30
    5  A    between atoms: C_27  and  C_30
                            x       y       z     vdW  Elec       q    Type
                         _______ _______ _______ _____ _____    ______ ____

>  <TORSDO>
F 5

$$$$
=
 OpenBabel11052412313D

 30 33  0  0  0  0  0  0  0  0999 V2000
  182.0060  179.0750  141.3590 N   0  0  0  0  0  0  0  0  0  0  0  0
  182.4980  179.0070  143.6950 C   0  0  0  0  0  0  0  0  0  0  0  0
  185.9990  178.3640  140.3470 C   0  0  0  0  0  3  0  0  0  0  0  0
  182.3460  179.0190  140.0420 C   0  0  0  0  0  0  0  0  0  0  0  0
  186.3680  178.2550  139.0060 C   0  0  0  0  0  3  0  0  0  0  0  0
  183.4300  178.8620  144.7270 C   0  0  0  0  0  3  0  0  0  0  0  0
  181.1940  179.2240  143.9990 F   0  0  0  0  0  0  0  0  0  0  0  0
  184.6630  178.6130  140.7040 C   0  0  0  0  0  0  0  0  0  0  0  0
  184.7760  178.6370  144.4310 C   0  0  0  0  0  3  0  0  0  0  0  0
  182.9120  178.9280  142.3590 C   0  0  0  0  0  0  0  0  0  0  0  0
  183.6900  178.7660  139.6840 C   0  0  0  0  0  0  0  0  0  0  0  0
  185.4080  178.3890  138.0030 C   0  0  0  0  0  3  0  0  0  0  0  0
  184.0770  178.6380  138.3410 C   0  0  0  0  0  3  0  0  0  0  0  0
  185.1960  178.5560  143.1020 C   0  0  0  0  0  3  0  0  0  0  0  0
  184.2730  178.7000  142.0520 C   0  0  0  0  0  0  0  0  0  0  0  0
  178.9310  176.2620  139.6880 C   0  0  0  0  0  2  0  0  0  0  0  0
  179.0680  178.8620  138.5280 O   0  0  0  0  0  0  0  0  0  0  0  0
  180.1330  178.3780  138.9980 C   0  0  0  0  0  0  0  0  0  0  0  0
  181.3440  176.2130  139.5790 C   0  0  0  0  0  2  0  0  0  0  0  0
  180.1440  177.0170  139.4580 N   0  0  0  0  0  0  0  0  0  0  0  0
  181.3170  179.1990  139.0510 N   0  0  0  0  0  0  0  0  0  0  0  0
  179.3830  174.8950  140.1620 C   0  0  0  0  0  2  0  0  0  0  0  0
  180.8670  174.7980  139.8390 C   0  0  0  0  0  2  0  0  0  0  0  0
  181.5230  180.2010  138.0140 C   0  0  0  0  0  2  0  0  0  0  0  0
  181.7400  181.5680  138.6440 C   0  0  0  0  0  2  0  0  0  0  0  0
  180.5320  182.4530  138.4030 C   0  0  0  0  0  2  0  0  0  0  0  0
  180.5490  182.9560  137.0390 N   0  0  0  0  0  2  0  0  0  0  0  0
  181.7540  184.8840  137.5760 O   0  0  0  0  0  0  0  0  0  0  0  0
  181.1830  184.1870  136.6950 C   0  0  0  0  0  0  0  0  0  0  0  0
  181.1690  184.6320  135.3440 N   0  0  0  0  0  1  0  0  0  0  0  0
  1 10  1  0  0  0  0
  2  7  1  0  0  0  0
  2  6  1  0  0  0  0
  3  8  1  0  0  0  0
  4  1  2  0  0  0  0
  5  3  2  0  0  0  0
  8 15  1  0  0  0  0
  9  6  2  0  0  0  0
 10  2  2  0  0  0  0
 11  4  1  0  0  0  0
 11  8  2  0  0  0  0
 12 13  2  0  0  0  0
 12  5  1  0  0  0  0
 13 11  1  0  0  0  0
 14  9  1  0  0  0  0
 15 10  1  0  0  0  0
 15 14  2  0  0  0  0
 16 22  1  0  0  0  0
 17 18  2  0  0  0  0
 18 21  1  0  0  0  0
 18 20  1  0  0  0  0
 19 23  1  0  0  0  0
 20 19  1  0  0  0  0
 20 16  1  0  0  0  0
 21  4  1  0  0  0  0
 23 22  1  0  0  0  0
 24 25  1  0  0  0  0
 24 21  1  0  0  0  0
 26 25  1  0  0  0  0
 27 26  1  0  0  0  0
 29 27  1  0  0  0  0
 29 28  2  0  0  0  0
 30 29  1  0  0  0  0
M  END
>  <MODEL>
8

>  <REMARK>
 VINA RESULT:      -6.2      2.043      3.294
  Name = 
  5 active torsions:
  status: ('A' for Active; 'I' for Inactive)
    1  A    between atoms: C_4  and  N_13
    2  A    between atoms: N_7  and  C_16
    3  A    between atoms: N_13  and  C_27
    4  A    between atoms: C_16  and  C_30
    5  A    between atoms: C_27  and  C_30
                            x       y       z     vdW  Elec       q    Type
                         _______ _______ _______ _____ _____    ______ ____

>  <TORSDO>
F 5

$$$$
=
 OpenBabel11052412313D

 30 33  0  0  0  0  0  0  0  0999 V2000
  185.1930  178.7880  142.4090 N   0  0  0  0  0  0  0  0  0  0  0  0
  183.9280  179.0860  144.4130 C   0  0  0  0  0  0  0  0  0  0  0  0
  188.3480  177.0030  144.4900 C   0  0  0  0  0  3  0  0  0  0  0  0
  186.2930  178.3910  141.7120 C   0  0  0  0  0  0  0  0  0  0  0  0
  189.4680  176.5440  143.7960 C   0  0  0  0  0  3  0  0  0  0  0  0
  183.8160  178.9460  145.7990 C   0  0  0  0  0  3  0  0  0  0  0  0
  182.9110  179.6490  143.7150 F   0  0  0  0  0  0  0  0  0  0  0  0
  187.2830  177.6150  143.8060 C   0  0  0  0  0  0  0  0  0  0  0  0
  184.8530  178.3680  146.5330 C   0  0  0  0  0  3  0  0  0  0  0  0
  185.0840  178.6460  143.7550 C   0  0  0  0  0  0  0  0  0  0  0  0
  187.3620  177.7740  142.4000 C   0  0  0  0  0  0  0  0  0  0  0  0
  189.5380  176.6860  142.4100 C   0  0  0  0  0  3  0  0  0  0  0  0
  188.4890  177.2930  141.7160 C   0  0  0  0  0  3  0  0  0  0  0  0
  186.0090  177.9260  145.8840 C   0  0  0  0  0  3  0  0  0  0  0  0
  186.1380  178.0600  144.4910 C   0  0  0  0  0  0  0  0  0  0  0  0
  182.6410  179.1960  139.3860 C   0  0  0  0  0  2  0  0  0  0  0  0
  185.3030  179.6450  138.4700 O   0  0  0  0  0  0  0  0  0  0  0  0
  185.1580  178.9760  139.5290 C   0  0  0  0  0  0  0  0  0  0  0  0
  183.5520  177.4900  140.8350 C   0  0  0  0  0  2  0  0  0  0  0  0
  183.8350  178.6000  139.9470 N   0  0  0  0  0  0  0  0  0  0  0  0
  186.3220  178.5940  140.2870 N   0  0  0  0  0  0  0  0  0  0  0  0
  181.4790  178.5290  140.0950 C   0  0  0  0  0  2  0  0  0  0  0  0
  182.0480  177.3010  140.7920 C   0  0  0  0  0  2  0  0  0  0  0  0
  187.5650  178.3240  139.5760 C   0  0  0  0  0  2  0  0  0  0  0  0
  187.2780  177.5580  138.2940 C   0  0  0  0  0  2  0  0  0  0  0  0
  188.5500  176.9240  137.7650 C   0  0  0  0  0  2  0  0  0  0  0  0
  189.6980  177.4280  138.5010 N   0  0  0  0  0  2  0  0  0  0  0  0
  190.7680  175.3540  138.6050 O   0  0  0  0  0  0  0  0  0  0  0  0
  190.7770  176.5810  138.8910 C   0  0  0  0  0  0  0  0  0  0  0  0
  191.8770  177.1270  139.6120 N   0  0  0  0  0  1  0  0  0  0  0  0
  1 10  1  0  0  0  0
  2  6  1  0  0  0  0
  4 11  1  0  0  0  0
  4  1  2  0  0  0  0
  5  3  2  0  0  0  0
  6  9  2  0  0  0  0
  7  2  1  0  0  0  0
  8  3  1  0  0  0  0
  8 15  1  0  0  0  0
 10  2  2  0  0  0  0
 10 15  1  0  0  0  0
 11  8  2  0  0  0  0
 12  5  1  0  0  0  0
 13 11  1  0  0  0  0
 13 12  2  0  0  0  0
 14  9  1  0  0  0  0
 15 14  2  0  0  0  0
 16 20  1  0  0  0  0
 16 22  1  0  0  0  0
 17 18  2  0  0  0  0
 18 20  1  0  0  0  0
 18 21  1  0  0  0  0
 20 19  1  0  0  0  0
 21  4  1  0  0  0  0
 22 23  1  0  0  0  0
 23 19  1  0  0  0  0
 24 21  1  0  0  0  0
 25 24  1  0  0  0  0
 26 25  1  0  0  0  0
 26 27  1  0  0  0  0
 27 29  1  0  0  0  0
 28 29  2  0  0  0  0
 29 30  1  0  0  0  0
M  END
>  <MODEL>
9

>  <REMARK>
 VINA RESULT:      -6.2      3.919      7.007
  Name = 
  5 active torsions:
  status: ('A' for Active; 'I' for Inactive)
    1  A    between atoms: C_4  and  N_13
    2  A    between atoms: N_7  and  C_16
    3  A    between atoms: N_13  and  C_27
    4  A    between atoms: C_16  and  C_30
    5  A    between atoms: C_27  and  C_30
                            x       y       z     vdW  Elec       q    Type
                         _______ _______ _______ _____ _____    ______ ____

>  <TORSDO>
F 5

$$$$
