=
 OpenBabel11052415173D

 37 41  0  0  1  0  0  0  0  0999 V2000
  185.9250  180.2270  142.0260 O   0  0  0  0  0  0  0  0  0  0  0  0
  189.2420  177.3920  140.6530 C   0  0  0  0  0  0  0  0  0  0  0  0
  187.4790  176.9300  144.0630 C   0  0  0  0  0  2  0  0  0  0  0  0
  187.6020  177.8020  138.8220 C   0  0  0  0  0  2  0  0  0  0  0  0
  188.3310  178.0210  141.6930 C   0  0  2  0  0  3  0  0  0  0  0  0
  188.9540  177.4330  139.3560 C   0  0  0  0  0  0  0  0  0  0  0  0
  188.5760  177.5210  143.1420 C   0  0  1  0  0  3  0  0  0  0  0  0
  189.9710  176.9440  138.4950 N   0  0  0  0  0  2  0  0  0  0  0  0
  186.8290  178.7260  139.7670 C   0  0  2  0  0  3  0  0  0  0  0  0
  190.8670  176.0660  141.8950 C   0  0  0  0  0  2  0  0  0  0  0  0
  191.4910  176.6600  139.3500 S   0  0  0  0  0  0  0  0  0  0  0  0
  186.0270  176.9610  143.6020 C   0  0  0  0  0  2  0  0  0  0  0  0
  190.6020  176.8830  140.8860 C   0  0  0  0  0  0  0  0  0  0  0  0
  186.8830  178.1750  141.2020 C   0  0  2  0  0  3  0  0  0  0  0  0
  185.5940  178.3310  143.3550 N   0  0  0  0  0  0  0  0  0  0  0  0
  186.0900  178.9860  142.1860 C   0  0  0  0  0  0  0  0  0  0  0  0
  189.5480  178.4400  143.8850 C   0  0  2  0  0  3  0  0  0  0  0  0
  190.6050  178.8290  143.0560 O   0  0  0  0  0  1  0  0  0  0  0  0
  191.2530  177.1310  145.1610 C   0  0  0  0  0  3  0  0  0  0  0  0
  190.0530  177.8480  145.1670 C   0  0  0  0  0  0  0  0  0  0  0  0
  189.3580  178.0270  146.3720 C   0  0  0  0  0  3  0  0  0  0  0  0
  189.1740  177.6340  148.7150 F   0  0  0  0  0  0  0  0  0  0  0  0
  191.0510  176.7530  147.5450 C   0  0  0  0  0  3  0  0  0  0  0  0
  189.8560  177.4740  147.5570 C   0  0  0  0  0  0  0  0  0  0  0  0
  191.7500  176.5820  146.3470 C   0  0  0  0  0  3  0  0  0  0  0  0
  185.3850  178.8080  139.2850 C   0  0  0  0  0  2  0  0  0  0  0  0
  185.2040  178.0370  137.9840 C   0  0  0  0  0  2  0  0  0  0  0  0
  183.8020  177.7070  137.7920 N   0  0  0  0  0  2  0  0  0  0  0  0
  183.6800  176.2640  137.9220 C   0  0  0  0  0  2  0  0  0  0  0  0
  182.3160  175.8690  139.0530 S   0  0  0  0  0  1  0  0  0  0  0  0
  184.5240  178.9430  144.1400 C   0  0  1  0  0  3  0  0  0  0  0  0
  183.0480  178.1160  142.0810 C   0  0  0  0  0  1  0  0  0  0  0  0
  182.0860  179.6900  143.8440 C   0  0  0  0  0  2  0  0  0  0  0  0
  183.1720  178.7750  143.4440 C   0  0  2  0  0  0  0  0  0  0  0  0
  182.1580  178.3630  144.3230 O   0  0  0  0  0  0  0  0  0  0  0  0
  184.5140  178.4000  145.5670 C   0  0  0  0  0  2  0  0  0  0  0  0
  185.5540  179.1080  146.4060 C   0  0  0  0  0  1  0  0  0  0  0  0
  1 16  2  0  0  0  0
  2 13  1  0  0  0  0
  4  6  1  0  0  0  0
  4  9  1  0  0  0  0
  5  2  1  6  0  0  0
  5  7  1  0  0  0  0
  6  2  2  0  0  0  0
  7 17  1  1  0  0  0
  7  3  1  0  0  0  0
  8 11  1  0  0  0  0
  8  6  1  0  0  0  0
  9 26  1  6  0  0  0
  9 14  1  0  0  0  0
 11 13  1  0  0  0  0
 12  3  1  0  0  0  0
 13 10  2  0  0  0  0
 14  5  1  0  0  0  0
 14 16  1  1  0  0  0
 15 12  1  0  0  0  0
 15 31  1  0  0  0  0
 16 15  1  0  0  0  0
 17 18  1  6  0  0  0
 17 20  1  0  0  0  0
 19 20  2  0  0  0  0
 19 25  1  0  0  0  0
 20 21  1  0  0  0  0
 21 24  2  0  0  0  0
 23 24  1  0  0  0  0
 24 22  1  0  0  0  0
 25 23  2  0  0  0  0
 27 26  1  0  0  0  0
 28 29  1  0  0  0  0
 28 27  1  0  0  0  0
 29 30  1  0  0  0  0
 31 36  1  1  0  0  0
 33 35  1  0  0  0  0
 34 32  1  6  0  0  0
 34 33  1  0  0  0  0
 34 31  1  0  0  0  0
 34 35  1  0  0  0  0
 36 37  1  0  0  0  0
M  END
>  <MODEL>
1

>  <REMARK>
 VINA RESULT:      -6.9      0.000      0.000
  Name = 
  9 active torsions:
  status: ('A' for Active; 'I' for Inactive)
    1  A    between atoms: C_3  and  N_21
    2  A    between atoms: C_6  and  C_31
    3  A    between atoms: C_11  and  C_26
    4  A    between atoms: C_14  and  C_31
    5  A    between atoms: C_17  and  C_26
    6  A    between atoms: C_20  and  C_25
    7  A    between atoms: N_21  and  C_30
    8  A    between atoms: C_25  and  C_30
    9  A    between atoms: C_26  and  N_33
                            x       y       z     vdW  Elec       q    Type
                         _______ _______ _______ _____ _____    ______ ____

>  <TORSDO>
F 9

$$$$
=
 OpenBabel11052415173D

 37 41  0  0  1  0  0  0  0  0999 V2000
  184.7420  179.6800  138.6460 O   0  0  0  0  0  0  0  0  0  0  0  0
  183.9370  178.6750  143.0350 C   0  0  0  0  0  0  0  0  0  0  0  0
  181.6340  177.3750  140.2150 C   0  0  0  0  0  2  0  0  0  0  0  0
  186.3440  178.3570  142.4730 C   0  0  0  0  0  2  0  0  0  0  0  0
  183.5480  178.7980  141.5720 C   0  0  2  0  0  3  0  0  0  0  0  0
  185.2090  178.6190  143.4170 C   0  0  0  0  0  0  0  0  0  0  0  0
  182.0730  178.4210  141.2700 C   0  0  1  0  0  3  0  0  0  0  0  0
  185.4210  178.6620  144.8200 N   0  0  0  0  0  2  0  0  0  0  0  0
  186.0350  178.8080  141.0420 C   0  0  2  0  0  3  0  0  0  0  0  0
  181.8760  178.1850  144.2400 C   0  0  0  0  0  2  0  0  0  0  0  0
  183.9470  179.0670  145.7070 S   0  0  0  0  0  0  0  0  0  0  0  0
  182.6840  176.7640  139.2940 C   0  0  0  0  0  2  0  0  0  0  0  0
  183.0350  178.8240  144.1870 C   0  0  0  0  0  0  0  0  0  0  0  0
  184.6460  178.3000  140.6190 C   0  0  2  0  0  3  0  0  0  0  0  0
  183.3560  177.8010  138.5200 N   0  0  0  0  0  0  0  0  0  0  0  0
  184.2890  178.6410  139.2000 C   0  0  0  0  0  0  0  0  0  0  0  0
  181.1720  179.6570  141.2960 C   0  0  2  0  0  3  0  0  0  0  0  0
  180.1240  179.4960  142.2080 O   0  0  0  0  0  1  0  0  0  0  0  0
  179.4370  179.5120  139.5010 C   0  0  0  0  0  3  0  0  0  0  0  0
  180.6570  180.0380  139.9400 C   0  0  0  0  0  0  0  0  0  0  0  0
  181.3600  180.9320  139.1200 C   0  0  0  0  0  3  0  0  0  0  0  0
  181.5440  182.1300  137.0680 F   0  0  0  0  0  0  0  0  0  0  0  0
  179.6390  180.7470  137.4270 C   0  0  0  0  0  3  0  0  0  0  0  0
  180.8540  181.2800  137.8640 C   0  0  0  0  0  0  0  0  0  0  0  0
  178.9310  179.8640  138.2460 C   0  0  0  0  0  3  0  0  0  0  0  0
  187.1090  178.2470  140.1170 C   0  0  0  0  0  2  0  0  0  0  0  0
  188.4760  178.2940  140.7850 C   0  0  0  0  0  2  0  0  0  0  0  0
  189.2570  177.1290  140.4040 N   0  0  0  0  0  2  0  0  0  0  0  0
  190.3390  177.0040  141.3670 C   0  0  0  0  0  2  0  0  0  0  0  0
  189.7060  176.2600  142.8980 S   0  0  0  0  0  1  0  0  0  0  0  0
  183.2570  177.8440  137.0620 C   0  0  1  0  0  3  0  0  0  0  0  0
  183.7640  175.3490  136.2750 C   0  0  0  0  0  1  0  0  0  0  0  0
  185.6240  177.0900  136.4170 C   0  0  0  0  0  2  0  0  0  0  0  0
  184.1770  176.8030  136.4210 C   0  0  2  0  0  0  0  0  0  0  0  0
  184.8220  177.2860  135.2720 O   0  0  0  0  0  0  0  0  0  0  0  0
  181.8070  177.6970  136.6070 C   0  0  0  0  0  2  0  0  0  0  0  0
  181.5460  178.5610  135.3940 C   0  0  0  0  0  1  0  0  0  0  0  0
  1 16  2  0  0  0  0
  2  6  2  0  0  0  0
  2 13  1  0  0  0  0
  3  7  1  0  0  0  0
  4  6  1  0  0  0  0
  5  2  1  1  0  0  0
  6  8  1  0  0  0  0
  7 17  1  6  0  0  0
  7  5  1  0  0  0  0
  8 11  1  0  0  0  0
  9 26  1  6  0  0  0
  9  4  1  0  0  0  0
 12  3  1  0  0  0  0
 13 10  2  0  0  0  0
 13 11  1  0  0  0  0
 14 16  1  6  0  0  0
 14  9  1  0  0  0  0
 14  5  1  0  0  0  0
 15 16  1  0  0  0  0
 15 12  1  0  0  0  0
 17 18  1  1  0  0  0
 19 20  1  0  0  0  0
 20 17  1  0  0  0  0
 21 20  2  0  0  0  0
 22 24  1  0  0  0  0
 23 24  2  0  0  0  0
 23 25  1  0  0  0  0
 24 21  1  0  0  0  0
 25 19  2  0  0  0  0
 26 27  1  0  0  0  0
 28 27  1  0  0  0  0
 28 29  1  0  0  0  0
 29 30  1  0  0  0  0
 31 36  1  1  0  0  0
 31 15  1  0  0  0  0
 33 34  1  0  0  0  0
 34 32  1  1  0  0  0
 34 31  1  0  0  0  0
 35 33  1  0  0  0  0
 35 34  1  0  0  0  0
 37 36  1  0  0  0  0
M  END
>  <MODEL>
2

>  <REMARK>
 VINA RESULT:      -6.6      4.011      8.781
  Name = 
  9 active torsions:
  status: ('A' for Active; 'I' for Inactive)
    1  A    between atoms: C_3  and  N_21
    2  A    between atoms: C_6  and  C_31
    3  A    between atoms: C_11  and  C_26
    4  A    between atoms: C_14  and  C_31
    5  A    between atoms: C_17  and  C_26
    6  A    between atoms: C_20  and  C_25
    7  A    between atoms: N_21  and  C_30
    8  A    between atoms: C_25  and  C_30
    9  A    between atoms: C_26  and  N_33
                            x       y       z     vdW  Elec       q    Type
                         _______ _______ _______ _____ _____    ______ ____

>  <TORSDO>
F 9

$$$$
=
 OpenBabel11052415173D

 37 41  0  0  1  0  0  0  0  0999 V2000
  183.4300  176.9340  141.2600 O   0  0  0  0  0  0  0  0  0  0  0  0
  185.8430  178.3200  144.8910 C   0  0  0  0  0  0  0  0  0  0  0  0
  187.1620  178.8070  141.2890 C   0  0  0  0  0  2  0  0  0  0  0  0
  183.4550  179.0030  145.0920 C   0  0  0  0  0  2  0  0  0  0  0  0
  185.6760  177.9430  143.4290 C   0  0  2  0  0  3  0  0  0  0  0  0
  184.8040  178.6570  145.6480 C   0  0  0  0  0  0  0  0  0  0  0  0
  186.9870  178.0020  142.6010 C   0  0  1  0  0  3  0  0  0  0  0  0
  185.0920  178.8310  147.0260 N   0  0  0  0  0  2  0  0  0  0  0  0
  183.1820  178.3250  143.7460 C   0  0  2  0  0  3  0  0  0  0  0  0
  188.2400  178.5710  145.2510 C   0  0  0  0  0  2  0  0  0  0  0  0
  186.7170  178.2780  147.4450 S   0  0  0  0  0  0  0  0  0  0  0  0
  185.9450  179.4790  140.6640 C   0  0  0  0  0  2  0  0  0  0  0  0
  187.0630  178.1540  145.6940 C   0  0  0  0  0  0  0  0  0  0  0  0
  184.3890  178.5110  142.8090 C   0  0  2  0  0  3  0  0  0  0  0  0
  184.9150  178.4950  140.3520 N   0  0  0  0  0  0  0  0  0  0  0  0
  184.1790  177.9340  141.4390 C   0  0  0  0  0  0  0  0  0  0  0  0
  187.6720  176.6330  142.5570 C   0  0  2  0  0  3  0  0  0  0  0  0
  187.2200  175.8110  143.5940 O   0  0  0  0  0  1  0  0  0  0  0  0
  189.8120  177.3010  141.4510 C   0  0  0  0  0  3  0  0  0  0  0  0
  189.1690  176.7260  142.5510 C   0  0  0  0  0  0  0  0  0  0  0  0
  189.9290  176.2730  143.6390 C   0  0  0  0  0  3  0  0  0  0  0  0
  192.0540  175.9270  144.6590 F   0  0  0  0  0  0  0  0  0  0  0  0
  191.9620  176.9490  142.5110 C   0  0  0  0  0  3  0  0  0  0  0  0
  191.3230  176.3800  143.6150 C   0  0  0  0  0  0  0  0  0  0  0  0
  191.2070  177.4110  141.4290 C   0  0  0  0  0  3  0  0  0  0  0  0
  181.9350  178.9530  143.1340 C   0  0  0  0  0  2  0  0  0  0  0  0
  180.7040  178.6330  143.9700 C   0  0  0  0  0  2  0  0  0  0  0  0
  179.6090  178.2210  143.1060 N   0  0  0  0  0  2  0  0  0  0  0  0
  180.1080  178.2430  141.7410 C   0  0  0  0  0  2  0  0  0  0  0  0
  179.4260  176.8340  140.8220 S   0  0  0  0  0  1  0  0  0  0  0  0
  184.4920  178.2500  138.9740 C   0  0  1  0  0  3  0  0  0  0  0  0
  182.9320  180.4080  139.0760 C   0  0  0  0  0  1  0  0  0  0  0  0
  181.9790  178.1200  138.4680 C   0  0  0  0  0  2  0  0  0  0  0  0
  183.1720  178.9630  138.6750 C   0  0  2  0  0  0  0  0  0  0  0  0
  182.6890  178.6870  137.3870 O   0  0  0  0  0  0  0  0  0  0  0  0
  185.5940  178.6270  137.9880 C   0  0  0  0  0  2  0  0  0  0  0  0
  186.3400  177.3920  137.5360 C   0  0  0  0  0  1  0  0  0  0  0  0
  1 16  2  0  0  0  0
  2  6  2  0  0  0  0
  2 13  1  0  0  0  0
  3  7  1  0  0  0  0
  4  6  1  0  0  0  0
  5  2  1  1  0  0  0
  6  8  1  0  0  0  0
  7 17  1  6  0  0  0
  7  5  1  0  0  0  0
  8 11  1  0  0  0  0
  9 26  1  6  0  0  0
  9  4  1  0  0  0  0
 10 13  2  0  0  0  0
 12  3  1  0  0  0  0
 13 11  1  0  0  0  0
 14 16  1  6  0  0  0
 14  5  1  0  0  0  0
 14  9  1  0  0  0  0
 15 12  1  0  0  0  0
 15 16  1  0  0  0  0
 17 18  1  1  0  0  0
 19 20  1  0  0  0  0
 20 17  1  0  0  0  0
 20 21  2  0  0  0  0
 23 24  2  0  0  0  0
 24 21  1  0  0  0  0
 24 22  1  0  0  0  0
 25 19  2  0  0  0  0
 25 23  1  0  0  0  0
 26 27  1  0  0  0  0
 28 27  1  0  0  0  0
 29 28  1  0  0  0  0
 30 29  1  0  0  0  0
 31 36  1  6  0  0  0
 31 15  1  0  0  0  0
 33 34  1  0  0  0  0
 34 31  1  0  0  0  0
 34 32  1  1  0  0  0
 35 33  1  0  0  0  0
 35 34  1  0  0  0  0
 37 36  1  0  0  0  0
M  END
>  <MODEL>
3

>  <REMARK>
 VINA RESULT:      -6.6      2.982      5.528
  Name = 
  9 active torsions:
  status: ('A' for Active; 'I' for Inactive)
    1  A    between atoms: C_3  and  N_21
    2  A    between atoms: C_6  and  C_31
    3  A    between atoms: C_11  and  C_26
    4  A    between atoms: C_14  and  C_31
    5  A    between atoms: C_17  and  C_26
    6  A    between atoms: C_20  and  C_25
    7  A    between atoms: N_21  and  C_30
    8  A    between atoms: C_25  and  C_30
    9  A    between atoms: C_26  and  N_33
                            x       y       z     vdW  Elec       q    Type
                         _______ _______ _______ _____ _____    ______ ____

>  <TORSDO>
F 9

$$$$
=
 OpenBabel11052415173D

 37 41  0  0  1  0  0  0  0  0999 V2000
  184.5160  179.2850  138.3250 O   0  0  0  0  0  0  0  0  0  0  0  0
  181.4960  178.2010  141.5860 C   0  0  0  0  0  0  0  0  0  0  0  0
  181.9230  176.0140  138.4260 C   0  0  0  0  0  2  0  0  0  0  0  0
  183.6980  178.8180  142.5770 C   0  0  0  0  0  2  0  0  0  0  0  0
  182.0820  178.1130  140.1870 C   0  0  2  0  0  3  0  0  0  0  0  0
  182.2080  178.6540  142.6130 C   0  0  0  0  0  0  0  0  0  0  0  0
  181.2960  177.1850  139.2230 C   0  0  1  0  0  3  0  0  0  0  0  0
  181.4840  178.8250  143.8210 N   0  0  0  0  0  2  0  0  0  0  0  0
  184.2280  179.0650  141.1620 C   0  0  2  0  0  3  0  0  0  0  0  0
  179.3810  176.9940  141.5070 C   0  0  0  0  0  2  0  0  0  0  0  0
  179.7400  178.6590  143.5850 S   0  0  0  0  0  0  0  0  0  0  0  0
  183.4350  175.8250  138.4530 C   0  0  0  0  0  2  0  0  0  0  0  0
  180.0810  178.0300  141.9460 C   0  0  0  0  0  0  0  0  0  0  0  0
  183.6170  178.0450  140.1850 C   0  0  2  0  0  3  0  0  0  0  0  0
  184.1130  177.0140  137.9470 N   0  0  0  0  0  0  0  0  0  0  0  0
  184.1360  178.1720  138.7820 C   0  0  0  0  0  0  0  0  0  0  0  0
  180.2680  177.9760  138.4110 C   0  0  2  0  0  3  0  0  0  0  0  0
  180.2600  177.5670  137.0740 O   0  0  0  0  0  1  0  0  0  0  0  0
  181.4010  180.0950  137.7220 C   0  0  0  0  0  3  0  0  0  0  0  0
  180.4470  179.4610  138.5240 C   0  0  0  0  0  0  0  0  0  0  0  0
  179.6570  180.2240  139.3950 C   0  0  0  0  0  3  0  0  0  0  0  0
  179.0830  182.3410  140.3280 F   0  0  0  0  0  0  0  0  0  0  0  0
  180.7950  182.2370  138.6760 C   0  0  0  0  0  3  0  0  0  0  0  0
  179.8350  181.6090  139.4740 C   0  0  0  0  0  0  0  0  0  0  0  0
  181.5760  181.4810  137.7990 C   0  0  0  0  0  3  0  0  0  0  0  0
  185.7470  178.9310  141.1860 C   0  0  0  0  0  2  0  0  0  0  0  0
  186.2120  178.2980  142.4890 C   0  0  0  0  0  2  0  0  0  0  0  0
  187.5640  177.7850  142.3390 N   0  0  0  0  0  2  0  0  0  0  0  0
  187.7610  176.7840  143.3750 C   0  0  0  0  0  2  0  0  0  0  0  0
  187.4120  177.5150  144.9990 S   0  0  0  0  0  1  0  0  0  0  0  0
  184.9290  176.9640  136.7360 C   0  0  1  0  0  3  0  0  0  0  0  0
  186.3020  174.7070  137.0840 C   0  0  0  0  0  1  0  0  0  0  0  0
  187.3280  176.9740  137.6500 C   0  0  0  0  0  2  0  0  0  0  0  0
  186.2420  176.2220  136.9930 C   0  0  2  0  0  0  0  0  0  0  0  0
  187.3140  176.7490  136.2570 O   0  0  0  0  0  0  0  0  0  0  0  0
  184.1430  176.3700  135.5700 C   0  0  0  0  0  2  0  0  0  0  0  0
  183.1260  177.3650  135.0600 C   0  0  0  0  0  1  0  0  0  0  0  0
  1 16  2  0  0  0  0
  2 13  1  0  0  0  0
  2  6  2  0  0  0  0
  3 12  1  0  0  0  0
  3  7  1  0  0  0  0
  4  6  1  0  0  0  0
  5  2  1  1  0  0  0
  6  8  1  0  0  0  0
  7 17  1  6  0  0  0
  7  5  1  0  0  0  0
  9 26  1  1  0  0  0
  9  4  1  0  0  0  0
 10 13  2  0  0  0  0
 11  8  1  0  0  0  0
 13 11  1  0  0  0  0
 14 16  1  6  0  0  0
 14  5  1  0  0  0  0
 14  9  1  0  0  0  0
 15 12  1  0  0  0  0
 15 16  1  0  0  0  0
 17 18  1  6  0  0  0
 17 20  1  0  0  0  0
 19 25  2  0  0  0  0
 19 20  1  0  0  0  0
 20 21  2  0  0  0  0
 21 24  1  0  0  0  0
 23 24  2  0  0  0  0
 24 22  1  0  0  0  0
 25 23  1  0  0  0  0
 26 27  1  0  0  0  0
 28 27  1  0  0  0  0
 28 29  1  0  0  0  0
 29 30  1  0  0  0  0
 31 36  1  6  0  0  0
 31 34  1  0  0  0  0
 31 15  1  0  0  0  0
 34 32  1  1  0  0  0
 34 33  1  0  0  0  0
 35 34  1  0  0  0  0
 35 33  1  0  0  0  0
 37 36  1  0  0  0  0
M  END
>  <MODEL>
4

>  <REMARK>
 VINA RESULT:      -6.5      4.279      9.296
  Name = 
  9 active torsions:
  status: ('A' for Active; 'I' for Inactive)
    1  A    between atoms: C_3  and  N_21
    2  A    between atoms: C_6  and  C_31
    3  A    between atoms: C_11  and  C_26
    4  A    between atoms: C_14  and  C_31
    5  A    between atoms: C_17  and  C_26
    6  A    between atoms: C_20  and  C_25
    7  A    between atoms: N_21  and  C_30
    8  A    between atoms: C_25  and  C_30
    9  A    between atoms: C_26  and  N_33
                            x       y       z     vdW  Elec       q    Type
                         _______ _______ _______ _____ _____    ______ ____

>  <TORSDO>
F 9

$$$$
=
 OpenBabel11052415173D

 37 41  0  0  1  0  0  0  0  0999 V2000
  188.5990  179.0900  138.4150 O   0  0  0  0  0  0  0  0  0  0  0  0
  185.2390  178.4180  141.4440 C   0  0  0  0  0  0  0  0  0  0  0  0
  185.0230  177.0110  137.8490 C   0  0  0  0  0  2  0  0  0  0  0  0
  187.4670  177.9750  142.4690 C   0  0  0  0  0  2  0  0  0  0  0  0
  185.8220  178.4550  140.0430 C   0  0  2  0  0  3  0  0  0  0  0  0
  186.0140  178.3420  142.5220 C   0  0  0  0  0  0  0  0  0  0  0  0
  184.8080  178.1100  138.9190 C   0  0  1  0  0  3  0  0  0  0  0  0
  185.3380  178.4740  143.7620 N   0  0  0  0  0  2  0  0  0  0  0  0
  188.1170  178.3390  141.1310 C   0  0  2  0  0  3  0  0  0  0  0  0
  182.8400  178.0850  141.1660 C   0  0  0  0  0  2  0  0  0  0  0  0
  183.6610  178.9910  143.5590 S   0  0  0  0  0  0  0  0  0  0  0  0
  186.3700  176.3020  137.7750 C   0  0  0  0  0  2  0  0  0  0  0  0
  183.8370  178.6770  141.8070 C   0  0  0  0  0  0  0  0  0  0  0  0
  187.2340  177.8530  139.9680 C   0  0  2  0  0  3  0  0  0  0  0  0
  187.4440  177.2580  137.5350 N   0  0  0  0  0  0  0  0  0  0  0  0
  187.8320  178.1090  138.6140 C   0  0  0  0  0  0  0  0  0  0  0  0
  184.1630  179.3770  138.3520 C   0  0  2  0  0  3  0  0  0  0  0  0
  184.5370  180.5060  139.0900 O   0  0  0  0  0  1  0  0  0  0  0  0
  182.1080  178.1220  137.6830 C   0  0  0  0  0  3  0  0  0  0  0  0
  182.6710  179.2760  138.2350 C   0  0  0  0  0  0  0  0  0  0  0  0
  181.8350  180.3020  138.6960 C   0  0  0  0  0  3  0  0  0  0  0  0
  179.6420  181.1790  139.0170 F   0  0  0  0  0  0  0  0  0  0  0  0
  179.8880  179.0270  138.0270 C   0  0  0  0  0  3  0  0  0  0  0  0
  180.4460  180.1790  138.5870 C   0  0  0  0  0  0  0  0  0  0  0  0
  180.7190  177.9980  137.5760 C   0  0  0  0  0  3  0  0  0  0  0  0
  189.4890  177.6770  141.0670 C   0  0  0  0  0  2  0  0  0  0  0  0
  190.1090  177.5840  142.4540 C   0  0  0  0  0  2  0  0  0  0  0  0
  190.9020  176.3700  142.5640 N   0  0  0  0  0  2  0  0  0  0  0  0
  191.3090  176.2480  143.9540 C   0  0  0  0  0  2  0  0  0  0  0  0
  190.5040  177.5440  144.9390 S   0  0  0  0  0  1  0  0  0  0  0  0
  188.2490  177.2050  136.3150 C   0  0  1  0  0  3  0  0  0  0  0  0
  189.1560  174.7480  136.8050 C   0  0  0  0  0  1  0  0  0  0  0  0
  190.7320  176.7540  136.7810 C   0  0  0  0  0  2  0  0  0  0  0  0
  189.3990  176.2080  136.4640 C   0  0  2  0  0  0  0  0  0  0  0  0
  190.3790  176.3620  135.4720 O   0  0  0  0  0  0  0  0  0  0  0  0
  187.3770  176.9110  135.0970 C   0  0  0  0  0  2  0  0  0  0  0  0
  186.7310  178.1810  134.5940 C   0  0  0  0  0  1  0  0  0  0  0  0
  1 16  2  0  0  0  0
  2 13  1  0  0  0  0
  2  6  2  0  0  0  0
  3  7  1  0  0  0  0
  4  6  1  0  0  0  0
  5  2  1  1  0  0  0
  6  8  1  0  0  0  0
  7 17  1  6  0  0  0
  7  5  1  0  0  0  0
  9 26  1  6  0  0  0
  9  4  1  0  0  0  0
 10 13  2  0  0  0  0
 11  8  1  0  0  0  0
 12  3  1  0  0  0  0
 13 11  1  0  0  0  0
 14 16  1  6  0  0  0
 14  5  1  0  0  0  0
 14  9  1  0  0  0  0
 15 12  1  0  0  0  0
 15 16  1  0  0  0  0
 17 18  1  1  0  0  0
 19 20  1  0  0  0  0
 20 17  1  0  0  0  0
 20 21  2  0  0  0  0
 23 24  2  0  0  0  0
 24 21  1  0  0  0  0
 24 22  1  0  0  0  0
 25 19  2  0  0  0  0
 25 23  1  0  0  0  0
 26 27  1  0  0  0  0
 27 28  1  0  0  0  0
 28 29  1  0  0  0  0
 29 30  1  0  0  0  0
 31 36  1  6  0  0  0
 31 34  1  0  0  0  0
 31 15  1  0  0  0  0
 34 33  1  0  0  0  0
 34 32  1  1  0  0  0
 35 34  1  0  0  0  0
 35 33  1  0  0  0  0
 37 36  1  0  0  0  0
M  END
>  <MODEL>
5

>  <REMARK>
 VINA RESULT:      -6.3      3.896      8.880
  Name = 
  9 active torsions:
  status: ('A' for Active; 'I' for Inactive)
    1  A    between atoms: C_3  and  N_21
    2  A    between atoms: C_6  and  C_31
    3  A    between atoms: C_11  and  C_26
    4  A    between atoms: C_14  and  C_31
    5  A    between atoms: C_17  and  C_26
    6  A    between atoms: C_20  and  C_25
    7  A    between atoms: N_21  and  C_30
    8  A    between atoms: C_25  and  C_30
    9  A    between atoms: C_26  and  N_33
                            x       y       z     vdW  Elec       q    Type
                         _______ _______ _______ _____ _____    ______ ____

>  <TORSDO>
F 9

$$$$
=
 OpenBabel11052415173D

 37 41  0  0  1  0  0  0  0  0999 V2000
  182.6160  178.6090  137.1680 O   0  0  0  0  0  0  0  0  0  0  0  0
  183.4780  178.7420  141.6590 C   0  0  0  0  0  0  0  0  0  0  0  0
  180.7220  176.4540  140.2020 C   0  0  0  0  0  2  0  0  0  0  0  0
  185.5910  178.5780  140.3480 C   0  0  0  0  0  2  0  0  0  0  0  0
  182.6270  178.4150  140.4440 C   0  0  2  0  0  3  0  0  0  0  0  0
  184.7880  178.9470  141.5590 C   0  0  0  0  0  0  0  0  0  0  0  0
  181.2460  177.7920  140.7800 C   0  0  1  0  0  3  0  0  0  0  0  0
  185.4210  179.3940  142.7480 N   0  0  0  0  0  2  0  0  0  0  0  0
  184.7560  178.5840  139.0640 C   0  0  2  0  0  3  0  0  0  0  0  0
  182.0580  178.3480  143.6000 C   0  0  0  0  0  2  0  0  0  0  0  0
  184.2560  179.8410  143.9990 S   0  0  0  0  0  0  0  0  0  0  0  0
  181.5270  175.7490  139.1160 C   0  0  0  0  0  2  0  0  0  0  0  0
  182.9790  179.0860  142.9990 C   0  0  0  0  0  0  0  0  0  0  0  0
  183.4420  177.8150  139.2880 C   0  0  2  0  0  3  0  0  0  0  0  0
  181.6860  176.6120  137.9510 N   0  0  0  0  0  0  0  0  0  0  0  0
  182.5910  177.7120  138.0550 C   0  0  0  0  0  0  0  0  0  0  0  0
  180.1620  178.8700  140.8670 C   0  0  2  0  0  3  0  0  0  0  0  0
  178.9310  178.3160  141.2330 O   0  0  0  0  0  1  0  0  0  0  0  0
  179.1720  179.2540  138.6040 C   0  0  0  0  0  3  0  0  0  0  0  0
  180.0400  179.6830  139.6130 C   0  0  0  0  0  0  0  0  0  0  0  0
  180.7560  180.8770  139.4490 C   0  0  0  0  0  3  0  0  0  0  0  0
  181.3230  182.7670  138.1120 F   0  0  0  0  0  0  0  0  0  0  0  0
  179.7550  181.1870  137.2660 C   0  0  0  0  0  3  0  0  0  0  0  0
  180.6170  181.6240  138.2740 C   0  0  0  0  0  0  0  0  0  0  0  0
  179.0320  180.0030  137.4310 C   0  0  0  0  0  3  0  0  0  0  0  0
  185.5720  177.9290  137.9560 C   0  0  0  0  0  2  0  0  0  0  0  0
  187.0450  177.8620  138.3360 C   0  0  0  0  0  2  0  0  0  0  0  0
  187.8100  178.7960  137.5260 N   0  0  0  0  0  2  0  0  0  0  0  0
  189.2100  178.6190  137.8750 C   0  0  0  0  0  2  0  0  0  0  0  0
  189.3360  177.9210  139.5470 S   0  0  0  0  0  1  0  0  0  0  0  0
  181.1210  176.2460  136.6530 C   0  0  1  0  0  3  0  0  0  0  0  0
  181.1220  173.5850  136.4990 C   0  0  0  0  0  1  0  0  0  0  0  0
  183.1480  174.9500  135.7570 C   0  0  0  0  0  2  0  0  0  0  0  0
  181.7240  174.9350  136.1460 C   0  0  2  0  0  0  0  0  0  0  0  0
  182.1120  175.0030  134.7990 O   0  0  0  0  0  0  0  0  0  0  0  0
  179.5970  176.2000  136.7140 C   0  0  0  0  0  2  0  0  0  0  0  0
  179.0070  176.5180  135.3580 C   0  0  0  0  0  1  0  0  0  0  0  0
  1 16  2  0  0  0  0
  2 13  1  0  0  0  0
  3  7  1  0  0  0  0
  4  6  1  0  0  0  0
  5  7  1  0  0  0  0
  5  2  1  1  0  0  0
  6  2  2  0  0  0  0
  6  8  1  0  0  0  0
  7 17  1  6  0  0  0
  8 11  1  0  0  0  0
  9 26  1  6  0  0  0
  9 14  1  0  0  0  0
  9  4  1  0  0  0  0
 12  3  1  0  0  0  0
 13 10  2  0  0  0  0
 13 11  1  0  0  0  0
 14 16  1  6  0  0  0
 14  5  1  0  0  0  0
 15 16  1  0  0  0  0
 15 12  1  0  0  0  0
 17 18  1  6  0  0  0
 19 20  1  0  0  0  0
 20 17  1  0  0  0  0
 21 20  2  0  0  0  0
 22 24  1  0  0  0  0
 23 25  1  0  0  0  0
 23 24  2  0  0  0  0
 24 21  1  0  0  0  0
 25 19  2  0  0  0  0
 26 27  1  0  0  0  0
 28 29  1  0  0  0  0
 28 27  1  0  0  0  0
 29 30  1  0  0  0  0
 31 36  1  1  0  0  0
 31 15  1  0  0  0  0
 33 34  1  0  0  0  0
 34 32  1  1  0  0  0
 34 31  1  0  0  0  0
 35 33  1  0  0  0  0
 35 34  1  0  0  0  0
 37 36  1  0  0  0  0
M  END
>  <MODEL>
6

>  <REMARK>
 VINA RESULT:      -6.2      5.115      9.088
  Name = 
  9 active torsions:
  status: ('A' for Active; 'I' for Inactive)
    1  A    between atoms: C_3  and  N_21
    2  A    between atoms: C_6  and  C_31
    3  A    between atoms: C_11  and  C_26
    4  A    between atoms: C_14  and  C_31
    5  A    between atoms: C_17  and  C_26
    6  A    between atoms: C_20  and  C_25
    7  A    between atoms: N_21  and  C_30
    8  A    between atoms: C_25  and  C_30
    9  A    between atoms: C_26  and  N_33
                            x       y       z     vdW  Elec       q    Type
                         _______ _______ _______ _____ _____    ______ ____

>  <TORSDO>
F 9

$$$$
=
 OpenBabel11052415173D

 37 41  0  0  1  0  0  0  0  0999 V2000
  182.4480  177.3570  141.3010 O   0  0  0  0  0  0  0  0  0  0  0  0
  186.7670  178.2510  140.0870 C   0  0  0  0  0  0  0  0  0  0  0  0
  183.8000  179.1040  137.7570 C   0  0  0  0  0  2  0  0  0  0  0  0
  186.3290  178.9760  142.4300 C   0  0  0  0  0  2  0  0  0  0  0  0
  185.2870  178.0480  139.8090 C   0  0  2  0  0  3  0  0  0  0  0  0
  187.2160  178.5310  141.3060 C   0  0  0  0  0  0  0  0  0  0  0  0
  184.8980  178.1610  138.3100 C   0  0  1  0  0  3  0  0  0  0  0  0
  188.6280  178.5390  141.4420 N   0  0  0  0  0  2  0  0  0  0  0  0
  184.8930  178.4640  142.2850 C   0  0  2  0  0  3  0  0  0  0  0  0
  187.8480  178.3880  137.9070 C   0  0  0  0  0  2  0  0  0  0  0  0
  189.4420  177.8930  140.0130 S   0  0  0  0  0  0  0  0  0  0  0  0
  182.9260  179.8780  138.7370 C   0  0  0  0  0  2  0  0  0  0  0  0
  187.8710  177.9590  139.1600 C   0  0  0  0  0  0  0  0  0  0  0  0
  184.3850  178.7190  140.8560 C   0  0  2  0  0  3  0  0  0  0  0  0
  182.2100  178.9660  139.6210 N   0  0  0  0  0  0  0  0  0  0  0  0
  182.9570  178.3070  140.6450 C   0  0  0  0  0  0  0  0  0  0  0  0
  184.8990  176.7870  137.6350 C   0  0  2  0  0  3  0  0  0  0  0  0
  185.6560  176.8050  136.4590 O   0  0  0  0  0  1  0  0  0  0  0  0
  182.9840  176.3260  136.0970 C   0  0  0  0  0  3  0  0  0  0  0  0
  183.5200  176.2530  137.3860 C   0  0  0  0  0  0  0  0  0  0  0  0
  182.7750  175.6570  138.4140 C   0  0  0  0  0  3  0  0  0  0  0  0
  180.7720  174.5980  139.1510 F   0  0  0  0  0  0  0  0  0  0  0  0
  180.9600  175.2390  136.8650 C   0  0  0  0  0  3  0  0  0  0  0  0
  181.4950  175.1570  138.1530 C   0  0  0  0  0  0  0  0  0  0  0  0
  181.7050  175.8230  135.8370 C   0  0  0  0  0  3  0  0  0  0  0  0
  184.0170  179.1940  143.2970 C   0  0  0  0  0  2  0  0  0  0  0  0
  183.9380  178.4160  144.6030 C   0  0  0  0  0  2  0  0  0  0  0  0
  184.5070  179.2020  145.6860 N   0  0  0  0  0  2  0  0  0  0  0  0
  185.1010  178.2680  146.6280 C   0  0  0  0  0  2  0  0  0  0  0  0
  186.7670  177.8150  146.0650 S   0  0  0  0  0  1  0  0  0  0  0  0
  180.7500  178.8920  139.6130 C   0  0  1  0  0  3  0  0  0  0  0  0
  179.9670  181.4390  139.6410 C   0  0  0  0  0  1  0  0  0  0  0  0
  180.1930  180.1060  141.8050 C   0  0  0  0  0  2  0  0  0  0  0  0
  180.1390  180.0970  140.3310 C   0  0  2  0  0  0  0  0  0  0  0  0
  179.0190  179.7540  141.1050 O   0  0  0  0  0  0  0  0  0  0  0  0
  180.2180  178.7300  138.1920 C   0  0  0  0  0  2  0  0  0  0  0  0
  178.9310  177.9350  138.2000 C   0  0  0  0  0  1  0  0  0  0  0  0
  2  6  2  0  0  0  0
  3  7  1  0  0  0  0
  3 12  1  0  0  0  0
  5  2  1  6  0  0  0
  5 14  1  0  0  0  0
  6  8  1  0  0  0  0
  6  4  1  0  0  0  0
  7 17  1  1  0  0  0
  7  5  1  0  0  0  0
  9  4  1  0  0  0  0
  9 26  1  1  0  0  0
 10 13  2  0  0  0  0
 11  8  1  0  0  0  0
 12 15  1  0  0  0  0
 13 11  1  0  0  0  0
 13  2  1  0  0  0  0
 14 16  1  1  0  0  0
 14  9  1  0  0  0  0
 15 16  1  0  0  0  0
 16  1  2  0  0  0  0
 17 18  1  6  0  0  0
 19 20  1  0  0  0  0
 20 17  1  0  0  0  0
 20 21  2  0  0  0  0
 23 24  2  0  0  0  0
 24 21  1  0  0  0  0
 24 22  1  0  0  0  0
 25 19  2  0  0  0  0
 25 23  1  0  0  0  0
 26 27  1  0  0  0  0
 27 28  1  0  0  0  0
 28 29  1  0  0  0  0
 30 29  1  0  0  0  0
 31 36  1  6  0  0  0
 31 15  1  0  0  0  0
 31 34  1  0  0  0  0
 34 32  1  6  0  0  0
 34 35  1  0  0  0  0
 34 33  1  0  0  0  0
 35 33  1  0  0  0  0
 36 37  1  0  0  0  0
M  END
>  <MODEL>
7

>  <REMARK>
 VINA RESULT:      -6.0      4.130      7.657
  Name = 
  9 active torsions:
  status: ('A' for Active; 'I' for Inactive)
    1  A    between atoms: C_3  and  N_21
    2  A    between atoms: C_6  and  C_31
    3  A    between atoms: C_11  and  C_26
    4  A    between atoms: C_14  and  C_31
    5  A    between atoms: C_17  and  C_26
    6  A    between atoms: C_20  and  C_25
    7  A    between atoms: N_21  and  C_30
    8  A    between atoms: C_25  and  C_30
    9  A    between atoms: C_26  and  N_33
                            x       y       z     vdW  Elec       q    Type
                         _______ _______ _______ _____ _____    ______ ____

>  <TORSDO>
F 9

$$$$
=
 OpenBabel11052415173D

 37 41  0  0  1  0  0  0  0  0999 V2000
  190.2340  174.1960  137.7930 O   0  0  0  0  0  0  0  0  0  0  0  0
  188.0640  177.7160  139.7500 C   0  0  0  0  0  0  0  0  0  0  0  0
  191.9020  177.3160  140.0100 C   0  0  0  0  0  2  0  0  0  0  0  0
  187.2620  177.3570  137.4180 C   0  0  0  0  0  2  0  0  0  0  0  0
  189.2480  176.7850  139.5510 C   0  0  2  0  0  3  0  0  0  0  0  0
  187.1150  177.8450  138.8290 C   0  0  0  0  0  0  0  0  0  0  0  0
  190.4500  177.0700  140.4910 C   0  0  1  0  0  3  0  0  0  0  0  0
  185.9980  178.6270  139.2180 N   0  0  0  0  0  2  0  0  0  0  0  0
  188.2310  176.1770  137.3020 C   0  0  2  0  0  3  0  0  0  0  0  0
  188.5890  179.0610  141.7130 C   0  0  0  0  0  2  0  0  0  0  0  0
  186.0150  179.0060  140.9440 S   0  0  0  0  0  0  0  0  0  0  0  0
  192.2360  177.1280  138.5350 C   0  0  0  0  0  2  0  0  0  0  0  0
  187.6940  178.3920  141.0030 C   0  0  0  0  0  0  0  0  0  0  0  0
  189.5280  176.4830  138.0710 C   0  0  2  0  0  3  0  0  0  0  0  0
  191.9370  175.7660  138.1080 N   0  0  0  0  0  0  0  0  0  0  0  0
  190.5640  175.4030  137.9520 C   0  0  0  0  0  0  0  0  0  0  0  0
  190.3780  176.2090  141.7550 C   0  0  2  0  0  3  0  0  0  0  0  0
  189.1950  175.4620  141.7870 O   0  0  0  0  0  1  0  0  0  0  0  0
  191.5090  178.0220  143.0520 C   0  0  0  0  0  3  0  0  0  0  0  0
  190.5550  177.0000  143.0160 C   0  0  0  0  0  0  0  0  0  0  0  0
  189.7610  176.7530  144.1460 C   0  0  0  0  0  3  0  0  0  0  0  0
  189.1820  177.2600  146.4010 F   0  0  0  0  0  0  0  0  0  0  0  0
  190.8970  178.5270  145.3410 C   0  0  0  0  0  3  0  0  0  0  0  0
  189.9380  177.5130  145.3070 C   0  0  0  0  0  0  0  0  0  0  0  0
  191.6820  178.7820  144.2130 C   0  0  0  0  0  3  0  0  0  0  0  0
  188.5320  175.9440  135.8260 C   0  0  0  0  0  2  0  0  0  0  0  0
  187.5100  175.0000  135.2080 C   0  0  0  0  0  2  0  0  0  0  0  0
  187.4210  173.7800  135.9930 N   0  0  0  0  0  2  0  0  0  0  0  0
  186.0440  173.3200  135.9170 C   0  0  0  0  0  2  0  0  0  0  0  0
  185.4120  173.0170  137.5910 S   0  0  0  0  0  1  0  0  0  0  0  0
  192.9920  174.8690  137.6400 C   0  0  1  0  0  3  0  0  0  0  0  0
  192.7900  176.0030  135.2370 C   0  0  0  0  0  1  0  0  0  0  0  0
  192.6800  173.4680  135.5110 C   0  0  0  0  0  2  0  0  0  0  0  0
  192.9930  174.7790  136.1130 C   0  0  2  0  0  0  0  0  0  0  0  0
  194.0060  173.9410  135.6220 O   0  0  0  0  0  0  0  0  0  0  0  0
  194.3500  175.2830  138.1990 C   0  0  0  0  0  2  0  0  0  0  0  0
  195.0940  174.0740  138.7200 C   0  0  0  0  0  1  0  0  0  0  0  0
  1 16  2  0  0  0  0
  2 13  1  0  0  0  0
  3  7  1  0  0  0  0
  4  6  1  0  0  0  0
  5  2  1  6  0  0  0
  5  7  1  0  0  0  0
  6  8  1  0  0  0  0
  6  2  2  0  0  0  0
  7 17  1  1  0  0  0
  8 11  1  0  0  0  0
  9 26  1  6  0  0  0
  9  4  1  0  0  0  0
  9 14  1  0  0  0  0
 11 13  1  0  0  0  0
 12  3  1  0  0  0  0
 13 10  2  0  0  0  0
 14 16  1  1  0  0  0
 14  5  1  0  0  0  0
 15 12  1  0  0  0  0
 16 15  1  0  0  0  0
 17 18  1  1  0  0  0
 17 20  1  0  0  0  0
 19 25  1  0  0  0  0
 20 19  2  0  0  0  0
 20 21  1  0  0  0  0
 21 24  2  0  0  0  0
 24 23  1  0  0  0  0
 24 22  1  0  0  0  0
 25 23  2  0  0  0  0
 27 26  1  0  0  0  0
 27 28  1  0  0  0  0
 29 28  1  0  0  0  0
 29 30  1  0  0  0  0
 31 15  1  0  0  0  0
 31 36  1  6  0  0  0
 33 35  1  0  0  0  0
 33 34  1  0  0  0  0
 34 32  1  6  0  0  0
 34 31  1  0  0  0  0
 35 34  1  0  0  0  0
 36 37  1  0  0  0  0
M  END
>  <MODEL>
8

>  <REMARK>
 VINA RESULT:      -6.0      3.790      7.107
  Name = 
  9 active torsions:
  status: ('A' for Active; 'I' for Inactive)
    1  A    between atoms: C_3  and  N_21
    2  A    between atoms: C_6  and  C_31
    3  A    between atoms: C_11  and  C_26
    4  A    between atoms: C_14  and  C_31
    5  A    between atoms: C_17  and  C_26
    6  A    between atoms: C_20  and  C_25
    7  A    between atoms: N_21  and  C_30
    8  A    between atoms: C_25  and  C_30
    9  A    between atoms: C_26  and  N_33
                            x       y       z     vdW  Elec       q    Type
                         _______ _______ _______ _____ _____    ______ ____

>  <TORSDO>
F 9

$$$$
=
 OpenBabel11052415173D

 37 41  0  0  1  0  0  0  0  0999 V2000
  185.7170  179.9360  142.4950 O   0  0  0  0  0  0  0  0  0  0  0  0
  189.2220  177.6230  140.6790 C   0  0  0  0  0  0  0  0  0  0  0  0
  187.7290  176.6530  144.1120 C   0  0  0  0  0  2  0  0  0  0  0  0
  187.4390  178.0200  138.9840 C   0  0  0  0  0  2  0  0  0  0  0  0
  188.3150  178.0480  141.8220 C   0  0  2  0  0  3  0  0  0  0  0  0
  188.8520  177.7530  139.4090 C   0  0  0  0  0  0  0  0  0  0  0  0
  188.6990  177.4440  143.1990 C   0  0  1  0  0  3  0  0  0  0  0  0
  189.8600  177.4610  138.4540 N   0  0  0  0  0  2  0  0  0  0  0  0
  186.6320  178.7610  140.0540 C   0  0  2  0  0  3  0  0  0  0  0  0
  191.0490  176.3730  141.6990 C   0  0  0  0  0  2  0  0  0  0  0  0
  191.4510  177.2670  139.1980 S   0  0  0  0  0  0  0  0  0  0  0  0
  186.2550  176.5680  143.7300 C   0  0  0  0  0  2  0  0  0  0  0  0
  190.6390  177.2470  140.7920 C   0  0  0  0  0  0  0  0  0  0  0  0
  186.8320  178.0870  141.4240 C   0  0  2  0  0  3  0  0  0  0  0  0
  185.6680  177.8990  143.6430 N   0  0  0  0  0  0  0  0  0  0  0  0
  186.0200  178.7110  142.5220 C   0  0  0  0  0  0  0  0  0  0  0  0
  189.6140  178.3910  143.9800 C   0  0  2  0  0  3  0  0  0  0  0  0
  190.7000  178.7990  143.1990 O   0  0  0  0  0  1  0  0  0  0  0  0
  191.2510  177.0720  145.3330 C   0  0  0  0  0  3  0  0  0  0  0  0
  190.0700  177.8200  145.2890 C   0  0  0  0  0  0  0  0  0  0  0  0
  189.3520  178.0490  146.4720 C   0  0  0  0  0  3  0  0  0  0  0  0
  189.1000  177.7230  148.8190 F   0  0  0  0  0  0  0  0  0  0  0  0
  190.9800  176.7620  147.7190 C   0  0  0  0  0  3  0  0  0  0  0  0
  189.8050  177.5150  147.6830 C   0  0  0  0  0  0  0  0  0  0  0  0
  191.7040  176.5420  146.5440 C   0  0  0  0  0  3  0  0  0  0  0  0
  185.1610  178.7280  139.6570 C   0  0  0  0  0  2  0  0  0  0  0  0
  184.9750  178.0040  138.3310 C   0  0  0  0  0  2  0  0  0  0  0  0
  183.5640  177.9510  137.9870 N   0  0  0  0  0  2  0  0  0  0  0  0
  183.0790  176.6320  138.3620 C   0  0  0  0  0  2  0  0  0  0  0  0
  181.6780  176.8030  139.5040 S   0  0  0  0  0  1  0  0  0  0  0  0
  184.5900  178.3130  144.5390 C   0  0  1  0  0  3  0  0  0  0  0  0
  186.0580  179.9090  146.0890 C   0  0  0  0  0  1  0  0  0  0  0  0
  185.2070  177.6600  146.9440 C   0  0  0  0  0  2  0  0  0  0  0  0
  185.1420  178.7100  145.9100 C   0  0  2  0  0  0  0  0  0  0  0  0
  184.1780  178.6270  146.9260 O   0  0  0  0  0  0  0  0  0  0  0  0
  183.7480  179.4200  143.9090 C   0  0  0  0  0  2  0  0  0  0  0  0
  182.2970  179.0010  143.8400 C   0  0  0  0  0  1  0  0  0  0  0  0
  1 16  2  0  0  0  0
  2 13  1  0  0  0  0
  4  6  1  0  0  0  0
  4  9  1  0  0  0  0
  5  2  1  6  0  0  0
  5  7  1  0  0  0  0
  6  2  2  0  0  0  0
  7 17  1  1  0  0  0
  7  3  1  0  0  0  0
  8 11  1  0  0  0  0
  8  6  1  0  0  0  0
  9 26  1  6  0  0  0
  9 14  1  0  0  0  0
 11 13  1  0  0  0  0
 12  3  1  0  0  0  0
 13 10  2  0  0  0  0
 14  5  1  0  0  0  0
 14 16  1  1  0  0  0
 15 12  1  0  0  0  0
 15 31  1  0  0  0  0
 16 15  1  0  0  0  0
 17 18  1  6  0  0  0
 17 20  1  0  0  0  0
 19 25  1  0  0  0  0
 20 19  2  0  0  0  0
 20 21  1  0  0  0  0
 21 24  2  0  0  0  0
 24 23  1  0  0  0  0
 24 22  1  0  0  0  0
 25 23  2  0  0  0  0
 27 26  1  0  0  0  0
 28 27  1  0  0  0  0
 28 29  1  0  0  0  0
 29 30  1  0  0  0  0
 31 36  1  6  0  0  0
 31 34  1  0  0  0  0
 34 32  1  1  0  0  0
 34 35  1  0  0  0  0
 34 33  1  0  0  0  0
 35 33  1  0  0  0  0
 37 36  1  0  0  0  0
M  END
>  <MODEL>
9

>  <REMARK>
 VINA RESULT:      -6.0      0.808      1.647
  Name = 
  9 active torsions:
  status: ('A' for Active; 'I' for Inactive)
    1  A    between atoms: C_3  and  N_21
    2  A    between atoms: C_6  and  C_31
    3  A    between atoms: C_11  and  C_26
    4  A    between atoms: C_14  and  C_31
    5  A    between atoms: C_17  and  C_26
    6  A    between atoms: C_20  and  C_25
    7  A    between atoms: N_21  and  C_30
    8  A    between atoms: C_25  and  C_30
    9  A    between atoms: C_26  and  N_33
                            x       y       z     vdW  Elec       q    Type
                         _______ _______ _______ _____ _____    ______ ____

>  <TORSDO>
F 9

$$$$
