=
 OpenBabel11052413513D

 27 30  0  0  1  0  0  0  0  0999 V2000
  186.2670  178.9410  144.6360 C   0  0  0  0  0  2  0  0  0  0  0  0
  186.9790  177.6450  142.5850 N   0  0  0  0  0  0  0  0  0  0  0  0
  189.0540  178.0110  144.1030 C   0  0  0  0  0  2  0  0  0  0  0  0
  188.7940  175.9190  142.5070 C   0  0  1  0  0  3  0  0  0  0  0  0
  189.4140  178.1430  147.8530 C   0  0  0  0  0  2  0  0  0  0  0  0
  190.2670  175.7240  142.8280 C   0  0  0  0  0  1  0  0  0  0  0  0
  188.2540  177.8350  148.8060 C   0  0  0  0  0  2  0  0  0  0  0  0
  187.9720  175.6580  143.7620 C   0  0  0  0  0  2  0  0  0  0  0  0
  185.9050  177.9150  143.5590 C   0  0  2  0  0  3  0  0  0  0  0  0
  187.0380  178.2320  145.7360 C   0  0  2  0  0  3  0  0  0  0  0  0
  188.1560  177.0800  143.2650 C   0  0  2  0  0  0  0  0  0  0  0  0
  189.3060  177.4210  146.5170 C   0  0  0  0  0  2  0  0  0  0  0  0
  186.8650  177.7530  148.1640 C   0  0  0  0  0  2  0  0  0  0  0  0
  186.6330  178.8040  147.0880 C   0  0  0  0  0  2  0  0  0  0  0  0
  188.5610  178.3050  145.5270 C   0  0  1  0  0  3  0  0  0  0  0  0
  182.3030  178.9860  143.0760 C   0  0  0  0  0  3  0  0  0  0  0  0
  184.5850  178.1840  142.8990 C   0  0  0  0  0  0  0  0  0  0  0  0
  184.3540  177.8460  141.5570 C   0  0  0  0  0  3  0  0  0  0  0  0
  183.1040  178.0830  140.9770 C   0  0  0  0  0  3  0  0  0  0  0  0
  182.0790  178.6530  141.7370 C   0  0  0  0  0  3  0  0  0  0  0  0
  183.5530  178.7490  143.6560 C   0  0  0  0  0  3  0  0  0  0  0  0
  187.4400  179.1370  141.7150 S   0  0  0  0  0  0  0  0  0  0  0  0
  189.0910  178.7120  139.5270 C   0  0  0  0  0  1  0  0  0  0  0  0
  187.7460  178.3150  140.1120 C   0  0  2  0  0  3  0  0  0  0  0  0
  186.6160  178.5890  139.1320 C   0  0  0  0  0  2  0  0  0  0  0  0
  185.5280  177.1700  137.3930 C   0  0  0  0  0  1  0  0  0  0  0  0
  186.8190  177.8390  137.8250 C   0  0  0  0  0  2  0  0  0  0  0  0
  2 11  1  0  0  0  0
  2  9  1  0  0  0  0
  4  6  1  1  0  0  0
  4 11  1  0  0  0  0
  4  8  1  0  0  0  0
  5  7  1  0  0  0  0
  9 17  1  6  0  0  0
  9  1  1  0  0  0  0
 10  1  1  6  0  0  0
 10 14  1  0  0  0  0
 11  8  1  1  0  0  0
 11  3  1  0  0  0  0
 12  5  1  0  0  0  0
 13  7  1  0  0  0  0
 14 13  1  0  0  0  0
 15  3  1  6  0  0  0
 15 10  1  0  0  0  0
 15 12  1  0  0  0  0
 16 21  1  0  0  0  0
 17 21  2  0  0  0  0
 18 17  1  0  0  0  0
 19 18  2  0  0  0  0
 19 20  1  0  0  0  0
 20 16  2  0  0  0  0
 22  2  1  0  0  0  0
 24 23  1  6  0  0  0
 24 22  1  0  0  0  0
 25 24  1  0  0  0  0
 26 27  1  0  0  0  0
 27 25  1  0  0  0  0
M  END
>  <MODEL>
1

>  <REMARK>
 VINA RESULT:      -6.3      0.000      0.000
  Name = 
  5 active torsions:
  status: ('A' for Active; 'I' for Inactive)
    1  A    between atoms: N_2  and  S_6
    2  A    between atoms: S_6  and  C_21
    3  A    between atoms: C_9  and  C_15
    4  A    between atoms: C_16  and  C_17
    5  A    between atoms: C_17  and  C_21
                            x       y       z     vdW  Elec       q    Type
                         _______ _______ _______ _____ _____    ______ ____

>  <TORSDO>
F 5

$$$$
=
 OpenBabel11052413513D

 27 30  0  0  1  0  0  0  0  0999 V2000
  187.7830  177.0860  141.9770 C   0  0  0  0  0  2  0  0  0  0  0  0
  188.6460  178.1020  144.1240 N   0  0  0  0  0  0  0  0  0  0  0  0
  190.6430  177.0590  142.8340 C   0  0  0  0  0  2  0  0  0  0  0  0
  190.9040  179.1400  144.4420 C   0  0  1  0  0  3  0  0  0  0  0  0
  191.3550  176.7690  139.1430 C   0  0  0  0  0  2  0  0  0  0  0  0
  192.3860  178.8390  144.2890 C   0  0  0  0  0  1  0  0  0  0  0  0
  190.4730  177.4260  138.0770 C   0  0  0  0  0  2  0  0  0  0  0  0
  190.3580  179.6400  143.1120 C   0  0  0  0  0  2  0  0  0  0  0  0
  187.6580  178.1870  143.0320 C   0  0  2  0  0  3  0  0  0  0  0  0
  188.8600  177.4880  140.9850 C   0  0  2  0  0  3  0  0  0  0  0  0
  190.0110  178.2430  143.5910 C   0  0  2  0  0  0  0  0  0  0  0  0
  191.3410  177.5030  140.4770 C   0  0  0  0  0  2  0  0  0  0  0  0
  189.1250  177.9670  138.5650 C   0  0  0  0  0  2  0  0  0  0  0  0
  188.4430  177.0630  139.5830 C   0  0  0  0  0  2  0  0  0  0  0  0
  190.2420  176.9240  141.3580 C   0  0  1  0  0  3  0  0  0  0  0  0
  183.8870  178.5490  143.0590 C   0  0  0  0  0  3  0  0  0  0  0  0
  186.2580  178.3730  143.5370 C   0  0  0  0  0  0  0  0  0  0  0  0
  185.9930  178.6060  144.8950 C   0  0  0  0  0  3  0  0  0  0  0  0
  184.6800  178.8050  145.3320 C   0  0  0  0  0  3  0  0  0  0  0  0
  183.6270  178.7760  144.4130 C   0  0  0  0  0  3  0  0  0  0  0  0
  185.2000  178.3520  142.6220 C   0  0  0  0  0  3  0  0  0  0  0  0
  188.4950  176.5540  145.0020 S   0  0  0  0  0  0  0  0  0  0  0  0
  190.6300  176.6530  146.7700 C   0  0  0  0  0  1  0  0  0  0  0  0
  189.2160  177.1690  146.5650 C   0  0  2  0  0  3  0  0  0  0  0  0
  188.3270  176.8270  147.7500 C   0  0  0  0  0  2  0  0  0  0  0  0
  187.2100  179.0290  148.1010 C   0  0  0  0  0  1  0  0  0  0  0  0
  188.1700  178.0120  148.6890 C   0  0  0  0  0  2  0  0  0  0  0  0
  1  9  1  0  0  0  0
  2 22  1  0  0  0  0
  4  6  1  6  0  0  0
  5 12  1  0  0  0  0
  7 13  1  0  0  0  0
  7  5  1  0  0  0  0
  8 11  1  0  0  0  0
  8  4  1  0  0  0  0
  9 17  1  1  0  0  0
  9  2  1  0  0  0  0
 10 14  1  6  0  0  0
 10 15  1  0  0  0  0
 10  1  1  0  0  0  0
 11  3  1  6  0  0  0
 11  2  1  0  0  0  0
 11  4  1  0  0  0  0
 13 14  1  0  0  0  0
 15 12  1  6  0  0  0
 15  3  1  0  0  0  0
 16 20  1  0  0  0  0
 17 18  2  0  0  0  0
 18 19  1  0  0  0  0
 20 19  2  0  0  0  0
 21 16  2  0  0  0  0
 21 17  1  0  0  0  0
 22 24  1  0  0  0  0
 24 23  1  1  0  0  0
 24 25  1  0  0  0  0
 25 27  1  0  0  0  0
 26 27  1  0  0  0  0
M  END
>  <MODEL>
2

>  <REMARK>
 VINA RESULT:      -6.1      1.885      6.203
  Name = 
  5 active torsions:
  status: ('A' for Active; 'I' for Inactive)
    1  A    between atoms: N_2  and  S_6
    2  A    between atoms: S_6  and  C_21
    3  A    between atoms: C_9  and  C_15
    4  A    between atoms: C_16  and  C_17
    5  A    between atoms: C_17  and  C_21
                            x       y       z     vdW  Elec       q    Type
                         _______ _______ _______ _____ _____    ______ ____

>  <TORSDO>
F 5

$$$$
=
 OpenBabel11052413513D

 27 30  0  0  1  0  0  0  0  0999 V2000
  184.5510  178.6790  139.7200 C   0  0  0  0  0  2  0  0  0  0  0  0
  182.3200  177.8680  140.5870 N   0  0  0  0  0  0  0  0  0  0  0  0
  182.2400  177.9100  137.9930 C   0  0  0  0  0  2  0  0  0  0  0  0
  180.8240  176.2140  139.4450 C   0  0  1  0  0  3  0  0  0  0  0  0
  184.8890  177.2240  135.4010 C   0  0  0  0  0  2  0  0  0  0  0  0
  180.1130  175.9650  138.1250 C   0  0  0  0  0  1  0  0  0  0  0  0
  186.2850  176.7070  135.7620 C   0  0  0  0  0  2  0  0  0  0  0  0
  182.2460  175.6790  139.3520 C   0  0  0  0  0  2  0  0  0  0  0  0
  183.7790  177.9100  140.7950 C   0  0  2  0  0  3  0  0  0  0  0  0
  184.7820  177.7540  138.5370 C   0  0  2  0  0  3  0  0  0  0  0  0
  182.0020  177.1760  139.3280 C   0  0  2  0  0  0  0  0  0  0  0  0
  183.8150  176.8090  136.3960 C   0  0  0  0  0  2  0  0  0  0  0  0
  186.6520  176.7560  137.2490 C   0  0  0  0  0  2  0  0  0  0  0  0
  186.1630  178.0150  137.9520 C   0  0  0  0  0  2  0  0  0  0  0  0
  183.6820  177.8830  137.4680 C   0  0  1  0  0  3  0  0  0  0  0  0
  185.8670  178.5850  143.8840 C   0  0  0  0  0  3  0  0  0  0  0  0
  184.1500  178.3060  142.1930 C   0  0  0  0  0  0  0  0  0  0  0  0
  183.1780  178.6930  143.1280 C   0  0  0  0  0  3  0  0  0  0  0  0
  183.5510  179.0290  144.4330 C   0  0  0  0  0  3  0  0  0  0  0  0
  184.8960  178.9760  144.8100 C   0  0  0  0  0  3  0  0  0  0  0  0
  185.4940  178.2480  142.5790 C   0  0  0  0  0  3  0  0  0  0  0  0
  181.6300  179.5160  140.5660 S   0  0  0  0  0  0  0  0  0  0  0  0
  178.9310  178.8800  140.6110 C   0  0  0  0  0  1  0  0  0  0  0  0
  180.1310  179.0900  141.5200 C   0  0  2  0  0  3  0  0  0  0  0  0
  179.8420  180.1380  142.5830 C   0  0  0  0  0  2  0  0  0  0  0  0
  179.7720  178.3110  144.2780 C   0  0  0  0  0  1  0  0  0  0  0  0
  179.0690  179.5480  143.7510 C   0  0  0  0  0  2  0  0  0  0  0  0
  1  9  1  0  0  0  0
  2  9  1  0  0  0  0
  4  6  1  6  0  0  0
  5  7  1  0  0  0  0
  5 12  1  0  0  0  0
  7 13  1  0  0  0  0
  8  4  1  0  0  0  0
  9 17  1  1  0  0  0
 10 14  1  6  0  0  0
 10  1  1  0  0  0  0
 11  3  1  6  0  0  0
 11  8  1  0  0  0  0
 11  4  1  0  0  0  0
 11  2  1  0  0  0  0
 13 14  1  0  0  0  0
 15 12  1  6  0  0  0
 15  3  1  0  0  0  0
 15 10  1  0  0  0  0
 16 20  1  0  0  0  0
 17 21  1  0  0  0  0
 17 18  2  0  0  0  0
 18 19  1  0  0  0  0
 19 20  2  0  0  0  0
 21 16  2  0  0  0  0
 22  2  1  0  0  0  0
 22 24  1  0  0  0  0
 24 23  1  6  0  0  0
 24 25  1  0  0  0  0
 25 27  1  0  0  0  0
 27 26  1  0  0  0  0
M  END
>  <MODEL>
3

>  <REMARK>
 VINA RESULT:      -6.1      3.248      8.126
  Name = 
  5 active torsions:
  status: ('A' for Active; 'I' for Inactive)
    1  A    between atoms: N_2  and  S_6
    2  A    between atoms: S_6  and  C_21
    3  A    between atoms: C_9  and  C_15
    4  A    between atoms: C_16  and  C_17
    5  A    between atoms: C_17  and  C_21
                            x       y       z     vdW  Elec       q    Type
                         _______ _______ _______ _____ _____    ______ ____

>  <TORSDO>
F 5

$$$$
=
 OpenBabel11052413513D

 27 30  0  0  1  0  0  0  0  0999 V2000
  186.9320  178.8560  141.1540 C   0  0  0  0  0  2  0  0  0  0  0  0
  188.6370  177.7930  142.6890 N   0  0  0  0  0  0  0  0  0  0  0  0
  186.7920  178.9070  144.1360 C   0  0  0  0  0  2  0  0  0  0  0  0
  188.1530  176.7850  144.9310 C   0  0  1  0  0  3  0  0  0  0  0  0
  183.0860  179.3150  143.5780 C   0  0  0  0  0  2  0  0  0  0  0  0
  187.5260  177.1160  146.2760 C   0  0  0  0  0  1  0  0  0  0  0  0
  182.3520  178.6730  142.3970 C   0  0  0  0  0  2  0  0  0  0  0  0
  187.0640  176.3140  143.9770 C   0  0  0  0  0  2  0  0  0  0  0  0
  187.9330  177.7220  141.3950 C   0  0  2  0  0  3  0  0  0  0  0  0
  185.6260  178.5000  141.8430 C   0  0  2  0  0  3  0  0  0  0  0  0
  187.6760  177.6910  143.7990 C   0  0  2  0  0  0  0  0  0  0  0  0
  184.3230  178.5420  144.0140 C   0  0  0  0  0  2  0  0  0  0  0  0
  183.2420  178.0950  141.2910 C   0  0  0  0  0  2  0  0  0  0  0  0
  184.4570  178.9570  140.9810 C   0  0  0  0  0  2  0  0  0  0  0  0
  185.5370  179.0770  143.2660 C   0  0  1  0  0  3  0  0  0  0  0  0
  189.4530  177.9360  137.9310 C   0  0  0  0  0  3  0  0  0  0  0  0
  188.8680  177.4980  140.2440 C   0  0  0  0  0  0  0  0  0  0  0  0
  189.9620  176.6250  140.3460 C   0  0  0  0  0  3  0  0  0  0  0  0
  190.7990  176.4150  139.2470 C   0  0  0  0  0  3  0  0  0  0  0  0
  190.5450  177.0700  138.0400 C   0  0  0  0  0  3  0  0  0  0  0  0
  188.6150  178.1470  139.0290 C   0  0  0  0  0  3  0  0  0  0  0  0
  189.5660  179.3130  142.8280 S   0  0  0  0  0  0  0  0  0  0  0  0
  191.8150  179.6970  144.4040 C   0  0  0  0  0  1  0  0  0  0  0  0
  190.8830  178.6150  143.8850 C   0  0  2  0  0  3  0  0  0  0  0  0
  191.6540  177.5280  143.1520 C   0  0  0  0  0  2  0  0  0  0  0  0
  191.6890  176.3600  145.3550 C   0  0  0  0  0  1  0  0  0  0  0  0
  191.5290  176.1870  143.8570 C   0  0  0  0  0  2  0  0  0  0  0  0
  1  9  1  0  0  0  0
  1 10  1  0  0  0  0
  2 22  1  0  0  0  0
  2 11  1  0  0  0  0
  4  6  1  1  0  0  0
  5 12  1  0  0  0  0
  7  5  1  0  0  0  0
  8  4  1  0  0  0  0
  9 17  1  6  0  0  0
  9  2  1  0  0  0  0
 10 14  1  6  0  0  0
 10 15  1  0  0  0  0
 11  8  1  6  0  0  0
 11  3  1  0  0  0  0
 11  4  1  0  0  0  0
 13  7  1  0  0  0  0
 14 13  1  0  0  0  0
 15 12  1  1  0  0  0
 15  3  1  0  0  0  0
 16 20  2  0  0  0  0
 16 21  1  0  0  0  0
 17 18  1  0  0  0  0
 19 18  2  0  0  0  0
 20 19  1  0  0  0  0
 21 17  2  0  0  0  0
 22 24  1  0  0  0  0
 24 23  1  6  0  0  0
 25 27  1  0  0  0  0
 25 24  1  0  0  0  0
 27 26  1  0  0  0  0
M  END
>  <MODEL>
4

>  <REMARK>
 VINA RESULT:      -6.1      1.772      5.998
  Name = 
  5 active torsions:
  status: ('A' for Active; 'I' for Inactive)
    1  A    between atoms: N_2  and  S_6
    2  A    between atoms: S_6  and  C_21
    3  A    between atoms: C_9  and  C_15
    4  A    between atoms: C_16  and  C_17
    5  A    between atoms: C_17  and  C_21
                            x       y       z     vdW  Elec       q    Type
                         _______ _______ _______ _____ _____    ______ ____

>  <TORSDO>
F 5

$$$$
=
 OpenBabel11052413513D

 27 30  0  0  1  0  0  0  0  0999 V2000
  186.8050  178.9300  144.0200 C   0  0  0  0  0  2  0  0  0  0  0  0
  187.8640  177.5290  142.2020 N   0  0  0  0  0  0  0  0  0  0  0  0
  189.5580  177.7810  144.1530 C   0  0  0  0  0  2  0  0  0  0  0  0
  189.5070  175.6710  142.5610 C   0  0  1  0  0  3  0  0  0  0  0  0
  189.0590  177.9900  147.8840 C   0  0  0  0  0  2  0  0  0  0  0  0
  190.8470  175.3760  143.2150 C   0  0  0  0  0  1  0  0  0  0  0  0
  187.6910  177.7960  148.5460 C   0  0  0  0  0  2  0  0  0  0  0  0
  188.4020  175.5070  143.5950 C   0  0  0  0  0  2  0  0  0  0  0  0
  186.6200  177.9040  142.8990 C   0  0  2  0  0  3  0  0  0  0  0  0
  187.2450  178.1970  145.2760 C   0  0  2  0  0  3  0  0  0  0  0  0
  188.8050  176.8960  143.1400 C   0  0  2  0  0  0  0  0  0  0  0  0
  189.2030  177.2410  146.5660 C   0  0  0  0  0  2  0  0  0  0  0  0
  186.4840  177.7990  147.6030 C   0  0  0  0  0  2  0  0  0  0  0  0
  186.5870  178.8350  146.4920 C   0  0  0  0  0  2  0  0  0  0  0  0
  188.7770  178.1510  145.4220 C   0  0  1  0  0  3  0  0  0  0  0  0
  184.8270  178.9790  139.7390 C   0  0  0  0  0  3  0  0  0  0  0  0
  185.5120  178.2510  141.9500 C   0  0  0  0  0  0  0  0  0  0  0  0
  184.1690  178.2500  142.3560 C   0  0  0  0  0  3  0  0  0  0  0  0
  183.1610  178.6070  141.4560 C   0  0  0  0  0  3  0  0  0  0  0  0
  183.4900  178.9700  140.1480 C   0  0  0  0  0  3  0  0  0  0  0  0
  185.8350  178.6230  140.6390 C   0  0  0  0  0  3  0  0  0  0  0  0
  188.6280  178.9570  141.4470 S   0  0  0  0  0  0  0  0  0  0  0  0
  190.5460  177.5220  140.0480 C   0  0  0  0  0  1  0  0  0  0  0  0
  189.1430  178.0920  139.9210 C   0  0  2  0  0  3  0  0  0  0  0  0
  189.0250  179.0030  138.7090 C   0  0  0  0  0  2  0  0  0  0  0  0
  187.4520  177.7740  137.2150 C   0  0  0  0  0  1  0  0  0  0  0  0
  188.8920  178.2040  137.4230 C   0  0  0  0  0  2  0  0  0  0  0  0
  2  9  1  0  0  0  0
  2 11  1  0  0  0  0
  4 11  1  0  0  0  0
  4  6  1  1  0  0  0
  4  8  1  0  0  0  0
  5  7  1  0  0  0  0
  9 17  1  6  0  0  0
  9  1  1  0  0  0  0
 10  1  1  6  0  0  0
 10 15  1  0  0  0  0
 10 14  1  0  0  0  0
 11  8  1  1  0  0  0
 11  3  1  0  0  0  0
 12  5  1  0  0  0  0
 13  7  1  0  0  0  0
 14 13  1  0  0  0  0
 15  3  1  6  0  0  0
 15 12  1  0  0  0  0
 16 20  2  0  0  0  0
 16 21  1  0  0  0  0
 17 18  1  0  0  0  0
 19 18  2  0  0  0  0
 20 19  1  0  0  0  0
 21 17  2  0  0  0  0
 22  2  1  0  0  0  0
 24 23  1  1  0  0  0
 24 22  1  0  0  0  0
 25 24  1  0  0  0  0
 26 27  1  0  0  0  0
 27 25  1  0  0  0  0
M  END
>  <MODEL>
5

>  <REMARK>
 VINA RESULT:      -5.6      1.043      1.590
  Name = 
  5 active torsions:
  status: ('A' for Active; 'I' for Inactive)
    1  A    between atoms: N_2  and  S_6
    2  A    between atoms: S_6  and  C_21
    3  A    between atoms: C_9  and  C_15
    4  A    between atoms: C_16  and  C_17
    5  A    between atoms: C_17  and  C_21
                            x       y       z     vdW  Elec       q    Type
                         _______ _______ _______ _____ _____    ______ ____

>  <TORSDO>
F 5

$$$$
=
 OpenBabel11052413513D

 27 30  0  0  1  0  0  0  0  0999 V2000
  191.8130  176.6400  138.2220 C   0  0  0  0  0  2  0  0  0  0  0  0
  189.3830  176.2470  137.6480 N   0  0  0  0  0  0  0  0  0  0  0  0
  190.8370  175.6070  135.5960 C   0  0  0  0  0  2  0  0  0  0  0  0
  188.5140  174.4610  136.1220 C   0  0  1  0  0  3  0  0  0  0  0  0
  194.2720  174.0740  135.3490 C   0  0  0  0  0  2  0  0  0  0  0  0
  188.6700  173.9220  134.7090 C   0  0  0  0  0  1  0  0  0  0  0  0
  195.0440  173.5740  136.5740 C   0  0  0  0  0  2  0  0  0  0  0  0
  189.5670  173.8210  137.0160 C   0  0  0  0  0  2  0  0  0  0  0  0
  190.4160  176.2390  138.7010 C   0  0  2  0  0  3  0  0  0  0  0  0
  192.4800  175.4210  137.6080 C   0  0  2  0  0  3  0  0  0  0  0  0
  189.7150  175.2720  136.5980 C   0  0  2  0  0  0  0  0  0  0  0  0
  192.7610  174.0150  135.5210 C   0  0  0  0  0  2  0  0  0  0  0  0
  194.4780  173.9880  137.9360 C   0  0  0  0  0  2  0  0  0  0  0  0
  193.9600  175.4190  137.9660 C   0  0  0  0  0  2  0  0  0  0  0  0
  192.2680  175.3400  136.0860 C   0  0  1  0  0  3  0  0  0  0  0  0
  190.4880  177.7190  142.1880 C   0  0  0  0  0  3  0  0  0  0  0  0
  189.9790  176.9640  139.9400 C   0  0  0  0  0  0  0  0  0  0  0  0
  188.6870  177.4970  140.0620 C   0  0  0  0  0  3  0  0  0  0  0  0
  188.3000  178.1420  141.2400 C   0  0  0  0  0  3  0  0  0  0  0  0
  189.2010  178.2530  142.3030 C   0  0  0  0  0  3  0  0  0  0  0  0
  190.8750  177.0740  141.0100 C   0  0  0  0  0  3  0  0  0  0  0  0
  189.2130  177.8760  136.9330 S   0  0  0  0  0  0  0  0  0  0  0  0
  187.2310  177.8780  134.9920 C   0  0  0  0  0  1  0  0  0  0  0  0
  187.4520  177.6860  136.4830 C   0  0  2  0  0  3  0  0  0  0  0  0
  186.5760  178.6250  137.2970 C   0  0  0  0  0  2  0  0  0  0  0  0
  184.9610  178.6310  139.1970 C   0  0  0  0  0  1  0  0  0  0  0  0
  185.4340  177.8790  137.9680 C   0  0  0  0  0  2  0  0  0  0  0  0
  1  9  1  0  0  0  0
  2  9  1  0  0  0  0
  3 15  1  0  0  0  0
  4  6  1  6  0  0  0
  4 11  1  0  0  0  0
  4  8  1  0  0  0  0
  5 12  1  0  0  0  0
  5  7  1  0  0  0  0
  7 13  1  0  0  0  0
  9 17  1  1  0  0  0
 10 14  1  6  0  0  0
 10  1  1  0  0  0  0
 11  3  1  6  0  0  0
 11  8  1  0  0  0  0
 11  2  1  0  0  0  0
 13 14  1  0  0  0  0
 15 12  1  1  0  0  0
 15 10  1  0  0  0  0
 16 20  1  0  0  0  0
 17 18  2  0  0  0  0
 17 21  1  0  0  0  0
 18 19  1  0  0  0  0
 19 20  2  0  0  0  0
 21 16  2  0  0  0  0
 22  2  1  0  0  0  0
 24 23  1  6  0  0  0
 24 22  1  0  0  0  0
 24 25  1  0  0  0  0
 25 27  1  0  0  0  0
 27 26  1  0  0  0  0
M  END
>  <MODEL>
6

>  <REMARK>
 VINA RESULT:      -5.5      4.529      8.383
  Name = 
  5 active torsions:
  status: ('A' for Active; 'I' for Inactive)
    1  A    between atoms: N_2  and  S_6
    2  A    between atoms: S_6  and  C_21
    3  A    between atoms: C_9  and  C_15
    4  A    between atoms: C_16  and  C_17
    5  A    between atoms: C_17  and  C_21
                            x       y       z     vdW  Elec       q    Type
                         _______ _______ _______ _____ _____    ______ ____

>  <TORSDO>
F 5

$$$$
=
 OpenBabel11052413513D

 27 30  0  0  1  0  0  0  0  0999 V2000
  191.6180  177.1910  138.8150 C   0  0  0  0  0  2  0  0  0  0  0  0
  189.1460  176.6880  138.9720 N   0  0  0  0  0  0  0  0  0  0  0  0
  189.8000  176.8770  136.4670 C   0  0  0  0  0  2  0  0  0  0  0  0
  187.8210  175.3460  137.3220 C   0  0  1  0  0  3  0  0  0  0  0  0
  192.9520  175.9280  134.6300 C   0  0  0  0  0  2  0  0  0  0  0  0
  187.4810  175.2780  135.8420 C   0  0  0  0  0  1  0  0  0  0  0  0
  194.1090  175.1840  135.3040 C   0  0  0  0  0  2  0  0  0  0  0  0
  189.1290  174.6050  137.5660 C   0  0  0  0  0  2  0  0  0  0  0  0
  190.4810  176.4940  139.5670 C   0  0  2  0  0  3  0  0  0  0  0  0
  192.0440  176.3040  137.6580 C   0  0  2  0  0  3  0  0  0  0  0  0
  189.1030  176.1200  137.6150 C   0  0  2  0  0  0  0  0  0  0  0  0
  191.5970  175.6320  135.2570 C   0  0  0  0  0  2  0  0  0  0  0  0
  194.0490  175.0980  136.8330 C   0  0  0  0  0  2  0  0  0  0  0  0
  193.5560  176.3790  137.4920 C   0  0  0  0  0  2  0  0  0  0  0  0
  191.3150  176.6560  136.3490 C   0  0  1  0  0  3  0  0  0  0  0  0
  191.6780  177.5900  142.9910 C   0  0  0  0  0  3  0  0  0  0  0  0
  190.4960  176.7550  141.0440 C   0  0  0  0  0  0  0  0  0  0  0  0
  189.4260  176.3740  141.8680 C   0  0  0  0  0  3  0  0  0  0  0  0
  189.4810  176.6050  143.2450 C   0  0  0  0  0  3  0  0  0  0  0  0
  190.6070  177.2130  143.8060 C   0  0  0  0  0  3  0  0  0  0  0  0
  191.6240  177.3590  141.6140 C   0  0  0  0  0  3  0  0  0  0  0  0
  188.7160  178.4220  138.9190 S   0  0  0  0  0  0  0  0  0  0  0  0
  185.9510  178.6240  138.8600 C   0  0  0  0  0  1  0  0  0  0  0  0
  187.1070  178.2280  139.7630 C   0  0  2  0  0  3  0  0  0  0  0  0
  187.0780  179.0060  141.0700 C   0  0  0  0  0  2  0  0  0  0  0  0
  185.9550  178.0860  143.0980 C   0  0  0  0  0  1  0  0  0  0  0  0
  185.7510  178.8300  141.7910 C   0  0  0  0  0  2  0  0  0  0  0  0
  1  9  1  0  0  0  0
  2  9  1  0  0  0  0
  4  6  1  6  0  0  0
  4  8  1  0  0  0  0
  4 11  1  0  0  0  0
  5 12  1  0  0  0  0
  5  7  1  0  0  0  0
  7 13  1  0  0  0  0
  8 11  1  0  0  0  0
  9 17  1  1  0  0  0
 10 14  1  6  0  0  0
 10  1  1  0  0  0  0
 11  3  1  6  0  0  0
 11  2  1  0  0  0  0
 13 14  1  0  0  0  0
 15 12  1  6  0  0  0
 15  3  1  0  0  0  0
 15 10  1  0  0  0  0
 16 20  1  0  0  0  0
 17 21  1  0  0  0  0
 17 18  2  0  0  0  0
 18 19  1  0  0  0  0
 19 20  2  0  0  0  0
 21 16  2  0  0  0  0
 22  2  1  0  0  0  0
 22 24  1  0  0  0  0
 24 23  1  6  0  0  0
 24 25  1  0  0  0  0
 25 27  1  0  0  0  0
 27 26  1  0  0  0  0
M  END
>  <MODEL>
7

>  <REMARK>
 VINA RESULT:      -5.5      3.717      8.274
  Name = 
  5 active torsions:
  status: ('A' for Active; 'I' for Inactive)
    1  A    between atoms: N_2  and  S_6
    2  A    between atoms: S_6  and  C_21
    3  A    between atoms: C_9  and  C_15
    4  A    between atoms: C_16  and  C_17
    5  A    between atoms: C_17  and  C_21
                            x       y       z     vdW  Elec       q    Type
                         _______ _______ _______ _____ _____    ______ ____

>  <TORSDO>
F 5

$$$$
=
 OpenBabel11052413513D

 27 30  0  0  1  0  0  0  0  0999 V2000
  184.9140  178.6950  139.3410 C   0  0  0  0  0  2  0  0  0  0  0  0
  182.5440  177.9140  139.7420 N   0  0  0  0  0  0  0  0  0  0  0  0
  183.0470  177.7810  137.1980 C   0  0  0  0  0  2  0  0  0  0  0  0
  181.3380  176.1680  138.4100 C   0  0  1  0  0  3  0  0  0  0  0  0
  186.2080  176.9570  135.3170 C   0  0  0  0  0  2  0  0  0  0  0  0
  180.9400  175.8210  136.9850 C   0  0  0  0  0  1  0  0  0  0  0  0
  187.4860  176.4850  136.0160 C   0  0  0  0  0  2  0  0  0  0  0  0
  182.7440  175.6470  138.6740 C   0  0  0  0  0  2  0  0  0  0  0  0
  183.9200  177.9900  140.2660 C   0  0  2  0  0  3  0  0  0  0  0  0
  185.4020  177.6960  138.3060 C   0  0  2  0  0  3  0  0  0  0  0  0
  182.5140  177.1350  138.4930 C   0  0  2  0  0  0  0  0  0  0  0  0
  184.9370  176.5960  136.0730 C   0  0  0  0  0  2  0  0  0  0  0  0
  187.5110  176.6380  137.5400 C   0  0  0  0  0  2  0  0  0  0  0  0
  186.8800  177.9350  138.0280 C   0  0  0  0  0  2  0  0  0  0  0  0
  184.5700  177.7370  137.0120 C   0  0  1  0  0  3  0  0  0  0  0  0
  182.7980  178.9710  143.7500 C   0  0  0  0  0  3  0  0  0  0  0  0
  183.9690  178.4840  141.6820 C   0  0  0  0  0  0  0  0  0  0  0  0
  185.1560  178.9730  142.2480 C   0  0  0  0  0  3  0  0  0  0  0  0
  185.1630  179.4540  143.5610 C   0  0  0  0  0  3  0  0  0  0  0  0
  183.9850  179.4520  144.3110 C   0  0  0  0  0  3  0  0  0  0  0  0
  182.7900  178.4910  142.4370 C   0  0  0  0  0  3  0  0  0  0  0  0
  181.8800  179.5480  139.4540 S   0  0  0  0  0  0  0  0  0  0  0  0
  179.3240  179.4060  138.3860 C   0  0  0  0  0  1  0  0  0  0  0  0
  180.1280  179.0570  139.6270 C   0  0  2  0  0  3  0  0  0  0  0  0
  179.5100  179.6680  140.8750 C   0  0  0  0  0  2  0  0  0  0  0  0
  179.3730  177.2220  141.3420 C   0  0  0  0  0  1  0  0  0  0  0  0
  179.2360  178.6120  141.9340 C   0  0  0  0  0  2  0  0  0  0  0  0
  1  9  1  0  0  0  0
  2  9  1  0  0  0  0
  4  6  1  6  0  0  0
  4 11  1  0  0  0  0
  4  8  1  0  0  0  0
  5  7  1  0  0  0  0
  5 12  1  0  0  0  0
  7 13  1  0  0  0  0
  9 17  1  1  0  0  0
 10 14  1  6  0  0  0
 10  1  1  0  0  0  0
 11  3  1  6  0  0  0
 11  8  1  0  0  0  0
 11  2  1  0  0  0  0
 13 14  1  0  0  0  0
 15 12  1  6  0  0  0
 15  3  1  0  0  0  0
 15 10  1  0  0  0  0
 16 20  1  0  0  0  0
 17 18  2  0  0  0  0
 17 21  1  0  0  0  0
 18 19  1  0  0  0  0
 19 20  2  0  0  0  0
 21 16  2  0  0  0  0
 22 24  1  0  0  0  0
 22  2  1  0  0  0  0
 24 23  1  6  0  0  0
 24 25  1  0  0  0  0
 25 27  1  0  0  0  0
 26 27  1  0  0  0  0
M  END
>  <MODEL>
8

>  <REMARK>
 VINA RESULT:      -5.5      3.740      7.869
  Name = 
  5 active torsions:
  status: ('A' for Active; 'I' for Inactive)
    1  A    between atoms: N_2  and  S_6
    2  A    between atoms: S_6  and  C_21
    3  A    between atoms: C_9  and  C_15
    4  A    between atoms: C_16  and  C_17
    5  A    between atoms: C_17  and  C_21
                            x       y       z     vdW  Elec       q    Type
                         _______ _______ _______ _____ _____    ______ ____

>  <TORSDO>
F 5

$$$$
=
 OpenBabel11052413513D

 27 30  0  0  1  0  0  0  0  0999 V2000
  185.2560  177.7530  140.4150 C   0  0  0  0  0  2  0  0  0  0  0  0
  184.1290  178.2730  138.2130 N   0  0  0  0  0  0  0  0  0  0  0  0
  182.3010  177.9120  140.0190 C   0  0  0  0  0  2  0  0  0  0  0  0
  181.9650  179.5040  137.9360 C   0  0  1  0  0  3  0  0  0  0  0  0
  182.2310  178.7240  143.7000 C   0  0  0  0  0  2  0  0  0  0  0  0
  180.5110  179.4720  138.3800 C   0  0  0  0  0  1  0  0  0  0  0  0
  183.3490  179.5080  144.3950 C   0  0  0  0  0  2  0  0  0  0  0  0
  182.7850  180.2560  138.9740 C   0  0  0  0  0  2  0  0  0  0  0  0
  185.2990  178.5030  139.0810 C   0  0  2  0  0  3  0  0  0  0  0  0
  184.4170  178.5580  141.3930 C   0  0  2  0  0  3  0  0  0  0  0  0
  182.9020  178.7470  138.8720 C   0  0  2  0  0  0  0  0  0  0  0  0
  182.0800  179.0660  142.2240 C   0  0  0  0  0  2  0  0  0  0  0  0
  184.6360  179.6980  143.5850 C   0  0  0  0  0  2  0  0  0  0  0  0
  185.0330  178.4670  142.7830 C   0  0  0  0  0  2  0  0  0  0  0  0
  182.9420  178.1200  141.3990 C   0  0  1  0  0  3  0  0  0  0  0  0
  188.9300  177.6750  138.3840 C   0  0  0  0  0  3  0  0  0  0  0  0
  186.5990  178.3430  138.3490 C   0  0  0  0  0  0  0  0  0  0  0  0
  186.7440  178.7490  137.0140 C   0  0  0  0  0  3  0  0  0  0  0  0
  187.9750  178.6130  136.3670 C   0  0  0  0  0  3  0  0  0  0  0  0
  189.0680  178.0760  137.0520 C   0  0  0  0  0  3  0  0  0  0  0  0
  187.6990  177.8110  139.0310 C   0  0  0  0  0  3  0  0  0  0  0  0
  183.9680  176.5410  137.8030 S   0  0  0  0  0  0  0  0  0  0  0  0
  182.6900  176.5910  135.3430 C   0  0  0  0  0  1  0  0  0  0  0  0
  184.0490  176.7820  135.9940 C   0  0  2  0  0  3  0  0  0  0  0  0
  185.0940  175.8720  135.3670 C   0  0  0  0  0  2  0  0  0  0  0  0
  187.3380  174.9410  135.9290 C   0  0  0  0  0  1  0  0  0  0  0  0
  185.9230  175.1640  136.4260 C   0  0  0  0  0  2  0  0  0  0  0  0
  2 11  1  0  0  0  0
  2  9  1  0  0  0  0
  4  6  1  1  0  0  0
  4 11  1  0  0  0  0
  4  8  1  0  0  0  0
  5  7  1  0  0  0  0
  9 17  1  6  0  0  0
  9  1  1  0  0  0  0
 10  1  1  6  0  0  0
 10 15  1  0  0  0  0
 10 14  1  0  0  0  0
 11  8  1  1  0  0  0
 11  3  1  0  0  0  0
 12  5  1  0  0  0  0
 13  7  1  0  0  0  0
 14 13  1  0  0  0  0
 15  3  1  6  0  0  0
 15 12  1  0  0  0  0
 16 21  1  0  0  0  0
 17 21  2  0  0  0  0
 18 17  1  0  0  0  0
 19 18  2  0  0  0  0
 19 20  1  0  0  0  0
 20 16  2  0  0  0  0
 22  2  1  0  0  0  0
 24 23  1  6  0  0  0
 24 22  1  0  0  0  0
 25 24  1  0  0  0  0
 25 27  1  0  0  0  0
 26 27  1  0  0  0  0
M  END
>  <MODEL>
9

>  <REMARK>
 VINA RESULT:      -5.4      3.696      6.735
  Name = 
  5 active torsions:
  status: ('A' for Active; 'I' for Inactive)
    1  A    between atoms: N_2  and  S_6
    2  A    between atoms: S_6  and  C_21
    3  A    between atoms: C_9  and  C_15
    4  A    between atoms: C_16  and  C_17
    5  A    between atoms: C_17  and  C_21
                            x       y       z     vdW  Elec       q    Type
                         _______ _______ _______ _____ _____    ______ ____

>  <TORSDO>
F 5

$$$$
