=
 OpenBabel11052413273D

 28 32  0  0  1  0  0  0  0  0999 V2000
  187.2540  177.6500  144.9850 C   0  0  1  0  0  0  0  0  0  0  0  0
  185.4730  179.4860  147.5130 O   0  0  0  0  0  0  0  0  0  0  0  0
  184.3020  178.4060  142.6400 C   0  0  0  0  0  0  0  0  0  0  0  0
  185.2250  178.8530  145.2170 C   0  0  0  0  0  0  0  0  0  0  0  0
  185.5460  177.8780  143.0420 C   0  0  0  0  0  3  0  0  0  0  0  0
  187.2610  178.2500  146.4000 C   0  0  1  0  0  3  0  0  0  0  0  0
  183.9890  179.3870  144.8560 C   0  0  0  0  0  3  0  0  0  0  0  0
  185.9220  178.9220  146.4800 C   0  0  0  0  0  0  0  0  0  0  0  0
  183.5310  179.1590  143.5490 C   0  0  0  0  0  3  0  0  0  0  0  0
  187.1300  176.7440  146.1930 C   0  0  0  0  0  2  0  0  0  0  0  0
  185.9860  178.1240  144.3420 C   0  0  0  0  0  0  0  0  0  0  0  0
  182.2880  178.3400  141.2390 C   0  0  0  0  0  3  0  0  0  0  0  0
  183.9510  179.0060  138.8040 C   0  0  0  0  0  2  0  0  0  0  0  0
  181.9630  177.5390  138.8950 C   0  0  0  0  0  0  0  0  0  0  0  0
  183.7840  178.1850  141.2520 C   0  0  1  0  0  3  0  0  0  0  0  0
  186.2510  178.6370  140.1610 Cl  0  0  0  0  0  0  0  0  0  0  0  0
  183.3930  177.6300  138.4620 C   0  0  0  0  0  2  0  0  0  0  0  0
  184.5210  179.0710  140.2250 C   0  0  1  0  0  3  0  0  0  0  0  0
  181.1200  177.0560  138.0950 O   0  0  0  0  0  0  0  0  0  0  0  0
  181.4980  178.0200  140.2100 C   0  0  0  0  0  3  0  0  0  0  0  0
  188.6130  177.7460  144.2870 C   0  0  1  0  0  3  0  0  0  0  0  0
  189.6660  178.1680  145.2830 C   0  0  0  0  0  3  0  0  0  0  0  0
  190.4070  176.1260  143.5010 N   0  0  0  0  0  0  0  0  0  0  0  0
  190.9600  177.8670  145.1120 C   0  0  0  0  0  3  0  0  0  0  0  0
  188.1520  175.7340  143.0370 O   0  0  0  0  0  0  0  0  0  0  0  0
  189.0170  176.4670  143.5890 C   0  0  0  0  0  0  0  0  0  0  0  0
  190.7910  175.0000  142.8530 O   0  0  0  0  0  1  0  0  0  0  0  0
  191.4210  177.0950  143.9070 C   0  0  0  0  0  2  0  0  0  0  0  0
  1 10  1  1  0  0  0
  1  6  1  0  0  0  0
  3  5  2  0  0  0  0
  3  9  1  0  0  0  0
  4  8  1  0  0  0  0
  5 11  1  0  0  0  0
  6 10  1  1  0  0  0
  6  8  1  0  0  0  0
  7  4  1  0  0  0  0
  8  2  2  0  0  0  0
  9  7  2  0  0  0  0
 11  1  1  0  0  0  0
 11  4  2  0  0  0  0
 12 15  1  0  0  0  0
 13 18  1  0  0  0  0
 14 20  1  0  0  0  0
 15  3  1  1  0  0  0
 17 13  1  0  0  0  0
 17 14  1  0  0  0  0
 18 16  1  6  0  0  0
 18 15  1  0  0  0  0
 19 14  2  0  0  0  0
 20 12  2  0  0  0  0
 21  1  1  0  0  0  0
 21 22  1  1  0  0  0
 23 26  1  0  0  0  0
 23 28  1  0  0  0  0
 24 22  2  0  0  0  0
 25 26  2  0  0  0  0
 26 21  1  0  0  0  0
 27 23  1  0  0  0  0
 28 24  1  0  0  0  0
M  END
>  <MODEL>
1

>  <REMARK>
 VINA RESULT:     -10.3      0.000      0.000
  Name = 
  2 active torsions:
  status: ('A' for Active; 'I' for Inactive)
    1  A    between atoms: C_1  and  C_2
    2  A    between atoms: C_10  and  C_13
                            x       y       z     vdW  Elec       q    Type
                         _______ _______ _______ _____ _____    ______ ____

>  <TORSDO>
F 2

$$$$
=
 OpenBabel11052413273D

 28 32  0  0  1  0  0  0  0  0999 V2000
  188.4390  177.5950  145.2580 C   0  0  1  0  0  0  0  0  0  0  0  0
  187.7870  178.5360  148.6670 O   0  0  0  0  0  0  0  0  0  0  0  0
  184.7470  178.3950  144.5410 C   0  0  0  0  0  0  0  0  0  0  0  0
  186.6370  178.3960  146.5710 C   0  0  0  0  0  0  0  0  0  0  0  0
  186.0680  177.9860  144.2710 C   0  0  0  0  0  3  0  0  0  0  0  0
  189.0060  177.8610  146.6610 C   0  0  1  0  0  3  0  0  0  0  0  0
  185.3380  178.8040  146.8760 C   0  0  0  0  0  3  0  0  0  0  0  0
  187.7910  178.2880  147.4320 C   0  0  0  0  0  0  0  0  0  0  0  0
  184.3900  178.8030  145.8410 C   0  0  0  0  0  3  0  0  0  0  0  0
  188.8710  176.4360  146.1330 C   0  0  0  0  0  2  0  0  0  0  0  0
  186.9970  178.0020  145.3100 C   0  0  0  0  0  0  0  0  0  0  0  0
  182.4230  178.9700  144.0010 C   0  0  0  0  0  3  0  0  0  0  0  0
  183.1720  179.3050  141.0930 C   0  0  0  0  0  2  0  0  0  0  0  0
  181.0390  178.4350  141.9910 C   0  0  0  0  0  0  0  0  0  0  0  0
  183.7100  178.4110  143.4600 C   0  0  1  0  0  3  0  0  0  0  0  0
  185.6130  178.2390  141.5040 Cl  0  0  0  0  0  0  0  0  0  0  0  0
  182.1700  178.1580  141.0490 C   0  0  0  0  0  2  0  0  0  0  0  0
  184.2240  179.1240  142.1920 C   0  0  1  0  0  3  0  0  0  0  0  0
  179.8610  178.2510  141.5890 O   0  0  0  0  0  0  0  0  0  0  0  0
  181.2510  178.9420  143.3600 C   0  0  0  0  0  3  0  0  0  0  0  0
  189.3790  178.0460  144.1370 C   0  0  1  0  0  3  0  0  0  0  0  0
  190.7750  178.2170  144.6840 C   0  0  0  0  0  3  0  0  0  0  0  0
  190.5810  176.9580  142.1790 N   0  0  0  0  0  0  0  0  0  0  0  0
  191.8570  178.1170  143.9000 C   0  0  0  0  0  3  0  0  0  0  0  0
  188.3230  176.5240  142.5900 O   0  0  0  0  0  0  0  0  0  0  0  0
  189.3790  177.1150  142.9460 C   0  0  0  0  0  0  0  0  0  0  0  0
  190.5920  176.1510  141.0910 O   0  0  0  0  0  1  0  0  0  0  0  0
  191.7230  177.8340  142.4300 C   0  0  0  0  0  2  0  0  0  0  0  0
  1 11  1  0  0  0  0
  1 10  1  6  0  0  0
  1  6  1  0  0  0  0
  3  9  1  0  0  0  0
  4  7  1  0  0  0  0
  4  8  1  0  0  0  0
  5  3  2  0  0  0  0
  5 11  1  0  0  0  0
  6 10  1  1  0  0  0
  6  8  1  0  0  0  0
  8  2  2  0  0  0  0
  9  7  2  0  0  0  0
 11  4  2  0  0  0  0
 13 18  1  0  0  0  0
 14 20  1  0  0  0  0
 15 12  1  0  0  0  0
 15  3  1  1  0  0  0
 17 13  1  0  0  0  0
 17 14  1  0  0  0  0
 18 16  1  6  0  0  0
 18 15  1  0  0  0  0
 19 14  2  0  0  0  0
 20 12  2  0  0  0  0
 21 22  1  1  0  0  0
 21  1  1  0  0  0  0
 23 28  1  0  0  0  0
 23 26  1  0  0  0  0
 24 22  2  0  0  0  0
 25 26  2  0  0  0  0
 26 21  1  0  0  0  0
 27 23  1  0  0  0  0
 28 24  1  0  0  0  0
M  END
>  <MODEL>
2

>  <REMARK>
 VINA RESULT:      -9.6      1.601      2.167
  Name = 
  2 active torsions:
  status: ('A' for Active; 'I' for Inactive)
    1  A    between atoms: C_1  and  C_2
    2  A    between atoms: C_10  and  C_13
                            x       y       z     vdW  Elec       q    Type
                         _______ _______ _______ _____ _____    ______ ____

>  <TORSDO>
F 2

$$$$
=
 OpenBabel11052413273D

 28 32  0  0  1  0  0  0  0  0999 V2000
  189.2090  177.6040  139.4980 C   0  0  1  0  0  0  0  0  0  0  0  0
  185.8210  178.7330  139.0710 O   0  0  0  0  0  0  0  0  0  0  0  0
  188.5210  177.6070  143.2810 C   0  0  0  0  0  0  0  0  0  0  0  0
  187.3170  178.1080  140.8330 C   0  0  0  0  0  0  0  0  0  0  0  0
  189.2560  177.4410  142.0900 C   0  0  0  0  0  3  0  0  0  0  0  0
  188.0650  177.9380  138.5270 C   0  0  1  0  0  3  0  0  0  0  0  0
  186.5600  178.2870  141.9910 C   0  0  0  0  0  3  0  0  0  0  0  0
  186.9450  178.3120  139.4530 C   0  0  0  0  0  0  0  0  0  0  0  0
  187.1770  178.0270  143.2250 C   0  0  0  0  0  3  0  0  0  0  0  0
  189.2600  178.8750  138.6730 C   0  0  0  0  0  2  0  0  0  0  0  0
  188.6220  177.6960  140.8740 C   0  0  0  0  0  0  0  0  0  0  0  0
  190.6040  177.7000  144.5750 C   0  0  0  0  0  3  0  0  0  0  0  0
  189.0130  177.8970  147.1370 C   0  0  0  0  0  2  0  0  0  0  0  0
  191.1750  176.7420  146.8110 C   0  0  0  0  0  0  0  0  0  0  0  0
  189.1460  177.3350  144.6150 C   0  0  1  0  0  3  0  0  0  0  0  0
  186.7090  177.3320  145.8570 Cl  0  0  0  0  0  0  0  0  0  0  0  0
  189.7740  176.5890  147.3160 C   0  0  0  0  0  2  0  0  0  0  0  0
  188.3570  178.0100  145.7570 C   0  0  1  0  0  3  0  0  0  0  0  0
  192.1220  176.3120  147.5200 O   0  0  0  0  0  0  0  0  0  0  0  0
  191.4910  177.4020  145.5300 C   0  0  0  0  0  3  0  0  0  0  0  0
  190.0520  176.4110  139.0430 C   0  0  1  0  0  3  0  0  0  0  0  0
  189.6430  176.0040  137.6480 C   0  0  0  0  0  3  0  0  0  0  0  0
  192.4050  176.0370  138.1590 N   0  0  0  0  0  0  0  0  0  0  0  0
  190.4830  175.3610  136.8260 C   0  0  0  0  0  3  0  0  0  0  0  0
  192.0270  177.3840  140.0300 O   0  0  0  0  0  0  0  0  0  0  0  0
  191.5390  176.6690  139.1120 C   0  0  0  0  0  0  0  0  0  0  0  0
  193.7440  176.2320  138.2240 O   0  0  0  0  0  1  0  0  0  0  0  0
  191.8770  175.0100  137.2650 C   0  0  0  0  0  2  0  0  0  0  0  0
  1 10  1  6  0  0  0
  1 11  1  0  0  0  0
  2  8  2  0  0  0  0
  4 11  2  0  0  0  0
  4  7  1  0  0  0  0
  5  3  2  0  0  0  0
  6 10  1  6  0  0  0
  6  8  1  0  0  0  0
  6  1  1  0  0  0  0
  7  9  2  0  0  0  0
  8  4  1  0  0  0  0
  9  3  1  0  0  0  0
 11  5  1  0  0  0  0
 12 15  1  0  0  0  0
 12 20  2  0  0  0  0
 13 17  1  0  0  0  0
 14 17  1  0  0  0  0
 14 19  2  0  0  0  0
 15  3  1  6  0  0  0
 15 18  1  0  0  0  0
 18 16  1  1  0  0  0
 18 13  1  0  0  0  0
 20 14  1  0  0  0  0
 21 22  1  6  0  0  0
 21 26  1  0  0  0  0
 21  1  1  0  0  0  0
 23 27  1  0  0  0  0
 23 26  1  0  0  0  0
 24 28  1  0  0  0  0
 24 22  2  0  0  0  0
 26 25  2  0  0  0  0
 28 23  1  0  0  0  0
M  END
>  <MODEL>
3

>  <REMARK>
 VINA RESULT:      -9.6      4.029      7.640
  Name = 
  2 active torsions:
  status: ('A' for Active; 'I' for Inactive)
    1  A    between atoms: C_1  and  C_2
    2  A    between atoms: C_10  and  C_13
                            x       y       z     vdW  Elec       q    Type
                         _______ _______ _______ _____ _____    ______ ____

>  <TORSDO>
F 2

$$$$
=
 OpenBabel11052413273D

 28 32  0  0  1  0  0  0  0  0999 V2000
  184.3480  178.8960  143.5580 C   0  0  1  0  0  0  0  0  0  0  0  0
  185.3130  178.3150  146.9730 O   0  0  0  0  0  0  0  0  0  0  0  0
  187.8530  177.6650  142.5670 C   0  0  0  0  0  0  0  0  0  0  0  0
  186.2190  178.0900  144.7680 C   0  0  0  0  0  0  0  0  0  0  0  0
  186.5480  178.1640  142.3860 C   0  0  0  0  0  3  0  0  0  0  0  0
  183.9290  178.8570  145.0360 C   0  0  1  0  0  3  0  0  0  0  0  0
  187.5070  177.5990  144.9850 C   0  0  0  0  0  3  0  0  0  0  0  0
  185.1860  178.4110  145.7240 C   0  0  0  0  0  0  0  0  0  0  0  0
  188.3250  177.3840  143.8650 C   0  0  0  0  0  3  0  0  0  0  0  0
  184.1170  180.1880  144.3150 C   0  0  0  0  0  2  0  0  0  0  0  0
  185.7480  178.3620  143.5110 C   0  0  0  0  0  0  0  0  0  0  0  0
  188.5270  178.4800  140.3520 C   0  0  0  0  0  3  0  0  0  0  0  0
  191.2250  177.1570  140.6770 C   0  0  0  0  0  2  0  0  0  0  0  0
  189.9330  177.4120  138.5840 C   0  0  0  0  0  0  0  0  0  0  0  0
  188.7530  177.4200  141.3940 C   0  0  1  0  0  3  0  0  0  0  0  0
  190.4150  175.8390  142.8840 Cl  0  0  0  0  0  0  0  0  0  0  0  0
  190.6420  176.4340  139.4690 C   0  0  0  0  0  2  0  0  0  0  0  0
  190.2250  177.2690  141.8330 C   0  0  1  0  0  3  0  0  0  0  0  0
  190.1430  177.3660  137.3440 O   0  0  0  0  0  0  0  0  0  0  0  0
  189.0220  178.4470  139.1110 C   0  0  0  0  0  3  0  0  0  0  0  0
  183.2510  178.4050  142.6100 C   0  0  1  0  0  3  0  0  0  0  0  0
  181.8990  178.6230  143.2440 C   0  0  0  0  0  3  0  0  0  0  0  0
  182.0940  179.2630  140.5160 N   0  0  0  0  0  0  0  0  0  0  0  0
  180.7870  178.7590  142.5080 C   0  0  0  0  0  3  0  0  0  0  0  0
  184.4200  179.3360  140.7160 O   0  0  0  0  0  0  0  0  0  0  0  0
  183.3110  179.0460  141.2430 C   0  0  0  0  0  0  0  0  0  0  0  0
  182.1310  179.8080  139.2760 O   0  0  0  0  0  1  0  0  0  0  0  0
  180.8420  178.6940  141.0080 C   0  0  0  0  0  2  0  0  0  0  0  0
  1 10  1  6  0  0  0
  1  6  1  0  0  0  0
  3  9  1  0  0  0  0
  4  7  1  0  0  0  0
  4  8  1  0  0  0  0
  5  3  2  0  0  0  0
  5 11  1  0  0  0  0
  6 10  1  1  0  0  0
  6  8  1  0  0  0  0
  8  2  2  0  0  0  0
  9  7  2  0  0  0  0
 11  1  1  0  0  0  0
 11  4  2  0  0  0  0
 12 15  1  0  0  0  0
 13 18  1  0  0  0  0
 14 20  1  0  0  0  0
 14 17  1  0  0  0  0
 15 18  1  0  0  0  0
 15  3  1  1  0  0  0
 17 13  1  0  0  0  0
 18 16  1  1  0  0  0
 19 14  2  0  0  0  0
 20 12  2  0  0  0  0
 21 22  1  1  0  0  0
 21  1  1  0  0  0  0
 23 28  1  0  0  0  0
 23 26  1  0  0  0  0
 24 22  2  0  0  0  0
 25 26  2  0  0  0  0
 26 21  1  0  0  0  0
 27 23  1  0  0  0  0
 28 24  1  0  0  0  0
M  END
>  <MODEL>
4

>  <REMARK>
 VINA RESULT:      -9.4      3.356      6.472
  Name = 
  2 active torsions:
  status: ('A' for Active; 'I' for Inactive)
    1  A    between atoms: C_1  and  C_2
    2  A    between atoms: C_10  and  C_13
                            x       y       z     vdW  Elec       q    Type
                         _______ _______ _______ _____ _____    ______ ____

>  <TORSDO>
F 2

$$$$
=
 OpenBabel11052413273D

 28 32  0  0  1  0  0  0  0  0999 V2000
  183.4580  178.5450  140.1000 C   0  0  1  0  0  0  0  0  0  0  0  0
  180.3960  179.3090  141.8250 O   0  0  0  0  0  0  0  0  0  0  0  0
  185.1240  178.3560  143.5600 C   0  0  0  0  0  0  0  0  0  0  0  0
  182.6800  178.7980  142.3250 C   0  0  0  0  0  0  0  0  0  0  0  0
  185.0290  178.3080  142.1550 C   0  0  0  0  0  3  0  0  0  0  0  0
  181.9420  178.7820  140.0100 C   0  0  1  0  0  3  0  0  0  0  0  0
  182.7380  178.8560  143.7180 C   0  0  0  0  0  3  0  0  0  0  0  0
  181.5560  179.0020  141.4430 C   0  0  0  0  0  0  0  0  0  0  0  0
  183.9780  178.6280  144.3340 C   0  0  0  0  0  3  0  0  0  0  0  0
  182.9250  179.8390  139.5180 C   0  0  0  0  0  2  0  0  0  0  0  0
  183.7870  178.5300  141.5630 C   0  0  0  0  0  0  0  0  0  0  0  0
  186.1790  177.6260  145.6530 C   0  0  0  0  0  3  0  0  0  0  0  0
  188.6480  176.7870  144.1250 C   0  0  0  0  0  2  0  0  0  0  0  0
  188.5600  177.7450  146.4020 C   0  0  0  0  0  0  0  0  0  0  0  0
  186.4310  178.1140  144.2530 C   0  0  1  0  0  3  0  0  0  0  0  0
  187.7710  177.9790  141.8720 Cl  0  0  0  0  0  0  0  0  0  0  0  0
  189.1800  177.8770  145.0460 C   0  0  0  0  0  2  0  0  0  0  0  0
  187.3500  177.1960  143.4200 C   0  0  1  0  0  3  0  0  0  0  0  0
  189.3030  177.8190  147.4150 O   0  0  0  0  0  0  0  0  0  0  0  0
  187.1170  177.5030  146.5970 C   0  0  0  0  0  3  0  0  0  0  0  0
  183.9550  177.4660  139.1360 C   0  0  1  0  0  3  0  0  0  0  0  0
  182.8330  177.0530  138.2160 C   0  0  0  0  0  3  0  0  0  0  0  0
  185.3510  177.3810  137.0140 N   0  0  0  0  0  0  0  0  0  0  0  0
  183.0690  176.5290  137.0050 C   0  0  0  0  0  3  0  0  0  0  0  0
  186.0520  178.6280  138.8610 O   0  0  0  0  0  0  0  0  0  0  0  0
  185.1710  177.8870  138.3440 C   0  0  0  0  0  0  0  0  0  0  0  0
  186.4500  177.7230  136.2990 O   0  0  0  0  0  1  0  0  0  0  0  0
  184.4740  176.3260  136.5130 C   0  0  0  0  0  2  0  0  0  0  0  0
  1 10  1  6  0  0  0
  1 11  1  0  0  0  0
  3  9  1  0  0  0  0
  4  7  1  0  0  0  0
  5  3  2  0  0  0  0
  6 10  1  6  0  0  0
  6  1  1  0  0  0  0
  6  8  1  0  0  0  0
  7  9  2  0  0  0  0
  8  2  2  0  0  0  0
  8  4  1  0  0  0  0
 11  5  1  0  0  0  0
 11  4  2  0  0  0  0
 12 20  2  0  0  0  0
 13 17  1  0  0  0  0
 14 20  1  0  0  0  0
 14 19  2  0  0  0  0
 15  3  1  6  0  0  0
 15 12  1  0  0  0  0
 17 14  1  0  0  0  0
 18 16  1  6  0  0  0
 18 13  1  0  0  0  0
 18 15  1  0  0  0  0
 21 22  1  6  0  0  0
 21  1  1  0  0  0  0
 23 26  1  0  0  0  0
 24 22  2  0  0  0  0
 26 25  2  0  0  0  0
 26 21  1  0  0  0  0
 27 23  1  0  0  0  0
 28 24  1  0  0  0  0
 28 23  1  0  0  0  0
M  END
>  <MODEL>
5

>  <REMARK>
 VINA RESULT:      -9.2      2.700      7.191
  Name = 
  2 active torsions:
  status: ('A' for Active; 'I' for Inactive)
    1  A    between atoms: C_1  and  C_2
    2  A    between atoms: C_10  and  C_13
                            x       y       z     vdW  Elec       q    Type
                         _______ _______ _______ _____ _____    ______ ____

>  <TORSDO>
F 2

$$$$
=
 OpenBabel11052413273D

 28 32  0  0  1  0  0  0  0  0999 V2000
  186.7560  177.9530  145.3770 C   0  0  1  0  0  0  0  0  0  0  0  0
  183.6350  179.5170  144.5140 O   0  0  0  0  0  0  0  0  0  0  0  0
  187.5820  177.9890  141.6220 C   0  0  0  0  0  0  0  0  0  0  0  0
  185.6300  178.7360  143.4440 C   0  0  0  0  0  0  0  0  0  0  0  0
  187.7720  177.7400  142.9960 C   0  0  0  0  0  3  0  0  0  0  0  0
  185.4550  178.6090  145.8650 C   0  0  1  0  0  3  0  0  0  0  0  0
  185.4060  178.9950  142.0920 C   0  0  0  0  0  3  0  0  0  0  0  0
  184.7820  179.0040  144.5830 C   0  0  0  0  0  0  0  0  0  0  0  0
  186.4010  178.6160  141.1780 C   0  0  0  0  0  3  0  0  0  0  0  0
  185.6490  177.1000  145.9640 C   0  0  0  0  0  2  0  0  0  0  0  0
  186.7760  178.1320  143.8880 C   0  0  0  0  0  0  0  0  0  0  0  0
  188.6090  178.5740  139.4700 C   0  0  0  0  0  3  0  0  0  0  0  0
  191.1550  177.1690  140.2940 C   0  0  0  0  0  2  0  0  0  0  0  0
  190.1900  177.2940  138.0210 C   0  0  0  0  0  0  0  0  0  0  0  0
  188.6250  177.6020  140.6180 C   0  0  1  0  0  3  0  0  0  0  0  0
  189.9670  176.0880  142.4590 Cl  0  0  0  0  0  0  0  0  0  0  0  0
  190.7100  176.3680  139.0770 C   0  0  0  0  0  2  0  0  0  0  0  0
  190.0090  177.4260  141.2780 C   0  0  1  0  0  3  0  0  0  0  0  0
  190.5720  177.1280  136.8330 O   0  0  0  0  0  0  0  0  0  0  0  0
  189.2730  178.4090  138.3230 C   0  0  0  0  0  3  0  0  0  0  0  0
  187.9620  178.2840  146.2590 C   0  0  1  0  0  3  0  0  0  0  0  0
  187.5080  178.4850  147.6840 C   0  0  0  0  0  3  0  0  0  0  0  0
  189.8680  176.9990  147.3440 N   0  0  0  0  0  0  0  0  0  0  0  0
  188.3340  178.2960  148.7210 C   0  0  0  0  0  3  0  0  0  0  0  0
  189.3000  176.6390  145.1070 O   0  0  0  0  0  0  0  0  0  0  0  0
  189.0580  177.2440  146.1870 C   0  0  0  0  0  0  0  0  0  0  0  0
  190.8750  176.0940  147.2890 O   0  0  0  0  0  1  0  0  0  0  0  0
  189.7620  177.8780  148.5060 C   0  0  0  0  0  2  0  0  0  0  0  0
  1  6  1  0  0  0  0
  1 10  1  1  0  0  0
  1 21  1  0  0  0  0
  2  8  2  0  0  0  0
  3  5  1  0  0  0  0
  4 11  1  0  0  0  0
  4  8  1  0  0  0  0
  5 11  2  0  0  0  0
  6 10  1  6  0  0  0
  7  4  2  0  0  0  0
  8  6  1  0  0  0  0
  9  3  2  0  0  0  0
  9  7  1  0  0  0  0
 11  1  1  0  0  0  0
 12 15  1  0  0  0  0
 13 18  1  0  0  0  0
 14 20  1  0  0  0  0
 14 17  1  0  0  0  0
 15 18  1  0  0  0  0
 15  3  1  1  0  0  0
 17 13  1  0  0  0  0
 18 16  1  1  0  0  0
 19 14  2  0  0  0  0
 20 12  2  0  0  0  0
 21 22  1  1  0  0  0
 22 24  2  0  0  0  0
 23 28  1  0  0  0  0
 25 26  2  0  0  0  0
 26 21  1  0  0  0  0
 26 23  1  0  0  0  0
 27 23  1  0  0  0  0
 28 24  1  0  0  0  0
M  END
>  <MODEL>
6

>  <REMARK>
 VINA RESULT:      -9.0      3.247      4.790
  Name = 
  2 active torsions:
  status: ('A' for Active; 'I' for Inactive)
    1  A    between atoms: C_1  and  C_2
    2  A    between atoms: C_10  and  C_13
                            x       y       z     vdW  Elec       q    Type
                         _______ _______ _______ _____ _____    ______ ____

>  <TORSDO>
F 2

$$$$
=
 OpenBabel11052413273D

 28 32  0  0  1  0  0  0  0  0999 V2000
  189.0560  177.6810  139.0780 C   0  0  1  0  0  0  0  0  0  0  0  0
  185.8060  178.7180  137.9400 O   0  0  0  0  0  0  0  0  0  0  0  0
  187.7020  178.0580  142.6570 C   0  0  0  0  0  0  0  0  0  0  0  0
  186.9590  178.2940  139.9950 C   0  0  0  0  0  0  0  0  0  0  0  0
  188.6380  177.7810  141.6390 C   0  0  0  0  0  3  0  0  0  0  0  0
  188.1070  177.9000  137.8900 C   0  0  1  0  0  3  0  0  0  0  0  0
  186.0080  178.5790  140.9750 C   0  0  0  0  0  3  0  0  0  0  0  0
  186.8410  178.3520  138.5570 C   0  0  0  0  0  0  0  0  0  0  0  0
  186.3930  178.4530  142.3190 C   0  0  0  0  0  3  0  0  0  0  0  0
  189.2610  178.8620  138.1510 C   0  0  0  0  0  2  0  0  0  0  0  0
  188.2330  177.9040  140.3110 C   0  0  0  0  0  0  0  0  0  0  0  0
  186.9200  177.3600  144.8770 C   0  0  0  0  0  3  0  0  0  0  0  0
  189.7750  176.8610  145.7340 C   0  0  0  0  0  2  0  0  0  0  0  0
  187.9240  177.7070  147.1380 C   0  0  0  0  0  0  0  0  0  0  0  0
  188.0770  177.9310  144.1020 C   0  0  1  0  0  3  0  0  0  0  0  0
  190.7450  178.0440  143.5150 Cl  0  0  0  0  0  0  0  0  0  0  0  0
  189.3290  177.9630  146.6860 C   0  0  0  0  0  2  0  0  0  0  0  0
  189.3990  177.1540  144.2780 C   0  0  1  0  0  3  0  0  0  0  0  0
  187.6550  177.8190  148.3620 O   0  0  0  0  0  0  0  0  0  0  0  0
  186.8520  177.3010  146.2100 C   0  0  0  0  0  3  0  0  0  0  0  0
  189.9600  176.4580  138.9050 C   0  0  1  0  0  3  0  0  0  0  0  0
  189.7540  175.8660  137.5320 C   0  0  0  0  0  3  0  0  0  0  0  0
  192.4170  176.0270  138.4160 N   0  0  0  0  0  0  0  0  0  0  0  0
  190.7050  175.1410  136.9260 C   0  0  0  0  0  3  0  0  0  0  0  0
  191.7720  177.5950  140.0230 O   0  0  0  0  0  0  0  0  0  0  0  0
  191.4220  176.7570  139.1470 C   0  0  0  0  0  0  0  0  0  0  0  0
  193.7320  176.2590  138.6410 O   0  0  0  0  0  1  0  0  0  0  0  0
  192.0250  174.8820  137.5980 C   0  0  0  0  0  2  0  0  0  0  0  0
  1 10  1  6  0  0  0
  1 11  1  0  0  0  0
  2  8  2  0  0  0  0
  4 11  2  0  0  0  0
  4  7  1  0  0  0  0
  5  3  2  0  0  0  0
  6 10  1  6  0  0  0
  6  8  1  0  0  0  0
  6  1  1  0  0  0  0
  7  9  2  0  0  0  0
  8  4  1  0  0  0  0
  9  3  1  0  0  0  0
 11  5  1  0  0  0  0
 12 20  2  0  0  0  0
 13 17  1  0  0  0  0
 14 19  2  0  0  0  0
 15  3  1  6  0  0  0
 15 18  1  0  0  0  0
 15 12  1  0  0  0  0
 17 14  1  0  0  0  0
 18 16  1  1  0  0  0
 18 13  1  0  0  0  0
 20 14  1  0  0  0  0
 21 22  1  6  0  0  0
 21  1  1  0  0  0  0
 21 26  1  0  0  0  0
 23 27  1  0  0  0  0
 23 26  1  0  0  0  0
 24 22  2  0  0  0  0
 24 28  1  0  0  0  0
 26 25  2  0  0  0  0
 28 23  1  0  0  0  0
M  END
>  <MODEL>
7

>  <REMARK>
 VINA RESULT:      -8.9      3.935      7.116
  Name = 
  2 active torsions:
  status: ('A' for Active; 'I' for Inactive)
    1  A    between atoms: C_1  and  C_2
    2  A    between atoms: C_10  and  C_13
                            x       y       z     vdW  Elec       q    Type
                         _______ _______ _______ _____ _____    ______ ____

>  <TORSDO>
F 2

$$$$
=
 OpenBabel11052413273D

 28 32  0  0  1  0  0  0  0  0999 V2000
  190.4520  175.8740  137.7570 C   0  0  1  0  0  0  0  0  0  0  0  0
  193.9050  176.8360  137.4660 O   0  0  0  0  0  0  0  0  0  0  0  0
  190.6120  177.1420  141.3830 C   0  0  0  0  0  0  0  0  0  0  0  0
  192.1410  176.8740  139.0850 C   0  0  0  0  0  0  0  0  0  0  0  0
  190.0450  176.5740  140.2250 C   0  0  0  0  0  3  0  0  0  0  0  0
  191.6790  176.0450  136.8480 C   0  0  1  0  0  3  0  0  0  0  0  0
  192.7370  177.4370  140.2140 C   0  0  0  0  0  3  0  0  0  0  0  0
  192.7080  176.6090  137.7830 C   0  0  0  0  0  0  0  0  0  0  0  0
  191.9540  177.5710  141.3710 C   0  0  0  0  0  3  0  0  0  0  0  0
  191.2180  174.6570  137.2800 C   0  0  0  0  0  2  0  0  0  0  0  0
  190.8370  176.4570  139.0830 C   0  0  0  0  0  0  0  0  0  0  0  0
  188.6760  176.3110  142.6430 C   0  0  0  0  0  3  0  0  0  0  0  0
  189.9300  177.2730  145.2190 C   0  0  0  0  0  2  0  0  0  0  0  0
  187.5230  177.2420  144.6550 C   0  0  0  0  0  0  0  0  0  0  0  0
  189.8050  177.3040  142.6360 C   0  0  1  0  0  3  0  0  0  0  0  0
  191.8490  178.6200  143.8900 Cl  0  0  0  0  0  0  0  0  0  0  0  0
  188.6510  178.0970  145.1430 C   0  0  0  0  0  2  0  0  0  0  0  0
  190.6980  177.2550  143.8940 C   0  0  1  0  0  3  0  0  0  0  0  0
  186.4200  177.2970  145.2580 O   0  0  0  0  0  0  0  0  0  0  0  0
  187.6620  176.3170  143.5140 C   0  0  0  0  0  3  0  0  0  0  0  0
  189.1350  176.2220  137.0580 C   0  0  1  0  0  3  0  0  0  0  0  0
  188.1240  175.1310  137.3130 C   0  0  0  0  0  3  0  0  0  0  0  0
  187.1630  177.7650  137.4900 N   0  0  0  0  0  0  0  0  0  0  0  0
  186.8060  175.3660  137.2670 C   0  0  0  0  0  3  0  0  0  0  0  0
  189.3580  178.5340  137.7120 O   0  0  0  0  0  0  0  0  0  0  0  0
  188.5830  177.5700  137.4610 C   0  0  0  0  0  0  0  0  0  0  0  0
  186.6500  178.9750  137.8190 O   0  0  0  0  0  1  0  0  0  0  0  0
  186.2760  176.7370  136.9520 C   0  0  0  0  0  2  0  0  0  0  0  0
  1 10  1  1  0  0  0
  1 11  1  0  0  0  0
  2  8  2  0  0  0  0
  4  7  1  0  0  0  0
  5  3  2  0  0  0  0
  6 10  1  1  0  0  0
  6  1  1  0  0  0  0
  6  8  1  0  0  0  0
  7  9  2  0  0  0  0
  8  4  1  0  0  0  0
  9  3  1  0  0  0  0
 11  4  2  0  0  0  0
 11  5  1  0  0  0  0
 12 20  2  0  0  0  0
 14 17  1  0  0  0  0
 14 19  2  0  0  0  0
 15  3  1  6  0  0  0
 15 12  1  0  0  0  0
 15 18  1  0  0  0  0
 17 13  1  0  0  0  0
 18 16  1  1  0  0  0
 18 13  1  0  0  0  0
 20 14  1  0  0  0  0
 21 22  1  1  0  0  0
 21 26  1  0  0  0  0
 21  1  1  0  0  0  0
 23 27  1  0  0  0  0
 24 22  2  0  0  0  0
 26 23  1  0  0  0  0
 26 25  2  0  0  0  0
 28 24  1  0  0  0  0
 28 23  1  0  0  0  0
M  END
>  <MODEL>
8

>  <REMARK>
 VINA RESULT:      -8.9      4.678      8.435
  Name = 
  2 active torsions:
  status: ('A' for Active; 'I' for Inactive)
    1  A    between atoms: C_1  and  C_2
    2  A    between atoms: C_10  and  C_13
                            x       y       z     vdW  Elec       q    Type
                         _______ _______ _______ _____ _____    ______ ____

>  <TORSDO>
F 2

$$$$
=
 OpenBabel11052413273D

 28 32  0  0  1  0  0  0  0  0999 V2000
  190.4170  177.7970  143.6170 C   0  0  1  0  0  0  0  0  0  0  0  0
  192.1420  177.5840  140.4700 O   0  0  0  0  0  0  0  0  0  0  0  0
  187.1730  178.1680  141.5860 C   0  0  0  0  0  0  0  0  0  0  0  0
  189.9090  177.8150  141.3020 C   0  0  0  0  0  0  0  0  0  0  0  0
  187.9920  178.0810  142.7300 C   0  0  0  0  0  3  0  0  0  0  0  0
  191.7410  177.5490  142.8780 C   0  0  1  0  0  3  0  0  0  0  0  0
  189.1310  177.9010  140.1480 C   0  0  0  0  0  3  0  0  0  0  0  0
  191.3380  177.6510  141.4360 C   0  0  0  0  0  0  0  0  0  0  0  0
  187.7470  178.0770  140.3020 C   0  0  0  0  0  3  0  0  0  0  0  0
  191.5020  178.8550  143.6280 C   0  0  0  0  0  2  0  0  0  0  0  0
  189.3630  177.8980  142.5560 C   0  0  0  0  0  0  0  0  0  0  0  0
  185.3750  179.0460  143.0090 C   0  0  0  0  0  3  0  0  0  0  0  0
  183.6120  179.3920  140.5790 C   0  0  0  0  0  2  0  0  0  0  0  0
  182.8980  178.7610  142.8610 C   0  0  0  0  0  0  0  0  0  0  0  0
  185.6910  178.3520  141.7120 C   0  0  1  0  0  3  0  0  0  0  0  0
  185.3290  178.0180  139.0220 Cl  0  0  0  0  0  0  0  0  0  0  0  0
  182.8360  178.3810  141.4140 C   0  0  0  0  0  2  0  0  0  0  0  0
  185.0990  179.0420  140.4650 C   0  0  1  0  0  3  0  0  0  0  0  0
  181.8360  178.7390  143.5360 O   0  0  0  0  0  0  0  0  0  0  0  0
  184.1480  179.1870  143.5180 C   0  0  0  0  0  3  0  0  0  0  0  0
  190.2490  176.9180  144.8590 C   0  0  1  0  0  3  0  0  0  0  0  0
  191.6030  176.4640  145.3450 C   0  0  0  0  0  3  0  0  0  0  0  0
  189.7920  177.2780  147.3330 N   0  0  0  0  0  0  0  0  0  0  0  0
  191.8170  176.1250  146.6240 C   0  0  0  0  0  3  0  0  0  0  0  0
  188.5300  178.3830  145.7080 O   0  0  0  0  0  0  0  0  0  0  0  0
  189.4780  177.5940  145.9700 C   0  0  0  0  0  0  0  0  0  0  0  0
  189.0910  177.8500  148.3420 O   0  0  0  0  0  1  0  0  0  0  0  0
  190.7040  176.1770  147.6330 C   0  0  0  0  0  2  0  0  0  0  0  0
  1 10  1  1  0  0  0
  1 21  1  0  0  0  0
  2  8  2  0  0  0  0
  3  5  1  0  0  0  0
  4  8  1  0  0  0  0
  4 11  1  0  0  0  0
  6  1  1  0  0  0  0
  6 10  1  1  0  0  0
  7  9  1  0  0  0  0
  7  4  2  0  0  0  0
  8  6  1  0  0  0  0
  9  3  2  0  0  0  0
 11  5  2  0  0  0  0
 11  1  1  0  0  0  0
 12 20  2  0  0  0  0
 13 17  1  0  0  0  0
 14 20  1  0  0  0  0
 14 19  2  0  0  0  0
 15  3  1  6  0  0  0
 15 12  1  0  0  0  0
 17 14  1  0  0  0  0
 18 16  1  6  0  0  0
 18 13  1  0  0  0  0
 18 15  1  0  0  0  0
 21 22  1  1  0  0  0
 21 26  1  0  0  0  0
 22 24  2  0  0  0  0
 23 28  1  0  0  0  0
 23 27  1  0  0  0  0
 24 28  1  0  0  0  0
 25 26  2  0  0  0  0
 26 23  1  0  0  0  0
M  END
>  <MODEL>
9

>  <REMARK>
 VINA RESULT:      -8.7      2.510      4.598
  Name = 
  2 active torsions:
  status: ('A' for Active; 'I' for Inactive)
    1  A    between atoms: C_1  and  C_2
    2  A    between atoms: C_10  and  C_13
                            x       y       z     vdW  Elec       q    Type
                         _______ _______ _______ _____ _____    ______ ____

>  <TORSDO>
F 2

$$$$
