=
 OpenBabel11052412513D

 25 28  0  0  1  0  0  0  0  0999 V2000
  187.0650  177.7530  145.5420 C   0  0  0  0  0  0  0  0  0  0  0  0
  188.2270  177.1520  145.3110 C   0  0  0  0  0  0  0  0  0  0  0  0
  187.3310  177.5660  148.0200 C   0  0  0  0  0  3  0  0  0  0  0  0
  186.0260  178.2530  144.6680 C   0  0  0  0  0  0  0  0  0  0  0  0
  189.8760  176.4050  143.7120 N   0  0  0  0  0  0  0  0  0  0  0  0
  183.5420  178.9520  143.5010 C   0  0  0  0  0  2  0  0  0  0  0  0
  188.4850  176.9930  147.8230 N   0  0  0  0  0  0  0  0  0  0  0  0
  185.0560  178.6860  145.4730 C   0  0  0  0  0  0  0  0  0  0  0  0
  183.7970  179.3260  144.9680 C   0  0  0  0  0  2  0  0  0  0  0  0
  190.5340  177.3110  146.4710 C   0  0  0  0  0  0  0  0  0  0  0  0
  191.2860  177.3960  147.7590 C   0  0  0  0  0  1  0  0  0  0  0  0
  188.6060  176.8580  144.0020 O   0  0  0  0  0  0  0  0  0  0  0  0
  184.8190  179.1180  142.6680 C   0  0  0  0  0  2  0  0  0  0  0  0
  186.5660  177.9980  146.8600 C   0  0  0  0  0  0  0  0  0  0  0  0
  185.3930  178.5420  146.8600 N   0  0  0  0  0  0  0  0  0  0  0  0
  191.2560  177.5560  145.3620 C   0  0  0  0  0  3  0  0  0  0  0  0
  185.9220  178.1820  143.1740 C   0  0  0  0  0  2  0  0  0  0  0  0
  190.7850  177.5170  143.9380 C   0  0  0  0  0  2  0  0  0  0  0  0
  189.1140  176.7570  146.4960 C   0  0  2  0  0  3  0  0  0  0  0  0
  189.9350  176.0210  142.2960 C   0  0  0  0  0  2  0  0  0  0  0  0
  188.7350  177.5460  140.7310 C   0  0  0  0  0  1  0  0  0  0  0  0
  190.0840  177.2080  141.3350 C   0  0  2  0  0  3  0  0  0  0  0  0
  191.0740  176.9250  140.2530 C   0  0  0  0  0  0  0  0  0  0  0  0
  190.7560  176.0180  139.2520 O   0  0  0  0  0  0  0  0  0  0  0  0
  192.1960  177.5000  140.2420 O   0  0  0  0  0  1  0  0  0  0  0  0
  1 14  1  0  0  0  0
  2  1  2  0  0  0  0
  4  8  2  0  0  0  0
  4  1  1  0  0  0  0
  5 18  1  0  0  0  0
  5 12  1  0  0  0  0
  6  9  1  0  0  0  0
  7  3  2  0  0  0  0
  8 15  1  0  0  0  0
  9  8  1  0  0  0  0
 10 19  1  0  0  0  0
 10 11  1  0  0  0  0
 12  2  1  0  0  0  0
 13 17  1  0  0  0  0
 13  6  1  0  0  0  0
 14  3  1  0  0  0  0
 15 14  2  0  0  0  0
 16 10  2  0  0  0  0
 17  4  1  0  0  0  0
 18 16  1  0  0  0  0
 19  2  1  6  0  0  0
 19  7  1  0  0  0  0
 20  5  1  0  0  0  0
 22 21  1  6  0  0  0
 22 20  1  0  0  0  0
 23 22  1  0  0  0  0
 24 23  2  0  0  0  0
 25 23  1  0  0  0  0
M  END
>  <MODEL>
1

>  <REMARK>
 VINA RESULT:      -9.2      0.000      0.000
  Name = 
  3 active torsions:
  status: ('A' for Active; 'I' for Inactive)
    1  A    between atoms: C_2  and  C_25
    2  A    between atoms: N_6  and  C_15
    3  A    between atoms: C_15  and  C_25
                            x       y       z     vdW  Elec       q    Type
                         _______ _______ _______ _____ _____    ______ ____

>  <TORSDO>
F 3

$$$$
=
 OpenBabel11052412513D

 25 28  0  0  1  0  0  0  0  0999 V2000
  186.5930  178.4210  142.2620 C   0  0  0  0  0  0  0  0  0  0  0  0
  187.9140  178.3310  142.1540 C   0  0  0  0  0  0  0  0  0  0  0  0
  186.2910  178.6340  139.7910 C   0  0  0  0  0  3  0  0  0  0  0  0
  185.6990  178.4510  143.3990 C   0  0  2  0  0  3  0  0  0  0  0  0
  190.0510  178.0190  143.2350 N   0  0  0  0  0  0  0  0  0  0  0  0
  183.5850  179.0180  145.1970 C   0  0  0  0  0  2  0  0  0  0  0  0
  187.5830  178.5280  139.6530 N   0  0  0  0  0  0  0  0  0  0  0  0
  184.4790  178.6300  142.8940 C   0  0  0  0  0  0  0  0  0  0  0  0
  183.2410  178.6790  143.7400 C   0  0  0  0  0  2  0  0  0  0  0  0
  189.4480  177.1150  140.4620 C   0  0  0  0  0  0  0  0  0  0  0  0
  189.7050  176.7590  139.0340 C   0  0  0  0  0  1  0  0  0  0  0  0
  188.7010  178.2930  143.3040 O   0  0  0  0  0  0  0  0  0  0  0  0
  184.7620  178.1660  145.6900 C   0  0  0  0  0  2  0  0  0  0  0  0
  185.7290  178.5620  141.1300 C   0  0  0  0  0  0  0  0  0  0  0  0
  184.4850  178.6880  141.4610 N   0  0  0  0  0  0  0  0  0  0  0  0
  190.1950  176.4560  141.3670 C   0  0  0  0  0  3  0  0  0  0  0  0
  186.0210  178.4520  144.8640 C   0  0  0  0  0  2  0  0  0  0  0  0
  190.1800  176.6200  142.8590 C   0  0  0  0  0  2  0  0  0  0  0  0
  188.5510  178.3120  140.7610 C   0  0  0  0  0  0  0  0  0  0  0  0
  190.6470  178.2110  144.5630 C   0  0  0  0  0  2  0  0  0  0  0  0
  189.2790  177.7370  146.5920 C   0  0  0  0  0  1  0  0  0  0  0  0
  190.2450  177.1410  145.5870 C   0  0  2  0  0  3  0  0  0  0  0  0
  191.4340  176.5730  146.2920 C   0  0  0  0  0  0  0  0  0  0  0  0
  191.7820  177.0540  147.5470 O   0  0  0  0  0  1  0  0  0  0  0  0
  192.1250  175.6650  145.7570 O   0  0  0  0  0  0  0  0  0  0  0  0
  1  4  1  0  0  0  0
  2  1  1  0  0  0  0
  2 12  1  0  0  0  0
  3 14  1  0  0  0  0
  4 17  1  1  0  0  0
  5 12  1  0  0  0  0
  5 20  1  0  0  0  0
  6 13  1  0  0  0  0
  7  3  2  0  0  0  0
  7 19  1  0  0  0  0
  8  4  1  0  0  0  0
  8  9  1  0  0  0  0
  9  6  1  0  0  0  0
 10 19  1  0  0  0  0
 10 16  2  0  0  0  0
 11 10  1  0  0  0  0
 14 15  1  0  0  0  0
 14  1  2  0  0  0  0
 15  8  2  0  0  0  0
 16 18  1  0  0  0  0
 17 13  1  0  0  0  0
 18  5  1  0  0  0  0
 19  2  2  0  0  0  0
 20 22  1  0  0  0  0
 22 23  1  0  0  0  0
 22 21  1  1  0  0  0
 23 24  1  0  0  0  0
 25 23  2  0  0  0  0
M  END
>  <MODEL>
2

>  <REMARK>
 VINA RESULT:      -8.9      2.333      5.044
  Name = 
  3 active torsions:
  status: ('A' for Active; 'I' for Inactive)
    1  A    between atoms: C_2  and  C_25
    2  A    between atoms: N_6  and  C_15
    3  A    between atoms: C_15  and  C_25
                            x       y       z     vdW  Elec       q    Type
                         _______ _______ _______ _____ _____    ______ ____

>  <TORSDO>
F 3

$$$$
=
 OpenBabel11052412513D

 25 28  0  0  1  0  0  0  0  0999 V2000
  186.8050  178.2860  142.4240 C   0  0  0  0  0  0  0  0  0  0  0  0
  187.9150  178.2360  141.6950 C   0  0  0  0  0  0  0  0  0  0  0  0
  185.3940  178.8720  140.4470 C   0  0  0  0  0  3  0  0  0  0  0  0
  186.5520  178.1260  143.8400 C   0  0  2  0  0  3  0  0  0  0  0  0
  190.2860  177.7960  141.5830 N   0  0  0  0  0  0  0  0  0  0  0  0
  185.5620  178.3760  146.4820 C   0  0  0  0  0  2  0  0  0  0  0  0
  186.4630  178.8090  139.7030 N   0  0  0  0  0  0  0  0  0  0  0  0
  185.2500  178.3610  144.0010 C   0  0  0  0  0  0  0  0  0  0  0  0
  184.5570  178.2590  145.3280 C   0  0  0  0  0  2  0  0  0  0  0  0
  188.4040  177.3200  139.3250 C   0  0  0  0  0  0  0  0  0  0  0  0
  187.9410  177.1920  137.9100 C   0  0  0  0  0  1  0  0  0  0  0  0
  189.1450  178.0340  142.3190 O   0  0  0  0  0  0  0  0  0  0  0  0
  186.7810  177.4770  146.2340 C   0  0  0  0  0  2  0  0  0  0  0  0
  185.5220  178.5860  141.8670 C   0  0  0  0  0  0  0  0  0  0  0  0
  184.5870  178.6390  142.7600 N   0  0  0  0  0  0  0  0  0  0  0  0
  189.4470  176.5420  139.6660 C   0  0  0  0  0  3  0  0  0  0  0  0
  187.5210  177.9070  144.9630 C   0  0  0  0  0  2  0  0  0  0  0  0
  190.1420  176.4740  140.9940 C   0  0  0  0  0  2  0  0  0  0  0  0
  187.8230  178.4420  140.1800 C   0  0  0  0  0  0  0  0  0  0  0  0
  191.4450  177.7910  142.4850 C   0  0  0  0  0  2  0  0  0  0  0  0
  191.6810  179.3840  144.3890 C   0  0  0  0  0  1  0  0  0  0  0  0
  191.0900  178.0570  143.9540 C   0  0  2  0  0  3  0  0  0  0  0  0
  191.5750  176.9620  144.8490 C   0  0  0  0  0  0  0  0  0  0  0  0
  191.7860  175.6930  144.3270 O   0  0  0  0  0  0  0  0  0  0  0  0
  191.7900  177.1790  146.0720 O   0  0  0  0  0  1  0  0  0  0  0  0
  1  4  1  0  0  0  0
  2 12  1  0  0  0  0
  2  1  1  0  0  0  0
  3 14  1  0  0  0  0
  4  8  1  0  0  0  0
  4 17  1  1  0  0  0
  5 12  1  0  0  0  0
  5 20  1  0  0  0  0
  7 19  1  0  0  0  0
  7  3  2  0  0  0  0
  8  9  1  0  0  0  0
  9  6  1  0  0  0  0
 10 16  2  0  0  0  0
 10 19  1  0  0  0  0
 11 10  1  0  0  0  0
 13  6  1  0  0  0  0
 14  1  2  0  0  0  0
 14 15  1  0  0  0  0
 15  8  2  0  0  0  0
 16 18  1  0  0  0  0
 17 13  1  0  0  0  0
 18  5  1  0  0  0  0
 19  2  2  0  0  0  0
 20 22  1  0  0  0  0
 22 21  1  1  0  0  0
 22 23  1  0  0  0  0
 23 25  1  0  0  0  0
 24 23  2  0  0  0  0
M  END
>  <MODEL>
3

>  <REMARK>
 VINA RESULT:      -8.8      2.386      5.045
  Name = 
  3 active torsions:
  status: ('A' for Active; 'I' for Inactive)
    1  A    between atoms: C_2  and  C_25
    2  A    between atoms: N_6  and  C_15
    3  A    between atoms: C_15  and  C_25
                            x       y       z     vdW  Elec       q    Type
                         _______ _______ _______ _____ _____    ______ ____

>  <TORSDO>
F 3

$$$$
=
 OpenBabel11052412513D

 25 28  0  0  1  0  0  0  0  0999 V2000
  186.9000  177.7860  144.5170 C   0  0  0  0  0  0  0  0  0  0  0  0
  187.9990  177.3790  143.8900 C   0  0  0  0  0  0  0  0  0  0  0  0
  187.8480  177.2550  146.7670 C   0  0  0  0  0  3  0  0  0  0  0  0
  185.6250  178.2800  144.0450 C   0  0  0  0  0  0  0  0  0  0  0  0
  189.2010  177.0990  141.8150 N   0  0  0  0  0  0  0  0  0  0  0  0
  182.8690  178.8330  143.7000 C   0  0  0  0  0  2  0  0  0  0  0  0
  188.9470  176.8690  146.1810 N   0  0  0  0  0  0  0  0  0  0  0  0
  184.8810  178.4580  145.1360 C   0  0  0  0  0  0  0  0  0  0  0  0
  183.4850  179.0060  145.0950 C   0  0  0  0  0  2  0  0  0  0  0  0
  190.5150  177.6470  144.4300 C   0  0  0  0  0  0  0  0  0  0  0  0
  191.5820  177.6260  145.4760 C   0  0  0  0  0  1  0  0  0  0  0  0
  188.0270  177.3400  142.4970 O   0  0  0  0  0  0  0  0  0  0  0  0
  183.8510  179.2840  142.6130 C   0  0  0  0  0  2  0  0  0  0  0  0
  186.7640  177.7610  145.9410 C   0  0  0  0  0  0  0  0  0  0  0  0
  185.5950  178.1470  146.3400 N   0  0  0  0  0  0  0  0  0  0  0  0
  190.8830  178.1480  143.2370 C   0  0  0  0  0  3  0  0  0  0  0  0
  185.1220  178.4270  142.6390 C   0  0  0  0  0  2  0  0  0  0  0  0
  190.0450  178.2700  141.9980 C   0  0  0  0  0  2  0  0  0  0  0  0
  189.2050  176.9210  144.7170 C   0  0  2  0  0  3  0  0  0  0  0  0
  188.9010  176.9490  140.3860 C   0  0  0  0  0  2  0  0  0  0  0  0
  186.9810  178.2130  139.4200 C   0  0  0  0  0  1  0  0  0  0  0  0
  188.4710  178.2520  139.6990 C   0  0  2  0  0  3  0  0  0  0  0  0
  189.2240  178.4860  138.4300 C   0  0  0  0  0  0  0  0  0  0  0  0
  190.1450  177.5430  137.9950 O   0  0  0  0  0  1  0  0  0  0  0  0
  189.0350  179.5320  137.7530 O   0  0  0  0  0  0  0  0  0  0  0  0
  1 14  1  0  0  0  0
  2  1  2  0  0  0  0
  4  1  1  0  0  0  0
  4  8  2  0  0  0  0
  5 18  1  0  0  0  0
  5 12  1  0  0  0  0
  6  9  1  0  0  0  0
  7  3  2  0  0  0  0
  8 15  1  0  0  0  0
  9  8  1  0  0  0  0
 10 19  1  0  0  0  0
 10 11  1  0  0  0  0
 12  2  1  0  0  0  0
 13 17  1  0  0  0  0
 13  6  1  0  0  0  0
 14 15  2  0  0  0  0
 14  3  1  0  0  0  0
 16 10  2  0  0  0  0
 17  4  1  0  0  0  0
 18 16  1  0  0  0  0
 19  2  1  6  0  0  0
 19  7  1  0  0  0  0
 20  5  1  0  0  0  0
 22 21  1  6  0  0  0
 22 20  1  0  0  0  0
 23 22  1  0  0  0  0
 24 23  1  0  0  0  0
 25 23  2  0  0  0  0
M  END
>  <MODEL>
4

>  <REMARK>
 VINA RESULT:      -8.5      1.536      1.938
  Name = 
  3 active torsions:
  status: ('A' for Active; 'I' for Inactive)
    1  A    between atoms: C_2  and  C_25
    2  A    between atoms: N_6  and  C_15
    3  A    between atoms: C_15  and  C_25
                            x       y       z     vdW  Elec       q    Type
                         _______ _______ _______ _____ _____    ______ ____

>  <TORSDO>
F 3

$$$$
=
 OpenBabel11052412513D

 25 28  0  0  1  0  0  0  0  0999 V2000
  188.7370  177.3510  144.5950 C   0  0  0  0  0  0  0  0  0  0  0  0
  188.0420  177.2740  143.4650 C   0  0  0  0  0  0  0  0  0  0  0  0
  190.8440  176.5910  143.4880 C   0  0  0  0  0  3  0  0  0  0  0  0
  188.3680  177.6840  145.9540 C   0  0  2  0  0  3  0  0  0  0  0  0
  185.9500  177.6090  142.3080 N   0  0  0  0  0  0  0  0  0  0  0  0
  188.1390  177.7820  148.7750 C   0  0  0  0  0  2  0  0  0  0  0  0
  190.1930  176.5270  142.3600 N   0  0  0  0  0  0  0  0  0  0  0  0
  189.4750  177.5180  146.6780 C   0  0  0  0  0  0  0  0  0  0  0  0
  189.5410  177.8010  148.1500 C   0  0  0  0  0  2  0  0  0  0  0  0
  188.6190  177.8880  141.0190 C   0  0  0  0  0  0  0  0  0  0  0  0
  189.6410  177.8670  139.9280 C   0  0  0  0  0  1  0  0  0  0  0  0
  186.6670  177.5010  143.4810 O   0  0  0  0  0  0  0  0  0  0  0  0
  187.1560  178.5990  147.9280 C   0  0  0  0  0  2  0  0  0  0  0  0
  190.1300  177.0360  144.6740 C   0  0  0  0  0  0  0  0  0  0  0  0
  190.5970  177.1230  145.8770 N   0  0  0  0  0  0  0  0  0  0  0  0
  187.5420  178.6610  140.7890 C   0  0  0  0  0  3  0  0  0  0  0  0
  187.0170  177.9970  146.5260 C   0  0  0  0  0  2  0  0  0  0  0  0
  186.3510  178.8580  141.6800 C   0  0  0  0  0  2  0  0  0  0  0  0
  188.7650  176.8960  142.1680 C   0  0  0  0  0  0  0  0  0  0  0  0
  184.5180  177.6750  142.6280 C   0  0  0  0  0  2  0  0  0  0  0  0
  184.0610  179.4930  144.2720 C   0  0  0  0  0  1  0  0  0  0  0  0
  183.9860  179.1030  142.8080 C   0  0  2  0  0  3  0  0  0  0  0  0
  182.5830  179.2400  142.3130 C   0  0  0  0  0  0  0  0  0  0  0  0
  181.6090  179.7690  143.1490 O   0  0  0  0  0  1  0  0  0  0  0  0
  182.2750  178.8750  141.1460 O   0  0  0  0  0  0  0  0  0  0  0  0
  1 14  2  0  0  0  0
  1  4  1  0  0  0  0
  2 12  1  0  0  0  0
  2  1  1  0  0  0  0
  3 14  1  0  0  0  0
  4 17  1  1  0  0  0
  4  8  1  0  0  0  0
  5 20  1  0  0  0  0
  5 12  1  0  0  0  0
  7  3  2  0  0  0  0
  8  9  1  0  0  0  0
  9  6  1  0  0  0  0
 10 19  1  0  0  0  0
 11 10  1  0  0  0  0
 13  6  1  0  0  0  0
 14 15  1  0  0  0  0
 15  8  2  0  0  0  0
 16 10  2  0  0  0  0
 16 18  1  0  0  0  0
 17 13  1  0  0  0  0
 18  5  1  0  0  0  0
 19  7  1  0  0  0  0
 19  2  2  0  0  0  0
 20 22  1  0  0  0  0
 22 21  1  1  0  0  0
 23 22  1  0  0  0  0
 23 24  1  0  0  0  0
 25 23  2  0  0  0  0
M  END
>  <MODEL>
5

>  <REMARK>
 VINA RESULT:      -8.1      2.614      6.019
  Name = 
  3 active torsions:
  status: ('A' for Active; 'I' for Inactive)
    1  A    between atoms: C_2  and  C_25
    2  A    between atoms: N_6  and  C_15
    3  A    between atoms: C_15  and  C_25
                            x       y       z     vdW  Elec       q    Type
                         _______ _______ _______ _____ _____    ______ ____

>  <TORSDO>
F 3

$$$$
=
 OpenBabel11052412513D

 25 28  0  0  1  0  0  0  0  0999 V2000
  189.7080  177.6580  141.2550 C   0  0  0  0  0  0  0  0  0  0  0  0
  188.8860  178.0860  142.2060 C   0  0  0  0  0  0  0  0  0  0  0  0
  191.6600  177.5840  142.8120 C   0  0  0  0  0  3  0  0  0  0  0  0
  189.5280  177.4060  139.8410 C   0  0  0  0  0  0  0  0  0  0  0  0
  186.6470  178.7010  142.8700 N   0  0  0  0  0  0  0  0  0  0  0  0
  189.8730  177.2100  137.0370 C   0  0  0  0  0  2  0  0  0  0  0  0
  190.8720  177.9830  143.7720 N   0  0  0  0  0  0  0  0  0  0  0  0
  190.7310  177.0620  139.3800 C   0  0  0  0  0  0  0  0  0  0  0  0
  190.9820  176.6740  137.9530 C   0  0  0  0  0  2  0  0  0  0  0  0
  188.6390  177.4650  144.7060 C   0  0  0  0  0  0  0  0  0  0  0  0
  189.3290  177.1510  145.9940 C   0  0  0  0  0  1  0  0  0  0  0  0
  187.5740  178.4290  141.8850 O   0  0  0  0  0  0  0  0  0  0  0  0
  188.4890  176.9190  137.6300 C   0  0  0  0  0  2  0  0  0  0  0  0
  191.0920  177.3800  141.4890 C   0  0  0  0  0  0  0  0  0  0  0  0
  191.7230  177.0300  140.4160 N   0  0  0  0  0  0  0  0  0  0  0  0
  187.3190  177.2070  144.6780 C   0  0  0  0  0  3  0  0  0  0  0  0
  188.3190  177.6220  138.9810 C   0  0  0  0  0  2  0  0  0  0  0  0
  186.3650  177.4440  143.5440 C   0  0  0  0  0  2  0  0  0  0  0  0
  189.4120  178.2320  143.6380 C   0  0  2  0  0  3  0  0  0  0  0  0
  185.4140  179.1930  142.2430 C   0  0  0  0  0  2  0  0  0  0  0  0
  183.5430  177.9660  141.1410 C   0  0  0  0  0  1  0  0  0  0  0  0
  184.1960  178.2880  142.4720 C   0  0  2  0  0  3  0  0  0  0  0  0
  183.2010  178.9180  143.3920 C   0  0  0  0  0  0  0  0  0  0  0  0
  183.5720  179.2320  144.6920 O   0  0  0  0  0  1  0  0  0  0  0  0
  182.0280  179.1620  143.0010 O   0  0  0  0  0  0  0  0  0  0  0  0
  1 14  1  0  0  0  0
  1  2  2  0  0  0  0
  3  7  2  0  0  0  0
  4  1  1  0  0  0  0
  5 18  1  0  0  0  0
  6 13  1  0  0  0  0
  6  9  1  0  0  0  0
  8  4  2  0  0  0  0
  8 15  1  0  0  0  0
  9  8  1  0  0  0  0
 10 11  1  0  0  0  0
 12  2  1  0  0  0  0
 12  5  1  0  0  0  0
 13 17  1  0  0  0  0
 14  3  1  0  0  0  0
 15 14  2  0  0  0  0
 16 10  2  0  0  0  0
 17  4  1  0  0  0  0
 18 16  1  0  0  0  0
 19  2  1  6  0  0  0
 19  7  1  0  0  0  0
 19 10  1  0  0  0  0
 20 22  1  0  0  0  0
 20  5  1  0  0  0  0
 22 21  1  6  0  0  0
 22 23  1  0  0  0  0
 23 24  1  0  0  0  0
 25 23  2  0  0  0  0
M  END
>  <MODEL>
6

>  <REMARK>
 VINA RESULT:      -7.9      2.646      6.535
  Name = 
  3 active torsions:
  status: ('A' for Active; 'I' for Inactive)
    1  A    between atoms: C_2  and  C_25
    2  A    between atoms: N_6  and  C_15
    3  A    between atoms: C_15  and  C_25
                            x       y       z     vdW  Elec       q    Type
                         _______ _______ _______ _____ _____    ______ ____

>  <TORSDO>
F 3

$$$$
=
 OpenBabel11052412513D

 25 28  0  0  1  0  0  0  0  0999 V2000
  185.9150  178.3290  141.9510 C   0  0  0  0  0  0  0  0  0  0  0  0
  186.1070  178.5880  140.6620 C   0  0  0  0  0  0  0  0  0  0  0  0
  183.4970  178.9460  141.8340 C   0  0  0  0  0  3  0  0  0  0  0  0
  186.8060  177.9140  143.0140 C   0  0  2  0  0  3  0  0  0  0  0  0
  187.6010  178.6000  138.7650 N   0  0  0  0  0  0  0  0  0  0  0  0
  188.1220  177.5810  145.4990 C   0  0  0  0  0  2  0  0  0  0  0  0
  183.6500  179.1880  140.5620 N   0  0  0  0  0  0  0  0  0  0  0  0
  186.0610  177.8860  144.1180 C   0  0  0  0  0  0  0  0  0  0  0  0
  186.5930  177.4620  145.4550 C   0  0  0  0  0  2  0  0  0  0  0  0
  184.6660  178.1430  138.5600 C   0  0  0  0  0  0  0  0  0  0  0  0
  183.3010  178.1500  137.9510 C   0  0  0  0  0  1  0  0  0  0  0  0
  187.3920  178.5170  140.1260 O   0  0  0  0  0  0  0  0  0  0  0  0
  188.7510  176.9630  144.2440 C   0  0  0  0  0  2  0  0  0  0  0  0
  184.6450  178.4760  142.5930 C   0  0  0  0  0  0  0  0  0  0  0  0
  184.6910  178.2260  143.8610 N   0  0  0  0  0  0  0  0  0  0  0  0
  185.6180  177.5210  137.8410 C   0  0  0  0  0  3  0  0  0  0  0  0
  188.2910  177.7040  142.9840 C   0  0  0  0  0  2  0  0  0  0  0  0
  187.0730  177.3780  138.1800 C   0  0  0  0  0  2  0  0  0  0  0  0
  184.9120  179.0010  139.7970 C   0  0  0  0  0  0  0  0  0  0  0  0
  189.0450  178.6670  138.5070 C   0  0  0  0  0  2  0  0  0  0  0  0
  190.6380  177.4820  140.0150 C   0  0  0  0  0  1  0  0  0  0  0  0
  189.7850  177.3480  138.7680 C   0  0  2  0  0  3  0  0  0  0  0  0
  190.6350  176.9490  137.6060 C   0  0  0  0  0  0  0  0  0  0  0  0
  191.9570  176.5800  137.8170 O   0  0  0  0  0  1  0  0  0  0  0  0
  190.1650  176.9470  136.4360 O   0  0  0  0  0  0  0  0  0  0  0  0
  1 14  2  0  0  0  0
  1  4  1  0  0  0  0
  2  1  1  0  0  0  0
  3 14  1  0  0  0  0
  4 17  1  1  0  0  0
  4  8  1  0  0  0  0
  5 12  1  0  0  0  0
  7  3  2  0  0  0  0
  8  9  1  0  0  0  0
  9  6  1  0  0  0  0
 10 19  1  0  0  0  0
 11 10  1  0  0  0  0
 12  2  1  0  0  0  0
 13  6  1  0  0  0  0
 14 15  1  0  0  0  0
 15  8  2  0  0  0  0
 16 18  1  0  0  0  0
 16 10  2  0  0  0  0
 17 13  1  0  0  0  0
 18  5  1  0  0  0  0
 19  7  1  0  0  0  0
 19  2  2  0  0  0  0
 20  5  1  0  0  0  0
 20 22  1  0  0  0  0
 22 21  1  1  0  0  0
 23 24  1  0  0  0  0
 23 22  1  0  0  0  0
 25 23  2  0  0  0  0
M  END
>  <MODEL>
7

>  <REMARK>
 VINA RESULT:      -7.9      3.063      5.871
  Name = 
  3 active torsions:
  status: ('A' for Active; 'I' for Inactive)
    1  A    between atoms: C_2  and  C_25
    2  A    between atoms: N_6  and  C_15
    3  A    between atoms: C_15  and  C_25
                            x       y       z     vdW  Elec       q    Type
                         _______ _______ _______ _____ _____    ______ ____

>  <TORSDO>
F 3

$$$$
=
 OpenBabel11052412513D

 25 28  0  0  1  0  0  0  0  0999 V2000
  188.1570  177.5770  143.4390 C   0  0  0  0  0  0  0  0  0  0  0  0
  187.9810  177.2790  144.7220 C   0  0  0  0  0  0  0  0  0  0  0  0
  185.7470  178.1530  143.1210 C   0  0  0  0  0  3  0  0  0  0  0  0
  189.3090  177.5140  142.5660 C   0  0  0  0  0  0  0  0  0  0  0  0
  188.9450  176.6060  146.8310 N   0  0  0  0  0  0  0  0  0  0  0  0
  191.0430  177.1590  140.3550 C   0  0  0  0  0  2  0  0  0  0  0  0
  185.5480  177.8880  144.3830 N   0  0  0  0  0  0  0  0  0  0  0  0
  188.8660  177.8660  141.3590 C   0  0  0  0  0  0  0  0  0  0  0  0
  189.7570  177.9740  140.1580 C   0  0  0  0  0  2  0  0  0  0  0  0
  186.5620  178.3760  146.5870 C   0  0  0  0  0  0  0  0  0  0  0  0
  185.2640  179.0110  146.9650 C   0  0  0  0  0  1  0  0  0  0  0  0
  189.0380  176.7550  145.4630 O   0  0  0  0  0  0  0  0  0  0  0  0
  191.6560  177.4360  141.7330 C   0  0  0  0  0  2  0  0  0  0  0  0
  187.0950  178.0250  142.5920 C   0  0  0  0  0  0  0  0  0  0  0  0
  187.4720  178.2050  141.3680 N   0  0  0  0  0  0  0  0  0  0  0  0
  187.5510  178.4970  147.4910 C   0  0  0  0  0  3  0  0  0  0  0  0
  190.6940  177.0120  142.8490 C   0  0  0  0  0  2  0  0  0  0  0  0
  188.9430  177.9430  147.4030 C   0  0  0  0  0  2  0  0  0  0  0  0
  186.5990  177.4810  145.3530 C   0  0  2  0  0  3  0  0  0  0  0  0
  190.1270  175.8820  147.3150 C   0  0  0  0  0  2  0  0  0  0  0  0
  192.0550  175.7060  145.7440 C   0  0  0  0  0  1  0  0  0  0  0  0
  191.4600  176.5090  146.8840 C   0  0  2  0  0  3  0  0  0  0  0  0
  192.4300  176.5850  148.0190 C   0  0  0  0  0  0  0  0  0  0  0  0
  193.4290  175.6280  148.1320 O   0  0  0  0  0  0  0  0  0  0  0  0
  192.3470  177.5070  148.8740 O   0  0  0  0  0  1  0  0  0  0  0  0
  1  2  2  0  0  0  0
  2 19  1  0  0  0  0
  2 12  1  0  0  0  0
  3  7  2  0  0  0  0
  4 17  1  0  0  0  0
  4  1  1  0  0  0  0
  5 20  1  0  0  0  0
  5 18  1  0  0  0  0
  6 13  1  0  0  0  0
  8 15  1  0  0  0  0
  8  4  2  0  0  0  0
  9  6  1  0  0  0  0
  9  8  1  0  0  0  0
 10 11  1  0  0  0  0
 10 16  2  0  0  0  0
 12  5  1  0  0  0  0
 13 17  1  0  0  0  0
 14  3  1  0  0  0  0
 14  1  1  0  0  0  0
 15 14  2  0  0  0  0
 18 16  1  0  0  0  0
 19  7  1  6  0  0  0
 19 10  1  0  0  0  0
 22 21  1  6  0  0  0
 22 20  1  0  0  0  0
 22 23  1  0  0  0  0
 23 24  2  0  0  0  0
 23 25  1  0  0  0  0
M  END
>  <MODEL>
8

>  <REMARK>
 VINA RESULT:      -7.7      2.331      5.632
  Name = 
  3 active torsions:
  status: ('A' for Active; 'I' for Inactive)
    1  A    between atoms: C_2  and  C_25
    2  A    between atoms: N_6  and  C_15
    3  A    between atoms: C_15  and  C_25
                            x       y       z     vdW  Elec       q    Type
                         _______ _______ _______ _____ _____    ______ ____

>  <TORSDO>
F 3

$$$$
=
 OpenBabel11052412513D

 25 28  0  0  1  0  0  0  0  0999 V2000
  187.7780  177.9570  145.5030 C   0  0  0  0  0  0  0  0  0  0  0  0
  187.0780  178.4940  144.5110 C   0  0  0  0  0  0  0  0  0  0  0  0
  186.0490  178.5570  147.2030 C   0  0  0  0  0  3  0  0  0  0  0  0
  189.0820  177.3300  145.5590 C   0  0  0  0  0  0  0  0  0  0  0  0
  186.8650  178.9400  142.1470 N   0  0  0  0  0  0  0  0  0  0  0  0
  191.6690  176.4740  146.3290 C   0  0  0  0  0  2  0  0  0  0  0  0
  185.3290  179.0730  146.2460 N   0  0  0  0  0  0  0  0  0  0  0  0
  189.2920  177.0510  146.8460 C   0  0  0  0  0  0  0  0  0  0  0  0
  190.5220  176.3510  147.3420 C   0  0  0  0  0  2  0  0  0  0  0  0
  184.5480  178.5040  143.9670 C   0  0  0  0  0  0  0  0  0  0  0  0
  183.1540  178.6300  144.4900 C   0  0  0  0  0  1  0  0  0  0  0  0
  187.6270  178.5580  143.2310 O   0  0  0  0  0  0  0  0  0  0  0  0
  191.1800  176.1530  144.9110 C   0  0  0  0  0  2  0  0  0  0  0  0
  187.3220  177.9450  146.8590 C   0  0  2  0  0  3  0  0  0  0  0  0
  188.1810  177.4230  147.6730 N   0  0  0  0  0  0  0  0  0  0  0  0
  184.6550  178.0660  142.6990 C   0  0  0  0  0  3  0  0  0  0  0  0
  190.0990  177.1480  144.4730 C   0  0  0  0  0  2  0  0  0  0  0  0
  185.9110  177.8690  141.9020 C   0  0  0  0  0  2  0  0  0  0  0  0
  185.6900  179.0730  144.8030 C   0  0  0  0  0  0  0  0  0  0  0  0
  187.7370  179.0780  140.9740 C   0  0  0  0  0  2  0  0  0  0  0  0
  189.6860  177.5380  140.7580 C   0  0  0  0  0  1  0  0  0  0  0  0
  188.2260  177.7400  140.4010 C   0  0  2  0  0  3  0  0  0  0  0  0
  188.0460  177.6710  138.9190 C   0  0  0  0  0  0  0  0  0  0  0  0
  187.2700  178.6270  138.2780 O   0  0  0  0  0  1  0  0  0  0  0  0
  188.5870  176.7520  138.2480 O   0  0  0  0  0  0  0  0  0  0  0  0
  1  4  2  0  0  0  0
  1 14  1  0  0  0  0
  2 19  2  0  0  0  0
  2  1  1  0  0  0  0
  4  8  1  0  0  0  0
  5 12  1  0  0  0  0
  6  9  1  0  0  0  0
  7  3  2  0  0  0  0
  8  9  1  0  0  0  0
  8 15  2  0  0  0  0
 10 11  1  0  0  0  0
 10 19  1  0  0  0  0
 12  2  1  0  0  0  0
 13  6  1  0  0  0  0
 14  3  1  1  0  0  0
 14 15  1  0  0  0  0
 16 10  2  0  0  0  0
 17 13  1  0  0  0  0
 17  4  1  0  0  0  0
 18  5  1  0  0  0  0
 18 16  1  0  0  0  0
 19  7  1  0  0  0  0
 20  5  1  0  0  0  0
 22 21  1  6  0  0  0
 22 20  1  0  0  0  0
 23 22  1  0  0  0  0
 24 23  1  0  0  0  0
 25 23  2  0  0  0  0
M  END
>  <MODEL>
9

>  <REMARK>
 VINA RESULT:      -7.7      1.729      4.883
  Name = 
  3 active torsions:
  status: ('A' for Active; 'I' for Inactive)
    1  A    between atoms: C_2  and  C_25
    2  A    between atoms: N_6  and  C_15
    3  A    between atoms: C_15  and  C_25
                            x       y       z     vdW  Elec       q    Type
                         _______ _______ _______ _____ _____    ______ ____

>  <TORSDO>
F 3

$$$$
