=
 OpenBabel11052412483D

 25 27  0  0  1  0  0  0  0  0999 V2000
  188.4870  177.3920  145.9730 C   0  0  0  0  0  0  0  0  0  0  0  0
  188.8040  176.0470  147.9670 O   0  0  0  0  0  1  0  0  0  0  0  0
  190.7240  176.7600  146.6840 C   0  0  0  0  0  0  0  0  0  0  0  0
  191.5690  176.1050  147.5720 O   0  0  0  0  0  1  0  0  0  0  0  0
  189.0450  178.0840  144.8860 C   0  0  0  0  0  3  0  0  0  0  0  0
  191.2680  177.4440  145.5940 C   0  0  0  0  0  3  0  0  0  0  0  0
  190.4290  178.1110  144.6970 C   0  0  0  0  0  0  0  0  0  0  0  0
  189.3360  176.7310  146.8780 C   0  0  0  0  0  0  0  0  0  0  0  0
  186.9890  177.3610  146.1800 C   0  0  2  0  0  3  0  0  0  0  0  0
  187.5170  178.9190  148.2140 C   0  0  0  0  0  1  0  0  0  0  0  0
  186.2620  177.8640  144.9810 C   0  0  0  0  0  0  0  0  0  0  0  0
  184.8060  179.1870  143.0220 C   0  0  0  0  0  3  0  0  0  0  0  0
  185.5490  178.9890  145.2950 C   0  0  0  0  0  0  0  0  0  0  0  0
  184.8110  179.6800  144.3360 C   0  0  0  0  0  3  0  0  0  0  0  0
  185.5350  178.0260  142.6950 C   0  0  0  0  0  3  0  0  0  0  0  0
  186.4600  178.2980  147.3110 C   0  0  1  0  0  3  0  0  0  0  0  0
  185.6640  179.3380  146.6600 N   0  0  0  0  0  2  0  0  0  0  0  0
  186.2750  177.3530  143.6810 C   0  0  0  0  0  3  0  0  0  0  0  0
  190.9980  178.8140  143.5160 C   0  0  0  0  0  2  0  0  0  0  0  0
  191.6760  177.8110  142.5990 C   0  0  0  0  0  2  0  0  0  0  0  0
  190.6500  177.1270  141.7100 C   0  0  0  0  0  2  0  0  0  0  0  0
  190.9790  177.3250  140.3030 N   0  0  0  0  0  2  0  0  0  0  0  0
  189.7660  177.7390  139.6150 C   0  0  1  0  0  3  0  0  0  0  0  0
  189.3710  176.7160  138.6620 N   0  0  0  0  0  1  0  0  0  0  0  0
  188.6550  177.9320  140.6270 C   0  0  0  0  0  1  0  0  0  0  0  0
  1  8  1  0  0  0  0
  3  8  2  0  0  0  0
  3  4  1  0  0  0  0
  5  1  2  0  0  0  0
  6  3  1  0  0  0  0
  7  5  1  0  0  0  0
  7  6  2  0  0  0  0
  8  2  1  0  0  0  0
  9  1  1  6  0  0  0
  9 16  1  0  0  0  0
 11 13  1  0  0  0  0
 11  9  1  0  0  0  0
 12 14  1  0  0  0  0
 13 17  1  0  0  0  0
 14 13  2  0  0  0  0
 15 12  2  0  0  0  0
 15 18  1  0  0  0  0
 16 10  1  6  0  0  0
 17 16  1  0  0  0  0
 18 11  2  0  0  0  0
 19  7  1  0  0  0  0
 20 19  1  0  0  0  0
 21 20  1  0  0  0  0
 22 21  1  0  0  0  0
 23 22  1  0  0  0  0
 23 25  1  1  0  0  0
 24 23  1  0  0  0  0
M  END
>  <MODEL>
1

>  <REMARK>
 VINA RESULT:      -8.4      0.000      0.000
  Name = 
  6 active torsions:
  status: ('A' for Active; 'I' for Inactive)
    1  A    between atoms: C_1  and  C_3
    2  A    between atoms: C_2  and  N_25
    3  A    between atoms: C_6  and  C_15
    4  A    between atoms: C_6  and  C_23
    5  A    between atoms: C_15  and  C_21
    6  A    between atoms: C_21  and  N_25
                            x       y       z     vdW  Elec       q    Type
                         _______ _______ _______ _____ _____    ______ ____

>  <TORSDO>
F 6

$$$$
=
 OpenBabel11052412483D

 25 27  0  0  1  0  0  0  0  0999 V2000
  186.4540  177.7950  144.1330 C   0  0  0  0  0  0  0  0  0  0  0  0
  184.1860  178.2110  143.3790 O   0  0  0  0  0  1  0  0  0  0  0  0
  184.7680  178.5910  145.6940 C   0  0  0  0  0  0  0  0  0  0  0  0
  183.4640  178.9880  145.9640 O   0  0  0  0  0  1  0  0  0  0  0  0
  187.3960  177.8000  145.1740 C   0  0  0  0  0  3  0  0  0  0  0  0
  185.7120  178.5830  146.7230 C   0  0  0  0  0  3  0  0  0  0  0  0
  187.0290  178.1920  146.4630 C   0  0  0  0  0  0  0  0  0  0  0  0
  185.1330  178.1990  144.3980 C   0  0  0  0  0  0  0  0  0  0  0  0
  186.8490  177.3710  142.7360 C   0  0  2  0  0  3  0  0  0  0  0  0
  186.1170  179.7980  142.0910 C   0  0  0  0  0  1  0  0  0  0  0  0
  188.2760  176.9460  142.6780 C   0  0  0  0  0  0  0  0  0  0  0  0
  191.0030  176.5660  142.3250 C   0  0  0  0  0  3  0  0  0  0  0  0
  188.9820  177.7680  141.8430 C   0  0  0  0  0  0  0  0  0  0  0  0
  190.3520  177.6080  141.6450 C   0  0  0  0  0  3  0  0  0  0  0  0
  190.2780  175.7150  143.1820 C   0  0  0  0  0  3  0  0  0  0  0  0
  186.7920  178.5020  141.6620 C   0  0  1  0  0  3  0  0  0  0  0  0
  188.1700  178.7550  141.2410 N   0  0  0  0  0  2  0  0  0  0  0  0
  188.8990  175.9020  143.3670 C   0  0  0  0  0  3  0  0  0  0  0  0
  188.0320  178.1500  147.5610 C   0  0  0  0  0  2  0  0  0  0  0  0
  188.9980  177.0000  147.3290 C   0  0  0  0  0  2  0  0  0  0  0  0
  190.4020  177.3920  147.7600 C   0  0  0  0  0  2  0  0  0  0  0  0
  191.3800  176.9590  146.7700 N   0  0  0  0  0  2  0  0  0  0  0  0
  191.8450  175.6340  147.1510 C   0  0  1  0  0  3  0  0  0  0  0  0
  192.4720  174.9880  146.0110 N   0  0  0  0  0  1  0  0  0  0  0  0
  192.8570  175.7590  148.2720 C   0  0  0  0  0  1  0  0  0  0  0  0
  1  8  2  0  0  0  0
  1  5  1  0  0  0  0
  2  8  1  0  0  0  0
  3  4  1  0  0  0  0
  3  6  2  0  0  0  0
  5  7  2  0  0  0  0
  7  6  1  0  0  0  0
  7 19  1  0  0  0  0
  8  3  1  0  0  0  0
  9  1  1  1  0  0  0
 11  9  1  0  0  0  0
 11 18  1  0  0  0  0
 12 15  1  0  0  0  0
 13 11  2  0  0  0  0
 14 13  1  0  0  0  0
 14 12  2  0  0  0  0
 15 18  2  0  0  0  0
 16 10  1  1  0  0  0
 16  9  1  0  0  0  0
 17 16  1  0  0  0  0
 17 13  1  0  0  0  0
 20 19  1  0  0  0  0
 20 21  1  0  0  0  0
 22 23  1  0  0  0  0
 22 21  1  0  0  0  0
 23 25  1  1  0  0  0
 24 23  1  0  0  0  0
M  END
>  <MODEL>
2

>  <REMARK>
 VINA RESULT:      -7.3      2.995      5.921
  Name = 
  6 active torsions:
  status: ('A' for Active; 'I' for Inactive)
    1  A    between atoms: C_1  and  C_3
    2  A    between atoms: C_2  and  N_25
    3  A    between atoms: C_6  and  C_15
    4  A    between atoms: C_6  and  C_23
    5  A    between atoms: C_15  and  C_21
    6  A    between atoms: C_21  and  N_25
                            x       y       z     vdW  Elec       q    Type
                         _______ _______ _______ _____ _____    ______ ____

>  <TORSDO>
F 6

$$$$
=
 OpenBabel11052412483D

 25 27  0  0  1  0  0  0  0  0999 V2000
  188.7930  177.2510  142.5040 C   0  0  0  0  0  0  0  0  0  0  0  0
  190.4980  176.0890  141.2300 O   0  0  0  0  0  1  0  0  0  0  0  0
  188.8650  177.4500  140.0820 C   0  0  0  0  0  0  0  0  0  0  0  0
  189.4460  177.1310  138.8610 O   0  0  0  0  0  1  0  0  0  0  0  0
  187.6800  178.1070  142.5260 C   0  0  0  0  0  3  0  0  0  0  0  0
  187.7510  178.2930  140.1150 C   0  0  0  0  0  3  0  0  0  0  0  0
  187.1610  178.6270  141.3380 C   0  0  0  0  0  0  0  0  0  0  0  0
  189.3890  176.9280  141.2730 C   0  0  0  0  0  0  0  0  0  0  0  0
  189.3570  176.6870  143.7890 C   0  0  2  0  0  3  0  0  0  0  0  0
  191.4710  178.0890  143.1520 C   0  0  0  0  0  1  0  0  0  0  0  0
  188.5080  177.0450  144.9610 C   0  0  0  0  0  0  0  0  0  0  0  0
  187.2940  178.0060  147.2650 C   0  0  0  0  0  3  0  0  0  0  0  0
  189.2170  177.8150  145.8420 C   0  0  0  0  0  0  0  0  0  0  0  0
  188.6380  178.3170  147.0060 C   0  0  0  0  0  3  0  0  0  0  0  0
  186.5620  177.2090  146.3620 C   0  0  0  0  0  3  0  0  0  0  0  0
  190.7530  177.2520  144.2010 C   0  0  1  0  0  3  0  0  0  0  0  0
  190.5510  178.0240  145.4260 N   0  0  0  0  0  2  0  0  0  0  0  0
  187.1700  176.7210  145.1940 C   0  0  0  0  0  3  0  0  0  0  0  0
  185.9550  179.4970  141.3780 C   0  0  0  0  0  2  0  0  0  0  0  0
  184.7630  178.7500  140.8040 C   0  0  0  0  0  2  0  0  0  0  0  0
  183.7160  178.5150  141.8800 C   0  0  0  0  0  2  0  0  0  0  0  0
  184.1000  179.1750  143.1220 N   0  0  0  0  0  2  0  0  0  0  0  0
  183.3220  178.5840  144.2010 C   0  0  1  0  0  3  0  0  0  0  0  0
  183.7230  179.1670  145.4690 N   0  0  0  0  0  1  0  0  0  0  0  0
  181.8500  178.8600  143.9680 C   0  0  0  0  0  1  0  0  0  0  0  0
  1  5  1  0  0  0  0
  2  8  1  0  0  0  0
  3  6  2  0  0  0  0
  3  8  1  0  0  0  0
  4  3  1  0  0  0  0
  6  7  1  0  0  0  0
  7 19  1  0  0  0  0
  7  5  2  0  0  0  0
  8  1  2  0  0  0  0
  9  1  1  6  0  0  0
  9 16  1  0  0  0  0
  9 11  1  0  0  0  0
 11 18  2  0  0  0  0
 11 13  1  0  0  0  0
 13 14  2  0  0  0  0
 14 12  1  0  0  0  0
 15 12  2  0  0  0  0
 16 10  1  6  0  0  0
 16 17  1  0  0  0  0
 17 13  1  0  0  0  0
 18 15  1  0  0  0  0
 20 19  1  0  0  0  0
 20 21  1  0  0  0  0
 21 22  1  0  0  0  0
 22 23  1  0  0  0  0
 23 25  1  6  0  0  0
 23 24  1  0  0  0  0
M  END
>  <MODEL>
3

>  <REMARK>
 VINA RESULT:      -6.9      2.969      5.964
  Name = 
  6 active torsions:
  status: ('A' for Active; 'I' for Inactive)
    1  A    between atoms: C_1  and  C_3
    2  A    between atoms: C_2  and  N_25
    3  A    between atoms: C_6  and  C_15
    4  A    between atoms: C_6  and  C_23
    5  A    between atoms: C_15  and  C_21
    6  A    between atoms: C_21  and  N_25
                            x       y       z     vdW  Elec       q    Type
                         _______ _______ _______ _____ _____    ______ ____

>  <TORSDO>
F 6

$$$$
=
 OpenBabel11052412483D

 25 27  0  0  1  0  0  0  0  0999 V2000
  189.6750  177.7000  144.4850 C   0  0  0  0  0  0  0  0  0  0  0  0
  191.6770  177.7910  145.8510 O   0  0  0  0  0  1  0  0  0  0  0  0
  189.5170  177.5500  146.9070 C   0  0  0  0  0  0  0  0  0  0  0  0
  190.1220  177.5340  148.1580 O   0  0  0  0  0  1  0  0  0  0  0  0
  188.2790  177.5780  144.4030 C   0  0  0  0  0  3  0  0  0  0  0  0
  188.1280  177.4390  146.8130 C   0  0  0  0  0  3  0  0  0  0  0  0
  187.5080  177.4470  145.5600 C   0  0  0  0  0  0  0  0  0  0  0  0
  190.2940  177.6800  145.7470 C   0  0  0  0  0  0  0  0  0  0  0  0
  190.5120  177.8420  143.2340 C   0  0  2  0  0  3  0  0  0  0  0  0
  191.5070  175.5380  143.9720 C   0  0  0  0  0  1  0  0  0  0  0  0
  189.6590  177.9690  142.0180 C   0  0  0  0  0  0  0  0  0  0  0  0
  188.2250  177.7580  139.6510 C   0  0  0  0  0  3  0  0  0  0  0  0
  189.8810  176.9180  141.1710 C   0  0  0  0  0  0  0  0  0  0  0  0
  189.1770  176.7790  139.9770 C   0  0  0  0  0  3  0  0  0  0  0  0
  187.9980  178.8450  140.5190 C   0  0  0  0  0  3  0  0  0  0  0  0
  191.4020  176.6050  142.8910 C   0  0  1  0  0  3  0  0  0  0  0  0
  190.8730  176.0340  141.6540 N   0  0  0  0  0  2  0  0  0  0  0  0
  188.7180  178.9570  141.7190 C   0  0  0  0  0  3  0  0  0  0  0  0
  186.0260  177.3610  145.4530 C   0  0  0  0  0  2  0  0  0  0  0  0
  185.4010  178.6550  145.9460 C   0  0  0  0  0  2  0  0  0  0  0  0
  184.0340  178.8590  145.3120 C   0  0  0  0  0  2  0  0  0  0  0  0
  184.1620  179.5230  144.0210 N   0  0  0  0  0  2  0  0  0  0  0  0
  183.6710  178.6110  142.9990 C   0  0  1  0  0  3  0  0  0  0  0  0
  182.3190  178.9830  142.6200 N   0  0  0  0  0  1  0  0  0  0  0  0
  184.5700  178.6880  141.7820 C   0  0  0  0  0  1  0  0  0  0  0  0
  1  8  1  0  0  0  0
  3  4  1  0  0  0  0
  5  1  2  0  0  0  0
  5  7  1  0  0  0  0
  6  3  1  0  0  0  0
  7  6  2  0  0  0  0
  8  2  1  0  0  0  0
  8  3  2  0  0  0  0
  9  1  1  1  0  0  0
 11  9  1  0  0  0  0
 12 14  2  0  0  0  0
 12 15  1  0  0  0  0
 13 17  1  0  0  0  0
 13 11  2  0  0  0  0
 14 13  1  0  0  0  0
 15 18  2  0  0  0  0
 16  9  1  0  0  0  0
 16 10  1  1  0  0  0
 17 16  1  0  0  0  0
 18 11  1  0  0  0  0
 19  7  1  0  0  0  0
 19 20  1  0  0  0  0
 21 20  1  0  0  0  0
 22 21  1  0  0  0  0
 23 25  1  6  0  0  0
 23 22  1  0  0  0  0
 24 23  1  0  0  0  0
M  END
>  <MODEL>
4

>  <REMARK>
 VINA RESULT:      -6.8      1.789      5.400
  Name = 
  6 active torsions:
  status: ('A' for Active; 'I' for Inactive)
    1  A    between atoms: C_1  and  C_3
    2  A    between atoms: C_2  and  N_25
    3  A    between atoms: C_6  and  C_15
    4  A    between atoms: C_6  and  C_23
    5  A    between atoms: C_15  and  C_21
    6  A    between atoms: C_21  and  N_25
                            x       y       z     vdW  Elec       q    Type
                         _______ _______ _______ _____ _____    ______ ____

>  <TORSDO>
F 6

$$$$
=
 OpenBabel11052412483D

 25 27  0  0  1  0  0  0  0  0999 V2000
  187.9910  178.0800  145.9710 C   0  0  0  0  0  0  0  0  0  0  0  0
  187.4190  178.7010  148.2460 O   0  0  0  0  0  1  0  0  0  0  0  0
  185.6710  178.4540  146.5960 C   0  0  0  0  0  0  0  0  0  0  0  0
  184.7150  178.7850  147.5490 O   0  0  0  0  0  1  0  0  0  0  0  0
  187.5750  177.7840  144.6640 C   0  0  0  0  0  3  0  0  0  0  0  0
  185.2700  178.1660  145.2890 C   0  0  0  0  0  3  0  0  0  0  0  0
  186.2210  177.8250  144.3230 C   0  0  0  0  0  0  0  0  0  0  0  0
  187.0290  178.4120  146.9420 C   0  0  0  0  0  0  0  0  0  0  0  0
  189.4560  178.0370  146.3430 C   0  0  2  0  0  3  0  0  0  0  0  0
  188.7220  176.0530  147.8820 C   0  0  0  0  0  1  0  0  0  0  0  0
  190.3160  177.8170  145.1460 C   0  0  0  0  0  0  0  0  0  0  0  0
  191.9920  176.9660  143.1020 C   0  0  0  0  0  3  0  0  0  0  0  0
  191.0000  176.6380  145.2630 C   0  0  0  0  0  0  0  0  0  0  0  0
  191.8460  176.1790  144.2560 C   0  0  0  0  0  3  0  0  0  0  0  0
  191.2930  178.1840  142.9800 C   0  0  0  0  0  3  0  0  0  0  0  0
  189.8660  176.8510  147.2720 C   0  0  1  0  0  3  0  0  0  0  0  0
  190.7390  175.9800  146.4860 N   0  0  0  0  0  2  0  0  0  0  0  0
  190.4420  178.6190  144.0100 C   0  0  0  0  0  3  0  0  0  0  0  0
  185.8040  177.5490  142.9220 C   0  0  0  0  0  2  0  0  0  0  0  0
  186.0170  178.7880  142.0700 C   0  0  0  0  0  2  0  0  0  0  0  0
  187.2920  178.6580  141.2520 C   0  0  0  0  0  2  0  0  0  0  0  0
  186.9850  178.6190  139.8270 N   0  0  0  0  0  2  0  0  0  0  0  0
  188.1000  177.9760  139.1480 C   0  0  1  0  0  3  0  0  0  0  0  0
  188.7350  178.9230  138.2480 N   0  0  0  0  0  1  0  0  0  0  0  0
  189.1110  177.5080  140.1740 C   0  0  0  0  0  1  0  0  0  0  0  0
  1  8  1  0  0  0  0
  3  8  2  0  0  0  0
  3  4  1  0  0  0  0
  5  1  2  0  0  0  0
  6  3  1  0  0  0  0
  7  5  1  0  0  0  0
  7  6  2  0  0  0  0
  8  2  1  0  0  0  0
  9  1  1  6  0  0  0
  9 16  1  0  0  0  0
 11 13  1  0  0  0  0
 11  9  1  0  0  0  0
 12 14  1  0  0  0  0
 13 17  1  0  0  0  0
 14 13  2  0  0  0  0
 15 12  2  0  0  0  0
 15 18  1  0  0  0  0
 16 10  1  6  0  0  0
 17 16  1  0  0  0  0
 18 11  2  0  0  0  0
 19  7  1  0  0  0  0
 20 19  1  0  0  0  0
 21 20  1  0  0  0  0
 22 21  1  0  0  0  0
 23 22  1  0  0  0  0
 23 25  1  1  0  0  0
 24 23  1  0  0  0  0
M  END
>  <MODEL>
5

>  <REMARK>
 VINA RESULT:      -6.8      2.105      4.689
  Name = 
  6 active torsions:
  status: ('A' for Active; 'I' for Inactive)
    1  A    between atoms: C_1  and  C_3
    2  A    between atoms: C_2  and  N_25
    3  A    between atoms: C_6  and  C_15
    4  A    between atoms: C_6  and  C_23
    5  A    between atoms: C_15  and  C_21
    6  A    between atoms: C_21  and  N_25
                            x       y       z     vdW  Elec       q    Type
                         _______ _______ _______ _____ _____    ______ ____

>  <TORSDO>
F 6

$$$$
=
 OpenBabel11052412483D

 25 27  0  0  1  0  0  0  0  0999 V2000
  183.8960  178.6240  139.9560 C   0  0  0  0  0  0  0  0  0  0  0  0
  185.9960  178.6770  138.7420 O   0  0  0  0  0  1  0  0  0  0  0  0
  186.0050  178.7730  141.1560 C   0  0  0  0  0  0  0  0  0  0  0  0
  187.3930  178.8440  141.1550 O   0  0  0  0  0  1  0  0  0  0  0  0
  183.2150  178.6310  141.1830 C   0  0  0  0  0  3  0  0  0  0  0  0
  185.3160  178.7880  142.3710 C   0  0  0  0  0  3  0  0  0  0  0  0
  183.9200  178.7110  142.3860 C   0  0  0  0  0  0  0  0  0  0  0  0
  185.3010  178.6910  139.9470 C   0  0  0  0  0  0  0  0  0  0  0  0
  183.1350  178.5370  138.6520 C   0  0  2  0  0  3  0  0  0  0  0  0
  182.6580  176.0810  139.4140 C   0  0  0  0  0  1  0  0  0  0  0  0
  182.0500  179.5570  138.5840 C   0  0  0  0  0  0  0  0  0  0  0  0
  179.7300  181.0790  138.5080 C   0  0  0  0  0  3  0  0  0  0  0  0
  180.8290  178.9460  138.4960 C   0  0  0  0  0  0  0  0  0  0  0  0
  179.6450  179.6790  138.4590 C   0  0  0  0  0  3  0  0  0  0  0  0
  180.9860  181.7120  138.5930 C   0  0  0  0  0  3  0  0  0  0  0  0
  182.3550  177.2030  138.4310 C   0  0  1  0  0  3  0  0  0  0  0  0
  180.9320  177.5370  138.4530 N   0  0  0  0  0  2  0  0  0  0  0  0
  182.1640  180.9480  138.6340 C   0  0  0  0  0  3  0  0  0  0  0  0
  183.1780  178.7590  143.6740 C   0  0  0  0  0  2  0  0  0  0  0  0
  184.0000  179.5040  144.7130 C   0  0  0  0  0  2  0  0  0  0  0  0
  184.4470  178.5580  145.8150 C   0  0  0  0  0  2  0  0  0  0  0  0
  185.4200  179.2080  146.6840 N   0  0  0  0  0  2  0  0  0  0  0  0
  186.7040  178.5510  146.4870 C   0  0  1  0  0  3  0  0  0  0  0  0
  187.2290  178.1080  147.7670 N   0  0  0  0  0  1  0  0  0  0  0  0
  186.5200  177.3500  145.5810 C   0  0  0  0  0  1  0  0  0  0  0  0
  1  5  1  0  0  0  0
  2  8  1  0  0  0  0
  3  6  2  0  0  0  0
  4  3  1  0  0  0  0
  5  7  2  0  0  0  0
  6  7  1  0  0  0  0
  7 19  1  0  0  0  0
  8  1  2  0  0  0  0
  8  3  1  0  0  0  0
  9  1  1  1  0  0  0
 11 18  1  0  0  0  0
 11  9  1  0  0  0  0
 12 15  1  0  0  0  0
 13 11  2  0  0  0  0
 14 13  1  0  0  0  0
 14 12  2  0  0  0  0
 15 18  2  0  0  0  0
 16 17  1  0  0  0  0
 16  9  1  0  0  0  0
 16 10  1  1  0  0  0
 17 13  1  0  0  0  0
 19 20  1  0  0  0  0
 20 21  1  0  0  0  0
 21 22  1  0  0  0  0
 23 25  1  6  0  0  0
 23 22  1  0  0  0  0
 23 24  1  0  0  0  0
M  END
>  <MODEL>
6

>  <REMARK>
 VINA RESULT:      -6.7      4.799      8.121
  Name = 
  6 active torsions:
  status: ('A' for Active; 'I' for Inactive)
    1  A    between atoms: C_1  and  C_3
    2  A    between atoms: C_2  and  N_25
    3  A    between atoms: C_6  and  C_15
    4  A    between atoms: C_6  and  C_23
    5  A    between atoms: C_15  and  C_21
    6  A    between atoms: C_21  and  N_25
                            x       y       z     vdW  Elec       q    Type
                         _______ _______ _______ _____ _____    ______ ____

>  <TORSDO>
F 6

$$$$
=
 OpenBabel11052412483D

 25 27  0  0  1  0  0  0  0  0999 V2000
  189.9070  177.2550  139.6430 C   0  0  0  0  0  0  0  0  0  0  0  0
  188.3540  178.8530  138.6840 O   0  0  0  0  0  1  0  0  0  0  0  0
  188.2110  178.3060  141.0340 C   0  0  0  0  0  0  0  0  0  0  0  0
  187.1380  179.1760  141.1780 O   0  0  0  0  0  1  0  0  0  0  0  0
  190.3700  176.5530  140.7670 C   0  0  0  0  0  3  0  0  0  0  0  0
  188.6760  177.5950  142.1430 C   0  0  0  0  0  3  0  0  0  0  0  0
  189.7590  176.7220  142.0120 C   0  0  0  0  0  0  0  0  0  0  0  0
  188.8230  178.1400  139.7830 C   0  0  0  0  0  0  0  0  0  0  0  0
  190.5660  177.0740  138.2950 C   0  0  2  0  0  3  0  0  0  0  0  0
  192.7860  177.1800  139.6750 C   0  0  0  0  0  1  0  0  0  0  0  0
  190.1190  175.8150  137.6340 C   0  0  0  0  0  0  0  0  0  0  0  0
  189.7340  173.3110  136.4980 C   0  0  0  0  0  3  0  0  0  0  0  0
  191.1810  174.9710  137.4530 C   0  0  0  0  0  0  0  0  0  0  0  0
  191.0230  173.7060  136.8890 C   0  0  0  0  0  3  0  0  0  0  0  0
  188.6390  174.1800  136.6780 C   0  0  0  0  0  3  0  0  0  0  0  0
  192.1170  176.8970  138.3370 C   0  0  1  0  0  3  0  0  0  0  0  0
  192.3990  175.5310  137.8990 N   0  0  0  0  0  2  0  0  0  0  0  0
  188.8270  175.4470  137.2530 C   0  0  0  0  0  3  0  0  0  0  0  0
  190.2380  175.9370  143.1810 C   0  0  0  0  0  2  0  0  0  0  0  0
  191.4280  176.6350  143.8160 C   0  0  0  0  0  2  0  0  0  0  0  0
  191.2450  176.7340  145.3220 C   0  0  0  0  0  2  0  0  0  0  0  0
  190.3060  177.7990  145.6550 N   0  0  0  0  0  2  0  0  0  0  0  0
  189.2580  177.2260  146.4850 C   0  0  1  0  0  3  0  0  0  0  0  0
  189.2800  177.8470  147.7980 N   0  0  0  0  0  1  0  0  0  0  0  0
  187.9110  177.4750  145.8380 C   0  0  0  0  0  1  0  0  0  0  0  0
  1  8  2  0  0  0  0
  1  5  1  0  0  0  0
  2  8  1  0  0  0  0
  3  4  1  0  0  0  0
  3  6  2  0  0  0  0
  5  7  2  0  0  0  0
  7  6  1  0  0  0  0
  7 19  1  0  0  0  0
  8  3  1  0  0  0  0
  9 16  1  0  0  0  0
  9  1  1  1  0  0  0
 11  9  1  0  0  0  0
 12 15  2  0  0  0  0
 12 14  1  0  0  0  0
 13 11  1  0  0  0  0
 13 17  1  0  0  0  0
 14 13  2  0  0  0  0
 15 18  1  0  0  0  0
 16 10  1  1  0  0  0
 17 16  1  0  0  0  0
 18 11  2  0  0  0  0
 19 20  1  0  0  0  0
 20 21  1  0  0  0  0
 21 22  1  0  0  0  0
 22 23  1  0  0  0  0
 23 25  1  6  0  0  0
 23 24  1  0  0  0  0
M  END
>  <MODEL>
7

>  <REMARK>
 VINA RESULT:      -6.6      3.742      7.796
  Name = 
  6 active torsions:
  status: ('A' for Active; 'I' for Inactive)
    1  A    between atoms: C_1  and  C_3
    2  A    between atoms: C_2  and  N_25
    3  A    between atoms: C_6  and  C_15
    4  A    between atoms: C_6  and  C_23
    5  A    between atoms: C_15  and  C_21
    6  A    between atoms: C_21  and  N_25
                            x       y       z     vdW  Elec       q    Type
                         _______ _______ _______ _____ _____    ______ ____

>  <TORSDO>
F 6

$$$$
=
 OpenBabel11052412483D

 25 27  0  0  1  0  0  0  0  0999 V2000
  189.4360  177.7850  146.2330 C   0  0  0  0  0  0  0  0  0  0  0  0
  190.6210  178.1600  148.3160 O   0  0  0  0  0  1  0  0  0  0  0  0
  188.2070  178.0400  148.3160 C   0  0  0  0  0  0  0  0  0  0  0  0
  188.1890  178.2520  149.6890 O   0  0  0  0  0  1  0  0  0  0  0  0
  188.2190  177.6110  145.5550 C   0  0  0  0  0  3  0  0  0  0  0  0
  187.0020  177.8750  147.6280 C   0  0  0  0  0  3  0  0  0  0  0  0
  187.0070  177.6550  146.2480 C   0  0  0  0  0  0  0  0  0  0  0  0
  189.4250  177.9950  147.6230 C   0  0  0  0  0  0  0  0  0  0  0  0
  190.7490  177.7370  145.4850 C   0  0  2  0  0  3  0  0  0  0  0  0
  191.1910  175.6180  146.9530 C   0  0  0  0  0  1  0  0  0  0  0  0
  190.5360  177.6360  144.0140 C   0  0  0  0  0  0  0  0  0  0  0  0
  190.3000  176.9920  141.3240 C   0  0  0  0  0  3  0  0  0  0  0  0
  191.0580  176.4640  143.5380 C   0  0  0  0  0  0  0  0  0  0  0  0
  190.9550  176.1080  142.1950 C   0  0  0  0  0  3  0  0  0  0  0  0
  189.7650  178.2020  141.8090 C   0  0  0  0  0  3  0  0  0  0  0  0
  191.6340  176.4850  145.7830 C   0  0  1  0  0  3  0  0  0  0  0  0
  191.6830  175.7000  144.5500 N   0  0  0  0  0  2  0  0  0  0  0  0
  189.8790  178.5330  143.1690 C   0  0  0  0  0  3  0  0  0  0  0  0
  185.7270  177.5110  145.5050 C   0  0  0  0  0  2  0  0  0  0  0  0
  184.9240  178.7970  145.6120 C   0  0  0  0  0  2  0  0  0  0  0  0
  184.2670  179.1250  144.2810 C   0  0  0  0  0  2  0  0  0  0  0  0
  184.8120  178.2870  143.2200 N   0  0  0  0  0  2  0  0  0  0  0  0
  184.4730  178.9030  141.9460 C   0  0  1  0  0  3  0  0  0  0  0  0
  185.6820  179.3760  141.2950 N   0  0  0  0  0  1  0  0  0  0  0  0
  183.7960  177.8800  141.0580 C   0  0  0  0  0  1  0  0  0  0  0  0
  1  8  1  0  0  0  0
  3  4  1  0  0  0  0
  5  1  2  0  0  0  0
  5  7  1  0  0  0  0
  6  3  1  0  0  0  0
  7  6  2  0  0  0  0
  8  3  2  0  0  0  0
  8  2  1  0  0  0  0
  9 16  1  0  0  0  0
  9  1  1  1  0  0  0
 11  9  1  0  0  0  0
 12 15  2  0  0  0  0
 12 14  1  0  0  0  0
 13 11  1  0  0  0  0
 13 17  1  0  0  0  0
 14 13  2  0  0  0  0
 15 18  1  0  0  0  0
 16 10  1  1  0  0  0
 17 16  1  0  0  0  0
 18 11  2  0  0  0  0
 19 20  1  0  0  0  0
 19  7  1  0  0  0  0
 21 20  1  0  0  0  0
 22 21  1  0  0  0  0
 23 25  1  6  0  0  0
 23 22  1  0  0  0  0
 24 23  1  0  0  0  0
M  END
>  <MODEL>
8

>  <REMARK>
 VINA RESULT:      -6.6      2.043      5.166
  Name = 
  6 active torsions:
  status: ('A' for Active; 'I' for Inactive)
    1  A    between atoms: C_1  and  C_3
    2  A    between atoms: C_2  and  N_25
    3  A    between atoms: C_6  and  C_15
    4  A    between atoms: C_6  and  C_23
    5  A    between atoms: C_15  and  C_21
    6  A    between atoms: C_21  and  N_25
                            x       y       z     vdW  Elec       q    Type
                         _______ _______ _______ _____ _____    ______ ____

>  <TORSDO>
F 6

$$$$
=
 OpenBabel11052412483D

 25 27  0  0  1  0  0  0  0  0999 V2000
  188.8580  177.0210  143.3850 C   0  0  0  0  0  0  0  0  0  0  0  0
  190.6210  175.4230  142.9150 O   0  0  0  0  0  1  0  0  0  0  0  0
  189.7000  176.7530  141.1200 C   0  0  0  0  0  0  0  0  0  0  0  0
  190.5560  176.1370  140.2150 O   0  0  0  0  0  1  0  0  0  0  0  0
  187.9720  178.0070  142.9220 C   0  0  0  0  0  3  0  0  0  0  0  0
  188.8080  177.7300  140.6700 C   0  0  0  0  0  3  0  0  0  0  0  0
  187.9470  178.3610  141.5720 C   0  0  0  0  0  0  0  0  0  0  0  0
  189.7290  176.3960  142.4750 C   0  0  0  0  0  0  0  0  0  0  0  0
  188.8870  176.6350  144.8470 C   0  0  2  0  0  3  0  0  0  0  0  0
  191.2750  177.7010  144.7950 C   0  0  0  0  0  1  0  0  0  0  0  0
  187.7680  177.2670  145.6010 C   0  0  0  0  0  0  0  0  0  0  0  0
  186.0280  178.7200  147.2040 C   0  0  0  0  0  3  0  0  0  0  0  0
  188.2580  178.1070  146.5630 C   0  0  0  0  0  0  0  0  0  0  0  0
  187.4150  178.8540  147.3830 C   0  0  0  0  0  3  0  0  0  0  0  0
  185.5190  177.8520  146.2180 C   0  0  0  0  0  3  0  0  0  0  0  0
  190.1420  177.1280  145.6350 C   0  0  1  0  0  3  0  0  0  0  0  0
  189.6710  178.1150  146.6050 N   0  0  0  0  0  2  0  0  0  0  0  0
  186.3940  177.1160  145.4020 C   0  0  0  0  0  3  0  0  0  0  0  0
  186.9720  179.3780  141.0940 C   0  0  0  0  0  2  0  0  0  0  0  0
  185.7150  179.3240  141.9450 C   0  0  0  0  0  2  0  0  0  0  0  0
  184.5170  178.9270  141.0990 C   0  0  0  0  0  2  0  0  0  0  0  0
  184.6880  179.3800  139.7240 N   0  0  0  0  0  2  0  0  0  0  0  0
  184.3650  178.2670  138.8430 C   0  0  1  0  0  3  0  0  0  0  0  0
  183.1940  178.5970  138.0480 N   0  0  0  0  0  1  0  0  0  0  0  0
  185.5360  178.0000  137.9200 C   0  0  0  0  0  1  0  0  0  0  0  0
  3  8  1  0  0  0  0
  4  3  1  0  0  0  0
  5  1  1  0  0  0  0
  6  3  2  0  0  0  0
  6  7  1  0  0  0  0
  7  5  2  0  0  0  0
  8  2  1  0  0  0  0
  8  1  2  0  0  0  0
  9  1  1  6  0  0  0
  9 11  1  0  0  0  0
  9 16  1  0  0  0  0
 11 13  1  0  0  0  0
 12 14  1  0  0  0  0
 13 17  1  0  0  0  0
 13 14  2  0  0  0  0
 15 12  2  0  0  0  0
 16 10  1  6  0  0  0
 16 17  1  0  0  0  0
 18 11  2  0  0  0  0
 18 15  1  0  0  0  0
 19  7  1  0  0  0  0
 19 20  1  0  0  0  0
 21 20  1  0  0  0  0
 22 21  1  0  0  0  0
 23 25  1  6  0  0  0
 23 22  1  0  0  0  0
 24 23  1  0  0  0  0
M  END
>  <MODEL>
9

>  <REMARK>
 VINA RESULT:      -6.6      3.061      4.742
  Name = 
  6 active torsions:
  status: ('A' for Active; 'I' for Inactive)
    1  A    between atoms: C_1  and  C_3
    2  A    between atoms: C_2  and  N_25
    3  A    between atoms: C_6  and  C_15
    4  A    between atoms: C_6  and  C_23
    5  A    between atoms: C_15  and  C_21
    6  A    between atoms: C_21  and  N_25
                            x       y       z     vdW  Elec       q    Type
                         _______ _______ _______ _____ _____    ______ ____

>  <TORSDO>
F 6

$$$$
