=
 OpenBabel11052416563D

 32 36  0  0  1  0  0  0  0  0999 V2000
  188.2910  177.6930  137.4530 C   0  0  1  0  0  3  0  0  0  0  0  0
  188.9100  177.3870  142.5340 C   0  0  0  0  0  0  0  0  0  0  0  0
  184.5870  178.6500  144.3380 C   0  0  0  0  0  3  0  0  0  0  0  0
  185.0520  178.3720  145.6240 C   0  0  0  0  0  3  0  0  0  0  0  0
  189.3130  177.4710  140.1520 C   0  0  0  0  0  0  0  0  0  0  0  0
  187.1790  178.1030  141.0410 N   0  0  0  0  0  0  0  0  0  0  0  0
  187.4690  178.2860  138.6010 C   0  0  0  0  0  2  0  0  0  0  0  0
  185.4290  178.4810  143.2360 C   0  0  0  0  0  3  0  0  0  0  0  0
  187.5980  177.8490  142.3130 C   0  0  0  0  0  0  0  0  0  0  0  0
  186.7470  178.0330  143.4120 C   0  0  0  0  0  0  0  0  0  0  0  0
  188.5520  177.3120  144.8880 C   0  0  0  0  0  0  0  0  0  0  0  0
  189.7850  177.8800  137.7130 C   0  0  0  0  0  2  0  0  0  0  0  0
  187.9870  177.9150  139.9640 C   0  0  0  0  0  0  0  0  0  0  0  0
  190.2240  177.1750  138.9970 C   0  0  0  0  0  2  0  0  0  0  0  0
  186.3630  177.9270  145.8140 C   0  0  0  0  0  3  0  0  0  0  0  0
  187.2230  177.7560  144.7170 C   0  0  0  0  0  0  0  0  0  0  0  0
  189.7590  177.1940  141.4460 C   0  0  0  0  0  3  0  0  0  0  0  0
  189.3430  177.1280  143.7940 N   0  0  0  0  0  0  0  0  0  0  0  0
  189.5080  178.2440  146.9760 C   0  0  2  0  0  3  0  0  0  0  0  0
  189.0950  176.9740  146.2500 C   0  0  2  0  0  3  0  0  0  0  0  0
  190.5690  177.3340  146.3530 C   0  0  2  0  0  3  0  0  0  0  0  0
  189.2970  178.0610  148.4740 C   0  0  0  0  0  2  0  0  0  0  0  0
  187.8200  177.8930  148.7620 C   0  0  0  0  0  1  0  0  0  0  0  0
  192.1410  177.1050  148.1460 O   0  0  0  0  0  1  0  0  0  0  0  0
  191.2710  176.3850  147.3240 C   0  0  2  0  0  3  0  0  0  0  0  0
  192.0390  175.3060  146.5710 C   0  0  0  0  0  2  0  0  0  0  0  0
  192.0610  175.5800  145.2020 O   0  0  0  0  0  1  0  0  0  0  0  0
  186.7210  175.8590  137.2420 N   0  0  0  0  0  0  0  0  0  0  0  0
  187.9520  176.2550  137.2170 C   0  0  0  0  0  3  0  0  0  0  0  0
  186.3560  174.4940  137.0250 C   0  0  0  0  0  0  0  0  0  0  0  0
  187.4180  173.4760  136.8170 C   0  0  0  0  0  1  0  0  0  0  0  0
  185.1440  174.1410  137.0090 O   0  0  0  0  0  0  0  0  0  0  0  0
  1 29  1  1  0  0  0
  1 12  1  0  0  0  0
  1  7  1  0  0  0  0
  2 18  1  0  0  0  0
  3  4  1  0  0  0  0
  4 15  2  0  0  0  0
  5 17  1  0  0  0  0
  6  9  2  0  0  0  0
  7 13  1  0  0  0  0
  8 10  1  0  0  0  0
  8  3  2  0  0  0  0
  9  2  1  0  0  0  0
  9 10  1  0  0  0  0
 10 16  2  0  0  0  0
 12 14  1  0  0  0  0
 13  5  2  0  0  0  0
 13  6  1  0  0  0  0
 14  5  1  0  0  0  0
 16 11  1  0  0  0  0
 16 15  1  0  0  0  0
 17  2  2  0  0  0  0
 18 11  2  0  0  0  0
 19 22  1  1  0  0  0
 20 11  1  6  0  0  0
 20 21  1  0  0  0  0
 20 19  1  0  0  0  0
 21 19  1  0  0  0  0
 21 25  1  1  0  0  0
 22 23  1  0  0  0  0
 25 24  1  6  0  0  0
 26 25  1  0  0  0  0
 27 26  1  0  0  0  0
 29 28  2  0  0  0  0
 30 28  1  0  0  0  0
 31 30  1  0  0  0  0
 32 30  2  0  0  0  0
M  END
>  <MODEL>
1

>  <REMARK>
 VINA RESULT:      -9.5      0.000      0.000
  Name = 
  6 active torsions:
  status: ('A' for Active; 'I' for Inactive)
    1  A    between atoms: C_1  and  N_10
    2  A    between atoms: C_2  and  C_24
    3  A    between atoms: C_6  and  C_7
    4  A    between atoms: C_11  and  C_22
    5  A    between atoms: C_16  and  C_27
    6  A    between atoms: C_22  and  C_32
                            x       y       z     vdW  Elec       q    Type
                         _______ _______ _______ _____ _____    ______ ____

>  <TORSDO>
F 6

$$$$
=
 OpenBabel11052416563D

 32 36  0  0  1  0  0  0  0  0999 V2000
  180.7900  178.7630  141.2260 C   0  0  1  0  0  3  0  0  0  0  0  0
  185.8600  178.4370  141.9180 C   0  0  0  0  0  0  0  0  0  0  0  0
  186.3710  177.8170  146.7030 C   0  0  0  0  0  3  0  0  0  0  0  0
  187.7480  177.6700  146.5280 C   0  0  0  0  0  3  0  0  0  0  0  0
  183.6720  178.8050  140.9590 C   0  0  0  0  0  0  0  0  0  0  0  0
  183.9220  178.5070  143.3250 N   0  0  0  0  0  0  0  0  0  0  0  0
  181.6420  178.9250  142.4880 C   0  0  0  0  0  2  0  0  0  0  0  0
  185.5460  178.0510  145.6010 C   0  0  0  0  0  3  0  0  0  0  0  0
  185.2720  178.3650  143.1960 C   0  0  0  0  0  0  0  0  0  0  0  0
  186.0920  178.1410  144.3120 C   0  0  0  0  0  0  0  0  0  0  0  0
  188.0330  178.0960  142.8330 C   0  0  0  0  0  0  0  0  0  0  0  0
  181.4290  179.5010  140.0510 C   0  0  0  0  0  2  0  0  0  0  0  0
  183.1120  178.7090  142.2510 C   0  0  0  0  0  0  0  0  0  0  0  0
  182.8200  178.9520  139.7330 C   0  0  0  0  0  2  0  0  0  0  0  0
  188.3050  177.7600  145.2500 C   0  0  0  0  0  3  0  0  0  0  0  0
  187.4890  177.9980  144.1320 C   0  0  0  0  0  0  0  0  0  0  0  0
  185.0510  178.6510  140.8040 C   0  0  0  0  0  3  0  0  0  0  0  0
  187.2020  178.2960  141.7730 N   0  0  0  0  0  0  0  0  0  0  0  0
  189.7340  176.8610  141.5190 C   0  0  2  0  0  3  0  0  0  0  0  0
  189.5070  177.9200  142.5870 C   0  0  2  0  0  3  0  0  0  0  0  0
  189.9640  176.5280  142.9960 C   0  0  2  0  0  3  0  0  0  0  0  0
  190.9910  177.2020  140.7290 C   0  0  0  0  0  2  0  0  0  0  0  0
  190.6950  177.1270  139.2460 C   0  0  0  0  0  1  0  0  0  0  0  0
  191.7760  175.3470  144.0260 O   0  0  0  0  0  1  0  0  0  0  0  0
  191.4210  176.5720  143.4580 C   0  0  2  0  0  3  0  0  0  0  0  0
  191.6370  177.6950  144.4650 C   0  0  0  0  0  2  0  0  0  0  0  0
  191.8350  177.1780  145.7470 O   0  0  0  0  0  1  0  0  0  0  0  0
  179.4680  176.7330  141.2990 N   0  0  0  0  0  0  0  0  0  0  0  0
  180.5500  177.3230  140.9030 C   0  0  0  0  0  3  0  0  0  0  0  0
  179.2030  175.3580  141.0140 C   0  0  0  0  0  0  0  0  0  0  0  0
  179.1360  174.9030  139.6010 C   0  0  0  0  0  1  0  0  0  0  0  0
  179.0260  174.5250  141.9440 O   0  0  0  0  0  0  0  0  0  0  0  0
  1 29  1  6  0  0  0
  1  7  1  0  0  0  0
  2  9  1  0  0  0  0
  4  3  1  0  0  0  0
  5 13  1  0  0  0  0
  8  3  2  0  0  0  0
  9  6  1  0  0  0  0
  9 10  2  0  0  0  0
 10  8  1  0  0  0  0
 11 16  2  0  0  0  0
 12  1  1  0  0  0  0
 13  7  1  0  0  0  0
 13  6  2  0  0  0  0
 14 12  1  0  0  0  0
 14  5  1  0  0  0  0
 15  4  2  0  0  0  0
 16 10  1  0  0  0  0
 16 15  1  0  0  0  0
 17  5  2  0  0  0  0
 17  2  1  0  0  0  0
 18  2  2  0  0  0  0
 18 11  1  0  0  0  0
 19 22  1  6  0  0  0
 19 20  1  0  0  0  0
 19 21  1  0  0  0  0
 20 11  1  1  0  0  0
 20 21  1  0  0  0  0
 21 25  1  6  0  0  0
 23 22  1  0  0  0  0
 25 24  1  1  0  0  0
 25 26  1  0  0  0  0
 26 27  1  0  0  0  0
 29 28  2  0  0  0  0
 30 28  1  0  0  0  0
 30 32  2  0  0  0  0
 31 30  1  0  0  0  0
M  END
>  <MODEL>
2

>  <REMARK>
 VINA RESULT:      -9.2      3.592      5.705
  Name = 
  6 active torsions:
  status: ('A' for Active; 'I' for Inactive)
    1  A    between atoms: C_1  and  N_10
    2  A    between atoms: C_2  and  C_24
    3  A    between atoms: C_6  and  C_7
    4  A    between atoms: C_11  and  C_22
    5  A    between atoms: C_16  and  C_27
    6  A    between atoms: C_22  and  C_32
                            x       y       z     vdW  Elec       q    Type
                         _______ _______ _______ _____ _____    ______ ____

>  <TORSDO>
F 6

$$$$
=
 OpenBabel11052416563D

 32 36  0  0  1  0  0  0  0  0999 V2000
  180.3850  179.0770  141.3680 C   0  0  1  0  0  3  0  0  0  0  0  0
  185.3130  178.1290  142.4220 C   0  0  0  0  0  0  0  0  0  0  0  0
  185.5790  178.4480  147.2560 C   0  0  0  0  0  3  0  0  0  0  0  0
  186.9180  178.0580  147.1990 C   0  0  0  0  0  3  0  0  0  0  0  0
  183.2430  178.6200  141.2760 C   0  0  0  0  0  0  0  0  0  0  0  0
  183.3730  178.7860  143.6640 N   0  0  0  0  0  0  0  0  0  0  0  0
  181.2160  179.3650  142.6220 C   0  0  0  0  0  2  0  0  0  0  0  0
  184.8340  178.5700  146.0800 C   0  0  0  0  0  3  0  0  0  0  0  0
  184.6840  178.4160  143.6490 C   0  0  0  0  0  0  0  0  0  0  0  0
  185.4250  178.3060  144.8360 C   0  0  0  0  0  0  0  0  0  0  0  0
  187.3750  177.6580  143.5190 C   0  0  0  0  0  0  0  0  0  0  0  0
  181.1700  179.4470  140.1100 C   0  0  0  0  0  2  0  0  0  0  0  0
  182.6380  178.8820  142.5230 C   0  0  0  0  0  0  0  0  0  0  0  0
  182.4610  178.6370  139.9950 C   0  0  0  0  0  2  0  0  0  0  0  0
  187.5190  177.7940  145.9660 C   0  0  0  0  0  3  0  0  0  0  0  0
  186.7850  177.9170  144.7750 C   0  0  0  0  0  0  0  0  0  0  0  0
  184.5820  178.2280  141.2400 C   0  0  0  0  0  3  0  0  0  0  0  0
  186.6180  177.7570  142.3900 N   0  0  0  0  0  0  0  0  0  0  0  0
  189.7400  178.3400  143.8120 C   0  0  2  0  0  3  0  0  0  0  0  0
  188.8060  177.2100  143.4040 C   0  0  2  0  0  3  0  0  0  0  0  0
  189.5400  178.0020  142.3320 C   0  0  2  0  0  3  0  0  0  0  0  0
  190.9950  177.7540  144.4450 C   0  0  0  0  0  2  0  0  0  0  0  0
  190.6570  177.1790  145.8040 C   0  0  0  0  0  1  0  0  0  0  0  0
  191.7030  177.9430  141.3050 O   0  0  0  0  0  1  0  0  0  0  0  0
  190.6340  177.1390  141.7030 C   0  0  2  0  0  3  0  0  0  0  0  0
  190.0940  176.3620  140.5090 C   0  0  0  0  0  2  0  0  0  0  0  0
  191.0930  176.1720  139.5510 O   0  0  0  0  0  1  0  0  0  0  0  0
  179.9690  176.9830  140.2220 N   0  0  0  0  0  0  0  0  0  0  0  0
  179.9240  177.6550  141.3260 C   0  0  0  0  0  3  0  0  0  0  0  0
  179.5340  175.6240  140.1390 C   0  0  0  0  0  0  0  0  0  0  0  0
  179.3240  174.8450  141.3870 C   0  0  0  0  0  1  0  0  0  0  0  0
  179.3260  175.0760  139.0220 O   0  0  0  0  0  0  0  0  0  0  0  0
  1 29  1  6  0  0  0
  1  7  1  0  0  0  0
  2  9  1  0  0  0  0
  4  3  1  0  0  0  0
  5 13  1  0  0  0  0
  8  3  2  0  0  0  0
  9  6  1  0  0  0  0
  9 10  2  0  0  0  0
 10  8  1  0  0  0  0
 11 16  2  0  0  0  0
 12  1  1  0  0  0  0
 13  7  1  0  0  0  0
 13  6  2  0  0  0  0
 14 12  1  0  0  0  0
 14  5  1  0  0  0  0
 15  4  2  0  0  0  0
 16 10  1  0  0  0  0
 16 15  1  0  0  0  0
 17  5  2  0  0  0  0
 17  2  1  0  0  0  0
 18  2  2  0  0  0  0
 18 11  1  0  0  0  0
 19 22  1  1  0  0  0
 20 11  1  6  0  0  0
 20 19  1  0  0  0  0
 21 25  1  1  0  0  0
 21 20  1  0  0  0  0
 21 19  1  0  0  0  0
 22 23  1  0  0  0  0
 25 24  1  6  0  0  0
 26 25  1  0  0  0  0
 27 26  1  0  0  0  0
 28 29  2  0  0  0  0
 30 28  1  0  0  0  0
 30 31  1  0  0  0  0
 32 30  2  0  0  0  0
M  END
>  <MODEL>
3

>  <REMARK>
 VINA RESULT:      -8.3      3.698      5.660
  Name = 
  6 active torsions:
  status: ('A' for Active; 'I' for Inactive)
    1  A    between atoms: C_1  and  N_10
    2  A    between atoms: C_2  and  C_24
    3  A    between atoms: C_6  and  C_7
    4  A    between atoms: C_11  and  C_22
    5  A    between atoms: C_16  and  C_27
    6  A    between atoms: C_22  and  C_32
                            x       y       z     vdW  Elec       q    Type
                         _______ _______ _______ _____ _____    ______ ____

>  <TORSDO>
F 6

$$$$
=
 OpenBabel11052416563D

 32 36  0  0  1  0  0  0  0  0999 V2000
  179.7680  178.8070  141.9650 C   0  0  1  0  0  3  0  0  0  0  0  0
  184.7800  178.8100  140.8850 C   0  0  0  0  0  0  0  0  0  0  0  0
  186.9030  177.6280  145.0840 C   0  0  0  0  0  3  0  0  0  0  0  0
  188.1430  177.6180  144.4450 C   0  0  0  0  0  3  0  0  0  0  0  0
  182.3860  179.1180  140.7690 C   0  0  0  0  0  0  0  0  0  0  0  0
  183.4330  178.5420  142.8470 N   0  0  0  0  0  0  0  0  0  0  0  0
  180.9910  178.8760  142.8830 C   0  0  0  0  0  2  0  0  0  0  0  0
  185.7450  177.9330  144.3640 C   0  0  0  0  0  3  0  0  0  0  0  0
  184.6620  178.5280  142.2600 C   0  0  0  0  0  0  0  0  0  0  0  0
  185.8190  178.2310  142.9960 C   0  0  0  0  0  0  0  0  0  0  0  0
  187.1450  178.5330  140.9690 C   0  0  0  0  0  0  0  0  0  0  0  0
  179.9460  179.7390  140.7660 C   0  0  0  0  0  2  0  0  0  0  0  0
  182.3000  178.8120  142.1440 C   0  0  0  0  0  0  0  0  0  0  0  0
  181.1640  179.3500  139.9290 C   0  0  0  0  0  2  0  0  0  0  0  0
  188.2310  177.9150  143.0820 C   0  0  0  0  0  3  0  0  0  0  0  0
  187.0770  178.2270  142.3450 C   0  0  0  0  0  0  0  0  0  0  0  0
  183.6350  179.0980  140.1460 C   0  0  0  0  0  3  0  0  0  0  0  0
  185.9980  178.7990  140.2850 N   0  0  0  0  0  0  0  0  0  0  0  0
  188.2210  178.1330  138.7720 C   0  0  2  0  0  3  0  0  0  0  0  0
  188.4530  178.5110  140.2260 C   0  0  2  0  0  3  0  0  0  0  0  0
  188.7870  177.1040  139.7540 C   0  0  2  0  0  3  0  0  0  0  0  0
  189.2550  178.8290  137.8970 C   0  0  0  0  0  2  0  0  0  0  0  0
  189.1690  178.2910  136.4840 C   0  0  0  0  0  1  0  0  0  0  0  0
  190.6100  175.6810  139.1300 O   0  0  0  0  0  1  0  0  0  0  0  0
  190.3030  176.9160  139.7050 C   0  0  2  0  0  3  0  0  0  0  0  0
  190.9080  177.0050  141.1000 C   0  0  0  0  0  2  0  0  0  0  0  0
  190.5610  175.8870  141.8620 O   0  0  0  0  0  1  0  0  0  0  0  0
  179.9290  176.9650  140.3990 N   0  0  0  0  0  0  0  0  0  0  0  0
  179.4810  177.4050  141.5300 C   0  0  0  0  0  3  0  0  0  0  0  0
  179.6740  175.6340  139.9460 C   0  0  0  0  0  0  0  0  0  0  0  0
  179.4400  174.5540  140.9400 C   0  0  0  0  0  1  0  0  0  0  0  0
  179.6450  175.3620  138.7140 O   0  0  0  0  0  0  0  0  0  0  0  0
  1 29  1  6  0  0  0
  1  7  1  0  0  0  0
  2  9  1  0  0  0  0
  4  3  1  0  0  0  0
  5 13  1  0  0  0  0
  8  3  2  0  0  0  0
  9  6  1  0  0  0  0
  9 10  2  0  0  0  0
 10  8  1  0  0  0  0
 11 16  2  0  0  0  0
 12  1  1  0  0  0  0
 13  6  2  0  0  0  0
 13  7  1  0  0  0  0
 14 12  1  0  0  0  0
 14  5  1  0  0  0  0
 15  4  2  0  0  0  0
 16 10  1  0  0  0  0
 16 15  1  0  0  0  0
 17  5  2  0  0  0  0
 17  2  1  0  0  0  0
 18  2  2  0  0  0  0
 18 11  1  0  0  0  0
 19 22  1  6  0  0  0
 19 21  1  0  0  0  0
 19 20  1  0  0  0  0
 20 11  1  1  0  0  0
 21 25  1  6  0  0  0
 21 20  1  0  0  0  0
 23 22  1  0  0  0  0
 25 24  1  1  0  0  0
 25 26  1  0  0  0  0
 26 27  1  0  0  0  0
 28 29  2  0  0  0  0
 30 28  1  0  0  0  0
 30 31  1  0  0  0  0
 32 30  2  0  0  0  0
M  END
>  <MODEL>
4

>  <REMARK>
 VINA RESULT:      -7.8      3.835      6.955
  Name = 
  6 active torsions:
  status: ('A' for Active; 'I' for Inactive)
    1  A    between atoms: C_1  and  N_10
    2  A    between atoms: C_2  and  C_24
    3  A    between atoms: C_6  and  C_7
    4  A    between atoms: C_11  and  C_22
    5  A    between atoms: C_16  and  C_27
    6  A    between atoms: C_22  and  C_32
                            x       y       z     vdW  Elec       q    Type
                         _______ _______ _______ _____ _____    ______ ____

>  <TORSDO>
F 6

$$$$
=
 OpenBabel11052416563D

 32 36  0  0  1  0  0  0  0  0999 V2000
  180.5470  179.2010  137.5630 C   0  0  1  0  0  3  0  0  0  0  0  0
  184.3100  178.5470  140.9850 C   0  0  0  0  0  0  0  0  0  0  0  0
  188.3370  178.2920  138.2910 C   0  0  0  0  0  3  0  0  0  0  0  0
  189.1020  178.2300  139.4570 C   0  0  0  0  0  3  0  0  0  0  0  0
  182.1410  178.7150  139.9300 C   0  0  0  0  0  0  0  0  0  0  0  0
  184.1290  178.5810  138.5960 N   0  0  0  0  0  0  0  0  0  0  0  0
  181.9820  178.6960  137.3910 C   0  0  0  0  0  2  0  0  0  0  0  0
  186.9450  178.3830  138.3700 C   0  0  0  0  0  3  0  0  0  0  0  0
  184.9100  178.5110  139.7110 C   0  0  0  0  0  0  0  0  0  0  0  0
  186.3060  178.4100  139.6190 C   0  0  0  0  0  0  0  0  0  0  0  0
  186.4300  178.3630  142.0560 C   0  0  0  0  0  0  0  0  0  0  0  0
  179.9000  178.5650  138.7930 C   0  0  0  0  0  2  0  0  0  0  0  0
  182.7750  178.6960  138.6700 C   0  0  0  0  0  0  0  0  0  0  0  0
  180.6610  178.9150  140.0720 C   0  0  0  0  0  2  0  0  0  0  0  0
  188.4780  178.2540  140.7060 C   0  0  0  0  0  3  0  0  0  0  0  0
  187.0800  178.3400  140.8030 C   0  0  0  0  0  0  0  0  0  0  0  0
  182.9240  178.6560  141.0840 C   0  0  0  0  0  3  0  0  0  0  0  0
  185.0740  178.4800  142.1050 N   0  0  0  0  0  0  0  0  0  0  0  0
  187.5960  176.8910  143.6740 C   0  0  2  0  0  3  0  0  0  0  0  0
  187.2090  178.3240  143.3420 C   0  0  2  0  0  3  0  0  0  0  0  0
  186.4440  177.5710  144.4200 C   0  0  2  0  0  3  0  0  0  0  0  0
  188.9290  176.8850  144.4110 C   0  0  0  0  0  2  0  0  0  0  0  0
  190.0150  176.3690  143.4910 C   0  0  0  0  0  1  0  0  0  0  0  0
  186.7440  177.1140  146.7520 O   0  0  0  0  0  1  0  0  0  0  0  0
  186.7960  178.1320  145.7970 C   0  0  2  0  0  3  0  0  0  0  0  0
  185.8450  179.2570  146.1850 C   0  0  0  0  0  2  0  0  0  0  0  0
  184.5740  178.7540  146.4700 O   0  0  0  0  0  1  0  0  0  0  0  0
  180.7340  181.4050  136.5730 N   0  0  0  0  0  0  0  0  0  0  0  0
  180.4910  180.6950  137.6270 C   0  0  0  0  0  3  0  0  0  0  0  0
  180.6940  182.8340  136.5930 C   0  0  0  0  0  0  0  0  0  0  0  0
  180.5970  183.5810  135.3120 C   0  0  0  0  0  1  0  0  0  0  0  0
  180.7400  183.4690  137.6820 O   0  0  0  0  0  0  0  0  0  0  0  0
  1 29  1  1  0  0  0
  1 12  1  0  0  0  0
  2 17  2  0  0  0  0
  2 18  1  0  0  0  0
  3  8  2  0  0  0  0
  3  4  1  0  0  0  0
  4 15  2  0  0  0  0
  5 14  1  0  0  0  0
  5 17  1  0  0  0  0
  6 13  1  0  0  0  0
  6  9  2  0  0  0  0
  7  1  1  0  0  0  0
  7 13  1  0  0  0  0
  8 10  1  0  0  0  0
  9  2  1  0  0  0  0
 10  9  1  0  0  0  0
 10 16  2  0  0  0  0
 11 18  2  0  0  0  0
 12 14  1  0  0  0  0
 13  5  2  0  0  0  0
 15 16  1  0  0  0  0
 16 11  1  0  0  0  0
 19 22  1  1  0  0  0
 19 21  1  0  0  0  0
 20 11  1  6  0  0  0
 20 19  1  0  0  0  0
 20 21  1  0  0  0  0
 21 25  1  1  0  0  0
 23 22  1  0  0  0  0
 25 26  1  0  0  0  0
 25 24  1  1  0  0  0
 26 27  1  0  0  0  0
 28 30  1  0  0  0  0
 28 29  2  0  0  0  0
 30 32  2  0  0  0  0
 31 30  1  0  0  0  0
M  END
>  <MODEL>
5

>  <REMARK>
 VINA RESULT:      -7.6      4.850      6.820
  Name = 
  6 active torsions:
  status: ('A' for Active; 'I' for Inactive)
    1  A    between atoms: C_1  and  N_10
    2  A    between atoms: C_2  and  C_24
    3  A    between atoms: C_6  and  C_7
    4  A    between atoms: C_11  and  C_22
    5  A    between atoms: C_16  and  C_27
    6  A    between atoms: C_22  and  C_32
                            x       y       z     vdW  Elec       q    Type
                         _______ _______ _______ _____ _____    ______ ____

>  <TORSDO>
F 6

$$$$
=
 OpenBabel11052416563D

 32 36  0  0  1  0  0  0  0  0999 V2000
  190.8800  175.6610  135.5780 C   0  0  1  0  0  3  0  0  0  0  0  0
  189.8230  177.2970  140.3210 C   0  0  0  0  0  0  0  0  0  0  0  0
  185.2780  178.9680  140.0190 C   0  0  0  0  0  3  0  0  0  0  0  0
  185.2840  179.2080  141.3930 C   0  0  0  0  0  3  0  0  0  0  0  0
  190.9680  176.5030  138.3470 C   0  0  0  0  0  0  0  0  0  0  0  0
  188.7250  177.3350  138.1920 N   0  0  0  0  0  0  0  0  0  0  0  0
  189.7910  176.6060  136.0930 C   0  0  0  0  0  2  0  0  0  0  0  0
  186.4080  178.4340  139.3950 C   0  0  0  0  0  3  0  0  0  0  0  0
  188.6950  177.5910  139.5310 C   0  0  0  0  0  0  0  0  0  0  0  0
  187.5570  178.1370  140.1440 C   0  0  0  0  0  0  0  0  0  0  0  0
  188.7300  178.0900  142.2840 C   0  0  0  0  0  0  0  0  0  0  0  0
  192.2250  175.9910  136.2250 C   0  0  0  0  0  2  0  0  0  0  0  0
  189.8150  176.7910  137.5860 C   0  0  0  0  0  0  0  0  0  0  0  0
  192.1690  175.8340  137.7450 C   0  0  0  0  0  2  0  0  0  0  0  0
  186.4220  178.9190  142.1500 C   0  0  0  0  0  3  0  0  0  0  0  0
  187.5680  178.3860  141.5380 C   0  0  0  0  0  0  0  0  0  0  0  0
  190.9530  176.7460  139.7210 C   0  0  0  0  0  3  0  0  0  0  0  0
  189.8080  177.5440  141.6560 N   0  0  0  0  0  0  0  0  0  0  0  0
  189.4500  177.1210  144.4490 C   0  0  2  0  0  3  0  0  0  0  0  0
  188.7790  178.3060  143.7720 C   0  0  2  0  0  3  0  0  0  0  0  0
  187.9270  177.2780  144.5000 C   0  0  2  0  0  3  0  0  0  0  0  0
  190.1920  177.6010  145.6890 C   0  0  0  0  0  2  0  0  0  0  0  0
  191.3920  176.7120  145.9380 C   0  0  0  0  0  1  0  0  0  0  0  0
  187.2670  176.8890  146.7700 O   0  0  0  0  0  1  0  0  0  0  0  0
  187.3740  177.8800  145.7920 C   0  0  2  0  0  3  0  0  0  0  0  0
  186.0150  178.5240  145.5530 C   0  0  0  0  0  2  0  0  0  0  0  0
  185.6790  179.3760  146.6070 O   0  0  0  0  0  1  0  0  0  0  0  0
  189.3200  173.8090  135.4970 N   0  0  0  0  0  0  0  0  0  0  0  0
  190.5100  174.2270  135.7850 C   0  0  0  0  0  3  0  0  0  0  0  0
  188.9260  172.4480  135.6840 C   0  0  0  0  0  0  0  0  0  0  0  0
  187.9300  172.1120  136.7340 C   0  0  0  0  0  1  0  0  0  0  0  0
  189.4110  171.5280  134.9700 O   0  0  0  0  0  0  0  0  0  0  0  0
  1 29  1  1  0  0  0
  1  7  1  0  0  0  0
  1 12  1  0  0  0  0
  2 18  1  0  0  0  0
  3  4  1  0  0  0  0
  4 15  2  0  0  0  0
  5 17  1  0  0  0  0
  6  9  2  0  0  0  0
  7 13  1  0  0  0  0
  8  3  2  0  0  0  0
  8 10  1  0  0  0  0
  9 10  1  0  0  0  0
  9  2  1  0  0  0  0
 10 16  2  0  0  0  0
 12 14  1  0  0  0  0
 13  6  1  0  0  0  0
 13  5  2  0  0  0  0
 14  5  1  0  0  0  0
 16 15  1  0  0  0  0
 16 11  1  0  0  0  0
 17  2  2  0  0  0  0
 18 11  2  0  0  0  0
 19 21  1  0  0  0  0
 19 22  1  1  0  0  0
 20 11  1  6  0  0  0
 20 19  1  0  0  0  0
 20 21  1  0  0  0  0
 21 25  1  1  0  0  0
 22 23  1  0  0  0  0
 25 24  1  1  0  0  0
 26 25  1  0  0  0  0
 26 27  1  0  0  0  0
 28 30  1  0  0  0  0
 28 29  2  0  0  0  0
 30 31  1  0  0  0  0
 32 30  2  0  0  0  0
M  END
>  <MODEL>
6

>  <REMARK>
 VINA RESULT:      -7.5      2.570      3.855
  Name = 
  6 active torsions:
  status: ('A' for Active; 'I' for Inactive)
    1  A    between atoms: C_1  and  N_10
    2  A    between atoms: C_2  and  C_24
    3  A    between atoms: C_6  and  C_7
    4  A    between atoms: C_11  and  C_22
    5  A    between atoms: C_16  and  C_27
    6  A    between atoms: C_22  and  C_32
                            x       y       z     vdW  Elec       q    Type
                         _______ _______ _______ _____ _____    ______ ____

>  <TORSDO>
F 6

$$$$
=
 OpenBabel11052416563D

 32 36  0  0  1  0  0  0  0  0999 V2000
  189.7120  176.1820  136.4620 C   0  0  1  0  0  3  0  0  0  0  0  0
  189.5730  177.4090  141.4390 C   0  0  0  0  0  0  0  0  0  0  0  0
  185.0420  178.9930  142.1490 C   0  0  0  0  0  3  0  0  0  0  0  0
  185.3110  179.1230  143.5120 C   0  0  0  0  0  3  0  0  0  0  0  0
  190.3240  176.8020  139.2240 C   0  0  0  0  0  0  0  0  0  0  0  0
  188.0870  177.5920  139.5700 N   0  0  0  0  0  0  0  0  0  0  0  0
  188.7350  177.0580  137.2530 C   0  0  0  0  0  2  0  0  0  0  0  0
  186.0360  178.5370  141.2800 C   0  0  0  0  0  3  0  0  0  0  0  0
  188.3120  177.7390  140.9060 C   0  0  0  0  0  0  0  0  0  0  0  0
  187.3090  178.2080  141.7670 C   0  0  0  0  0  0  0  0  0  0  0  0
  188.8710  178.0170  143.6330 C   0  0  0  0  0  0  0  0  0  0  0  0
  191.1530  176.4900  136.8660 C   0  0  0  0  0  2  0  0  0  0  0  0
  189.0440  177.1230  138.7240 C   0  0  0  0  0  0  0  0  0  0  0  0
  191.3920  176.2110  138.3510 C   0  0  0  0  0  2  0  0  0  0  0  0
  186.5750  178.8010  144.0110 C   0  0  0  0  0  3  0  0  0  0  0  0
  187.5860  178.3450  143.1490 C   0  0  0  0  0  0  0  0  0  0  0  0
  190.5710  176.9350  140.5910 C   0  0  0  0  0  3  0  0  0  0  0  0
  189.8130  177.5480  142.7680 N   0  0  0  0  0  0  0  0  0  0  0  0
  189.8580  176.8270  145.5700 C   0  0  2  0  0  3  0  0  0  0  0  0
  189.2040  178.1150  145.0970 C   0  0  2  0  0  3  0  0  0  0  0  0
  188.3930  177.1160  145.9080 C   0  0  2  0  0  3  0  0  0  0  0  0
  190.8530  177.1420  146.6800 C   0  0  0  0  0  2  0  0  0  0  0  0
  191.8440  176.0060  146.8110 C   0  0  0  0  0  1  0  0  0  0  0  0
  187.9560  176.6120  148.2090 O   0  0  0  0  0  1  0  0  0  0  0  0
  188.1410  177.6660  147.3120 C   0  0  2  0  0  3  0  0  0  0  0  0
  186.9230  178.5820  147.3260 C   0  0  0  0  0  2  0  0  0  0  0  0
  185.7670  177.8710  146.9960 O   0  0  0  0  0  1  0  0  0  0  0  0
  188.1790  174.3060  136.5240 N   0  0  0  0  0  0  0  0  0  0  0  0
  189.3990  174.7280  136.6170 C   0  0  0  0  0  3  0  0  0  0  0  0
  187.8380  172.9260  136.6690 C   0  0  0  0  0  0  0  0  0  0  0  0
  188.3840  171.9310  135.7090 C   0  0  0  0  0  1  0  0  0  0  0  0
  187.0810  172.5390  137.6010 O   0  0  0  0  0  0  0  0  0  0  0  0
  1 29  1  1  0  0  0
  1 12  1  0  0  0  0
  1  7  1  0  0  0  0
  2 18  1  0  0  0  0
  3  4  1  0  0  0  0
  4 15  2  0  0  0  0
  5 17  1  0  0  0  0
  6  9  2  0  0  0  0
  7 13  1  0  0  0  0
  8 10  1  0  0  0  0
  8  3  2  0  0  0  0
  9  2  1  0  0  0  0
  9 10  1  0  0  0  0
 10 16  2  0  0  0  0
 12 14  1  0  0  0  0
 13  5  2  0  0  0  0
 13  6  1  0  0  0  0
 14  5  1  0  0  0  0
 16 11  1  0  0  0  0
 16 15  1  0  0  0  0
 17  2  2  0  0  0  0
 18 11  2  0  0  0  0
 19 21  1  0  0  0  0
 19 22  1  1  0  0  0
 20 11  1  6  0  0  0
 20 19  1  0  0  0  0
 20 21  1  0  0  0  0
 21 25  1  1  0  0  0
 22 23  1  0  0  0  0
 25 26  1  0  0  0  0
 25 24  1  1  0  0  0
 27 26  1  0  0  0  0
 28 29  2  0  0  0  0
 28 30  1  0  0  0  0
 30 32  2  0  0  0  0
 31 30  1  0  0  0  0
M  END
>  <MODEL>
7

>  <REMARK>
 VINA RESULT:      -7.3      1.947      2.752
  Name = 
  6 active torsions:
  status: ('A' for Active; 'I' for Inactive)
    1  A    between atoms: C_1  and  N_10
    2  A    between atoms: C_2  and  C_24
    3  A    between atoms: C_6  and  C_7
    4  A    between atoms: C_11  and  C_22
    5  A    between atoms: C_16  and  C_27
    6  A    between atoms: C_22  and  C_32
                            x       y       z     vdW  Elec       q    Type
                         _______ _______ _______ _____ _____    ______ ____

>  <TORSDO>
F 6

$$$$
=
 OpenBabel11052416563D

 32 36  0  0  1  0  0  0  0  0999 V2000
  180.0400  178.9220  138.6070 C   0  0  1  0  0  3  0  0  0  0  0  0
  184.7490  178.6640  140.6190 C   0  0  0  0  0  0  0  0  0  0  0  0
  184.0080  178.8440  145.4100 C   0  0  0  0  0  3  0  0  0  0  0  0
  185.3750  178.6560  145.6200 C   0  0  0  0  0  3  0  0  0  0  0  0
  182.8960  178.8890  139.0850 C   0  0  0  0  0  0  0  0  0  0  0  0
  182.5270  178.9870  141.4520 N   0  0  0  0  0  0  0  0  0  0  0  0
  180.5550  179.2820  140.0030 C   0  0  0  0  0  2  0  0  0  0  0  0
  183.5000  178.8990  144.1100 C   0  0  0  0  0  3  0  0  0  0  0  0
  183.8560  178.8120  141.6970 C   0  0  0  0  0  0  0  0  0  0  0  0
  184.3560  178.7680  143.0070 C   0  0  0  0  0  0  0  0  0  0  0  0
  186.6020  178.4580  142.1030 C   0  0  0  0  0  0  0  0  0  0  0  0
  180.9930  179.4470  137.5330 C   0  0  0  0  0  2  0  0  0  0  0  0
  182.0250  179.0150  140.1880 C   0  0  0  0  0  0  0  0  0  0  0  0
  182.3880  178.8380  137.6740 C   0  0  0  0  0  2  0  0  0  0  0  0
  186.2400  178.5260  144.5300 C   0  0  0  0  0  3  0  0  0  0  0  0
  185.7450  178.5840  143.2170 C   0  0  0  0  0  0  0  0  0  0  0  0
  184.2590  178.6980  139.3160 C   0  0  0  0  0  3  0  0  0  0  0  0
  186.0760  178.4870  140.8470 N   0  0  0  0  0  0  0  0  0  0  0  0
  188.6100  177.3770  141.1320 C   0  0  2  0  0  3  0  0  0  0  0  0
  188.0790  178.2290  142.2740 C   0  0  2  0  0  3  0  0  0  0  0  0
  188.3770  176.7560  142.5130 C   0  0  2  0  0  3  0  0  0  0  0  0
  190.0510  177.7710  140.8350 C   0  0  0  0  0  2  0  0  0  0  0  0
  190.4210  177.3230  139.4370 C   0  0  0  0  0  1  0  0  0  0  0  0
  190.1630  175.3310  143.2330 O   0  0  0  0  0  1  0  0  0  0  0  0
  189.6240  176.6110  143.3850 C   0  0  2  0  0  3  0  0  0  0  0  0
  189.2950  176.8670  144.8500 C   0  0  0  0  0  2  0  0  0  0  0  0
  190.1210  177.8640  145.3750 O   0  0  0  0  0  1  0  0  0  0  0  0
  180.7280  176.6930  137.9490 N   0  0  0  0  0  0  0  0  0  0  0  0
  179.8140  177.4500  138.4650 C   0  0  0  0  0  3  0  0  0  0  0  0
  180.5500  175.2840  137.7930 C   0  0  0  0  0  0  0  0  0  0  0  0
  181.5760  174.4920  137.0660 C   0  0  0  0  0  1  0  0  0  0  0  0
  179.5340  174.7020  138.2640 O   0  0  0  0  0  0  0  0  0  0  0  0
  1 29  1  1  0  0  0
  1  7  1  0  0  0  0
  2 18  2  0  0  0  0
  2  9  1  0  0  0  0
  3  4  1  0  0  0  0
  5 17  2  0  0  0  0
  5 13  1  0  0  0  0
  6  9  1  0  0  0  0
  7 13  1  0  0  0  0
  8  3  2  0  0  0  0
  9 10  2  0  0  0  0
 10 16  1  0  0  0  0
 10  8  1  0  0  0  0
 11 16  2  0  0  0  0
 12 14  1  0  0  0  0
 12  1  1  0  0  0  0
 13  6  2  0  0  0  0
 14  5  1  0  0  0  0
 15  4  2  0  0  0  0
 16 15  1  0  0  0  0
 17  2  1  0  0  0  0
 18 11  1  0  0  0  0
 19 22  1  1  0  0  0
 19 20  1  0  0  0  0
 19 21  1  0  0  0  0
 20 11  1  6  0  0  0
 20 21  1  0  0  0  0
 21 25  1  1  0  0  0
 23 22  1  0  0  0  0
 25 24  1  1  0  0  0
 25 26  1  0  0  0  0
 26 27  1  0  0  0  0
 28 29  2  0  0  0  0
 30 28  1  0  0  0  0
 30 32  2  0  0  0  0
 31 30  1  0  0  0  0
M  END
>  <MODEL>
8

>  <REMARK>
 VINA RESULT:      -7.0      3.786      5.614
  Name = 
  6 active torsions:
  status: ('A' for Active; 'I' for Inactive)
    1  A    between atoms: C_1  and  N_10
    2  A    between atoms: C_2  and  C_24
    3  A    between atoms: C_6  and  C_7
    4  A    between atoms: C_11  and  C_22
    5  A    between atoms: C_16  and  C_27
    6  A    between atoms: C_22  and  C_32
                            x       y       z     vdW  Elec       q    Type
                         _______ _______ _______ _____ _____    ______ ____

>  <TORSDO>
F 6

$$$$
=
 OpenBabel11052416563D

 32 36  0  0  1  0  0  0  0  0999 V2000
  193.3870  174.6860  135.2100 C   0  0  1  0  0  3  0  0  0  0  0  0
  190.9190  176.8670  139.1390 C   0  0  0  0  0  0  0  0  0  0  0  0
  186.4940  177.8130  137.3870 C   0  0  0  0  0  3  0  0  0  0  0  0
  186.1000  178.2610  138.6490 C   0  0  0  0  0  3  0  0  0  0  0  0
  192.6320  175.9480  137.7040 C   0  0  0  0  0  0  0  0  0  0  0  0
  190.4490  176.4210  136.8330 N   0  0  0  0  0  0  0  0  0  0  0  0
  192.1140  175.5350  135.2470 C   0  0  0  0  0  2  0  0  0  0  0  0
  187.7980  177.3540  137.1820 C   0  0  0  0  0  3  0  0  0  0  0  0
  190.0280  176.8740  138.0480 C   0  0  0  0  0  0  0  0  0  0  0  0
  188.7200  177.3420  138.2390 C   0  0  0  0  0  0  0  0  0  0  0  0
  189.2580  177.7910  140.5770 C   0  0  0  0  0  0  0  0  0  0  0  0
  194.4650  175.2980  136.1050 C   0  0  0  0  0  2  0  0  0  0  0  0
  191.7090  175.9500  136.6360 C   0  0  0  0  0  0  0  0  0  0  0  0
  194.0100  175.3710  137.5620 C   0  0  0  0  0  2  0  0  0  0  0  0
  187.0090  178.2560  139.7100 C   0  0  0  0  0  3  0  0  0  0  0  0
  188.3240  177.8010  139.5190 C   0  0  0  0  0  0  0  0  0  0  0  0
  192.2170  176.3960  138.9590 C   0  0  0  0  0  3  0  0  0  0  0  0
  190.5140  177.3120  140.3560 N   0  0  0  0  0  0  0  0  0  0  0  0
  189.6500  177.4410  142.9990 C   0  0  2  0  0  3  0  0  0  0  0  0
  188.8770  178.2390  141.9610 C   0  0  2  0  0  3  0  0  0  0  0  0
  188.1780  177.1220  142.7220 C   0  0  2  0  0  3  0  0  0  0  0  0
  189.9040  178.3130  144.2220 C   0  0  0  0  0  2  0  0  0  0  0  0
  191.1090  179.1960  143.9730 C   0  0  0  0  0  1  0  0  0  0  0  0
  186.8380  176.7560  144.6740 O   0  0  0  0  0  1  0  0  0  0  0  0
  187.1810  177.7150  143.7180 C   0  0  2  0  0  3  0  0  0  0  0  0
  185.9290  178.2090  143.0050 C   0  0  0  0  0  2  0  0  0  0  0  0
  185.0520  178.8130  143.9080 O   0  0  0  0  0  1  0  0  0  0  0  0
  194.0850  172.4200  135.7150 N   0  0  0  0  0  0  0  0  0  0  0  0
  193.1120  173.2630  135.5800 C   0  0  0  0  0  3  0  0  0  0  0  0
  193.8640  171.0520  136.0640 C   0  0  0  0  0  0  0  0  0  0  0  0
  194.7210  170.4120  137.0960 C   0  0  0  0  0  1  0  0  0  0  0  0
  192.9510  170.3800  135.5100 O   0  0  0  0  0  0  0  0  0  0  0  0
  1  7  1  0  0  0  0
  1 29  1  1  0  0  0
  1 12  1  0  0  0  0
  2 18  1  0  0  0  0
  3  4  1  0  0  0  0
  4 15  2  0  0  0  0
  5 17  1  0  0  0  0
  6  9  2  0  0  0  0
  7 13  1  0  0  0  0
  8  3  2  0  0  0  0
  8 10  1  0  0  0  0
  9 10  1  0  0  0  0
  9  2  1  0  0  0  0
 10 16  2  0  0  0  0
 12 14  1  0  0  0  0
 13  6  1  0  0  0  0
 13  5  2  0  0  0  0
 14  5  1  0  0  0  0
 16 15  1  0  0  0  0
 16 11  1  0  0  0  0
 17  2  2  0  0  0  0
 18 11  2  0  0  0  0
 19 22  1  1  0  0  0
 20 11  1  6  0  0  0
 20 21  1  0  0  0  0
 20 19  1  0  0  0  0
 21 19  1  0  0  0  0
 21 25  1  1  0  0  0
 23 22  1  0  0  0  0
 25 24  1  1  0  0  0
 26 25  1  0  0  0  0
 26 27  1  0  0  0  0
 28 30  1  0  0  0  0
 29 28  2  0  0  0  0
 30 31  1  0  0  0  0
 32 30  2  0  0  0  0
M  END
>  <MODEL>
9

>  <REMARK>
 VINA RESULT:      -6.9      4.148      6.013
  Name = 
  6 active torsions:
  status: ('A' for Active; 'I' for Inactive)
    1  A    between atoms: C_1  and  N_10
    2  A    between atoms: C_2  and  C_24
    3  A    between atoms: C_6  and  C_7
    4  A    between atoms: C_11  and  C_22
    5  A    between atoms: C_16  and  C_27
    6  A    between atoms: C_22  and  C_32
                            x       y       z     vdW  Elec       q    Type
                         _______ _______ _______ _____ _____    ______ ____

>  <TORSDO>
F 6

$$$$
