=
 OpenBabel11052413493D

 27 30  0  0  1  0  0  0  0  0999 V2000
  188.1260  178.2540  140.6740 C   0  0  0  0  0  0  0  0  0  0  0  0
  189.1140  178.3170  139.8980 O   0  0  0  0  0  0  0  0  0  0  0  0
  185.9040  177.9240  142.3680 C   0  0  1  0  0  3  0  0  0  0  0  0
  188.2370  177.5230  141.9740 C   0  0  0  0  0  2  0  0  0  0  0  0
  186.8640  178.7850  140.2710 N   0  0  0  0  0  2  0  0  0  0  0  0
  185.7800  178.9380  141.2300 C   0  0  0  0  0  2  0  0  0  0  0  0
  187.2590  178.0080  142.9530 N   0  0  0  0  0  0  0  0  0  0  0  0
  184.8240  178.2750  143.3870 C   0  0  0  0  0  2  0  0  0  0  0  0
  183.8490  179.1720  142.7890 N   0  0  0  0  0  2  0  0  0  0  0  0
  179.6970  178.3580  142.7330 C   0  0  0  0  0  3  0  0  0  0  0  0
  182.4500  178.8850  142.7550 C   0  0  0  0  0  0  0  0  0  0  0  0
  181.7360  178.8180  143.9560 C   0  0  0  0  0  3  0  0  0  0  0  0
  180.3620  178.5540  143.9460 C   0  0  0  0  0  3  0  0  0  0  0  0
  180.4040  178.4250  141.5290 C   0  0  0  0  0  3  0  0  0  0  0  0
  181.7770  178.6890  141.5390 C   0  0  0  0  0  3  0  0  0  0  0  0
  187.3740  177.0850  144.0780 C   0  0  0  0  0  2  0  0  0  0  0  0
  186.8200  177.7940  146.3820 C   0  0  0  0  0  2  0  0  0  0  0  0
  190.7220  176.5970  147.6170 C   0  0  0  0  0  3  0  0  0  0  0  0
  192.9330  175.8600  147.1200 F   0  0  0  0  0  0  0  0  0  0  0  0
  187.3670  178.3060  147.7030 C   0  0  0  0  0  2  0  0  0  0  0  0
  190.2570  176.9660  144.8890 C   0  0  0  0  0  3  0  0  0  0  0  0
  191.5000  176.5050  145.3300 C   0  0  0  0  0  3  0  0  0  0  0  0
  189.2230  177.2260  145.8030 C   0  0  0  0  0  0  0  0  0  0  0  0
  191.7290  176.3140  146.6930 C   0  0  0  0  0  0  0  0  0  0  0  0
  189.4800  177.0710  147.1860 C   0  0  0  0  0  0  0  0  0  0  0  0
  187.9100  177.8080  145.3100 C   0  0  1  0  0  3  0  0  0  0  0  0
  188.4190  177.3320  148.2160 C   0  0  0  0  0  2  0  0  0  0  0  0
  1  4  1  0  0  0  0
  2  1  2  0  0  0  0
  3  7  1  0  0  0  0
  3  8  1  1  0  0  0
  4  7  1  0  0  0  0
  5  1  1  0  0  0  0
  5  6  1  0  0  0  0
  6  3  1  0  0  0  0
  7 16  1  0  0  0  0
  9  8  1  0  0  0  0
 10 13  1  0  0  0  0
 11  9  1  0  0  0  0
 11 12  1  0  0  0  0
 13 12  2  0  0  0  0
 14 15  1  0  0  0  0
 14 10  2  0  0  0  0
 15 11  2  0  0  0  0
 17 20  1  0  0  0  0
 20 27  1  0  0  0  0
 21 22  2  0  0  0  0
 21 23  1  0  0  0  0
 22 24  1  0  0  0  0
 23 25  2  0  0  0  0
 24 19  1  0  0  0  0
 24 18  2  0  0  0  0
 25 18  1  0  0  0  0
 25 27  1  0  0  0  0
 26 16  1  6  0  0  0
 26 23  1  0  0  0  0
 26 17  1  0  0  0  0
M  END
>  <MODEL>
1

>  <REMARK>
 VINA RESULT:      -9.7      0.000      0.000
  Name = 
  5 active torsions:
  status: ('A' for Active; 'I' for Inactive)
    1  A    between atoms: C_1  and  N_15
    2  A    between atoms: C_1  and  C_18
    3  A    between atoms: C_3  and  C_19
    4  A    between atoms: C_3  and  N_26
    5  A    between atoms: C_9  and  N_15
                            x       y       z     vdW  Elec       q    Type
                         _______ _______ _______ _____ _____    ______ ____

>  <TORSDO>
F 5

$$$$
=
 OpenBabel11052413493D

 27 30  0  0  1  0  0  0  0  0999 V2000
  190.0990  176.9630  140.4350 C   0  0  0  0  0  0  0  0  0  0  0  0
  191.1900  176.4750  140.0420 O   0  0  0  0  0  0  0  0  0  0  0  0
  187.5770  177.8810  141.2790 C   0  0  1  0  0  3  0  0  0  0  0  0
  189.4870  176.4980  141.7190 C   0  0  0  0  0  2  0  0  0  0  0  0
  189.3860  177.8810  139.6080 N   0  0  0  0  0  2  0  0  0  0  0  0
  188.2560  178.6340  140.1340 C   0  0  0  0  0  2  0  0  0  0  0  0
  188.5910  177.5080  142.2880 N   0  0  0  0  0  0  0  0  0  0  0  0
  186.5220  178.8210  141.8560 C   0  0  0  0  0  2  0  0  0  0  0  0
  185.2140  178.4950  141.3100 N   0  0  0  0  0  2  0  0  0  0  0  0
  181.6630  178.9200  143.5710 C   0  0  0  0  0  3  0  0  0  0  0  0
  184.0060  178.6250  142.0610 C   0  0  0  0  0  0  0  0  0  0  0  0
  184.0780  178.7770  143.4500 C   0  0  0  0  0  3  0  0  0  0  0  0
  182.9090  178.9230  144.2040 C   0  0  0  0  0  3  0  0  0  0  0  0
  181.5850  178.7710  142.1840 C   0  0  0  0  0  3  0  0  0  0  0  0
  182.7530  178.6250  141.4290 C   0  0  0  0  0  3  0  0  0  0  0  0
  187.9480  176.8370  143.4150 C   0  0  0  0  0  2  0  0  0  0  0  0
  186.8070  177.6190  145.4650 C   0  0  0  0  0  2  0  0  0  0  0  0
  190.3380  176.7330  147.6870 C   0  0  0  0  0  3  0  0  0  0  0  0
  192.6360  176.1150  147.7900 F   0  0  0  0  0  0  0  0  0  0  0  0
  186.9840  178.2280  146.8460 C   0  0  0  0  0  2  0  0  0  0  0  0
  190.5430  176.9410  144.9100 C   0  0  0  0  0  3  0  0  0  0  0  0
  191.6600  176.5810  145.6680 C   0  0  0  0  0  3  0  0  0  0  0  0
  189.3040  177.1780  145.5260 C   0  0  0  0  0  0  0  0  0  0  0  0
  191.5550  176.4700  147.0550 C   0  0  0  0  0  0  0  0  0  0  0  0
  189.2180  177.1050  146.9370 C   0  0  0  0  0  0  0  0  0  0  0  0
  188.1260  177.6510  144.6930 C   0  0  1  0  0  3  0  0  0  0  0  0
  187.9250  177.3480  147.6590 C   0  0  0  0  0  2  0  0  0  0  0  0
  1  4  1  0  0  0  0
  2  1  2  0  0  0  0
  3  8  1  1  0  0  0
  3  7  1  0  0  0  0
  4  7  1  0  0  0  0
  5  6  1  0  0  0  0
  5  1  1  0  0  0  0
  6  3  1  0  0  0  0
  7 16  1  0  0  0  0
  9  8  1  0  0  0  0
  9 11  1  0  0  0  0
 10 13  1  0  0  0  0
 11 12  1  0  0  0  0
 12 13  2  0  0  0  0
 14 10  2  0  0  0  0
 15 11  2  0  0  0  0
 15 14  1  0  0  0  0
 17 20  1  0  0  0  0
 20 27  1  0  0  0  0
 21 23  2  0  0  0  0
 21 22  1  0  0  0  0
 22 24  2  0  0  0  0
 23 25  1  0  0  0  0
 24 18  1  0  0  0  0
 24 19  1  0  0  0  0
 25 27  1  0  0  0  0
 25 18  2  0  0  0  0
 26 16  1  6  0  0  0
 26 17  1  0  0  0  0
 26 23  1  0  0  0  0
M  END
>  <MODEL>
2

>  <REMARK>
 VINA RESULT:      -9.5      1.264      1.675
  Name = 
  5 active torsions:
  status: ('A' for Active; 'I' for Inactive)
    1  A    between atoms: C_1  and  N_15
    2  A    between atoms: C_1  and  C_18
    3  A    between atoms: C_3  and  C_19
    4  A    between atoms: C_3  and  N_26
    5  A    between atoms: C_9  and  N_15
                            x       y       z     vdW  Elec       q    Type
                         _______ _______ _______ _____ _____    ______ ____

>  <TORSDO>
F 5

$$$$
=
 OpenBabel11052413493D

 27 30  0  0  1  0  0  0  0  0999 V2000
  190.7130  177.2730  140.0970 C   0  0  0  0  0  0  0  0  0  0  0  0
  191.8810  176.9410  139.7700 O   0  0  0  0  0  0  0  0  0  0  0  0
  188.0440  177.8330  140.7920 C   0  0  1  0  0  3  0  0  0  0  0  0
  190.0970  176.7230  141.3450 C   0  0  0  0  0  2  0  0  0  0  0  0
  189.9290  178.0890  139.2280 N   0  0  0  0  0  2  0  0  0  0  0  0
  188.6780  178.6770  139.6850 C   0  0  0  0  0  2  0  0  0  0  0  0
  189.0390  177.5970  141.8580 N   0  0  0  0  0  0  0  0  0  0  0  0
  186.8390  178.6160  141.3040 C   0  0  0  0  0  2  0  0  0  0  0  0
  185.9850  179.0000  140.1910 N   0  0  0  0  0  2  0  0  0  0  0  0
  181.7580  178.9980  140.3810 C   0  0  0  0  0  3  0  0  0  0  0  0
  184.5590  179.0060  140.2740 C   0  0  0  0  0  0  0  0  0  0  0  0
  183.8100  179.3780  139.1520 C   0  0  0  0  0  3  0  0  0  0  0  0
  182.4130  179.3760  139.2050 C   0  0  0  0  0  3  0  0  0  0  0  0
  182.5000  178.6240  141.5040 C   0  0  0  0  0  3  0  0  0  0  0  0
  183.8970  178.6260  141.4520 C   0  0  0  0  0  3  0  0  0  0  0  0
  188.4310  176.8400  142.9490 C   0  0  0  0  0  2  0  0  0  0  0  0
  186.9160  177.6390  144.7330 C   0  0  0  0  0  2  0  0  0  0  0  0
  190.0030  176.9160  147.5850 C   0  0  0  0  0  3  0  0  0  0  0  0
  192.2580  176.3700  148.1240 F   0  0  0  0  0  0  0  0  0  0  0  0
  186.8230  178.2880  146.1030 C   0  0  0  0  0  2  0  0  0  0  0  0
  190.7060  177.0590  144.8870 C   0  0  0  0  0  3  0  0  0  0  0  0
  191.6740  176.7520  145.8460 C   0  0  0  0  0  3  0  0  0  0  0  0
  189.3700  177.2740  145.2600 C   0  0  0  0  0  0  0  0  0  0  0  0
  191.3210  176.6740  147.1940 C   0  0  0  0  0  0  0  0  0  0  0  0
  189.0300  177.2360  146.6340 C   0  0  0  0  0  0  0  0  0  0  0  0
  188.3520  177.6910  144.2120 C   0  0  1  0  0  3  0  0  0  0  0  0
  187.6200  177.4570  147.1000 C   0  0  0  0  0  2  0  0  0  0  0  0
  1  4  1  0  0  0  0
  2  1  2  0  0  0  0
  3  8  1  1  0  0  0
  3  7  1  0  0  0  0
  4  7  1  0  0  0  0
  5  6  1  0  0  0  0
  5  1  1  0  0  0  0
  6  3  1  0  0  0  0
  7 16  1  0  0  0  0
  9 11  1  0  0  0  0
  9  8  1  0  0  0  0
 10 14  1  0  0  0  0
 11 15  1  0  0  0  0
 12 13  1  0  0  0  0
 12 11  2  0  0  0  0
 13 10  2  0  0  0  0
 15 14  2  0  0  0  0
 17 20  1  0  0  0  0
 20 27  1  0  0  0  0
 21 23  2  0  0  0  0
 21 22  1  0  0  0  0
 22 24  2  0  0  0  0
 23 25  1  0  0  0  0
 24 18  1  0  0  0  0
 24 19  1  0  0  0  0
 25 27  1  0  0  0  0
 25 18  2  0  0  0  0
 26 16  1  6  0  0  0
 26 17  1  0  0  0  0
 26 23  1  0  0  0  0
M  END
>  <MODEL>
3

>  <REMARK>
 VINA RESULT:      -9.3      1.705      2.552
  Name = 
  5 active torsions:
  status: ('A' for Active; 'I' for Inactive)
    1  A    between atoms: C_1  and  N_15
    2  A    between atoms: C_1  and  C_18
    3  A    between atoms: C_3  and  C_19
    4  A    between atoms: C_3  and  N_26
    5  A    between atoms: C_9  and  N_15
                            x       y       z     vdW  Elec       q    Type
                         _______ _______ _______ _____ _____    ______ ____

>  <TORSDO>
F 5

$$$$
=
 OpenBabel11052413493D

 27 30  0  0  1  0  0  0  0  0999 V2000
  181.9790  178.7450  143.3010 C   0  0  0  0  0  0  0  0  0  0  0  0
  181.0050  178.6800  144.0950 O   0  0  0  0  0  0  0  0  0  0  0  0
  184.1760  179.0810  141.5750 C   0  0  1  0  0  3  0  0  0  0  0  0
  183.3650  178.9380  143.8290 C   0  0  0  0  0  2  0  0  0  0  0  0
  181.7570  178.7460  141.8920 N   0  0  0  0  0  2  0  0  0  0  0  0
  182.8660  178.5820  140.9630 C   0  0  0  0  0  2  0  0  0  0  0  0
  184.3750  178.4400  142.8920 N   0  0  0  0  0  0  0  0  0  0  0  0
  185.2850  178.7170  140.5930 C   0  0  0  0  0  2  0  0  0  0  0  0
  184.9090  179.1190  139.2470 N   0  0  0  0  0  2  0  0  0  0  0  0
  185.6280  176.7490  135.8160 C   0  0  0  0  0  3  0  0  0  0  0  0
  185.1700  178.3140  138.0960 C   0  0  0  0  0  0  0  0  0  0  0  0
  184.1240  177.5840  137.5210 C   0  0  0  0  0  3  0  0  0  0  0  0
  184.3520  176.8020  136.3840 C   0  0  0  0  0  3  0  0  0  0  0  0
  186.6770  177.4770  136.3850 C   0  0  0  0  0  3  0  0  0  0  0  0
  186.4490  178.2590  137.5210 C   0  0  0  0  0  3  0  0  0  0  0  0
  185.6510  178.8630  143.4640 C   0  0  0  0  0  2  0  0  0  0  0  0
  187.5300  177.3600  142.8920 C   0  0  0  0  0  2  0  0  0  0  0  0
  188.8130  177.5280  146.9550 C   0  0  0  0  0  3  0  0  0  0  0  0
  188.4650  178.1540  149.2280 F   0  0  0  0  0  0  0  0  0  0  0  0
  188.4960  176.3060  143.4060 C   0  0  0  0  0  2  0  0  0  0  0  0
  186.2060  178.3310  146.3600 C   0  0  0  0  0  3  0  0  0  0  0  0
  186.6890  178.4390  147.6660 C   0  0  0  0  0  3  0  0  0  0  0  0
  187.0250  177.8440  145.3300 C   0  0  0  0  0  0  0  0  0  0  0  0
  187.9940  178.0440  147.9620 C   0  0  0  0  0  0  0  0  0  0  0  0
  188.3330  177.4050  145.6480 C   0  0  0  0  0  0  0  0  0  0  0  0
  186.4530  177.6550  143.9360 C   0  0  1  0  0  3  0  0  0  0  0  0
  189.2610  176.8740  144.5950 C   0  0  0  0  0  2  0  0  0  0  0  0
  1  4  1  0  0  0  0
  1  2  2  0  0  0  0
  3  8  1  6  0  0  0
  3  7  1  0  0  0  0
  5  1  1  0  0  0  0
  6  3  1  0  0  0  0
  6  5  1  0  0  0  0
  7 16  1  0  0  0  0
  7  4  1  0  0  0  0
  9  8  1  0  0  0  0
 10 13  2  0  0  0  0
 10 14  1  0  0  0  0
 11  9  1  0  0  0  0
 12 11  2  0  0  0  0
 13 12  1  0  0  0  0
 14 15  2  0  0  0  0
 15 11  1  0  0  0  0
 17 20  1  0  0  0  0
 17 26  1  0  0  0  0
 18 24  1  0  0  0  0
 20 27  1  0  0  0  0
 21 22  1  0  0  0  0
 22 24  2  0  0  0  0
 23 25  1  0  0  0  0
 23 21  2  0  0  0  0
 24 19  1  0  0  0  0
 25 18  2  0  0  0  0
 26 16  1  6  0  0  0
 26 23  1  0  0  0  0
 27 25  1  0  0  0  0
M  END
>  <MODEL>
4

>  <REMARK>
 VINA RESULT:      -8.8      3.147      5.276
  Name = 
  5 active torsions:
  status: ('A' for Active; 'I' for Inactive)
    1  A    between atoms: C_1  and  N_15
    2  A    between atoms: C_1  and  C_18
    3  A    between atoms: C_3  and  C_19
    4  A    between atoms: C_3  and  N_26
    5  A    between atoms: C_9  and  N_15
                            x       y       z     vdW  Elec       q    Type
                         _______ _______ _______ _____ _____    ______ ____

>  <TORSDO>
F 5

$$$$
=
 OpenBabel11052413493D

 27 30  0  0  1  0  0  0  0  0999 V2000
  188.6770  177.1110  139.1610 C   0  0  0  0  0  0  0  0  0  0  0  0
  188.3490  176.6790  138.0260 O   0  0  0  0  0  0  0  0  0  0  0  0
  189.4030  178.2580  141.6250 C   0  0  1  0  0  3  0  0  0  0  0  0
  187.6970  177.8930  139.9780 C   0  0  0  0  0  2  0  0  0  0  0  0
  190.0150  176.9530  139.6290 N   0  0  0  0  0  2  0  0  0  0  0  0
  190.3560  177.2270  141.0180 C   0  0  0  0  0  2  0  0  0  0  0  0
  188.0070  177.8220  141.4080 N   0  0  0  0  0  0  0  0  0  0  0  0
  189.7440  178.3490  143.1100 C   0  0  0  0  0  2  0  0  0  0  0  0
  190.1050  177.0350  143.6180 N   0  0  0  0  0  2  0  0  0  0  0  0
  191.1870  176.3550  147.6520 C   0  0  0  0  0  3  0  0  0  0  0  0
  190.4520  176.8010  144.9840 C   0  0  0  0  0  0  0  0  0  0  0  0
  191.6880  176.2190  145.2860 C   0  0  0  0  0  3  0  0  0  0  0  0
  192.0550  175.9960  146.6170 C   0  0  0  0  0  3  0  0  0  0  0  0
  189.9510  176.9380  147.3570 C   0  0  0  0  0  3  0  0  0  0  0  0
  189.5840  177.1620  146.0270 C   0  0  0  0  0  3  0  0  0  0  0  0
  187.0870  178.7690  142.0330 C   0  0  0  0  0  2  0  0  0  0  0  0
  186.7360  178.3740  144.4490 C   0  0  0  0  0  2  0  0  0  0  0  0
  182.5440  178.8860  143.8550 C   0  0  0  0  0  3  0  0  0  0  0  0
  180.6560  179.1350  142.4240 F   0  0  0  0  0  0  0  0  0  0  0  0
  185.7730  177.8760  145.5130 C   0  0  0  0  0  2  0  0  0  0  0  0
  184.1430  178.3900  141.6210 C   0  0  0  0  0  3  0  0  0  0  0  0
  182.7770  178.6360  141.4620 C   0  0  0  0  0  3  0  0  0  0  0  0
  184.7320  178.4140  142.8940 C   0  0  0  0  0  0  0  0  0  0  0  0
  181.9800  178.8910  142.5780 C   0  0  0  0  0  0  0  0  0  0  0  0
  183.9080  178.6300  144.0250 C   0  0  0  0  0  0  0  0  0  0  0  0
  186.2010  178.0600  143.0520 C   0  0  1  0  0  3  0  0  0  0  0  0
  184.4740  178.6660  145.4140 C   0  0  0  0  0  2  0  0  0  0  0  0
  1  5  1  0  0  0  0
  1  4  1  0  0  0  0
  2  1  2  0  0  0  0
  3  8  1  1  0  0  0
  4  7  1  0  0  0  0
  5  6  1  0  0  0  0
  6  3  1  0  0  0  0
  7  3  1  0  0  0  0
  7 16  1  0  0  0  0
  8  9  1  0  0  0  0
  9 11  1  0  0  0  0
 11 12  2  0  0  0  0
 11 15  1  0  0  0  0
 12 13  1  0  0  0  0
 13 10  2  0  0  0  0
 14 10  1  0  0  0  0
 15 14  2  0  0  0  0
 17 20  1  0  0  0  0
 18 25  1  0  0  0  0
 19 24  1  0  0  0  0
 21 23  1  0  0  0  0
 22 21  2  0  0  0  0
 22 24  1  0  0  0  0
 23 26  1  0  0  0  0
 23 25  2  0  0  0  0
 24 18  2  0  0  0  0
 25 27  1  0  0  0  0
 26 16  1  6  0  0  0
 26 17  1  0  0  0  0
 27 20  1  0  0  0  0
M  END
>  <MODEL>
5

>  <REMARK>
 VINA RESULT:      -8.7      3.092      7.451
  Name = 
  5 active torsions:
  status: ('A' for Active; 'I' for Inactive)
    1  A    between atoms: C_1  and  N_15
    2  A    between atoms: C_1  and  C_18
    3  A    between atoms: C_3  and  C_19
    4  A    between atoms: C_3  and  N_26
    5  A    between atoms: C_9  and  N_15
                            x       y       z     vdW  Elec       q    Type
                         _______ _______ _______ _____ _____    ______ ____

>  <TORSDO>
F 5

$$$$
=
 OpenBabel11052413493D

 27 30  0  0  1  0  0  0  0  0999 V2000
  186.3040  178.6100  140.5970 C   0  0  0  0  0  0  0  0  0  0  0  0
  185.0890  178.8600  140.8050 O   0  0  0  0  0  0  0  0  0  0  0  0
  189.0580  178.2410  140.1520 C   0  0  1  0  0  3  0  0  0  0  0  0
  187.3010  178.7560  141.7030 C   0  0  0  0  0  2  0  0  0  0  0  0
  186.7550  178.2910  139.2820 N   0  0  0  0  0  2  0  0  0  0  0  0
  188.0960  177.7700  139.0590 C   0  0  0  0  0  2  0  0  0  0  0  0
  188.4850  177.9230  141.4770 N   0  0  0  0  0  0  0  0  0  0  0  0
  190.3780  177.5150  139.9160 C   0  0  0  0  0  2  0  0  0  0  0  0
  190.4940  177.1340  138.5160 N   0  0  0  0  0  2  0  0  0  0  0  0
  193.2810  174.2380  137.1940 C   0  0  0  0  0  3  0  0  0  0  0  0
  191.4230  176.1530  138.0540 C   0  0  0  0  0  0  0  0  0  0  0  0
  192.7940  176.3720  138.2320 C   0  0  0  0  0  3  0  0  0  0  0  0
  193.7210  175.4180  137.8020 C   0  0  0  0  0  3  0  0  0  0  0  0
  191.9130  174.0130  137.0150 C   0  0  0  0  0  3  0  0  0  0  0  0
  190.9860  174.9660  137.4450 C   0  0  0  0  0  3  0  0  0  0  0  0
  189.4190  178.3160  142.5290 C   0  0  0  0  0  2  0  0  0  0  0  0
  191.2860  176.8710  143.2660 C   0  0  0  0  0  2  0  0  0  0  0  0
  189.7110  176.9700  147.2280 C   0  0  0  0  0  3  0  0  0  0  0  0
  187.9870  177.5330  148.7730 F   0  0  0  0  0  0  0  0  0  0  0  0
  191.7450  175.8270  144.2700 C   0  0  0  0  0  2  0  0  0  0  0  0
  188.0390  177.7270  145.1240 C   0  0  0  0  0  3  0  0  0  0  0  0
  187.5860  177.8150  146.4420 C   0  0  0  0  0  3  0  0  0  0  0  0
  189.3400  177.2840  144.8410 C   0  0  0  0  0  0  0  0  0  0  0  0
  188.4240  177.4430  147.4940 C   0  0  0  0  0  0  0  0  0  0  0  0
  190.1680  176.8680  145.9110 C   0  0  0  0  0  0  0  0  0  0  0  0
  189.7830  177.1160  143.3970 C   0  0  1  0  0  3  0  0  0  0  0  0
  191.5700  176.3830  145.6780 C   0  0  0  0  0  2  0  0  0  0  0  0
  1  2  2  0  0  0  0
  1  4  1  0  0  0  0
  3  8  1  6  0  0  0
  3  7  1  0  0  0  0
  5  1  1  0  0  0  0
  6  5  1  0  0  0  0
  6  3  1  0  0  0  0
  7  4  1  0  0  0  0
  7 16  1  0  0  0  0
  9  8  1  0  0  0  0
 10 13  1  0  0  0  0
 11 12  1  0  0  0  0
 11  9  1  0  0  0  0
 13 12  2  0  0  0  0
 14 10  2  0  0  0  0
 14 15  1  0  0  0  0
 15 11  2  0  0  0  0
 17 26  1  0  0  0  0
 17 20  1  0  0  0  0
 18 24  1  0  0  0  0
 20 27  1  0  0  0  0
 21 22  1  0  0  0  0
 22 24  2  0  0  0  0
 23 21  2  0  0  0  0
 23 25  1  0  0  0  0
 24 19  1  0  0  0  0
 25 18  2  0  0  0  0
 26 16  1  6  0  0  0
 26 23  1  0  0  0  0
 27 25  1  0  0  0  0
M  END
>  <MODEL>
6

>  <REMARK>
 VINA RESULT:      -8.7      3.489      7.080
  Name = 
  5 active torsions:
  status: ('A' for Active; 'I' for Inactive)
    1  A    between atoms: C_1  and  N_15
    2  A    between atoms: C_1  and  C_18
    3  A    between atoms: C_3  and  C_19
    4  A    between atoms: C_3  and  N_26
    5  A    between atoms: C_9  and  N_15
                            x       y       z     vdW  Elec       q    Type
                         _______ _______ _______ _____ _____    ______ ____

>  <TORSDO>
F 5

$$$$
=
 OpenBabel11052413493D

 27 30  0  0  1  0  0  0  0  0999 V2000
  192.0550  175.6240  146.0590 C   0  0  0  0  0  0  0  0  0  0  0  0
  192.6710  175.1710  147.0580 O   0  0  0  0  0  0  0  0  0  0  0  0
  190.5140  176.5640  143.9010 C   0  0  1  0  0  3  0  0  0  0  0  0
  191.0940  176.7590  146.2210 C   0  0  0  0  0  2  0  0  0  0  0  0
  192.1870  174.9900  144.7880 N   0  0  0  0  0  2  0  0  0  0  0  0
  191.6800  175.6280  143.5810 C   0  0  0  0  0  2  0  0  0  0  0  0
  190.9180  177.5010  144.9700 N   0  0  0  0  0  0  0  0  0  0  0  0
  190.1700  177.2940  142.6060 C   0  0  0  0  0  2  0  0  0  0  0  0
  190.3950  176.4190  141.4660 N   0  0  0  0  0  2  0  0  0  0  0  0
  189.7210  177.6930  137.4880 C   0  0  0  0  0  3  0  0  0  0  0  0
  190.1710  176.8300  140.1170 C   0  0  0  0  0  0  0  0  0  0  0  0
  189.1610  177.7590  139.8430 C   0  0  0  0  0  3  0  0  0  0  0  0
  188.9340  178.1880  138.5320 C   0  0  0  0  0  3  0  0  0  0  0  0
  190.7330  176.7670  137.7550 C   0  0  0  0  0  3  0  0  0  0  0  0
  190.9600  176.3370  139.0660 C   0  0  0  0  0  3  0  0  0  0  0  0
  189.8320  178.4380  145.2460 C   0  0  0  0  0  2  0  0  0  0  0  0
  189.0550  178.2530  147.5880 C   0  0  0  0  0  2  0  0  0  0  0  0
  185.0330  178.5640  146.2070 C   0  0  0  0  0  3  0  0  0  0  0  0
  183.4310  178.6170  144.4440 F   0  0  0  0  0  0  0  0  0  0  0  0
  187.9240  177.8200  148.5040 C   0  0  0  0  0  2  0  0  0  0  0  0
  187.0180  177.9230  144.3520 C   0  0  0  0  0  3  0  0  0  0  0  0
  185.7000  178.1060  143.9290 C   0  0  0  0  0  3  0  0  0  0  0  0
  187.3670  178.0820  145.7020 C   0  0  0  0  0  0  0  0  0  0  0  0
  184.7090  178.4330  144.8550 C   0  0  0  0  0  0  0  0  0  0  0  0
  186.3470  178.3710  146.6410 C   0  0  0  0  0  0  0  0  0  0  0  0
  188.7880  177.7950  146.1540 C   0  0  1  0  0  3  0  0  0  0  0  0
  186.6510  178.5530  148.1000 C   0  0  0  0  0  2  0  0  0  0  0  0
  1  4  1  0  0  0  0
  1  2  2  0  0  0  0
  3  8  1  6  0  0  0
  3  7  1  0  0  0  0
  5  1  1  0  0  0  0
  6  3  1  0  0  0  0
  6  5  1  0  0  0  0
  7 16  1  0  0  0  0
  7  4  1  0  0  0  0
  9  8  1  0  0  0  0
 10 14  2  0  0  0  0
 10 13  1  0  0  0  0
 11  9  1  0  0  0  0
 12 11  1  0  0  0  0
 13 12  2  0  0  0  0
 14 15  1  0  0  0  0
 15 11  2  0  0  0  0
 17 20  1  0  0  0  0
 18 25  1  0  0  0  0
 19 24  1  0  0  0  0
 21 23  1  0  0  0  0
 22 21  2  0  0  0  0
 22 24  1  0  0  0  0
 23 26  1  0  0  0  0
 23 25  2  0  0  0  0
 24 18  2  0  0  0  0
 25 27  1  0  0  0  0
 26 16  1  6  0  0  0
 26 17  1  0  0  0  0
 27 20  1  0  0  0  0
M  END
>  <MODEL>
7

>  <REMARK>
 VINA RESULT:      -8.6      3.906      6.875
  Name = 
  5 active torsions:
  status: ('A' for Active; 'I' for Inactive)
    1  A    between atoms: C_1  and  N_15
    2  A    between atoms: C_1  and  C_18
    3  A    between atoms: C_3  and  C_19
    4  A    between atoms: C_3  and  N_26
    5  A    between atoms: C_9  and  N_15
                            x       y       z     vdW  Elec       q    Type
                         _______ _______ _______ _____ _____    ______ ____

>  <TORSDO>
F 5

$$$$
=
 OpenBabel11052413493D

 27 30  0  0  1  0  0  0  0  0999 V2000
  190.1330  176.6420  139.7470 C   0  0  0  0  0  0  0  0  0  0  0  0
  191.0210  175.9890  139.1400 O   0  0  0  0  0  0  0  0  0  0  0  0
  188.1330  177.9520  141.2300 C   0  0  1  0  0  3  0  0  0  0  0  0
  190.4050  177.1880  141.1130 C   0  0  0  0  0  2  0  0  0  0  0  0
  188.8290  176.7720  139.1840 N   0  0  0  0  0  2  0  0  0  0  0  0
  187.8660  177.7090  139.7440 C   0  0  0  0  0  2  0  0  0  0  0  0
  189.5480  178.3380  141.4160 N   0  0  0  0  0  0  0  0  0  0  0  0
  187.1810  179.0590  141.6720 C   0  0  0  0  0  2  0  0  0  0  0  0
  185.8080  178.6830  141.3740 N   0  0  0  0  0  2  0  0  0  0  0  0
  182.7450  178.8620  144.2880 C   0  0  0  0  0  3  0  0  0  0  0  0
  184.7630  178.7310  142.3470 C   0  0  0  0  0  0  0  0  0  0  0  0
  185.0950  178.8170  143.7040 C   0  0  0  0  0  3  0  0  0  0  0  0
  184.0890  178.8810  144.6720 C   0  0  0  0  0  3  0  0  0  0  0  0
  182.4070  178.7780  142.9340 C   0  0  0  0  0  3  0  0  0  0  0  0
  183.4120  178.7140  141.9650 C   0  0  0  0  0  3  0  0  0  0  0  0
  189.8040  178.6270  142.8250 C   0  0  0  0  0  2  0  0  0  0  0  0
  191.5550  177.0580  143.5920 C   0  0  0  0  0  2  0  0  0  0  0  0
  189.5930  176.8230  147.3710 C   0  0  0  0  0  3  0  0  0  0  0  0
  187.7370  177.2890  148.7900 F   0  0  0  0  0  0  0  0  0  0  0  0
  191.8880  175.9080  144.5270 C   0  0  0  0  0  2  0  0  0  0  0  0
  188.1580  177.8340  145.2000 C   0  0  0  0  0  3  0  0  0  0  0  0
  187.5780  177.8080  146.4710 C   0  0  0  0  0  3  0  0  0  0  0  0
  189.4710  177.3790  145.0030 C   0  0  0  0  0  0  0  0  0  0  0  0
  188.2980  177.3090  147.5560 C   0  0  0  0  0  0  0  0  0  0  0  0
  190.1780  176.8350  146.1020 C   0  0  0  0  0  0  0  0  0  0  0  0
  190.0520  177.3370  143.6000 C   0  0  1  0  0  3  0  0  0  0  0  0
  191.5850  176.3300  145.9590 C   0  0  0  0  0  2  0  0  0  0  0  0
  1  4  1  0  0  0  0
  2  1  2  0  0  0  0
  3  7  1  0  0  0  0
  3  8  1  6  0  0  0
  4  7  1  0  0  0  0
  5  6  1  0  0  0  0
  5  1  1  0  0  0  0
  6  3  1  0  0  0  0
  7 16  1  0  0  0  0
  9  8  1  0  0  0  0
  9 11  1  0  0  0  0
 10 13  1  0  0  0  0
 11 12  1  0  0  0  0
 12 13  2  0  0  0  0
 14 10  2  0  0  0  0
 15 11  2  0  0  0  0
 15 14  1  0  0  0  0
 17 26  1  0  0  0  0
 17 20  1  0  0  0  0
 18 24  1  0  0  0  0
 20 27  1  0  0  0  0
 21 22  1  0  0  0  0
 22 24  2  0  0  0  0
 23 21  2  0  0  0  0
 23 25  1  0  0  0  0
 24 19  1  0  0  0  0
 25 18  2  0  0  0  0
 26 16  1  1  0  0  0
 26 23  1  0  0  0  0
 27 25  1  0  0  0  0
M  END
>  <MODEL>
8

>  <REMARK>
 VINA RESULT:      -8.6      1.913      3.305
  Name = 
  5 active torsions:
  status: ('A' for Active; 'I' for Inactive)
    1  A    between atoms: C_1  and  N_15
    2  A    between atoms: C_1  and  C_18
    3  A    between atoms: C_3  and  C_19
    4  A    between atoms: C_3  and  N_26
    5  A    between atoms: C_9  and  N_15
                            x       y       z     vdW  Elec       q    Type
                         _______ _______ _______ _____ _____    ______ ____

>  <TORSDO>
F 5

$$$$
=
 OpenBabel11052413493D

 27 30  0  0  1  0  0  0  0  0999 V2000
  191.1210  176.2460  142.9070 C   0  0  0  0  0  0  0  0  0  0  0  0
  192.0410  175.7500  143.6070 O   0  0  0  0  0  0  0  0  0  0  0  0
  189.0010  177.1720  141.3060 C   0  0  1  0  0  3  0  0  0  0  0  0
  189.7000  176.1620  143.3670 C   0  0  0  0  0  2  0  0  0  0  0  0
  191.4130  176.7920  141.6230 N   0  0  0  0  0  2  0  0  0  0  0  0
  190.4200  177.5770  140.9030 C   0  0  0  0  0  2  0  0  0  0  0  0
  188.8770  177.2220  142.7780 N   0  0  0  0  0  0  0  0  0  0  0  0
  188.0550  178.1550  140.6240 C   0  0  0  0  0  2  0  0  0  0  0  0
  188.6410  178.6280  139.3790 N   0  0  0  0  0  2  0  0  0  0  0  0
  187.2100  177.4900  135.5640 C   0  0  0  0  0  3  0  0  0  0  0  0
  188.1400  178.2530  138.0950 C   0  0  0  0  0  0  0  0  0  0  0  0
  189.0100  178.2410  136.9990 C   0  0  0  0  0  3  0  0  0  0  0  0
  188.5460  177.8620  135.7350 C   0  0  0  0  0  3  0  0  0  0  0  0
  186.3370  177.4980  136.6550 C   0  0  0  0  0  3  0  0  0  0  0  0
  186.8000  177.8770  137.9180 C   0  0  0  0  0  3  0  0  0  0  0  0
  187.5110  176.8920  143.1740 C   0  0  0  0  0  2  0  0  0  0  0  0
  185.3730  178.0610  143.6020 C   0  0  0  0  0  2  0  0  0  0  0  0
  186.4670  178.4170  147.7080 C   0  0  0  0  0  3  0  0  0  0  0  0
  188.0610  178.2130  149.4670 F   0  0  0  0  0  0  0  0  0  0  0  0
  184.6470  179.0700  144.4750 C   0  0  0  0  0  2  0  0  0  0  0  0
  188.4700  177.8250  145.8560 C   0  0  0  0  0  3  0  0  0  0  0  0
  188.7720  177.8780  147.2190 C   0  0  0  0  0  3  0  0  0  0  0  0
  187.1600  178.0420  145.4030 C   0  0  0  0  0  0  0  0  0  0  0  0
  187.7700  178.1670  148.1440 C   0  0  0  0  0  0  0  0  0  0  0  0
  186.1580  178.3770  146.3460 C   0  0  0  0  0  0  0  0  0  0  0  0
  186.8700  178.0640  143.9120 C   0  0  1  0  0  3  0  0  0  0  0  0
  184.7370  178.6220  145.9280 C   0  0  0  0  0  2  0  0  0  0  0  0
  1  4  1  0  0  0  0
  1  2  2  0  0  0  0
  3  8  1  6  0  0  0
  3  7  1  0  0  0  0
  5  1  1  0  0  0  0
  6  3  1  0  0  0  0
  6  5  1  0  0  0  0
  7 16  1  0  0  0  0
  7  4  1  0  0  0  0
  9  8  1  0  0  0  0
 10 13  2  0  0  0  0
 10 14  1  0  0  0  0
 11  9  1  0  0  0  0
 12 11  2  0  0  0  0
 13 12  1  0  0  0  0
 14 15  2  0  0  0  0
 15 11  1  0  0  0  0
 17 26  1  0  0  0  0
 17 20  1  0  0  0  0
 18 24  1  0  0  0  0
 20 27  1  0  0  0  0
 21 22  1  0  0  0  0
 22 24  2  0  0  0  0
 23 21  2  0  0  0  0
 23 25  1  0  0  0  0
 24 19  1  0  0  0  0
 25 18  2  0  0  0  0
 26 16  1  6  0  0  0
 26 23  1  0  0  0  0
 27 25  1  0  0  0  0
M  END
>  <MODEL>
9

>  <REMARK>
 VINA RESULT:      -8.6      3.040      5.562
  Name = 
  5 active torsions:
  status: ('A' for Active; 'I' for Inactive)
    1  A    between atoms: C_1  and  N_15
    2  A    between atoms: C_1  and  C_18
    3  A    between atoms: C_3  and  C_19
    4  A    between atoms: C_3  and  N_26
    5  A    between atoms: C_9  and  N_15
                            x       y       z     vdW  Elec       q    Type
                         _______ _______ _______ _____ _____    ______ ____

>  <TORSDO>
F 5

$$$$
