=
 OpenBabel11052412333D

 30 34  0  0  1  0  0  0  0  0999 V2000
  185.8290  178.2770  142.1800 C   0  0  0  0  0  3  0  0  0  0  0  0
  183.5780  178.6200  141.3220 C   0  0  0  0  0  0  0  0  0  0  0  0
  184.4250  178.5370  146.1410 C   0  0  0  0  0  3  0  0  0  0  0  0
  186.7360  178.1410  143.2350 C   0  0  0  0  0  0  0  0  0  0  0  0
  185.3190  178.4390  147.2080 C   0  0  0  0  0  3  0  0  0  0  0  0
  182.2170  178.8290  141.5580 C   0  0  0  0  0  3  0  0  0  0  0  0
  184.0430  178.5350  139.9770 N   0  0  0  0  0  1  0  0  0  0  0  0
  184.8780  178.4470  144.8130 C   0  0  0  0  0  0  0  0  0  0  0  0
  181.7330  178.9090  142.8640 C   0  0  0  0  0  3  0  0  0  0  0  0
  184.4670  178.4900  142.4050 C   0  0  0  0  0  0  0  0  0  0  0  0
  186.2620  178.2390  144.5640 C   0  0  0  0  0  0  0  0  0  0  0  0
  186.6790  178.2550  146.9640 C   0  0  0  0  0  3  0  0  0  0  0  0
  187.1460  178.1600  145.6540 C   0  0  0  0  0  3  0  0  0  0  0  0
  182.6080  178.7820  143.9440 C   0  0  0  0  0  3  0  0  0  0  0  0
  183.9810  178.5720  143.7310 C   0  0  0  0  0  0  0  0  0  0  0  0
  188.1310  177.8960  142.9350 N   0  0  0  0  0  0  0  0  0  0  0  0
  191.5700  177.2500  143.8960 C   0  0  0  0  0  3  0  0  0  0  0  0
  190.2050  179.0060  144.6840 O   0  0  0  0  0  0  0  0  0  0  0  0
  188.9940  177.1180  143.8260 C   0  0  1  0  0  3  0  0  0  0  0  0
  189.2380  175.7820  143.2650 N   0  0  0  0  0  0  0  0  0  0  0  0
  190.2640  177.8630  144.1610 C   0  0  0  0  0  0  0  0  0  0  0  0
  191.6420  176.0280  143.3770 C   0  0  0  0  0  3  0  0  0  0  0  0
  190.4190  175.2760  143.0590 C   0  0  0  0  0  3  0  0  0  0  0  0
  188.7660  178.5100  141.7750 C   0  0  0  0  0  2  0  0  0  0  0  0
  188.7530  177.5500  140.5970 C   0  0  0  0  0  2  0  0  0  0  0  0
  188.8300  178.3280  139.2990 C   0  0  0  0  0  2  0  0  0  0  0  0
  187.4980  178.4700  138.7350 N   0  0  0  0  0  2  0  0  0  0  0  0
  186.0230  177.6320  137.0160 C   0  0  0  0  0  2  0  0  0  0  0  0
  187.4090  177.5460  137.6210 C   0  0  0  0  0  3  0  0  0  0  0  0
  187.1840  178.3280  136.3440 C   0  0  0  0  0  2  0  0  0  0  0  0
  1 10  2  0  0  0  0
  1  4  1  0  0  0  0
  2  6  2  0  0  0  0
  2 10  1  0  0  0  0
  3  5  2  0  0  0  0
  4 11  2  0  0  0  0
  6  9  1  0  0  0  0
  7  2  1  0  0  0  0
  8  3  1  0  0  0  0
  9 14  2  0  0  0  0
 10 15  1  0  0  0  0
 11  8  1  0  0  0  0
 11 13  1  0  0  0  0
 12  5  1  0  0  0  0
 13 12  2  0  0  0  0
 15 14  1  0  0  0  0
 15  8  2  0  0  0  0
 16  4  1  0  0  0  0
 17 21  1  0  0  0  0
 19 16  1  6  0  0  0
 19 21  1  0  0  0  0
 20 19  1  0  0  0  0
 21 18  2  0  0  0  0
 22 17  2  0  0  0  0
 23 20  2  0  0  0  0
 23 22  1  0  0  0  0
 24 16  1  0  0  0  0
 25 24  1  0  0  0  0
 26 25  1  0  0  0  0
 27 26  1  0  0  0  0
 28 29  1  0  0  0  0
 29 27  1  0  0  0  0
 30 28  1  0  0  0  0
 30 29  1  0  0  0  0
M  END
>  <MODEL>
1

>  <REMARK>
 VINA RESULT:      -8.9      0.000      0.000
  Name = 
  7 active torsions:
  status: ('A' for Active; 'I' for Inactive)
    1  A    between atoms: C_4  and  N_13
    2  A    between atoms: N_7  and  C_15
    3  A    between atoms: N_7  and  C_16
    4  A    between atoms: C_8  and  N_13
    5  A    between atoms: N_13  and  C_27
    6  A    between atoms: C_16  and  C_30
    7  A    between atoms: C_27  and  C_30
                            x       y       z     vdW  Elec       q    Type
                         _______ _______ _______ _____ _____    ______ ____

>  <TORSDO>
F 7

$$$$
=
 OpenBabel11052412333D

 30 34  0  0  1  0  0  0  0  0999 V2000
  188.2300  177.5390  144.0770 C   0  0  0  0  0  3  0  0  0  0  0  0
  187.3290  177.6450  146.3350 C   0  0  0  0  0  0  0  0  0  0  0  0
  184.6050  178.9870  142.4970 C   0  0  0  0  0  3  0  0  0  0  0  0
  188.1110  177.7190  142.6960 C   0  0  0  0  0  0  0  0  0  0  0  0
  184.4540  179.1410  141.1190 C   0  0  0  0  0  3  0  0  0  0  0  0
  186.2730  177.9460  147.1980 C   0  0  0  0  0  3  0  0  0  0  0  0
  188.5510  177.1530  146.8810 N   0  0  0  0  0  1  0  0  0  0  0  0
  185.8110  178.5100  143.0400 C   0  0  0  0  0  0  0  0  0  0  0  0
  185.0670  178.4350  146.6940 C   0  0  0  0  0  3  0  0  0  0  0  0
  187.1790  177.8330  144.9490 C   0  0  0  0  0  0  0  0  0  0  0  0
  186.8890  178.1960  142.1680 C   0  0  0  0  0  0  0  0  0  0  0  0
  185.5040  178.8150  140.2610 C   0  0  0  0  0  3  0  0  0  0  0  0
  186.7090  178.3430  140.7820 C   0  0  0  0  0  3  0  0  0  0  0  0
  184.9110  178.6250  145.3200 C   0  0  0  0  0  3  0  0  0  0  0  0
  185.9580  178.3280  144.4310 C   0  0  0  0  0  0  0  0  0  0  0  0
  189.2460  177.4190  141.8490 N   0  0  0  0  0  0  0  0  0  0  0  0
  191.2940  176.4490  144.6830 C   0  0  0  0  0  3  0  0  0  0  0  0
  190.5520  175.0350  142.9470 O   0  0  0  0  0  0  0  0  0  0  0  0
  190.6130  177.3650  142.3690 C   0  0  1  0  0  3  0  0  0  0  0  0
  190.9930  178.6610  142.9490 N   0  0  0  0  0  0  0  0  0  0  0  0
  190.8020  176.2100  143.3230 C   0  0  0  0  0  0  0  0  0  0  0  0
  191.5950  177.6830  145.0780 C   0  0  0  0  0  3  0  0  0  0  0  0
  191.4380  178.8220  144.1610 C   0  0  0  0  0  3  0  0  0  0  0  0
  189.0840  177.2590  140.4090 C   0  0  0  0  0  2  0  0  0  0  0  0
  190.3860  176.7960  139.7780 C   0  0  0  0  0  2  0  0  0  0  0  0
  190.1810  176.5490  138.2970 C   0  0  0  0  0  2  0  0  0  0  0  0
  188.7770  176.7200  137.9630 N   0  0  0  0  0  2  0  0  0  0  0  0
  187.5600  178.5090  136.8910 C   0  0  0  0  0  2  0  0  0  0  0  0
  188.7220  177.5450  136.7720 C   0  0  0  0  0  3  0  0  0  0  0  0
  188.9680  178.9890  137.1570 C   0  0  0  0  0  2  0  0  0  0  0  0
  1 10  1  0  0  0  0
  2  7  1  0  0  0  0
  2  6  1  0  0  0  0
  3  8  1  0  0  0  0
  4  1  2  0  0  0  0
  5  3  2  0  0  0  0
  8 15  1  0  0  0  0
  9  6  2  0  0  0  0
 10  2  2  0  0  0  0
 11  4  1  0  0  0  0
 11  8  2  0  0  0  0
 12 13  2  0  0  0  0
 12  5  1  0  0  0  0
 13 11  1  0  0  0  0
 14  9  1  0  0  0  0
 15 10  1  0  0  0  0
 15 14  2  0  0  0  0
 16  4  1  0  0  0  0
 17 22  2  0  0  0  0
 18 21  2  0  0  0  0
 19 16  1  1  0  0  0
 19 20  1  0  0  0  0
 19 21  1  0  0  0  0
 20 23  2  0  0  0  0
 21 17  1  0  0  0  0
 23 22  1  0  0  0  0
 24 16  1  0  0  0  0
 25 24  1  0  0  0  0
 26 25  1  0  0  0  0
 27 26  1  0  0  0  0
 28 30  1  0  0  0  0
 29 28  1  0  0  0  0
 29 30  1  0  0  0  0
 29 27  1  0  0  0  0
M  END
>  <MODEL>
2

>  <REMARK>
 VINA RESULT:      -8.6      1.868      3.864
  Name = 
  7 active torsions:
  status: ('A' for Active; 'I' for Inactive)
    1  A    between atoms: C_4  and  N_13
    2  A    between atoms: N_7  and  C_15
    3  A    between atoms: N_7  and  C_16
    4  A    between atoms: C_8  and  N_13
    5  A    between atoms: N_13  and  C_27
    6  A    between atoms: C_16  and  C_30
    7  A    between atoms: C_27  and  C_30
                            x       y       z     vdW  Elec       q    Type
                         _______ _______ _______ _____ _____    ______ ____

>  <TORSDO>
F 7

$$$$
=
 OpenBabel11052412333D

 30 34  0  0  1  0  0  0  0  0999 V2000
  189.5150  177.3800  143.9920 C   0  0  0  0  0  3  0  0  0  0  0  0
  189.9370  177.1740  146.3800 C   0  0  0  0  0  0  0  0  0  0  0  0
  185.4500  178.2010  144.7190 C   0  0  0  0  0  3  0  0  0  0  0  0
  188.6630  177.6170  142.9100 C   0  0  0  0  0  0  0  0  0  0  0  0
  184.5750  178.4060  143.6520 C   0  0  0  0  0  3  0  0  0  0  0  0
  189.4670  177.2160  147.6950 C   0  0  0  0  0  3  0  0  0  0  0  0
  191.3150  176.8930  146.1460 N   0  0  0  0  0  1  0  0  0  0  0  0
  186.8100  177.9320  144.4920 C   0  0  0  0  0  0  0  0  0  0  0  0
  188.1250  177.4950  147.9550 C   0  0  0  0  0  3  0  0  0  0  0  0
  189.0540  177.4140  145.3110 C   0  0  0  0  0  0  0  0  0  0  0  0
  187.2960  177.8830  143.1570 C   0  0  0  0  0  0  0  0  0  0  0  0
  185.0460  178.3390  142.3410 C   0  0  0  0  0  3  0  0  0  0  0  0
  186.3940  178.0760  142.0970 C   0  0  0  0  0  3  0  0  0  0  0  0
  187.2430  177.7340  146.9000 C   0  0  0  0  0  3  0  0  0  0  0  0
  187.6920  177.6970  145.5690 C   0  0  0  0  0  0  0  0  0  0  0  0
  189.2070  177.5910  141.5690 N   0  0  0  0  0  0  0  0  0  0  0  0
  192.5140  177.4670  140.0790 C   0  0  0  0  0  3  0  0  0  0  0  0
  192.0130  177.9730  142.3290 O   0  0  0  0  0  0  0  0  0  0  0  0
  190.3140  176.7090  141.1950 C   0  0  1  0  0  3  0  0  0  0  0  0
  190.0550  176.0860  139.8900 N   0  0  0  0  0  0  0  0  0  0  0  0
  191.6430  177.4250  141.2580 C   0  0  0  0  0  0  0  0  0  0  0  0
  192.1480  176.8610  138.9540 C   0  0  0  0  0  3  0  0  0  0  0  0
  190.8680  176.1410  138.8750 C   0  0  0  0  0  3  0  0  0  0  0  0
  188.7400  178.5270  140.5530 C   0  0  0  0  0  2  0  0  0  0  0  0
  187.8820  177.8070  139.5270 C   0  0  0  0  0  2  0  0  0  0  0  0
  188.0020  178.4960  138.1820 C   0  0  0  0  0  2  0  0  0  0  0  0
  186.6760  178.7920  137.6650 N   0  0  0  0  0  2  0  0  0  0  0  0
  184.4750  178.9350  138.6480 C   0  0  0  0  0  2  0  0  0  0  0  0
  185.7260  178.0930  138.5090 C   0  0  0  0  0  3  0  0  0  0  0  0
  184.4920  177.7600  137.6970 C   0  0  0  0  0  2  0  0  0  0  0  0
  1 10  1  0  0  0  0
  2  6  1  0  0  0  0
  4 11  1  0  0  0  0
  4  1  2  0  0  0  0
  5  3  2  0  0  0  0
  6  9  2  0  0  0  0
  7  2  1  0  0  0  0
  8  3  1  0  0  0  0
  8 15  1  0  0  0  0
 10 15  1  0  0  0  0
 10  2  2  0  0  0  0
 11  8  2  0  0  0  0
 12  5  1  0  0  0  0
 13 12  2  0  0  0  0
 13 11  1  0  0  0  0
 14  9  1  0  0  0  0
 15 14  2  0  0  0  0
 16  4  1  0  0  0  0
 17 21  1  0  0  0  0
 19 21  1  0  0  0  0
 19 16  1  6  0  0  0
 20 19  1  0  0  0  0
 21 18  2  0  0  0  0
 22 17  2  0  0  0  0
 23 22  1  0  0  0  0
 23 20  2  0  0  0  0
 24 16  1  0  0  0  0
 25 24  1  0  0  0  0
 26 25  1  0  0  0  0
 27 26  1  0  0  0  0
 27 29  1  0  0  0  0
 29 28  1  0  0  0  0
 30 29  1  0  0  0  0
 30 28  1  0  0  0  0
M  END
>  <MODEL>
3

>  <REMARK>
 VINA RESULT:      -8.3      2.071      4.518
  Name = 
  7 active torsions:
  status: ('A' for Active; 'I' for Inactive)
    1  A    between atoms: C_4  and  N_13
    2  A    between atoms: N_7  and  C_15
    3  A    between atoms: N_7  and  C_16
    4  A    between atoms: C_8  and  N_13
    5  A    between atoms: N_13  and  C_27
    6  A    between atoms: C_16  and  C_30
    7  A    between atoms: C_27  and  C_30
                            x       y       z     vdW  Elec       q    Type
                         _______ _______ _______ _____ _____    ______ ____

>  <TORSDO>
F 7

$$$$
=
 OpenBabel11052412333D

 30 34  0  0  1  0  0  0  0  0999 V2000
  188.8110  177.7710  144.6870 C   0  0  0  0  0  3  0  0  0  0  0  0
  189.3400  177.7270  147.0620 C   0  0  0  0  0  0  0  0  0  0  0  0
  184.7770  178.6250  145.5380 C   0  0  0  0  0  3  0  0  0  0  0  0
  187.9110  177.9330  143.6300 C   0  0  0  0  0  0  0  0  0  0  0  0
  183.8550  178.7560  144.5000 C   0  0  0  0  0  3  0  0  0  0  0  0
  188.9280  177.8540  148.3910 C   0  0  0  0  0  3  0  0  0  0  0  0
  190.7080  177.4360  146.7850 N   0  0  0  0  0  1  0  0  0  0  0  0
  186.1280  178.3460  145.2700 C   0  0  0  0  0  0  0  0  0  0  0  0
  187.5970  178.1450  148.6920 C   0  0  0  0  0  3  0  0  0  0  0  0
  188.4090  177.8920  146.0190 C   0  0  0  0  0  0  0  0  0  0  0  0
  186.5540  178.2100  143.9200 C   0  0  0  0  0  0  0  0  0  0  0  0
  184.2680  178.6040  143.1770 C   0  0  0  0  0  3  0  0  0  0  0  0
  185.6050  178.3290  142.8910 C   0  0  0  0  0  3  0  0  0  0  0  0
  186.6680  178.3110  147.6630 C   0  0  0  0  0  3  0  0  0  0  0  0
  187.0580  178.1870  146.3190 C   0  0  0  0  0  0  0  0  0  0  0  0
  188.3950  177.8200  142.2710 N   0  0  0  0  0  0  0  0  0  0  0  0
  190.7960  175.4170  143.5490 C   0  0  0  0  0  3  0  0  0  0  0  0
  188.5410  174.9860  143.0060 O   0  0  0  0  0  0  0  0  0  0  0  0
  189.4760  176.9040  141.9040 C   0  0  1  0  0  3  0  0  0  0  0  0
  190.7490  177.6300  141.7900 N   0  0  0  0  0  0  0  0  0  0  0  0
  189.5480  175.7220  142.8420 C   0  0  0  0  0  0  0  0  0  0  0  0
  191.8760  176.1680  143.3550 C   0  0  0  0  0  3  0  0  0  0  0  0
  191.8360  177.3130  142.4320 C   0  0  0  0  0  3  0  0  0  0  0  0
  187.8930  178.6990  141.2220 C   0  0  0  0  0  2  0  0  0  0  0  0
  187.8930  177.9780  139.8840 C   0  0  0  0  0  2  0  0  0  0  0  0
  188.8290  178.6800  138.9210 C   0  0  0  0  0  2  0  0  0  0  0  0
  188.1260  178.9740  137.6840 N   0  0  0  0  0  2  0  0  0  0  0  0
  187.6490  178.0010  135.5260 C   0  0  0  0  0  2  0  0  0  0  0  0
  187.9620  177.7170  136.9800 C   0  0  0  0  0  3  0  0  0  0  0  0
  189.0460  177.5920  135.9300 C   0  0  0  0  0  2  0  0  0  0  0  0
  1 10  1  0  0  0  0
  2  6  1  0  0  0  0
  4 11  1  0  0  0  0
  4  1  2  0  0  0  0
  5  3  2  0  0  0  0
  6  9  2  0  0  0  0
  7  2  1  0  0  0  0
  8  3  1  0  0  0  0
  8 15  1  0  0  0  0
 10 15  1  0  0  0  0
 10  2  2  0  0  0  0
 11  8  2  0  0  0  0
 12  5  1  0  0  0  0
 13 12  2  0  0  0  0
 13 11  1  0  0  0  0
 14  9  1  0  0  0  0
 15 14  2  0  0  0  0
 16  4  1  0  0  0  0
 19 16  1  1  0  0  0
 19 21  1  0  0  0  0
 20 19  1  0  0  0  0
 20 23  2  0  0  0  0
 21 18  2  0  0  0  0
 21 17  1  0  0  0  0
 22 17  2  0  0  0  0
 23 22  1  0  0  0  0
 24 16  1  0  0  0  0
 25 24  1  0  0  0  0
 26 25  1  0  0  0  0
 27 26  1  0  0  0  0
 28 30  1  0  0  0  0
 28 29  1  0  0  0  0
 29 27  1  0  0  0  0
 30 29  1  0  0  0  0
M  END
>  <MODEL>
4

>  <REMARK>
 VINA RESULT:      -8.1      1.750      4.172
  Name = 
  7 active torsions:
  status: ('A' for Active; 'I' for Inactive)
    1  A    between atoms: C_4  and  N_13
    2  A    between atoms: N_7  and  C_15
    3  A    between atoms: N_7  and  C_16
    4  A    between atoms: C_8  and  N_13
    5  A    between atoms: N_13  and  C_27
    6  A    between atoms: C_16  and  C_30
    7  A    between atoms: C_27  and  C_30
                            x       y       z     vdW  Elec       q    Type
                         _______ _______ _______ _____ _____    ______ ____

>  <TORSDO>
F 7

$$$$
=
 OpenBabel11052412333D

 30 34  0  0  1  0  0  0  0  0999 V2000
  186.4450  178.2400  140.9650 C   0  0  0  0  0  3  0  0  0  0  0  0
  184.9560  178.6920  139.0940 C   0  0  0  0  0  0  0  0  0  0  0  0
  183.3360  179.0010  143.7010 C   0  0  0  0  0  3  0  0  0  0  0  0
  186.7000  178.1290  142.3350 C   0  0  0  0  0  0  0  0  0  0  0  0
  183.5780  178.9300  145.0740 C   0  0  0  0  0  3  0  0  0  0  0  0
  183.6890  179.0390  138.6180 C   0  0  0  0  0  3  0  0  0  0  0  0
  186.0020  178.4380  138.1590 N   0  0  0  0  0  1  0  0  0  0  0  0
  184.3620  178.7440  142.7760 C   0  0  0  0  0  0  0  0  0  0  0  0
  182.6450  179.2860  139.5100 C   0  0  0  0  0  3  0  0  0  0  0  0
  185.1830  178.5910  140.4790 C   0  0  0  0  0  0  0  0  0  0  0  0
  185.6560  178.3950  143.2520 C   0  0  0  0  0  0  0  0  0  0  0  0
  184.8510  178.6070  145.5410 C   0  0  0  0  0  3  0  0  0  0  0  0
  185.8810  178.3460  144.6380 C   0  0  0  0  0  3  0  0  0  0  0  0
  182.8620  179.1880  140.8850 C   0  0  0  0  0  3  0  0  0  0  0  0
  184.1280  178.8410  141.3880 C   0  0  0  0  0  0  0  0  0  0  0  0
  188.0220  177.7380  142.7740 N   0  0  0  0  0  0  0  0  0  0  0  0
  191.5960  177.4240  142.2280 C   0  0  0  0  0  3  0  0  0  0  0  0
  189.8920  176.7940  140.7230 O   0  0  0  0  0  0  0  0  0  0  0  0
  189.2280  178.4440  142.3370 C   0  0  1  0  0  3  0  0  0  0  0  0
  189.7920  179.2300  143.4430 N   0  0  0  0  0  0  0  0  0  0  0  0
  190.2270  177.5030  141.7080 C   0  0  0  0  0  0  0  0  0  0  0  0
  191.9700  178.1950  143.2450 C   0  0  0  0  0  3  0  0  0  0  0  0
  191.0200  179.1330  143.8620 C   0  0  0  0  0  3  0  0  0  0  0  0
  188.2180  176.5480  143.5940 C   0  0  0  0  0  2  0  0  0  0  0  0
  188.2590  176.9220  145.0660 C   0  0  0  0  0  2  0  0  0  0  0  0
  189.5990  176.5330  145.6580 C   0  0  0  0  0  2  0  0  0  0  0  0
  189.6030  176.8150  147.0840 N   0  0  0  0  0  2  0  0  0  0  0  0
  188.0080  177.3340  148.8210 C   0  0  0  0  0  2  0  0  0  0  0  0
  188.3920  177.5570  147.3730 C   0  0  0  0  0  3  0  0  0  0  0  0
  188.6940  178.6170  148.4120 C   0  0  0  0  0  2  0  0  0  0  0  0
  1  4  1  0  0  0  0
  2 10  1  0  0  0  0
  3  5  2  0  0  0  0
  4 16  1  0  0  0  0
  4 11  2  0  0  0  0
  5 12  1  0  0  0  0
  6  2  2  0  0  0  0
  6  9  1  0  0  0  0
  7  2  1  0  0  0  0
  8 11  1  0  0  0  0
  8  3  1  0  0  0  0
  9 14  2  0  0  0  0
 10  1  2  0  0  0  0
 10 15  1  0  0  0  0
 11 13  1  0  0  0  0
 13 12  2  0  0  0  0
 14 15  1  0  0  0  0
 15  8  2  0  0  0  0
 16 24  1  0  0  0  0
 17 22  2  0  0  0  0
 18 21  2  0  0  0  0
 19 16  1  1  0  0  0
 19 20  1  0  0  0  0
 20 23  2  0  0  0  0
 21 17  1  0  0  0  0
 21 19  1  0  0  0  0
 22 23  1  0  0  0  0
 24 25  1  0  0  0  0
 25 26  1  0  0  0  0
 26 27  1  0  0  0  0
 27 29  1  0  0  0  0
 29 30  1  0  0  0  0
 29 28  1  0  0  0  0
 30 28  1  0  0  0  0
M  END
>  <MODEL>
5

>  <REMARK>
 VINA RESULT:      -7.9      1.915      4.804
  Name = 
  7 active torsions:
  status: ('A' for Active; 'I' for Inactive)
    1  A    between atoms: C_4  and  N_13
    2  A    between atoms: N_7  and  C_15
    3  A    between atoms: N_7  and  C_16
    4  A    between atoms: C_8  and  N_13
    5  A    between atoms: N_13  and  C_27
    6  A    between atoms: C_16  and  C_30
    7  A    between atoms: C_27  and  C_30
                            x       y       z     vdW  Elec       q    Type
                         _______ _______ _______ _____ _____    ______ ____

>  <TORSDO>
F 7

$$$$
=
 OpenBabel11052412333D

 30 34  0  0  1  0  0  0  0  0999 V2000
  186.9590  178.0240  141.9280 C   0  0  0  0  0  3  0  0  0  0  0  0
  185.6550  178.6480  139.9700 C   0  0  0  0  0  0  0  0  0  0  0  0
  183.6760  178.8160  144.4420 C   0  0  0  0  0  3  0  0  0  0  0  0
  187.0930  177.8310  143.3060 C   0  0  0  0  0  0  0  0  0  0  0  0
  183.7990  178.6630  145.8240 C   0  0  0  0  0  3  0  0  0  0  0  0
  184.4510  179.0860  139.4140 C   0  0  0  0  0  3  0  0  0  0  0  0
  186.7610  178.3850  139.1100 N   0  0  0  0  0  1  0  0  0  0  0  0
  184.7610  178.5500  143.5900 C   0  0  0  0  0  0  0  0  0  0  0  0
  183.3500  179.3450  140.2310 C   0  0  0  0  0  3  0  0  0  0  0  0
  185.7610  178.4660  141.3620 C   0  0  0  0  0  0  0  0  0  0  0  0
  185.9910  178.1080  144.1490 C   0  0  0  0  0  0  0  0  0  0  0  0
  185.0110  178.2490  146.3740 C   0  0  0  0  0  3  0  0  0  0  0  0
  186.0980  177.9770  145.5440 C   0  0  0  0  0  3  0  0  0  0  0  0
  183.4470  179.1670  141.6120 C   0  0  0  0  0  3  0  0  0  0  0  0
  184.6480  178.7280  142.1950 C   0  0  0  0  0  0  0  0  0  0  0  0
  188.3540  177.3480  143.8280 N   0  0  0  0  0  0  0  0  0  0  0  0
  191.5490  177.8800  145.4640 C   0  0  0  0  0  3  0  0  0  0  0  0
  190.6750  179.1310  143.6650 O   0  0  0  0  0  0  0  0  0  0  0  0
  189.0180  177.9800  144.9690 C   0  0  1  0  0  3  0  0  0  0  0  0
  188.9150  177.1270  146.1610 N   0  0  0  0  0  0  0  0  0  0  0  0
  190.4400  178.3700  144.6390 C   0  0  0  0  0  0  0  0  0  0  0  0
  191.3080  177.1050  146.5170 C   0  0  0  0  0  3  0  0  0  0  0  0
  189.9300  176.7270  146.8690 C   0  0  0  0  0  3  0  0  0  0  0  0
  189.0720  176.2650  143.1660 C   0  0  0  0  0  2  0  0  0  0  0  0
  189.2960  176.5970  141.7010 C   0  0  0  0  0  2  0  0  0  0  0  0
  190.7790  176.7480  141.4290 C   0  0  0  0  0  2  0  0  0  0  0  0
  190.9760  177.3870  140.1380 N   0  0  0  0  0  2  0  0  0  0  0  0
  190.5240  177.1280  137.7800 C   0  0  0  0  0  2  0  0  0  0  0  0
  190.5570  176.4360  139.1270 C   0  0  0  0  0  3  0  0  0  0  0  0
  191.6870  176.2320  138.1390 C   0  0  0  0  0  2  0  0  0  0  0  0
  1  4  1  0  0  0  0
  2 10  1  0  0  0  0
  3  5  2  0  0  0  0
  4 16  1  0  0  0  0
  4 11  2  0  0  0  0
  5 12  1  0  0  0  0
  6  2  2  0  0  0  0
  6  9  1  0  0  0  0
  7  2  1  0  0  0  0
  8 11  1  0  0  0  0
  8  3  1  0  0  0  0
  9 14  2  0  0  0  0
 10  1  2  0  0  0  0
 10 15  1  0  0  0  0
 11 13  1  0  0  0  0
 13 12  2  0  0  0  0
 14 15  1  0  0  0  0
 15  8  2  0  0  0  0
 17 22  2  0  0  0  0
 18 21  2  0  0  0  0
 19 16  1  6  0  0  0
 19 20  1  0  0  0  0
 20 23  2  0  0  0  0
 21 19  1  0  0  0  0
 21 17  1  0  0  0  0
 22 23  1  0  0  0  0
 24 16  1  0  0  0  0
 25 24  1  0  0  0  0
 26 25  1  0  0  0  0
 27 26  1  0  0  0  0
 28 30  1  0  0  0  0
 28 29  1  0  0  0  0
 29 27  1  0  0  0  0
 30 29  1  0  0  0  0
M  END
>  <MODEL>
6

>  <REMARK>
 VINA RESULT:      -7.9      1.856      2.615
  Name = 
  7 active torsions:
  status: ('A' for Active; 'I' for Inactive)
    1  A    between atoms: C_4  and  N_13
    2  A    between atoms: N_7  and  C_15
    3  A    between atoms: N_7  and  C_16
    4  A    between atoms: C_8  and  N_13
    5  A    between atoms: N_13  and  C_27
    6  A    between atoms: C_16  and  C_30
    7  A    between atoms: C_27  and  C_30
                            x       y       z     vdW  Elec       q    Type
                         _______ _______ _______ _____ _____    ______ ____

>  <TORSDO>
F 7

$$$$
=
 OpenBabel11052412333D

 30 34  0  0  1  0  0  0  0  0999 V2000
  189.5380  177.5100  139.7340 C   0  0  0  0  0  3  0  0  0  0  0  0
  190.1320  176.9500  137.4410 C   0  0  0  0  0  0  0  0  0  0  0  0
  185.6110  178.4590  138.5490 C   0  0  0  0  0  3  0  0  0  0  0  0
  188.6190  177.9350  140.6970 C   0  0  0  0  0  0  0  0  0  0  0  0
  184.6880  178.9190  139.4880 C   0  0  0  0  0  3  0  0  0  0  0  0
  189.7680  176.8240  136.0980 C   0  0  0  0  0  3  0  0  0  0  0  0
  191.4650  176.6280  137.8310 N   0  0  0  0  0  1  0  0  0  0  0  0
  186.9230  178.1330  138.9300 C   0  0  0  0  0  0  0  0  0  0  0  0
  188.4690  177.1260  135.6890 C   0  0  0  0  0  3  0  0  0  0  0  0
  189.1860  177.3840  138.3880 C   0  0  0  0  0  0  0  0  0  0  0  0
  187.3030  178.2630  140.2940 C   0  0  0  0  0  0  0  0  0  0  0  0
  185.0650  179.0660  140.8220 C   0  0  0  0  0  3  0  0  0  0  0  0
  186.3620  178.7440  141.2200 C   0  0  0  0  0  3  0  0  0  0  0  0
  187.5240  177.5570  136.6220 C   0  0  0  0  0  3  0  0  0  0  0  0
  187.8670  177.6920  137.9780 C   0  0  0  0  0  0  0  0  0  0  0  0
  189.0400  178.0210  142.0790 N   0  0  0  0  0  0  0  0  0  0  0  0
  191.1960  176.3290  144.4580 C   0  0  0  0  0  3  0  0  0  0  0  0
  190.3060  175.4070  142.4770 O   0  0  0  0  0  0  0  0  0  0  0  0
  190.4290  177.8060  142.4850 C   0  0  1  0  0  3  0  0  0  0  0  0
  190.8910  178.9080  143.3400 N   0  0  0  0  0  0  0  0  0  0  0  0
  190.6230  176.4460  143.1130 C   0  0  0  0  0  0  0  0  0  0  0  0
  191.5670  177.4190  145.1240 C   0  0  0  0  0  3  0  0  0  0  0  0
  191.4060  178.7530  144.5250 C   0  0  0  0  0  3  0  0  0  0  0  0
  188.0670  178.2230  143.1470 C   0  0  0  0  0  2  0  0  0  0  0  0
  187.5900  176.8860  143.6870 C   0  0  0  0  0  2  0  0  0  0  0  0
  187.1080  177.0510  145.1150 C   0  0  0  0  0  2  0  0  0  0  0  0
  188.0890  177.8040  145.8780 N   0  0  0  0  0  2  0  0  0  0  0  0
  189.2870  177.8450  147.9740 C   0  0  0  0  0  2  0  0  0  0  0  0
  188.1780  177.1820  147.1840 C   0  0  0  0  0  3  0  0  0  0  0  0
  187.8460  178.2090  148.2470 C   0  0  0  0  0  2  0  0  0  0  0  0
  1  4  1  0  0  0  0
  2  7  1  0  0  0  0
  2 10  1  0  0  0  0
  3  8  1  0  0  0  0
  3  5  2  0  0  0  0
  4 16  1  0  0  0  0
  5 12  1  0  0  0  0
  6  2  2  0  0  0  0
  8 11  1  0  0  0  0
  9  6  1  0  0  0  0
  9 14  2  0  0  0  0
 10  1  2  0  0  0  0
 11  4  2  0  0  0  0
 11 13  1  0  0  0  0
 12 13  2  0  0  0  0
 14 15  1  0  0  0  0
 15 10  1  0  0  0  0
 15  8  2  0  0  0  0
 16 24  1  0  0  0  0
 17 22  2  0  0  0  0
 18 21  2  0  0  0  0
 19 16  1  1  0  0  0
 19 21  1  0  0  0  0
 19 20  1  0  0  0  0
 20 23  2  0  0  0  0
 21 17  1  0  0  0  0
 23 22  1  0  0  0  0
 24 25  1  0  0  0  0
 25 26  1  0  0  0  0
 26 27  1  0  0  0  0
 27 29  1  0  0  0  0
 28 30  1  0  0  0  0
 29 28  1  0  0  0  0
 29 30  1  0  0  0  0
M  END
>  <MODEL>
7

>  <REMARK>
 VINA RESULT:      -7.7      2.415      6.538
  Name = 
  7 active torsions:
  status: ('A' for Active; 'I' for Inactive)
    1  A    between atoms: C_4  and  N_13
    2  A    between atoms: N_7  and  C_15
    3  A    between atoms: N_7  and  C_16
    4  A    between atoms: C_8  and  N_13
    5  A    between atoms: N_13  and  C_27
    6  A    between atoms: C_16  and  C_30
    7  A    between atoms: C_27  and  C_30
                            x       y       z     vdW  Elec       q    Type
                         _______ _______ _______ _____ _____    ______ ____

>  <TORSDO>
F 7

$$$$
=
 OpenBabel11052412333D

 30 34  0  0  1  0  0  0  0  0999 V2000
  187.5490  178.2640  140.5890 C   0  0  0  0  0  3  0  0  0  0  0  0
  185.4000  178.9730  141.4850 C   0  0  0  0  0  0  0  0  0  0  0  0
  188.8150  177.0560  144.4190 C   0  0  0  0  0  3  0  0  0  0  0  0
  188.8240  177.7130  140.7440 C   0  0  0  0  0  0  0  0  0  0  0  0
  190.0970  176.5360  144.6010 C   0  0  0  0  0  3  0  0  0  0  0  0
  184.5370  179.1190  142.5740 C   0  0  0  0  0  3  0  0  0  0  0  0
  184.9620  179.3870  140.1930 N   0  0  0  0  0  1  0  0  0  0  0  0
  188.3760  177.4580  143.1460 C   0  0  0  0  0  0  0  0  0  0  0  0
  184.9370  178.7170  143.8490 C   0  0  0  0  0  3  0  0  0  0  0  0
  186.6800  178.4180  141.6720 C   0  0  0  0  0  0  0  0  0  0  0  0
  189.2500  177.3170  142.0330 C   0  0  0  0  0  0  0  0  0  0  0  0
  190.9620  176.4160  143.5140 C   0  0  0  0  0  3  0  0  0  0  0  0
  190.5420  176.8070  142.2430 C   0  0  0  0  0  3  0  0  0  0  0  0
  186.2040  178.1650  144.0430 C   0  0  0  0  0  3  0  0  0  0  0  0
  187.0900  178.0090  142.9630 C   0  0  0  0  0  0  0  0  0  0  0  0
  189.6680  177.5560  139.5780 N   0  0  0  0  0  0  0  0  0  0  0  0
  192.5990  176.2890  137.8540 C   0  0  0  0  0  3  0  0  0  0  0  0
  192.5850  177.5310  139.8600 O   0  0  0  0  0  0  0  0  0  0  0  0
  190.5270  176.3860  139.3900 C   0  0  1  0  0  3  0  0  0  0  0  0
  189.9450  175.4770  138.3920 N   0  0  0  0  0  0  0  0  0  0  0  0
  191.9490  176.7850  139.0720 C   0  0  0  0  0  0  0  0  0  0  0  0
  191.9460  175.4720  137.0330 C   0  0  0  0  0  3  0  0  0  0  0  0
  190.5680  175.0550  137.3310 C   0  0  0  0  0  3  0  0  0  0  0  0
  189.7750  178.6180  138.5850 C   0  0  0  0  0  2  0  0  0  0  0  0
  189.1150  178.1930  137.2830 C   0  0  0  0  0  2  0  0  0  0  0  0
  188.0080  179.1650  136.9270 C   0  0  0  0  0  2  0  0  0  0  0  0
  186.7230  178.6030  137.3080 N   0  0  0  0  0  2  0  0  0  0  0  0
  185.3870  176.5960  137.1760 C   0  0  0  0  0  2  0  0  0  0  0  0
  186.7690  177.1890  136.9910 C   0  0  0  0  0  3  0  0  0  0  0  0
  185.8890  176.9210  135.7880 C   0  0  0  0  0  2  0  0  0  0  0  0
  1  4  2  0  0  0  0
  1 10  1  0  0  0  0
  2 10  2  0  0  0  0
  2  6  1  0  0  0  0
  3  5  1  0  0  0  0
  4 11  1  0  0  0  0
  6  9  2  0  0  0  0
  7  2  1  0  0  0  0
  8  3  2  0  0  0  0
  9 14  1  0  0  0  0
 10 15  1  0  0  0  0
 11 13  2  0  0  0  0
 11  8  1  0  0  0  0
 12  5  2  0  0  0  0
 13 12  1  0  0  0  0
 15  8  1  0  0  0  0
 15 14  2  0  0  0  0
 16  4  1  0  0  0  0
 17 21  1  0  0  0  0
 19 16  1  6  0  0  0
 20 19  1  0  0  0  0
 21 19  1  0  0  0  0
 21 18  2  0  0  0  0
 22 23  1  0  0  0  0
 22 17  2  0  0  0  0
 23 20  2  0  0  0  0
 24 16  1  0  0  0  0
 25 24  1  0  0  0  0
 26 25  1  0  0  0  0
 26 27  1  0  0  0  0
 29 28  1  0  0  0  0
 29 27  1  0  0  0  0
 30 29  1  0  0  0  0
 30 28  1  0  0  0  0
M  END
>  <MODEL>
8

>  <REMARK>
 VINA RESULT:      -7.7      2.311      4.039
  Name = 
  7 active torsions:
  status: ('A' for Active; 'I' for Inactive)
    1  A    between atoms: C_4  and  N_13
    2  A    between atoms: N_7  and  C_15
    3  A    between atoms: N_7  and  C_16
    4  A    between atoms: C_8  and  N_13
    5  A    between atoms: N_13  and  C_27
    6  A    between atoms: C_16  and  C_30
    7  A    between atoms: C_27  and  C_30
                            x       y       z     vdW  Elec       q    Type
                         _______ _______ _______ _____ _____    ______ ____

>  <TORSDO>
F 7

$$$$
=
 OpenBabel11052412333D

 30 34  0  0  1  0  0  0  0  0999 V2000
  187.6490  178.2770  141.8400 C   0  0  0  0  0  3  0  0  0  0  0  0
  189.7780  177.8600  142.9430 C   0  0  0  0  0  0  0  0  0  0  0  0
  189.3850  177.5400  138.0760 C   0  0  0  0  0  3  0  0  0  0  0  0
  186.8540  178.3650  140.6930 C   0  0  0  0  0  0  0  0  0  0  0  0
  188.6180  177.6570  136.9160 C   0  0  0  0  0  3  0  0  0  0  0  0
  191.1310  177.5220  142.8620 C   0  0  0  0  0  3  0  0  0  0  0  0
  189.2000  178.1090  144.2230 N   0  0  0  0  0  1  0  0  0  0  0  0
  188.8180  177.7770  139.3390 C   0  0  0  0  0  0  0  0  0  0  0  0
  191.7210  177.2660  141.6240 C   0  0  0  0  0  3  0  0  0  0  0  0
  189.0030  177.9440  141.7700 C   0  0  0  0  0  0  0  0  0  0  0  0
  187.4430  178.1260  139.4290 C   0  0  0  0  0  0  0  0  0  0  0  0
  187.2740  178.0180  137.0020 C   0  0  0  0  0  3  0  0  0  0  0  0
  186.6940  178.2550  138.2480 C   0  0  0  0  0  3  0  0  0  0  0  0
  190.9600  177.3470  140.4570 C   0  0  0  0  0  3  0  0  0  0  0  0
  189.5970  177.6860  140.5120 C   0  0  0  0  0  0  0  0  0  0  0  0
  185.4510  178.6900  140.8350 N   0  0  0  0  0  0  0  0  0  0  0  0
  182.2210  179.5840  139.4420 C   0  0  0  0  0  3  0  0  0  0  0  0
  184.2890  180.6030  138.9410 O   0  0  0  0  0  0  0  0  0  0  0  0
  184.4680  178.3670  139.7990 C   0  0  1  0  0  3  0  0  0  0  0  0
  183.6120  177.2540  140.2330 N   0  0  0  0  0  0  0  0  0  0  0  0
  183.6860  179.5860  139.3730 C   0  0  0  0  0  0  0  0  0  0  0  0
  181.5730  178.5020  139.8630 C   0  0  0  0  0  3  0  0  0  0  0  0
  182.3120  177.2960  140.2660 C   0  0  0  0  0  3  0  0  0  0  0  0
  184.9710  179.4540  141.9800 C   0  0  0  0  0  2  0  0  0  0  0  0
  184.4320  178.5200  143.0500 C   0  0  0  0  0  2  0  0  0  0  0  0
  183.6670  179.3150  144.0890 C   0  0  0  0  0  2  0  0  0  0  0  0
  184.0360  178.8620  145.4200 N   0  0  0  0  0  2  0  0  0  0  0  0
  185.8570  178.9140  147.0060 C   0  0  0  0  0  2  0  0  0  0  0  0
  185.4690  179.0440  145.5470 C   0  0  0  0  0  3  0  0  0  0  0  0
  186.0900  177.7610  146.0580 C   0  0  0  0  0  2  0  0  0  0  0  0
  2  7  1  0  0  0  0
  3  8  1  0  0  0  0
  4 16  1  0  0  0  0
  4  1  2  0  0  0  0
  5 12  1  0  0  0  0
  5  3  2  0  0  0  0
  6  2  1  0  0  0  0
  8 11  2  0  0  0  0
  8 15  1  0  0  0  0
  9  6  2  0  0  0  0
 10  1  1  0  0  0  0
 10  2  2  0  0  0  0
 11  4  1  0  0  0  0
 12 13  2  0  0  0  0
 13 11  1  0  0  0  0
 14 15  2  0  0  0  0
 14  9  1  0  0  0  0
 15 10  1  0  0  0  0
 16 24  1  0  0  0  0
 17 22  2  0  0  0  0
 18 21  2  0  0  0  0
 19 20  1  0  0  0  0
 19 16  1  1  0  0  0
 20 23  2  0  0  0  0
 21 17  1  0  0  0  0
 21 19  1  0  0  0  0
 22 23  1  0  0  0  0
 24 25  1  0  0  0  0
 25 26  1  0  0  0  0
 26 27  1  0  0  0  0
 27 29  1  0  0  0  0
 29 30  1  0  0  0  0
 29 28  1  0  0  0  0
 30 28  1  0  0  0  0
M  END
>  <MODEL>
9

>  <REMARK>
 VINA RESULT:      -7.7      2.273      7.801
  Name = 
  7 active torsions:
  status: ('A' for Active; 'I' for Inactive)
    1  A    between atoms: C_4  and  N_13
    2  A    between atoms: N_7  and  C_15
    3  A    between atoms: N_7  and  C_16
    4  A    between atoms: C_8  and  N_13
    5  A    between atoms: N_13  and  C_27
    6  A    between atoms: C_16  and  C_30
    7  A    between atoms: C_27  and  C_30
                            x       y       z     vdW  Elec       q    Type
                         _______ _______ _______ _____ _____    ______ ____

>  <TORSDO>
F 7

$$$$
