=
 OpenBabel11052415293D

 37 45  0  0  1  0  0  0  0  0999 V2000
  189.6210  176.1740  143.2990 C   0  0  1  0  0  3  0  0  0  0  0  0
  188.7930  177.0710  147.8580 C   0  0  2  0  0  3  0  0  0  0  0  0
  185.7790  178.0180  144.6950 C   0  0  1  0  0  3  0  0  0  0  0  0
  186.3500  179.1570  141.1920 C   0  0  0  0  0  2  0  0  0  0  0  0
  186.7400  178.2140  147.0760 C   0  0  2  0  0  3  0  0  0  0  0  0
  186.1990  177.9990  143.4340 C   0  0  1  0  0  3  0  0  0  0  0  0
  191.7200  176.5820  144.6770 C   0  0  0  0  0  1  0  0  0  0  0  0
  186.9080  177.7050  145.6360 C   0  0  2  0  0  3  0  0  0  0  0  0
  185.4730  178.5640  142.2670 C   0  0  0  0  0  0  0  0  0  0  0  0
  185.7950  179.4030  147.1870 C   0  0  0  0  0  2  0  0  0  0  0  0
  188.1460  178.1820  144.8760 C   0  0  1  0  0  3  0  0  0  0  0  0
  189.4520  176.6150  146.5410 C   0  0  1  0  0  3  0  0  0  0  0  0
  183.3580  178.1410  144.5080 C   0  0  0  0  0  3  0  0  0  0  0  0
  190.3910  177.1550  144.2010 C   0  0  2  0  0  3  0  0  0  0  0  0
  184.4450  178.9910  146.6020 C   0  0  0  0  0  2  0  0  0  0  0  0
  189.5020  177.6150  145.3630 C   0  0  1  0  0  3  0  0  0  0  0  0
  187.5960  178.3100  140.9440 C   0  0  0  0  0  2  0  0  0  0  0  0
  184.5610  178.7920  145.0910 C   0  0  1  0  0  3  0  0  0  0  0  0
  187.6790  177.8670  143.4560 C   0  0  2  0  0  0  0  0  0  0  0  0
  188.0790  178.4210  147.7700 C   0  0  0  0  0  2  0  0  0  0  0  0
  184.1130  178.5720  142.1440 C   0  0  0  0  0  0  0  0  0  0  0  0
  190.2830  177.2090  147.6690 C   0  0  0  0  0  2  0  0  0  0  0  0
  188.4720  178.1690  142.1940 C   0  0  1  0  0  3  0  0  0  0  0  0
  188.3080  176.7180  142.6870 C   0  0  1  0  0  3  0  0  0  0  0  0
  183.1800  178.0610  143.1860 C   0  0  0  0  0  3  0  0  0  0  0  0
  184.2180  179.4720  139.8030 C   0  0  0  0  0  3  0  0  0  0  0  0
  183.4580  179.0570  140.9060 C   0  0  0  0  0  0  0  0  0  0  0  0
  182.0620  179.1600  140.8490 C   0  0  0  0  0  3  0  0  0  0  0  0
  180.1040  179.7420  139.6240 F   0  0  0  0  0  0  0  0  0  0  0  0
  182.2140  180.0300  138.6300 N   0  0  0  0  0  0  0  0  0  0  0  0
  181.4540  179.6480  139.6900 C   0  0  0  0  0  0  0  0  0  0  0  0
  183.5720  179.9540  138.6630 C   0  0  0  0  0  3  0  0  0  0  0  0
  190.4240  175.4880  142.3590 O   0  0  0  0  0  0  0  0  0  0  0  0
  190.9600  176.4170  141.4520 C   0  0  0  0  0  2  0  0  0  0  0  0
  190.5270  176.1100  140.1630 O   0  0  0  0  0  0  0  0  0  0  0  0
  190.8910  177.2180  139.3990 C   0  0  0  0  0  2  0  0  0  0  0  0
  189.9140  177.4600  138.4350 O   0  0  0  0  0  1  0  0  0  0  0  0
  1 33  1  6  0  0  0
  1 14  1  0  0  0  0
  2 22  1  1  0  0  0
  3 18  1  0  0  0  0
  3  8  1  0  0  0  0
  4  9  1  0  0  0  0
  5 10  1  0  0  0  0
  5 20  1  0  0  0  0
  6 19  1  0  0  0  0
  6  3  1  0  0  0  0
  8  5  1  0  0  0  0
  9  6  1  0  0  0  0
 11 16  1  0  0  0  0
 11  8  1  0  0  0  0
 12 22  1  0  0  0  0
 12  2  1  0  0  0  0
 13 18  1  0  0  0  0
 14  7  1  0  0  0  0
 14 16  1  0  0  0  0
 15 10  1  0  0  0  0
 16 12  1  0  0  0  0
 17  4  1  0  0  0  0
 17 23  1  0  0  0  0
 18 15  1  0  0  0  0
 19 11  1  0  0  0  0
 20  2  1  0  0  0  0
 21  9  2  0  0  0  0
 21 25  1  0  0  0  0
 23 24  1  0  0  0  0
 23 19  1  0  0  0  0
 24  1  1  0  0  0  0
 24 19  1  0  0  0  0
 25 13  2  0  0  0  0
 26 27  1  0  0  0  0
 27 21  1  0  0  0  0
 28 27  2  0  0  0  0
 29 31  1  0  0  0  0
 30 32  1  0  0  0  0
 30 31  2  0  0  0  0
 31 28  1  0  0  0  0
 32 26  2  0  0  0  0
 34 33  1  0  0  0  0
 35 34  1  0  0  0  0
 36 35  1  0  0  0  0
 37 36  1  0  0  0  0
M  END
>  <MODEL>
1

>  <REMARK>
 VINA RESULT:     -10.2      0.000      0.000
  Name = 
  5 active torsions:
  status: ('A' for Active; 'I' for Inactive)
    1  A    between atoms: C_1  and  O_5
    2  A    between atoms: O_5  and  C_17
    3  A    between atoms: C_6  and  C_31
    4  A    between atoms: C_11  and  O_26
    5  A    between atoms: C_17  and  O_26
                            x       y       z     vdW  Elec       q    Type
                         _______ _______ _______ _____ _____    ______ ____

>  <TORSDO>
F 5

$$$$
=
 OpenBabel11052415293D

 37 45  0  0  1  0  0  0  0  0999 V2000
  188.2090  176.4730  137.3420 C   0  0  1  0  0  3  0  0  0  0  0  0
  192.7530  176.1900  138.5820 C   0  0  2  0  0  3  0  0  0  0  0  0
  189.5460  176.9940  141.5910 C   0  0  1  0  0  3  0  0  0  0  0  0
  186.3870  178.9270  141.1750 C   0  0  0  0  0  2  0  0  0  0  0  0
  192.0030  176.9290  140.8240 C   0  0  2  0  0  3  0  0  0  0  0  0
  188.3500  177.3350  141.1230 C   0  0  1  0  0  3  0  0  0  0  0  0
  189.8340  177.0940  135.4860 C   0  0  0  0  0  1  0  0  0  0  0  0
  190.5170  176.7810  140.4640 C   0  0  2  0  0  3  0  0  0  0  0  0
  187.2440  177.9310  141.9170 C   0  0  0  0  0  0  0  0  0  0  0  0
  192.2420  177.8020  142.0480 C   0  0  0  0  0  2  0  0  0  0  0  0
  189.9810  177.6920  139.3590 C   0  0  1  0  0  3  0  0  0  0  0  0
  191.4450  176.1880  137.7680 C   0  0  1  0  0  3  0  0  0  0  0  0
  189.1530  176.5540  143.9500 C   0  0  0  0  0  3  0  0  0  0  0  0
  189.3470  177.4080  136.8960 C   0  0  2  0  0  3  0  0  0  0  0  0
  191.4640  177.1990  143.2170 C   0  0  0  0  0  2  0  0  0  0  0  0
  190.4830  177.3890  137.9250 C   0  0  1  0  0  3  0  0  0  0  0  0
  186.1070  178.4810  139.7420 C   0  0  0  0  0  2  0  0  0  0  0  0
  189.9600  177.3470  142.9850 C   0  0  1  0  0  3  0  0  0  0  0  0
  188.4900  177.5690  139.6620 C   0  0  2  0  0  0  0  0  0  0  0  0
  192.8490  177.3120  139.6170 C   0  0  0  0  0  2  0  0  0  0  0  0
  186.9940  177.6300  143.2250 C   0  0  0  0  0  0  0  0  0  0  0  0
  192.7380  176.7250  137.1720 C   0  0  0  0  0  2  0  0  0  0  0  0
  187.3880  178.3080  138.9180 C   0  0  1  0  0  3  0  0  0  0  0  0
  187.5840  176.7910  138.7220 C   0  0  1  0  0  3  0  0  0  0  0  0
  187.8280  176.7040  144.0400 C   0  0  0  0  0  3  0  0  0  0  0  0
  185.8660  178.5060  145.2890 C   0  0  0  0  0  3  0  0  0  0  0  0
  185.8110  178.1810  143.9260 C   0  0  0  0  0  0  0  0  0  0  0  0
  184.5980  178.3290  143.2410 C   0  0  0  0  0  3  0  0  0  0  0  0
  182.3060  178.9730  143.2580 F   0  0  0  0  0  0  0  0  0  0  0  0
  183.5640  179.1400  145.2350 N   0  0  0  0  0  0  0  0  0  0  0  0
  183.4790  178.8190  143.9170 C   0  0  0  0  0  0  0  0  0  0  0  0
  184.7260  178.9930  145.9300 C   0  0  0  0  0  3  0  0  0  0  0  0
  187.2390  176.2110  136.3460 O   0  0  0  0  0  0  0  0  0  0  0  0
  186.6930  174.9350  136.5640 C   0  0  0  0  0  2  0  0  0  0  0  0
  187.7140  173.9860  136.5520 O   0  0  0  0  0  0  0  0  0  0  0  0
  187.1130  172.8210  137.0300 C   0  0  0  0  0  2  0  0  0  0  0  0
  186.0410  173.1560  137.8540 O   0  0  0  0  0  1  0  0  0  0  0  0
  1 33  1  6  0  0  0
  1 24  1  0  0  0  0
  2 22  1  6  0  0  0
  2 20  1  0  0  0  0
  3 18  1  0  0  0  0
  4  9  1  0  0  0  0
  5 10  1  0  0  0  0
  6  3  1  0  0  0  0
  6  9  1  0  0  0  0
  7 14  1  0  0  0  0
  8  5  1  0  0  0  0
  8  3  1  0  0  0  0
  9 21  2  0  0  0  0
 10 15  1  0  0  0  0
 11 19  1  0  0  0  0
 11  8  1  0  0  0  0
 12 16  1  0  0  0  0
 12  2  1  0  0  0  0
 13 25  2  0  0  0  0
 14  1  1  0  0  0  0
 14 16  1  0  0  0  0
 16 11  1  0  0  0  0
 17  4  1  0  0  0  0
 18 15  1  0  0  0  0
 18 13  1  0  0  0  0
 19  6  1  0  0  0  0
 20  5  1  0  0  0  0
 21 27  1  0  0  0  0
 21 25  1  0  0  0  0
 22 12  1  0  0  0  0
 23 19  1  0  0  0  0
 23 17  1  0  0  0  0
 24 23  1  0  0  0  0
 24 19  1  0  0  0  0
 26 32  1  0  0  0  0
 27 26  2  0  0  0  0
 28 31  2  0  0  0  0
 28 27  1  0  0  0  0
 29 31  1  0  0  0  0
 30 32  2  0  0  0  0
 31 30  1  0  0  0  0
 33 34  1  0  0  0  0
 35 34  1  0  0  0  0
 35 36  1  0  0  0  0
 36 37  1  0  0  0  0
M  END
>  <MODEL>
2

>  <REMARK>
 VINA RESULT:      -9.4      2.868      6.350
  Name = 
  5 active torsions:
  status: ('A' for Active; 'I' for Inactive)
    1  A    between atoms: C_1  and  O_5
    2  A    between atoms: O_5  and  C_17
    3  A    between atoms: C_6  and  C_31
    4  A    between atoms: C_11  and  O_26
    5  A    between atoms: C_17  and  O_26
                            x       y       z     vdW  Elec       q    Type
                         _______ _______ _______ _____ _____    ______ ____

>  <TORSDO>
F 5

$$$$
=
 OpenBabel11052415293D

 37 45  0  0  1  0  0  0  0  0999 V2000
  185.5400  179.3500  142.6290 C   0  0  1  0  0  3  0  0  0  0  0  0
  186.3440  178.5930  147.2170 C   0  0  2  0  0  3  0  0  0  0  0  0
  189.5370  177.9930  144.1460 C   0  0  1  0  0  3  0  0  0  0  0  0
  189.2040  176.7680  140.6420 C   0  0  0  0  0  2  0  0  0  0  0  0
  188.5410  177.7010  146.5030 C   0  0  2  0  0  3  0  0  0  0  0  0
  189.1530  177.9520  142.8750 C   0  0  1  0  0  3  0  0  0  0  0  0
  183.4690  178.7010  143.9550 C   0  0  0  0  0  1  0  0  0  0  0  0
  188.3530  178.1750  145.0540 C   0  0  2  0  0  3  0  0  0  0  0  0
  189.9730  177.4700  141.7340 C   0  0  0  0  0  0  0  0  0  0  0  0
  189.6180  176.6350  146.6520 C   0  0  0  0  0  2  0  0  0  0  0  0
  187.2030  177.5470  144.2660 C   0  0  1  0  0  3  0  0  0  0  0  0
  185.6710  178.9570  145.8790 C   0  0  1  0  0  3  0  0  0  0  0  0
  191.9590  178.1620  144.0250 C   0  0  0  0  0  3  0  0  0  0  0  0
  184.8700  178.2900  143.5210 C   0  0  2  0  0  3  0  0  0  0  0  0
  190.9250  177.2030  146.0990 C   0  0  0  0  0  2  0  0  0  0  0  0
  185.7750  177.9490  144.7110 C   0  0  1  0  0  3  0  0  0  0  0  0
  187.8730  177.4560  140.3520 C   0  0  0  0  0  2  0  0  0  0  0  0
  190.8270  177.3750  144.5840 C   0  0  1  0  0  3  0  0  0  0  0  0
  187.6680  177.9050  142.8560 C   0  0  2  0  0  0  0  0  0  0  0  0
  187.2170  177.3390  147.1630 C   0  0  0  0  0  2  0  0  0  0  0  0
  191.3270  177.6250  141.6470 C   0  0  0  0  0  0  0  0  0  0  0  0
  184.8870  178.2750  146.9910 C   0  0  0  0  0  2  0  0  0  0  0  0
  186.9520  177.4990  141.5760 C   0  0  1  0  0  3  0  0  0  0  0  0
  186.9260  178.9630  142.0580 C   0  0  1  0  0  3  0  0  0  0  0  0
  192.1630  178.2540  142.7070 C   0  0  0  0  0  3  0  0  0  0  0  0
  193.4650  177.0740  140.4530 C   0  0  0  0  0  3  0  0  0  0  0  0
  192.0700  177.2140  140.4330 C   0  0  0  0  0  0  0  0  0  0  0  0
  191.3840  177.0160  139.2270 C   0  0  0  0  0  3  0  0  0  0  0  0
  191.4380  176.4580  136.9130 F   0  0  0  0  0  0  0  0  0  0  0  0
  193.4460  176.5170  138.1310 N   0  0  0  0  0  0  0  0  0  0  0  0
  192.0950  176.6590  138.0790 C   0  0  0  0  0  0  0  0  0  0  0  0
  194.1400  176.7160  139.2840 C   0  0  0  0  0  3  0  0  0  0  0  0
  184.6870  179.9270  141.6600 O   0  0  0  0  0  0  0  0  0  0  0  0
  184.5200  179.0200  140.6010 C   0  0  0  0  0  2  0  0  0  0  0  0
  184.7880  179.6630  139.3930 O   0  0  0  0  0  0  0  0  0  0  0  0
  184.9410  178.6260  138.4720 C   0  0  0  0  0  2  0  0  0  0  0  0
  186.1240  178.8100  137.7580 O   0  0  0  0  0  1  0  0  0  0  0  0
  1 33  1  6  0  0  0
  1 14  1  0  0  0  0
  2 22  1  1  0  0  0
  3 18  1  0  0  0  0
  3  8  1  0  0  0  0
  4  9  1  0  0  0  0
  5 10  1  0  0  0  0
  5 20  1  0  0  0  0
  6  3  1  0  0  0  0
  8  5  1  0  0  0  0
  9  6  1  0  0  0  0
 11 16  1  0  0  0  0
 11  8  1  0  0  0  0
 12 22  1  0  0  0  0
 12  2  1  0  0  0  0
 13 18  1  0  0  0  0
 14  7  1  0  0  0  0
 14 16  1  0  0  0  0
 15 10  1  0  0  0  0
 16 12  1  0  0  0  0
 17  4  1  0  0  0  0
 17 23  1  0  0  0  0
 18 15  1  0  0  0  0
 19  6  1  0  0  0  0
 19 11  1  0  0  0  0
 20  2  1  0  0  0  0
 21  9  2  0  0  0  0
 21 25  1  0  0  0  0
 23 24  1  0  0  0  0
 23 19  1  0  0  0  0
 24  1  1  0  0  0  0
 24 19  1  0  0  0  0
 25 13  2  0  0  0  0
 27 26  1  0  0  0  0
 27 21  1  0  0  0  0
 28 27  2  0  0  0  0
 29 31  1  0  0  0  0
 30 32  1  0  0  0  0
 31 30  2  0  0  0  0
 31 28  1  0  0  0  0
 32 26  2  0  0  0  0
 34 33  1  0  0  0  0
 35 34  1  0  0  0  0
 36 35  1  0  0  0  0
 37 36  1  0  0  0  0
M  END
>  <MODEL>
3

>  <REMARK>
 VINA RESULT:      -9.2      3.463      6.588
  Name = 
  5 active torsions:
  status: ('A' for Active; 'I' for Inactive)
    1  A    between atoms: C_1  and  O_5
    2  A    between atoms: O_5  and  C_17
    3  A    between atoms: C_6  and  C_31
    4  A    between atoms: C_11  and  O_26
    5  A    between atoms: C_17  and  O_26
                            x       y       z     vdW  Elec       q    Type
                         _______ _______ _______ _____ _____    ______ ____

>  <TORSDO>
F 5

$$$$
=
 OpenBabel11052415293D

 37 45  0  0  1  0  0  0  0  0999 V2000
  188.1930  176.4580  137.2360 C   0  0  1  0  0  3  0  0  0  0  0  0
  192.7720  176.1470  138.3370 C   0  0  2  0  0  3  0  0  0  0  0  0
  189.6590  176.9280  141.4490 C   0  0  1  0  0  3  0  0  0  0  0  0
  186.4950  178.8760  141.1490 C   0  0  0  0  0  2  0  0  0  0  0  0
  192.0910  176.8640  140.6080 C   0  0  2  0  0  3  0  0  0  0  0  0
  188.4510  177.2780  141.0210 C   0  0  1  0  0  3  0  0  0  0  0  0
  189.7640  177.0940  135.3400 C   0  0  0  0  0  1  0  0  0  0  0  0
  190.5950  176.7250  140.2900 C   0  0  2  0  0  3  0  0  0  0  0  0
  187.3710  177.8690  141.8540 C   0  0  0  0  0  0  0  0  0  0  0  0
  192.3700  177.7220  141.8340 C   0  0  0  0  0  2  0  0  0  0  0  0
  190.0290  177.6490  139.2120 C   0  0  1  0  0  3  0  0  0  0  0  0
  191.4390  176.1580  137.5620 C   0  0  1  0  0  3  0  0  0  0  0  0
  189.3350  176.4630  143.8130 C   0  0  0  0  0  3  0  0  0  0  0  0
  189.3200  177.3940  136.7660 C   0  0  2  0  0  3  0  0  0  0  0  0
  191.6250  177.1090  143.0190 C   0  0  0  0  0  2  0  0  0  0  0  0
  190.4870  177.3610  137.7610 C   0  0  1  0  0  3  0  0  0  0  0  0
  186.1710  178.4460  139.7200 C   0  0  0  0  0  2  0  0  0  0  0  0
  190.1160  177.2640  142.8330 C   0  0  1  0  0  3  0  0  0  0  0  0
  188.5470  177.5280  139.5590 C   0  0  2  0  0  0  0  0  0  0  0  0
  192.9030  177.2580  139.3800 C   0  0  0  0  0  2  0  0  0  0  0  0
  187.1590  177.5550  143.1660 C   0  0  0  0  0  0  0  0  0  0  0  0
  192.7160  176.6980  136.9330 C   0  0  0  0  0  2  0  0  0  0  0  0
  187.4260  178.2780  138.8570 C   0  0  1  0  0  3  0  0  0  0  0  0
  187.6110  176.7630  138.6370 C   0  0  1  0  0  3  0  0  0  0  0  0
  188.0140  176.6160  143.9450 C   0  0  0  0  0  3  0  0  0  0  0  0
  184.9100  178.6660  143.2290 C   0  0  0  0  0  3  0  0  0  0  0  0
  185.9990  178.1010  143.9080 C   0  0  0  0  0  0  0  0  0  0  0  0
  186.0080  178.1120  145.3090 C   0  0  0  0  0  3  0  0  0  0  0  0
  184.9230  178.6640  147.3550 F   0  0  0  0  0  0  0  0  0  0  0  0
  183.8750  179.1860  145.3180 N   0  0  0  0  0  0  0  0  0  0  0  0
  184.9250  178.6580  146.0010 C   0  0  0  0  0  0  0  0  0  0  0  0
  183.8460  179.2020  143.9580 C   0  0  0  0  0  3  0  0  0  0  0  0
  187.1930  176.2110  136.2670 O   0  0  0  0  0  0  0  0  0  0  0  0
  186.3080  175.2380  136.7620 C   0  0  0  0  0  2  0  0  0  0  0  0
  185.0720  175.3730  136.1330 O   0  0  0  0  0  0  0  0  0  0  0  0
  184.6000  176.6170  136.5530 C   0  0  0  0  0  2  0  0  0  0  0  0
  183.8740  176.4640  137.7330 O   0  0  0  0  0  1  0  0  0  0  0  0
  1 33  1  6  0  0  0
  1 24  1  0  0  0  0
  2 22  1  6  0  0  0
  2 20  1  0  0  0  0
  3 18  1  0  0  0  0
  4  9  1  0  0  0  0
  5 10  1  0  0  0  0
  6  3  1  0  0  0  0
  6  9  1  0  0  0  0
  7 14  1  0  0  0  0
  8  5  1  0  0  0  0
  8  3  1  0  0  0  0
  9 21  2  0  0  0  0
 10 15  1  0  0  0  0
 11 19  1  0  0  0  0
 11  8  1  0  0  0  0
 12 16  1  0  0  0  0
 12  2  1  0  0  0  0
 13 25  2  0  0  0  0
 14  1  1  0  0  0  0
 14 16  1  0  0  0  0
 16 11  1  0  0  0  0
 17  4  1  0  0  0  0
 18 15  1  0  0  0  0
 18 13  1  0  0  0  0
 19  6  1  0  0  0  0
 20  5  1  0  0  0  0
 21 27  1  0  0  0  0
 21 25  1  0  0  0  0
 22 12  1  0  0  0  0
 23 19  1  0  0  0  0
 23 17  1  0  0  0  0
 24 23  1  0  0  0  0
 24 19  1  0  0  0  0
 26 27  2  0  0  0  0
 26 32  1  0  0  0  0
 27 28  1  0  0  0  0
 28 31  2  0  0  0  0
 30 31  1  0  0  0  0
 31 29  1  0  0  0  0
 32 30  2  0  0  0  0
 33 34  1  0  0  0  0
 35 36  1  0  0  0  0
 35 34  1  0  0  0  0
 36 37  1  0  0  0  0
M  END
>  <MODEL>
4

>  <REMARK>
 VINA RESULT:      -9.0      3.171      6.697
  Name = 
  5 active torsions:
  status: ('A' for Active; 'I' for Inactive)
    1  A    between atoms: C_1  and  O_5
    2  A    between atoms: O_5  and  C_17
    3  A    between atoms: C_6  and  C_31
    4  A    between atoms: C_11  and  O_26
    5  A    between atoms: C_17  and  O_26
                            x       y       z     vdW  Elec       q    Type
                         _______ _______ _______ _____ _____    ______ ____

>  <TORSDO>
F 5

$$$$
=
 OpenBabel11052415293D

 37 45  0  0  1  0  0  0  0  0999 V2000
  189.1420  176.6150  146.5710 C   0  0  1  0  0  3  0  0  0  0  0  0
  184.8350  178.3170  145.6600 C   0  0  2  0  0  3  0  0  0  0  0  0
  187.8280  177.6450  142.4080 C   0  0  1  0  0  3  0  0  0  0  0  0
  191.5340  178.0270  142.5300 C   0  0  0  0  0  2  0  0  0  0  0  0
  185.6510  178.6510  143.3460 C   0  0  2  0  0  3  0  0  0  0  0  0
  189.0870  177.4390  142.7780 C   0  0  1  0  0  3  0  0  0  0  0  0
  188.0930  177.8840  148.5100 C   0  0  0  0  0  1  0  0  0  0  0  0
  186.9520  177.8780  143.6070 C   0  0  2  0  0  3  0  0  0  0  0  0
  190.2760  177.4960  141.8880 C   0  0  0  0  0  0  0  0  0  0  0  0
  185.7150  179.5360  142.1090 C   0  0  0  0  0  2  0  0  0  0  0  0
  187.9130  178.4720  144.6370 C   0  0  1  0  0  3  0  0  0  0  0  0
  186.0750  177.7530  146.3810 C   0  0  1  0  0  3  0  0  0  0  0  0
  187.8060  177.0700  140.0460 C   0  0  0  0  0  3  0  0  0  0  0  0
  188.5550  177.9510  147.0590 C   0  0  2  0  0  3  0  0  0  0  0  0
  186.0630  178.6520  140.9120 C   0  0  0  0  0  2  0  0  0  0  0  0
  187.4440  178.4210  146.1130 C   0  0  1  0  0  3  0  0  0  0  0  0
  191.7060  177.5100  143.9560 C   0  0  0  0  0  2  0  0  0  0  0  0
  187.4970  178.1370  141.0340 C   0  0  1  0  0  3  0  0  0  0  0  0
  189.1770  177.7160  144.2350 C   0  0  2  0  0  0  0  0  0  0  0  0
  185.1500  179.3670  144.5930 C   0  0  0  0  0  2  0  0  0  0  0  0
  190.2680  177.1110  140.5780 C   0  0  0  0  0  0  0  0  0  0  0  0
  185.1900  178.7990  147.0450 C   0  0  0  0  0  2  0  0  0  0  0  0
  190.5450  177.9090  144.8730 C   0  0  1  0  0  3  0  0  0  0  0  0
  189.7310  176.6270  145.1400 C   0  0  1  0  0  3  0  0  0  0  0  0
  189.0550  176.6320  139.8580 C   0  0  0  0  0  3  0  0  0  0  0  0
  192.7350  177.5020  140.3320 C   0  0  0  0  0  3  0  0  0  0  0  0
  191.5140  177.0950  139.7760 C   0  0  0  0  0  0  0  0  0  0  0  0
  191.4710  176.7240  138.4250 C   0  0  0  0  0  3  0  0  0  0  0  0
  192.6120  176.3760  136.3640 F   0  0  0  0  0  0  0  0  0  0  0  0
  193.8170  177.1270  138.2360 N   0  0  0  0  0  0  0  0  0  0  0  0
  192.6440  176.7410  137.6680 C   0  0  0  0  0  0  0  0  0  0  0  0
  193.8860  177.5050  139.5420 C   0  0  0  0  0  3  0  0  0  0  0  0
  189.9790  175.9650  147.5050 O   0  0  0  0  0  0  0  0  0  0  0  0
  191.3050  176.0140  147.0420 C   0  0  0  0  0  2  0  0  0  0  0  0
  192.0510  176.8620  147.8590 O   0  0  0  0  0  0  0  0  0  0  0  0
  192.8210  176.0030  148.6430 C   0  0  0  0  0  2  0  0  0  0  0  0
  193.6430  176.7520  149.4830 O   0  0  0  0  0  1  0  0  0  0  0  0
  1 14  1  0  0  0  0
  1 33  1  1  0  0  0
  2 20  1  6  0  0  0
  2 12  1  0  0  0  0
  2 22  1  0  0  0  0
  3  6  1  0  0  0  0
  3  8  1  0  0  0  0
  4 17  1  0  0  0  0
  5  8  1  0  0  0  0
  5 20  1  0  0  0  0
  6 19  1  0  0  0  0
  8 11  1  0  0  0  0
  9  4  1  0  0  0  0
  9  6  1  0  0  0  0
 10  5  1  0  0  0  0
 11 16  1  0  0  0  0
 12 22  1  0  0  0  0
 13 18  1  0  0  0  0
 14  7  1  0  0  0  0
 15 18  1  0  0  0  0
 15 10  1  0  0  0  0
 16 12  1  0  0  0  0
 16 14  1  0  0  0  0
 17 23  1  0  0  0  0
 18  3  1  0  0  0  0
 19 11  1  0  0  0  0
 19 23  1  0  0  0  0
 19 24  1  0  0  0  0
 21  9  2  0  0  0  0
 23 24  1  0  0  0  0
 24  1  1  0  0  0  0
 25 13  2  0  0  0  0
 25 21  1  0  0  0  0
 27 26  1  0  0  0  0
 27 21  1  0  0  0  0
 28 27  2  0  0  0  0
 29 31  1  0  0  0  0
 30 32  1  0  0  0  0
 31 30  2  0  0  0  0
 31 28  1  0  0  0  0
 32 26  2  0  0  0  0
 34 33  1  0  0  0  0
 34 35  1  0  0  0  0
 35 36  1  0  0  0  0
 36 37  1  0  0  0  0
M  END
>  <MODEL>
5

>  <REMARK>
 VINA RESULT:      -8.6      3.989      6.714
  Name = 
  5 active torsions:
  status: ('A' for Active; 'I' for Inactive)
    1  A    between atoms: C_1  and  O_5
    2  A    between atoms: O_5  and  C_17
    3  A    between atoms: C_6  and  C_31
    4  A    between atoms: C_11  and  O_26
    5  A    between atoms: C_17  and  O_26
                            x       y       z     vdW  Elec       q    Type
                         _______ _______ _______ _____ _____    ______ ____

>  <TORSDO>
F 5

$$$$
=
 OpenBabel11052415293D

 37 45  0  0  1  0  0  0  0  0999 V2000
  182.5160  179.6990  140.1500 C   0  0  1  0  0  3  0  0  0  0  0  0
  184.1280  179.3100  144.5690 C   0  0  2  0  0  3  0  0  0  0  0  0
  186.7390  178.4760  141.0370 C   0  0  1  0  0  3  0  0  0  0  0  0
  185.8140  176.9760  137.7530 C   0  0  0  0  0  2  0  0  0  0  0  0
  186.1790  178.3690  143.5480 C   0  0  2  0  0  3  0  0  0  0  0  0
  186.1380  178.3340  139.8610 C   0  0  1  0  0  3  0  0  0  0  0  0
  180.7210  179.1520  141.8680 C   0  0  0  0  0  1  0  0  0  0  0  0
  185.7310  178.7260  142.1230 C   0  0  2  0  0  3  0  0  0  0  0  0
  186.7520  177.7640  138.6340 C   0  0  0  0  0  0  0  0  0  0  0  0
  187.2830  177.3210  143.5870 C   0  0  0  0  0  2  0  0  0  0  0  0
  184.4700  178.0350  141.6020 C   0  0  1  0  0  3  0  0  0  0  0  0
  183.2240  179.5650  143.3470 C   0  0  1  0  0  3  0  0  0  0  0  0
  189.0990  178.6410  140.4770 C   0  0  0  0  0  3  0  0  0  0  0  0
  182.0310  178.7110  141.2260 C   0  0  2  0  0  3  0  0  0  0  0  0
  188.4620  177.8470  142.7690 C   0  0  0  0  0  2  0  0  0  0  0  0
  183.1370  178.4670  142.2600 C   0  0  1  0  0  3  0  0  0  0  0  0
  184.4420  177.6360  137.6510 C   0  0  0  0  0  2  0  0  0  0  0  0
  188.0970  177.8980  141.2860 C   0  0  1  0  0  3  0  0  0  0  0  0
  184.6740  178.2810  140.1090 C   0  0  2  0  0  0  0  0  0  0  0  0
  184.9980  178.0580  144.4590 C   0  0  0  0  0  2  0  0  0  0  0  0
  188.0670  177.9150  138.2970 C   0  0  0  0  0  0  0  0  0  0  0  0
  182.6590  178.9720  144.6290 C   0  0  0  0  0  2  0  0  0  0  0  0
  183.7510  177.7740  139.0120 C   0  0  1  0  0  3  0  0  0  0  0  0
  183.7850  179.2710  139.3750 C   0  0  1  0  0  3  0  0  0  0  0  0
  189.0660  178.6280  139.1410 C   0  0  0  0  0  3  0  0  0  0  0  0
  188.3410  178.0960  135.8090 C   0  0  0  0  0  3  0  0  0  0  0  0
  188.5910  177.4110  137.0060 C   0  0  0  0  0  0  0  0  0  0  0  0
  189.2970  176.2010  136.9620 C   0  0  0  0  0  3  0  0  0  0  0  0
  190.4520  174.5530  135.6900 F   0  0  0  0  0  0  0  0  0  0  0  0
  189.5160  176.4090  134.5940 N   0  0  0  0  0  0  0  0  0  0  0  0
  189.7600  175.7170  135.7380 C   0  0  0  0  0  0  0  0  0  0  0  0
  188.8210  177.5790  134.6040 C   0  0  0  0  0  3  0  0  0  0  0  0
  181.4960  180.1950  139.3060 O   0  0  0  0  0  0  0  0  0  0  0  0
  181.9500  181.3700  138.6840 C   0  0  0  0  0  2  0  0  0  0  0  0
  180.8710  182.0340  138.1030 O   0  0  0  0  0  0  0  0  0  0  0  0
  181.3990  183.2520  137.6750 C   0  0  0  0  0  2  0  0  0  0  0  0
  180.3640  184.0850  137.2550 O   0  0  0  0  0  1  0  0  0  0  0  0
  1 33  1  6  0  0  0
  1 14  1  0  0  0  0
  2 20  1  6  0  0  0
  2 22  1  0  0  0  0
  3 18  1  0  0  0  0
  3  8  1  0  0  0  0
  4  9  1  0  0  0  0
  5 10  1  0  0  0  0
  5 20  1  0  0  0  0
  6 19  1  0  0  0  0
  6  3  1  0  0  0  0
  8  5  1  0  0  0  0
  9  6  1  0  0  0  0
 11  8  1  0  0  0  0
 11 16  1  0  0  0  0
 12  2  1  0  0  0  0
 12 22  1  0  0  0  0
 13 18  1  0  0  0  0
 14  7  1  0  0  0  0
 14 16  1  0  0  0  0
 15 10  1  0  0  0  0
 16 12  1  0  0  0  0
 17  4  1  0  0  0  0
 17 23  1  0  0  0  0
 18 15  1  0  0  0  0
 19 11  1  0  0  0  0
 21  9  2  0  0  0  0
 21 25  1  0  0  0  0
 23 24  1  0  0  0  0
 23 19  1  0  0  0  0
 24 19  1  0  0  0  0
 24  1  1  0  0  0  0
 25 13  2  0  0  0  0
 26 27  1  0  0  0  0
 27 21  1  0  0  0  0
 28 27  2  0  0  0  0
 29 31  1  0  0  0  0
 30 32  1  0  0  0  0
 30 31  2  0  0  0  0
 31 28  1  0  0  0  0
 32 26  2  0  0  0  0
 34 33  1  0  0  0  0
 35 34  1  0  0  0  0
 36 35  1  0  0  0  0
 37 36  1  0  0  0  0
M  END
>  <MODEL>
6

>  <REMARK>
 VINA RESULT:      -8.4      4.410      7.573
  Name = 
  5 active torsions:
  status: ('A' for Active; 'I' for Inactive)
    1  A    between atoms: C_1  and  O_5
    2  A    between atoms: O_5  and  C_17
    3  A    between atoms: C_6  and  C_31
    4  A    between atoms: C_11  and  O_26
    5  A    between atoms: C_17  and  O_26
                            x       y       z     vdW  Elec       q    Type
                         _______ _______ _______ _____ _____    ______ ____

>  <TORSDO>
F 5

$$$$
=
 OpenBabel11052415293D

 37 45  0  0  1  0  0  0  0  0999 V2000
  188.8910  177.1610  141.1590 C   0  0  1  0  0  3  0  0  0  0  0  0
  186.0550  177.5060  137.4030 C   0  0  2  0  0  3  0  0  0  0  0  0
  190.2140  175.9040  137.0620 C   0  0  1  0  0  3  0  0  0  0  0  0
  193.2640  176.9060  138.9560 C   0  0  0  0  0  2  0  0  0  0  0  0
  188.0370  176.8550  136.0690 C   0  0  2  0  0  3  0  0  0  0  0  0
  191.0260  176.1050  138.0940 C   0  0  1  0  0  3  0  0  0  0  0  0
  187.1360  178.9940  141.3440 C   0  0  0  0  0  1  0  0  0  0  0  0
  188.8670  176.5190  137.3170 C   0  0  2  0  0  3  0  0  0  0  0  0
  192.5020  175.9370  138.0850 C   0  0  0  0  0  0  0  0  0  0  0  0
  188.8840  177.0600  134.8200 C   0  0  0  0  0  2  0  0  0  0  0  0
  189.1790  177.6740  138.2690 C   0  0  1  0  0  3  0  0  0  0  0  0
  186.6110  177.5560  138.8390 C   0  0  1  0  0  3  0  0  0  0  0  0
  191.4080  174.3010  135.6770 C   0  0  0  0  0  3  0  0  0  0  0  0
  188.3190  178.4540  140.5500 C   0  0  2  0  0  3  0  0  0  0  0  0
  189.7060  175.7920  134.5940 C   0  0  0  0  0  2  0  0  0  0  0  0
  187.9800  178.2380  139.0700 C   0  0  1  0  0  3  0  0  0  0  0  0
  192.5590  177.1470  140.2880 C   0  0  0  0  0  2  0  0  0  0  0  0
  190.7570  175.6380  135.6930 C   0  0  1  0  0  3  0  0  0  0  0  0
  190.3430  177.0380  139.0270 C   0  0  2  0  0  0  0  0  0  0  0  0
  187.0380  177.9740  136.3290 C   0  0  0  0  0  2  0  0  0  0  0  0
  193.1590  174.9920  137.3500 C   0  0  0  0  0  0  0  0  0  0  0  0
  185.6570  178.6270  138.3300 C   0  0  0  0  0  2  0  0  0  0  0  0
  191.1520  177.7290  140.1140 C   0  0  1  0  0  3  0  0  0  0  0  0
  190.1610  176.6040  140.4720 C   0  0  1  0  0  3  0  0  0  0  0  0
  192.4840  174.0400  136.4240 C   0  0  0  0  0  3  0  0  0  0  0  0
  195.1920  174.2510  138.6230 C   0  0  0  0  0  3  0  0  0  0  0  0
  194.6250  174.8100  137.4680 C   0  0  0  0  0  0  0  0  0  0  0  0
  195.4700  175.2540  136.4420 C   0  0  0  0  0  3  0  0  0  0  0  0
  197.6730  175.5260  135.5830 F   0  0  0  0  0  0  0  0  0  0  0  0
  197.3740  174.5490  137.6990 N   0  0  0  0  0  0  0  0  0  0  0  0
  196.8520  175.1080  136.5740 C   0  0  0  0  0  0  0  0  0  0  0  0
  196.5790  174.1230  138.7170 C   0  0  0  0  0  3  0  0  0  0  0  0
  188.9870  177.1690  142.5690 O   0  0  0  0  0  0  0  0  0  0  0  0
  189.7890  176.0910  142.9790 C   0  0  0  0  0  2  0  0  0  0  0  0
  190.3800  176.3920  144.2050 O   0  0  0  0  0  0  0  0  0  0  0  0
  191.6320  176.9070  143.8710 C   0  0  0  0  0  2  0  0  0  0  0  0
  191.6790  178.2610  144.1950 O   0  0  0  0  0  1  0  0  0  0  0  0
  1 33  1  1  0  0  0
  2 20  1  6  0  0  0
  2 22  1  0  0  0  0
  2 12  1  0  0  0  0
  3  8  1  0  0  0  0
  3  6  1  0  0  0  0
  4 17  1  0  0  0  0
  5 20  1  0  0  0  0
  5  8  1  0  0  0  0
  6 19  1  0  0  0  0
  8 11  1  0  0  0  0
  9  6  1  0  0  0  0
  9  4  1  0  0  0  0
 10  5  1  0  0  0  0
 11 19  1  0  0  0  0
 11 16  1  0  0  0  0
 12 16  1  0  0  0  0
 13 18  1  0  0  0  0
 13 25  2  0  0  0  0
 14  1  1  0  0  0  0
 14  7  1  0  0  0  0
 15 10  1  0  0  0  0
 15 18  1  0  0  0  0
 16 14  1  0  0  0  0
 18  3  1  0  0  0  0
 19 23  1  0  0  0  0
 19 24  1  0  0  0  0
 21 27  1  0  0  0  0
 21  9  2  0  0  0  0
 22 12  1  0  0  0  0
 23 17  1  0  0  0  0
 23 24  1  0  0  0  0
 24  1  1  0  0  0  0
 25 21  1  0  0  0  0
 26 32  1  0  0  0  0
 27 26  2  0  0  0  0
 28 31  2  0  0  0  0
 28 27  1  0  0  0  0
 29 31  1  0  0  0  0
 30 32  2  0  0  0  0
 31 30  1  0  0  0  0
 33 34  1  0  0  0  0
 34 35  1  0  0  0  0
 36 37  1  0  0  0  0
 36 35  1  0  0  0  0
M  END
>  <MODEL>
7

>  <REMARK>
 VINA RESULT:      -8.4      5.307     10.009
  Name = 
  5 active torsions:
  status: ('A' for Active; 'I' for Inactive)
    1  A    between atoms: C_1  and  O_5
    2  A    between atoms: O_5  and  C_17
    3  A    between atoms: C_6  and  C_31
    4  A    between atoms: C_11  and  O_26
    5  A    between atoms: C_17  and  O_26
                            x       y       z     vdW  Elec       q    Type
                         _______ _______ _______ _____ _____    ______ ____

>  <TORSDO>
F 5

$$$$
=
 OpenBabel11052415293D

 37 45  0  0  1  0  0  0  0  0999 V2000
  183.4350  177.9850  140.6350 C   0  0  1  0  0  3  0  0  0  0  0  0
  186.7190  177.6830  137.2590 C   0  0  2  0  0  3  0  0  0  0  0  0
  187.7810  177.4300  141.5950 C   0  0  1  0  0  3  0  0  0  0  0  0
  186.2190  179.1890  144.4870 C   0  0  0  0  0  2  0  0  0  0  0  0
  188.3680  177.7390  139.1060 C   0  0  2  0  0  3  0  0  0  0  0  0
  186.8510  177.8050  142.4670 C   0  0  1  0  0  3  0  0  0  0  0  0
  182.8250  179.1900  138.4790 C   0  0  0  0  0  1  0  0  0  0  0  0
  187.2840  177.5950  140.1850 C   0  0  2  0  0  3  0  0  0  0  0  0
  187.0760  178.0900  143.9080 C   0  0  0  0  0  0  0  0  0  0  0  0
  189.6900  178.2640  139.6480 C   0  0  0  0  0  2  0  0  0  0  0  0
  186.2670  178.7320  140.2990 C   0  0  1  0  0  3  0  0  0  0  0  0
  185.3730  177.8130  137.9990 C   0  0  1  0  0  3  0  0  0  0  0  0
  189.4730  176.3470  142.9630 C   0  0  0  0  0  3  0  0  0  0  0  0
  183.8230  179.0790  139.6250 C   0  0  2  0  0  3  0  0  0  0  0  0
  190.1560  177.3180  140.7540 C   0  0  0  0  0  2  0  0  0  0  0  0
  185.2580  178.8600  139.1310 C   0  0  1  0  0  3  0  0  0  0  0  0
  184.7870  179.1270  143.9630 C   0  0  0  0  0  2  0  0  0  0  0  0
  189.2300  177.4220  141.9650 C   0  0  1  0  0  3  0  0  0  0  0  0
  185.7430  178.4320  141.7010 C   0  0  2  0  0  0  0  0  0  0  0  0
  187.8600  178.4890  137.8820 C   0  0  0  0  0  2  0  0  0  0  0  0
  187.9870  177.4320  144.6840 C   0  0  0  0  0  0  0  0  0  0  0  0
  185.6350  178.5760  136.7080 C   0  0  0  0  0  2  0  0  0  0  0  0
  184.7090  179.2680  142.4390 C   0  0  1  0  0  3  0  0  0  0  0  0
  184.3400  177.8780  141.8860 C   0  0  1  0  0  3  0  0  0  0  0  0
  188.9080  176.3770  144.1740 C   0  0  0  0  0  3  0  0  0  0  0  0
  186.9450  177.9790  146.9000 C   0  0  0  0  0  3  0  0  0  0  0  0
  188.0870  177.6930  146.1390 C   0  0  0  0  0  0  0  0  0  0  0  0
  189.3420  177.7140  146.7610 C   0  0  0  0  0  3  0  0  0  0  0  0
  190.6390  178.0060  148.7360 F   0  0  0  0  0  0  0  0  0  0  0  0
  188.3050  178.2520  148.8440 N   0  0  0  0  0  0  0  0  0  0  0  0
  189.4300  177.9920  148.1270 C   0  0  0  0  0  0  0  0  0  0  0  0
  187.0750  178.2530  148.2630 C   0  0  0  0  0  3  0  0  0  0  0  0
  182.0570  177.9370  140.9480 O   0  0  0  0  0  0  0  0  0  0  0  0
  181.7660  178.9420  141.8860 C   0  0  0  0  0  2  0  0  0  0  0  0
  180.4530  178.7960  142.3290 O   0  0  0  0  0  0  0  0  0  0  0  0
  180.5670  178.6260  143.7090 C   0  0  0  0  0  2  0  0  0  0  0  0
  179.8240  177.5160  144.1040 O   0  0  0  0  0  1  0  0  0  0  0  0
  1 33  1  1  0  0  0
  1 24  1  0  0  0  0
  2 22  1  6  0  0  0
  2 20  1  0  0  0  0
  2 12  1  0  0  0  0
  3 18  1  0  0  0  0
  3  6  1  0  0  0  0
  5 10  1  0  0  0  0
  5  8  1  0  0  0  0
  6  9  1  0  0  0  0
  7 14  1  0  0  0  0
  8 11  1  0  0  0  0
  8  3  1  0  0  0  0
  9  4  1  0  0  0  0
  9 21  2  0  0  0  0
 10 15  1  0  0  0  0
 11 19  1  0  0  0  0
 12 16  1  0  0  0  0
 13 25  2  0  0  0  0
 14  1  1  0  0  0  0
 15 18  1  0  0  0  0
 16 14  1  0  0  0  0
 16 11  1  0  0  0  0
 17  4  1  0  0  0  0
 18 13  1  0  0  0  0
 19 24  1  0  0  0  0
 19 23  1  0  0  0  0
 19  6  1  0  0  0  0
 20  5  1  0  0  0  0
 21 27  1  0  0  0  0
 22 12  1  0  0  0  0
 23 17  1  0  0  0  0
 24 23  1  0  0  0  0
 25 21  1  0  0  0  0
 26 32  1  0  0  0  0
 27 28  1  0  0  0  0
 27 26  2  0  0  0  0
 28 31  2  0  0  0  0
 31 29  1  0  0  0  0
 31 30  1  0  0  0  0
 32 30  2  0  0  0  0
 33 34  1  0  0  0  0
 34 35  1  0  0  0  0
 35 36  1  0  0  0  0
 36 37  1  0  0  0  0
M  END
>  <MODEL>
8

>  <REMARK>
 VINA RESULT:      -8.3      4.408      8.333
  Name = 
  5 active torsions:
  status: ('A' for Active; 'I' for Inactive)
    1  A    between atoms: C_1  and  O_5
    2  A    between atoms: O_5  and  C_17
    3  A    between atoms: C_6  and  C_31
    4  A    between atoms: C_11  and  O_26
    5  A    between atoms: C_17  and  O_26
                            x       y       z     vdW  Elec       q    Type
                         _______ _______ _______ _____ _____    ______ ____

>  <TORSDO>
F 5

$$$$
=
 OpenBabel11052415293D

 37 45  0  0  1  0  0  0  0  0999 V2000
  185.8190  179.3130  145.2210 C   0  0  1  0  0  3  0  0  0  0  0  0
  188.9390  177.8120  148.4280 C   0  0  2  0  0  3  0  0  0  0  0  0
  189.8590  177.7530  144.0530 C   0  0  1  0  0  3  0  0  0  0  0  0
  187.5550  177.1240  141.1910 C   0  0  0  0  0  2  0  0  0  0  0  0
  190.2980  177.0660  146.4960 C   0  0  2  0  0  3  0  0  0  0  0  0
  188.8390  177.9210  143.2190 C   0  0  1  0  0  3  0  0  0  0  0  0
  184.7670  178.4380  147.3650 C   0  0  0  0  0  1  0  0  0  0  0  0
  189.3870  177.7730  145.4800 C   0  0  2  0  0  3  0  0  0  0  0  0
  188.8540  177.6400  141.7590 C   0  0  0  0  0  0  0  0  0  0  0  0
  191.1840  175.9990  145.8690 C   0  0  0  0  0  2  0  0  0  0  0  0
  187.9450  177.2760  145.3830 C   0  0  1  0  0  3  0  0  0  0  0  0
  187.6770  178.3870  147.7560 C   0  0  1  0  0  3  0  0  0  0  0  0
  191.8220  177.9580  142.6340 C   0  0  0  0  0  3  0  0  0  0  0  0
  185.6600  178.1140  146.1730 C   0  0  2  0  0  3  0  0  0  0  0  0
  192.0160  176.6610  144.7710 C   0  0  0  0  0  2  0  0  0  0  0  0
  187.0350  177.5870  146.5970 C   0  0  1  0  0  3  0  0  0  0  0  0
  186.3480  177.8400  141.7910 C   0  0  0  0  0  2  0  0  0  0  0  0
  191.1190  177.0810  143.6080 C   0  0  1  0  0  3  0  0  0  0  0  0
  187.5890  177.8660  144.0210 C   0  0  2  0  0  0  0  0  0  0  0  0
  189.5280  176.5900  147.7210 C   0  0  0  0  0  2  0  0  0  0  0  0
  189.9460  177.8180  140.9590 C   0  0  0  0  0  0  0  0  0  0  0  0
  187.5750  177.5240  149.0060 C   0  0  0  0  0  2  0  0  0  0  0  0
  186.2570  177.6730  143.3110 C   0  0  1  0  0  3  0  0  0  0  0  0
  186.6250  179.0370  143.9280 C   0  0  1  0  0  3  0  0  0  0  0  0
  191.2770  178.2690  141.4540 C   0  0  0  0  0  3  0  0  0  0  0  0
  190.5380  176.5610  138.8690 C   0  0  0  0  0  3  0  0  0  0  0  0
  189.8630  177.6200  139.4930 C   0  0  0  0  0  0  0  0  0  0  0  0
  189.1500  178.5320  138.7030 C   0  0  0  0  0  3  0  0  0  0  0  0
  188.4070  179.2280  136.5500 F   0  0  0  0  0  0  0  0  0  0  0  0
  189.7540  177.3120  136.7410 N   0  0  0  0  0  0  0  0  0  0  0  0
  189.1020  178.3560  137.3190 C   0  0  0  0  0  0  0  0  0  0  0  0
  190.4660  176.4190  137.4820 C   0  0  0  0  0  3  0  0  0  0  0  0
  184.6280  180.0360  144.9820 O   0  0  0  0  0  0  0  0  0  0  0  0
  183.9890  179.5040  143.8490 C   0  0  0  0  0  2  0  0  0  0  0  0
  182.7800  178.9230  144.2280 O   0  0  0  0  0  0  0  0  0  0  0  0
  181.9780  179.0140  143.0910 C   0  0  0  0  0  2  0  0  0  0  0  0
  182.7150  178.6390  141.9700 O   0  0  0  0  0  1  0  0  0  0  0  0
  1 33  1  6  0  0  0
  1 14  1  0  0  0  0
  2 20  1  6  0  0  0
  2 22  1  0  0  0  0
  3  8  1  0  0  0  0
  4  9  1  0  0  0  0
  4 17  1  0  0  0  0
  5 20  1  0  0  0  0
  6 19  1  0  0  0  0
  6  3  1  0  0  0  0
  8  5  1  0  0  0  0
  9  6  1  0  0  0  0
 10  5  1  0  0  0  0
 11  8  1  0  0  0  0
 11 16  1  0  0  0  0
 12  2  1  0  0  0  0
 12 22  1  0  0  0  0
 13 18  1  0  0  0  0
 14 16  1  0  0  0  0
 14  7  1  0  0  0  0
 15 10  1  0  0  0  0
 16 12  1  0  0  0  0
 17 23  1  0  0  0  0
 18  3  1  0  0  0  0
 18 15  1  0  0  0  0
 19 11  1  0  0  0  0
 21 25  1  0  0  0  0
 21  9  2  0  0  0  0
 23 24  1  0  0  0  0
 23 19  1  0  0  0  0
 24 19  1  0  0  0  0
 24  1  1  0  0  0  0
 25 13  2  0  0  0  0
 26 27  1  0  0  0  0
 27 21  1  0  0  0  0
 28 27  2  0  0  0  0
 29 31  1  0  0  0  0
 30 31  2  0  0  0  0
 30 32  1  0  0  0  0
 31 28  1  0  0  0  0
 32 26  2  0  0  0  0
 34 35  1  0  0  0  0
 34 33  1  0  0  0  0
 36 35  1  0  0  0  0
 37 36  1  0  0  0  0
M  END
>  <MODEL>
9

>  <REMARK>
 VINA RESULT:      -8.3      3.444      6.061
  Name = 
  5 active torsions:
  status: ('A' for Active; 'I' for Inactive)
    1  A    between atoms: C_1  and  O_5
    2  A    between atoms: O_5  and  C_17
    3  A    between atoms: C_6  and  C_31
    4  A    between atoms: C_11  and  O_26
    5  A    between atoms: C_17  and  O_26
                            x       y       z     vdW  Elec       q    Type
                         _______ _______ _______ _____ _____    ______ ____

>  <TORSDO>
F 5

$$$$
