=
 OpenBabel11052413423D

 27 32  0  0  1  0  0  0  0  0999 V2000
  182.5810  178.7860  138.8100 C   0  0  2  0  0  0  0  0  0  0  0  0
  182.3220  179.0090  141.3380 C   0  0  1  0  0  3  0  0  0  0  0  0
  184.5770  178.4630  140.3720 C   0  0  0  0  0  2  0  0  0  0  0  0
  184.0070  179.0040  145.3400 C   0  0  0  0  0  2  0  0  0  0  0  0
  185.9280  178.6530  146.8720 C   0  0  0  0  0  1  0  0  0  0  0  0
  181.3830  178.8980  142.5400 C   0  0  0  0  0  2  0  0  0  0  0  0
  185.5510  177.8160  143.1470 C   0  0  0  0  0  2  0  0  0  0  0  0
  185.0480  176.6760  137.3210 C   0  0  0  0  0  2  0  0  0  0  0  0
  186.2270  178.2730  144.4360 C   0  0  0  0  0  2  0  0  0  0  0  0
  184.1650  177.6550  136.5740 C   0  0  2  0  0  3  0  0  0  0  0  0
  183.6380  178.2340  141.5600 C   0  0  1  0  0  3  0  0  0  0  0  0
  181.6290  178.6080  140.0170 C   0  0  2  0  0  3  0  0  0  0  0  0
  185.2530  178.1660  145.6070 C   0  0  2  0  0  3  0  0  0  0  0  0
  183.3340  178.5460  144.0500 C   0  0  2  0  0  3  0  0  0  0  0  0
  182.8660  180.2750  138.6390 C   0  0  0  0  0  1  0  0  0  0  0  0
  184.3120  178.6690  142.8680 C   0  0  1  0  0  3  0  0  0  0  0  0
  184.8510  178.0680  137.8860 C   0  0  1  0  0  3  0  0  0  0  0  0
  182.0860  179.3830  143.8000 C   0  0  0  0  0  2  0  0  0  0  0  0
  182.6990  177.2450  136.7500 C   0  0  0  0  0  2  0  0  0  0  0  0
  181.9080  178.3200  137.5020 C   0  0  0  0  0  2  0  0  0  0  0  0
  183.8970  178.0150  139.0800 C   0  0  2  0  0  3  0  0  0  0  0  0
  179.6500  174.7780  140.2020 C   0  0  0  0  0  3  0  0  0  0  0  0
  180.9570  177.2540  140.0790 C   0  0  0  0  0  0  0  0  0  0  0  0
  181.6730  176.0640  139.8740 C   0  0  0  0  0  3  0  0  0  0  0  0
  181.0200  174.8300  139.9360 C   0  0  0  0  0  3  0  0  0  0  0  0
  178.9310  175.9600  140.4060 C   0  0  0  0  0  3  0  0  0  0  0  0
  179.5840  177.1940  140.3450 C   0  0  0  0  0  3  0  0  0  0  0  0
  1 15  1  6  0  0  0
  1 21  1  0  0  0  0
  1 12  1  0  0  0  0
  2 11  1  0  0  0  0
  2  6  1  1  0  0  0
  4 13  1  0  0  0  0
  6 18  1  0  0  0  0
  7  9  1  0  0  0  0
  9 13  1  0  0  0  0
 10 19  1  1  0  0  0
 10  8  1  0  0  0  0
 10 17  1  0  0  0  0
 11  3  1  6  0  0  0
 11 16  1  0  0  0  0
 12 23  1  1  0  0  0
 12  2  1  0  0  0  0
 13  5  1  1  0  0  0
 14 18  1  6  0  0  0
 14  4  1  0  0  0  0
 16  7  1  1  0  0  0
 16 14  1  0  0  0  0
 17  8  1  1  0  0  0
 17 21  1  0  0  0  0
 19 20  1  0  0  0  0
 20  1  1  0  0  0  0
 21  3  1  1  0  0  0
 22 26  1  0  0  0  0
 23 27  1  0  0  0  0
 24 25  1  0  0  0  0
 24 23  2  0  0  0  0
 25 22  2  0  0  0  0
 27 26  2  0  0  0  0
M  END
>  <MODEL>
1

>  <REMARK>
 VINA RESULT:      -7.9      0.000      0.000
  Name = 
  1 active torsions:
  status: ('A' for Active; 'I' for Inactive)
    1  A    between atoms: C_9  and  C_15
                            x       y       z     vdW  Elec       q    Type
                         _______ _______ _______ _____ _____    ______ ____

>  <TORSDO>
F 1

$$$$
=
 OpenBabel11052413423D

 27 32  0  0  1  0  0  0  0  0999 V2000
  188.7120  178.0030  137.4470 C   0  0  2  0  0  0  0  0  0  0  0  0
  186.9330  178.4910  139.2100 C   0  0  1  0  0  3  0  0  0  0  0  0
  189.1640  177.5810  139.9260 C   0  0  0  0  0  2  0  0  0  0  0  0
  185.6380  178.6460  143.3510 C   0  0  0  0  0  2  0  0  0  0  0  0
  186.0470  178.2020  145.7580 C   0  0  0  0  0  1  0  0  0  0  0  0
  185.4400  178.6090  139.5180 C   0  0  0  0  0  2  0  0  0  0  0  0
  188.0190  177.0760  142.6650 C   0  0  0  0  0  2  0  0  0  0  0  0
  191.1940  175.4730  137.8870 C   0  0  0  0  0  2  0  0  0  0  0  0
  187.7730  177.5640  144.0900 C   0  0  0  0  0  2  0  0  0  0  0  0
  191.1610  176.4810  136.7550 C   0  0  2  0  0  3  0  0  0  0  0  0
  187.6610  177.5810  140.2220 C   0  0  1  0  0  3  0  0  0  0  0  0
  187.1950  178.0580  137.7490 C   0  0  2  0  0  3  0  0  0  0  0  0
  186.2740  177.6880  144.3520 C   0  0  2  0  0  3  0  0  0  0  0  0
  185.8860  178.1580  141.9270 C   0  0  2  0  0  3  0  0  0  0  0  0
  189.2670  179.4230  137.5160 C   0  0  0  0  0  1  0  0  0  0  0  0
  187.3970  178.0480  141.6600 C   0  0  1  0  0  3  0  0  0  0  0  0
  190.9010  176.9250  138.2040 C   0  0  1  0  0  3  0  0  0  0  0  0
  185.2370  179.1180  140.9380 C   0  0  0  0  0  2  0  0  0  0  0  0
  189.8820  176.2760  135.9370 C   0  0  0  0  0  2  0  0  0  0  0  0
  188.9710  177.5050  136.0100 C   0  0  0  0  0  2  0  0  0  0  0  0
  189.4100  177.1030  138.4960 C   0  0  2  0  0  3  0  0  0  0  0  0
  184.9930  174.5380  136.5750 C   0  0  0  0  0  3  0  0  0  0  0  0
  186.4400  176.8100  137.3490 C   0  0  0  0  0  0  0  0  0  0  0  0
  186.9600  175.5260  137.5790 C   0  0  0  0  0  3  0  0  0  0  0  0
  186.2370  174.3950  137.1930 C   0  0  0  0  0  3  0  0  0  0  0  0
  184.4700  175.8140  136.3430 C   0  0  0  0  0  3  0  0  0  0  0  0
  185.1930  176.9470  136.7290 C   0  0  0  0  0  3  0  0  0  0  0  0
  1 15  1  1  0  0  0
  1 12  1  0  0  0  0
  1 21  1  0  0  0  0
  2  6  1  1  0  0  0
  2 11  1  0  0  0  0
  4 13  1  0  0  0  0
  6 18  1  0  0  0  0
  7  9  1  0  0  0  0
  9 13  1  0  0  0  0
 10 19  1  6  0  0  0
 10  8  1  0  0  0  0
 10 17  1  0  0  0  0
 11  3  1  6  0  0  0
 11 16  1  0  0  0  0
 12 23  1  1  0  0  0
 12  2  1  0  0  0  0
 13  5  1  1  0  0  0
 14 18  1  6  0  0  0
 14  4  1  0  0  0  0
 16 14  1  0  0  0  0
 16  7  1  1  0  0  0
 17  8  1  1  0  0  0
 17 21  1  0  0  0  0
 19 20  1  0  0  0  0
 20  1  1  0  0  0  0
 21  3  1  1  0  0  0
 22 25  1  0  0  0  0
 23 24  1  0  0  0  0
 25 24  2  0  0  0  0
 26 22  2  0  0  0  0
 26 27  1  0  0  0  0
 27 23  2  0  0  0  0
M  END
>  <MODEL>
2

>  <REMARK>
 VINA RESULT:      -7.0      3.391      5.369
  Name = 
  1 active torsions:
  status: ('A' for Active; 'I' for Inactive)
    1  A    between atoms: C_9  and  C_15
                            x       y       z     vdW  Elec       q    Type
                         _______ _______ _______ _____ _____    ______ ____

>  <TORSDO>
F 1

$$$$
=
 OpenBabel11052413423D

 27 32  0  0  1  0  0  0  0  0999 V2000
  188.5540  178.0380  137.3010 C   0  0  2  0  0  0  0  0  0  0  0  0
  186.5190  178.5830  138.7400 C   0  0  1  0  0  3  0  0  0  0  0  0
  188.6650  177.8880  139.8480 C   0  0  0  0  0  2  0  0  0  0  0  0
  184.6370  179.0620  142.6230 C   0  0  0  0  0  2  0  0  0  0  0  0
  184.7180  178.8810  145.0970 C   0  0  0  0  0  1  0  0  0  0  0  0
  184.9930  178.6380  138.8250 C   0  0  0  0  0  2  0  0  0  0  0  0
  187.1650  177.5840  142.4420 C   0  0  0  0  0  2  0  0  0  0  0  0
  191.0650  175.7220  138.3420 C   0  0  0  0  0  2  0  0  0  0  0  0
  186.6930  178.1920  143.7600 C   0  0  0  0  0  2  0  0  0  0  0  0
  191.1470  176.6110  137.1170 C   0  0  2  0  0  3  0  0  0  0  0  0
  187.1380  177.8240  139.9330 C   0  0  1  0  0  3  0  0  0  0  0  0
  187.0090  178.0270  137.3830 C   0  0  2  0  0  3  0  0  0  0  0  0
  185.1680  178.2470  143.7980 C   0  0  2  0  0  3  0  0  0  0  0  0
  185.1100  178.4530  141.3060 C   0  0  2  0  0  3  0  0  0  0  0  0
  189.0250  179.4900  137.2950 C   0  0  0  0  0  1  0  0  0  0  0  0
  186.6480  178.4120  141.2630 C   0  0  1  0  0  3  0  0  0  0  0  0
  190.6610  177.1770  138.4610 C   0  0  1  0  0  3  0  0  0  0  0  0
  184.5650  179.2690  140.1410 C   0  0  0  0  0  2  0  0  0  0  0  0
  190.0100  176.2470  136.1570 C   0  0  0  0  0  2  0  0  0  0  0  0
  189.0400  177.4190  135.9740 C   0  0  0  0  0  2  0  0  0  0  0  0
  189.1370  177.2890  138.5250 C   0  0  2  0  0  3  0  0  0  0  0  0
  185.2570  174.2130  136.3830 C   0  0  0  0  0  3  0  0  0  0  0  0
  186.3800  176.7010  137.0170 C   0  0  0  0  0  0  0  0  0  0  0  0
  185.2600  176.6230  136.1730 C   0  0  0  0  0  3  0  0  0  0  0  0
  184.7020  175.3820  135.8580 C   0  0  0  0  0  3  0  0  0  0  0  0
  186.3720  174.2840  137.2240 C   0  0  0  0  0  3  0  0  0  0  0  0
  186.9310  175.5260  137.5390 C   0  0  0  0  0  3  0  0  0  0  0  0
  1 15  1  1  0  0  0
  1 12  1  0  0  0  0
  1 21  1  0  0  0  0
  2  6  1  6  0  0  0
  2 11  1  0  0  0  0
  4 13  1  0  0  0  0
  6 18  1  0  0  0  0
  7  9  1  0  0  0  0
  9 13  1  0  0  0  0
 10 19  1  6  0  0  0
 10  8  1  0  0  0  0
 10 17  1  0  0  0  0
 11  3  1  1  0  0  0
 11 16  1  0  0  0  0
 12 23  1  1  0  0  0
 12  2  1  0  0  0  0
 13  5  1  1  0  0  0
 14 18  1  6  0  0  0
 14  4  1  0  0  0  0
 16 14  1  0  0  0  0
 16  7  1  1  0  0  0
 17  8  1  1  0  0  0
 17 21  1  0  0  0  0
 20 19  1  0  0  0  0
 20  1  1  0  0  0  0
 21  3  1  1  0  0  0
 22 26  1  0  0  0  0
 23 27  1  0  0  0  0
 24 23  2  0  0  0  0
 25 24  1  0  0  0  0
 25 22  2  0  0  0  0
 26 27  2  0  0  0  0
M  END
>  <MODEL>
3

>  <REMARK>
 VINA RESULT:      -6.6      3.213      5.419
  Name = 
  1 active torsions:
  status: ('A' for Active; 'I' for Inactive)
    1  A    between atoms: C_9  and  C_15
                            x       y       z     vdW  Elec       q    Type
                         _______ _______ _______ _____ _____    ______ ____

>  <TORSDO>
F 1

$$$$
=
 OpenBabel11052413423D

 27 32  0  0  1  0  0  0  0  0999 V2000
  180.7600  178.0360  139.9670 C   0  0  2  0  0  0  0  0  0  0  0  0
  182.9670  177.8600  138.7020 C   0  0  1  0  0  3  0  0  0  0  0  0
  182.9950  178.2860  141.1780 C   0  0  0  0  0  2  0  0  0  0  0  0
  187.3090  177.8430  138.6310 C   0  0  0  0  0  2  0  0  0  0  0  0
  189.4870  178.1260  139.7860 C   0  0  0  0  0  1  0  0  0  0  0  0
  183.6900  178.0330  137.3650 C   0  0  0  0  0  2  0  0  0  0  0  0
  185.9310  178.9270  140.9830 C   0  0  0  0  0  2  0  0  0  0  0  0
  180.4030  180.0060  142.9240 C   0  0  0  0  0  2  0  0  0  0  0  0
  187.3800  178.4560  141.0590 C   0  0  0  0  0  2  0  0  0  0  0  0
  179.3570  179.0590  142.3710 C   0  0  2  0  0  3  0  0  0  0  0  0
  183.7050  178.5760  139.8530 C   0  0  1  0  0  3  0  0  0  0  0  0
  181.4810  178.2750  138.6190 C   0  0  2  0  0  3  0  0  0  0  0  0
  188.0610  178.6260  139.7030 C   0  0  2  0  0  3  0  0  0  0  0  0
  185.8590  178.3140  138.5570 C   0  0  2  0  0  3  0  0  0  0  0  0
  180.7090  176.5320  140.2240 C   0  0  0  0  0  1  0  0  0  0  0  0
  185.1710  178.1290  139.9210 C   0  0  1  0  0  3  0  0  0  0  0  0
  180.8320  178.6330  142.4500 C   0  0  1  0  0  3  0  0  0  0  0  0
  185.1230  177.5330  137.4770 C   0  0  0  0  0  2  0  0  0  0  0  0
  178.9310  179.5390  140.9800 C   0  0  0  0  0  2  0  0  0  0  0  0
  179.2940  178.5140  139.9020 C   0  0  0  0  0  2  0  0  0  0  0  0
  181.5410  178.7480  141.0990 C   0  0  2  0  0  3  0  0  0  0  0  0
  180.8570  182.1970  136.9320 C   0  0  0  0  0  3  0  0  0  0  0  0
  181.2760  179.6600  138.0460 C   0  0  0  0  0  0  0  0  0  0  0  0
  181.7120  180.8110  138.7210 C   0  0  0  0  0  3  0  0  0  0  0  0
  181.5030  182.0750  138.1640 C   0  0  0  0  0  3  0  0  0  0  0  0
  180.4190  181.0540  136.2550 C   0  0  0  0  0  3  0  0  0  0  0  0
  180.6290  179.7890  136.8110 C   0  0  0  0  0  3  0  0  0  0  0  0
  1 15  1  1  0  0  0
  1 21  1  0  0  0  0
  2  6  1  6  0  0  0
  2 11  1  0  0  0  0
  4 13  1  0  0  0  0
  6 18  1  0  0  0  0
  7  9  1  0  0  0  0
 10 19  1  6  0  0  0
 10 17  1  0  0  0  0
 10  8  1  0  0  0  0
 11 16  1  0  0  0  0
 11  3  1  1  0  0  0
 12 23  1  1  0  0  0
 12  2  1  0  0  0  0
 12  1  1  0  0  0  0
 13  5  1  1  0  0  0
 13  9  1  0  0  0  0
 14 18  1  6  0  0  0
 14  4  1  0  0  0  0
 14 16  1  0  0  0  0
 16  7  1  1  0  0  0
 17  8  1  1  0  0  0
 20  1  1  0  0  0  0
 20 19  1  0  0  0  0
 21  3  1  1  0  0  0
 21 17  1  0  0  0  0
 22 25  1  0  0  0  0
 23 24  1  0  0  0  0
 25 24  2  0  0  0  0
 26 27  1  0  0  0  0
 26 22  2  0  0  0  0
 27 23  2  0  0  0  0
M  END
>  <MODEL>
4

>  <REMARK>
 VINA RESULT:      -6.2      2.265      5.444
  Name = 
  1 active torsions:
  status: ('A' for Active; 'I' for Inactive)
    1  A    between atoms: C_9  and  C_15
                            x       y       z     vdW  Elec       q    Type
                         _______ _______ _______ _____ _____    ______ ____

>  <TORSDO>
F 1

$$$$
=
 OpenBabel11052413423D

 27 32  0  0  1  0  0  0  0  0999 V2000
  181.2290  176.8920  138.7980 C   0  0  2  0  0  0  0  0  0  0  0  0
  180.4730  179.2760  139.2980 C   0  0  1  0  0  3  0  0  0  0  0  0
  180.9330  178.5990  136.9210 C   0  0  0  0  0  2  0  0  0  0  0  0
  179.3570  183.2580  137.9750 C   0  0  0  0  0  2  0  0  0  0  0  0
  179.1040  184.9390  136.1670 C   0  0  0  0  0  1  0  0  0  0  0  0
  180.4280  180.4130  140.3190 C   0  0  0  0  0  2  0  0  0  0  0  0
  180.8060  181.5010  136.1260 C   0  0  0  0  0  2  0  0  0  0  0  0
  183.2910  176.0880  135.9950 C   0  0  0  0  0  2  0  0  0  0  0  0
  179.9850  182.6830  135.6180 C   0  0  0  0  0  2  0  0  0  0  0  0
  182.6270  175.0810  136.9120 C   0  0  2  0  0  3  0  0  0  0  0  0
  181.0040  179.7500  137.9280 C   0  0  1  0  0  3  0  0  0  0  0  0
  181.2490  178.0480  139.8260 C   0  0  2  0  0  3  0  0  0  0  0  0
  179.9470  183.7880  136.6720 C   0  0  2  0  0  3  0  0  0  0  0  0
  180.1770  182.0750  138.4800 C   0  0  2  0  0  3  0  0  0  0  0  0
  179.7930  176.3910  138.6650 C   0  0  0  0  0  1  0  0  0  0  0  0
  180.2020  180.9570  137.4230 C   0  0  1  0  0  3  0  0  0  0  0  0
  181.8440  176.2960  136.3910 C   0  0  1  0  0  3  0  0  0  0  0  0
  179.5840  181.5620  139.7850 C   0  0  0  0  0  2  0  0  0  0  0  0
  183.1690  175.2620  138.3330 C   0  0  0  0  0  2  0  0  0  0  0  0
  182.0610  175.6930  139.3000 C   0  0  0  0  0  2  0  0  0  0  0  0
  181.7450  177.4110  137.4340 C   0  0  2  0  0  3  0  0  0  0  0  0
  185.1610  178.9980  141.3780 C   0  0  0  0  0  3  0  0  0  0  0  0
  182.6270  178.3880  140.3470 C   0  0  0  0  0  0  0  0  0  0  0  0
  183.6690  178.7690  139.4870 C   0  0  0  0  0  3  0  0  0  0  0  0
  184.9310  179.0740  140.0030 C   0  0  0  0  0  3  0  0  0  0  0  0
  184.1270  178.6190  142.2400 C   0  0  0  0  0  3  0  0  0  0  0  0
  182.8640  178.3150  141.7250 C   0  0  0  0  0  3  0  0  0  0  0  0
  1 15  1  6  0  0  0
  1 20  1  0  0  0  0
  1 12  1  0  0  0  0
  2 12  1  0  0  0  0
  2  6  1  1  0  0  0
  9  7  1  0  0  0  0
  9 13  1  0  0  0  0
 10  8  1  6  0  0  0
 10 19  1  0  0  0  0
 11  3  1  6  0  0  0
 11  2  1  0  0  0  0
 12 23  1  6  0  0  0
 13  5  1  6  0  0  0
 13  4  1  0  0  0  0
 14  4  1  6  0  0  0
 14 18  1  0  0  0  0
 16  7  1  6  0  0  0
 16 11  1  0  0  0  0
 16 14  1  0  0  0  0
 17  8  1  6  0  0  0
 17 10  1  0  0  0  0
 17 21  1  0  0  0  0
 18  6  1  0  0  0  0
 19 20  1  0  0  0  0
 21  3  1  6  0  0  0
 21  1  1  0  0  0  0
 22 26  1  0  0  0  0
 23 27  1  0  0  0  0
 24 25  1  0  0  0  0
 24 23  2  0  0  0  0
 25 22  2  0  0  0  0
 27 26  2  0  0  0  0
M  END
>  <MODEL>
5

>  <REMARK>
 VINA RESULT:      -6.2      2.683      6.339
  Name = 
  1 active torsions:
  status: ('A' for Active; 'I' for Inactive)
    1  A    between atoms: C_9  and  C_15
                            x       y       z     vdW  Elec       q    Type
                         _______ _______ _______ _____ _____    ______ ____

>  <TORSDO>
F 1

$$$$
=
 OpenBabel11052413423D

 27 32  0  0  1  0  0  0  0  0999 V2000
  188.8270  177.5560  137.2910 C   0  0  2  0  0  0  0  0  0  0  0  0
  186.6220  177.3410  136.0280 C   0  0  1  0  0  3  0  0  0  0  0  0
  186.6020  178.0840  138.4290 C   0  0  0  0  0  2  0  0  0  0  0  0
  182.3000  177.7190  135.8480 C   0  0  0  0  0  2  0  0  0  0  0  0
  180.1270  178.1880  136.9520 C   0  0  0  0  0  1  0  0  0  0  0  0
  185.8620  176.6500  134.8950 C   0  0  0  0  0  2  0  0  0  0  0  0
  183.6160  177.6940  138.4700 C   0  0  0  0  0  2  0  0  0  0  0  0
  189.0560  177.1110  140.8270 C   0  0  0  0  0  2  0  0  0  0  0  0
  182.2180  178.2780  138.2890 C   0  0  0  0  0  2  0  0  0  0  0  0
  190.1740  177.6070  139.9330 C   0  0  2  0  0  3  0  0  0  0  0  0
  185.8430  177.2930  137.3600 C   0  0  1  0  0  3  0  0  0  0  0  0
  188.0620  176.8010  136.1800 C   0  0  2  0  0  3  0  0  0  0  0  0
  181.4990  177.5770  137.1390 C   0  0  2  0  0  3  0  0  0  0  0  0
  183.6980  177.1360  136.0310 C   0  0  2  0  0  3  0  0  0  0  0  0
  189.0220  179.0030  136.8430 C   0  0  0  0  0  1  0  0  0  0  0  0
  184.4260  177.8540  137.1810 C   0  0  1  0  0  3  0  0  0  0  0  0
  188.7460  178.1540  139.7740 C   0  0  1  0  0  3  0  0  0  0  0  0
  184.4830  177.2740  134.7340 C   0  0  0  0  0  2  0  0  0  0  0  0
  190.5280  176.5130  138.9200 C   0  0  0  0  0  2  0  0  0  0  0  0
  190.2410  176.9690  137.4860 C   0  0  0  0  0  2  0  0  0  0  0  0
  188.0050  177.5070  138.6030 C   0  0  2  0  0  3  0  0  0  0  0  0
  188.3070  172.5030  136.4790 C   0  0  0  0  0  3  0  0  0  0  0  0
  188.1270  175.2940  136.2980 C   0  0  0  0  0  0  0  0  0  0  0  0
  187.2540  174.5800  137.1330 C   0  0  0  0  0  3  0  0  0  0  0  0
  187.3440  173.1890  137.2220 C   0  0  0  0  0  3  0  0  0  0  0  0
  189.1810  173.2090  135.6450 C   0  0  0  0  0  3  0  0  0  0  0  0
  189.0910  174.6010  135.5560 C   0  0  0  0  0  3  0  0  0  0  0  0
  1 15  1  6  0  0  0
  1 20  1  0  0  0  0
  1 21  1  0  0  0  0
  2  6  1  6  0  0  0
  2 12  1  0  0  0  0
  2 11  1  0  0  0  0
  4 14  1  0  0  0  0
  4 13  1  0  0  0  0
  9  7  1  0  0  0  0
 10 19  1  6  0  0  0
 10  8  1  0  0  0  0
 11  3  1  1  0  0  0
 12 23  1  1  0  0  0
 12  1  1  0  0  0  0
 13  5  1  6  0  0  0
 13  9  1  0  0  0  0
 14 18  1  6  0  0  0
 14 16  1  0  0  0  0
 16 11  1  0  0  0  0
 16  7  1  1  0  0  0
 17 10  1  0  0  0  0
 17  8  1  1  0  0  0
 18  6  1  0  0  0  0
 20 19  1  0  0  0  0
 21  3  1  6  0  0  0
 21 17  1  0  0  0  0
 22 25  1  0  0  0  0
 23 24  1  0  0  0  0
 24 25  2  0  0  0  0
 26 22  2  0  0  0  0
 27 26  1  0  0  0  0
 27 23  2  0  0  0  0
M  END
>  <MODEL>
6

>  <REMARK>
 VINA RESULT:      -5.8      3.843      7.825
  Name = 
  1 active torsions:
  status: ('A' for Active; 'I' for Inactive)
    1  A    between atoms: C_9  and  C_15
                            x       y       z     vdW  Elec       q    Type
                         _______ _______ _______ _____ _____    ______ ____

>  <TORSDO>
F 1

$$$$
=
 OpenBabel11052413423D

 27 32  0  0  1  0  0  0  0  0999 V2000
  181.7670  178.9470  138.1190 C   0  0  2  0  0  0  0  0  0  0  0  0
  183.3970  177.1210  137.4020 C   0  0  1  0  0  3  0  0  0  0  0  0
  180.9990  176.5240  137.8630 C   0  0  0  0  0  2  0  0  0  0  0  0
  184.2510  172.9930  136.3640 C   0  0  0  0  0  2  0  0  0  0  0  0
  183.5310  170.6270  136.1510 C   0  0  0  0  0  1  0  0  0  0  0  0
  184.8510  176.6480  137.3710 C   0  0  0  0  0  2  0  0  0  0  0  0
  181.7650  173.6130  137.7920 C   0  0  0  0  0  2  0  0  0  0  0  0
  178.9310  178.2750  140.1820 C   0  0  0  0  0  2  0  0  0  0  0  0
  181.9220  172.3200  136.9950 C   0  0  0  0  0  2  0  0  0  0  0  0
  179.2220  179.5940  139.4950 C   0  0  2  0  0  3  0  0  0  0  0  0
  182.4470  176.0340  137.9490 C   0  0  1  0  0  3  0  0  0  0  0  0
  183.2360  178.4620  138.1530 C   0  0  2  0  0  3  0  0  0  0  0  0
  183.3870  171.8920  136.9710 C   0  0  2  0  0  3  0  0  0  0  0  0
  184.0920  174.2840  137.1600 C   0  0  2  0  0  3  0  0  0  0  0  0
  181.4060  179.2870  136.6750 C   0  0  0  0  0  1  0  0  0  0  0  0
  182.6180  174.7220  137.1710 C   0  0  1  0  0  3  0  0  0  0  0  0
  179.3830  178.2670  138.7360 C   0  0  1  0  0  3  0  0  0  0  0  0
  184.9680  175.3710  136.5510 C   0  0  0  0  0  2  0  0  0  0  0  0
  180.5410  180.1590  140.0320 C   0  0  0  0  0  2  0  0  0  0  0  0
  181.5970  180.2510  138.9270 C   0  0  0  0  0  2  0  0  0  0  0  0
  180.8440  177.8230  138.6520 C   0  0  2  0  0  3  0  0  0  0  0  0
  185.0470  178.4780  142.0690 C   0  0  0  0  0  3  0  0  0  0  0  0
  183.8520  178.4540  139.5340 C   0  0  0  0  0  0  0  0  0  0  0  0
  183.1880  177.8930  140.6360 C   0  0  0  0  0  3  0  0  0  0  0  0
  183.7850  177.9050  141.8990 C   0  0  0  0  0  3  0  0  0  0  0  0
  185.7140  179.0390  140.9750 C   0  0  0  0  0  3  0  0  0  0  0  0
  185.1170  179.0270  139.7110 C   0  0  0  0  0  3  0  0  0  0  0  0
  1 15  1  6  0  0  0
  1 12  1  0  0  0  0
  1 21  1  0  0  0  0
  1 20  1  0  0  0  0
  2  6  1  1  0  0  0
  2 11  1  0  0  0  0
  2 12  1  0  0  0  0
  4 13  1  0  0  0  0
  9  7  1  0  0  0  0
 10 19  1  1  0  0  0
 10  8  1  0  0  0  0
 11  3  1  6  0  0  0
 12 23  1  1  0  0  0
 13  5  1  6  0  0  0
 13  9  1  0  0  0  0
 14  4  1  6  0  0  0
 14 16  1  0  0  0  0
 16  7  1  1  0  0  0
 16 11  1  0  0  0  0
 17 10  1  0  0  0  0
 17  8  1  1  0  0  0
 18 14  1  0  0  0  0
 18  6  1  0  0  0  0
 20 19  1  0  0  0  0
 21  3  1  6  0  0  0
 21 17  1  0  0  0  0
 23 27  2  0  0  0  0
 23 24  1  0  0  0  0
 24 25  2  0  0  0  0
 25 22  1  0  0  0  0
 26 22  2  0  0  0  0
 27 26  1  0  0  0  0
M  END
>  <MODEL>
7

>  <REMARK>
 VINA RESULT:      -5.4      2.372      6.756
  Name = 
  1 active torsions:
  status: ('A' for Active; 'I' for Inactive)
    1  A    between atoms: C_9  and  C_15
                            x       y       z     vdW  Elec       q    Type
                         _______ _______ _______ _____ _____    ______ ____

>  <TORSDO>
F 1

$$$$
=
 OpenBabel11052413423D

 27 32  0  0  1  0  0  0  0  0999 V2000
  180.7820  177.1030  138.6240 C   0  0  2  0  0  0  0  0  0  0  0  0
  182.6950  176.9480  136.9450 C   0  0  1  0  0  3  0  0  0  0  0  0
  183.1930  177.5640  139.3300 C   0  0  0  0  0  2  0  0  0  0  0  0
  186.9240  177.1560  135.9820 C   0  0  0  0  0  2  0  0  0  0  0  0
  189.2660  177.6410  136.6430 C   0  0  0  0  0  1  0  0  0  0  0  0
  183.1200  177.0550  135.4790 C   0  0  0  0  0  2  0  0  0  0  0  0
  185.9790  178.3430  138.4920 C   0  0  0  0  0  2  0  0  0  0  0  0
  180.8970  179.2730  141.4570 C   0  0  0  0  0  2  0  0  0  0  0  0
  187.4420  177.9570  138.2980 C   0  0  0  0  0  2  0  0  0  0  0  0
  179.8270  178.2320  141.1940 C   0  0  2  0  0  3  0  0  0  0  0  0
  183.6000  177.7880  137.8710 C   0  0  1  0  0  3  0  0  0  0  0  0
  181.1980  177.2760  137.1440 C   0  0  2  0  0  3  0  0  0  0  0  0
  187.8220  178.0570  136.8230 C   0  0  2  0  0  3  0  0  0  0  0  0
  185.4610  177.5420  136.1780 C   0  0  2  0  0  3  0  0  0  0  0  0
  180.8860  175.6230  138.9830 C   0  0  0  0  0  1  0  0  0  0  0  0
  185.0760  177.4260  137.6630 C   0  0  1  0  0  3  0  0  0  0  0  0
  181.3130  177.8930  140.9950 C   0  0  1  0  0  3  0  0  0  0  0  0
  184.5760  176.6420  135.3250 C   0  0  0  0  0  2  0  0  0  0  0  0
  179.0970  178.5810  139.8930 C   0  0  0  0  0  2  0  0  0  0  0  0
  179.3040  177.4960  138.8320 C   0  0  0  0  0  2  0  0  0  0  0  0
  181.7250  177.9400  139.5220 C   0  0  2  0  0  3  0  0  0  0  0  0
  179.9870  181.0160  135.3680 C   0  0  0  0  0  3  0  0  0  0  0  0
  180.7880  178.5990  136.5380 C   0  0  0  0  0  0  0  0  0  0  0  0
  181.1900  179.8230  137.0950 C   0  0  0  0  0  3  0  0  0  0  0  0
  180.7900  181.0280  136.5100 C   0  0  0  0  0  3  0  0  0  0  0  0
  179.5830  179.8010  134.8090 C   0  0  0  0  0  3  0  0  0  0  0  0
  179.9830  178.5950  135.3920 C   0  0  0  0  0  3  0  0  0  0  0  0
  1 20  1  0  0  0  0
  1 15  1  1  0  0  0
  1 21  1  0  0  0  0
  2  6  1  6  0  0  0
  2 12  1  0  0  0  0
  2 11  1  0  0  0  0
  4 14  1  0  0  0  0
  4 13  1  0  0  0  0
  9  7  1  0  0  0  0
 10 19  1  6  0  0  0
 10  8  1  0  0  0  0
 11  3  1  1  0  0  0
 12 23  1  1  0  0  0
 12  1  1  0  0  0  0
 13  5  1  1  0  0  0
 13  9  1  0  0  0  0
 14 18  1  6  0  0  0
 14 16  1  0  0  0  0
 16 11  1  0  0  0  0
 16  7  1  1  0  0  0
 17 10  1  0  0  0  0
 17  8  1  1  0  0  0
 18  6  1  0  0  0  0
 20 19  1  0  0  0  0
 21  3  1  1  0  0  0
 21 17  1  0  0  0  0
 22 25  1  0  0  0  0
 23 24  1  0  0  0  0
 25 24  2  0  0  0  0
 26 22  2  0  0  0  0
 26 27  1  0  0  0  0
 27 23  2  0  0  0  0
M  END
>  <MODEL>
8

>  <REMARK>
 VINA RESULT:      -5.2      3.027      6.230
  Name = 
  1 active torsions:
  status: ('A' for Active; 'I' for Inactive)
    1  A    between atoms: C_9  and  C_15
                            x       y       z     vdW  Elec       q    Type
                         _______ _______ _______ _____ _____    ______ ____

>  <TORSDO>
F 1

$$$$
=
 OpenBabel11052413423D

 27 32  0  0  1  0  0  0  0  0999 V2000
  181.9620  178.6360  138.5760 C   0  0  2  0  0  0  0  0  0  0  0  0
  184.0060  177.4240  137.6500 C   0  0  1  0  0  3  0  0  0  0  0  0
  181.8620  176.1550  137.9760 C   0  0  0  0  0  2  0  0  0  0  0  0
  185.9100  173.8540  136.0750 C   0  0  0  0  0  2  0  0  0  0  0  0
  185.8410  171.4340  135.5260 C   0  0  0  0  0  1  0  0  0  0  0  0
  185.5330  177.3630  137.5830 C   0  0  0  0  0  2  0  0  0  0  0  0
  183.3730  173.5900  137.5230 C   0  0  0  0  0  2  0  0  0  0  0  0
  179.4410  176.9580  140.4700 C   0  0  0  0  0  2  0  0  0  0  0  0
  183.8540  172.5070  136.5610 C   0  0  0  0  0  2  0  0  0  0  0  0
  179.3590  178.3890  139.9750 C   0  0  2  0  0  3  0  0  0  0  0  0
  183.3890  176.0600  138.0240 C   0  0  1  0  0  3  0  0  0  0  0  0
  183.5070  178.5580  138.5730 C   0  0  2  0  0  3  0  0  0  0  0  0
  185.3800  172.4910  136.5080 C   0  0  2  0  0  3  0  0  0  0  0  0
  185.4270  174.9350  137.0370 C   0  0  2  0  0  3  0  0  0  0  0  0
  181.4990  179.0620  137.1850 C   0  0  0  0  0  1  0  0  0  0  0  0
  183.8890  174.9600  137.0780 C   0  0  1  0  0  3  0  0  0  0  0  0
  179.8550  177.2690  139.0460 C   0  0  1  0  0  3  0  0  0  0  0  0
  185.9710  176.2890  136.5990 C   0  0  0  0  0  2  0  0  0  0  0  0
  180.4900  179.2050  140.6110 C   0  0  0  0  0  2  0  0  0  0  0  0
  181.4650  179.7240  139.5500 C   0  0  0  0  0  2  0  0  0  0  0  0
  181.3800  177.2450  138.9310 C   0  0  2  0  0  3  0  0  0  0  0  0
  185.3240  178.5090  142.4860 C   0  0  0  0  0  3  0  0  0  0  0  0
  184.1260  178.5250  139.9520 C   0  0  0  0  0  0  0  0  0  0  0  0
  183.5180  177.8450  141.0190 C   0  0  0  0  0  3  0  0  0  0  0  0
  184.1170  177.8370  142.2810 C   0  0  0  0  0  3  0  0  0  0  0  0
  185.9340  179.1900  141.4280 C   0  0  0  0  0  3  0  0  0  0  0  0
  185.3360  179.1970  140.1640 C   0  0  0  0  0  3  0  0  0  0  0  0
  1 15  1  6  0  0  0
  1 21  1  0  0  0  0
  1 20  1  0  0  0  0
  2  6  1  1  0  0  0
  2 11  1  0  0  0  0
  2 12  1  0  0  0  0
  4 13  1  0  0  0  0
  9  7  1  0  0  0  0
 10  8  1  1  0  0  0
 10 19  1  0  0  0  0
 11  3  1  6  0  0  0
 12  1  1  0  0  0  0
 12 23  1  1  0  0  0
 13  5  1  6  0  0  0
 13  9  1  0  0  0  0
 14  4  1  6  0  0  0
 14 16  1  0  0  0  0
 16  7  1  1  0  0  0
 16 11  1  0  0  0  0
 17 10  1  0  0  0  0
 17  8  1  1  0  0  0
 18 14  1  0  0  0  0
 18  6  1  0  0  0  0
 20 19  1  0  0  0  0
 21  3  1  6  0  0  0
 21 17  1  0  0  0  0
 23 27  2  0  0  0  0
 23 24  1  0  0  0  0
 24 25  2  0  0  0  0
 25 22  1  0  0  0  0
 26 22  2  0  0  0  0
 27 26  1  0  0  0  0
M  END
>  <MODEL>
9

>  <REMARK>
 VINA RESULT:      -5.2      2.172      6.670
  Name = 
  1 active torsions:
  status: ('A' for Active; 'I' for Inactive)
    1  A    between atoms: C_9  and  C_15
                            x       y       z     vdW  Elec       q    Type
                         _______ _______ _______ _____ _____    ______ ____

>  <TORSDO>
F 1

$$$$
