=
 OpenBabel11052415233D

 37 40  0  0  1  0  0  0  0  0999 V2000
  189.4010  174.2400  136.4840 N   0  0  0  0  0  2  0  0  0  0  0  0
  190.6890  177.5140  139.5800 C   0  0  2  0  0  3  0  0  0  0  0  0
  190.8830  175.7670  137.7150 C   0  0  2  0  0  3  0  0  0  0  0  0
  189.6920  177.3940  140.6580 N   0  0  0  0  0  0  0  0  0  0  0  0
  190.0710  176.9170  138.3140 C   0  0  1  0  0  3  0  0  0  0  0  0
  192.3520  176.1550  137.5120 C   0  0  0  0  0  2  0  0  0  0  0  0
  188.7650  176.4350  138.7150 N   0  0  2  0  0  0  0  0  0  0  0  0
  187.2780  175.2920  137.2110 C   0  0  0  0  0  3  0  0  0  0  0  0
  192.1050  177.0030  139.9110 C   0  0  1  0  0  3  0  0  0  0  0  0
  192.9590  176.9930  138.6480 C   0  0  0  0  0  2  0  0  0  0  0  0
  187.8310  176.6200  137.6110 C   0  0  0  0  0  2  0  0  0  0  0  0
  192.7570  177.9090  140.9380 C   0  0  0  0  0  1  0  0  0  0  0  0
  188.4390  177.1900  139.9330 C   0  0  2  0  0  3  0  0  0  0  0  0
  190.2910  175.3890  136.3660 C   0  0  0  0  0  2  0  0  0  0  0  0
  187.9870  174.2580  136.7450 C   0  0  0  0  0  3  0  0  0  0  0  0
  189.9100  176.1780  141.4520 C   0  0  0  0  0  2  0  0  0  0  0  0
  188.1720  176.0130  143.2520 C   0  0  0  0  0  1  0  0  0  0  0  0
  189.6030  176.4020  142.9310 C   0  0  2  0  0  3  0  0  0  0  0  0
  189.8870  177.8460  143.3430 C   0  0  0  0  0  2  0  0  0  0  0  0
  188.8100  177.7660  145.6370 C   0  0  0  0  0  2  0  0  0  0  0  0
  190.0950  178.0070  144.8470 C   0  0  1  0  0  3  0  0  0  0  0  0
  191.1810  177.1490  145.3180 N   0  0  0  0  0  2  0  0  0  0  0  0
  192.3270  176.1110  147.0880 N   0  0  0  0  0  2  0  0  0  0  0  0
  190.0790  176.8200  147.5790 C   0  0  0  0  0  2  0  0  0  0  0  0
  191.2860  176.7620  146.6920 C   0  0  0  0  0  0  0  0  0  0  0  0
  189.1060  177.9060  147.1250 C   0  0  0  0  0  2  0  0  0  0  0  0
  187.7780  178.5530  139.6530 C   0  0  0  0  0  2  0  0  0  0  0  0
  186.4260  178.7840  141.6710 C   0  0  0  0  0  3  0  0  0  0  0  0
  186.4540  178.6670  140.3350 C   0  0  0  0  0  0  0  0  0  0  0  0
  185.4220  178.5030  143.9200 C   0  0  0  0  0  1  0  0  0  0  0  0
  185.1660  178.8890  142.4750 C   0  0  0  0  0  2  0  0  0  0  0  0
  185.2060  178.6110  139.5060 C   0  0  0  0  0  2  0  0  0  0  0  0
  184.8290  179.8950  139.1130 O   0  0  0  0  0  0  0  0  0  0  0  0
  183.4330  179.8500  139.0670 C   0  0  0  0  0  2  0  0  0  0  0  0
  182.9630  178.5950  139.6280 N   0  0  0  0  0  2  0  0  0  0  0  0
  180.9230  178.7230  140.9300 C   0  0  0  0  0  1  0  0  0  0  0  0
  181.5130  178.6040  139.5410 C   0  0  0  0  0  2  0  0  0  0  0  0
  1 15  1  0  0  0  0
  2  9  1  0  0  0  0
  2  4  1  1  0  0  0
  3 14  1  6  0  0  0
  3  5  1  0  0  0  0
  4 16  1  0  0  0  0
  5  7  1  0  0  0  0
  5  2  1  0  0  0  0
  6  3  1  0  0  0  0
  6 10  1  0  0  0  0
  7 13  1  0  0  0  0
  8 11  1  0  0  0  0
  9 12  1  0  0  0  0
 10  9  1  0  0  0  0
 11  7  1  0  0  0  0
 13  4  1  0  0  0  0
 14  1  1  0  0  0  0
 15  8  2  0  0  0  0
 16 18  1  0  0  0  0
 18 17  1  0  0  0  0
 18 19  1  0  0  0  0
 19 21  1  0  0  0  0
 20 26  1  0  0  0  0
 21 22  1  0  0  0  0
 21 20  1  0  0  0  0
 22 25  1  0  0  0  0
 25 23  2  0  0  0  0
 25 24  1  0  0  0  0
 26 24  1  0  0  0  0
 27 13  1  0  0  0  0
 27 29  1  0  0  0  0
 28 31  1  0  0  0  0
 29 28  2  0  0  0  0
 31 30  1  0  0  0  0
 32 29  1  0  0  0  0
 33 32  1  0  0  0  0
 34 33  1  0  0  0  0
 34 35  1  0  0  0  0
 37 35  1  0  0  0  0
 37 36  1  0  0  0  0
M  END
>  <MODEL>
1

>  <REMARK>
 VINA RESULT:      -6.8      0.000      0.000
  Name = 
  12 active torsions:
  status: ('A' for Active; 'I' for Inactive)
    1  A    between atoms: N_1  and  C_5
    2  A    between atoms: N_1  and  C_23
    3  A    between atoms: C_5  and  O_17
    4  A    between atoms: C_6  and  C_37
    5  A    between atoms: N_10  and  C_14
    6  A    between atoms: C_14  and  C_31
    7  A    between atoms: O_17  and  C_26
    8  A    between atoms: C_26  and  C_33
    9  A    between atoms: C_27  and  C_34
   10  A    between atoms: C_29  and  C_36
   11  A    between atoms: C_31  and  C_37
   12  A    between atoms: C_33  and  C_36
                            x       y       z     vdW  Elec       q    Type
                         _______ _______ _______ _____ _____    ______ ____

>  <TORSDO>
F 12

$$$$
=
 OpenBabel11052415233D

 37 40  0  0  1  0  0  0  0  0999 V2000
  179.9360  181.2420  138.4150 N   0  0  0  0  0  2  0  0  0  0  0  0
  181.7960  178.4130  141.6540 C   0  0  2  0  0  3  0  0  0  0  0  0
  180.2810  180.1980  140.6130 C   0  0  2  0  0  3  0  0  0  0  0  0
  183.1730  178.1860  141.1780 N   0  0  0  0  0  0  0  0  0  0  0  0
  180.9570  178.8360  140.4470 C   0  0  1  0  0  3  0  0  0  0  0  0
  179.4900  180.2830  141.9240 C   0  0  0  0  0  2  0  0  0  0  0  0
  181.8830  178.8830  139.3340 N   0  0  2  0  0  0  0  0  0  0  0  0
  181.2310  179.5690  137.1240 C   0  0  0  0  0  3  0  0  0  0  0  0
  181.6510  179.3180  142.8920 C   0  0  1  0  0  3  0  0  0  0  0  0
  180.1780  179.6310  143.1340 C   0  0  0  0  0  2  0  0  0  0  0  0
  181.1910  178.4610  138.1220 C   0  0  0  0  0  2  0  0  0  0  0  0
  182.2120  178.6200  144.1160 C   0  0  0  0  0  1  0  0  0  0  0  0
  183.0050  178.0240  139.7360 C   0  0  2  0  0  3  0  0  0  0  0  0
  179.3230  180.4230  139.4540 C   0  0  0  0  0  2  0  0  0  0  0  0
  180.6970  180.7860  137.2840 C   0  0  0  0  0  3  0  0  0  0  0  0
  184.0040  179.3830  141.3630 C   0  0  0  0  0  2  0  0  0  0  0  0
  186.2900  178.5530  140.7580 C   0  0  0  0  0  1  0  0  0  0  0  0
  185.3950  179.0340  141.8850 C   0  0  2  0  0  3  0  0  0  0  0  0
  185.3230  178.0020  143.0100 C   0  0  0  0  0  2  0  0  0  0  0  0
  185.4850  178.1060  145.5380 C   0  0  0  0  0  2  0  0  0  0  0  0
  186.1930  178.3660  144.2100 C   0  0  1  0  0  3  0  0  0  0  0  0
  187.4820  177.6800  144.1480 N   0  0  0  0  0  2  0  0  0  0  0  0
  189.4650  176.9820  145.1990 N   0  0  0  0  0  2  0  0  0  0  0  0
  187.6430  177.5310  146.6750 C   0  0  0  0  0  2  0  0  0  0  0  0
  188.2800  177.4780  145.3180 C   0  0  0  0  0  0  0  0  0  0  0  0
  186.4270  178.4560  146.6830 C   0  0  0  0  0  2  0  0  0  0  0  0
  182.7870  176.5350  139.4070 C   0  0  0  0  0  2  0  0  0  0  0  0
  183.7380  174.7770  138.0060 C   0  0  0  0  0  3  0  0  0  0  0  0
  183.6820  176.0850  138.2990 C   0  0  0  0  0  0  0  0  0  0  0  0
  185.4790  173.0890  137.4930 C   0  0  0  0  0  1  0  0  0  0  0  0
  184.6070  174.1970  136.9330 C   0  0  0  0  0  2  0  0  0  0  0  0
  184.5120  177.1060  137.5790 C   0  0  0  0  0  2  0  0  0  0  0  0
  185.8690  176.8370  137.7560 O   0  0  0  0  0  0  0  0  0  0  0  0
  186.5020  177.5490  136.7330 C   0  0  0  0  0  2  0  0  0  0  0  0
  186.9990  178.8130  137.2480 N   0  0  0  0  0  2  0  0  0  0  0  0
  189.1190  178.5630  138.3980 C   0  0  0  0  0  1  0  0  0  0  0  0
  188.4400  178.8120  137.0670 C   0  0  0  0  0  2  0  0  0  0  0  0
  1 14  1  0  0  0  0
  2  4  1  6  0  0  0
  2  9  1  0  0  0  0
  3 14  1  6  0  0  0
  3  6  1  0  0  0  0
  4 16  1  0  0  0  0
  5  3  1  0  0  0  0
  5  2  1  0  0  0  0
  6 10  1  0  0  0  0
  7 13  1  0  0  0  0
  7  5  1  0  0  0  0
  8 15  2  0  0  0  0
  8 11  1  0  0  0  0
  9 10  1  0  0  0  0
  9 12  1  0  0  0  0
 11  7  1  0  0  0  0
 13  4  1  0  0  0  0
 15  1  1  0  0  0  0
 16 18  1  0  0  0  0
 17 18  1  0  0  0  0
 18 19  1  0  0  0  0
 19 21  1  0  0  0  0
 20 26  1  0  0  0  0
 21 20  1  0  0  0  0
 22 21  1  0  0  0  0
 22 25  1  0  0  0  0
 23 25  2  0  0  0  0
 24 26  1  0  0  0  0
 25 24  1  0  0  0  0
 27 13  1  0  0  0  0
 28 29  2  0  0  0  0
 29 27  1  0  0  0  0
 31 30  1  0  0  0  0
 31 28  1  0  0  0  0
 32 33  1  0  0  0  0
 32 29  1  0  0  0  0
 34 35  1  0  0  0  0
 34 33  1  0  0  0  0
 37 35  1  0  0  0  0
 37 36  1  0  0  0  0
M  END
>  <MODEL>
2

>  <REMARK>
 VINA RESULT:      -6.2      2.784      7.646
  Name = 
  12 active torsions:
  status: ('A' for Active; 'I' for Inactive)
    1  A    between atoms: N_1  and  C_5
    2  A    between atoms: N_1  and  C_23
    3  A    between atoms: C_5  and  O_17
    4  A    between atoms: C_6  and  C_37
    5  A    between atoms: N_10  and  C_14
    6  A    between atoms: C_14  and  C_31
    7  A    between atoms: O_17  and  C_26
    8  A    between atoms: C_26  and  C_33
    9  A    between atoms: C_27  and  C_34
   10  A    between atoms: C_29  and  C_36
   11  A    between atoms: C_31  and  C_37
   12  A    between atoms: C_33  and  C_36
                            x       y       z     vdW  Elec       q    Type
                         _______ _______ _______ _____ _____    ______ ____

>  <TORSDO>
F 12

$$$$
=
 OpenBabel11052415233D

 37 40  0  0  1  0  0  0  0  0999 V2000
  189.5970  173.2970  136.4350 N   0  0  0  0  0  2  0  0  0  0  0  0
  190.9210  177.1920  138.6780 C   0  0  2  0  0  3  0  0  0  0  0  0
  191.0910  175.0670  137.2560 C   0  0  2  0  0  3  0  0  0  0  0  0
  189.9450  177.3180  139.7750 N   0  0  0  0  0  0  0  0  0  0  0  0
  190.2830  176.3220  137.5940 C   0  0  1  0  0  3  0  0  0  0  0  0
  192.5530  175.4030  136.9400 C   0  0  0  0  0  2  0  0  0  0  0  0
  188.9890  175.9400  138.1210 N   0  0  2  0  0  0  0  0  0  0  0  0
  187.4810  174.4820  136.9470 C   0  0  0  0  0  3  0  0  0  0  0  0
  192.3470  176.7740  139.0880 C   0  0  1  0  0  3  0  0  0  0  0  0
  193.1760  176.4790  137.8430 C   0  0  0  0  0  2  0  0  0  0  0  0
  188.0320  175.8660  137.0230 C   0  0  0  0  0  2  0  0  0  0  0  0
  193.0120  177.8920  139.8680 C   0  0  0  0  0  1  0  0  0  0  0  0
  188.6810  176.9520  139.1410 C   0  0  2  0  0  3  0  0  0  0  0  0
  190.4760  174.3910  136.0410 C   0  0  0  0  0  2  0  0  0  0  0  0
  188.1880  173.3700  136.7140 C   0  0  0  0  0  3  0  0  0  0  0  0
  190.1870  176.3160  140.8210 C   0  0  0  0  0  2  0  0  0  0  0  0
  189.6720  178.3190  142.2370 C   0  0  0  0  0  1  0  0  0  0  0  0
  189.7300  176.8040  142.1930 C   0  0  2  0  0  3  0  0  0  0  0  0
  190.6250  176.2530  143.3030 C   0  0  0  0  0  2  0  0  0  0  0  0
  189.0580  176.9620  145.1670 C   0  0  0  0  0  2  0  0  0  0  0  0
  190.4820  177.0170  144.6170 C   0  0  1  0  0  3  0  0  0  0  0  0
  191.4540  176.5460  145.6020 N   0  0  0  0  0  2  0  0  0  0  0  0
  192.1950  176.4290  147.8300 N   0  0  0  0  0  2  0  0  0  0  0  0
  189.8770  177.0120  147.5340 C   0  0  0  0  0  2  0  0  0  0  0  0
  191.2550  176.7470  147.0050 C   0  0  0  0  0  0  0  0  0  0  0  0
  189.0060  177.7110  146.4920 C   0  0  0  0  0  2  0  0  0  0  0  0
  188.0050  178.2130  138.5720 C   0  0  0  0  0  2  0  0  0  0  0  0
  185.6540  178.2950  137.9220 C   0  0  0  0  0  3  0  0  0  0  0  0
  186.5520  178.2560  138.9170 C   0  0  0  0  0  0  0  0  0  0  0  0
  183.5450  176.9930  137.9230 C   0  0  0  0  0  1  0  0  0  0  0  0
  184.1720  178.3580  138.1340 C   0  0  0  0  0  2  0  0  0  0  0  0
  186.1530  178.2910  140.3620 C   0  0  0  0  0  2  0  0  0  0  0  0
  185.5470  179.5100  140.6670 O   0  0  0  0  0  0  0  0  0  0  0  0
  184.5130  179.1750  141.5450 C   0  0  0  0  0  2  0  0  0  0  0  0
  185.0570  178.4920  142.7070 N   0  0  0  0  0  2  0  0  0  0  0  0
  183.5080  178.8910  144.5290 C   0  0  0  0  0  1  0  0  0  0  0  0
  184.7930  179.3340  143.8610 C   0  0  0  0  0  2  0  0  0  0  0  0
  1 15  1  0  0  0  0
  2  9  1  0  0  0  0
  2  4  1  1  0  0  0
  3 14  1  6  0  0  0
  3  5  1  0  0  0  0
  4 16  1  0  0  0  0
  5  7  1  0  0  0  0
  5  2  1  0  0  0  0
  6  3  1  0  0  0  0
  6 10  1  0  0  0  0
  7 13  1  0  0  0  0
  8 11  1  0  0  0  0
  9 12  1  0  0  0  0
 10  9  1  0  0  0  0
 11  7  1  0  0  0  0
 13  4  1  0  0  0  0
 14  1  1  0  0  0  0
 15  8  2  0  0  0  0
 16 18  1  0  0  0  0
 18 17  1  0  0  0  0
 18 19  1  0  0  0  0
 19 21  1  0  0  0  0
 20 26  1  0  0  0  0
 21 20  1  0  0  0  0
 21 22  1  0  0  0  0
 22 25  1  0  0  0  0
 25 24  1  0  0  0  0
 25 23  2  0  0  0  0
 26 24  1  0  0  0  0
 27 29  1  0  0  0  0
 27 13  1  0  0  0  0
 28 31  1  0  0  0  0
 28 29  2  0  0  0  0
 29 32  1  0  0  0  0
 30 31  1  0  0  0  0
 32 33  1  0  0  0  0
 33 34  1  0  0  0  0
 34 35  1  0  0  0  0
 35 37  1  0  0  0  0
 37 36  1  0  0  0  0
M  END
>  <MODEL>
3

>  <REMARK>
 VINA RESULT:      -6.2      1.415      2.246
  Name = 
  12 active torsions:
  status: ('A' for Active; 'I' for Inactive)
    1  A    between atoms: N_1  and  C_5
    2  A    between atoms: N_1  and  C_23
    3  A    between atoms: C_5  and  O_17
    4  A    between atoms: C_6  and  C_37
    5  A    between atoms: N_10  and  C_14
    6  A    between atoms: C_14  and  C_31
    7  A    between atoms: O_17  and  C_26
    8  A    between atoms: C_26  and  C_33
    9  A    between atoms: C_27  and  C_34
   10  A    between atoms: C_29  and  C_36
   11  A    between atoms: C_31  and  C_37
   12  A    between atoms: C_33  and  C_36
                            x       y       z     vdW  Elec       q    Type
                         _______ _______ _______ _____ _____    ______ ____

>  <TORSDO>
F 12

$$$$
=
 OpenBabel11052415233D

 37 40  0  0  1  0  0  0  0  0999 V2000
  179.8650  181.7300  138.7750 N   0  0  0  0  0  2  0  0  0  0  0  0
  181.5680  178.5580  141.7740 C   0  0  2  0  0  3  0  0  0  0  0  0
  180.1020  180.4510  140.8600 C   0  0  2  0  0  3  0  0  0  0  0  0
  182.9670  178.3820  141.3470 N   0  0  0  0  0  0  0  0  0  0  0  0
  180.7900  179.1130  140.5800 C   0  0  1  0  0  3  0  0  0  0  0  0
  179.2460  180.3930  142.1310 C   0  0  0  0  0  2  0  0  0  0  0  0
  181.7700  179.2800  139.5270 N   0  0  2  0  0  0  0  0  0  0  0  0
  181.2280  180.2060  137.3750 C   0  0  0  0  0  3  0  0  0  0  0  0
  181.3580  179.3230  143.0960 C   0  0  1  0  0  3  0  0  0  0  0  0
  179.8740  179.6120  143.2950 C   0  0  0  0  0  2  0  0  0  0  0  0
  181.1410  178.9940  138.2430 C   0  0  0  0  0  2  0  0  0  0  0  0
  181.8580  178.4930  144.2620 C   0  0  0  0  0  1  0  0  0  0  0  0
  182.8730  178.3780  139.8880 C   0  0  2  0  0  3  0  0  0  0  0  0
  179.2030  180.8040  139.6860 C   0  0  0  0  0  2  0  0  0  0  0  0
  180.6830  181.3990  137.6400 C   0  0  0  0  0  3  0  0  0  0  0  0
  183.7840  179.5490  141.7040 C   0  0  0  0  0  2  0  0  0  0  0  0
  186.0090  178.5830  141.0710 C   0  0  0  0  0  1  0  0  0  0  0  0
  185.1680  179.1430  142.2030 C   0  0  2  0  0  3  0  0  0  0  0  0
  185.0710  178.1500  143.3610 C   0  0  0  0  0  2  0  0  0  0  0  0
  185.2490  178.3440  145.8830 C   0  0  0  0  0  2  0  0  0  0  0  0
  185.9610  178.5220  144.5430 C   0  0  1  0  0  3  0  0  0  0  0  0
  187.2190  177.7780  144.5030 N   0  0  0  0  0  2  0  0  0  0  0  0
  189.1750  177.0350  145.5740 N   0  0  0  0  0  2  0  0  0  0  0  0
  187.3860  177.7200  147.0330 C   0  0  0  0  0  2  0  0  0  0  0  0
  188.0130  177.5870  145.6780 C   0  0  0  0  0  0  0  0  0  0  0  0
  186.2120  178.6970  147.0090 C   0  0  0  0  0  2  0  0  0  0  0  0
  182.6760  176.9350  139.3880 C   0  0  0  0  0  2  0  0  0  0  0  0
  184.5930  177.4420  137.9640 C   0  0  0  0  0  3  0  0  0  0  0  0
  183.5380  176.6480  138.2020 C   0  0  0  0  0  0  0  0  0  0  0  0
  186.9020  176.8570  137.2790 C   0  0  0  0  0  1  0  0  0  0  0  0
  185.5230  177.2710  136.8020 C   0  0  0  0  0  2  0  0  0  0  0  0
  183.1730  175.5040  137.3030 C   0  0  0  0  0  2  0  0  0  0  0  0
  183.4170  174.2890  137.9440 O   0  0  0  0  0  0  0  0  0  0  0  0
  184.4080  173.6800  137.1710 C   0  0  0  0  0  2  0  0  0  0  0  0
  185.4260  173.1090  138.0380 N   0  0  0  0  0  2  0  0  0  0  0  0
  186.3510  173.3710  135.8120 C   0  0  0  0  0  1  0  0  0  0  0  0
  186.5920  172.8460  137.2120 C   0  0  0  0  0  2  0  0  0  0  0  0
  1 14  1  0  0  0  0
  2  4  1  6  0  0  0
  2  9  1  0  0  0  0
  3 14  1  6  0  0  0
  3  6  1  0  0  0  0
  4 16  1  0  0  0  0
  5  3  1  0  0  0  0
  5  2  1  0  0  0  0
  6 10  1  0  0  0  0
  7 13  1  0  0  0  0
  7  5  1  0  0  0  0
  8 15  2  0  0  0  0
  8 11  1  0  0  0  0
  9 10  1  0  0  0  0
  9 12  1  0  0  0  0
 11  7  1  0  0  0  0
 13  4  1  0  0  0  0
 15  1  1  0  0  0  0
 16 18  1  0  0  0  0
 17 18  1  0  0  0  0
 18 19  1  0  0  0  0
 19 21  1  0  0  0  0
 20 26  1  0  0  0  0
 21 20  1  0  0  0  0
 22 21  1  0  0  0  0
 22 25  1  0  0  0  0
 23 25  2  0  0  0  0
 25 24  1  0  0  0  0
 26 24  1  0  0  0  0
 27 13  1  0  0  0  0
 28 29  2  0  0  0  0
 29 27  1  0  0  0  0
 31 30  1  0  0  0  0
 31 28  1  0  0  0  0
 32 33  1  0  0  0  0
 32 29  1  0  0  0  0
 34 33  1  0  0  0  0
 34 35  1  0  0  0  0
 36 37  1  0  0  0  0
 37 35  1  0  0  0  0
M  END
>  <MODEL>
4

>  <REMARK>
 VINA RESULT:      -6.0      3.449      7.906
  Name = 
  12 active torsions:
  status: ('A' for Active; 'I' for Inactive)
    1  A    between atoms: N_1  and  C_5
    2  A    between atoms: N_1  and  C_23
    3  A    between atoms: C_5  and  O_17
    4  A    between atoms: C_6  and  C_37
    5  A    between atoms: N_10  and  C_14
    6  A    between atoms: C_14  and  C_31
    7  A    between atoms: O_17  and  C_26
    8  A    between atoms: C_26  and  C_33
    9  A    between atoms: C_27  and  C_34
   10  A    between atoms: C_29  and  C_36
   11  A    between atoms: C_31  and  C_37
   12  A    between atoms: C_33  and  C_36
                            x       y       z     vdW  Elec       q    Type
                         _______ _______ _______ _____ _____    ______ ____

>  <TORSDO>
F 12

$$$$
=
 OpenBabel11052415233D

 37 40  0  0  1  0  0  0  0  0999 V2000
  189.3870  173.2490  136.6560 N   0  0  0  0  0  2  0  0  0  0  0  0
  190.7760  177.1550  138.8400 C   0  0  2  0  0  3  0  0  0  0  0  0
  190.9120  175.0000  137.4590 C   0  0  2  0  0  3  0  0  0  0  0  0
  189.7940  177.3230  139.9260 N   0  0  0  0  0  0  0  0  0  0  0  0
  190.1300  176.2790  137.7660 C   0  0  1  0  0  3  0  0  0  0  0  0
  192.3850  175.2980  137.1510 C   0  0  0  0  0  2  0  0  0  0  0  0
  188.8220  175.9360  138.2870 N   0  0  2  0  0  0  0  0  0  0  0  0
  187.2930  174.4890  137.1250 C   0  0  0  0  0  3  0  0  0  0  0  0
  192.1890  176.7130  139.2710 C   0  0  1  0  0  3  0  0  0  0  0  0
  193.0230  176.3760  138.0400 C   0  0  0  0  0  2  0  0  0  0  0  0
  187.8740  175.8630  137.1820 C   0  0  0  0  0  2  0  0  0  0  0  0
  192.8720  177.8290  140.0380 C   0  0  0  0  0  1  0  0  0  0  0  0
  188.5270  176.9730  139.2860 C   0  0  2  0  0  3  0  0  0  0  0  0
  190.2940  174.3160  136.2500 C   0  0  0  0  0  2  0  0  0  0  0  0
  187.9770  173.3580  136.9190 C   0  0  0  0  0  3  0  0  0  0  0  0
  190.0040  176.3350  140.9910 C   0  0  0  0  0  2  0  0  0  0  0  0
  191.3550  176.8550  143.0370 C   0  0  0  0  0  1  0  0  0  0  0  0
  189.9960  176.9800  142.3740 C   0  0  2  0  0  3  0  0  0  0  0  0
  188.8960  176.3880  143.2560 C   0  0  0  0  0  2  0  0  0  0  0  0
  186.8560  177.2870  144.4650 C   0  0  0  0  0  2  0  0  0  0  0  0
  188.3720  177.3730  144.2970 C   0  0  1  0  0  3  0  0  0  0  0  0
  189.0620  177.1990  145.5740 N   0  0  0  0  0  2  0  0  0  0  0  0
  189.1800  177.5870  147.8890 N   0  0  0  0  0  2  0  0  0  0  0  0
  187.0050  177.8720  146.8970 C   0  0  0  0  0  2  0  0  0  0  0  0
  188.4850  177.6460  146.8050 C   0  0  0  0  0  0  0  0  0  0  0  0
  186.4170  178.2680  145.5440 C   0  0  0  0  0  2  0  0  0  0  0  0
  187.8850  178.2380  138.6870 C   0  0  0  0  0  2  0  0  0  0  0  0
  186.5720  178.7520  140.6780 C   0  0  0  0  0  3  0  0  0  0  0  0
  186.5860  178.5570  139.3520 C   0  0  0  0  0  0  0  0  0  0  0  0
  184.5280  177.7980  141.7070 C   0  0  0  0  0  1  0  0  0  0  0  0
  185.3350  179.0600  141.4650 C   0  0  0  0  0  2  0  0  0  0  0  0
  185.3410  178.6110  138.5170 C   0  0  0  0  0  2  0  0  0  0  0  0
  184.9260  177.3220  138.1840 O   0  0  0  0  0  0  0  0  0  0  0  0
  184.1470  177.4910  137.0370 C   0  0  0  0  0  2  0  0  0  0  0  0
  184.3960  176.4020  136.1080 N   0  0  0  0  0  2  0  0  0  0  0  0
  183.6490  174.1510  135.6090 C   0  0  0  0  0  1  0  0  0  0  0  0
  183.2690  175.4910  136.2040 C   0  0  0  0  0  2  0  0  0  0  0  0
  1 15  1  0  0  0  0
  2  9  1  0  0  0  0
  2  4  1  1  0  0  0
  3 14  1  6  0  0  0
  3  5  1  0  0  0  0
  4 16  1  0  0  0  0
  5  7  1  0  0  0  0
  5  2  1  0  0  0  0
  6  3  1  0  0  0  0
  6 10  1  0  0  0  0
  7 13  1  0  0  0  0
  8 11  1  0  0  0  0
  9 12  1  0  0  0  0
 10  9  1  0  0  0  0
 11  7  1  0  0  0  0
 13  4  1  0  0  0  0
 14  1  1  0  0  0  0
 15  8  2  0  0  0  0
 16 18  1  0  0  0  0
 18 17  1  0  0  0  0
 18 19  1  0  0  0  0
 19 21  1  0  0  0  0
 20 26  1  0  0  0  0
 21 20  1  0  0  0  0
 21 22  1  0  0  0  0
 22 25  1  0  0  0  0
 25 24  1  0  0  0  0
 25 23  2  0  0  0  0
 26 24  1  0  0  0  0
 27 13  1  0  0  0  0
 27 29  1  0  0  0  0
 28 31  1  0  0  0  0
 29 28  2  0  0  0  0
 31 30  1  0  0  0  0
 32 29  1  0  0  0  0
 33 32  1  0  0  0  0
 34 33  1  0  0  0  0
 35 37  1  0  0  0  0
 35 34  1  0  0  0  0
 36 37  1  0  0  0  0
M  END
>  <MODEL>
5

>  <REMARK>
 VINA RESULT:      -5.9      1.813      2.386
  Name = 
  12 active torsions:
  status: ('A' for Active; 'I' for Inactive)
    1  A    between atoms: N_1  and  C_5
    2  A    between atoms: N_1  and  C_23
    3  A    between atoms: C_5  and  O_17
    4  A    between atoms: C_6  and  C_37
    5  A    between atoms: N_10  and  C_14
    6  A    between atoms: C_14  and  C_31
    7  A    between atoms: O_17  and  C_26
    8  A    between atoms: C_26  and  C_33
    9  A    between atoms: C_27  and  C_34
   10  A    between atoms: C_29  and  C_36
   11  A    between atoms: C_31  and  C_37
   12  A    between atoms: C_33  and  C_36
                            x       y       z     vdW  Elec       q    Type
                         _______ _______ _______ _____ _____    ______ ____

>  <TORSDO>
F 12

$$$$
=
 OpenBabel11052415233D

 37 40  0  0  1  0  0  0  0  0999 V2000
  185.0430  174.1050  136.2060 N   0  0  0  0  0  2  0  0  0  0  0  0
  186.8980  178.2580  137.3310 C   0  0  2  0  0  3  0  0  0  0  0  0
  186.4600  176.1040  136.0140 C   0  0  2  0  0  3  0  0  0  0  0  0
  186.7920  178.3080  138.8000 N   0  0  0  0  0  0  0  0  0  0  0  0
  185.8610  177.2530  136.8290 C   0  0  1  0  0  3  0  0  0  0  0  0
  187.3580  176.6190  134.8830 C   0  0  0  0  0  2  0  0  0  0  0  0
  185.2290  176.7260  138.0210 N   0  0  2  0  0  0  0  0  0  0  0  0
  183.5410  175.0150  137.9550 C   0  0  0  0  0  3  0  0  0  0  0  0
  188.3180  178.0620  136.7630 C   0  0  1  0  0  3  0  0  0  0  0  0
  188.2450  177.8170  135.2600 C   0  0  0  0  0  2  0  0  0  0  0  0
  183.8230  176.4640  137.7370 C   0  0  0  0  0  2  0  0  0  0  0  0
  189.1570  179.2990  137.0190 C   0  0  0  0  0  1  0  0  0  0  0  0
  185.4710  177.7390  139.0580 C   0  0  2  0  0  3  0  0  0  0  0  0
  185.3330  175.2870  135.4020 C   0  0  0  0  0  2  0  0  0  0  0  0
  184.1050  173.9990  137.2910 C   0  0  0  0  0  3  0  0  0  0  0  0
  187.7600  177.4050  139.4340 C   0  0  0  0  0  2  0  0  0  0  0  0
  189.8080  178.2870  140.5800 C   0  0  0  0  0  1  0  0  0  0  0  0
  188.3260  177.9930  140.7240 C   0  0  2  0  0  3  0  0  0  0  0  0
  188.0600  177.0740  141.9160 C   0  0  0  0  0  2  0  0  0  0  0  0
  187.5620  177.3810  144.3840 C   0  0  0  0  0  2  0  0  0  0  0  0
  188.5360  177.6640  143.2410 C   0  0  1  0  0  3  0  0  0  0  0  0
  189.8860  177.2020  143.5620 N   0  0  0  0  0  2  0  0  0  0  0  0
  191.6190  176.9230  145.1250 N   0  0  0  0  0  2  0  0  0  0  0  0
  189.4240  177.2600  146.0560 C   0  0  0  0  0  2  0  0  0  0  0  0
  190.3830  177.2190  144.9040 C   0  0  0  0  0  0  0  0  0  0  0  0
  188.1240  177.9640  145.6730 C   0  0  0  0  0  2  0  0  0  0  0  0
  184.4200  178.8640  139.0750 C   0  0  0  0  0  2  0  0  0  0  0  0
  184.3290  178.7660  141.5120 C   0  0  0  0  0  3  0  0  0  0  0  0
  183.6550  178.8760  140.3580 C   0  0  0  0  0  0  0  0  0  0  0  0
  184.4980  179.5480  143.8580 C   0  0  0  0  0  1  0  0  0  0  0  0
  183.6810  178.7470  142.8620 C   0  0  0  0  0  2  0  0  0  0  0  0
  182.1590  178.9720  140.3080 C   0  0  0  0  0  2  0  0  0  0  0  0
  181.5870  177.7160  140.5120 O   0  0  0  0  0  0  0  0  0  0  0  0
  180.2170  177.9700  140.6180 C   0  0  0  0  0  2  0  0  0  0  0  0
  179.7230  177.4750  141.8920 N   0  0  0  0  0  2  0  0  0  0  0  0
  179.8590  178.5030  144.0830 C   0  0  0  0  0  1  0  0  0  0  0  0
  179.3200  178.6310  142.6730 C   0  0  0  0  0  2  0  0  0  0  0  0
  1 15  1  0  0  0  0
  2  4  1  1  0  0  0
  3  6  1  6  0  0  0
  3  5  1  0  0  0  0
  4 13  1  0  0  0  0
  4 16  1  0  0  0  0
  5  2  1  0  0  0  0
  5  7  1  0  0  0  0
  6 10  1  0  0  0  0
  7 13  1  0  0  0  0
  9 12  1  0  0  0  0
  9  2  1  0  0  0  0
 10  9  1  0  0  0  0
 11  8  1  0  0  0  0
 11  7  1  0  0  0  0
 13 27  1  0  0  0  0
 14  3  1  0  0  0  0
 14  1  1  0  0  0  0
 15  8  2  0  0  0  0
 16 18  1  0  0  0  0
 17 18  1  0  0  0  0
 18 19  1  0  0  0  0
 19 21  1  0  0  0  0
 20 26  1  0  0  0  0
 21 22  1  0  0  0  0
 21 20  1  0  0  0  0
 22 25  1  0  0  0  0
 25 23  2  0  0  0  0
 25 24  1  0  0  0  0
 26 24  1  0  0  0  0
 27 29  1  0  0  0  0
 28 31  1  0  0  0  0
 29 28  2  0  0  0  0
 31 30  1  0  0  0  0
 32 29  1  0  0  0  0
 32 33  1  0  0  0  0
 33 34  1  0  0  0  0
 34 35  1  0  0  0  0
 35 37  1  0  0  0  0
 37 36  1  0  0  0  0
M  END
>  <MODEL>
6

>  <REMARK>
 VINA RESULT:      -5.8      2.363      3.655
  Name = 
  12 active torsions:
  status: ('A' for Active; 'I' for Inactive)
    1  A    between atoms: N_1  and  C_5
    2  A    between atoms: N_1  and  C_23
    3  A    between atoms: C_5  and  O_17
    4  A    between atoms: C_6  and  C_37
    5  A    between atoms: N_10  and  C_14
    6  A    between atoms: C_14  and  C_31
    7  A    between atoms: O_17  and  C_26
    8  A    between atoms: C_26  and  C_33
    9  A    between atoms: C_27  and  C_34
   10  A    between atoms: C_29  and  C_36
   11  A    between atoms: C_31  and  C_37
   12  A    between atoms: C_33  and  C_36
                            x       y       z     vdW  Elec       q    Type
                         _______ _______ _______ _____ _____    ______ ____

>  <TORSDO>
F 12

$$$$
=
 OpenBabel11052415233D

 37 40  0  0  1  0  0  0  0  0999 V2000
  184.7390  174.2690  136.0900 N   0  0  0  0  0  2  0  0  0  0  0  0
  186.7990  178.3210  137.2300 C   0  0  2  0  0  3  0  0  0  0  0  0
  186.2090  176.2280  135.8740 C   0  0  2  0  0  3  0  0  0  0  0  0
  186.7840  178.3240  138.7030 N   0  0  0  0  0  0  0  0  0  0  0  0
  185.7000  177.3660  136.7610 C   0  0  1  0  0  3  0  0  0  0  0  0
  187.0530  176.7520  134.7070 C   0  0  0  0  0  2  0  0  0  0  0  0
  185.1230  176.8200  137.9720 N   0  0  2  0  0  0  0  0  0  0  0  0
  183.3780  175.1660  137.9570 C   0  0  0  0  0  3  0  0  0  0  0  0
  188.1740  178.0980  136.5700 C   0  0  1  0  0  3  0  0  0  0  0  0
  188.0010  177.9070  135.0670 C   0  0  0  0  0  2  0  0  0  0  0  0
  183.6950  176.6120  137.7680 C   0  0  0  0  0  2  0  0  0  0  0  0
  189.0680  179.2990  136.8130 C   0  0  0  0  0  1  0  0  0  0  0  0
  185.4620  177.7880  139.0250 C   0  0  2  0  0  3  0  0  0  0  0  0
  185.0190  175.4680  135.3080 C   0  0  0  0  0  2  0  0  0  0  0  0
  183.8670  174.1560  137.2270 C   0  0  0  0  0  3  0  0  0  0  0  0
  187.7570  177.3690  139.2480 C   0  0  0  0  0  2  0  0  0  0  0  0
  189.9700  177.1210  140.3990 C   0  0  0  0  0  1  0  0  0  0  0  0
  188.8190  178.0620  140.0970 C   0  0  2  0  0  3  0  0  0  0  0  0
  188.2180  178.6280  141.3840 C   0  0  0  0  0  2  0  0  0  0  0  0
  189.7670  178.2650  143.3580 C   0  0  0  0  0  2  0  0  0  0  0  0
  188.5270  177.7760  142.6110 C   0  0  1  0  0  3  0  0  0  0  0  0
  187.3660  177.6970  143.4970 N   0  0  0  0  0  2  0  0  0  0  0  0
  186.4450  177.1830  145.5970 N   0  0  0  0  0  2  0  0  0  0  0  0
  188.8250  177.5490  145.5670 C   0  0  0  0  0  2  0  0  0  0  0  0
  187.5030  177.3670  144.8830 C   0  0  0  0  0  0  0  0  0  0  0  0
  189.9850  177.3920  144.5870 C   0  0  0  0  0  2  0  0  0  0  0  0
  184.4520  178.9450  139.1430 C   0  0  0  0  0  2  0  0  0  0  0  0
  184.4640  178.7000  141.5710 C   0  0  0  0  0  3  0  0  0  0  0  0
  183.7470  178.9200  140.4590 C   0  0  0  0  0  0  0  0  0  0  0  0
  184.4670  179.7130  143.8330 C   0  0  0  0  0  1  0  0  0  0  0  0
  183.8760  178.6330  142.9470 C   0  0  0  0  0  2  0  0  0  0  0  0
  182.2590  179.1060  140.4860 C   0  0  0  0  0  2  0  0  0  0  0  0
  181.6160  177.8880  140.2590 O   0  0  0  0  0  0  0  0  0  0  0  0
  180.6690  178.1720  139.2720 C   0  0  0  0  0  2  0  0  0  0  0  0
  179.9380  176.9640  138.9310 N   0  0  0  0  0  2  0  0  0  0  0  0
  180.3840  177.8260  136.7090 C   0  0  0  0  0  1  0  0  0  0  0  0
  179.3610  177.1710  137.6130 C   0  0  0  0  0  2  0  0  0  0  0  0
  1 15  1  0  0  0  0
  2  4  1  1  0  0  0
  3  6  1  6  0  0  0
  3  5  1  0  0  0  0
  4 13  1  0  0  0  0
  4 16  1  0  0  0  0
  5  2  1  0  0  0  0
  5  7  1  0  0  0  0
  6 10  1  0  0  0  0
  7 13  1  0  0  0  0
  9 12  1  0  0  0  0
  9  2  1  0  0  0  0
 10  9  1  0  0  0  0
 11  8  1  0  0  0  0
 11  7  1  0  0  0  0
 13 27  1  0  0  0  0
 14  3  1  0  0  0  0
 14  1  1  0  0  0  0
 15  8  2  0  0  0  0
 16 18  1  0  0  0  0
 18 17  1  0  0  0  0
 18 19  1  0  0  0  0
 19 21  1  0  0  0  0
 20 26  1  0  0  0  0
 21 20  1  0  0  0  0
 21 22  1  0  0  0  0
 22 25  1  0  0  0  0
 25 24  1  0  0  0  0
 25 23  2  0  0  0  0
 26 24  1  0  0  0  0
 27 29  1  0  0  0  0
 28 31  1  0  0  0  0
 29 32  1  0  0  0  0
 29 28  2  0  0  0  0
 31 30  1  0  0  0  0
 33 32  1  0  0  0  0
 34 33  1  0  0  0  0
 35 34  1  0  0  0  0
 36 37  1  0  0  0  0
 37 35  1  0  0  0  0
M  END
>  <MODEL>
7

>  <REMARK>
 VINA RESULT:      -5.8      2.606      3.993
  Name = 
  12 active torsions:
  status: ('A' for Active; 'I' for Inactive)
    1  A    between atoms: N_1  and  C_5
    2  A    between atoms: N_1  and  C_23
    3  A    between atoms: C_5  and  O_17
    4  A    between atoms: C_6  and  C_37
    5  A    between atoms: N_10  and  C_14
    6  A    between atoms: C_14  and  C_31
    7  A    between atoms: O_17  and  C_26
    8  A    between atoms: C_26  and  C_33
    9  A    between atoms: C_27  and  C_34
   10  A    between atoms: C_29  and  C_36
   11  A    between atoms: C_31  and  C_37
   12  A    between atoms: C_33  and  C_36
                            x       y       z     vdW  Elec       q    Type
                         _______ _______ _______ _____ _____    ______ ____

>  <TORSDO>
F 12

$$$$
=
 OpenBabel11052415233D

 37 40  0  0  1  0  0  0  0  0999 V2000
  184.3910  178.3140  144.3470 N   0  0  0  0  0  2  0  0  0  0  0  0
  181.8790  178.7880  140.4190 C   0  0  2  0  0  3  0  0  0  0  0  0
  182.4680  178.8490  142.9130 C   0  0  2  0  0  3  0  0  0  0  0  0
  182.4510  177.7800  139.5090 N   0  0  0  0  0  0  0  0  0  0  0  0
  182.9370  179.1030  141.4790 C   0  0  1  0  0  3  0  0  0  0  0  0
  181.1340  179.5460  143.2050 C   0  0  0  0  0  2  0  0  0  0  0  0
  184.0570  178.2380  141.1720 N   0  0  2  0  0  0  0  0  0  0  0  0
  186.0510  178.1600  142.5130 C   0  0  0  0  0  3  0  0  0  0  0  0
  180.4770  178.4750  140.9780 C   0  0  1  0  0  3  0  0  0  0  0  0
  180.1130  179.4880  142.0580 C   0  0  0  0  0  2  0  0  0  0  0  0
  185.2980  178.9370  141.4850 C   0  0  0  0  0  2  0  0  0  0  0  0
  179.4470  178.5470  139.8680 C   0  0  0  0  0  1  0  0  0  0  0  0
  183.8880  177.8860  139.7550 C   0  0  2  0  0  3  0  0  0  0  0  0
  183.5140  179.3810  143.8800 C   0  0  0  0  0  2  0  0  0  0  0  0
  185.6240  177.8780  143.7490 C   0  0  0  0  0  3  0  0  0  0  0  0
  182.0640  176.4220  139.9080 C   0  0  0  0  0  2  0  0  0  0  0  0
  180.4670  174.5420  139.4630 C   0  0  0  0  0  1  0  0  0  0  0  0
  181.1480  175.7650  138.8790 C   0  0  2  0  0  3  0  0  0  0  0  0
  181.9110  175.4150  137.6010 C   0  0  0  0  0  2  0  0  0  0  0  0
  182.2310  173.2360  136.3440 C   0  0  0  0  0  2  0  0  0  0  0  0
  182.5100  174.0110  137.6310 C   0  0  1  0  0  3  0  0  0  0  0  0
  183.9400  174.0600  137.9260 N   0  0  0  0  0  2  0  0  0  0  0  0
  186.0430  173.0110  137.9660 N   0  0  0  0  0  2  0  0  0  0  0  0
  184.4100  172.0090  136.5090 C   0  0  0  0  0  2  0  0  0  0  0  0
  184.8150  172.9830  137.5750 C   0  0  0  0  0  0  0  0  0  0  0  0
  182.8910  171.8660  136.4340 C   0  0  0  0  0  2  0  0  0  0  0  0
  184.5020  178.9160  138.7880 C   0  0  0  0  0  2  0  0  0  0  0  0
  184.7610  177.4080  136.8870 C   0  0  0  0  0  3  0  0  0  0  0  0
  185.3460  178.2520  137.7490 C   0  0  0  0  0  0  0  0  0  0  0  0
  184.5290  175.8820  134.9470 C   0  0  0  0  0  1  0  0  0  0  0  0
  185.4960  176.6670  135.8120 C   0  0  0  0  0  2  0  0  0  0  0  0
  186.8200  178.5270  137.7310 C   0  0  0  0  0  2  0  0  0  0  0  0
  187.3310  178.5020  139.0290 O   0  0  0  0  0  0  0  0  0  0  0  0
  188.3650  177.5640  138.9780 C   0  0  0  0  0  2  0  0  0  0  0  0
  189.6470  178.2380  139.0900 N   0  0  0  0  0  2  0  0  0  0  0  0
  191.1490  176.3580  138.7950 C   0  0  0  0  0  1  0  0  0  0  0  0
  190.5470  177.3340  139.7850 C   0  0  0  0  0  2  0  0  0  0  0  0
  2  4  1  1  0  0  0
  2  9  1  0  0  0  0
  2  5  1  0  0  0  0
  3  6  1  1  0  0  0
  3 14  1  0  0  0  0
  4 13  1  0  0  0  0
  4 16  1  0  0  0  0
  5  3  1  0  0  0  0
  7  5  1  0  0  0  0
  7 11  1  0  0  0  0
  8 15  2  0  0  0  0
  9 10  1  0  0  0  0
 10  6  1  0  0  0  0
 11  8  1  0  0  0  0
 12  9  1  0  0  0  0
 13  7  1  0  0  0  0
 14  1  1  0  0  0  0
 15  1  1  0  0  0  0
 18 17  1  0  0  0  0
 18 16  1  0  0  0  0
 19 21  1  0  0  0  0
 19 18  1  0  0  0  0
 20 26  1  0  0  0  0
 20 21  1  0  0  0  0
 21 22  1  0  0  0  0
 24 25  1  0  0  0  0
 25 22  1  0  0  0  0
 25 23  2  0  0  0  0
 26 24  1  0  0  0  0
 27 13  1  0  0  0  0
 28 29  2  0  0  0  0
 29 27  1  0  0  0  0
 30 31  1  0  0  0  0
 31 28  1  0  0  0  0
 32 29  1  0  0  0  0
 32 33  1  0  0  0  0
 34 33  1  0  0  0  0
 34 35  1  0  0  0  0
 35 37  1  0  0  0  0
 36 37  1  0  0  0  0
M  END
>  <MODEL>
8

>  <REMARK>
 VINA RESULT:      -5.7      3.232      9.324
  Name = 
  12 active torsions:
  status: ('A' for Active; 'I' for Inactive)
    1  A    between atoms: N_1  and  C_5
    2  A    between atoms: N_1  and  C_23
    3  A    between atoms: C_5  and  O_17
    4  A    between atoms: C_6  and  C_37
    5  A    between atoms: N_10  and  C_14
    6  A    between atoms: C_14  and  C_31
    7  A    between atoms: O_17  and  C_26
    8  A    between atoms: C_26  and  C_33
    9  A    between atoms: C_27  and  C_34
   10  A    between atoms: C_29  and  C_36
   11  A    between atoms: C_31  and  C_37
   12  A    between atoms: C_33  and  C_36
                            x       y       z     vdW  Elec       q    Type
                         _______ _______ _______ _____ _____    ______ ____

>  <TORSDO>
F 12

$$$$
=
 OpenBabel11052415233D

 37 40  0  0  1  0  0  0  0  0999 V2000
  193.8350  174.8840  135.0090 N   0  0  0  0  0  2  0  0  0  0  0  0
  189.5640  174.6590  136.9240 C   0  0  2  0  0  3  0  0  0  0  0  0
  191.5230  174.1270  135.3600 C   0  0  2  0  0  3  0  0  0  0  0  0
  189.3480  176.0120  137.4690 N   0  0  0  0  0  0  0  0  0  0  0  0
  191.0740  174.4550  136.7850 C   0  0  1  0  0  3  0  0  0  0  0  0
  190.7270  172.9580  134.7700 C   0  0  0  0  0  2  0  0  0  0  0  0
  191.6700  175.7060  137.2090 N   0  0  2  0  0  0  0  0  0  0  0  0
  194.0410  176.1040  137.1570 C   0  0  0  0  0  3  0  0  0  0  0  0
  188.7450  174.2990  135.6700 C   0  0  1  0  0  3  0  0  0  0  0  0
  189.2260  172.9680  135.1020 C   0  0  0  0  0  2  0  0  0  0  0  0
  192.9300  175.4260  137.8880 C   0  0  0  0  0  2  0  0  0  0  0  0
  187.2750  174.1790  136.0250 C   0  0  0  0  0  1  0  0  0  0  0  0
  190.6480  176.3510  138.0450 C   0  0  2  0  0  3  0  0  0  0  0  0
  192.9960  173.7500  135.3770 C   0  0  0  0  0  2  0  0  0  0  0  0
  194.4030  175.8690  135.8900 C   0  0  0  0  0  3  0  0  0  0  0  0
  189.1070  176.9850  136.3970 C   0  0  0  0  0  2  0  0  0  0  0  0
  188.7030  179.2620  137.3660 C   0  0  0  0  0  1  0  0  0  0  0  0
  188.0530  178.0160  136.7920 C   0  0  2  0  0  3  0  0  0  0  0  0
  187.0370  177.4250  137.7690 C   0  0  0  0  0  2  0  0  0  0  0  0
  184.6310  176.6670  137.5110 C   0  0  0  0  0  2  0  0  0  0  0  0
  185.6020  177.8460  137.4650 C   0  0  1  0  0  3  0  0  0  0  0  0
  185.1760  178.9250  138.3540 N   0  0  0  0  0  2  0  0  0  0  0  0
  183.4570  180.2290  139.2860 N   0  0  0  0  0  2  0  0  0  0  0  0
  182.7690  178.1220  138.3450 C   0  0  0  0  0  2  0  0  0  0  0  0
  183.7910  179.1910  138.5980 C   0  0  0  0  0  0  0  0  0  0  0  0
  183.2210  177.1730  137.2370 C   0  0  0  0  0  2  0  0  0  0  0  0
  190.6910  175.9060  139.5190 C   0  0  0  0  0  2  0  0  0  0  0  0
  189.0780  177.3980  140.5820 C   0  0  0  0  0  3  0  0  0  0  0  0
  190.3610  177.0360  140.4390 C   0  0  0  0  0  0  0  0  0  0  0  0
  187.1100  178.6700  141.3900 C   0  0  0  0  0  1  0  0  0  0  0  0
  188.6180  178.5230  141.4570 C   0  0  0  0  0  2  0  0  0  0  0  0
  191.4800  177.7480  141.1390 C   0  0  0  0  0  2  0  0  0  0  0  0
  191.8710  177.0340  142.2730 O   0  0  0  0  0  0  0  0  0  0  0  0
  191.7250  177.9420  143.3240 C   0  0  0  0  0  2  0  0  0  0  0  0
  191.0700  177.2920  144.4470 N   0  0  0  0  0  2  0  0  0  0  0  0
  188.7350  177.3180  145.0980 C   0  0  0  0  0  1  0  0  0  0  0  0
  189.9760  178.1540  144.8610 C   0  0  0  0  0  2  0  0  0  0  0  0
  1 14  1  0  0  0  0
  1 15  1  0  0  0  0
  2  4  1  6  0  0  0
  3  6  1  1  0  0  0
  3 14  1  0  0  0  0
  3  5  1  0  0  0  0
  4 13  1  0  0  0  0
  5  2  1  0  0  0  0
  5  7  1  0  0  0  0
  6 10  1  0  0  0  0
  7 11  1  0  0  0  0
  7 13  1  0  0  0  0
  8 11  1  0  0  0  0
  9 12  1  0  0  0  0
  9  2  1  0  0  0  0
 10  9  1  0  0  0  0
 13 27  1  0  0  0  0
 15  8  2  0  0  0  0
 16 18  1  0  0  0  0
 16  4  1  0  0  0  0
 18 17  1  0  0  0  0
 18 19  1  0  0  0  0
 21 20  1  0  0  0  0
 21 19  1  0  0  0  0
 21 22  1  0  0  0  0
 22 25  1  0  0  0  0
 24 25  1  0  0  0  0
 25 23  2  0  0  0  0
 26 20  1  0  0  0  0
 26 24  1  0  0  0  0
 27 29  1  0  0  0  0
 28 31  1  0  0  0  0
 29 28  2  0  0  0  0
 29 32  1  0  0  0  0
 30 31  1  0  0  0  0
 32 33  1  0  0  0  0
 33 34  1  0  0  0  0
 34 35  1  0  0  0  0
 35 37  1  0  0  0  0
 37 36  1  0  0  0  0
M  END
>  <MODEL>
9

>  <REMARK>
 VINA RESULT:      -5.7      2.398      7.135
  Name = 
  12 active torsions:
  status: ('A' for Active; 'I' for Inactive)
    1  A    between atoms: N_1  and  C_5
    2  A    between atoms: N_1  and  C_23
    3  A    between atoms: C_5  and  O_17
    4  A    between atoms: C_6  and  C_37
    5  A    between atoms: N_10  and  C_14
    6  A    between atoms: C_14  and  C_31
    7  A    between atoms: O_17  and  C_26
    8  A    between atoms: C_26  and  C_33
    9  A    between atoms: C_27  and  C_34
   10  A    between atoms: C_29  and  C_36
   11  A    between atoms: C_31  and  C_37
   12  A    between atoms: C_33  and  C_36
                            x       y       z     vdW  Elec       q    Type
                         _______ _______ _______ _____ _____    ______ ____

>  <TORSDO>
F 12

$$$$
