=
 OpenBabel11052414023D

 34 38  0  0  1  0  0  0  0  0999 V2000
  189.3500  176.3040  136.9440 C   0  0  0  0  0  0  0  0  0  0  0  0
  191.7520  176.3390  137.7670 C   0  0  1  0  0  3  0  0  0  0  0  0
  189.8430  177.2910  139.1130 C   0  0  0  0  0  0  0  0  0  0  0  0
  191.2350  178.1900  142.6070 C   0  0  0  0  0  1  0  0  0  0  0  0
  192.0340  174.8500  137.9360 C   0  0  0  0  0  1  0  0  0  0  0  0
  192.1860  177.0010  139.9370 C   0  0  0  0  0  2  0  0  0  0  0  0
  190.2820  176.6620  137.9330 C   0  0  0  0  0  0  0  0  0  0  0  0
  190.2570  177.6310  141.5750 C   0  0  1  0  0  0  0  0  0  0  0  0
  188.4790  177.5730  139.3160 C   0  0  0  0  0  0  0  0  0  0  0  0
  187.9900  176.5740  137.1520 C   0  0  0  0  0  3  0  0  0  0  0  0
  192.5940  177.1290  138.5910 O   0  0  0  0  0  0  0  0  0  0  0  0
  189.0420  178.5590  141.5790 C   0  0  0  0  0  2  0  0  0  0  0  0
  188.0470  178.1700  140.5670 N   0  0  0  0  0  0  0  0  0  0  0  0
  190.8470  177.7160  140.1460 C   0  0  2  0  0  3  0  0  0  0  0  0
  187.5600  177.1940  138.3260 C   0  0  0  0  0  3  0  0  0  0  0  0
  184.8320  178.7110  142.4300 C   0  0  0  0  0  0  0  0  0  0  0  0
  183.9620  179.0100  141.3800 C   0  0  0  0  0  3  0  0  0  0  0  0
  186.6670  178.4650  140.8520 C   0  0  0  0  0  0  0  0  0  0  0  0
  184.4340  179.0290  140.0650 C   0  0  0  0  0  3  0  0  0  0  0  0
  186.1770  178.4370  142.1680 C   0  0  0  0  0  3  0  0  0  0  0  0
  185.7800  178.7550  139.8030 C   0  0  0  0  0  3  0  0  0  0  0  0
  184.2400  178.6880  144.0770 Cl  0  0  0  0  0  0  0  0  0  0  0  0
  189.0930  174.5900  135.1740 C   0  0  0  0  0  1  0  0  0  0  0  0
  189.7910  175.6730  135.7740 O   0  0  0  0  0  0  0  0  0  0  0  0
  189.7920  176.3350  141.9240 O   0  0  0  0  0  0  0  0  0  0  0  0
  188.8030  176.4040  142.9180 C   0  0  0  0  0  2  0  0  0  0  0  0
  189.4650  176.4920  144.2780 C   0  0  0  0  0  2  0  0  0  0  0  0
  189.7900  176.3780  147.1560 C   0  0  0  0  0  1  0  0  0  0  0  0
  188.7330  177.5060  145.1500 C   0  0  2  0  0  3  0  0  0  0  0  0
  189.3270  177.7060  146.5410 C   0  0  1  0  0  3  0  0  0  0  0  0
  188.2400  178.1700  148.8150 C   0  0  0  0  0  1  0  0  0  0  0  0
  186.9050  177.6280  146.7480 C   0  0  0  0  0  2  0  0  0  0  0  0
  187.2800  177.1170  145.3650 C   0  0  0  0  0  2  0  0  0  0  0  0
  188.1480  178.2980  147.3020 C   0  0  2  0  0  3  0  0  0  0  0  0
  1 10  2  0  0  0  0
  1  7  1  0  0  0  0
  2  7  1  0  0  0  0
  2  5  1  1  0  0  0
  2 11  1  0  0  0  0
  3  9  1  0  0  0  0
  3 14  1  0  0  0  0
  7  3  2  0  0  0  0
  8 12  1  0  0  0  0
  8 25  1  0  0  0  0
  8  4  1  1  0  0  0
  9 13  1  0  0  0  0
 10 15  1  0  0  0  0
 11  6  1  0  0  0  0
 13 18  1  0  0  0  0
 13 12  1  0  0  0  0
 14  6  1  1  0  0  0
 14  8  1  0  0  0  0
 15  9  2  0  0  0  0
 16 22  1  0  0  0  0
 17 16  2  0  0  0  0
 18 20  2  0  0  0  0
 19 17  1  0  0  0  0
 20 16  1  0  0  0  0
 21 19  2  0  0  0  0
 21 18  1  0  0  0  0
 23 24  1  0  0  0  0
 24  1  1  0  0  0  0
 25 26  1  0  0  0  0
 26 27  1  0  0  0  0
 29 27  1  1  0  0  0
 29 33  1  0  0  0  0
 29 30  1  0  0  0  0
 30 28  1  1  0  0  0
 30 34  1  0  0  0  0
 32 34  1  0  0  0  0
 33 32  1  0  0  0  0
 34 31  1  1  0  0  0
M  END
>  <MODEL>
1

>  <REMARK>
 VINA RESULT:      -8.5      0.000      0.000
  Name = 
  6 active torsions:
  status: ('A' for Active; 'I' for Inactive)
    1  A    between atoms: C_1  and  O_19
    2  A    between atoms: C_3  and  C_13
    3  A    between atoms: C_3  and  C_17
    4  A    between atoms: C_12  and  N_28
    5  A    between atoms: C_17  and  O_29
    6  A    between atoms: C_18  and  O_29
                            x       y       z     vdW  Elec       q    Type
                         _______ _______ _______ _____ _____    ______ ____

>  <TORSDO>
F 6

$$$$
=
 OpenBabel11052414023D

 34 38  0  0  1  0  0  0  0  0999 V2000
  186.1410  174.4160  136.9650 C   0  0  0  0  0  0  0  0  0  0  0  0
  187.2540  176.6980  136.9940 C   0  0  1  0  0  3  0  0  0  0  0  0
  184.8170  176.3700  137.5560 C   0  0  0  0  0  0  0  0  0  0  0  0
  183.4810  179.7430  138.8940 C   0  0  0  0  0  1  0  0  0  0  0  0
  188.2480  176.5330  138.1370 C   0  0  0  0  0  1  0  0  0  0  0  0
  186.0870  178.5050  137.8350 C   0  0  0  0  0  2  0  0  0  0  0  0
  186.0430  175.8030  137.1600 C   0  0  0  0  0  0  0  0  0  0  0  0
  183.6910  178.2300  138.8270 C   0  0  1  0  0  0  0  0  0  0  0  0
  183.6810  175.5630  137.7540 C   0  0  0  0  0  0  0  0  0  0  0  0
  185.0120  173.6110  137.1750 C   0  0  0  0  0  3  0  0  0  0  0  0
  186.9170  178.0600  136.7840 O   0  0  0  0  0  0  0  0  0  0  0  0
  182.3560  177.6240  138.3940 C   0  0  0  0  0  2  0  0  0  0  0  0
  182.4440  176.1650  138.2190 N   0  0  0  0  0  0  0  0  0  0  0  0
  184.7030  177.8590  137.7170 C   0  0  2  0  0  3  0  0  0  0  0  0
  183.8000  174.1770  137.5710 C   0  0  0  0  0  3  0  0  0  0  0  0
  179.6810  174.3480  139.9980 C   0  0  0  0  0  0  0  0  0  0  0  0
  178.9350  173.8740  138.9190 C   0  0  0  0  0  3  0  0  0  0  0  0
  181.2500  175.4000  138.4650 C   0  0  0  0  0  0  0  0  0  0  0  0
  179.3440  174.1500  137.6110 C   0  0  0  0  0  3  0  0  0  0  0  0
  180.8350  175.1040  139.7740 C   0  0  0  0  0  3  0  0  0  0  0  0
  180.4970  174.9080  137.3870 C   0  0  0  0  0  3  0  0  0  0  0  0
  179.1690  174.0020  141.6360 Cl  0  0  0  0  0  0  0  0  0  0  0  0
  187.7890  172.5660  136.9960 C   0  0  0  0  0  1  0  0  0  0  0  0
  187.3650  173.8560  136.5760 O   0  0  0  0  0  0  0  0  0  0  0  0
  184.0080  177.6770  140.0970 O   0  0  0  0  0  0  0  0  0  0  0  0
  184.0300  178.6700  141.0890 C   0  0  0  0  0  2  0  0  0  0  0  0
  185.2230  178.4460  141.9950 C   0  0  0  0  0  2  0  0  0  0  0  0
  186.4420  177.3280  144.3760 C   0  0  0  0  0  1  0  0  0  0  0  0
  184.9940  179.1290  143.3390 C   0  0  2  0  0  3  0  0  0  0  0  0
  186.0330  178.8070  144.4090 C   0  0  1  0  0  3  0  0  0  0  0  0
  185.8360  178.5050  146.9470 C   0  0  0  0  0  1  0  0  0  0  0  0
  183.8320  178.7760  145.4450 C   0  0  0  0  0  2  0  0  0  0  0  0
  183.6470  178.7590  143.9340 C   0  0  0  0  0  2  0  0  0  0  0  0
  185.2810  179.1540  145.6880 C   0  0  2  0  0  3  0  0  0  0  0  0
  1  7  2  0  0  0  0
  1 10  1  0  0  0  0
  2  7  1  0  0  0  0
  2  5  1  1  0  0  0
  3 14  1  0  0  0  0
  3  9  2  0  0  0  0
  7  3  1  0  0  0  0
  8  4  1  1  0  0  0
  8 25  1  0  0  0  0
  9 13  1  0  0  0  0
 10 15  2  0  0  0  0
 11  2  1  0  0  0  0
 11  6  1  0  0  0  0
 12  8  1  0  0  0  0
 13 12  1  0  0  0  0
 13 18  1  0  0  0  0
 14  6  1  1  0  0  0
 14  8  1  0  0  0  0
 15  9  1  0  0  0  0
 16 22  1  0  0  0  0
 17 16  2  0  0  0  0
 18 20  2  0  0  0  0
 19 17  1  0  0  0  0
 20 16  1  0  0  0  0
 21 19  2  0  0  0  0
 21 18  1  0  0  0  0
 24  1  1  0  0  0  0
 24 23  1  0  0  0  0
 25 26  1  0  0  0  0
 26 27  1  0  0  0  0
 29 27  1  6  0  0  0
 29 33  1  0  0  0  0
 29 30  1  0  0  0  0
 30 28  1  1  0  0  0
 30 34  1  0  0  0  0
 32 34  1  0  0  0  0
 33 32  1  0  0  0  0
 34 31  1  1  0  0  0
M  END
>  <MODEL>
2

>  <REMARK>
 VINA RESULT:      -8.4      4.032      5.686
  Name = 
  6 active torsions:
  status: ('A' for Active; 'I' for Inactive)
    1  A    between atoms: C_1  and  O_19
    2  A    between atoms: C_3  and  C_13
    3  A    between atoms: C_3  and  C_17
    4  A    between atoms: C_12  and  N_28
    5  A    between atoms: C_17  and  O_29
    6  A    between atoms: C_18  and  O_29
                            x       y       z     vdW  Elec       q    Type
                         _______ _______ _______ _____ _____    ______ ____

>  <TORSDO>
F 6

$$$$
=
 OpenBabel11052414023D

 34 38  0  0  1  0  0  0  0  0999 V2000
  185.9400  177.4880  137.0700 C   0  0  0  0  0  0  0  0  0  0  0  0
  188.4730  177.6540  137.0800 C   0  0  1  0  0  3  0  0  0  0  0  0
  187.0690  178.2270  139.0940 C   0  0  0  0  0  0  0  0  0  0  0  0
  189.4880  178.7970  142.0570 C   0  0  0  0  0  1  0  0  0  0  0  0
  188.8710  176.1920  136.9160 C   0  0  0  0  0  1  0  0  0  0  0  0
  189.5640  178.0670  139.0730 C   0  0  0  0  0  2  0  0  0  0  0  0
  187.1250  177.8040  137.7540 C   0  0  0  0  0  0  0  0  0  0  0  0
  188.2540  178.2830  141.3170 C   0  0  1  0  0  0  0  0  0  0  0  0
  185.8360  178.3440  139.7630 C   0  0  0  0  0  0  0  0  0  0  0  0
  184.7120  177.5920  137.7410 C   0  0  0  0  0  3  0  0  0  0  0  0
  189.4980  178.4100  137.7050 O   0  0  0  0  0  0  0  0  0  0  0  0
  187.0620  179.0770  141.8530 C   0  0  0  0  0  2  0  0  0  0  0  0
  185.8110  178.7260  141.1630 N   0  0  0  0  0  0  0  0  0  0  0  0
  188.3340  178.6120  139.8070 C   0  0  2  0  0  3  0  0  0  0  0  0
  184.6630  178.0080  139.0720 C   0  0  0  0  0  3  0  0  0  0  0  0
  182.1620  178.7600  142.0500 C   0  0  0  0  0  0  0  0  0  0  0  0
  182.2180  179.1100  143.4000 C   0  0  0  0  0  3  0  0  0  0  0  0
  184.5890  178.8420  141.9170 C   0  0  0  0  0  0  0  0  0  0  0  0
  183.4540  179.3370  144.0120 C   0  0  0  0  0  3  0  0  0  0  0  0
  183.3400  178.6300  141.3110 C   0  0  0  0  0  3  0  0  0  0  0  0
  184.6330  179.2050  143.2720 C   0  0  0  0  0  3  0  0  0  0  0  0
  180.6140  178.4750  141.2830 Cl  0  0  0  0  0  0  0  0  0  0  0  0
  184.8620  177.0280  134.8870 C   0  0  0  0  0  1  0  0  0  0  0  0
  186.0010  177.0620  135.7380 O   0  0  0  0  0  0  0  0  0  0  0  0
  187.9980  176.9120  141.5900 O   0  0  0  0  0  0  0  0  0  0  0  0
  188.5500  176.5320  142.8240 C   0  0  0  0  0  2  0  0  0  0  0  0
  187.5880  176.8950  143.9360 C   0  0  0  0  0  2  0  0  0  0  0  0
  186.5950  178.3810  146.2190 C   0  0  0  0  0  1  0  0  0  0  0  0
  188.2640  176.7180  145.2910 C   0  0  2  0  0  3  0  0  0  0  0  0
  187.4100  177.1100  146.4930 C   0  0  1  0  0  3  0  0  0  0  0  0
  188.0090  178.1990  148.7350 C   0  0  0  0  0  1  0  0  0  0  0  0
  189.6690  177.9370  146.8570 C   0  0  0  0  0  2  0  0  0  0  0  0
  189.5380  177.5390  145.3940 C   0  0  0  0  0  2  0  0  0  0  0  0
  188.4670  177.3400  147.5650 C   0  0  2  0  0  3  0  0  0  0  0  0
  1 10  2  0  0  0  0
  1  7  1  0  0  0  0
  2  5  1  1  0  0  0
  2 11  1  0  0  0  0
  2  7  1  0  0  0  0
  3  9  1  0  0  0  0
  3 14  1  0  0  0  0
  7  3  2  0  0  0  0
  8 25  1  0  0  0  0
  8 12  1  0  0  0  0
  8  4  1  1  0  0  0
  9 13  1  0  0  0  0
 10 15  1  0  0  0  0
 11  6  1  0  0  0  0
 13 12  1  0  0  0  0
 13 18  1  0  0  0  0
 14  6  1  6  0  0  0
 14  8  1  0  0  0  0
 15  9  2  0  0  0  0
 16 17  1  0  0  0  0
 17 19  2  0  0  0  0
 18 21  2  0  0  0  0
 20 18  1  0  0  0  0
 20 16  2  0  0  0  0
 21 19  1  0  0  0  0
 22 16  1  0  0  0  0
 23 24  1  0  0  0  0
 24  1  1  0  0  0  0
 25 26  1  0  0  0  0
 26 27  1  0  0  0  0
 29 27  1  6  0  0  0
 29 33  1  0  0  0  0
 29 30  1  0  0  0  0
 30 28  1  6  0  0  0
 30 34  1  0  0  0  0
 32 34  1  0  0  0  0
 33 32  1  0  0  0  0
 34 31  1  1  0  0  0
M  END
>  <MODEL>
3

>  <REMARK>
 VINA RESULT:      -8.2      1.890      2.952
  Name = 
  6 active torsions:
  status: ('A' for Active; 'I' for Inactive)
    1  A    between atoms: C_1  and  O_19
    2  A    between atoms: C_3  and  C_13
    3  A    between atoms: C_3  and  C_17
    4  A    between atoms: C_12  and  N_28
    5  A    between atoms: C_17  and  O_29
    6  A    between atoms: C_18  and  O_29
                            x       y       z     vdW  Elec       q    Type
                         _______ _______ _______ _____ _____    ______ ____

>  <TORSDO>
F 6

$$$$
=
 OpenBabel11052414023D

 34 38  0  0  1  0  0  0  0  0999 V2000
  185.5200  173.5640  136.4330 C   0  0  0  0  0  0  0  0  0  0  0  0
  187.8710  173.9880  135.5760 C   0  0  1  0  0  3  0  0  0  0  0  0
  186.5040  175.7700  136.7220 C   0  0  0  0  0  0  0  0  0  0  0  0
  188.8300  178.8030  137.3110 C   0  0  0  0  0  1  0  0  0  0  0  0
  188.6900  173.0680  136.4750 C   0  0  0  0  0  1  0  0  0  0  0  0
  188.9180  175.9770  136.1060 C   0  0  0  0  0  2  0  0  0  0  0  0
  186.5940  174.4490  136.2460 C   0  0  0  0  0  0  0  0  0  0  0  0
  187.7660  177.7530  137.6300 C   0  0  1  0  0  0  0  0  0  0  0  0
  185.3450  176.2220  137.3810 C   0  0  0  0  0  0  0  0  0  0  0  0
  184.3700  174.0110  137.1020 C   0  0  0  0  0  3  0  0  0  0  0  0
  188.6530  175.0570  135.0680 O   0  0  0  0  0  0  0  0  0  0  0  0
  186.4280  178.4900  137.6850 C   0  0  0  0  0  2  0  0  0  0  0  0
  185.3010  177.5720  137.9140 N   0  0  0  0  0  0  0  0  0  0  0  0
  187.6350  176.7280  136.4770 C   0  0  2  0  0  3  0  0  0  0  0  0
  184.2880  175.3210  137.5750 C   0  0  0  0  0  3  0  0  0  0  0  0
  183.0170  178.6460  140.6940 C   0  0  0  0  0  0  0  0  0  0  0  0
  181.9050  179.0840  139.9730 C   0  0  0  0  0  3  0  0  0  0  0  0
  184.1590  178.0940  138.6190 C   0  0  0  0  0  0  0  0  0  0  0  0
  181.9100  179.0210  138.5760 C   0  0  0  0  0  3  0  0  0  0  0  0
  184.1370  178.1500  140.0220 C   0  0  0  0  0  3  0  0  0  0  0  0
  183.0310  178.5260  137.9040 C   0  0  0  0  0  3  0  0  0  0  0  0
  183.0120  178.7250  142.4430 Cl  0  0  0  0  0  0  0  0  0  0  0  0
  184.4790  171.4750  135.6000 C   0  0  0  0  0  1  0  0  0  0  0  0
  185.6160  172.2490  135.9620 O   0  0  0  0  0  0  0  0  0  0  0  0
  187.9670  177.1560  138.9040 O   0  0  0  0  0  0  0  0  0  0  0  0
  188.2570  178.1270  139.8750 C   0  0  0  0  0  2  0  0  0  0  0  0
  189.1110  177.5070  140.9630 C   0  0  0  0  0  2  0  0  0  0  0  0
  190.2040  176.2910  143.3570 C   0  0  0  0  0  1  0  0  0  0  0  0
  188.6840  178.0350  142.3270 C   0  0  2  0  0  3  0  0  0  0  0  0
  189.6420  177.7140  143.4710 C   0  0  1  0  0  3  0  0  0  0  0  0
  189.2340  177.1590  145.9390 C   0  0  0  0  0  1  0  0  0  0  0  0
  187.3660  177.3780  144.2620 C   0  0  0  0  0  2  0  0  0  0  0  0
  187.3310  177.4850  142.7440 C   0  0  0  0  0  2  0  0  0  0  0  0
  188.7380  177.8670  144.6870 C   0  0  2  0  0  3  0  0  0  0  0  0
  1 10  1  0  0  0  0
  2  7  1  0  0  0  0
  2  5  1  1  0  0  0
  3  9  2  0  0  0  0
  7  1  2  0  0  0  0
  7  3  1  0  0  0  0
  8  4  1  6  0  0  0
  8 12  1  0  0  0  0
  8 25  1  0  0  0  0
  9 15  1  0  0  0  0
  9 13  1  0  0  0  0
 10 15  2  0  0  0  0
 11  2  1  0  0  0  0
 11  6  1  0  0  0  0
 12 13  1  0  0  0  0
 13 18  1  0  0  0  0
 14  6  1  1  0  0  0
 14  3  1  0  0  0  0
 14  8  1  0  0  0  0
 16 22  1  0  0  0  0
 17 16  2  0  0  0  0
 18 20  2  0  0  0  0
 19 17  1  0  0  0  0
 20 16  1  0  0  0  0
 21 19  2  0  0  0  0
 21 18  1  0  0  0  0
 23 24  1  0  0  0  0
 24  1  1  0  0  0  0
 25 26  1  0  0  0  0
 26 27  1  0  0  0  0
 29 27  1  6  0  0  0
 29 33  1  0  0  0  0
 29 30  1  0  0  0  0
 30 28  1  6  0  0  0
 30 34  1  0  0  0  0
 32 34  1  0  0  0  0
 33 32  1  0  0  0  0
 34 31  1  1  0  0  0
M  END
>  <MODEL>
4

>  <REMARK>
 VINA RESULT:      -8.2      2.530      4.020
  Name = 
  6 active torsions:
  status: ('A' for Active; 'I' for Inactive)
    1  A    between atoms: C_1  and  O_19
    2  A    between atoms: C_3  and  C_13
    3  A    between atoms: C_3  and  C_17
    4  A    between atoms: C_12  and  N_28
    5  A    between atoms: C_17  and  O_29
    6  A    between atoms: C_18  and  O_29
                            x       y       z     vdW  Elec       q    Type
                         _______ _______ _______ _____ _____    ______ ____

>  <TORSDO>
F 6

$$$$
=
 OpenBabel11052414023D

 34 38  0  0  1  0  0  0  0  0999 V2000
  187.6320  173.4590  135.8430 C   0  0  0  0  0  0  0  0  0  0  0  0
  189.9370  174.5190  135.7540 C   0  0  1  0  0  3  0  0  0  0  0  0
  187.8790  175.8050  136.4390 C   0  0  0  0  0  0  0  0  0  0  0  0
  189.0560  179.2510  137.7410 C   0  0  0  0  0  1  0  0  0  0  0  0
  190.6630  173.7520  136.8540 C   0  0  0  0  0  1  0  0  0  0  0  0
  190.2270  176.6500  136.5970 C   0  0  0  0  0  2  0  0  0  0  0  0
  188.4450  174.5930  136.0030 C   0  0  0  0  0  0  0  0  0  0  0  0
  188.2570  177.9480  137.7080 C   0  0  1  0  0  0  0  0  0  0  0  0
  186.5020  175.9000  136.7140 C   0  0  0  0  0  0  0  0  0  0  0  0
  186.2620  173.5500  136.1290 C   0  0  0  0  0  3  0  0  0  0  0  0
  190.5280  175.7870  135.5210 O   0  0  0  0  0  0  0  0  0  0  0  0
  186.8190  178.3280  137.3560 C   0  0  0  0  0  2  0  0  0  0  0  0
  185.9540  177.1460  137.2190 N   0  0  0  0  0  0  0  0  0  0  0  0
  188.7420  177.0280  136.5620 C   0  0  2  0  0  3  0  0  0  0  0  0
  185.7070  174.7530  136.5660 C   0  0  0  0  0  3  0  0  0  0  0  0
  182.2420  177.5970  136.8640 C   0  0  0  0  0  0  0  0  0  0  0  0
  181.8510  177.6600  138.2020 C   0  0  0  0  0  3  0  0  0  0  0  0
  184.5600  177.3080  137.5430 C   0  0  0  0  0  0  0  0  0  0  0  0
  182.8090  177.5570  139.2150 C   0  0  0  0  0  3  0  0  0  0  0  0
  183.5900  177.4250  136.5350 C   0  0  0  0  0  3  0  0  0  0  0  0
  184.1570  177.3840  138.8860 C   0  0  0  0  0  3  0  0  0  0  0  0
  181.0430  177.7250  135.5950 Cl  0  0  0  0  0  0  0  0  0  0  0  0
  187.4680  171.0380  135.3430 C   0  0  0  0  0  1  0  0  0  0  0  0
  188.2010  172.2540  135.4140 O   0  0  0  0  0  0  0  0  0  0  0  0
  188.2210  177.3100  138.9770 O   0  0  0  0  0  0  0  0  0  0  0  0
  188.4300  178.2340  140.0130 C   0  0  0  0  0  2  0  0  0  0  0  0
  189.2860  177.5950  141.0880 C   0  0  0  0  0  2  0  0  0  0  0  0
  190.4170  176.3620  143.4550 C   0  0  0  0  0  1  0  0  0  0  0  0
  188.8510  178.0880  142.4630 C   0  0  2  0  0  3  0  0  0  0  0  0
  189.8220  177.7700  143.5970 C   0  0  1  0  0  3  0  0  0  0  0  0
  189.4360  177.1600  146.0570 C   0  0  0  0  0  1  0  0  0  0  0  0
  187.5580  177.3640  144.3900 C   0  0  0  0  0  2  0  0  0  0  0  0
  187.5140  177.4980  142.8750 C   0  0  0  0  0  2  0  0  0  0  0  0
  188.9190  177.8790  144.8200 C   0  0  2  0  0  3  0  0  0  0  0  0
  1  7  2  0  0  0  0
  1 10  1  0  0  0  0
  2  7  1  0  0  0  0
  2  5  1  1  0  0  0
  3 14  1  0  0  0  0
  3  9  2  0  0  0  0
  7  3  1  0  0  0  0
  8  4  1  1  0  0  0
  8 25  1  0  0  0  0
  9 13  1  0  0  0  0
 10 15  2  0  0  0  0
 11  2  1  0  0  0  0
 11  6  1  0  0  0  0
 12  8  1  0  0  0  0
 13 12  1  0  0  0  0
 13 18  1  0  0  0  0
 14  6  1  1  0  0  0
 14  8  1  0  0  0  0
 15  9  1  0  0  0  0
 16 17  1  0  0  0  0
 17 19  2  0  0  0  0
 18 21  2  0  0  0  0
 20 16  2  0  0  0  0
 20 18  1  0  0  0  0
 21 19  1  0  0  0  0
 22 16  1  0  0  0  0
 23 24  1  0  0  0  0
 24  1  1  0  0  0  0
 25 26  1  0  0  0  0
 26 27  1  0  0  0  0
 29 27  1  6  0  0  0
 29 33  1  0  0  0  0
 29 30  1  0  0  0  0
 30 28  1  6  0  0  0
 30 34  1  0  0  0  0
 32 34  1  0  0  0  0
 33 32  1  0  0  0  0
 34 31  1  1  0  0  0
M  END
>  <MODEL>
5

>  <REMARK>
 VINA RESULT:      -7.8      2.777      4.051
  Name = 
  6 active torsions:
  status: ('A' for Active; 'I' for Inactive)
    1  A    between atoms: C_1  and  O_19
    2  A    between atoms: C_3  and  C_13
    3  A    between atoms: C_3  and  C_17
    4  A    between atoms: C_12  and  N_28
    5  A    between atoms: C_17  and  O_29
    6  A    between atoms: C_18  and  O_29
                            x       y       z     vdW  Elec       q    Type
                         _______ _______ _______ _____ _____    ______ ____

>  <TORSDO>
F 6

$$$$
=
 OpenBabel11052414023D

 34 38  0  0  1  0  0  0  0  0999 V2000
  180.7490  180.3260  135.8760 C   0  0  0  0  0  0  0  0  0  0  0  0
  180.0840  181.7280  137.8860 C   0  0  1  0  0  3  0  0  0  0  0  0
  180.7430  179.3020  138.0830 C   0  0  0  0  0  0  0  0  0  0  0  0
  181.0270  178.4900  141.8540 C   0  0  0  0  0  1  0  0  0  0  0  0
  181.2140  182.7500  137.9270 C   0  0  0  0  0  1  0  0  0  0  0  0
  180.3590  180.8530  140.0060 C   0  0  0  0  0  2  0  0  0  0  0  0
  180.5220  180.4210  137.2600 C   0  0  0  0  0  0  0  0  0  0  0  0
  181.4130  178.4960  140.3750 C   0  0  1  0  0  0  0  0  0  0  0  0
  181.1860  178.0820  137.5390 C   0  0  0  0  0  0  0  0  0  0  0  0
  181.2020  179.1140  135.3360 C   0  0  0  0  0  3  0  0  0  0  0  0
  179.4800  181.5620  139.1590 O   0  0  0  0  0  0  0  0  0  0  0  0
  181.1940  177.0730  139.8610 C   0  0  0  0  0  2  0  0  0  0  0  0
  181.4620  176.9600  138.4190 N   0  0  0  0  0  0  0  0  0  0  0  0
  180.4530  179.3920  139.5540 C   0  0  2  0  0  3  0  0  0  0  0  0
  181.4230  178.0090  136.1580 C   0  0  0  0  0  3  0  0  0  0  0  0
  183.7550  174.1380  137.4810 C   0  0  0  0  0  0  0  0  0  0  0  0
  182.8470  173.2190  136.9530 C   0  0  0  0  0  3  0  0  0  0  0  0
  181.9380  175.6900  137.9350 C   0  0  0  0  0  0  0  0  0  0  0  0
  181.4850  173.5330  136.9040 C   0  0  0  0  0  3  0  0  0  0  0  0
  183.3050  175.3680  137.9670 C   0  0  0  0  0  3  0  0  0  0  0  0
  181.0350  174.7630  137.3910 C   0  0  0  0  0  3  0  0  0  0  0  0
  185.4600  173.7460  137.5430 Cl  0  0  0  0  0  0  0  0  0  0  0  0
  179.2430  181.8180  134.5940 C   0  0  0  0  0  1  0  0  0  0  0  0
  180.5330  181.4440  135.0610 O   0  0  0  0  0  0  0  0  0  0  0  0
  182.7860  178.8030  140.1810 O   0  0  0  0  0  0  0  0  0  0  0  0
  183.6080  177.9130  140.8910 C   0  0  0  0  0  2  0  0  0  0  0  0
  184.6910  178.6940  141.6060 C   0  0  0  0  0  2  0  0  0  0  0  0
  184.6960  180.0610  144.1620 C   0  0  0  0  0  1  0  0  0  0  0  0
  185.1420  177.9400  142.8520 C   0  0  2  0  0  3  0  0  0  0  0  0
  184.6500  178.5270  144.1720 C   0  0  1  0  0  3  0  0  0  0  0  0
  185.7460  178.6920  146.4830 C   0  0  0  0  0  1  0  0  0  0  0  0
  186.9800  177.8800  144.4430 C   0  0  0  0  0  2  0  0  0  0  0  0
  186.6560  177.8810  142.9560 C   0  0  0  0  0  2  0  0  0  0  0  0
  185.6460  177.9410  145.1640 C   0  0  2  0  0  3  0  0  0  0  0  0
  1  7  1  0  0  0  0
  2  5  1  1  0  0  0
  2 11  1  0  0  0  0
  3 14  1  0  0  0  0
  7  2  1  0  0  0  0
  7  3  2  0  0  0  0
  8  4  1  1  0  0  0
  9  3  1  0  0  0  0
  9 13  1  0  0  0  0
 10  1  2  0  0  0  0
 10 15  1  0  0  0  0
 11  6  1  0  0  0  0
 12  8  1  0  0  0  0
 13 12  1  0  0  0  0
 14  6  1  1  0  0  0
 14  8  1  0  0  0  0
 15  9  2  0  0  0  0
 16 22  1  0  0  0  0
 16 20  1  0  0  0  0
 17 16  2  0  0  0  0
 18 20  2  0  0  0  0
 18 13  1  0  0  0  0
 19 17  1  0  0  0  0
 19 21  2  0  0  0  0
 21 18  1  0  0  0  0
 23 24  1  0  0  0  0
 24  1  1  0  0  0  0
 25  8  1  0  0  0  0
 25 26  1  0  0  0  0
 26 27  1  0  0  0  0
 29 27  1  6  0  0  0
 29 33  1  0  0  0  0
 29 30  1  0  0  0  0
 30 28  1  6  0  0  0
 30 34  1  0  0  0  0
 32 34  1  0  0  0  0
 33 32  1  0  0  0  0
 34 31  1  1  0  0  0
M  END
>  <MODEL>
6

>  <REMARK>
 VINA RESULT:      -7.7      5.385      8.420
  Name = 
  6 active torsions:
  status: ('A' for Active; 'I' for Inactive)
    1  A    between atoms: C_1  and  O_19
    2  A    between atoms: C_3  and  C_13
    3  A    between atoms: C_3  and  C_17
    4  A    between atoms: C_12  and  N_28
    5  A    between atoms: C_17  and  O_29
    6  A    between atoms: C_18  and  O_29
                            x       y       z     vdW  Elec       q    Type
                         _______ _______ _______ _____ _____    ______ ____

>  <TORSDO>
F 6

$$$$
=
 OpenBabel11052414023D

 34 38  0  0  1  0  0  0  0  0999 V2000
  185.9700  178.3200  138.9960 C   0  0  0  0  0  0  0  0  0  0  0  0
  185.8450  177.0250  136.8160 C   0  0  1  0  0  3  0  0  0  0  0  0
  183.7910  177.6800  138.1230 C   0  0  0  0  0  0  0  0  0  0  0  0
  180.7170  176.8320  135.9350 C   0  0  0  0  0  1  0  0  0  0  0  0
  186.3830  178.0520  135.8260 C   0  0  0  0  0  1  0  0  0  0  0  0
  183.7850  176.6740  135.8350 C   0  0  0  0  0  2  0  0  0  0  0  0
  185.1930  177.6800  138.0160 C   0  0  0  0  0  0  0  0  0  0  0  0
  181.6020  177.6490  136.8760 C   0  0  1  0  0  0  0  0  0  0  0  0
  183.1500  178.3100  139.2070 C   0  0  0  0  0  0  0  0  0  0  0  0
  185.3300  178.9580  140.0690 C   0  0  0  0  0  3  0  0  0  0  0  0
  185.0120  176.0690  136.1800 O   0  0  0  0  0  0  0  0  0  0  0  0
  180.9060  177.6480  138.2380 C   0  0  0  0  0  2  0  0  0  0  0  0
  181.7000  178.3450  139.2620 N   0  0  0  0  0  0  0  0  0  0  0  0
  182.9660  176.9530  137.0990 C   0  0  2  0  0  3  0  0  0  0  0  0
  183.9390  178.9590  140.1690 C   0  0  0  0  0  3  0  0  0  0  0  0
  180.1260  179.0150  142.6060 C   0  0  0  0  0  0  0  0  0  0  0  0
  179.5330  180.2570  142.3790 C   0  0  0  0  0  3  0  0  0  0  0  0
  180.9770  178.9920  140.3280 C   0  0  0  0  0  0  0  0  0  0  0  0
  179.6490  180.8680  141.1270 C   0  0  0  0  0  3  0  0  0  0  0  0
  180.8420  178.3830  141.5860 C   0  0  0  0  0  3  0  0  0  0  0  0
  180.3660  180.2360  140.1060 C   0  0  0  0  0  3  0  0  0  0  0  0
  179.9810  178.2490  144.1740 Cl  0  0  0  0  0  0  0  0  0  0  0  0
  188.2300  178.2520  140.0100 C   0  0  0  0  0  1  0  0  0  0  0  0
  187.3650  178.3210  138.8830 O   0  0  0  0  0  0  0  0  0  0  0  0
  181.7130  179.0040  136.4660 O   0  0  0  0  0  0  0  0  0  0  0  0
  180.5940  179.3970  135.7140 C   0  0  0  0  0  2  0  0  0  0  0  0
  179.9190  180.5700  136.3970 C   0  0  0  0  0  2  0  0  0  0  0  0
  179.1500  182.9710  137.8270 C   0  0  0  0  0  1  0  0  0  0  0  0
  180.8040  181.8080  136.3020 C   0  0  2  0  0  3  0  0  0  0  0  0
  180.6250  182.8140  137.4360 C   0  0  1  0  0  3  0  0  0  0  0  0
  180.7200  185.3750  137.4790 C   0  0  0  0  0  1  0  0  0  0  0  0
  180.8040  184.0420  135.3430 C   0  0  0  0  0  2  0  0  0  0  0  0
  180.5600  182.5760  135.0150 C   0  0  0  0  0  2  0  0  0  0  0  0
  181.1810  184.0880  136.8120 C   0  0  2  0  0  3  0  0  0  0  0  0
  1 10  1  0  0  0  0
  2  5  1  6  0  0  0
  2  7  1  0  0  0  0
  3  9  2  0  0  0  0
  6 11  1  0  0  0  0
  7  3  1  0  0  0  0
  7  1  2  0  0  0  0
  8  4  1  6  0  0  0
  8 14  1  0  0  0  0
  8 12  1  0  0  0  0
  9 13  1  0  0  0  0
  9 15  1  0  0  0  0
 10 15  2  0  0  0  0
 11  2  1  0  0  0  0
 12 13  1  0  0  0  0
 13 18  1  0  0  0  0
 14  6  1  6  0  0  0
 14  3  1  0  0  0  0
 16 22  1  0  0  0  0
 17 16  1  0  0  0  0
 18 20  1  0  0  0  0
 19 17  2  0  0  0  0
 20 16  2  0  0  0  0
 21 18  2  0  0  0  0
 21 19  1  0  0  0  0
 24  1  1  0  0  0  0
 24 23  1  0  0  0  0
 25  8  1  0  0  0  0
 26 27  1  0  0  0  0
 26 25  1  0  0  0  0
 29 27  1  1  0  0  0
 29 30  1  0  0  0  0
 30 28  1  6  0  0  0
 32 34  1  0  0  0  0
 33 32  1  0  0  0  0
 33 29  1  0  0  0  0
 34 30  1  0  0  0  0
 34 31  1  1  0  0  0
M  END
>  <MODEL>
7

>  <REMARK>
 VINA RESULT:      -7.7      4.918      9.215
  Name = 
  6 active torsions:
  status: ('A' for Active; 'I' for Inactive)
    1  A    between atoms: C_1  and  O_19
    2  A    between atoms: C_3  and  C_13
    3  A    between atoms: C_3  and  C_17
    4  A    between atoms: C_12  and  N_28
    5  A    between atoms: C_17  and  O_29
    6  A    between atoms: C_18  and  O_29
                            x       y       z     vdW  Elec       q    Type
                         _______ _______ _______ _____ _____    ______ ____

>  <TORSDO>
F 6

$$$$
=
 OpenBabel11052414023D

 34 38  0  0  1  0  0  0  0  0999 V2000
  188.3990  177.9100  142.2520 C   0  0  0  0  0  0  0  0  0  0  0  0
  186.2000  178.8610  141.4110 C   0  0  1  0  0  3  0  0  0  0  0  0
  187.9350  177.8820  139.8630 C   0  0  0  0  0  0  0  0  0  0  0  0
  186.3490  177.6730  136.3430 C   0  0  0  0  0  1  0  0  0  0  0  0
  185.1990  177.8870  142.0200 C   0  0  0  0  0  1  0  0  0  0  0  0
  185.6270  178.5710  139.1920 C   0  0  0  0  0  2  0  0  0  0  0  0
  187.5500  178.2150  141.1750 C   0  0  0  0  0  0  0  0  0  0  0  0
  187.1510  177.2200  137.5620 C   0  0  1  0  0  0  0  0  0  0  0  0
  189.1660  177.2480  139.6120 C   0  0  0  0  0  0  0  0  0  0  0  0
  189.6210  177.2670  142.0020 C   0  0  0  0  0  3  0  0  0  0  0  0
  185.6770  179.4980  140.2560 O   0  0  0  0  0  0  0  0  0  0  0  0
  188.6200  177.2140  137.1400 C   0  0  0  0  0  2  0  0  0  0  0  0
  189.5130  176.8630  138.2560 N   0  0  0  0  0  0  0  0  0  0  0  0
  187.0470  178.2530  138.7100 C   0  0  2  0  0  3  0  0  0  0  0  0
  189.9950  176.9360  140.7000 C   0  0  0  0  0  3  0  0  0  0  0  0
  191.9430  174.3140  136.9520 C   0  0  0  0  0  0  0  0  0  0  0  0
  193.1590  174.8860  137.3300 C   0  0  0  0  0  3  0  0  0  0  0  0
  190.7440  176.1920  137.9280 C   0  0  0  0  0  0  0  0  0  0  0  0
  193.1740  176.1050  138.0140 C   0  0  0  0  0  3  0  0  0  0  0  0
  190.7410  174.9610  137.2520 C   0  0  0  0  0  3  0  0  0  0  0  0
  191.9720  176.7520  138.3130 C   0  0  0  0  0  3  0  0  0  0  0  0
  191.9220  172.7880  136.0940 Cl  0  0  0  0  0  0  0  0  0  0  0  0
  188.0800  177.3170  144.6360 C   0  0  0  0  0  1  0  0  0  0  0  0
  188.0100  178.2390  143.5560 O   0  0  0  0  0  0  0  0  0  0  0  0
  186.8240  175.8950  137.9560 O   0  0  0  0  0  0  0  0  0  0  0  0
  186.2890  175.1670  136.8810 C   0  0  0  0  0  2  0  0  0  0  0  0
  186.3510  173.6870  137.1990 C   0  0  0  0  0  2  0  0  0  0  0  0
  185.0130  171.8690  135.3800 C   0  0  0  0  0  1  0  0  0  0  0  0
  184.9600  173.1700  137.5520 C   0  0  2  0  0  3  0  0  0  0  0  0
  184.5550  171.8800  136.8440 C   0  0  1  0  0  3  0  0  0  0  0  0
  182.2970  171.0560  135.9530 C   0  0  0  0  0  1  0  0  0  0  0  0
  182.6450  173.3870  136.8420 C   0  0  0  0  0  2  0  0  0  0  0  0
  183.8820  174.1880  137.2230 C   0  0  0  0  0  2  0  0  0  0  0  0
  183.0360  171.9260  136.9580 C   0  0  2  0  0  3  0  0  0  0  0  0
  1 24  1  0  0  0  0
  2  5  1  6  0  0  0
  3  7  1  0  0  0  0
  6 11  1  0  0  0  0
  7  2  1  0  0  0  0
  7  1  2  0  0  0  0
  8  4  1  6  0  0  0
  8 25  1  0  0  0  0
  8 14  1  0  0  0  0
  9  3  2  0  0  0  0
  9 15  1  0  0  0  0
 10  1  1  0  0  0  0
 11  2  1  0  0  0  0
 12  8  1  0  0  0  0
 12 13  1  0  0  0  0
 13  9  1  0  0  0  0
 14  6  1  1  0  0  0
 14  3  1  0  0  0  0
 15 10  2  0  0  0  0
 16 20  2  0  0  0  0
 16 17  1  0  0  0  0
 17 19  2  0  0  0  0
 18 13  1  0  0  0  0
 18 21  2  0  0  0  0
 19 21  1  0  0  0  0
 20 18  1  0  0  0  0
 22 16  1  0  0  0  0
 24 23  1  0  0  0  0
 26 27  1  0  0  0  0
 26 25  1  0  0  0  0
 29 27  1  6  0  0  0
 30 28  1  6  0  0  0
 30 34  1  0  0  0  0
 30 29  1  0  0  0  0
 32 34  1  0  0  0  0
 32 33  1  0  0  0  0
 33 29  1  0  0  0  0
 34 31  1  6  0  0  0
M  END
>  <MODEL>
8

>  <REMARK>
 VINA RESULT:      -7.6      3.844      8.452
  Name = 
  6 active torsions:
  status: ('A' for Active; 'I' for Inactive)
    1  A    between atoms: C_1  and  O_19
    2  A    between atoms: C_3  and  C_13
    3  A    between atoms: C_3  and  C_17
    4  A    between atoms: C_12  and  N_28
    5  A    between atoms: C_17  and  O_29
    6  A    between atoms: C_18  and  O_29
                            x       y       z     vdW  Elec       q    Type
                         _______ _______ _______ _____ _____    ______ ____

>  <TORSDO>
F 6

$$$$
=
 OpenBabel11052414023D

 34 38  0  0  1  0  0  0  0  0999 V2000
  184.1990  178.4760  142.2240 C   0  0  0  0  0  0  0  0  0  0  0  0
  183.5530  179.1120  139.8520 C   0  0  1  0  0  3  0  0  0  0  0  0
  185.9350  178.6280  140.5250 C   0  0  0  0  0  0  0  0  0  0  0  0
  188.0480  178.5300  137.2880 C   0  0  0  0  0  1  0  0  0  0  0  0
  182.7010  177.9170  139.4420 C   0  0  0  0  0  1  0  0  0  0  0  0
  185.1400  178.9710  138.1800 C   0  0  0  0  0  2  0  0  0  0  0  0
  184.5830  178.7430  140.8990 C   0  0  0  0  0  0  0  0  0  0  0  0
  187.5480  178.0950  138.6650 C   0  0  1  0  0  0  0  0  0  0  0  0
  186.9130  178.2520  141.4650 C   0  0  0  0  0  0  0  0  0  0  0  0
  185.1730  178.0890  143.1560 C   0  0  0  0  0  3  0  0  0  0  0  0
  184.1120  179.7700  138.7260 O   0  0  0  0  0  0  0  0  0  0  0  0
  188.6760  178.3920  139.6520 C   0  0  0  0  0  2  0  0  0  0  0  0
  188.2910  178.0830  141.0390 N   0  0  0  0  0  0  0  0  0  0  0  0
  186.3490  178.9610  139.1210 C   0  0  2  0  0  3  0  0  0  0  0  0
  186.5110  177.9720  142.7790 C   0  0  0  0  0  3  0  0  0  0  0  0
  191.1260  178.2220  143.4980 C   0  0  0  0  0  0  0  0  0  0  0  0
  191.4050  176.8650  143.6620 C   0  0  0  0  0  3  0  0  0  0  0  0
  189.3400  177.6790  141.9390 C   0  0  0  0  0  0  0  0  0  0  0  0
  190.6620  175.9100  142.9610 C   0  0  0  0  0  3  0  0  0  0  0  0
  190.1020  178.6280  142.6390 C   0  0  0  0  0  3  0  0  0  0  0  0
  189.6360  176.3160  142.1030 C   0  0  0  0  0  3  0  0  0  0  0  0
  192.0550  179.4190  144.3760 Cl  0  0  0  0  0  0  0  0  0  0  0  0
  182.4380  179.0030  143.8850 C   0  0  0  0  0  1  0  0  0  0  0  0
  182.8520  178.5870  142.5900 O   0  0  0  0  0  0  0  0  0  0  0  0
  187.2970  176.6970  138.7260 O   0  0  0  0  0  0  0  0  0  0  0  0
  187.7340  176.0550  137.5570 C   0  0  0  0  0  2  0  0  0  0  0  0
  186.7790  174.9280  137.2180 C   0  0  0  0  0  2  0  0  0  0  0  0
  184.5980  173.0340  136.9800 C   0  0  0  0  0  1  0  0  0  0  0  0
  185.3440  175.4420  137.2170 C   0  0  2  0  0  3  0  0  0  0  0  0
  184.2890  174.4060  137.5930 C   0  0  1  0  0  3  0  0  0  0  0  0
  181.8910  174.0310  136.7700 C   0  0  0  0  0  1  0  0  0  0  0  0
  183.4500  175.7060  135.7160 C   0  0  0  0  0  2  0  0  0  0  0  0
  184.9410  175.9780  135.8540 C   0  0  0  0  0  2  0  0  0  0  0  0
  183.0260  175.0170  136.9990 C   0  0  2  0  0  3  0  0  0  0  0  0
  1 24  1  0  0  0  0
  1 10  1  0  0  0  0
  2  5  1  6  0  0  0
  2  7  1  0  0  0  0
  3  7  1  0  0  0  0
  3  9  2  0  0  0  0
  6 11  1  0  0  0  0
  7  1  2  0  0  0  0
  8  4  1  6  0  0  0
  8 25  1  0  0  0  0
  8 14  1  0  0  0  0
  8 12  1  0  0  0  0
  9 15  1  0  0  0  0
 11  2  1  0  0  0  0
 12 13  1  0  0  0  0
 13  9  1  0  0  0  0
 13 18  1  0  0  0  0
 14  6  1  6  0  0  0
 14  3  1  0  0  0  0
 15 10  2  0  0  0  0
 16 17  1  0  0  0  0
 16 22  1  0  0  0  0
 18 21  2  0  0  0  0
 18 20  1  0  0  0  0
 19 17  2  0  0  0  0
 20 16  2  0  0  0  0
 21 19  1  0  0  0  0
 24 23  1  0  0  0  0
 26 25  1  0  0  0  0
 27 26  1  0  0  0  0
 29 27  1  6  0  0  0
 29 30  1  0  0  0  0
 30 28  1  6  0  0  0
 32 33  1  0  0  0  0
 32 34  1  0  0  0  0
 33 29  1  0  0  0  0
 34 31  1  6  0  0  0
 34 30  1  0  0  0  0
M  END
>  <MODEL>
9

>  <REMARK>
 VINA RESULT:      -7.5      3.356      7.925
  Name = 
  6 active torsions:
  status: ('A' for Active; 'I' for Inactive)
    1  A    between atoms: C_1  and  O_19
    2  A    between atoms: C_3  and  C_13
    3  A    between atoms: C_3  and  C_17
    4  A    between atoms: C_12  and  N_28
    5  A    between atoms: C_17  and  O_29
    6  A    between atoms: C_18  and  O_29
                            x       y       z     vdW  Elec       q    Type
                         _______ _______ _______ _____ _____    ______ ____

>  <TORSDO>
F 6

$$$$
