=
 OpenBabel11052412343D

 30 34  0  0  1  0  0  0  0  0999 V2000
  186.2280  177.8140  143.8270 C   0  0  0  0  0  0  0  0  0  0  0  0
  185.4700  177.8240  146.3080 C   0  0  1  0  0  3  0  0  0  0  0  0
  189.9530  178.1170  146.3150 C   0  0  0  0  0  3  0  0  0  0  0  0
  187.4020  177.7390  143.2130 C   0  0  0  0  0  0  0  0  0  0  0  0
  185.3090  178.4460  143.0190 C   0  0  0  0  0  3  0  0  0  0  0  0
  187.3780  178.2960  141.9940 N   0  0  0  0  0  0  0  0  0  0  0  0
  190.5180  178.2190  145.1010 C   0  0  0  0  0  0  0  0  0  0  0  0
  186.0800  178.7150  141.8720 C   0  0  0  0  0  0  0  0  0  0  0  0
  185.7630  179.1370  147.0420 C   0  0  0  0  0  2  0  0  0  0  0  0
  184.1460  177.8100  145.8650 O   0  0  0  0  0  1  0  0  0  0  0  0
  188.6390  177.4130  146.5490 C   0  0  1  0  0  3  0  0  0  0  0  0
  187.9310  178.0020  147.7760 C   0  0  0  0  0  2  0  0  0  0  0  0
  186.4200  177.5780  145.1730 C   0  0  0  0  0  0  0  0  0  0  0  0
  188.4140  177.5190  144.0690 N   0  0  0  0  0  0  0  0  0  0  0  0
  191.7430  178.8620  144.9790 O   0  0  0  0  0  1  0  0  0  0  0  0
  189.8570  177.6530  143.8660 C   0  0  2  0  0  3  0  0  0  0  0  0
  187.2290  179.3240  147.4590 C   0  0  0  0  0  2  0  0  0  0  0  0
  187.8140  177.4140  145.2840 C   0  0  0  0  0  0  0  0  0  0  0  0
  183.9370  177.8520  140.1080 O   0  0  0  0  0  0  0  0  0  0  0  0
  185.5540  179.4220  140.7440 N   0  0  0  0  0  2  0  0  0  0  0  0
  183.8240  179.9430  138.9880 C   0  0  0  0  0  1  0  0  0  0  0  0
  184.4160  179.0110  139.9820 C   0  0  0  0  0  0  0  0  0  0  0  0
  191.4780  175.7860  144.3710 N   0  0  0  0  0  2  0  0  0  0  0  0
  190.4680  176.3300  143.5210 C   0  0  0  0  0  0  0  0  0  0  0  0
  190.0640  175.6840  142.5160 O   0  0  0  0  0  0  0  0  0  0  0  0
  192.0950  174.4920  144.1220 C   0  0  0  0  0  2  0  0  0  0  0  0
  192.7170  174.0410  145.2720 F   0  0  0  0  0  0  0  0  0  0  0  0
  188.0150  178.2280  139.6280 C   0  0  0  0  0  2  0  0  0  0  0  0
  188.7490  177.1250  140.3460 C   0  0  0  0  0  2  0  0  0  0  0  0
  188.4920  178.4450  141.0570 C   0  0  0  0  0  3  0  0  0  0  0  0
  1 13  1  0  0  0  0
  2 10  1  6  0  0  0
  2  9  1  0  0  0  0
  4  1  2  0  0  0  0
  4 14  1  0  0  0  0
  5  1  1  0  0  0  0
  6  4  1  0  0  0  0
  7  3  2  0  0  0  0
  8  6  1  0  0  0  0
  8  5  2  0  0  0  0
  9 17  1  0  0  0  0
 11  3  1  6  0  0  0
 11 12  1  0  0  0  0
 13 18  2  0  0  0  0
 13  2  1  0  0  0  0
 14 18  1  0  0  0  0
 15  7  1  0  0  0  0
 16 24  1  1  0  0  0
 16 14  1  0  0  0  0
 16  7  1  0  0  0  0
 17 12  1  0  0  0  0
 18 11  1  0  0  0  0
 20  8  1  0  0  0  0
 21 22  1  0  0  0  0
 22 19  2  0  0  0  0
 22 20  1  0  0  0  0
 24 23  1  0  0  0  0
 25 24  2  0  0  0  0
 26 23  1  0  0  0  0
 26 27  1  0  0  0  0
 28 29  1  0  0  0  0
 28 30  1  0  0  0  0
 29 30  1  0  0  0  0
 30  6  1  0  0  0  0
M  END
>  <MODEL>
1

>  <REMARK>
 VINA RESULT:      -8.1      0.000      0.000
  Name = 
  4 active torsions:
  status: ('A' for Active; 'I' for Inactive)
    1  A    between atoms: N_7  and  C_16
    2  A    between atoms: N_8  and  C_30
    3  A    between atoms: N_9  and  C_12
    4  A    between atoms: C_10  and  C_25
                            x       y       z     vdW  Elec       q    Type
                         _______ _______ _______ _____ _____    ______ ____

>  <TORSDO>
F 4

$$$$
=
 OpenBabel11052412343D

 30 34  0  0  1  0  0  0  0  0999 V2000
  187.4130  178.3510  139.5650 C   0  0  0  0  0  0  0  0  0  0  0  0
  185.1440  178.6140  138.3340 C   0  0  1  0  0  3  0  0  0  0  0  0
  187.2550  175.1260  136.4440 C   0  0  0  0  0  3  0  0  0  0  0  0
  188.4980  177.6100  139.3700 C   0  0  0  0  0  0  0  0  0  0  0  0
  187.3060  178.6960  140.8930 C   0  0  0  0  0  3  0  0  0  0  0  0
  189.1810  177.3960  140.5030 N   0  0  0  0  0  0  0  0  0  0  0  0
  188.4170  174.7840  137.0230 C   0  0  0  0  0  0  0  0  0  0  0  0
  188.4510  178.0830  141.4370 C   0  0  0  0  0  0  0  0  0  0  0  0
  184.1870  177.4350  138.5390 C   0  0  0  0  0  2  0  0  0  0  0  0
  184.8270  179.6460  139.2190 O   0  0  0  0  0  1  0  0  0  0  0  0
  186.7140  176.5350  136.4670 C   0  0  1  0  0  3  0  0  0  0  0  0
  185.1830  176.5180  136.3720 C   0  0  0  0  0  2  0  0  0  0  0  0
  186.5840  178.2120  138.4700 C   0  0  0  0  0  0  0  0  0  0  0  0
  188.4430  176.9160  138.2210 N   0  0  0  0  0  0  0  0  0  0  0  0
  188.8540  173.4680  136.9330 O   0  0  0  0  0  1  0  0  0  0  0  0
  189.2610  175.7910  137.7680 C   0  0  2  0  0  3  0  0  0  0  0  0
  184.5240  176.1860  137.7120 C   0  0  0  0  0  2  0  0  0  0  0  0
  187.2640  177.2860  137.6560 C   0  0  0  0  0  0  0  0  0  0  0  0
  187.7220  176.1140  143.4470 O   0  0  0  0  0  0  0  0  0  0  0  0
  188.7530  178.1260  142.8360 N   0  0  0  0  0  2  0  0  0  0  0  0
  189.0470  177.1340  145.1330 C   0  0  0  0  0  1  0  0  0  0  0  0
  188.4780  177.0720  143.7620 C   0  0  0  0  0  0  0  0  0  0  0  0
  191.6610  175.6480  137.0000 N   0  0  0  0  0  2  0  0  0  0  0  0
  190.3790  176.2670  136.8920 C   0  0  0  0  0  0  0  0  0  0  0  0
  190.1770  177.1750  136.0400 O   0  0  0  0  0  0  0  0  0  0  0  0
  192.7860  176.0320  136.1610 C   0  0  0  0  0  2  0  0  0  0  0  0
  193.6720  176.8030  136.8900 F   0  0  0  0  0  0  0  0  0  0  0  0
  191.3780  177.3050  141.5870 C   0  0  0  0  0  2  0  0  0  0  0  0
  191.5880  177.3140  140.0940 C   0  0  0  0  0  2  0  0  0  0  0  0
  190.3880  176.5870  140.6800 C   0  0  0  0  0  3  0  0  0  0  0  0
  1  5  1  0  0  0  0
  2 13  1  0  0  0  0
  2  9  1  0  0  0  0
  2 10  1  1  0  0  0
  3 11  1  0  0  0  0
  3  7  2  0  0  0  0
  4  1  2  0  0  0  0
  4  6  1  0  0  0  0
  5  8  2  0  0  0  0
  6 30  1  0  0  0  0
  6  8  1  0  0  0  0
  7 16  1  0  0  0  0
  8 20  1  0  0  0  0
 11 12  1  1  0  0  0
 11 18  1  0  0  0  0
 12 17  1  0  0  0  0
 13  1  1  0  0  0  0
 14  4  1  0  0  0  0
 15  7  1  0  0  0  0
 16 24  1  6  0  0  0
 16 14  1  0  0  0  0
 17  9  1  0  0  0  0
 18 14  1  0  0  0  0
 18 13  2  0  0  0  0
 19 22  2  0  0  0  0
 20 22  1  0  0  0  0
 22 21  1  0  0  0  0
 24 23  1  0  0  0  0
 25 24  2  0  0  0  0
 26 27  1  0  0  0  0
 26 23  1  0  0  0  0
 29 30  1  0  0  0  0
 29 28  1  0  0  0  0
 30 28  1  0  0  0  0
M  END
>  <MODEL>
2

>  <REMARK>
 VINA RESULT:      -7.7      3.791      7.195
  Name = 
  4 active torsions:
  status: ('A' for Active; 'I' for Inactive)
    1  A    between atoms: N_7  and  C_16
    2  A    between atoms: N_8  and  C_30
    3  A    between atoms: N_9  and  C_12
    4  A    between atoms: C_10  and  C_25
                            x       y       z     vdW  Elec       q    Type
                         _______ _______ _______ _____ _____    ______ ____

>  <TORSDO>
F 4

$$$$
=
 OpenBabel11052412343D

 30 34  0  0  1  0  0  0  0  0999 V2000
  187.8060  178.2060  139.9310 C   0  0  0  0  0  0  0  0  0  0  0  0
  188.3440  178.4380  142.4580 C   0  0  1  0  0  3  0  0  0  0  0  0
  183.8690  178.2940  142.0880 C   0  0  0  0  0  3  0  0  0  0  0  0
  186.6930  178.2530  139.2080 C   0  0  0  0  0  0  0  0  0  0  0  0
  188.7630  177.4620  139.2800 C   0  0  0  0  0  3  0  0  0  0  0  0
  186.7990  177.5680  138.0610 N   0  0  0  0  0  0  0  0  0  0  0  0
  183.4080  178.0800  140.8460 C   0  0  0  0  0  0  0  0  0  0  0  0
  188.0840  177.0970  138.1020 C   0  0  0  0  0  0  0  0  0  0  0  0
  187.9340  177.2210  143.2950 C   0  0  0  0  0  2  0  0  0  0  0  0
  189.7010  178.3610  142.1380 O   0  0  0  0  0  1  0  0  0  0  0  0
  185.1860  178.9750  142.3660 C   0  0  1  0  0  3  0  0  0  0  0  0
  185.7590  178.4980  143.7070 C   0  0  0  0  0  2  0  0  0  0  0  0
  187.5070  178.5910  141.2230 C   0  0  0  0  0  0  0  0  0  0  0  0
  185.6210  178.5960  139.9420 N   0  0  0  0  0  0  0  0  0  0  0  0
  182.1720  177.4680  140.6800 O   0  0  0  0  0  1  0  0  0  0  0  0
  184.1970  178.4890  139.6240 C   0  0  2  0  0  3  0  0  0  0  0  0
  186.4300  177.1280  143.5940 C   0  0  0  0  0  2  0  0  0  0  0  0
  186.1170  178.8120  141.1880 C   0  0  0  0  0  0  0  0  0  0  0  0
  189.4300  177.9440  135.6690 O   0  0  0  0  0  0  0  0  0  0  0  0
  188.6760  176.2560  137.1050 N   0  0  0  0  0  2  0  0  0  0  0  0
  190.1950  175.7550  135.1590 C   0  0  0  0  0  1  0  0  0  0  0  0
  189.4350  176.7250  135.9880 C   0  0  0  0  0  0  0  0  0  0  0  0
  182.2630  180.0060  139.0510 N   0  0  0  0  0  2  0  0  0  0  0  0
  183.6730  179.7870  139.0890 C   0  0  0  0  0  0  0  0  0  0  0  0
  184.4710  180.6910  138.7190 O   0  0  0  0  0  0  0  0  0  0  0  0
  181.6800  181.2530  138.5780 C   0  0  0  0  0  2  0  0  0  0  0  0
  181.4380  181.1700  137.2190 F   0  0  0  0  0  0  0  0  0  0  0  0
  184.9060  176.1530  137.4100 C   0  0  0  0  0  2  0  0  0  0  0  0
  185.9800  176.0160  136.3610 C   0  0  0  0  0  2  0  0  0  0  0  0
  185.7650  177.3570  137.0470 C   0  0  0  0  0  3  0  0  0  0  0  0
  1 13  1  0  0  0  0
  2 10  1  6  0  0  0
  2  9  1  0  0  0  0
  4  1  2  0  0  0  0
  4 14  1  0  0  0  0
  5  1  1  0  0  0  0
  6  8  1  0  0  0  0
  6  4  1  0  0  0  0
  7  3  2  0  0  0  0
  8  5  2  0  0  0  0
  9 17  1  0  0  0  0
 11  3  1  6  0  0  0
 11 12  1  0  0  0  0
 13  2  1  0  0  0  0
 14 18  1  0  0  0  0
 15  7  1  0  0  0  0
 16 24  1  1  0  0  0
 16 14  1  0  0  0  0
 16  7  1  0  0  0  0
 17 12  1  0  0  0  0
 18 13  2  0  0  0  0
 18 11  1  0  0  0  0
 19 22  2  0  0  0  0
 20  8  1  0  0  0  0
 21 22  1  0  0  0  0
 22 20  1  0  0  0  0
 23 24  1  0  0  0  0
 25 24  2  0  0  0  0
 26 23  1  0  0  0  0
 27 26  1  0  0  0  0
 29 30  1  0  0  0  0
 29 28  1  0  0  0  0
 30 28  1  0  0  0  0
 30  6  1  0  0  0  0
M  END
>  <MODEL>
3

>  <REMARK>
 VINA RESULT:      -7.1      4.219      7.287
  Name = 
  4 active torsions:
  status: ('A' for Active; 'I' for Inactive)
    1  A    between atoms: N_7  and  C_16
    2  A    between atoms: N_8  and  C_30
    3  A    between atoms: N_9  and  C_12
    4  A    between atoms: C_10  and  C_25
                            x       y       z     vdW  Elec       q    Type
                         _______ _______ _______ _____ _____    ______ ____

>  <TORSDO>
F 4

$$$$
=
 OpenBabel11052412343D

 30 34  0  0  1  0  0  0  0  0999 V2000
  186.6540  178.5860  141.1240 C   0  0  0  0  0  0  0  0  0  0  0  0
  187.6000  178.5470  138.7090 C   0  0  1  0  0  3  0  0  0  0  0  0
  190.4350  176.1690  141.2570 C   0  0  0  0  0  3  0  0  0  0  0  0
  187.1070  178.1910  142.3080 C   0  0  0  0  0  0  0  0  0  0  0  0
  185.2770  178.6010  141.1230 C   0  0  0  0  0  3  0  0  0  0  0  0
  186.1170  177.9120  143.1670 N   0  0  0  0  0  0  0  0  0  0  0  0
  190.0500  176.0030  142.5320 C   0  0  0  0  0  0  0  0  0  0  0  0
  184.9900  178.1830  142.4370 C   0  0  0  0  0  0  0  0  0  0  0  0
  187.6090  177.1550  138.0680 C   0  0  0  0  0  2  0  0  0  0  0  0
  186.4710  179.2560  138.2950 O   0  0  0  0  0  1  0  0  0  0  0  0
  190.0310  177.3640  140.4300 C   0  0  1  0  0  3  0  0  0  0  0  0
  190.0060  176.9960  138.9400 C   0  0  0  0  0  2  0  0  0  0  0  0
  187.6800  178.4880  140.2060 C   0  0  0  0  0  0  0  0  0  0  0  0
  188.3810  177.7680  142.2520 N   0  0  0  0  0  0  0  0  0  0  0  0
  190.4890  174.8850  143.2300 O   0  0  0  0  0  1  0  0  0  0  0  0
  189.1550  177.0010  143.2290 C   0  0  2  0  0  3  0  0  0  0  0  0
  188.7360  176.2330  138.5560 C   0  0  0  0  0  2  0  0  0  0  0  0
  188.7440  177.9530  140.9560 C   0  0  0  0  0  0  0  0  0  0  0  0
  183.3040  180.1530  143.7490 O   0  0  0  0  0  0  0  0  0  0  0  0
  183.6500  177.9960  142.9060 N   0  0  0  0  0  2  0  0  0  0  0  0
  181.3760  178.7690  143.6670 C   0  0  0  0  0  1  0  0  0  0  0  0
  182.8190  179.0330  143.4340 C   0  0  0  0  0  0  0  0  0  0  0  0
  190.5750  179.0700  143.5030 N   0  0  0  0  0  2  0  0  0  0  0  0
  189.9770  177.9130  144.0880 C   0  0  0  0  0  0  0  0  0  0  0  0
  190.1030  177.6830  145.3220 O   0  0  0  0  0  0  0  0  0  0  0  0
  191.3580  180.0200  144.2780 C   0  0  0  0  0  2  0  0  0  0  0  0
  192.6550  179.5590  144.4090 F   0  0  0  0  0  0  0  0  0  0  0  0
  185.3650  178.2160  145.4800 C   0  0  0  0  0  2  0  0  0  0  0  0
  186.8510  178.4660  145.4300 C   0  0  0  0  0  2  0  0  0  0  0  0
  186.2360  177.4030  144.5340 C   0  0  0  0  0  3  0  0  0  0  0  0
  1  4  2  0  0  0  0
  2 10  1  1  0  0  0
  2 13  1  0  0  0  0
  3  7  2  0  0  0  0
  4  6  1  0  0  0  0
  5  1  1  0  0  0  0
  5  8  2  0  0  0  0
  6 30  1  0  0  0  0
  7 16  1  0  0  0  0
  7 15  1  0  0  0  0
  8 20  1  0  0  0  0
  8  6  1  0  0  0  0
  9 17  1  0  0  0  0
  9  2  1  0  0  0  0
 11 12  1  6  0  0  0
 11 18  1  0  0  0  0
 11  3  1  0  0  0  0
 13 18  2  0  0  0  0
 13  1  1  0  0  0  0
 14  4  1  0  0  0  0
 14 16  1  0  0  0  0
 16 24  1  6  0  0  0
 17 12  1  0  0  0  0
 18 14  1  0  0  0  0
 20 22  1  0  0  0  0
 22 21  1  0  0  0  0
 22 19  2  0  0  0  0
 23 24  1  0  0  0  0
 23 26  1  0  0  0  0
 24 25  2  0  0  0  0
 26 27  1  0  0  0  0
 29 28  1  0  0  0  0
 30 29  1  0  0  0  0
 30 28  1  0  0  0  0
M  END
>  <MODEL>
4

>  <REMARK>
 VINA RESULT:      -7.0      2.171      5.209
  Name = 
  4 active torsions:
  status: ('A' for Active; 'I' for Inactive)
    1  A    between atoms: N_7  and  C_16
    2  A    between atoms: N_8  and  C_30
    3  A    between atoms: N_9  and  C_12
    4  A    between atoms: C_10  and  C_25
                            x       y       z     vdW  Elec       q    Type
                         _______ _______ _______ _____ _____    ______ ____

>  <TORSDO>
F 4

$$$$
=
 OpenBabel11052412343D

 30 34  0  0  1  0  0  0  0  0999 V2000
  188.4750  176.9350  142.5030 C   0  0  0  0  0  0  0  0  0  0  0  0
  190.9180  176.0640  142.4380 C   0  0  1  0  0  3  0  0  0  0  0  0
  190.1800  178.1660  138.5370 C   0  0  0  0  0  3  0  0  0  0  0  0
  187.6610  177.4930  141.6150 C   0  0  0  0  0  0  0  0  0  0  0  0
  188.1060  177.2990  143.7790 C   0  0  0  0  0  3  0  0  0  0  0  0
  186.7200  178.2530  142.1900 N   0  0  0  0  0  0  0  0  0  0  0  0
  188.9850  178.7670  138.4320 C   0  0  0  0  0  0  0  0  0  0  0  0
  186.9870  178.1160  143.5260 C   0  0  0  0  0  0  0  0  0  0  0  0
  191.9720  177.1750  142.4010 C   0  0  0  0  0  2  0  0  0  0  0  0
  190.7510  175.6080  143.7470 O   0  0  0  0  0  1  0  0  0  0  0  0
  190.4130  176.9510  139.4000 C   0  0  1  0  0  3  0  0  0  0  0  0
  191.8750  176.8990  139.8630 C   0  0  0  0  0  2  0  0  0  0  0  0
  189.6080  176.4980  141.8480 C   0  0  0  0  0  0  0  0  0  0  0  0
  188.1930  177.5190  140.3810 N   0  0  0  0  0  0  0  0  0  0  0  0
  188.8520  179.8670  137.5930 O   0  0  0  0  0  1  0  0  0  0  0  0
  187.7790  178.2780  139.2000 C   0  0  2  0  0  3  0  0  0  0  0  0
  192.1450  177.8480  141.0320 C   0  0  0  0  0  2  0  0  0  0  0  0
  189.3960  176.9010  140.5160 C   0  0  0  0  0  0  0  0  0  0  0  0
  186.4250  177.0930  146.1880 O   0  0  0  0  0  0  0  0  0  0  0  0
  186.2720  178.7820  144.5740 N   0  0  0  0  0  2  0  0  0  0  0  0
  185.5720  179.1690  146.9620 C   0  0  0  0  0  1  0  0  0  0  0  0
  186.1290  178.2850  145.9060 C   0  0  0  0  0  0  0  0  0  0  0  0
  185.6250  177.9310  137.9310 N   0  0  0  0  0  2  0  0  0  0  0  0
  186.9120  177.4410  138.3100 C   0  0  0  0  0  0  0  0  0  0  0  0
  187.3310  176.3370  137.8670 O   0  0  0  0  0  0  0  0  0  0  0  0
  184.7400  177.1930  137.0430 C   0  0  0  0  0  2  0  0  0  0  0  0
  184.0120  176.2690  137.7700 F   0  0  0  0  0  0  0  0  0  0  0  0
  184.4070  179.0520  142.3440 C   0  0  0  0  0  2  0  0  0  0  0  0
  184.5220  178.1720  141.1250 C   0  0  0  0  0  2  0  0  0  0  0  0
  185.6920  179.0570  141.5270 C   0  0  0  0  0  3  0  0  0  0  0  0
  1  5  1  0  0  0  0
  2 10  1  1  0  0  0
  4  6  1  0  0  0  0
  4  1  2  0  0  0  0
  6  8  1  0  0  0  0
  7  3  2  0  0  0  0
  7 16  1  0  0  0  0
  8  5  2  0  0  0  0
  8 20  1  0  0  0  0
  9  2  1  0  0  0  0
 11  3  1  1  0  0  0
 11 12  1  0  0  0  0
 11 18  1  0  0  0  0
 12 17  1  0  0  0  0
 13  2  1  0  0  0  0
 13  1  1  0  0  0  0
 14 18  1  0  0  0  0
 14  4  1  0  0  0  0
 15  7  1  0  0  0  0
 16 24  1  6  0  0  0
 16 14  1  0  0  0  0
 17  9  1  0  0  0  0
 18 13  2  0  0  0  0
 20 22  1  0  0  0  0
 22 19  2  0  0  0  0
 22 21  1  0  0  0  0
 23 24  1  0  0  0  0
 25 24  2  0  0  0  0
 26 27  1  0  0  0  0
 26 23  1  0  0  0  0
 29 30  1  0  0  0  0
 29 28  1  0  0  0  0
 30  6  1  0  0  0  0
 30 28  1  0  0  0  0
M  END
>  <MODEL>
5

>  <REMARK>
 VINA RESULT:      -6.9      3.102      6.490
  Name = 
  4 active torsions:
  status: ('A' for Active; 'I' for Inactive)
    1  A    between atoms: N_7  and  C_16
    2  A    between atoms: N_8  and  C_30
    3  A    between atoms: N_9  and  C_12
    4  A    between atoms: C_10  and  C_25
                            x       y       z     vdW  Elec       q    Type
                         _______ _______ _______ _____ _____    ______ ____

>  <TORSDO>
F 4

$$$$
=
 OpenBabel11052412343D

 30 34  0  0  1  0  0  0  0  0999 V2000
  187.9310  177.3000  141.7660 C   0  0  0  0  0  0  0  0  0  0  0  0
  188.6650  176.8190  144.2080 C   0  0  1  0  0  3  0  0  0  0  0  0
  192.4210  177.2950  141.7880 C   0  0  0  0  0  3  0  0  0  0  0  0
  188.5660  177.3900  140.6040 C   0  0  0  0  0  0  0  0  0  0  0  0
  186.7650  178.0310  141.7280 C   0  0  0  0  0  3  0  0  0  0  0  0
  187.9130  178.1610  139.7230 N   0  0  0  0  0  0  0  0  0  0  0  0
  192.2310  177.6440  140.5060 C   0  0  0  0  0  0  0  0  0  0  0  0
  186.7940  178.5390  140.4150 C   0  0  0  0  0  0  0  0  0  0  0  0
  189.4010  177.9850  144.8760 C   0  0  0  0  0  2  0  0  0  0  0  0
  187.3180  176.8310  144.5750 O   0  0  0  0  0  1  0  0  0  0  0  0
  191.4080  176.5050  142.5800 C   0  0  1  0  0  3  0  0  0  0  0  0
  191.5330  176.8270  144.0750 C   0  0  0  0  0  2  0  0  0  0  0  0
  188.8150  176.8280  142.7150 C   0  0  0  0  0  0  0  0  0  0  0  0
  189.8640  177.0580  140.7040 N   0  0  0  0  0  0  0  0  0  0  0  0
  193.2270  178.3490  139.8440 O   0  0  0  0  0  1  0  0  0  0  0  0
  190.9630  177.2880  139.7650 C   0  0  2  0  0  3  0  0  0  0  0  0
  190.8630  178.1540  144.4390 C   0  0  0  0  0  2  0  0  0  0  0  0
  190.0250  176.7050  142.0060 C   0  0  0  0  0  0  0  0  0  0  0  0
  184.2710  177.7880  139.1840 O   0  0  0  0  0  0  0  0  0  0  0  0
  185.7830  179.4210  139.9120 N   0  0  0  0  0  2  0  0  0  0  0  0
  183.4560  180.0180  139.1540 C   0  0  0  0  0  1  0  0  0  0  0  0
  184.5050  179.0020  139.4270 C   0  0  0  0  0  0  0  0  0  0  0  0
  192.4910  175.8500  138.3620 N   0  0  0  0  0  2  0  0  0  0  0  0
  191.1930  176.0780  138.9120 C   0  0  0  0  0  0  0  0  0  0  0  0
  190.2620  175.2490  138.7180 O   0  0  0  0  0  0  0  0  0  0  0  0
  192.8000  174.6810  137.5530 C   0  0  0  0  0  2  0  0  0  0  0  0
  193.9970  174.1280  137.9700 F   0  0  0  0  0  0  0  0  0  0  0  0
  187.1670  178.4140  137.4020 C   0  0  0  0  0  2  0  0  0  0  0  0
  188.2090  177.3260  137.4460 C   0  0  0  0  0  2  0  0  0  0  0  0
  188.3360  178.5270  138.3700 C   0  0  0  0  0  3  0  0  0  0  0  0
  1 13  1  0  0  0  0
  2 10  1  6  0  0  0
  2  9  1  0  0  0  0
  4 14  1  0  0  0  0
  4  1  2  0  0  0  0
  5  1  1  0  0  0  0
  6  8  1  0  0  0  0
  6  4  1  0  0  0  0
  7  3  2  0  0  0  0
  8  5  2  0  0  0  0
 11  3  1  6  0  0  0
 11 12  1  0  0  0  0
 12 17  1  0  0  0  0
 13  2  1  0  0  0  0
 14 18  1  0  0  0  0
 15  7  1  0  0  0  0
 16 24  1  1  0  0  0
 16  7  1  0  0  0  0
 16 14  1  0  0  0  0
 17  9  1  0  0  0  0
 18 11  1  0  0  0  0
 18 13  2  0  0  0  0
 19 22  2  0  0  0  0
 20  8  1  0  0  0  0
 21 22  1  0  0  0  0
 22 20  1  0  0  0  0
 23 24  1  0  0  0  0
 25 24  2  0  0  0  0
 26 27  1  0  0  0  0
 26 23  1  0  0  0  0
 28 29  1  0  0  0  0
 28 30  1  0  0  0  0
 29 30  1  0  0  0  0
 30  6  1  0  0  0  0
M  END
>  <MODEL>
6

>  <REMARK>
 VINA RESULT:      -6.6      2.929      4.034
  Name = 
  4 active torsions:
  status: ('A' for Active; 'I' for Inactive)
    1  A    between atoms: N_7  and  C_16
    2  A    between atoms: N_8  and  C_30
    3  A    between atoms: N_9  and  C_12
    4  A    between atoms: C_10  and  C_25
                            x       y       z     vdW  Elec       q    Type
                         _______ _______ _______ _____ _____    ______ ____

>  <TORSDO>
F 4

$$$$
=
 OpenBabel11052412343D

 30 34  0  0  1  0  0  0  0  0999 V2000
  187.2170  178.5990  141.4880 C   0  0  0  0  0  0  0  0  0  0  0  0
  184.7340  179.3360  141.6400 C   0  0  1  0  0  3  0  0  0  0  0  0
  185.1870  177.0710  137.7860 C   0  0  0  0  0  3  0  0  0  0  0  0
  187.9660  178.0380  140.5470 C   0  0  0  0  0  0  0  0  0  0  0  0
  187.7350  178.3230  142.7340 C   0  0  0  0  0  3  0  0  0  0  0  0
  189.0040  177.3600  141.0550 N   0  0  0  0  0  0  0  0  0  0  0  0
  186.3980  176.5290  137.5850 C   0  0  0  0  0  0  0  0  0  0  0  0
  188.8670  177.5540  142.4040 C   0  0  0  0  0  0  0  0  0  0  0  0
  183.7470  178.1710  141.7670 C   0  0  0  0  0  2  0  0  0  0  0  0
  185.0080  179.8690  142.9010 O   0  0  0  0  0  1  0  0  0  0  0  0
  184.9750  178.3170  138.6110 C   0  0  1  0  0  3  0  0  0  0  0  0
  183.5670  178.3170  139.2220 C   0  0  0  0  0  2  0  0  0  0  0  0
  185.9990  178.9410  140.9360 C   0  0  0  0  0  0  0  0  0  0  0  0
  187.3120  177.9180  139.3780 N   0  0  0  0  0  0  0  0  0  0  0  0
  186.5070  175.3950  136.7900 O   0  0  0  0  0  1  0  0  0  0  0  0
  187.6460  177.1210  138.1980 C   0  0  2  0  0  3  0  0  0  0  0  0
  183.4730  177.4180  140.4570 C   0  0  0  0  0  2  0  0  0  0  0  0
  186.0960  178.4790  139.6100 C   0  0  0  0  0  0  0  0  0  0  0  0
  191.0830  178.8540  143.7630 O   0  0  0  0  0  0  0  0  0  0  0  0
  189.7230  176.9830  143.4000 N   0  0  0  0  0  2  0  0  0  0  0  0
  191.3800  177.0660  145.2960 C   0  0  0  0  0  1  0  0  0  0  0  0
  190.7210  177.7040  144.1280 C   0  0  0  0  0  0  0  0  0  0  0  0
  188.8720  177.3300  136.0010 N   0  0  0  0  0  2  0  0  0  0  0  0
  188.3680  177.9540  137.1830 C   0  0  0  0  0  0  0  0  0  0  0  0
  188.4910  179.1980  137.3510 O   0  0  0  0  0  0  0  0  0  0  0  0
  189.5530  178.0770  134.9550 C   0  0  0  0  0  2  0  0  0  0  0  0
  190.7320  177.4380  134.6170 F   0  0  0  0  0  0  0  0  0  0  0  0
  191.4070  177.0280  140.7030 C   0  0  0  0  0  2  0  0  0  0  0  0
  190.7990  177.4850  139.4020 C   0  0  0  0  0  2  0  0  0  0  0  0
  190.0030  176.5770  140.3270 C   0  0  0  0  0  3  0  0  0  0  0  0
  1  5  1  0  0  0  0
  2  9  1  0  0  0  0
  2 10  1  1  0  0  0
  4  6  1  0  0  0  0
  4  1  2  0  0  0  0
  6  8  1  0  0  0  0
  7  3  2  0  0  0  0
  7 16  1  0  0  0  0
  8  5  2  0  0  0  0
  8 20  1  0  0  0  0
 11  3  1  1  0  0  0
 11 12  1  0  0  0  0
 11 18  1  0  0  0  0
 12 17  1  0  0  0  0
 13  1  1  0  0  0  0
 13  2  1  0  0  0  0
 14 18  1  0  0  0  0
 14  4  1  0  0  0  0
 15  7  1  0  0  0  0
 16 24  1  6  0  0  0
 16 14  1  0  0  0  0
 17  9  1  0  0  0  0
 18 13  2  0  0  0  0
 19 22  2  0  0  0  0
 20 22  1  0  0  0  0
 22 21  1  0  0  0  0
 23 24  1  0  0  0  0
 24 25  2  0  0  0  0
 26 23  1  0  0  0  0
 27 26  1  0  0  0  0
 29 30  1  0  0  0  0
 29 28  1  0  0  0  0
 30 28  1  0  0  0  0
 30  6  1  0  0  0  0
M  END
>  <MODEL>
7

>  <REMARK>
 VINA RESULT:      -6.5      3.384      6.889
  Name = 
  4 active torsions:
  status: ('A' for Active; 'I' for Inactive)
    1  A    between atoms: N_7  and  C_16
    2  A    between atoms: N_8  and  C_30
    3  A    between atoms: N_9  and  C_12
    4  A    between atoms: C_10  and  C_25
                            x       y       z     vdW  Elec       q    Type
                         _______ _______ _______ _____ _____    ______ ____

>  <TORSDO>
F 4

$$$$
=
 OpenBabel11052412343D

 30 34  0  0  1  0  0  0  0  0999 V2000
  184.1070  178.4560  140.1880 C   0  0  0  0  0  0  0  0  0  0  0  0
  186.0850  178.9630  141.7880 C   0  0  1  0  0  3  0  0  0  0  0  0
  182.3520  178.9660  144.2890 C   0  0  0  0  0  3  0  0  0  0  0  0
  182.7850  178.4640  140.3100 C   0  0  0  0  0  0  0  0  0  0  0  0
  184.4850  177.6000  139.1780 C   0  0  0  0  0  3  0  0  0  0  0  0
  182.1860  177.6430  139.4350 N   0  0  0  0  0  0  0  0  0  0  0  0
  181.2300  178.6250  143.6360 C   0  0  0  0  0  0  0  0  0  0  0  0
  183.2380  177.1270  138.7280 C   0  0  0  0  0  0  0  0  0  0  0  0
  186.3300  177.8730  142.8370 C   0  0  0  0  0  2  0  0  0  0  0  0
  186.9530  178.7920  140.7090 O   0  0  0  0  0  1  0  0  0  0  0  0
  183.5290  179.6190  143.6080 C   0  0  1  0  0  3  0  0  0  0  0  0
  184.8290  179.2810  144.3510 C   0  0  0  0  0  2  0  0  0  0  0  0
  184.6570  179.0040  141.3290 C   0  0  0  0  0  0  0  0  0  0  0  0
  182.3850  178.9370  141.5020 N   0  0  0  0  0  0  0  0  0  0  0  0
  180.1830  178.0510  144.3450 O   0  0  0  0  0  1  0  0  0  0  0  0
  181.0750  178.8530  142.1500 C   0  0  2  0  0  3  0  0  0  0  0  0
  185.3410  177.8790  144.0110 C   0  0  0  0  0  2  0  0  0  0  0  0
  183.5370  179.2780  142.1370 C   0  0  0  0  0  0  0  0  0  0  0  0
  182.6760  177.6160  135.9190 O   0  0  0  0  0  0  0  0  0  0  0  0
  183.1200  176.1480  137.6880 N   0  0  0  0  0  2  0  0  0  0  0  0
  183.0900  175.3630  135.2950 C   0  0  0  0  0  1  0  0  0  0  0  0
  182.9640  176.4500  136.2990 C   0  0  0  0  0  0  0  0  0  0  0  0
  179.7930  180.3650  140.5890 N   0  0  0  0  0  2  0  0  0  0  0  0
  180.2810  180.0990  141.9040 C   0  0  0  0  0  0  0  0  0  0  0  0
  180.0110  180.8800  142.8570 O   0  0  0  0  0  0  0  0  0  0  0  0
  178.9860  181.5350  140.2790 C   0  0  0  0  0  2  0  0  0  0  0  0
  179.6150  182.2930  139.3080 F   0  0  0  0  0  0  0  0  0  0  0  0
  180.3500  176.2640  140.2920 C   0  0  0  0  0  2  0  0  0  0  0  0
  180.5530  175.9270  138.8370 C   0  0  0  0  0  2  0  0  0  0  0  0
  180.7560  177.3570  139.3140 C   0  0  0  0  0  3  0  0  0  0  0  0
  1  4  2  0  0  0  0
  1 13  1  0  0  0  0
  2 10  1  6  0  0  0
  2  9  1  0  0  0  0
  4 14  1  0  0  0  0
  5  1  1  0  0  0  0
  6  4  1  0  0  0  0
  7  3  2  0  0  0  0
  7 15  1  0  0  0  0
  8  5  2  0  0  0  0
  8  6  1  0  0  0  0
  9 17  1  0  0  0  0
 11  3  1  1  0  0  0
 11 12  1  0  0  0  0
 13  2  1  0  0  0  0
 13 18  2  0  0  0  0
 14 18  1  0  0  0  0
 14 16  1  0  0  0  0
 16 24  1  1  0  0  0
 16  7  1  0  0  0  0
 17 12  1  0  0  0  0
 18 11  1  0  0  0  0
 19 22  2  0  0  0  0
 20  8  1  0  0  0  0
 21 22  1  0  0  0  0
 22 20  1  0  0  0  0
 23 24  1  0  0  0  0
 24 25  2  0  0  0  0
 26 23  1  0  0  0  0
 27 26  1  0  0  0  0
 29 30  1  0  0  0  0
 29 28  1  0  0  0  0
 30  6  1  0  0  0  0
 30 28  1  0  0  0  0
M  END
>  <MODEL>
8

>  <REMARK>
 VINA RESULT:      -6.4      5.136      8.109
  Name = 
  4 active torsions:
  status: ('A' for Active; 'I' for Inactive)
    1  A    between atoms: N_7  and  C_16
    2  A    between atoms: N_8  and  C_30
    3  A    between atoms: N_9  and  C_12
    4  A    between atoms: C_10  and  C_25
                            x       y       z     vdW  Elec       q    Type
                         _______ _______ _______ _____ _____    ______ ____

>  <TORSDO>
F 4

$$$$
=
 OpenBabel11052412343D

 30 34  0  0  1  0  0  0  0  0999 V2000
  187.5210  177.3900  143.5070 C   0  0  0  0  0  0  0  0  0  0  0  0
  185.0650  177.8240  144.2220 C   0  0  1  0  0  3  0  0  0  0  0  0
  187.6360  178.6980  147.8010 C   0  0  0  0  0  3  0  0  0  0  0  0
  188.6830  177.3430  144.1480 C   0  0  0  0  0  0  0  0  0  0  0  0
  187.7220  177.7110  142.1840 C   0  0  0  0  0  3  0  0  0  0  0  0
  189.7200  177.6220  143.3470 N   0  0  0  0  0  0  0  0  0  0  0  0
  188.9590  178.6160  147.5840 C   0  0  0  0  0  0  0  0  0  0  0  0
  189.1240  177.8310  142.1330 C   0  0  0  0  0  0  0  0  0  0  0  0
  184.7650  179.2880  144.5550 C   0  0  0  0  0  2  0  0  0  0  0  0
  184.6730  177.5420  142.9120 O   0  0  0  0  0  1  0  0  0  0  0  0
  186.6280  177.8930  147.0190 C   0  0  1  0  0  3  0  0  0  0  0  0
  185.2820  178.6300  146.9690 C   0  0  0  0  0  2  0  0  0  0  0  0
  186.5070  177.4710  144.4400 C   0  0  0  0  0  0  0  0  0  0  0  0
  188.5350  177.4430  145.4800 N   0  0  0  0  0  0  0  0  0  0  0  0
  189.8200  179.3740  148.3680 O   0  0  0  0  0  1  0  0  0  0  0  0
  189.5350  177.7200  146.5130 C   0  0  2  0  0  3  0  0  0  0  0  0
  185.2760  179.7510  145.9270 C   0  0  0  0  0  2  0  0  0  0  0  0
  187.1920  177.5180  145.6690 C   0  0  0  0  0  0  0  0  0  0  0  0
  190.0090  176.0760  139.9910 O   0  0  0  0  0  0  0  0  0  0  0  0
  189.8180  178.2090  140.9380 N   0  0  0  0  0  2  0  0  0  0  0  0
  190.6320  177.8780  138.5770 C   0  0  0  0  0  1  0  0  0  0  0  0
  190.1220  177.3230  139.8570 C   0  0  0  0  0  0  0  0  0  0  0  0
  191.4350  176.1930  147.1660 N   0  0  0  0  0  2  0  0  0  0  0  0
  190.0310  176.4460  147.1250 C   0  0  0  0  0  0  0  0  0  0  0  0
  189.2190  175.6270  147.6380 O   0  0  0  0  0  0  0  0  0  0  0  0
  191.9950  174.9960  147.7740 C   0  0  0  0  0  2  0  0  0  0  0  0
  192.9870  175.3470  148.6710 F   0  0  0  0  0  0  0  0  0  0  0  0
  192.0050  177.0910  142.6340 C   0  0  0  0  0  2  0  0  0  0  0  0
  191.7140  176.3200  143.8960 C   0  0  0  0  0  2  0  0  0  0  0  0
  191.1340  177.7140  143.7160 C   0  0  0  0  0  3  0  0  0  0  0  0
  1  4  2  0  0  0  0
  1 13  1  0  0  0  0
  2 10  1  6  0  0  0
  2 13  1  0  0  0  0
  2  9  1  0  0  0  0
  4 14  1  0  0  0  0
  5  1  1  0  0  0  0
  6 30  1  0  0  0  0
  6  4  1  0  0  0  0
  7  3  2  0  0  0  0
  7 15  1  0  0  0  0
  8  5  2  0  0  0  0
  8  6  1  0  0  0  0
  9 17  1  0  0  0  0
 11 12  1  6  0  0  0
 11  3  1  0  0  0  0
 13 18  2  0  0  0  0
 14 18  1  0  0  0  0
 14 16  1  0  0  0  0
 16 24  1  1  0  0  0
 16  7  1  0  0  0  0
 17 12  1  0  0  0  0
 18 11  1  0  0  0  0
 20  8  1  0  0  0  0
 21 22  1  0  0  0  0
 22 19  2  0  0  0  0
 22 20  1  0  0  0  0
 23 26  1  0  0  0  0
 24 23  1  0  0  0  0
 24 25  2  0  0  0  0
 26 27  1  0  0  0  0
 28 30  1  0  0  0  0
 28 29  1  0  0  0  0
 30 29  1  0  0  0  0
M  END
>  <MODEL>
9

>  <REMARK>
 VINA RESULT:      -6.4      2.363      3.631
  Name = 
  4 active torsions:
  status: ('A' for Active; 'I' for Inactive)
    1  A    between atoms: N_7  and  C_16
    2  A    between atoms: N_8  and  C_30
    3  A    between atoms: N_9  and  C_12
    4  A    between atoms: C_10  and  C_25
                            x       y       z     vdW  Elec       q    Type
                         _______ _______ _______ _____ _____    ______ ____

>  <TORSDO>
F 4

$$$$
