=
 OpenBabel11052415033D

 55 60  0  0  1  0  0  0  0  0999 V2000
  189.2800  177.1750  136.4480 C   0  0  1  0  0  3  0  0  0  0  0  0
  193.0300  175.0650  136.6420 C   0  0  0  0  0  3  0  0  0  0  0  0
  190.6010  176.4620  136.5290 C   0  0  0  0  0  0  0  0  0  0  0  0
  191.0590  175.7520  135.4140 C   0  0  0  0  0  3  0  0  0  0  0  0
  192.5750  175.7660  137.7620 C   0  0  0  0  0  3  0  0  0  0  0  0
  192.2710  175.0570  135.4680 C   0  0  0  0  0  3  0  0  0  0  0  0
  191.3620  176.4600  137.7090 C   0  0  0  0  0  3  0  0  0  0  0  0
  188.1130  176.2390  136.5710 C   0  0  0  0  0  0  0  0  0  0  0  0
  188.2700  175.1880  137.1770 O   0  0  0  0  0  0  0  0  0  0  0  0
  187.0320  177.1600  134.6600 O   0  0  0  0  0  1  0  0  0  0  0  0
  186.8030  176.5400  135.8870 C   0  0  1  0  0  3  0  0  0  0  0  0
  186.4300  174.3540  135.0400 O   0  0  0  0  0  0  0  0  0  0  0  0
  182.4450  174.0110  136.2520 C   0  0  2  0  0  3  0  0  0  0  0  0
  181.7860  172.6530  136.2490 C   0  0  0  0  0  3  0  0  0  0  0  0
  184.4760  172.8940  137.2230 C   0  0  0  0  0  2  0  0  0  0  0  0
  183.9120  171.5080  136.9200 C   0  0  0  0  0  2  0  0  0  0  0  0
  185.9520  175.3140  135.7050 C   0  0  0  0  0  0  0  0  0  0  0  0
  182.4380  171.5310  136.5970 C   0  0  0  0  0  3  0  0  0  0  0  0
  183.9720  173.8870  136.1730 C   0  0  2  0  0  3  0  0  0  0  0  0
  184.5470  177.3820  137.1420 O   0  0  0  0  0  0  0  0  0  0  0  0
  182.6910  176.0490  137.6140 N   0  0  0  0  0  0  0  0  0  0  0  0
  182.0500  174.7390  137.5310 C   0  0  0  0  0  2  0  0  0  0  0  0
  184.6450  175.1840  136.3080 N   0  0  0  0  0  0  0  0  0  0  0  0
  183.9980  176.2520  137.0410 C   0  0  0  0  0  0  0  0  0  0  0  0
  181.0360  178.1930  136.4550 C   0  0  0  0  0  1  0  0  0  0  0  0
  182.2990  177.0020  139.8470 C   0  0  0  0  0  3  0  0  0  0  0  0
  181.7080  177.9460  140.6880 C   0  0  0  0  0  3  0  0  0  0  0  0
  181.2670  178.0640  137.9220 C   0  0  0  0  0  0  0  0  0  0  0  0
  180.6780  179.0070  138.7710 C   0  0  0  0  0  3  0  0  0  0  0  0
  180.8950  178.9510  140.1520 C   0  0  0  0  0  0  0  0  0  0  0  0
  182.0880  177.0470  138.4580 C   0  0  0  0  0  0  0  0  0  0  0  0
  180.2420  179.9530  141.0450 C   0  0  0  0  0  3  0  0  0  0  0  0
  180.2980  181.2150  140.4790 F   0  0  0  0  0  0  0  0  0  0  0  0
  180.8690  179.9660  142.2780 F   0  0  0  0  0  0  0  0  0  0  0  0
  189.1510  178.3400  137.4300 C   0  0  0  0  0  2  0  0  0  0  0  0
  188.5940  177.8810  138.7680 C   0  0  2  0  0  3  0  0  0  0  0  0
  187.3040  178.3590  138.9030 F   0  0  0  0  0  0  0  0  0  0  0  0
  189.3940  178.3730  139.8060 O   0  0  0  0  0  0  0  0  0  0  0  0
  188.2230  178.2070  143.3860 C   0  0  2  0  0  3  0  0  0  0  0  0
  188.9510  177.7260  140.9640 C   0  0  1  0  0  3  0  0  0  0  0  0
  191.1670  177.8560  142.1490 C   0  0  0  0  0  2  0  0  0  0  0  0
  190.0880  176.9100  141.6130 C   0  0  1  0  0  3  0  0  0  0  0  0
  189.5180  176.2330  142.7740 N   0  0  0  0  0  0  0  0  0  0  0  0
  190.4290  175.1480  143.1470 C   0  0  0  0  0  1  0  0  0  0  0  0
  188.3820  178.7680  141.9480 C   0  0  0  0  0  2  0  0  0  0  0  0
  190.7290  178.1520  143.5770 C   0  0  0  0  0  2  0  0  0  0  0  0
  189.4560  177.3220  143.7680 C   0  0  1  0  0  0  0  0  0  0  0  0
  185.9920  177.7600  142.5020 O   0  0  0  0  0  1  0  0  0  0  0  0
  186.8760  177.4600  143.5470 C   0  0  2  0  0  3  0  0  0  0  0  0
  186.2120  177.8470  144.8520 C   0  0  0  0  0  1  0  0  0  0  0  0
  189.3090  176.8310  145.2300 C   0  0  0  0  0  2  0  0  0  0  0  0
  190.5510  177.0200  146.0920 C   0  0  0  0  0  2  0  0  0  0  0  0
  190.1350  177.4480  147.4840 C   0  0  0  0  0  2  0  0  0  0  0  0
  188.0350  178.3450  148.4220 C   0  0  0  0  0  1  0  0  0  0  0  0
  188.6550  177.1890  147.6670 C   0  0  0  0  0  2  0  0  0  0  0  0
  1  3  1  0  0  0  0
  1  8  1  0  0  0  0
  1 35  1  1  0  0  0
  2  5  1  0  0  0  0
  3  7  1  0  0  0  0
  4  6  1  0  0  0  0
  4  3  2  0  0  0  0
  6  2  2  0  0  0  0
  7  5  2  0  0  0  0
  8  9  2  0  0  0  0
 11 10  1  6  0  0  0
 11  8  1  0  0  0  0
 12 17  2  0  0  0  0
 13 14  1  1  0  0  0
 13 22  1  0  0  0  0
 14 18  2  0  0  0  0
 16 15  1  0  0  0  0
 17 11  1  0  0  0  0
 17 23  1  0  0  0  0
 18 16  1  0  0  0  0
 19 13  1  0  0  0  0
 19 23  1  0  0  0  0
 19 15  1  1  0  0  0
 21 31  1  0  0  0  0
 22 21  1  0  0  0  0
 23 24  1  0  0  0  0
 24 20  2  0  0  0  0
 24 21  1  0  0  0  0
 25 28  1  0  0  0  0
 26 27  1  0  0  0  0
 28 31  1  0  0  0  0
 28 29  2  0  0  0  0
 29 30  1  0  0  0  0
 30 27  2  0  0  0  0
 30 32  1  0  0  0  0
 31 26  2  0  0  0  0
 32 34  1  0  0  0  0
 33 32  1  0  0  0  0
 35 36  1  0  0  0  0
 36 37  1  1  0  0  0
 36 38  1  0  0  0  0
 39 49  1  6  0  0  0
 39 47  1  0  0  0  0
 40 38  1  6  0  0  0
 40 42  1  0  0  0  0
 40 45  1  0  0  0  0
 41 46  1  0  0  0  0
 42 41  1  1  0  0  0
 42 43  1  0  0  0  0
 43 44  1  0  0  0  0
 43 47  1  0  0  0  0
 45 39  1  0  0  0  0
 46 47  1  0  0  0  0
 47 51  1  1  0  0  0
 48 49  1  0  0  0  0
 49 50  1  1  0  0  0
 51 52  1  0  0  0  0
 52 53  1  0  0  0  0
 53 55  1  0  0  0  0
 55 54  1  0  0  0  0
M  END
>  <MODEL>
1

>  <REMARK>
 VINA RESULT:      -8.0      0.000      0.000
  Name = 
  15 active torsions:
  status: ('A' for Active; 'I' for Inactive)
    1  A    between atoms: C_1  and  C_21
    2  A    between atoms: C_3  and  C_25
    3  A    between atoms: C_3  and  C_38
    4  A    between atoms: C_6  and  O_22
    5  A    between atoms: C_8  and  O_22
    6  A    between atoms: C_8  and  C_54
    7  A    between atoms: C_10  and  C_48
    8  A    between atoms: C_19  and  C_37
    9  A    between atoms: C_27  and  C_51
   10  A    between atoms: C_29  and  C_38
   11  A    between atoms: C_29  and  C_53
   12  A    between atoms: N_33  and  C_52
   13  A    between atoms: C_35  and  C_37
   14  A    between atoms: C_35  and  C_51
   15  A    between atoms: C_51  and  C_54
                            x       y       z     vdW  Elec       q    Type
                         _______ _______ _______ _____ _____    ______ ____

>  <TORSDO>
F 15

$$$$
=
 OpenBabel11052415033D

 55 60  0  0  1  0  0  0  0  0999 V2000
  186.8950  178.2750  141.9990 C   0  0  1  0  0  3  0  0  0  0  0  0
  187.4320  177.3700  146.1760 C   0  0  0  0  0  3  0  0  0  0  0  0
  187.1020  177.9370  143.4490 C   0  0  0  0  0  0  0  0  0  0  0  0
  185.9890  177.8600  144.2930 C   0  0  0  0  0  3  0  0  0  0  0  0
  188.5490  177.4540  145.3390 C   0  0  0  0  0  3  0  0  0  0  0  0
  186.1520  177.5740  145.6520 C   0  0  0  0  0  3  0  0  0  0  0  0
  188.3860  177.7400  143.9800 C   0  0  0  0  0  3  0  0  0  0  0  0
  185.7900  179.2690  141.7920 C   0  0  0  0  0  0  0  0  0  0  0  0
  185.5090  180.0280  142.7080 O   0  0  0  0  0  0  0  0  0  0  0  0
  185.8030  178.9890  139.4270 O   0  0  0  0  0  1  0  0  0  0  0  0
  184.9830  179.2740  140.5180 C   0  0  1  0  0  3  0  0  0  0  0  0
  183.9280  177.2930  141.2920 O   0  0  0  0  0  0  0  0  0  0  0  0
  180.5030  177.5760  138.9150 C   0  0  2  0  0  3  0  0  0  0  0  0
  179.3060  176.7150  139.2390 C   0  0  0  0  0  3  0  0  0  0  0  0
  180.7300  177.9850  141.3840 C   0  0  0  0  0  2  0  0  0  0  0  0
  179.7300  176.8770  141.7040 C   0  0  0  0  0  2  0  0  0  0  0  0
  183.8230  178.3190  140.5660 C   0  0  0  0  0  0  0  0  0  0  0  0
  178.9310  176.4400  140.5000 C   0  0  0  0  0  3  0  0  0  0  0  0
  181.4800  177.6350  140.0960 C   0  0  2  0  0  3  0  0  0  0  0  0
  183.3420  180.4860  138.7250 O   0  0  0  0  0  0  0  0  0  0  0  0
  181.1330  179.8740  138.2910 N   0  0  0  0  0  0  0  0  0  0  0  0
  180.0150  178.9790  138.5760 C   0  0  0  0  0  2  0  0  0  0  0  0
  182.5860  178.5680  139.8590 N   0  0  0  0  0  0  0  0  0  0  0  0
  182.3950  179.6900  138.9640 C   0  0  0  0  0  0  0  0  0  0  0  0
  180.9580  179.7070  135.3550 C   0  0  0  0  0  1  0  0  0  0  0  0
  180.7160  182.2930  138.1440 C   0  0  0  0  0  3  0  0  0  0  0  0
  180.4450  183.4450  137.4040 C   0  0  0  0  0  3  0  0  0  0  0  0
  180.7590  180.9840  136.0990 C   0  0  0  0  0  0  0  0  0  0  0  0
  180.4880  182.1420  135.3640 C   0  0  0  0  0  3  0  0  0  0  0  0
  180.3300  183.3720  136.0110 C   0  0  0  0  0  0  0  0  0  0  0  0
  180.8760  181.0520  137.5050 C   0  0  0  0  0  0  0  0  0  0  0  0
  180.0200  184.5950  135.2130 C   0  0  0  0  0  3  0  0  0  0  0  0
  181.1770  185.3110  134.9550 F   0  0  0  0  0  0  0  0  0  0  0  0
  179.1230  185.3930  135.9000 F   0  0  0  0  0  0  0  0  0  0  0  0
  188.1730  178.7200  141.2860 C   0  0  0  0  0  2  0  0  0  0  0  0
  188.6850  177.6470  140.3400 C   0  0  2  0  0  3  0  0  0  0  0  0
  189.4350  176.7360  141.0600 F   0  0  0  0  0  0  0  0  0  0  0  0
  189.4760  178.2330  139.3440 O   0  0  0  0  0  0  0  0  0  0  0  0
  187.4510  175.9290  137.1520 C   0  0  2  0  0  3  0  0  0  0  0  0
  188.9560  177.7750  138.1300 C   0  0  1  0  0  3  0  0  0  0  0  0
  190.5710  175.8570  137.9100 C   0  0  0  0  0  2  0  0  0  0  0  0
  190.0610  177.1450  137.2570 C   0  0  1  0  0  3  0  0  0  0  0  0
  189.4360  176.7490  135.9980 N   0  0  0  0  0  0  0  0  0  0  0  0
  190.5040  176.5510  135.0150 C   0  0  0  0  0  1  0  0  0  0  0  0
  187.8220  176.7660  138.4050 C   0  0  0  0  0  2  0  0  0  0  0  0
  189.6710  174.7680  137.3440 C   0  0  0  0  0  2  0  0  0  0  0  0
  188.7400  175.5040  136.3750 C   0  0  1  0  0  0  0  0  0  0  0  0
  186.7050  178.0590  136.2180 O   0  0  0  0  0  1  0  0  0  0  0  0
  186.4350  176.6840  136.2590 C   0  0  2  0  0  3  0  0  0  0  0  0
  185.0280  176.4960  136.7880 C   0  0  0  0  0  1  0  0  0  0  0  0
  188.3500  174.6120  135.1710 C   0  0  0  0  0  2  0  0  0  0  0  0
  187.9710  173.1810  135.5340 C   0  0  0  0  0  2  0  0  0  0  0  0
  186.5780  172.8850  135.0170 C   0  0  0  0  0  2  0  0  0  0  0  0
  184.6940  171.5290  135.8600 C   0  0  0  0  0  1  0  0  0  0  0  0
  185.6460  172.6590  136.1880 C   0  0  0  0  0  2  0  0  0  0  0  0
  1 35  1  1  0  0  0
  1  3  1  0  0  0  0
  3  7  2  0  0  0  0
  3  4  1  0  0  0  0
  4  6  2  0  0  0  0
  5  2  2  0  0  0  0
  6  2  1  0  0  0  0
  7  5  1  0  0  0  0
  8  1  1  0  0  0  0
  8  9  2  0  0  0  0
 11 10  1  6  0  0  0
 11 17  1  0  0  0  0
 11  8  1  0  0  0  0
 13 22  1  1  0  0  0
 13 14  1  0  0  0  0
 13 19  1  0  0  0  0
 14 18  2  0  0  0  0
 15 16  1  0  0  0  0
 17 12  2  0  0  0  0
 18 16  1  0  0  0  0
 19 15  1  1  0  0  0
 20 24  2  0  0  0  0
 21 22  1  0  0  0  0
 21 24  1  0  0  0  0
 23 19  1  0  0  0  0
 23 17  1  0  0  0  0
 24 23  1  0  0  0  0
 25 28  1  0  0  0  0
 27 26  2  0  0  0  0
 28 31  2  0  0  0  0
 29 30  2  0  0  0  0
 29 28  1  0  0  0  0
 30 27  1  0  0  0  0
 31 26  1  0  0  0  0
 31 21  1  0  0  0  0
 32 34  1  0  0  0  0
 32 30  1  0  0  0  0
 33 32  1  0  0  0  0
 36 37  1  1  0  0  0
 36 35  1  0  0  0  0
 38 36  1  0  0  0  0
 39 49  1  6  0  0  0
 39 45  1  0  0  0  0
 40 45  1  0  0  0  0
 40 38  1  1  0  0  0
 42 41  1  1  0  0  0
 42 40  1  0  0  0  0
 43 47  1  0  0  0  0
 43 42  1  0  0  0  0
 44 43  1  0  0  0  0
 46 41  1  0  0  0  0
 47 51  1  6  0  0  0
 47 39  1  0  0  0  0
 47 46  1  0  0  0  0
 48 49  1  0  0  0  0
 49 50  1  1  0  0  0
 51 52  1  0  0  0  0
 53 52  1  0  0  0  0
 53 55  1  0  0  0  0
 54 55  1  0  0  0  0
M  END
>  <MODEL>
2

>  <REMARK>
 VINA RESULT:      -7.6      2.805      7.278
  Name = 
  15 active torsions:
  status: ('A' for Active; 'I' for Inactive)
    1  A    between atoms: C_1  and  C_21
    2  A    between atoms: C_3  and  C_25
    3  A    between atoms: C_3  and  C_38
    4  A    between atoms: C_6  and  O_22
    5  A    between atoms: C_8  and  O_22
    6  A    between atoms: C_8  and  C_54
    7  A    between atoms: C_10  and  C_48
    8  A    between atoms: C_19  and  C_37
    9  A    between atoms: C_27  and  C_51
   10  A    between atoms: C_29  and  C_38
   11  A    between atoms: C_29  and  C_53
   12  A    between atoms: N_33  and  C_52
   13  A    between atoms: C_35  and  C_37
   14  A    between atoms: C_35  and  C_51
   15  A    between atoms: C_51  and  C_54
                            x       y       z     vdW  Elec       q    Type
                         _______ _______ _______ _____ _____    ______ ____

>  <TORSDO>
F 15

$$$$
=
 OpenBabel11052415033D

 55 60  0  0  1  0  0  0  0  0999 V2000
  188.0720  176.0290  137.6770 C   0  0  1  0  0  3  0  0  0  0  0  0
  192.3310  176.0500  137.0370 C   0  0  0  0  0  3  0  0  0  0  0  0
  189.5550  176.0160  137.4320 C   0  0  0  0  0  0  0  0  0  0  0  0
  190.4230  175.9850  138.5280 C   0  0  0  0  0  3  0  0  0  0  0  0
  191.4680  176.0890  135.9380 C   0  0  0  0  0  3  0  0  0  0  0  0
  191.8080  175.9990  138.3320 C   0  0  0  0  0  3  0  0  0  0  0  0
  190.0840  176.0760  136.1330 C   0  0  0  0  0  3  0  0  0  0  0  0
  187.5480  177.4070  137.9590 C   0  0  0  0  0  0  0  0  0  0  0  0
  186.9330  177.9890  137.0760 O   0  0  0  0  0  0  0  0  0  0  0  0
  188.7390  179.1480  139.0620 O   0  0  0  0  0  1  0  0  0  0  0  0
  187.8470  178.0970  139.2660 C   0  0  1  0  0  3  0  0  0  0  0  0
  185.6410  178.9750  139.2380 O   0  0  0  0  0  0  0  0  0  0  0  0
  185.2570  179.5260  143.3630 C   0  0  2  0  0  3  0  0  0  0  0  0
  183.8900  179.7740  143.9500 C   0  0  0  0  0  3  0  0  0  0  0  0
  184.1880  177.7730  141.9130 C   0  0  0  0  0  2  0  0  0  0  0  0
  182.7890  178.2540  142.2890 C   0  0  0  0  0  2  0  0  0  0  0  0
  186.6050  178.5910  139.9550 C   0  0  0  0  0  0  0  0  0  0  0  0
  182.7830  179.1620  143.4950 C   0  0  0  0  0  3  0  0  0  0  0  0
  185.1550  178.9590  141.9410 C   0  0  2  0  0  3  0  0  0  0  0  0
  188.6740  177.9150  141.8460 O   0  0  0  0  0  0  0  0  0  0  0  0
  187.3220  178.2300  143.7210 N   0  0  0  0  0  0  0  0  0  0  0  0
  186.0010  178.5430  144.2600 C   0  0  0  0  0  2  0  0  0  0  0  0
  186.4650  178.5850  141.3940 N   0  0  0  0  0  0  0  0  0  0  0  0
  187.5340  178.2110  142.2950 C   0  0  0  0  0  0  0  0  0  0  0  0
  186.7330  177.9410  146.5930 C   0  0  0  0  0  1  0  0  0  0  0  0
  189.5970  177.3960  144.1390 C   0  0  0  0  0  3  0  0  0  0  0  0
  190.5780  176.8940  144.9950 C   0  0  0  0  0  3  0  0  0  0  0  0
  188.0490  177.5620  146.0020 C   0  0  0  0  0  0  0  0  0  0  0  0
  189.0370  177.0590  146.8550 C   0  0  0  0  0  3  0  0  0  0  0  0
  190.3000  176.7240  146.3560 C   0  0  0  0  0  0  0  0  0  0  0  0
  188.3240  177.7350  144.6280 C   0  0  0  0  0  0  0  0  0  0  0  0
  191.3370  176.1690  147.2760 C   0  0  0  0  0  3  0  0  0  0  0  0
  191.7520  177.1360  148.1760 F   0  0  0  0  0  0  0  0  0  0  0  0
  192.4200  175.7140  146.5470 F   0  0  0  0  0  0  0  0  0  0  0  0
  187.2620  175.3510  136.5710 C   0  0  0  0  0  2  0  0  0  0  0  0
  186.2930  174.3280  137.1390 C   0  0  2  0  0  3  0  0  0  0  0  0
  186.9990  173.1960  137.5030 F   0  0  0  0  0  0  0  0  0  0  0  0
  185.3330  173.9990  136.1740 O   0  0  0  0  0  0  0  0  0  0  0  0
  181.5770  173.8310  136.4520 C   0  0  2  0  0  3  0  0  0  0  0  0
  184.1170  173.9220  136.8610 C   0  0  1  0  0  3  0  0  0  0  0  0
  183.5540  176.3590  136.5830 C   0  0  0  0  0  2  0  0  0  0  0  0
  183.8130  175.2420  137.5990 C   0  0  1  0  0  3  0  0  0  0  0  0
  182.5600  175.0460  138.3240 N   0  0  0  0  0  0  0  0  0  0  0  0
  182.4690  176.0940  139.3440 C   0  0  0  0  0  1  0  0  0  0  0  0
  182.9910  173.5660  135.8690 C   0  0  0  0  0  2  0  0  0  0  0  0
  182.0550  176.2960  136.3300 C   0  0  0  0  0  2  0  0  0  0  0  0
  181.5570  175.1770  137.2500 C   0  0  1  0  0  0  0  0  0  0  0  0
  181.9710  171.5440  137.2080 O   0  0  0  0  0  1  0  0  0  0  0  0
  181.0870  172.6280  137.2940 C   0  0  2  0  0  3  0  0  0  0  0  0
  179.7280  172.1650  136.8100 C   0  0  0  0  0  1  0  0  0  0  0  0
  180.1220  175.4550  137.7610 C   0  0  0  0  0  2  0  0  0  0  0  0
  179.3630  176.5200  136.9790 C   0  0  0  0  0  2  0  0  0  0  0  0
  178.9530  177.6360  137.9190 C   0  0  0  0  0  2  0  0  0  0  0  0
  180.8090  179.2380  138.2120 C   0  0  0  0  0  1  0  0  0  0  0  0
  179.5450  178.9420  137.4340 C   0  0  0  0  0  2  0  0  0  0  0  0
  1 35  1  6  0  0  0
  1  8  1  0  0  0  0
  2  6  1  0  0  0  0
  3  1  1  0  0  0  0
  3  4  1  0  0  0  0
  5  7  1  0  0  0  0
  5  2  2  0  0  0  0
  6  4  2  0  0  0  0
  7  3  2  0  0  0  0
  8 11  1  0  0  0  0
  9  8  2  0  0  0  0
 11 10  1  6  0  0  0
 11 17  1  0  0  0  0
 12 17  2  0  0  0  0
 13 14  1  1  0  0  0
 13 22  1  0  0  0  0
 15 16  1  0  0  0  0
 16 18  1  0  0  0  0
 17 23  1  0  0  0  0
 18 14  2  0  0  0  0
 19 15  1  1  0  0  0
 19 13  1  0  0  0  0
 20 24  2  0  0  0  0
 21 22  1  0  0  0  0
 21 31  1  0  0  0  0
 23 19  1  0  0  0  0
 23 24  1  0  0  0  0
 24 21  1  0  0  0  0
 26 31  2  0  0  0  0
 26 27  1  0  0  0  0
 27 30  2  0  0  0  0
 28 25  1  0  0  0  0
 28 29  2  0  0  0  0
 30 29  1  0  0  0  0
 30 32  1  0  0  0  0
 31 28  1  0  0  0  0
 32 33  1  0  0  0  0
 34 32  1  0  0  0  0
 35 36  1  0  0  0  0
 36 37  1  6  0  0  0
 38 36  1  0  0  0  0
 39 47  1  0  0  0  0
 39 49  1  1  0  0  0
 40 38  1  6  0  0  0
 40 42  1  0  0  0  0
 42 41  1  6  0  0  0
 42 43  1  0  0  0  0
 43 44  1  0  0  0  0
 45 39  1  0  0  0  0
 45 40  1  0  0  0  0
 46 41  1  0  0  0  0
 46 47  1  0  0  0  0
 47 51  1  1  0  0  0
 47 43  1  0  0  0  0
 48 49  1  0  0  0  0
 49 50  1  6  0  0  0
 52 51  1  0  0  0  0
 52 53  1  0  0  0  0
 55 53  1  0  0  0  0
 55 54  1  0  0  0  0
M  END
>  <MODEL>
3

>  <REMARK>
 VINA RESULT:      -7.2      2.789      8.918
  Name = 
  15 active torsions:
  status: ('A' for Active; 'I' for Inactive)
    1  A    between atoms: C_1  and  C_21
    2  A    between atoms: C_3  and  C_25
    3  A    between atoms: C_3  and  C_38
    4  A    between atoms: C_6  and  O_22
    5  A    between atoms: C_8  and  O_22
    6  A    between atoms: C_8  and  C_54
    7  A    between atoms: C_10  and  C_48
    8  A    between atoms: C_19  and  C_37
    9  A    between atoms: C_27  and  C_51
   10  A    between atoms: C_29  and  C_38
   11  A    between atoms: C_29  and  C_53
   12  A    between atoms: N_33  and  C_52
   13  A    between atoms: C_35  and  C_37
   14  A    between atoms: C_35  and  C_51
   15  A    between atoms: C_51  and  C_54
                            x       y       z     vdW  Elec       q    Type
                         _______ _______ _______ _____ _____    ______ ____

>  <TORSDO>
F 15

$$$$
=
 OpenBabel11052415033D

 55 61  0  0  1  0  0  0  0  0999 V2000
  187.3230  177.9220  143.7780 C   0  0  1  0  0  3  0  0  0  0  0  0
  188.9580  177.5220  147.7430 C   0  0  0  0  0  3  0  0  0  0  0  0
  187.9110  177.7600  145.1520 C   0  0  0  0  0  0  0  0  0  0  0  0
  187.0590  177.7730  146.2610 C   0  0  0  0  0  3  0  0  0  0  0  0
  189.8160  177.5160  146.6400 C   0  0  0  0  0  3  0  0  0  0  0  0
  187.5790  177.6520  147.5540 C   0  0  0  0  0  3  0  0  0  0  0  0
  189.2960  177.6380  145.3470 C   0  0  0  0  0  3  0  0  0  0  0  0
  188.1450  177.2490  142.7180 C   0  0  0  0  0  0  0  0  0  0  0  0
  188.3080  176.0390  142.7860 O   0  0  0  0  0  0  0  0  0  0  0  0
  190.1290  177.5900  141.4480 O   0  0  0  0  0  0  0  0  0  0  0  0
  188.8300  178.0540  141.6420 C   0  0  1  0  0  3  0  0  0  0  0  0
  186.9550  178.6330  140.3040 O   0  0  0  0  0  0  0  0  0  0  0  0
  188.0790  176.4920  136.8960 C   0  0  2  0  0  3  0  0  0  0  0  0
  187.3820  176.7700  135.5860 C   0  0  0  0  0  3  0  0  0  0  0  0
  188.1230  178.9770  137.2660 C   0  0  0  0  0  2  0  0  0  0  0  0
  187.1540  179.2100  136.1100 C   0  0  0  0  0  2  0  0  0  0  0  0
  188.0710  178.0450  140.3440 C   0  0  0  0  0  0  0  0  0  0  0  0
  187.0090  178.0060  135.2120 C   0  0  0  0  0  3  0  0  0  0  0  0
  187.8300  177.6190  137.9070 C   0  0  2  0  0  3  0  0  0  0  0  0
  190.5060  176.5120  140.1630 O   0  0  0  0  0  0  0  0  0  0  0  0
  190.3100  176.1230  137.8710 N   0  0  0  0  0  0  0  0  0  0  0  0
  189.5730  176.3540  136.6320 C   0  0  0  0  0  2  0  0  0  0  0  0
  188.6010  177.4400  139.1420 N   0  0  0  0  0  0  0  0  0  0  0  0
  189.8450  176.7010  139.1070 C   0  0  1  0  0  3  0  0  0  0  0  0
  190.5900  173.3790  136.8380 C   0  0  0  0  0  1  0  0  0  0  0  0
  192.7460  176.2090  138.2040 C   0  0  0  0  0  3  0  0  0  0  0  0
  194.0140  175.6350  138.1090 C   0  0  0  0  0  3  0  0  0  0  0  0
  191.7610  174.1980  137.2630 C   0  0  0  0  0  0  0  0  0  0  0  0
  193.0350  173.6290  137.1710 C   0  0  0  0  0  3  0  0  0  0  0  0
  194.1620  174.3430  137.5920 C   0  0  0  0  0  0  0  0  0  0  0  0
  191.6060  175.5020  137.7840 C   0  0  0  0  0  0  0  0  0  0  0  0
  195.5180  173.7290  137.4670 C   0  0  0  0  0  3  0  0  0  0  0  0
  195.9950  173.3550  138.7120 F   0  0  0  0  0  0  0  0  0  0  0  0
  196.3920  174.6280  136.8840 F   0  0  0  0  0  0  0  0  0  0  0  0
  185.8570  177.4980  143.6850 C   0  0  0  0  0  2  0  0  0  0  0  0
  184.9570  178.6760  143.3510 C   0  0  2  0  0  3  0  0  0  0  0  0
  185.1940  179.6920  144.2590 F   0  0  0  0  0  0  0  0  0  0  0  0
  183.6160  178.2810  143.4210 O   0  0  0  0  0  0  0  0  0  0  0  0
  180.7580  179.0330  141.0800 C   0  0  2  0  0  3  0  0  0  0  0  0
  182.9580  178.9980  142.4170 C   0  0  1  0  0  3  0  0  0  0  0  0
  183.4330  177.3210  140.6020 C   0  0  0  0  0  2  0  0  0  0  0  0
  183.6270  178.7740  141.0460 C   0  0  1  0  0  3  0  0  0  0  0  0
  182.9080  179.6000  140.0800 N   0  0  0  0  0  0  0  0  0  0  0  0
  183.7580  179.7390  138.8940 C   0  0  0  0  0  1  0  0  0  0  0  0
  181.4720  178.5880  142.3840 C   0  0  0  0  0  2  0  0  0  0  0  0
  182.1250  177.3380  139.8240 C   0  0  0  0  0  2  0  0  0  0  0  0
  181.6870  178.8070  139.8420 C   0  0  1  0  0  0  0  0  0  0  0  0
  179.9730  180.8420  142.5200 O   0  0  0  0  0  1  0  0  0  0  0  0
  180.2540  180.4930  141.1920 C   0  0  2  0  0  3  0  0  0  0  0  0
  178.9890  180.6780  140.3790 C   0  0  0  0  0  1  0  0  0  0  0  0
  180.9290  179.1910  138.5480 C   0  0  0  0  0  2  0  0  0  0  0  0
  180.6460  178.0270  137.6050 C   0  0  0  0  0  2  0  0  0  0  0  0
  181.2830  178.3050  136.2600 C   0  0  0  0  0  2  0  0  0  0  0  0
  182.0070  175.9460  136.3640 C   0  0  0  0  0  1  0  0  0  0  0  0
  182.4470  177.3600  136.0510 C   0  0  0  0  0  2  0  0  0  0  0  0
  1 35  1  1  0  0  0
  1  3  1  0  0  0  0
  3  7  2  0  0  0  0
  3  4  1  0  0  0  0
  4  6  2  0  0  0  0
  5  2  2  0  0  0  0
  6  2  1  0  0  0  0
  7  5  1  0  0  0  0
  8  9  2  0  0  0  0
  8  1  1  0  0  0  0
 10 11  1  0  0  0  0
 11  8  1  1  0  0  0
 12 17  2  0  0  0  0
 13 14  1  6  0  0  0
 13 19  1  0  0  0  0
 16 15  1  0  0  0  0
 17 11  1  0  0  0  0
 18 14  2  0  0  0  0
 18 16  1  0  0  0  0
 19 15  1  6  0  0  0
 19 23  1  0  0  0  0
 20 10  1  0  0  0  0
 21 24  1  0  0  0  0
 22 13  1  0  0  0  0
 22 21  1  0  0  0  0
 23 17  1  0  0  0  0
 24 23  1  0  0  0  0
 24 20  1  1  0  0  0
 25 28  1  0  0  0  0
 27 26  1  0  0  0  0
 28 31  1  0  0  0  0
 29 28  2  0  0  0  0
 29 30  1  0  0  0  0
 30 27  2  0  0  0  0
 31 21  1  0  0  0  0
 31 26  2  0  0  0  0
 32 30  1  0  0  0  0
 32 33  1  0  0  0  0
 34 32  1  0  0  0  0
 36 38  1  0  0  0  0
 36 35  1  0  0  0  0
 36 37  1  1  0  0  0
 39 49  1  1  0  0  0
 39 45  1  0  0  0  0
 40 38  1  1  0  0  0
 42 41  1  6  0  0  0
 42 40  1  0  0  0  0
 43 42  1  0  0  0  0
 44 43  1  0  0  0  0
 45 40  1  0  0  0  0
 46 47  1  0  0  0  0
 46 41  1  0  0  0  0
 47 51  1  6  0  0  0
 47 43  1  0  0  0  0
 47 39  1  0  0  0  0
 49 50  1  6  0  0  0
 49 48  1  0  0  0  0
 52 51  1  0  0  0  0
 53 52  1  0  0  0  0
 55 53  1  0  0  0  0
 55 54  1  0  0  0  0
M  END
>  <MODEL>
4

>  <REMARK>
 VINA RESULT:      -6.8      2.883      9.729
  Name = 
  15 active torsions:
  status: ('A' for Active; 'I' for Inactive)
    1  A    between atoms: C_1  and  C_21
    2  A    between atoms: C_3  and  C_25
    3  A    between atoms: C_3  and  C_38
    4  A    between atoms: C_6  and  O_22
    5  A    between atoms: C_8  and  O_22
    6  A    between atoms: C_8  and  C_54
    7  A    between atoms: C_10  and  C_48
    8  A    between atoms: C_19  and  C_37
    9  A    between atoms: C_27  and  C_51
   10  A    between atoms: C_29  and  C_38
   11  A    between atoms: C_29  and  C_53
   12  A    between atoms: N_33  and  C_52
   13  A    between atoms: C_35  and  C_37
   14  A    between atoms: C_35  and  C_51
   15  A    between atoms: C_51  and  C_54
                            x       y       z     vdW  Elec       q    Type
                         _______ _______ _______ _____ _____    ______ ____

>  <TORSDO>
F 15

$$$$
=
 OpenBabel11052415033D

 55 60  0  0  1  0  0  0  0  0999 V2000
  187.8470  177.9690  142.8510 C   0  0  1  0  0  3  0  0  0  0  0  0
  189.8300  177.2110  146.5980 C   0  0  0  0  0  3  0  0  0  0  0  0
  188.5570  177.6840  144.1450 C   0  0  0  0  0  0  0  0  0  0  0  0
  187.8010  177.4940  145.3070 C   0  0  0  0  0  3  0  0  0  0  0  0
  190.5920  177.4090  145.4430 C   0  0  0  0  0  3  0  0  0  0  0  0
  188.4350  177.2550  146.5300 C   0  0  0  0  0  3  0  0  0  0  0  0
  189.9590  177.6490  144.2190 C   0  0  0  0  0  3  0  0  0  0  0  0
  188.5620  177.3920  141.6640 C   0  0  0  0  0  0  0  0  0  0  0  0
  189.1460  176.3260  141.7960 O   0  0  0  0  0  0  0  0  0  0  0  0
  188.7560  179.5170  140.6070 O   0  0  0  0  0  1  0  0  0  0  0  0
  188.6370  178.1500  140.3620 C   0  0  1  0  0  3  0  0  0  0  0  0
  190.9440  177.9060  139.8550 O   0  0  0  0  0  0  0  0  0  0  0  0
  190.4570  176.1980  136.0720 C   0  0  2  0  0  3  0  0  0  0  0  0
  191.6350  175.5290  135.4070 C   0  0  0  0  0  3  0  0  0  0  0  0
  191.1820  175.0880  138.2070 C   0  0  0  0  0  2  0  0  0  0  0  0
  192.5210  174.6860  137.5940 C   0  0  0  0  0  2  0  0  0  0  0  0
  189.7600  177.6750  139.4830 C   0  0  0  0  0  0  0  0  0  0  0  0
  192.5400  174.8070  136.0900 C   0  0  0  0  0  3  0  0  0  0  0  0
  190.7070  176.3970  137.5720 C   0  0  2  0  0  3  0  0  0  0  0  0
  187.1850  177.1280  138.3070 O   0  0  0  0  0  0  0  0  0  0  0  0
  188.0530  175.9040  136.5210 N   0  0  0  0  0  0  0  0  0  0  0  0
  189.2230  175.3280  135.8630 C   0  0  0  0  0  2  0  0  0  0  0  0
  189.5280  176.9240  138.2690 N   0  0  0  0  0  0  0  0  0  0  0  0
  188.2080  176.6590  137.7390 C   0  0  0  0  0  0  0  0  0  0  0  0
  186.5830  177.5960  134.6100 C   0  0  0  0  0  1  0  0  0  0  0  0
  186.1720  174.3200  136.5130 C   0  0  0  0  0  3  0  0  0  0  0  0
  184.9190  173.9110  136.0540 C   0  0  0  0  0  3  0  0  0  0  0  0
  186.0450  176.2980  135.1100 C   0  0  0  0  0  0  0  0  0  0  0  0
  184.7900  175.8830  134.6550 C   0  0  0  0  0  3  0  0  0  0  0  0
  184.2250  174.6910  135.1230 C   0  0  0  0  0  0  0  0  0  0  0  0
  186.7500  175.5140  136.0500 C   0  0  0  0  0  0  0  0  0  0  0  0
  182.8930  174.2520  134.6100 C   0  0  0  0  0  3  0  0  0  0  0  0
  181.9580  175.2620  134.7650 F   0  0  0  0  0  0  0  0  0  0  0  0
  182.4750  173.1220  135.2900 F   0  0  0  0  0  0  0  0  0  0  0  0
  186.3750  177.5550  142.8570 C   0  0  0  0  0  2  0  0  0  0  0  0
  185.5500  178.4250  141.9220 C   0  0  2  0  0  3  0  0  0  0  0  0
  186.0770  179.7030  141.9170 F   0  0  0  0  0  0  0  0  0  0  0  0
  184.2210  178.4610  142.3610 O   0  0  0  0  0  0  0  0  0  0  0  0
  182.6950  178.7290  138.9240 C   0  0  2  0  0  3  0  0  0  0  0  0
  183.4530  178.0180  141.2790 C   0  0  1  0  0  3  0  0  0  0  0  0
  181.4770  179.4880  141.7970 C   0  0  0  0  0  2  0  0  0  0  0  0
  181.9490  178.0420  141.6210 C   0  0  1  0  0  3  0  0  0  0  0  0
  181.2400  177.5150  140.4580 N   0  0  0  0  0  0  0  0  0  0  0  0
  179.8940  177.1320  140.8950 C   0  0  0  0  0  1  0  0  0  0  0  0
  183.7570  178.8900  140.0440 C   0  0  0  0  0  2  0  0  0  0  0  0
  181.0430  179.9140  140.4020 C   0  0  0  0  0  2  0  0  0  0  0  0
  181.2560  178.6670  139.5370 C   0  0  1  0  0  0  0  0  0  0  0  0
  184.2690  176.9610  138.3260 O   0  0  0  0  0  1  0  0  0  0  0  0
  183.0150  177.5100  138.0240 C   0  0  2  0  0  3  0  0  0  0  0  0
  183.0190  177.9190  136.5650 C   0  0  0  0  0  1  0  0  0  0  0  0
  180.2110  178.5780  138.3980 C   0  0  0  0  0  2  0  0  0  0  0  0
  179.6270  179.9160  137.9630 C   0  0  0  0  0  2  0  0  0  0  0  0
  180.5660  180.5760  136.9740 C   0  0  0  0  0  2  0  0  0  0  0  0
  180.2620  182.5350  135.5020 C   0  0  0  0  0  1  0  0  0  0  0  0
  179.7640  181.1420  135.8220 C   0  0  0  0  0  2  0  0  0  0  0  0
  1 35  1  1  0  0  0
  1  3  1  0  0  0  0
  3  7  2  0  0  0  0
  3  4  1  0  0  0  0
  4  6  2  0  0  0  0
  5  2  2  0  0  0  0
  6  2  1  0  0  0  0
  7  5  1  0  0  0  0
  8  9  2  0  0  0  0
  8  1  1  0  0  0  0
 11 10  1  1  0  0  0
 11  8  1  0  0  0  0
 13 14  1  1  0  0  0
 13 19  1  0  0  0  0
 14 18  2  0  0  0  0
 16 15  1  0  0  0  0
 17 12  2  0  0  0  0
 17 11  1  0  0  0  0
 18 16  1  0  0  0  0
 19 15  1  1  0  0  0
 19 23  1  0  0  0  0
 21 24  1  0  0  0  0
 22 13  1  0  0  0  0
 22 21  1  0  0  0  0
 23 17  1  0  0  0  0
 24 23  1  0  0  0  0
 24 20  2  0  0  0  0
 25 28  1  0  0  0  0
 27 26  1  0  0  0  0
 28 31  1  0  0  0  0
 29 28  2  0  0  0  0
 29 30  1  0  0  0  0
 30 27  2  0  0  0  0
 31 26  2  0  0  0  0
 31 21  1  0  0  0  0
 32 33  1  0  0  0  0
 32 30  1  0  0  0  0
 32 34  1  0  0  0  0
 36 37  1  1  0  0  0
 36 38  1  0  0  0  0
 36 35  1  0  0  0  0
 39 49  1  1  0  0  0
 39 47  1  0  0  0  0
 39 45  1  0  0  0  0
 40 42  1  0  0  0  0
 40 38  1  1  0  0  0
 42 41  1  6  0  0  0
 43 44  1  0  0  0  0
 43 42  1  0  0  0  0
 45 40  1  0  0  0  0
 46 41  1  0  0  0  0
 47 51  1  6  0  0  0
 47 46  1  0  0  0  0
 47 43  1  0  0  0  0
 49 50  1  6  0  0  0
 49 48  1  0  0  0  0
 52 51  1  0  0  0  0
 53 52  1  0  0  0  0
 54 55  1  0  0  0  0
 55 53  1  0  0  0  0
M  END
>  <MODEL>
5

>  <REMARK>
 VINA RESULT:      -6.8      2.369      8.389
  Name = 
  15 active torsions:
  status: ('A' for Active; 'I' for Inactive)
    1  A    between atoms: C_1  and  C_21
    2  A    between atoms: C_3  and  C_25
    3  A    between atoms: C_3  and  C_38
    4  A    between atoms: C_6  and  O_22
    5  A    between atoms: C_8  and  O_22
    6  A    between atoms: C_8  and  C_54
    7  A    between atoms: C_10  and  C_48
    8  A    between atoms: C_19  and  C_37
    9  A    between atoms: C_27  and  C_51
   10  A    between atoms: C_29  and  C_38
   11  A    between atoms: C_29  and  C_53
   12  A    between atoms: N_33  and  C_52
   13  A    between atoms: C_35  and  C_37
   14  A    between atoms: C_35  and  C_51
   15  A    between atoms: C_51  and  C_54
                            x       y       z     vdW  Elec       q    Type
                         _______ _______ _______ _____ _____    ______ ____

>  <TORSDO>
F 15

$$$$
=
 OpenBabel11052415033D

 55 61  0  0  1  0  0  0  0  0999 V2000
  187.0660  178.0640  143.6520 C   0  0  1  0  0  3  0  0  0  0  0  0
  188.4410  177.5390  147.7000 C   0  0  0  0  0  3  0  0  0  0  0  0
  187.5320  177.9060  145.0730 C   0  0  0  0  0  0  0  0  0  0  0  0
  188.8660  177.5630  145.3150 C   0  0  0  0  0  3  0  0  0  0  0  0
  187.1050  177.8740  147.4640 C   0  0  0  0  0  3  0  0  0  0  0  0
  189.3210  177.3830  146.6250 C   0  0  0  0  0  3  0  0  0  0  0  0
  186.6490  178.0540  146.1540 C   0  0  0  0  0  3  0  0  0  0  0  0
  187.9580  177.3590  142.6730 C   0  0  0  0  0  0  0  0  0  0  0  0
  188.1420  176.1580  142.8110 O   0  0  0  0  0  0  0  0  0  0  0  0
  189.9900  177.6530  141.4660 O   0  0  0  0  0  0  0  0  0  0  0  0
  188.6850  178.1250  141.5960 C   0  0  1  0  0  3  0  0  0  0  0  0
  186.8450  178.6280  140.1820 O   0  0  0  0  0  0  0  0  0  0  0  0
  188.1530  176.4660  136.8530 C   0  0  2  0  0  3  0  0  0  0  0  0
  187.4970  176.7030  135.5150 C   0  0  0  0  0  3  0  0  0  0  0  0
  188.1130  178.9570  137.1820 C   0  0  0  0  0  2  0  0  0  0  0  0
  187.1800  179.1430  135.9880 C   0  0  0  0  0  2  0  0  0  0  0  0
  187.9740  178.0730  140.2720 C   0  0  0  0  0  0  0  0  0  0  0  0
  187.1020  177.9210  135.1070 C   0  0  0  0  0  3  0  0  0  0  0  0
  187.8350  177.6010  137.8350 C   0  0  2  0  0  3  0  0  0  0  0  0
  190.4580  176.6100  140.2050 O   0  0  0  0  0  0  0  0  0  0  0  0
  190.3570  176.1790  137.9150 N   0  0  0  0  0  0  0  0  0  0  0  0
  189.6600  176.3680  136.6460 C   0  0  0  0  0  2  0  0  0  0  0  0
  188.5650  177.4650  139.1010 N   0  0  0  0  0  0  0  0  0  0  0  0
  189.8310  176.7620  139.1230 C   0  0  1  0  0  3  0  0  0  0  0  0
  190.7680  173.4650  136.8430 C   0  0  0  0  0  1  0  0  0  0  0  0
  192.7680  176.3220  138.3800 C   0  0  0  0  0  3  0  0  0  0  0  0
  194.0560  175.7850  138.3420 C   0  0  0  0  0  3  0  0  0  0  0  0
  191.8910  174.3070  137.3470 C   0  0  0  0  0  0  0  0  0  0  0  0
  193.1840  173.7740  137.3130 C   0  0  0  0  0  3  0  0  0  0  0  0
  194.2670  174.5090  137.8070 C   0  0  0  0  0  0  0  0  0  0  0  0
  191.6730  175.5940  137.8850 C   0  0  0  0  0  0  0  0  0  0  0  0
  195.6440  173.9350  137.7440 C   0  0  0  0  0  3  0  0  0  0  0  0
  196.1500  173.7510  139.0190 F   0  0  0  0  0  0  0  0  0  0  0  0
  196.4750  174.7780  137.0290 F   0  0  0  0  0  0  0  0  0  0  0  0
  185.6030  177.6730  143.4390 C   0  0  0  0  0  2  0  0  0  0  0  0
  184.8250  178.7830  142.7520 C   0  0  2  0  0  3  0  0  0  0  0  0
  185.2980  180.0030  143.1970 F   0  0  0  0  0  0  0  0  0  0  0  0
  183.4640  178.6620  143.0550 O   0  0  0  0  0  0  0  0  0  0  0  0
  182.4740  178.8210  139.4210 C   0  0  2  0  0  3  0  0  0  0  0  0
  182.8570  178.1900  141.8870 C   0  0  1  0  0  3  0  0  0  0  0  0
  180.8570  179.7100  142.0500 C   0  0  0  0  0  2  0  0  0  0  0  0
  181.3190  178.2500  141.9980 C   0  0  1  0  0  3  0  0  0  0  0  0
  180.7800  177.6900  140.7620 N   0  0  0  0  0  0  0  0  0  0  0  0
  179.3770  177.3460  141.0050 C   0  0  0  0  0  1  0  0  0  0  0  0
  183.3600  179.0090  140.6810 C   0  0  0  0  0  2  0  0  0  0  0  0
  180.6450  180.0880  140.5910 C   0  0  0  0  0  2  0  0  0  0  0  0
  180.9590  178.8060  139.8130 C   0  0  1  0  0  0  0  0  0  0  0  0
  183.0780  176.4560  139.4630 O   0  0  0  0  0  1  0  0  0  0  0  0
  182.8990  177.5640  138.6230 C   0  0  2  0  0  3  0  0  0  0  0  0
  184.2030  177.8180  137.8950 C   0  0  0  0  0  1  0  0  0  0  0  0
  180.0940  178.6890  138.5340 C   0  0  0  0  0  2  0  0  0  0  0  0
  179.4980  180.0040  138.0450 C   0  0  0  0  0  2  0  0  0  0  0  0
  180.3880  180.5870  136.9670 C   0  0  0  0  0  2  0  0  0  0  0  0
  181.5560  182.5180  137.9690 C   0  0  0  0  0  1  0  0  0  0  0  0
  180.3990  182.0960  137.0880 C   0  0  0  0  0  2  0  0  0  0  0  0
  1 35  1  1  0  0  0
  1  3  1  0  0  0  0
  3  4  2  0  0  0  0
  3  7  1  0  0  0  0
  4  6  1  0  0  0  0
  5  2  1  0  0  0  0
  6  2  2  0  0  0  0
  7  5  2  0  0  0  0
  8  9  2  0  0  0  0
  8  1  1  0  0  0  0
 10 11  1  0  0  0  0
 11  8  1  1  0  0  0
 12 17  2  0  0  0  0
 13 14  1  6  0  0  0
 13 19  1  0  0  0  0
 16 15  1  0  0  0  0
 17 11  1  0  0  0  0
 18 14  2  0  0  0  0
 18 16  1  0  0  0  0
 19 15  1  6  0  0  0
 19 23  1  0  0  0  0
 20 10  1  0  0  0  0
 21 24  1  0  0  0  0
 22 13  1  0  0  0  0
 22 21  1  0  0  0  0
 23 24  1  0  0  0  0
 23 17  1  0  0  0  0
 24 20  1  1  0  0  0
 25 28  1  0  0  0  0
 27 26  1  0  0  0  0
 28 31  1  0  0  0  0
 29 28  2  0  0  0  0
 29 30  1  0  0  0  0
 30 27  2  0  0  0  0
 31 21  1  0  0  0  0
 31 26  2  0  0  0  0
 32 30  1  0  0  0  0
 32 33  1  0  0  0  0
 34 32  1  0  0  0  0
 36 38  1  0  0  0  0
 36 37  1  1  0  0  0
 36 35  1  0  0  0  0
 39 49  1  1  0  0  0
 39 47  1  0  0  0  0
 39 45  1  0  0  0  0
 40 42  1  0  0  0  0
 40 38  1  1  0  0  0
 42 41  1  6  0  0  0
 43 44  1  0  0  0  0
 43 42  1  0  0  0  0
 45 40  1  0  0  0  0
 46 41  1  0  0  0  0
 47 51  1  6  0  0  0
 47 46  1  0  0  0  0
 47 43  1  0  0  0  0
 49 50  1  1  0  0  0
 49 48  1  0  0  0  0
 52 51  1  0  0  0  0
 53 55  1  0  0  0  0
 53 52  1  0  0  0  0
 55 54  1  0  0  0  0
M  END
>  <MODEL>
6

>  <REMARK>
 VINA RESULT:      -6.5      3.035      9.851
  Name = 
  15 active torsions:
  status: ('A' for Active; 'I' for Inactive)
    1  A    between atoms: C_1  and  C_21
    2  A    between atoms: C_3  and  C_25
    3  A    between atoms: C_3  and  C_38
    4  A    between atoms: C_6  and  O_22
    5  A    between atoms: C_8  and  O_22
    6  A    between atoms: C_8  and  C_54
    7  A    between atoms: C_10  and  C_48
    8  A    between atoms: C_19  and  C_37
    9  A    between atoms: C_27  and  C_51
   10  A    between atoms: C_29  and  C_38
   11  A    between atoms: C_29  and  C_53
   12  A    between atoms: N_33  and  C_52
   13  A    between atoms: C_35  and  C_37
   14  A    between atoms: C_35  and  C_51
   15  A    between atoms: C_51  and  C_54
                            x       y       z     vdW  Elec       q    Type
                         _______ _______ _______ _____ _____    ______ ____

>  <TORSDO>
F 15

$$$$
=
 OpenBabel11052415033D

 55 60  0  0  1  0  0  0  0  0999 V2000
  187.6640  176.0760  137.3230 C   0  0  1  0  0  3  0  0  0  0  0  0
  191.4470  174.9210  135.6200 C   0  0  0  0  0  3  0  0  0  0  0  0
  188.9980  175.6960  136.7430 C   0  0  0  0  0  0  0  0  0  0  0  0
  189.0790  175.3700  135.3850 C   0  0  0  0  0  3  0  0  0  0  0  0
  191.3710  175.2380  136.9790 C   0  0  0  0  0  3  0  0  0  0  0  0
  190.3010  174.9860  134.8230 C   0  0  0  0  0  3  0  0  0  0  0  0
  190.1490  175.6210  137.5420 C   0  0  0  0  0  3  0  0  0  0  0  0
  187.5410  177.5520  137.5650 C   0  0  0  0  0  0  0  0  0  0  0  0
  187.2110  178.2710  136.6320 O   0  0  0  0  0  0  0  0  0  0  0  0
  188.8080  179.1960  138.7310 O   0  0  0  0  0  1  0  0  0  0  0  0
  187.9030  178.1500  138.9010 C   0  0  1  0  0  3  0  0  0  0  0  0
  185.6890  179.0020  139.0130 O   0  0  0  0  0  0  0  0  0  0  0  0
  185.5410  179.4950  143.1610 C   0  0  2  0  0  3  0  0  0  0  0  0
  184.2070  179.7190  143.8300 C   0  0  0  0  0  3  0  0  0  0  0  0
  184.4090  177.7480  141.7530 C   0  0  0  0  0  2  0  0  0  0  0  0
  183.0290  178.2070  142.2160 C   0  0  0  0  0  2  0  0  0  0  0  0
  186.6980  178.6200  139.6680 C   0  0  0  0  0  0  0  0  0  0  0  0
  183.0830  179.0990  143.4320 C   0  0  0  0  0  3  0  0  0  0  0  0
  185.3630  178.9450  141.7400 C   0  0  2  0  0  3  0  0  0  0  0  0
  188.8820  177.9450  141.4260 O   0  0  0  0  0  0  0  0  0  0  0  0
  187.6370  178.2210  143.3800 N   0  0  0  0  0  0  0  0  0  0  0  0
  186.3470  178.5110  144.0000 C   0  0  0  0  0  2  0  0  0  0  0  0
  186.6420  178.5940  141.1130 N   0  0  0  0  0  0  0  0  0  0  0  0
  187.7670  178.2220  141.9440 C   0  0  0  0  0  0  0  0  0  0  0  0
  187.2150  177.8700  146.2750 C   0  0  0  0  0  1  0  0  0  0  0  0
  189.9460  177.4180  143.6550 C   0  0  0  0  0  3  0  0  0  0  0  0
  190.9810  176.9180  144.4460 C   0  0  0  0  0  3  0  0  0  0  0  0
  188.5020  177.5240  145.6050 C   0  0  0  0  0  0  0  0  0  0  0  0
  189.5440  177.0230  146.3910 C   0  0  0  0  0  3  0  0  0  0  0  0
  190.7820  176.7180  145.8170 C   0  0  0  0  0  0  0  0  0  0  0  0
  188.6970  177.7270  144.2200 C   0  0  0  0  0  0  0  0  0  0  0  0
  191.8770  176.1640  146.6670 C   0  0  0  0  0  3  0  0  0  0  0  0
  192.7160  175.3610  145.9130 F   0  0  0  0  0  0  0  0  0  0  0  0
  191.3410  175.4300  147.7090 F   0  0  0  0  0  0  0  0  0  0  0  0
  186.4740  175.5530  136.5170 C   0  0  0  0  0  2  0  0  0  0  0  0
  186.2450  174.0710  136.7620 C   0  0  2  0  0  3  0  0  0  0  0  0
  185.9730  173.4540  135.5550 F   0  0  0  0  0  0  0  0  0  0  0  0
  185.1660  173.8970  137.6370 O   0  0  0  0  0  0  0  0  0  0  0  0
  182.2220  176.2020  138.1200 C   0  0  2  0  0  3  0  0  0  0  0  0
  184.1900  174.8080  137.2200 C   0  0  1  0  0  3  0  0  0  0  0  0
  182.3180  173.1270  137.1970 C   0  0  0  0  0  2  0  0  0  0  0  0
  183.1230  174.1160  136.3480 C   0  0  1  0  0  3  0  0  0  0  0  0
  182.1850  175.1500  135.9200 N   0  0  0  0  0  0  0  0  0  0  0  0
  181.4330  174.6230  134.7790 C   0  0  0  0  0  1  0  0  0  0  0  0
  183.5520  175.4770  138.4550 C   0  0  0  0  0  2  0  0  0  0  0  0
  181.1620  173.9540  137.7410 C   0  0  0  0  0  2  0  0  0  0  0  0
  181.3640  175.3450  137.1310 C   0  0  1  0  0  0  0  0  0  0  0  0
  183.6660  177.7020  136.8450 O   0  0  0  0  0  1  0  0  0  0  0  0
  182.4850  177.6360  137.5970 C   0  0  2  0  0  3  0  0  0  0  0  0
  182.6100  178.6040  138.7550 C   0  0  0  0  0  1  0  0  0  0  0  0
  180.0130  176.0540  136.8670 C   0  0  0  0  0  2  0  0  0  0  0  0
  178.9480  175.8100  137.9290 C   0  0  0  0  0  2  0  0  0  0  0  0
  179.1930  176.7300  139.1070 C   0  0  0  0  0  2  0  0  0  0  0  0
  178.9420  174.4790  140.0900 C   0  0  0  0  0  1  0  0  0  0  0  0
  179.3820  175.9020  140.3600 C   0  0  0  0  0  2  0  0  0  0  0  0
  1 35  1  6  0  0  0
  1  8  1  0  0  0  0
  2  5  1  0  0  0  0
  3  1  1  0  0  0  0
  3  7  1  0  0  0  0
  4  3  2  0  0  0  0
  5  7  2  0  0  0  0
  6  4  1  0  0  0  0
  6  2  2  0  0  0  0
  8 11  1  0  0  0  0
  9  8  2  0  0  0  0
 11 10  1  6  0  0  0
 11 17  1  0  0  0  0
 12 17  2  0  0  0  0
 13 14  1  1  0  0  0
 13 22  1  0  0  0  0
 15 16  1  0  0  0  0
 16 18  1  0  0  0  0
 17 23  1  0  0  0  0
 18 14  2  0  0  0  0
 19 15  1  1  0  0  0
 19 13  1  0  0  0  0
 20 24  2  0  0  0  0
 21 22  1  0  0  0  0
 21 31  1  0  0  0  0
 23 19  1  0  0  0  0
 23 24  1  0  0  0  0
 24 21  1  0  0  0  0
 26 31  2  0  0  0  0
 26 27  1  0  0  0  0
 27 30  2  0  0  0  0
 28 25  1  0  0  0  0
 28 29  2  0  0  0  0
 30 29  1  0  0  0  0
 30 32  1  0  0  0  0
 31 28  1  0  0  0  0
 32 34  1  0  0  0  0
 33 32  1  0  0  0  0
 35 36  1  0  0  0  0
 36 37  1  6  0  0  0
 36 38  1  0  0  0  0
 39 49  1  6  0  0  0
 39 45  1  0  0  0  0
 40 38  1  1  0  0  0
 40 45  1  0  0  0  0
 41 46  1  0  0  0  0
 42 41  1  1  0  0  0
 42 40  1  0  0  0  0
 43 42  1  0  0  0  0
 43 47  1  0  0  0  0
 44 43  1  0  0  0  0
 47 51  1  6  0  0  0
 47 46  1  0  0  0  0
 47 39  1  0  0  0  0
 48 49  1  0  0  0  0
 49 50  1  1  0  0  0
 51 52  1  0  0  0  0
 52 53  1  0  0  0  0
 53 55  1  0  0  0  0
 54 55  1  0  0  0  0
M  END
>  <MODEL>
7

>  <REMARK>
 VINA RESULT:      -6.4      2.805      8.747
  Name = 
  15 active torsions:
  status: ('A' for Active; 'I' for Inactive)
    1  A    between atoms: C_1  and  C_21
    2  A    between atoms: C_3  and  C_25
    3  A    between atoms: C_3  and  C_38
    4  A    between atoms: C_6  and  O_22
    5  A    between atoms: C_8  and  O_22
    6  A    between atoms: C_8  and  C_54
    7  A    between atoms: C_10  and  C_48
    8  A    between atoms: C_19  and  C_37
    9  A    between atoms: C_27  and  C_51
   10  A    between atoms: C_29  and  C_38
   11  A    between atoms: C_29  and  C_53
   12  A    between atoms: N_33  and  C_52
   13  A    between atoms: C_35  and  C_37
   14  A    between atoms: C_35  and  C_51
   15  A    between atoms: C_51  and  C_54
                            x       y       z     vdW  Elec       q    Type
                         _______ _______ _______ _____ _____    ______ ____

>  <TORSDO>
F 15

$$$$
=
 OpenBabel11052415033D

 55 60  0  0  1  0  0  0  0  0999 V2000
  189.1690  177.8690  137.4860 C   0  0  1  0  0  3  0  0  0  0  0  0
  192.8010  175.5750  137.1750 C   0  0  0  0  0  3  0  0  0  0  0  0
  190.4210  177.0460  137.3640 C   0  0  0  0  0  0  0  0  0  0  0  0
  191.3000  176.9820  138.4520 C   0  0  0  0  0  3  0  0  0  0  0  0
  191.9330  175.6420  136.0820 C   0  0  0  0  0  3  0  0  0  0  0  0
  192.4850  176.2470  138.3590 C   0  0  0  0  0  3  0  0  0  0  0  0
  190.7470  176.3780  136.1740 C   0  0  0  0  0  3  0  0  0  0  0  0
  187.9250  177.0600  137.2620 C   0  0  0  0  0  0  0  0  0  0  0  0
  187.8770  175.9250  137.7160 O   0  0  0  0  0  0  0  0  0  0  0  0
  187.2900  178.1420  135.2380 O   0  0  0  0  0  1  0  0  0  0  0  0
  186.7940  177.5950  136.4210 C   0  0  1  0  0  3  0  0  0  0  0  0
  185.9160  175.8320  135.0950 O   0  0  0  0  0  0  0  0  0  0  0  0
  182.3280  175.3600  137.1850 C   0  0  2  0  0  3  0  0  0  0  0  0
  181.4970  174.1210  136.9560 C   0  0  0  0  0  3  0  0  0  0  0  0
  184.3470  173.8630  137.1880 C   0  0  0  0  0  2  0  0  0  0  0  0
  183.5320  172.6900  136.6500 C   0  0  0  0  0  2  0  0  0  0  0  0
  185.7550  176.5510  136.1190 C   0  0  0  0  0  0  0  0  0  0  0  0
  182.0430  172.9080  136.7620 C   0  0  0  0  0  3  0  0  0  0  0  0
  183.7570  175.1740  136.6610 C   0  0  2  0  0  3  0  0  0  0  0  0
  185.0480  178.1190  138.4330 O   0  0  0  0  0  0  0  0  0  0  0  0
  183.1840  176.8230  138.9720 N   0  0  0  0  0  0  0  0  0  0  0  0
  182.3590  175.6540  138.6800 C   0  0  0  0  0  2  0  0  0  0  0  0
  184.6240  176.3120  136.9880 N   0  0  0  0  0  0  0  0  0  0  0  0
  184.3330  177.1200  138.1530 C   0  0  0  0  0  0  0  0  0  0  0  0
  180.5940  178.1280  139.4880 C   0  0  0  0  0  1  0  0  0  0  0  0
  183.9730  177.5970  141.1690 C   0  0  0  0  0  3  0  0  0  0  0  0
  183.7630  178.2550  142.3820 C   0  0  0  0  0  3  0  0  0  0  0  0
  181.7050  178.1320  140.4830 C   0  0  0  0  0  0  0  0  0  0  0  0
  181.5030  178.7900  141.7000 C   0  0  0  0  0  3  0  0  0  0  0  0
  182.5270  178.8530  142.6510 C   0  0  0  0  0  0  0  0  0  0  0  0
  182.9510  177.5260  140.2070 C   0  0  0  0  0  0  0  0  0  0  0  0
  182.2870  179.5410  143.9540 C   0  0  0  0  0  3  0  0  0  0  0  0
  183.4770  179.6990  144.6440 F   0  0  0  0  0  0  0  0  0  0  0  0
  181.3990  178.8070  144.7190 F   0  0  0  0  0  0  0  0  0  0  0  0
  189.0800  178.6600  138.7910 C   0  0  0  0  0  2  0  0  0  0  0  0
  188.1380  177.9950  139.7810 C   0  0  2  0  0  3  0  0  0  0  0  0
  187.5140  178.9730  140.5330 F   0  0  0  0  0  0  0  0  0  0  0  0
  188.8610  177.1390  140.6200 O   0  0  0  0  0  0  0  0  0  0  0  0
  190.3980  177.8710  143.9840 C   0  0  2  0  0  3  0  0  0  0  0  0
  188.9730  177.8120  141.8410 C   0  0  1  0  0  3  0  0  0  0  0  0
  187.9290  175.9720  143.2030 C   0  0  0  0  0  2  0  0  0  0  0  0
  187.8130  177.4410  142.7870 C   0  0  1  0  0  3  0  0  0  0  0  0
  187.9860  178.2290  144.0040 N   0  0  0  0  0  0  0  0  0  0  0  0
  186.7090  178.2240  144.7230 C   0  0  0  0  0  1  0  0  0  0  0  0
  190.3380  177.4890  142.4810 C   0  0  0  0  0  2  0  0  0  0  0  0
  188.7840  176.0040  144.4610 C   0  0  0  0  0  2  0  0  0  0  0  0
  189.0590  177.4930  144.7000 C   0  0  1  0  0  0  0  0  0  0  0  0
  190.3890  180.1290  143.0570 O   0  0  0  0  0  1  0  0  0  0  0  0
  190.7740  179.3620  144.1650 C   0  0  2  0  0  3  0  0  0  0  0  0
  192.2710  179.5110  144.3430 C   0  0  0  0  0  1  0  0  0  0  0  0
  189.1680  177.8180  146.2100 C   0  0  0  0  0  2  0  0  0  0  0  0
  190.5600  177.6300  146.8030 C   0  0  0  0  0  2  0  0  0  0  0  0
  190.6600  176.2500  147.4200 C   0  0  0  0  0  2  0  0  0  0  0  0
  192.8760  175.6280  148.3160 C   0  0  0  0  0  1  0  0  0  0  0  0
  192.0050  175.6450  147.0780 C   0  0  0  0  0  2  0  0  0  0  0  0
  1 35  1  1  0  0  0
  2  6  1  0  0  0  0
  3  1  1  0  0  0  0
  3  4  1  0  0  0  0
  5  7  1  0  0  0  0
  5  2  2  0  0  0  0
  6  4  2  0  0  0  0
  7  3  2  0  0  0  0
  8  1  1  0  0  0  0
  8  9  2  0  0  0  0
 11 10  1  6  0  0  0
 11  8  1  0  0  0  0
 12 17  2  0  0  0  0
 13 14  1  1  0  0  0
 13 22  1  0  0  0  0
 16 18  1  0  0  0  0
 16 15  1  0  0  0  0
 17 11  1  0  0  0  0
 17 23  1  0  0  0  0
 18 14  2  0  0  0  0
 19 23  1  0  0  0  0
 19 13  1  0  0  0  0
 19 15  1  1  0  0  0
 21 31  1  0  0  0  0
 22 21  1  0  0  0  0
 23 24  1  0  0  0  0
 24 20  2  0  0  0  0
 24 21  1  0  0  0  0
 25 28  1  0  0  0  0
 26 27  1  0  0  0  0
 27 30  2  0  0  0  0
 28 29  2  0  0  0  0
 29 30  1  0  0  0  0
 30 32  1  0  0  0  0
 31 28  1  0  0  0  0
 31 26  2  0  0  0  0
 32 33  1  0  0  0  0
 32 34  1  0  0  0  0
 35 36  1  0  0  0  0
 36 37  1  1  0  0  0
 36 38  1  0  0  0  0
 39 49  1  6  0  0  0
 39 47  1  0  0  0  0
 40 38  1  6  0  0  0
 40 45  1  0  0  0  0
 40 42  1  0  0  0  0
 41 46  1  0  0  0  0
 42 41  1  1  0  0  0
 42 43  1  0  0  0  0
 43 47  1  0  0  0  0
 43 44  1  0  0  0  0
 45 39  1  0  0  0  0
 46 47  1  0  0  0  0
 47 51  1  1  0  0  0
 48 49  1  0  0  0  0
 49 50  1  6  0  0  0
 51 52  1  0  0  0  0
 52 53  1  0  0  0  0
 55 53  1  0  0  0  0
 55 54  1  0  0  0  0
M  END
>  <MODEL>
8

>  <REMARK>
 VINA RESULT:      -6.2      1.654      2.638
  Name = 
  15 active torsions:
  status: ('A' for Active; 'I' for Inactive)
    1  A    between atoms: C_1  and  C_21
    2  A    between atoms: C_3  and  C_25
    3  A    between atoms: C_3  and  C_38
    4  A    between atoms: C_6  and  O_22
    5  A    between atoms: C_8  and  O_22
    6  A    between atoms: C_8  and  C_54
    7  A    between atoms: C_10  and  C_48
    8  A    between atoms: C_19  and  C_37
    9  A    between atoms: C_27  and  C_51
   10  A    between atoms: C_29  and  C_38
   11  A    between atoms: C_29  and  C_53
   12  A    between atoms: N_33  and  C_52
   13  A    between atoms: C_35  and  C_37
   14  A    between atoms: C_35  and  C_51
   15  A    between atoms: C_51  and  C_54
                            x       y       z     vdW  Elec       q    Type
                         _______ _______ _______ _____ _____    ______ ____

>  <TORSDO>
F 15

$$$$
=
 OpenBabel11052415033D

 55 60  0  0  1  0  0  0  0  0999 V2000
  189.0780  176.7870  137.2420 C   0  0  1  0  0  3  0  0  0  0  0  0
  193.1030  175.8590  136.0230 C   0  0  0  0  0  3  0  0  0  0  0  0
  190.4930  176.4860  136.8330 C   0  0  0  0  0  0  0  0  0  0  0  0
  190.7660  176.2050  135.4900 C   0  0  0  0  0  3  0  0  0  0  0  0
  192.8350  176.1300  137.3680 C   0  0  0  0  0  3  0  0  0  0  0  0
  192.0680  175.8950  135.0850 C   0  0  0  0  0  3  0  0  0  0  0  0
  191.5340  176.4400  137.7740 C   0  0  0  0  0  3  0  0  0  0  0  0
  188.8870  178.2220  137.6400 C   0  0  0  0  0  0  0  0  0  0  0  0
  189.4410  179.0890  136.9790 O   0  0  0  0  0  0  0  0  0  0  0  0
  186.8110  178.0740  138.7970 O   0  0  0  0  0  1  0  0  0  0  0  0
  188.1060  178.5840  138.8780 C   0  0  1  0  0  3  0  0  0  0  0  0
  190.0130  177.8740  140.1010 O   0  0  0  0  0  0  0  0  0  0  0  0
  188.0230  176.9550  143.6600 C   0  0  2  0  0  3  0  0  0  0  0  0
  188.8250  176.7500  144.9220 C   0  0  0  0  0  3  0  0  0  0  0  0
  189.5210  178.9120  143.1660 C   0  0  0  0  0  2  0  0  0  0  0  0
  190.4960  178.4990  144.2660 C   0  0  0  0  0  2  0  0  0  0  0  0
  188.7750  178.1170  140.1400 C   0  0  0  0  0  0  0  0  0  0  0  0
  189.9140  177.4810  145.2160 C   0  0  0  0  0  3  0  0  0  0  0  0
  188.8560  177.6630  142.5830 C   0  0  2  0  0  3  0  0  0  0  0  0
  185.9350  178.4560  140.5040 O   0  0  0  0  0  0  0  0  0  0  0  0
  185.9950  178.0580  142.8030 N   0  0  0  0  0  0  0  0  0  0  0  0
  186.7930  177.7890  143.9950 C   0  0  0  0  0  2  0  0  0  0  0  0
  188.0640  177.9930  141.3930 N   0  0  0  0  0  0  0  0  0  0  0  0
  186.6370  178.2000  141.5200 C   0  0  0  0  0  0  0  0  0  0  0  0
  184.9570  178.8130  145.4540 C   0  0  0  0  0  1  0  0  0  0  0  0
  183.7350  178.3440  141.8750 C   0  0  0  0  0  3  0  0  0  0  0  0
  182.3880  178.6810  142.0170 C   0  0  0  0  0  3  0  0  0  0  0  0
  184.0970  178.7830  144.2360 C   0  0  0  0  0  0  0  0  0  0  0  0
  182.7460  179.1190  144.3700 C   0  0  0  0  0  3  0  0  0  0  0  0
  181.8900  179.0700  143.2650 C   0  0  0  0  0  0  0  0  0  0  0  0
  184.6050  178.3900  142.9780 C   0  0  0  0  0  0  0  0  0  0  0  0
  180.4560  179.4530  143.4210 C   0  0  0  0  0  3  0  0  0  0  0  0
  179.9490  178.9540  144.6100 F   0  0  0  0  0  0  0  0  0  0  0  0
  179.7180  178.9640  142.3590 F   0  0  0  0  0  0  0  0  0  0  0  0
  188.0370  176.3650  136.2040 C   0  0  0  0  0  2  0  0  0  0  0  0
  187.1970  175.2010  136.7020 C   0  0  2  0  0  3  0  0  0  0  0  0
  188.0190  174.1080  136.9040 F   0  0  0  0  0  0  0  0  0  0  0  0
  186.2150  174.8870  135.7540 O   0  0  0  0  0  0  0  0  0  0  0  0
  182.6650  173.6940  136.1810 C   0  0  2  0  0  3  0  0  0  0  0  0
  185.1010  174.4680  136.4870 C   0  0  1  0  0  3  0  0  0  0  0  0
  183.8830  176.6630  136.3090 C   0  0  0  0  0  2  0  0  0  0  0  0
  184.4840  175.6400  137.2780 C   0  0  1  0  0  3  0  0  0  0  0  0
  183.3700  175.0960  138.0470 N   0  0  0  0  0  0  0  0  0  0  0  0
  183.0460  176.0600  139.1020 C   0  0  0  0  0  1  0  0  0  0  0  0
  184.0680  173.8360  135.5330 C   0  0  0  0  0  2  0  0  0  0  0  0
  182.4470  176.1970  136.1160 C   0  0  0  0  0  2  0  0  0  0  0  0
  182.3170  174.9670  137.0210 C   0  0  1  0  0  0  0  0  0  0  0  0
  183.8130  171.7740  137.1580 O   0  0  0  0  0  1  0  0  0  0  0  0
  182.5620  172.3870  137.0050 C   0  0  2  0  0  3  0  0  0  0  0  0
  181.6370  171.4030  136.3190 C   0  0  0  0  0  1  0  0  0  0  0  0
  180.8870  174.8330  137.5990 C   0  0  0  0  0  2  0  0  0  0  0  0
  179.9380  175.9630  137.2200 C   0  0  0  0  0  2  0  0  0  0  0  0
  179.4390  176.6440  138.4770 C   0  0  0  0  0  2  0  0  0  0  0  0
  179.9660  178.6780  137.1810 C   0  0  0  0  0  1  0  0  0  0  0  0
  180.0140  178.0420  138.5530 C   0  0  0  0  0  2  0  0  0  0  0  0
  1 35  1  6  0  0  0
  1  8  1  0  0  0  0
  2  5  1  0  0  0  0
  3  1  1  0  0  0  0
  3  7  1  0  0  0  0
  4  3  2  0  0  0  0
  5  7  2  0  0  0  0
  6  4  1  0  0  0  0
  6  2  2  0  0  0  0
  8 11  1  0  0  0  0
  9  8  2  0  0  0  0
 11 10  1  6  0  0  0
 11 17  1  0  0  0  0
 12 17  2  0  0  0  0
 13 22  1  1  0  0  0
 13 14  1  0  0  0  0
 14 18  2  0  0  0  0
 15 16  1  0  0  0  0
 16 18  1  0  0  0  0
 17 23  1  0  0  0  0
 19 15  1  1  0  0  0
 19 13  1  0  0  0  0
 20 24  2  0  0  0  0
 21 31  1  0  0  0  0
 21 22  1  0  0  0  0
 23 24  1  0  0  0  0
 23 19  1  0  0  0  0
 24 21  1  0  0  0  0
 26 27  2  0  0  0  0
 26 31  1  0  0  0  0
 27 30  1  0  0  0  0
 28 29  1  0  0  0  0
 28 25  1  0  0  0  0
 30 32  1  0  0  0  0
 30 29  2  0  0  0  0
 31 28  2  0  0  0  0
 32 33  1  0  0  0  0
 34 32  1  0  0  0  0
 35 36  1  0  0  0  0
 36 37  1  6  0  0  0
 38 36  1  0  0  0  0
 39 49  1  1  0  0  0
 39 47  1  0  0  0  0
 40 38  1  6  0  0  0
 40 42  1  0  0  0  0
 42 41  1  6  0  0  0
 42 43  1  0  0  0  0
 43 44  1  0  0  0  0
 45 39  1  0  0  0  0
 45 40  1  0  0  0  0
 46 41  1  0  0  0  0
 46 47  1  0  0  0  0
 47 51  1  1  0  0  0
 47 43  1  0  0  0  0
 49 50  1  6  0  0  0
 49 48  1  0  0  0  0
 52 51  1  0  0  0  0
 52 53  1  0  0  0  0
 53 55  1  0  0  0  0
 54 55  1  0  0  0  0
M  END
>  <MODEL>
9

>  <REMARK>
 VINA RESULT:      -6.1      1.876      7.767
  Name = 
  15 active torsions:
  status: ('A' for Active; 'I' for Inactive)
    1  A    between atoms: C_1  and  C_21
    2  A    between atoms: C_3  and  C_25
    3  A    between atoms: C_3  and  C_38
    4  A    between atoms: C_6  and  O_22
    5  A    between atoms: C_8  and  O_22
    6  A    between atoms: C_8  and  C_54
    7  A    between atoms: C_10  and  C_48
    8  A    between atoms: C_19  and  C_37
    9  A    between atoms: C_27  and  C_51
   10  A    between atoms: C_29  and  C_38
   11  A    between atoms: C_29  and  C_53
   12  A    between atoms: N_33  and  C_52
   13  A    between atoms: C_35  and  C_37
   14  A    between atoms: C_35  and  C_51
   15  A    between atoms: C_51  and  C_54
                            x       y       z     vdW  Elec       q    Type
                         _______ _______ _______ _____ _____    ______ ____

>  <TORSDO>
F 15

$$$$
