=
 OpenBabel11052413203D

 28 31  0  0  1  0  0  0  0  0999 V2000
  190.1450  177.1340  141.6390 N   0  0  0  0  0  0  0  0  0  0  0  0
  190.8960  177.4680  143.8100 C   0  0  2  0  0  3  0  0  0  0  0  0
  191.6180  176.3610  143.0720 C   0  0  1  0  0  3  0  0  0  0  0  0
  191.7550  175.2530  143.9070 O   0  0  0  0  0  1  0  0  0  0  0  0
  190.8460  176.0090  141.9490 O   0  0  0  0  0  0  0  0  0  0  0  0
  189.7320  177.7370  142.9080 C   0  0  2  0  0  3  0  0  0  0  0  0
  190.9840  179.8470  143.9660 O   0  0  0  0  0  1  0  0  0  0  0  0
  191.7770  178.7020  143.8850 C   0  0  0  0  0  2  0  0  0  0  0  0
  189.0150  176.7640  140.7920 C   0  0  0  0  0  2  0  0  0  0  0  0
  189.2360  177.2430  139.4370 N   0  0  0  0  0  0  0  0  0  0  0  0
  190.1040  177.3760  137.1980 C   0  0  1  0  0  3  0  0  0  0  0  0
  188.7640  178.5190  138.9470 C   0  0  0  0  0  3  0  0  0  0  0  0
  190.5700  175.4840  138.6270 O   0  0  0  0  0  0  0  0  0  0  0  0
  190.0120  176.5990  138.4490 C   0  0  0  0  0  0  0  0  0  0  0  0
  189.4260  176.6240  136.0680 C   0  0  0  0  0  1  0  0  0  0  0  0
  189.3030  178.6450  137.5140 C   0  0  0  0  0  3  0  0  0  0  0  0
  188.4920  177.0690  143.5300 C   0  0  0  0  0  2  0  0  0  0  0  0
  188.9230  177.9620  146.3120 C   0  0  0  0  0  3  0  0  0  0  0  0
  186.5210  178.1810  146.5690 C   0  0  0  0  0  0  0  0  0  0  0  0
  187.5620  178.0820  144.2080 C   0  0  2  0  0  3  0  0  0  0  0  0
  187.9580  178.0570  148.5220 C   0  0  0  0  0  0  0  0  0  0  0  0
  187.6500  178.0300  145.7240 C   0  0  0  0  0  0  0  0  0  0  0  0
  185.1150  179.0540  144.7240 C   0  0  0  0  0  2  0  0  0  0  0  0
  186.6870  178.1700  147.9590 C   0  0  0  0  0  3  0  0  0  0  0  0
  185.1280  178.3190  146.0450 C   0  0  0  0  0  2  0  0  0  0  0  0
  188.1050  178.0520  149.8690 F   0  0  0  0  0  0  0  0  0  0  0  0
  189.0780  177.9670  147.6980 C   0  0  0  0  0  3  0  0  0  0  0  0
  185.8780  177.9810  143.4840 S   0  0  0  0  0  0  0  0  0  0  0  0
  1  5  1  0  0  0  0
  1  6  1  0  0  0  0
  2  8  1  6  0  0  0
  3  2  1  0  0  0  0
  3  4  1  1  0  0  0
  5  3  1  0  0  0  0
  6 17  1  1  0  0  0
  6  2  1  0  0  0  0
  8  7  1  0  0  0  0
  9  1  1  0  0  0  0
 10  9  1  0  0  0  0
 11 15  1  6  0  0  0
 11 16  1  0  0  0  0
 11 14  1  0  0  0  0
 12 10  1  0  0  0  0
 14 13  2  0  0  0  0
 14 10  1  0  0  0  0
 16 12  2  0  0  0  0
 18 27  1  0  0  0  0
 19 24  2  0  0  0  0
 20 17  1  6  0  0  0
 20 22  1  0  0  0  0
 21 26  1  0  0  0  0
 22 18  2  0  0  0  0
 22 19  1  0  0  0  0
 23 25  1  0  0  0  0
 24 21  1  0  0  0  0
 25 19  1  0  0  0  0
 27 21  2  0  0  0  0
 28 20  1  0  0  0  0
 28 23  1  0  0  0  0
M  END
>  <MODEL>
1

>  <REMARK>
 VINA RESULT:      -8.6      0.000      0.000
  Name = 
  5 active torsions:
  status: ('A' for Active; 'I' for Inactive)
    1  A    between atoms: N_1  and  C_2
    2  A    between atoms: C_2  and  N_3
    3  A    between atoms: C_10  and  C_17
    4  A    between atoms: C_16  and  C_20
    5  A    between atoms: C_17  and  C_27
                            x       y       z     vdW  Elec       q    Type
                         _______ _______ _______ _____ _____    ______ ____

>  <TORSDO>
F 5

$$$$
=
 OpenBabel11052413203D

 28 31  0  0  1  0  0  0  0  0999 V2000
  189.6820  176.7920  138.5330 N   0  0  0  0  0  0  0  0  0  0  0  0
  187.9640  178.3120  138.8940 C   0  0  2  0  0  3  0  0  0  0  0  0
  188.7570  178.5650  137.6290 C   0  0  1  0  0  3  0  0  0  0  0  0
  189.0370  179.9260  137.5170 O   0  0  0  0  0  1  0  0  0  0  0  0
  189.9610  177.8440  137.7150 O   0  0  0  0  0  0  0  0  0  0  0  0
  188.8170  177.3040  139.5990 C   0  0  2  0  0  3  0  0  0  0  0  0
  185.6930  178.6930  138.2680 O   0  0  0  0  0  1  0  0  0  0  0  0
  186.6230  177.6910  138.5500 C   0  0  0  0  0  2  0  0  0  0  0  0
  190.9370  176.2420  139.0360 C   0  0  0  0  0  2  0  0  0  0  0  0
  191.6200  175.5200  137.9740 N   0  0  0  0  0  0  0  0  0  0  0  0
  193.2630  174.9740  136.3040 C   0  0  1  0  0  3  0  0  0  0  0  0
  191.0460  174.4000  137.2620 C   0  0  0  0  0  3  0  0  0  0  0  0
  193.5750  176.8200  137.8320 O   0  0  0  0  0  0  0  0  0  0  0  0
  192.8740  175.8580  137.4190 C   0  0  0  0  0  0  0  0  0  0  0  0
  194.5000  174.1790  136.6780 C   0  0  0  0  0  1  0  0  0  0  0  0
  192.0670  174.0210  136.1800 C   0  0  0  0  0  3  0  0  0  0  0  0
  189.5860  178.0380  140.7130 C   0  0  0  0  0  2  0  0  0  0  0  0
  187.3740  177.5890  142.6170 C   0  0  0  0  0  3  0  0  0  0  0  0
  188.9990  177.4840  144.4150 C   0  0  0  0  0  0  0  0  0  0  0  0
  189.7610  177.1740  141.9670 C   0  0  2  0  0  3  0  0  0  0  0  0
  186.6540  177.8780  144.9040 C   0  0  0  0  0  0  0  0  0  0  0  0
  188.7120  177.4650  143.0270 C   0  0  0  0  0  0  0  0  0  0  0  0
  191.1890  176.3670  144.0910 C   0  0  0  0  0  2  0  0  0  0  0  0
  187.9700  177.7130  145.3360 C   0  0  0  0  0  3  0  0  0  0  0  0
  190.3790  177.3030  144.9600 C   0  0  0  0  0  2  0  0  0  0  0  0
  185.6670  178.0940  145.8050 F   0  0  0  0  0  0  0  0  0  0  0  0
  186.3530  177.8030  143.5450 C   0  0  0  0  0  3  0  0  0  0  0  0
  191.5110  177.2060  142.5220 S   0  0  0  0  0  0  0  0  0  0  0  0
  1  9  1  0  0  0  0
  1  6  1  0  0  0  0
  2  8  1  6  0  0  0
  2  6  1  0  0  0  0
  3  4  1  1  0  0  0
  3  5  1  0  0  0  0
  3  2  1  0  0  0  0
  5  1  1  0  0  0  0
  6 17  1  1  0  0  0
  7  8  1  0  0  0  0
 10  9  1  0  0  0  0
 11 15  1  1  0  0  0
 11 14  1  0  0  0  0
 12 10  1  0  0  0  0
 14 13  2  0  0  0  0
 14 10  1  0  0  0  0
 16 11  1  0  0  0  0
 16 12  2  0  0  0  0
 18 22  2  0  0  0  0
 18 27  1  0  0  0  0
 19 25  1  0  0  0  0
 19 24  2  0  0  0  0
 20 17  1  6  0  0  0
 20 28  1  0  0  0  0
 20 22  1  0  0  0  0
 21 24  1  0  0  0  0
 21 26  1  0  0  0  0
 22 19  1  0  0  0  0
 23 25  1  0  0  0  0
 27 21  2  0  0  0  0
 28 23  1  0  0  0  0
M  END
>  <MODEL>
2

>  <REMARK>
 VINA RESULT:      -7.8      2.964      4.953
  Name = 
  5 active torsions:
  status: ('A' for Active; 'I' for Inactive)
    1  A    between atoms: N_1  and  C_2
    2  A    between atoms: C_2  and  N_3
    3  A    between atoms: C_10  and  C_17
    4  A    between atoms: C_16  and  C_20
    5  A    between atoms: C_17  and  C_27
                            x       y       z     vdW  Elec       q    Type
                         _______ _______ _______ _____ _____    ______ ____

>  <TORSDO>
F 5

$$$$
=
 OpenBabel11052413203D

 28 31  0  0  1  0  0  0  0  0999 V2000
  190.9210  177.2880  141.5410 N   0  0  0  0  0  0  0  0  0  0  0  0
  190.7570  177.4890  143.8480 C   0  0  2  0  0  3  0  0  0  0  0  0
  191.6870  176.3850  143.3890 C   0  0  1  0  0  3  0  0  0  0  0  0
  191.4560  175.2360  144.1440 O   0  0  0  0  0  1  0  0  0  0  0  0
  191.4150  176.1190  142.0350 O   0  0  0  0  0  0  0  0  0  0  0  0
  190.0530  177.8500  142.5780 C   0  0  2  0  0  3  0  0  0  0  0  0
  190.9410  179.8650  143.9550 O   0  0  0  0  0  1  0  0  0  0  0  0
  191.5650  178.6770  144.3370 C   0  0  0  0  0  2  0  0  0  0  0  0
  190.2100  177.0080  140.2970 C   0  0  0  0  0  2  0  0  0  0  0  0
  191.1580  176.6300  139.2610 N   0  0  0  0  0  0  0  0  0  0  0  0
  192.1160  175.4660  137.3860 C   0  0  1  0  0  3  0  0  0  0  0  0
  192.5220  177.1080  139.2040 C   0  0  0  0  0  3  0  0  0  0  0  0
  189.8330  175.0860  138.0810 O   0  0  0  0  0  0  0  0  0  0  0  0
  190.9310  175.6840  138.2380 C   0  0  0  0  0  0  0  0  0  0  0  0
  191.8310  175.9300  135.9700 C   0  0  0  0  0  1  0  0  0  0  0  0
  193.1720  176.3830  138.0170 C   0  0  0  0  0  3  0  0  0  0  0  0
  188.6530  177.2120  142.6200 C   0  0  0  0  0  2  0  0  0  0  0  0
  187.3460  178.0610  145.1280 C   0  0  0  0  0  3  0  0  0  0  0  0
  185.2820  178.3840  143.8940 C   0  0  0  0  0  0  0  0  0  0  0  0
  187.5330  178.2590  142.6340 C   0  0  2  0  0  3  0  0  0  0  0  0
  185.2460  178.1810  146.3130 C   0  0  0  0  0  0  0  0  0  0  0  0
  186.6870  178.1910  143.8940 C   0  0  0  0  0  0  0  0  0  0  0  0
  185.3020  179.3350  141.6040 C   0  0  0  0  0  2  0  0  0  0  0  0
  184.5760  178.3540  145.1010 C   0  0  0  0  0  3  0  0  0  0  0  0
  184.4930  178.5890  142.6420 C   0  0  0  0  0  2  0  0  0  0  0  0
  184.5510  178.1580  147.4750 F   0  0  0  0  0  0  0  0  0  0  0  0
  186.6330  178.0470  146.3280 C   0  0  0  0  0  3  0  0  0  0  0  0
  186.6240  178.2390  141.0390 S   0  0  0  0  0  0  0  0  0  0  0  0
  1  5  1  0  0  0  0
  1  6  1  0  0  0  0
  2  8  1  6  0  0  0
  3  2  1  0  0  0  0
  3  4  1  1  0  0  0
  5  3  1  0  0  0  0
  6 17  1  1  0  0  0
  6  2  1  0  0  0  0
  7  8  1  0  0  0  0
  9  1  1  0  0  0  0
 10  9  1  0  0  0  0
 11 15  1  6  0  0  0
 11 16  1  0  0  0  0
 11 14  1  0  0  0  0
 12 10  1  0  0  0  0
 13 14  2  0  0  0  0
 14 10  1  0  0  0  0
 16 12  2  0  0  0  0
 18 27  1  0  0  0  0
 19 22  1  0  0  0  0
 19 24  2  0  0  0  0
 20 17  1  6  0  0  0
 20 22  1  0  0  0  0
 21 27  2  0  0  0  0
 21 26  1  0  0  0  0
 22 18  2  0  0  0  0
 23 25  1  0  0  0  0
 24 21  1  0  0  0  0
 25 19  1  0  0  0  0
 28 23  1  0  0  0  0
 28 20  1  0  0  0  0
M  END
>  <MODEL>
3

>  <REMARK>
 VINA RESULT:      -7.6      1.772      2.396
  Name = 
  5 active torsions:
  status: ('A' for Active; 'I' for Inactive)
    1  A    between atoms: N_1  and  C_2
    2  A    between atoms: C_2  and  N_3
    3  A    between atoms: C_10  and  C_17
    4  A    between atoms: C_16  and  C_20
    5  A    between atoms: C_17  and  C_27
                            x       y       z     vdW  Elec       q    Type
                         _______ _______ _______ _____ _____    ______ ____

>  <TORSDO>
F 5

$$$$
=
 OpenBabel11052413203D

 28 31  0  0  1  0  0  0  0  0999 V2000
  189.5930  177.9270  141.4700 N   0  0  0  0  0  0  0  0  0  0  0  0
  190.5030  177.9900  143.6050 C   0  0  2  0  0  3  0  0  0  0  0  0
  191.4890  177.5960  142.5260 C   0  0  1  0  0  3  0  0  0  0  0  0
  192.2470  176.5090  142.9600 O   0  0  0  0  0  1  0  0  0  0  0  0
  190.7600  177.2310  141.3790 O   0  0  0  0  0  0  0  0  0  0  0  0
  189.1970  177.9030  142.8800 C   0  0  2  0  0  3  0  0  0  0  0  0
  192.1020  179.6020  144.3400 O   0  0  0  0  0  1  0  0  0  0  0  0
  190.7520  179.4240  144.0360 C   0  0  0  0  0  2  0  0  0  0  0  0
  188.6070  177.3050  140.5930 C   0  0  0  0  0  2  0  0  0  0  0  0
  188.9400  177.5780  139.2040 N   0  0  0  0  0  0  0  0  0  0  0  0
  189.9320  177.3370  137.0260 C   0  0  1  0  0  3  0  0  0  0  0  0
  188.6100  178.8110  138.5240 C   0  0  0  0  0  3  0  0  0  0  0  0
  190.1520  175.6230  138.7150 O   0  0  0  0  0  0  0  0  0  0  0  0
  189.7050  176.7460  138.3580 C   0  0  0  0  0  0  0  0  0  0  0  0
  189.2490  176.4980  135.9620 C   0  0  0  0  0  1  0  0  0  0  0  0
  189.2310  178.6990  137.1240 C   0  0  0  0  0  3  0  0  0  0  0  0
  188.5120  176.5910  143.3030 C   0  0  0  0  0  2  0  0  0  0  0  0
  185.7130  177.5330  143.2530 C   0  0  0  0  0  3  0  0  0  0  0  0
  186.0760  178.5940  145.4040 C   0  0  0  0  0  0  0  0  0  0  0  0
  187.6880  176.7500  144.5870 C   0  0  2  0  0  3  0  0  0  0  0  0
  184.2000  179.2540  144.0110 C   0  0  0  0  0  0  0  0  0  0  0  0
  186.5010  177.6800  144.4070 C   0  0  0  0  0  0  0  0  0  0  0  0
  187.4470  177.4950  147.1530 C   0  0  0  0  0  2  0  0  0  0  0  0
  184.9430  179.3860  145.1850 C   0  0  0  0  0  3  0  0  0  0  0  0
  186.8090  178.7860  146.6920 C   0  0  0  0  0  2  0  0  0  0  0  0
  183.1030  180.0240  143.8130 F   0  0  0  0  0  0  0  0  0  0  0  0
  184.5770  178.3180  143.0510 C   0  0  0  0  0  3  0  0  0  0  0  0
  188.7920  177.1030  146.0100 S   0  0  0  0  0  0  0  0  0  0  0  0
  1  6  1  0  0  0  0
  2  8  1  6  0  0  0
  3  4  1  1  0  0  0
  3  2  1  0  0  0  0
  5  1  1  0  0  0  0
  5  3  1  0  0  0  0
  6 17  1  1  0  0  0
  6  2  1  0  0  0  0
  8  7  1  0  0  0  0
  9  1  1  0  0  0  0
 10  9  1  0  0  0  0
 11 15  1  6  0  0  0
 11 16  1  0  0  0  0
 11 14  1  0  0  0  0
 12 10  1  0  0  0  0
 14 13  2  0  0  0  0
 14 10  1  0  0  0  0
 16 12  2  0  0  0  0
 18 22  1  0  0  0  0
 19 25  1  0  0  0  0
 20 17  1  6  0  0  0
 20 28  1  0  0  0  0
 21 24  2  0  0  0  0
 22 20  1  0  0  0  0
 22 19  2  0  0  0  0
 24 19  1  0  0  0  0
 25 23  1  0  0  0  0
 26 21  1  0  0  0  0
 27 18  2  0  0  0  0
 27 21  1  0  0  0  0
 28 23  1  0  0  0  0
M  END
>  <MODEL>
4

>  <REMARK>
 VINA RESULT:      -7.5      1.991      2.856
  Name = 
  5 active torsions:
  status: ('A' for Active; 'I' for Inactive)
    1  A    between atoms: N_1  and  C_2
    2  A    between atoms: C_2  and  N_3
    3  A    between atoms: C_10  and  C_17
    4  A    between atoms: C_16  and  C_20
    5  A    between atoms: C_17  and  C_27
                            x       y       z     vdW  Elec       q    Type
                         _______ _______ _______ _____ _____    ______ ____

>  <TORSDO>
F 5

$$$$
=
 OpenBabel11052413203D

 28 31  0  0  1  0  0  0  0  0999 V2000
  189.4130  178.0020  139.3310 N   0  0  0  0  0  0  0  0  0  0  0  0
  191.2520  176.9210  140.2470 C   0  0  2  0  0  3  0  0  0  0  0  0
  190.9100  176.4730  138.8420 C   0  0  1  0  0  3  0  0  0  0  0  0
  190.9720  175.0820  138.7670 O   0  0  0  0  0  1  0  0  0  0  0  0
  189.6010  176.9010  138.5530 O   0  0  0  0  0  0  0  0  0  0  0  0
  190.0420  177.7180  140.6230 C   0  0  2  0  0  3  0  0  0  0  0  0
  193.5640  177.1390  139.6950 O   0  0  0  0  0  1  0  0  0  0  0  0
  192.4700  177.8280  140.2200 C   0  0  0  0  0  2  0  0  0  0  0  0
  187.9800  178.2570  139.4420 C   0  0  0  0  0  2  0  0  0  0  0  0
  187.3360  178.0270  138.1580 N   0  0  0  0  0  0  0  0  0  0  0  0
  186.7580  178.2910  135.8380 C   0  0  1  0  0  3  0  0  0  0  0  0
  186.2100  177.1400  137.9690 C   0  0  0  0  0  3  0  0  0  0  0  0
  188.5590  179.5490  136.8460 O   0  0  0  0  0  0  0  0  0  0  0  0
  187.6390  178.6940  136.9510 C   0  0  0  0  0  0  0  0  0  0  0  0
  187.5670  177.5900  134.7630 C   0  0  0  0  0  1  0  0  0  0  0  0
  185.8060  177.2820  136.4940 C   0  0  0  0  0  3  0  0  0  0  0  0
  189.1760  176.8460  141.5500 C   0  0  0  0  0  2  0  0  0  0  0  0
  190.8870  177.1950  143.9310 C   0  0  0  0  0  3  0  0  0  0  0  0
  188.8980  177.1350  145.3170 C   0  0  0  0  0  0  0  0  0  0  0  0
  188.6930  177.6110  142.7880 C   0  0  2  0  0  3  0  0  0  0  0  0
  191.0860  176.7520  146.2950 C   0  0  0  0  0  0  0  0  0  0  0  0
  189.4880  177.2630  144.0350 C   0  0  0  0  0  0  0  0  0  0  0  0
  186.7980  178.2290  144.5830 C   0  0  0  0  0  2  0  0  0  0  0  0
  189.7020  176.8580  146.4290 C   0  0  0  0  0  3  0  0  0  0  0  0
  187.4250  177.2470  145.5470 C   0  0  0  0  0  2  0  0  0  0  0  0
  191.8540  176.4880  147.3800 F   0  0  0  0  0  0  0  0  0  0  0  0
  191.6810  176.9330  145.0480 C   0  0  0  0  0  3  0  0  0  0  0  0
  186.8660  177.5030  142.9280 S   0  0  0  0  0  0  0  0  0  0  0  0
  1  9  1  0  0  0  0
  1  6  1  0  0  0  0
  2  8  1  6  0  0  0
  2  6  1  0  0  0  0
  3  4  1  1  0  0  0
  3  2  1  0  0  0  0
  5  3  1  0  0  0  0
  5  1  1  0  0  0  0
  6 17  1  1  0  0  0
  7  8  1  0  0  0  0
 10  9  1  0  0  0  0
 11 15  1  6  0  0  0
 11 16  1  0  0  0  0
 11 14  1  0  0  0  0
 12 10  1  0  0  0  0
 13 14  2  0  0  0  0
 14 10  1  0  0  0  0
 16 12  2  0  0  0  0
 18 22  2  0  0  0  0
 18 27  1  0  0  0  0
 19 25  1  0  0  0  0
 19 24  2  0  0  0  0
 20 17  1  6  0  0  0
 20 28  1  0  0  0  0
 20 22  1  0  0  0  0
 21 24  1  0  0  0  0
 21 26  1  0  0  0  0
 22 19  1  0  0  0  0
 23 25  1  0  0  0  0
 27 21  2  0  0  0  0
 28 23  1  0  0  0  0
M  END
>  <MODEL>
5

>  <REMARK>
 VINA RESULT:      -7.2      2.362      3.458
  Name = 
  5 active torsions:
  status: ('A' for Active; 'I' for Inactive)
    1  A    between atoms: N_1  and  C_2
    2  A    between atoms: C_2  and  N_3
    3  A    between atoms: C_10  and  C_17
    4  A    between atoms: C_16  and  C_20
    5  A    between atoms: C_17  and  C_27
                            x       y       z     vdW  Elec       q    Type
                         _______ _______ _______ _____ _____    ______ ____

>  <TORSDO>
F 5

$$$$
=
 OpenBabel11052413203D

 28 31  0  0  1  0  0  0  0  0999 V2000
  188.6330  177.3030  143.1930 N   0  0  0  0  0  0  0  0  0  0  0  0
  190.9300  177.2870  142.8540 C   0  0  2  0  0  3  0  0  0  0  0  0
  190.4830  178.1540  144.0120 C   0  0  1  0  0  3  0  0  0  0  0  0
  191.1590  179.3720  143.9720 O   0  0  0  0  0  1  0  0  0  0  0  0
  189.1000  178.3800  143.8820 O   0  0  0  0  0  0  0  0  0  0  0  0
  189.6330  176.9910  142.1690 C   0  0  2  0  0  3  0  0  0  0  0  0
  191.6840  176.0670  144.7610 O   0  0  0  0  0  1  0  0  0  0  0  0
  191.5360  175.9970  143.3750 C   0  0  0  0  0  2  0  0  0  0  0  0
  187.3280  177.6370  142.6290 C   0  0  0  0  0  2  0  0  0  0  0  0
  186.4160  178.0260  143.6930 N   0  0  0  0  0  0  0  0  0  0  0  0
  184.7110  179.2390  144.8800 C   0  0  1  0  0  3  0  0  0  0  0  0
  186.4760  177.5000  145.0390 C   0  0  0  0  0  3  0  0  0  0  0  0
  185.1850  179.6720  142.5500 O   0  0  0  0  0  0  0  0  0  0  0  0
  185.4240  179.0270  143.6060 C   0  0  0  0  0  0  0  0  0  0  0  0
  183.2520  178.8530  144.7300 C   0  0  0  0  0  1  0  0  0  0  0  0
  185.4010  178.2550  145.8340 C   0  0  0  0  0  3  0  0  0  0  0  0
  189.5410  177.8950  140.9260 C   0  0  0  0  0  2  0  0  0  0  0  0
  191.4470  176.4490  139.1960 C   0  0  0  0  0  3  0  0  0  0  0  0
  190.0400  176.9630  137.2880 C   0  0  0  0  0  0  0  0  0  0  0  0
  189.0810  177.1290  139.6800 C   0  0  2  0  0  3  0  0  0  0  0  0
  192.3490  176.2880  136.9620 C   0  0  0  0  0  0  0  0  0  0  0  0
  190.2120  176.8900  138.6930 C   0  0  0  0  0  0  0  0  0  0  0  0
  187.5680  176.9100  137.4750 C   0  0  0  0  0  2  0  0  0  0  0  0
  191.1170  176.6830  136.4390 C   0  0  0  0  0  3  0  0  0  0  0  0
  188.7500  177.3650  136.6480 C   0  0  0  0  0  2  0  0  0  0  0  0
  193.3830  176.0160  136.1300 F   0  0  0  0  0  0  0  0  0  0  0  0
  192.5110  176.1580  138.3400 C   0  0  0  0  0  3  0  0  0  0  0  0
  187.5510  177.8810  139.0000 S   0  0  0  0  0  0  0  0  0  0  0  0
  1  5  1  0  0  0  0
  2  8  1  1  0  0  0
  2  3  1  0  0  0  0
  3  4  1  6  0  0  0
  5  3  1  0  0  0  0
  6 17  1  6  0  0  0
  6  2  1  0  0  0  0
  6  1  1  0  0  0  0
  8  7  1  0  0  0  0
  9  1  1  0  0  0  0
  9 10  1  0  0  0  0
 10 12  1  0  0  0  0
 11 15  1  6  0  0  0
 11 16  1  0  0  0  0
 12 16  2  0  0  0  0
 13 14  2  0  0  0  0
 14 10  1  0  0  0  0
 14 11  1  0  0  0  0
 19 22  2  0  0  0  0
 20 17  1  1  0  0  0
 21 27  1  0  0  0  0
 22 18  1  0  0  0  0
 22 20  1  0  0  0  0
 23 28  1  0  0  0  0
 24 21  2  0  0  0  0
 24 19  1  0  0  0  0
 25 19  1  0  0  0  0
 25 23  1  0  0  0  0
 26 21  1  0  0  0  0
 27 18  2  0  0  0  0
 28 20  1  0  0  0  0
M  END
>  <MODEL>
6

>  <REMARK>
 VINA RESULT:      -7.2      3.657      7.614
  Name = 
  5 active torsions:
  status: ('A' for Active; 'I' for Inactive)
    1  A    between atoms: N_1  and  C_2
    2  A    between atoms: C_2  and  N_3
    3  A    between atoms: C_10  and  C_17
    4  A    between atoms: C_16  and  C_20
    5  A    between atoms: C_17  and  C_27
                            x       y       z     vdW  Elec       q    Type
                         _______ _______ _______ _____ _____    ______ ____

>  <TORSDO>
F 5

$$$$
=
 OpenBabel11052413203D

 28 31  0  0  1  0  0  0  0  0999 V2000
  189.7270  177.6300  141.7550 N   0  0  0  0  0  0  0  0  0  0  0  0
  190.2320  176.3810  143.6460 C   0  0  2  0  0  3  0  0  0  0  0  0
  189.2930  175.6870  142.6810 C   0  0  1  0  0  3  0  0  0  0  0  0
  188.2480  175.0970  143.3890 O   0  0  0  0  0  1  0  0  0  0  0  0
  188.7760  176.6560  141.8010 O   0  0  0  0  0  0  0  0  0  0  0  0
  190.2420  177.7810  143.1180 C   0  0  2  0  0  3  0  0  0  0  0  0
  192.0270  175.2850  144.7730 O   0  0  0  0  0  1  0  0  0  0  0  0
  191.6240  175.7860  143.5340 C   0  0  0  0  0  2  0  0  0  0  0  0
  189.1190  178.8520  141.2380 C   0  0  0  0  0  2  0  0  0  0  0  0
  188.1880  178.5280  140.1700 N   0  0  0  0  0  0  0  0  0  0  0  0
  187.3540  178.0300  137.9690 C   0  0  1  0  0  3  0  0  0  0  0  0
  186.7500  178.5500  140.3200 C   0  0  0  0  0  3  0  0  0  0  0  0
  189.7230  178.2010  138.4180 O   0  0  0  0  0  0  0  0  0  0  0  0
  188.5320  178.2480  138.8300 C   0  0  0  0  0  0  0  0  0  0  0  0
  187.3380  176.6010  137.4610 C   0  0  0  0  0  1  0  0  0  0  0  0
  186.1760  178.2390  138.9300 C   0  0  0  0  0  3  0  0  0  0  0  0
  189.3350  178.6320  144.0260 C   0  0  0  0  0  2  0  0  0  0  0  0
  186.4070  178.2600  144.1240 C   0  0  0  0  0  3  0  0  0  0  0  0
  186.5400  178.1840  146.5450 C   0  0  0  0  0  0  0  0  0  0  0  0
  188.6620  177.7990  145.1230 C   0  0  2  0  0  3  0  0  0  0  0  0
  184.4200  178.6170  145.4460 C   0  0  0  0  0  0  0  0  0  0  0  0
  187.1880  178.1310  145.2840 C   0  0  0  0  0  0  0  0  0  0  0  0
  188.4180  177.0330  147.6830 C   0  0  0  0  0  2  0  0  0  0  0  0
  185.1680  178.4490  146.6110 C   0  0  0  0  0  3  0  0  0  0  0  0
  187.2670  178.0020  147.8380 C   0  0  0  0  0  2  0  0  0  0  0  0
  183.0910  178.8690  145.5240 F   0  0  0  0  0  0  0  0  0  0  0  0
  185.0370  178.5100  144.2010 C   0  0  0  0  0  3  0  0  0  0  0  0
  189.6760  177.8260  146.6530 S   0  0  0  0  0  0  0  0  0  0  0  0
  1  5  1  0  0  0  0
  1  6  1  0  0  0  0
  2  8  1  6  0  0  0
  3  4  1  1  0  0  0
  3  2  1  0  0  0  0
  5  3  1  0  0  0  0
  6  2  1  0  0  0  0
  6 17  1  1  0  0  0
  8  7  1  0  0  0  0
  9  1  1  0  0  0  0
 10 12  1  0  0  0  0
 10  9  1  0  0  0  0
 11 15  1  1  0  0  0
 11 14  1  0  0  0  0
 11 16  1  0  0  0  0
 13 14  2  0  0  0  0
 14 10  1  0  0  0  0
 16 12  2  0  0  0  0
 18 27  2  0  0  0  0
 18 22  1  0  0  0  0
 19 24  1  0  0  0  0
 19 25  1  0  0  0  0
 20 17  1  6  0  0  0
 20 22  1  0  0  0  0
 20 28  1  0  0  0  0
 21 26  1  0  0  0  0
 21 24  2  0  0  0  0
 22 19  2  0  0  0  0
 23 25  1  0  0  0  0
 27 21  1  0  0  0  0
 28 23  1  0  0  0  0
M  END
>  <MODEL>
7

>  <REMARK>
 VINA RESULT:      -7.2      2.286      3.185
  Name = 
  5 active torsions:
  status: ('A' for Active; 'I' for Inactive)
    1  A    between atoms: N_1  and  C_2
    2  A    between atoms: C_2  and  N_3
    3  A    between atoms: C_10  and  C_17
    4  A    between atoms: C_16  and  C_20
    5  A    between atoms: C_17  and  C_27
                            x       y       z     vdW  Elec       q    Type
                         _______ _______ _______ _____ _____    ______ ____

>  <TORSDO>
F 5

$$$$
=
 OpenBabel11052413203D

 28 31  0  0  1  0  0  0  0  0999 V2000
  186.0280  178.1690  138.6180 N   0  0  0  0  0  0  0  0  0  0  0  0
  184.1440  178.4920  139.9360 C   0  0  2  0  0  3  0  0  0  0  0  0
  184.2110  179.3980  138.7250 C   0  0  1  0  0  3  0  0  0  0  0  0
  183.8710  180.6980  139.0930 O   0  0  0  0  0  1  0  0  0  0  0  0
  185.5310  179.3780  138.2370 O   0  0  0  0  0  0  0  0  0  0  0  0
  185.5230  177.9130  139.9690 C   0  0  2  0  0  3  0  0  0  0  0  0
  182.1300  177.8320  138.8380 O   0  0  0  0  0  1  0  0  0  0  0  0
  183.1330  177.3850  139.7000 C   0  0  0  0  0  2  0  0  0  0  0  0
  187.4850  178.2200  138.5560 C   0  0  0  0  0  2  0  0  0  0  0  0
  187.9790  177.1710  137.6770 N   0  0  0  0  0  0  0  0  0  0  0  0
  189.5040  175.6570  136.5980 C   0  0  1  0  0  3  0  0  0  0  0  0
  187.1960  176.5720  136.6200 C   0  0  0  0  0  3  0  0  0  0  0  0
  190.1960  177.0430  138.4530 O   0  0  0  0  0  0  0  0  0  0  0  0
  189.2960  176.6640  137.6560 C   0  0  0  0  0  0  0  0  0  0  0  0
  189.8100  174.3070  137.2180 C   0  0  0  0  0  1  0  0  0  0  0  0
  188.1390  175.5960  135.9000 C   0  0  0  0  0  3  0  0  0  0  0  0
  186.3140  178.6450  141.0680 C   0  0  0  0  0  2  0  0  0  0  0  0
  185.0730  178.2530  143.7190 C   0  0  0  0  0  3  0  0  0  0  0  0
  187.2810  177.8780  144.6500 C   0  0  0  0  0  0  0  0  0  0  0  0
  186.9050  177.6800  142.1030 C   0  0  2  0  0  3  0  0  0  0  0  0
  185.4170  178.4360  146.1010 C   0  0  0  0  0  0  0  0  0  0  0  0
  186.4370  177.9840  143.5170 C   0  0  0  0  0  0  0  0  0  0  0  0
  188.9950  176.6020  143.3930 C   0  0  0  0  0  2  0  0  0  0  0  0
  186.7660  178.1270  145.9270 C   0  0  0  0  0  3  0  0  0  0  0  0
  188.7340  177.5390  144.5500 C   0  0  0  0  0  2  0  0  0  0  0  0
  184.9300  178.6720  147.3430 F   0  0  0  0  0  0  0  0  0  0  0  0
  184.5670  178.4860  144.9990 C   0  0  0  0  0  3  0  0  0  0  0  0
  188.7170  177.5210  141.8610 S   0  0  0  0  0  0  0  0  0  0  0  0
  1  6  1  0  0  0  0
  2  8  1  6  0  0  0
  2  6  1  0  0  0  0
  3  4  1  1  0  0  0
  3  2  1  0  0  0  0
  5  1  1  0  0  0  0
  5  3  1  0  0  0  0
  6 17  1  1  0  0  0
  7  8  1  0  0  0  0
  9  1  1  0  0  0  0
 10  9  1  0  0  0  0
 11 15  1  1  0  0  0
 11 14  1  0  0  0  0
 12 10  1  0  0  0  0
 14 10  1  0  0  0  0
 14 13  2  0  0  0  0
 16 11  1  0  0  0  0
 16 12  2  0  0  0  0
 18 27  1  0  0  0  0
 19 24  2  0  0  0  0
 20 17  1  6  0  0  0
 20 22  1  0  0  0  0
 21 26  1  0  0  0  0
 22 18  2  0  0  0  0
 22 19  1  0  0  0  0
 23 25  1  0  0  0  0
 24 21  1  0  0  0  0
 25 19  1  0  0  0  0
 27 21  2  0  0  0  0
 28 20  1  0  0  0  0
 28 23  1  0  0  0  0
M  END
>  <MODEL>
8

>  <REMARK>
 VINA RESULT:      -7.0      3.614      5.292
  Name = 
  5 active torsions:
  status: ('A' for Active; 'I' for Inactive)
    1  A    between atoms: N_1  and  C_2
    2  A    between atoms: C_2  and  N_3
    3  A    between atoms: C_10  and  C_17
    4  A    between atoms: C_16  and  C_20
    5  A    between atoms: C_17  and  C_27
                            x       y       z     vdW  Elec       q    Type
                         _______ _______ _______ _____ _____    ______ ____

>  <TORSDO>
F 5

$$$$
=
 OpenBabel11052413203D

 28 31  0  0  1  0  0  0  0  0999 V2000
  184.5840  178.0720  142.5200 N   0  0  0  0  0  0  0  0  0  0  0  0
  185.6050  178.6890  144.5110 C   0  0  2  0  0  3  0  0  0  0  0  0
  184.3990  179.5300  144.1510 C   0  0  1  0  0  3  0  0  0  0  0  0
  184.6880  180.8770  144.3620 O   0  0  0  0  0  1  0  0  0  0  0  0
  184.1100  179.3190  142.7900 O   0  0  0  0  0  0  0  0  0  0  0  0
  185.8510  177.9360  143.2410 C   0  0  2  0  0  3  0  0  0  0  0  0
  184.5590  178.3800  146.6330 O   0  0  0  0  0  1  0  0  0  0  0  0
  185.2460  177.7140  145.6180 C   0  0  0  0  0  2  0  0  0  0  0  0
  184.7350  177.9300  141.0750 C   0  0  0  0  0  2  0  0  0  0  0  0
  183.5220  178.3740  140.4060 N   0  0  0  0  0  0  0  0  0  0  0  0
  182.0460  179.6920  139.0390 C   0  0  1  0  0  3  0  0  0  0  0  0
  182.2090  177.8350  140.6790 C   0  0  0  0  0  3  0  0  0  0  0  0
  184.4260  180.1080  139.0980 O   0  0  0  0  0  0  0  0  0  0  0  0
  183.4290  179.4400  139.4850 C   0  0  0  0  0  0  0  0  0  0  0  0
  181.9190  179.4070  137.5540 C   0  0  0  0  0  1  0  0  0  0  0  0
  181.2310  178.6560  139.8250 C   0  0  0  0  0  3  0  0  0  0  0  0
  187.0400  178.6020  142.5240 C   0  0  0  0  0  2  0  0  0  0  0  0
  188.8310  177.3820  144.5300 C   0  0  0  0  0  3  0  0  0  0  0  0
  190.5870  177.3140  142.8580 C   0  0  0  0  0  0  0  0  0  0  0  0
  188.1250  177.5930  142.1310 C   0  0  2  0  0  3  0  0  0  0  0  0
  191.1300  177.1190  145.2160 C   0  0  0  0  0  0  0  0  0  0  0  0
  189.2160  177.4720  143.1820 C   0  0  0  0  0  0  0  0  0  0  0  0
  190.0790  176.7530  140.4970 C   0  0  0  0  0  2  0  0  0  0  0  0
  191.5310  177.1620  143.8800 C   0  0  0  0  0  3  0  0  0  0  0  0
  191.0960  177.3360  141.4530 C   0  0  0  0  0  2  0  0  0  0  0  0
  192.0530  176.9660  146.1960 F   0  0  0  0  0  0  0  0  0  0  0  0
  189.7790  177.2160  145.5400 C   0  0  0  0  0  3  0  0  0  0  0  0
  188.6810  177.8960  140.4090 S   0  0  0  0  0  0  0  0  0  0  0  0
  1  5  1  0  0  0  0
  1  6  1  0  0  0  0
  2  8  1  1  0  0  0
  3  4  1  6  0  0  0
  3  2  1  0  0  0  0
  5  3  1  0  0  0  0
  6 17  1  6  0  0  0
  6  2  1  0  0  0  0
  8  7  1  0  0  0  0
  9  1  1  0  0  0  0
 10 12  1  0  0  0  0
 10  9  1  0  0  0  0
 11 15  1  6  0  0  0
 11 14  1  0  0  0  0
 11 16  1  0  0  0  0
 13 14  2  0  0  0  0
 14 10  1  0  0  0  0
 16 12  2  0  0  0  0
 18 27  1  0  0  0  0
 19 22  1  0  0  0  0
 19 24  2  0  0  0  0
 20 17  1  1  0  0  0
 20 22  1  0  0  0  0
 21 27  2  0  0  0  0
 21 26  1  0  0  0  0
 22 18  2  0  0  0  0
 23 25  1  0  0  0  0
 24 21  1  0  0  0  0
 25 19  1  0  0  0  0
 28 23  1  0  0  0  0
 28 20  1  0  0  0  0
M  END
>  <MODEL>
9

>  <REMARK>
 VINA RESULT:      -6.9      4.389      6.200
  Name = 
  5 active torsions:
  status: ('A' for Active; 'I' for Inactive)
    1  A    between atoms: N_1  and  C_2
    2  A    between atoms: C_2  and  N_3
    3  A    between atoms: C_10  and  C_17
    4  A    between atoms: C_16  and  C_20
    5  A    between atoms: C_17  and  C_27
                            x       y       z     vdW  Elec       q    Type
                         _______ _______ _______ _____ _____    ______ ____

>  <TORSDO>
F 5

$$$$
