=
 OpenBabel11052412403D

 25 28  0  0  1  0  0  0  0  0999 V2000
  187.0080  177.9720  145.6300 C   0  0  0  0  0  0  0  0  0  0  0  0
  188.2990  177.5230  145.3480 C   0  0  0  0  0  0  0  0  0  0  0  0
  187.4590  178.0950  148.0030 C   0  0  0  0  0  3  0  0  0  0  0  0
  185.9230  178.2300  144.8310 C   0  0  1  0  0  3  0  0  0  0  0  0
  183.4460  178.9110  143.8060 C   0  0  0  0  0  3  0  0  0  0  0  0
  188.7670  177.6430  147.7520 C   0  0  0  0  0  3  0  0  0  0  0  0
  184.9200  178.6500  145.6800 C   0  0  0  0  0  0  0  0  0  0  0  0
  183.6620  179.0000  145.1940 C   0  0  0  0  0  3  0  0  0  0  0  0
  190.4900  176.9010  146.1460 C   0  0  0  0  0  0  0  0  0  0  0  0
  191.4990  176.6880  147.2240 C   0  0  0  0  0  1  0  0  0  0  0  0
  188.7000  177.2490  144.0810 N   0  0  0  0  0  0  0  0  0  0  0  0
  184.4770  178.4810  142.9430 C   0  0  0  0  0  3  0  0  0  0  0  0
  186.5980  178.2500  146.9190 C   0  0  0  0  0  0  0  0  0  0  0  0
  185.3130  178.6700  146.9740 N   0  0  0  0  0  0  0  0  0  0  0  0
  190.8400  176.6400  144.8580 N   0  0  0  0  0  0  0  0  0  0  0  0
  185.7400  178.1320  143.4530 C   0  0  0  0  0  3  0  0  0  0  0  0
  189.9640  176.8180  143.8330 C   0  0  0  0  0  0  0  0  0  0  0  0
  189.1940  177.3550  146.4320 C   0  0  0  0  0  0  0  0  0  0  0  0
  190.3760  176.4950  142.4420 C   0  0  0  0  0  2  0  0  0  0  0  0
  189.3350  176.9090  141.5170 N   0  0  0  0  0  2  0  0  0  0  0  0
  189.6360  177.4120  140.2140 C   0  0  0  0  0  0  0  0  0  0  0  0
  190.8320  177.5150  139.8290 O   0  0  0  0  0  0  0  0  0  0  0  0
  188.5350  177.8360  139.3010 C   0  0  1  0  0  3  0  0  0  0  0  0
  187.5740  178.5530  140.0130 O   0  0  0  0  0  1  0  0  0  0  0  0
  189.0870  178.6970  138.1810 C   0  0  0  0  0  1  0  0  0  0  0  0
  1 13  1  0  0  0  0
  2  1  2  0  0  0  0
  2 18  1  0  0  0  0
  4 16  1  6  0  0  0
  4  1  1  0  0  0  0
  4  7  1  0  0  0  0
  5  8  2  0  0  0  0
  6  3  1  0  0  0  0
  7 14  2  0  0  0  0
  8  7  1  0  0  0  0
  9 18  1  0  0  0  0
  9 10  1  0  0  0  0
 11  2  1  0  0  0  0
 12 16  2  0  0  0  0
 12  5  1  0  0  0  0
 13 14  1  0  0  0  0
 13  3  2  0  0  0  0
 15  9  2  0  0  0  0
 17 11  2  0  0  0  0
 17 15  1  0  0  0  0
 18  6  2  0  0  0  0
 19 17  1  0  0  0  0
 20 19  1  0  0  0  0
 21 20  1  0  0  0  0
 22 21  2  0  0  0  0
 23 25  1  6  0  0  0
 23 24  1  0  0  0  0
 23 21  1  0  0  0  0
M  END
>  <MODEL>
1

>  <REMARK>
 VINA RESULT:     -11.1      0.000      0.000
  Name = 
  3 active torsions:
  status: ('A' for Active; 'I' for Inactive)
    1  A    between atoms: C_2  and  C_21
    2  A    between atoms: C_6  and  N_15
    3  A    between atoms: C_6  and  C_23
                            x       y       z     vdW  Elec       q    Type
                         _______ _______ _______ _____ _____    ______ ____

>  <TORSDO>
F 3

$$$$
=
 OpenBabel11052412403D

 25 28  0  0  1  0  0  0  0  0999 V2000
  186.8450  177.9780  144.7430 C   0  0  0  0  0  0  0  0  0  0  0  0
  188.1200  177.6800  144.2630 C   0  0  0  0  0  0  0  0  0  0  0  0
  187.5430  177.7250  147.0460 C   0  0  0  0  0  3  0  0  0  0  0  0
  185.6680  178.2900  144.1120 C   0  0  1  0  0  3  0  0  0  0  0  0
  183.0610  178.9550  143.4700 C   0  0  0  0  0  3  0  0  0  0  0  0
  188.8390  177.4190  146.5920 C   0  0  0  0  0  3  0  0  0  0  0  0
  184.7410  178.4840  145.1150 C   0  0  0  0  0  0  0  0  0  0  0  0
  183.4200  178.8200  144.8230 C   0  0  0  0  0  3  0  0  0  0  0  0
  190.4160  177.0910  144.7210 C   0  0  0  0  0  0  0  0  0  0  0  0
  191.5460  176.7700  145.6410 C   0  0  0  0  0  1  0  0  0  0  0  0
  188.3960  177.6570  142.9330 N   0  0  0  0  0  0  0  0  0  0  0  0
  184.0140  178.7550  142.4480 C   0  0  0  0  0  3  0  0  0  0  0  0
  186.5630  178.0000  146.0940 C   0  0  0  0  0  0  0  0  0  0  0  0
  185.2700  178.3110  146.3480 N   0  0  0  0  0  0  0  0  0  0  0  0
  190.6380  177.0810  143.3790 N   0  0  0  0  0  0  0  0  0  0  0  0
  185.3420  178.4170  142.7630 C   0  0  0  0  0  3  0  0  0  0  0  0
  189.6480  177.3670  142.4920 C   0  0  0  0  0  0  0  0  0  0  0  0
  189.1350  177.3940  145.2080 C   0  0  0  0  0  0  0  0  0  0  0  0
  189.9240  177.3190  141.0320 C   0  0  0  0  0  2  0  0  0  0  0  0
  188.6710  177.2320  140.3020 N   0  0  0  0  0  2  0  0  0  0  0  0
  188.3540  178.1250  139.2320 C   0  0  0  0  0  0  0  0  0  0  0  0
  189.1650  179.0280  138.8920 O   0  0  0  0  0  0  0  0  0  0  0  0
  187.0510  178.0060  138.5170 C   0  0  1  0  0  3  0  0  0  0  0  0
  186.1050  178.8470  139.1050 O   0  0  0  0  0  1  0  0  0  0  0  0
  187.2210  178.3720  137.0550 C   0  0  0  0  0  1  0  0  0  0  0  0
  1 13  1  0  0  0  0
  2  1  2  0  0  0  0
  2 18  1  0  0  0  0
  4 16  1  1  0  0  0
  4  1  1  0  0  0  0
  4  7  1  0  0  0  0
  5  8  2  0  0  0  0
  6  3  1  0  0  0  0
  7 14  2  0  0  0  0
  8  7  1  0  0  0  0
  9 18  1  0  0  0  0
  9 10  1  0  0  0  0
 11  2  1  0  0  0  0
 12 16  2  0  0  0  0
 12  5  1  0  0  0  0
 13 14  1  0  0  0  0
 13  3  2  0  0  0  0
 15  9  2  0  0  0  0
 17 11  2  0  0  0  0
 17 15  1  0  0  0  0
 18  6  2  0  0  0  0
 19 17  1  0  0  0  0
 20 19  1  0  0  0  0
 21 20  1  0  0  0  0
 22 21  2  0  0  0  0
 23 25  1  6  0  0  0
 23 24  1  0  0  0  0
 23 21  1  0  0  0  0
M  END
>  <MODEL>
2

>  <REMARK>
 VINA RESULT:     -10.2      1.148      1.349
  Name = 
  3 active torsions:
  status: ('A' for Active; 'I' for Inactive)
    1  A    between atoms: C_2  and  C_21
    2  A    between atoms: C_6  and  N_15
    3  A    between atoms: C_6  and  C_23
                            x       y       z     vdW  Elec       q    Type
                         _______ _______ _______ _____ _____    ______ ____

>  <TORSDO>
F 3

$$$$
=
 OpenBabel11052412403D

 25 28  0  0  1  0  0  0  0  0999 V2000
  187.7840  177.7190  145.5850 C   0  0  0  0  0  0  0  0  0  0  0  0
  186.9160  178.0740  144.5530 C   0  0  0  0  0  0  0  0  0  0  0  0
  186.0900  178.0860  147.2730 C   0  0  0  0  0  3  0  0  0  0  0  0
  189.0970  177.3210  145.5950 C   0  0  0  0  0  0  0  0  0  0  0  0
  191.6440  176.4880  146.2790 C   0  0  0  0  0  3  0  0  0  0  0  0
  185.1910  178.4500  146.2540 C   0  0  0  0  0  3  0  0  0  0  0  0
  189.4180  177.1060  146.9200 C   0  0  0  0  0  0  0  0  0  0  0  0
  190.6920  176.6870  147.2960 C   0  0  0  0  0  3  0  0  0  0  0  0
  184.7240  178.8070  143.8560 C   0  0  0  0  0  0  0  0  0  0  0  0
  183.3160  179.2200  144.1230 C   0  0  0  0  0  1  0  0  0  0  0  0
  187.3100  178.0690  143.2540 N   0  0  0  0  0  0  0  0  0  0  0  0
  191.3100  176.7090  144.9260 C   0  0  0  0  0  3  0  0  0  0  0  0
  187.3850  177.7240  146.9070 C   0  0  2  0  0  3  0  0  0  0  0  0
  188.3760  177.3500  147.7490 N   0  0  0  0  0  0  0  0  0  0  0  0
  185.1710  178.7850  142.5720 N   0  0  0  0  0  0  0  0  0  0  0  0
  190.0180  177.1310  144.5670 C   0  0  0  0  0  3  0  0  0  0  0  0
  186.4430  178.4140  142.2670 C   0  0  0  0  0  0  0  0  0  0  0  0
  185.5940  178.4470  144.8970 C   0  0  0  0  0  0  0  0  0  0  0  0
  186.9010  178.4320  140.8520 C   0  0  0  0  0  2  0  0  0  0  0  0
  188.2130  177.8130  140.7580 N   0  0  0  0  0  2  0  0  0  0  0  0
  189.1290  178.1370  139.7100 C   0  0  0  0  0  0  0  0  0  0  0  0
  188.8150  178.9770  138.8240 O   0  0  0  0  0  0  0  0  0  0  0  0
  190.4600  177.4690  139.6450 C   0  0  1  0  0  3  0  0  0  0  0  0
  190.6280  176.6310  140.7480 O   0  0  0  0  0  1  0  0  0  0  0  0
  190.5800  176.6620  138.3670 C   0  0  0  0  0  1  0  0  0  0  0  0
  1  4  2  0  0  0  0
  1 13  1  0  0  0  0
  2 18  2  0  0  0  0
  2  1  1  0  0  0  0
  4  7  1  0  0  0  0
  5  8  2  0  0  0  0
  6  3  2  0  0  0  0
  7  8  1  0  0  0  0
  7 14  2  0  0  0  0
  9 10  1  0  0  0  0
  9 18  1  0  0  0  0
 11  2  1  0  0  0  0
 12  5  1  0  0  0  0
 13  3  1  1  0  0  0
 13 14  1  0  0  0  0
 15  9  2  0  0  0  0
 16 12  2  0  0  0  0
 16  4  1  0  0  0  0
 17 15  1  0  0  0  0
 17 11  2  0  0  0  0
 18  6  1  0  0  0  0
 19 17  1  0  0  0  0
 20 19  1  0  0  0  0
 21 20  1  0  0  0  0
 22 21  2  0  0  0  0
 23 25  1  6  0  0  0
 23 21  1  0  0  0  0
 23 24  1  0  0  0  0
M  END
>  <MODEL>
3

>  <REMARK>
 VINA RESULT:     -10.2      1.594      4.648
  Name = 
  3 active torsions:
  status: ('A' for Active; 'I' for Inactive)
    1  A    between atoms: C_2  and  C_21
    2  A    between atoms: C_6  and  N_15
    3  A    between atoms: C_6  and  C_23
                            x       y       z     vdW  Elec       q    Type
                         _______ _______ _______ _____ _____    ______ ____

>  <TORSDO>
F 3

$$$$
=
 OpenBabel11052412403D

 25 28  0  0  1  0  0  0  0  0999 V2000
  189.4250  177.4770  143.9150 C   0  0  0  0  0  0  0  0  0  0  0  0
  188.8710  177.7840  142.6730 C   0  0  0  0  0  0  0  0  0  0  0  0
  191.5370  176.8320  142.9260 C   0  0  0  0  0  3  0  0  0  0  0  0
  188.9250  177.5310  145.1910 C   0  0  1  0  0  3  0  0  0  0  0  0
  188.5280  177.4150  147.9260 C   0  0  0  0  0  3  0  0  0  0  0  0
  191.0060  177.1330  141.6590 C   0  0  0  0  0  3  0  0  0  0  0  0
  189.9440  177.1010  146.0160 C   0  0  0  0  0  0  0  0  0  0  0  0
  189.7750  177.0310  147.3970 C   0  0  0  0  0  3  0  0  0  0  0  0
  189.1170  177.9140  140.2750 C   0  0  0  0  0  0  0  0  0  0  0  0
  189.8900  177.7530  139.0090 C   0  0  0  0  0  1  0  0  0  0  0  0
  187.5970  178.2380  142.5510 N   0  0  0  0  0  0  0  0  0  0  0  0
  187.4900  177.8550  147.0770 C   0  0  0  0  0  3  0  0  0  0  0  0
  190.7200  177.0140  144.0410 C   0  0  0  0  0  0  0  0  0  0  0  0
  191.0630  176.7760  145.3280 N   0  0  0  0  0  0  0  0  0  0  0  0
  187.8350  178.3640  140.2090 N   0  0  0  0  0  0  0  0  0  0  0  0
  187.6810  177.9180  145.6850 C   0  0  0  0  0  3  0  0  0  0  0  0
  187.0830  178.5340  141.3290 C   0  0  0  0  0  0  0  0  0  0  0  0
  189.6790  177.6070  141.5230 C   0  0  0  0  0  0  0  0  0  0  0  0
  185.6760  179.0020  141.2120 C   0  0  0  0  0  2  0  0  0  0  0  0
  185.1210  179.2120  142.5390 N   0  0  0  0  0  2  0  0  0  0  0  0
  183.7370  179.0030  142.8220 C   0  0  0  0  0  0  0  0  0  0  0  0
  182.9480  178.6280  141.9140 O   0  0  0  0  0  0  0  0  0  0  0  0
  183.2080  179.2420  144.1960 C   0  0  1  0  0  3  0  0  0  0  0  0
  181.9640  178.6280  144.3430 O   0  0  0  0  0  1  0  0  0  0  0  0
  184.1730  178.6940  145.2300 C   0  0  0  0  0  1  0  0  0  0  0  0
  1 13  2  0  0  0  0
  1  4  1  0  0  0  0
  2  1  1  0  0  0  0
  3 13  1  0  0  0  0
  4 16  1  1  0  0  0
  4  7  1  0  0  0  0
  6  3  2  0  0  0  0
  7  8  1  0  0  0  0
  8  5  2  0  0  0  0
  9 18  1  0  0  0  0
 10  9  1  0  0  0  0
 11  2  1  0  0  0  0
 12  5  1  0  0  0  0
 13 14  1  0  0  0  0
 14  7  2  0  0  0  0
 15  9  2  0  0  0  0
 15 17  1  0  0  0  0
 16 12  2  0  0  0  0
 17 11  2  0  0  0  0
 18  6  1  0  0  0  0
 18  2  2  0  0  0  0
 19 17  1  0  0  0  0
 19 20  1  0  0  0  0
 20 21  1  0  0  0  0
 21 23  1  0  0  0  0
 22 21  2  0  0  0  0
 23 24  1  0  0  0  0
 23 25  1  1  0  0  0
M  END
>  <MODEL>
4

>  <REMARK>
 VINA RESULT:      -9.9      2.430      5.885
  Name = 
  3 active torsions:
  status: ('A' for Active; 'I' for Inactive)
    1  A    between atoms: C_2  and  C_21
    2  A    between atoms: C_6  and  N_15
    3  A    between atoms: C_6  and  C_23
                            x       y       z     vdW  Elec       q    Type
                         _______ _______ _______ _____ _____    ______ ____

>  <TORSDO>
F 3

$$$$
=
 OpenBabel11052412403D

 25 28  0  0  1  0  0  0  0  0999 V2000
  187.0540  177.8590  144.8960 C   0  0  0  0  0  0  0  0  0  0  0  0
  188.2270  177.4420  144.2670 C   0  0  0  0  0  0  0  0  0  0  0  0
  188.0550  177.6940  147.0930 C   0  0  0  0  0  3  0  0  0  0  0  0
  185.8210  178.2160  144.4140 C   0  0  1  0  0  3  0  0  0  0  0  0
  183.1960  179.0260  144.0920 C   0  0  0  0  0  3  0  0  0  0  0  0
  189.2520  177.2700  146.4870 C   0  0  0  0  0  3  0  0  0  0  0  0
  185.0600  178.5360  145.5190 C   0  0  0  0  0  0  0  0  0  0  0  0
  183.7350  178.9470  145.3900 C   0  0  0  0  0  3  0  0  0  0  0  0
  190.5230  176.7190  144.4440 C   0  0  0  0  0  0  0  0  0  0  0  0
  191.7500  176.3740  145.2190 C   0  0  0  0  0  1  0  0  0  0  0  0
  188.3090  177.3210  142.9170 N   0  0  0  0  0  0  0  0  0  0  0  0
  183.9800  178.6980  142.9660 C   0  0  0  0  0  3  0  0  0  0  0  0
  186.9690  177.9820  146.2690 C   0  0  0  0  0  0  0  0  0  0  0  0
  185.7470  178.3990  146.6760 N   0  0  0  0  0  0  0  0  0  0  0  0
  190.5510  176.6130  143.0880 N   0  0  0  0  0  0  0  0  0  0  0  0
  185.3150  178.2860  143.1170 C   0  0  0  0  0  3  0  0  0  0  0  0
  189.4650  176.9170  142.3280 C   0  0  0  0  0  0  0  0  0  0  0  0
  189.3460  177.1410  145.0800 C   0  0  0  0  0  0  0  0  0  0  0  0
  189.5280  176.7610  140.8510 C   0  0  0  0  0  2  0  0  0  0  0  0
  190.8340  177.1820  140.3720 N   0  0  0  0  0  2  0  0  0  0  0  0
  191.4550  176.5780  139.2360 C   0  0  0  0  0  0  0  0  0  0  0  0
  190.8770  175.6480  138.6110 O   0  0  0  0  0  0  0  0  0  0  0  0
  192.8010  177.0350  138.7860 C   0  0  1  0  0  3  0  0  0  0  0  0
  193.6660  177.1180  139.8780 O   0  0  0  0  0  1  0  0  0  0  0  0
  193.3650  176.0700  137.7610 C   0  0  0  0  0  1  0  0  0  0  0  0
  1 13  1  0  0  0  0
  2  1  2  0  0  0  0
  2 18  1  0  0  0  0
  4 16  1  6  0  0  0
  4  1  1  0  0  0  0
  4  7  1  0  0  0  0
  5  8  2  0  0  0  0
  6  3  1  0  0  0  0
  7 14  2  0  0  0  0
  8  7  1  0  0  0  0
  9 18  1  0  0  0  0
  9 10  1  0  0  0  0
 11  2  1  0  0  0  0
 12 16  2  0  0  0  0
 12  5  1  0  0  0  0
 13 14  1  0  0  0  0
 13  3  2  0  0  0  0
 15  9  2  0  0  0  0
 17 11  2  0  0  0  0
 17 15  1  0  0  0  0
 18  6  2  0  0  0  0
 19 17  1  0  0  0  0
 20 19  1  0  0  0  0
 21 20  1  0  0  0  0
 22 21  2  0  0  0  0
 23 25  1  6  0  0  0
 23 21  1  0  0  0  0
 23 24  1  0  0  0  0
M  END
>  <MODEL>
5

>  <REMARK>
 VINA RESULT:      -9.9      1.691      2.226
  Name = 
  3 active torsions:
  status: ('A' for Active; 'I' for Inactive)
    1  A    between atoms: C_2  and  C_21
    2  A    between atoms: C_6  and  N_15
    3  A    between atoms: C_6  and  C_23
                            x       y       z     vdW  Elec       q    Type
                         _______ _______ _______ _____ _____    ______ ____

>  <TORSDO>
F 3

$$$$
=
 OpenBabel11052412403D

 25 28  0  0  1  0  0  0  0  0999 V2000
  186.0190  178.3910  144.9370 C   0  0  0  0  0  0  0  0  0  0  0  0
  186.0010  178.4380  143.5430 C   0  0  0  0  0  0  0  0  0  0  0  0
  183.6510  178.8630  145.0860 C   0  0  0  0  0  3  0  0  0  0  0  0
  187.0240  178.1640  145.8420 C   0  0  1  0  0  3  0  0  0  0  0  0
  188.5560  177.7880  148.1150 C   0  0  0  0  0  3  0  0  0  0  0  0
  183.6000  178.9170  143.6810 C   0  0  0  0  0  3  0  0  0  0  0  0
  186.4370  178.2430  147.0880 C   0  0  0  0  0  0  0  0  0  0  0  0
  187.1820  178.0590  148.2510 C   0  0  0  0  0  3  0  0  0  0  0  0
  184.7510  178.7570  141.5030 C   0  0  0  0  0  0  0  0  0  0  0  0
  183.4980  179.0400  140.7440 C   0  0  0  0  0  1  0  0  0  0  0  0
  187.1230  178.2360  142.8060 N   0  0  0  0  0  0  0  0  0  0  0  0
  189.1510  177.7080  146.8370 C   0  0  0  0  0  3  0  0  0  0  0  0
  184.8790  178.5980  145.6880 C   0  0  0  0  0  0  0  0  0  0  0  0
  185.1130  178.5110  147.0180 N   0  0  0  0  0  0  0  0  0  0  0  0
  185.9040  178.5480  140.8120 N   0  0  0  0  0  0  0  0  0  0  0  0
  188.3820  177.8960  145.6750 C   0  0  0  0  0  3  0  0  0  0  0  0
  187.0770  178.2820  141.4490 C   0  0  0  0  0  0  0  0  0  0  0  0
  184.7660  178.7070  142.9050 C   0  0  0  0  0  0  0  0  0  0  0  0
  188.3210  178.0880  140.6590 C   0  0  0  0  0  2  0  0  0  0  0  0
  189.4730  178.1520  141.5420 N   0  0  0  0  0  2  0  0  0  0  0  0
  190.4570  177.1170  141.5810 C   0  0  0  0  0  0  0  0  0  0  0  0
  190.3470  176.1030  140.8400 O   0  0  0  0  0  0  0  0  0  0  0  0
  191.6180  177.2190  142.5110 C   0  0  1  0  0  3  0  0  0  0  0  0
  191.6420  178.4800  143.1070 O   0  0  0  0  0  1  0  0  0  0  0  0
  191.5270  176.1500  143.5820 C   0  0  0  0  0  1  0  0  0  0  0  0
  1 13  2  0  0  0  0
  1  4  1  0  0  0  0
  2  1  1  0  0  0  0
  3 13  1  0  0  0  0
  4 16  1  6  0  0  0
  4  7  1  0  0  0  0
  5  8  2  0  0  0  0
  6  3  2  0  0  0  0
  7  8  1  0  0  0  0
  9 18  1  0  0  0  0
 10  9  1  0  0  0  0
 11  2  1  0  0  0  0
 12  5  1  0  0  0  0
 13 14  1  0  0  0  0
 14  7  2  0  0  0  0
 15 17  1  0  0  0  0
 15  9  2  0  0  0  0
 16 12  2  0  0  0  0
 17 11  2  0  0  0  0
 18  2  2  0  0  0  0
 18  6  1  0  0  0  0
 19 17  1  0  0  0  0
 19 20  1  0  0  0  0
 20 21  1  0  0  0  0
 21 23  1  0  0  0  0
 22 21  2  0  0  0  0
 23 24  1  0  0  0  0
 23 25  1  1  0  0  0
M  END
>  <MODEL>
6

>  <REMARK>
 VINA RESULT:      -9.8      1.626      4.830
  Name = 
  3 active torsions:
  status: ('A' for Active; 'I' for Inactive)
    1  A    between atoms: C_2  and  C_21
    2  A    between atoms: C_6  and  N_15
    3  A    between atoms: C_6  and  C_23
                            x       y       z     vdW  Elec       q    Type
                         _______ _______ _______ _____ _____    ______ ____

>  <TORSDO>
F 3

$$$$
=
 OpenBabel11052412403D

 25 28  0  0  1  0  0  0  0  0999 V2000
  186.6970  178.0180  144.7330 C   0  0  0  0  0  0  0  0  0  0  0  0
  185.6770  178.3180  143.8300 C   0  0  0  0  0  0  0  0  0  0  0  0
  185.2350  178.3140  146.6380 C   0  0  0  0  0  3  0  0  0  0  0  0
  188.0170  177.6890  144.5630 C   0  0  0  0  0  0  0  0  0  0  0  0
  190.6750  176.9950  144.8900 C   0  0  0  0  0  3  0  0  0  0  0  0
  184.1860  178.6220  145.7520 C   0  0  0  0  0  3  0  0  0  0  0  0
  188.5290  177.5040  145.8310 C   0  0  0  0  0  0  0  0  0  0  0  0
  189.8630  177.1540  146.0280 C   0  0  0  0  0  3  0  0  0  0  0  0
  183.3750  178.9310  143.4410 C   0  0  0  0  0  0  0  0  0  0  0  0
  181.9970  179.2740  143.8990 C   0  0  0  0  0  1  0  0  0  0  0  0
  185.8880  178.3210  142.4890 N   0  0  0  0  0  0  0  0  0  0  0  0
  190.1460  177.1850  143.5950 C   0  0  0  0  0  3  0  0  0  0  0  0
  186.4840  178.0160  146.0970 C   0  0  2  0  0  3  0  0  0  0  0  0
  187.6000  177.7010  146.7950 N   0  0  0  0  0  0  0  0  0  0  0  0
  183.6410  178.9200  142.1070 N   0  0  0  0  0  0  0  0  0  0  0  0
  188.7960  177.5370  143.4170 C   0  0  0  0  0  3  0  0  0  0  0  0
  184.8770  178.6130  141.6300 C   0  0  0  0  0  0  0  0  0  0  0  0
  184.3980  178.6270  144.3520 C   0  0  0  0  0  0  0  0  0  0  0  0
  185.1330  178.6400  140.1660 C   0  0  0  0  0  2  0  0  0  0  0  0
  186.5660  178.6270  139.9230 N   0  0  0  0  0  2  0  0  0  0  0  0
  187.1280  178.0650  138.7350 C   0  0  0  0  0  0  0  0  0  0  0  0
  186.3830  177.5540  137.8560 O   0  0  0  0  0  0  0  0  0  0  0  0
  188.6050  178.0650  138.5320 C   0  0  1  0  0  3  0  0  0  0  0  0
  189.0560  179.3640  138.2990 O   0  0  0  0  0  1  0  0  0  0  0  0
  189.3010  177.4950  139.7530 C   0  0  0  0  0  1  0  0  0  0  0  0
  1 13  1  0  0  0  0
  2 18  2  0  0  0  0
  2  1  1  0  0  0  0
  4  1  2  0  0  0  0
  4  7  1  0  0  0  0
  5  8  2  0  0  0  0
  6  3  2  0  0  0  0
  7  8  1  0  0  0  0
  7 14  2  0  0  0  0
  9 10  1  0  0  0  0
  9 18  1  0  0  0  0
 11  2  1  0  0  0  0
 12  5  1  0  0  0  0
 13  3  1  1  0  0  0
 13 14  1  0  0  0  0
 15  9  2  0  0  0  0
 16 12  2  0  0  0  0
 16  4  1  0  0  0  0
 17 15  1  0  0  0  0
 17 11  2  0  0  0  0
 18  6  1  0  0  0  0
 19 17  1  0  0  0  0
 20 19  1  0  0  0  0
 21 20  1  0  0  0  0
 22 21  2  0  0  0  0
 23 21  1  0  0  0  0
 23 25  1  1  0  0  0
 24 23  1  0  0  0  0
M  END
>  <MODEL>
7

>  <REMARK>
 VINA RESULT:      -9.7      1.958      4.963
  Name = 
  3 active torsions:
  status: ('A' for Active; 'I' for Inactive)
    1  A    between atoms: C_2  and  C_21
    2  A    between atoms: C_6  and  N_15
    3  A    between atoms: C_6  and  C_23
                            x       y       z     vdW  Elec       q    Type
                         _______ _______ _______ _____ _____    ______ ____

>  <TORSDO>
F 3

$$$$
=
 OpenBabel11052412403D

 25 28  0  0  1  0  0  0  0  0999 V2000
  186.3390  178.3560  142.7930 C   0  0  0  0  0  0  0  0  0  0  0  0
  187.4510  178.1300  141.9820 C   0  0  0  0  0  0  0  0  0  0  0  0
  184.9420  178.9070  140.8960 C   0  0  0  0  0  3  0  0  0  0  0  0
  186.1530  178.2840  144.1500 C   0  0  1  0  0  3  0  0  0  0  0  0
  185.1500  178.3200  146.7280 C   0  0  0  0  0  3  0  0  0  0  0  0
  186.0460  178.6880  140.0520 C   0  0  0  0  0  3  0  0  0  0  0  0
  184.8320  178.6200  144.3690 C   0  0  0  0  0  0  0  0  0  0  0  0
  184.2980  178.6470  145.6560 C   0  0  0  0  0  3  0  0  0  0  0  0
  188.4210  178.0760  139.7730 C   0  0  0  0  0  0  0  0  0  0  0  0
  188.3580  178.2380  138.2910 C   0  0  0  0  0  1  0  0  0  0  0  0
  188.6500  177.7600  142.5000 N   0  0  0  0  0  0  0  0  0  0  0  0
  186.4990  177.9770  146.4960 C   0  0  0  0  0  3  0  0  0  0  0  0
  185.1190  178.7340  142.2680 C   0  0  0  0  0  0  0  0  0  0  0  0
  184.1740  178.9020  143.2210 N   0  0  0  0  0  0  0  0  0  0  0  0
  189.5990  177.7070  140.3440 N   0  0  0  0  0  0  0  0  0  0  0  0
  187.0190  177.9550  145.1910 C   0  0  0  0  0  3  0  0  0  0  0  0
  189.7170  177.5420  141.6880 C   0  0  0  0  0  0  0  0  0  0  0  0
  187.3000  178.3010  140.5850 C   0  0  0  0  0  0  0  0  0  0  0  0
  191.0300  177.1650  142.2760 C   0  0  0  0  0  2  0  0  0  0  0  0
  191.0160  177.4280  143.7050 N   0  0  0  0  0  2  0  0  0  0  0  0
  191.5000  176.4750  144.6550 C   0  0  0  0  0  0  0  0  0  0  0  0
  191.9550  175.3640  144.2700 O   0  0  0  0  0  0  0  0  0  0  0  0
  191.4570  176.7830  146.1130 C   0  0  1  0  0  3  0  0  0  0  0  0
  190.1340  176.8530  146.5480 O   0  0  0  0  0  1  0  0  0  0  0  0
  192.1950  175.7130  146.8950 C   0  0  0  0  0  1  0  0  0  0  0  0
  1  4  1  0  0  0  0
  2 11  1  0  0  0  0
  2  1  1  0  0  0  0
  3 13  1  0  0  0  0
  4  7  1  0  0  0  0
  4 16  1  6  0  0  0
  6 18  1  0  0  0  0
  6  3  2  0  0  0  0
  7  8  1  0  0  0  0
  8  5  2  0  0  0  0
  9 15  2  0  0  0  0
  9 18  1  0  0  0  0
 10  9  1  0  0  0  0
 12  5  1  0  0  0  0
 13  1  2  0  0  0  0
 13 14  1  0  0  0  0
 14  7  2  0  0  0  0
 15 17  1  0  0  0  0
 16 12  2  0  0  0  0
 17 19  1  0  0  0  0
 17 11  2  0  0  0  0
 18  2  2  0  0  0  0
 19 20  1  0  0  0  0
 20 21  1  0  0  0  0
 21 23  1  0  0  0  0
 22 21  2  0  0  0  0
 23 24  1  0  0  0  0
 23 25  1  1  0  0  0
M  END
>  <MODEL>
8

>  <REMARK>
 VINA RESULT:      -9.5      2.276      5.259
  Name = 
  3 active torsions:
  status: ('A' for Active; 'I' for Inactive)
    1  A    between atoms: C_2  and  C_21
    2  A    between atoms: C_6  and  N_15
    3  A    between atoms: C_6  and  C_23
                            x       y       z     vdW  Elec       q    Type
                         _______ _______ _______ _____ _____    ______ ____

>  <TORSDO>
F 3

$$$$
=
 OpenBabel11052412403D

 25 28  0  0  1  0  0  0  0  0999 V2000
  188.0540  177.7250  144.4480 C   0  0  0  0  0  0  0  0  0  0  0  0
  187.7530  177.9770  143.1090 C   0  0  0  0  0  0  0  0  0  0  0  0
  185.7850  178.1860  145.1490 C   0  0  0  0  0  3  0  0  0  0  0  0
  189.2130  177.3590  145.0830 C   0  0  0  0  0  0  0  0  0  0  0  0
  191.1600  176.6410  146.9110 C   0  0  0  0  0  3  0  0  0  0  0  0
  185.4510  178.4480  143.8080 C   0  0  0  0  0  3  0  0  0  0  0  0
  188.8950  177.2570  146.4220 C   0  0  0  0  0  0  0  0  0  0  0  0
  189.8540  176.8970  147.3660 C   0  0  0  0  0  3  0  0  0  0  0  0
  186.1270  178.6030  141.4390 C   0  0  0  0  0  0  0  0  0  0  0  0
  184.7570  179.0040  141.0040 C   0  0  0  0  0  1  0  0  0  0  0  0
  188.6930  177.8780  142.1340 N   0  0  0  0  0  0  0  0  0  0  0  0
  191.4780  176.7460  145.5400 C   0  0  0  0  0  3  0  0  0  0  0  0
  187.0990  177.8260  145.4400 C   0  0  1  0  0  3  0  0  0  0  0  0
  187.5950  177.5410  146.6660 N   0  0  0  0  0  0  0  0  0  0  0  0
  187.1060  178.4900  140.5020 N   0  0  0  0  0  0  0  0  0  0  0  0
  190.4970  177.1090  144.6020 C   0  0  0  0  0  3  0  0  0  0  0  0
  188.3730  178.1250  140.8370 C   0  0  0  0  0  0  0  0  0  0  0  0
  186.4250  178.3460  142.7850 C   0  0  0  0  0  0  0  0  0  0  0  0
  189.4220  178.0410  139.7870 C   0  0  0  0  0  2  0  0  0  0  0  0
  188.8160  177.6570  138.5240 N   0  0  0  0  0  2  0  0  0  0  0  0
  188.6630  178.5820  137.4450 C   0  0  0  0  0  0  0  0  0  0  0  0
  189.0540  179.7740  137.5660 O   0  0  0  0  0  0  0  0  0  0  0  0
  188.0250  178.1470  136.1690 C   0  0  1  0  0  3  0  0  0  0  0  0
  188.8570  177.2480  135.5010 O   0  0  0  0  0  1  0  0  0  0  0  0
  186.6870  177.4920  136.4500 C   0  0  0  0  0  1  0  0  0  0  0  0
  1  4  2  0  0  0  0
  1 13  1  0  0  0  0
  2  1  1  0  0  0  0
  4  7  1  0  0  0  0
  5  8  2  0  0  0  0
  6  3  2  0  0  0  0
  7 14  2  0  0  0  0
  7  8  1  0  0  0  0
  9 18  1  0  0  0  0
 10  9  1  0  0  0  0
 11  2  1  0  0  0  0
 12  5  1  0  0  0  0
 13  3  1  6  0  0  0
 13 14  1  0  0  0  0
 15 17  1  0  0  0  0
 15  9  2  0  0  0  0
 16  4  1  0  0  0  0
 16 12  2  0  0  0  0
 17 11  2  0  0  0  0
 18  2  2  0  0  0  0
 18  6  1  0  0  0  0
 19 17  1  0  0  0  0
 20 19  1  0  0  0  0
 21 22  2  0  0  0  0
 21 20  1  0  0  0  0
 23 25  1  1  0  0  0
 23 21  1  0  0  0  0
 24 23  1  0  0  0  0
M  END
>  <MODEL>
9

>  <REMARK>
 VINA RESULT:      -9.5      1.987      4.849
  Name = 
  3 active torsions:
  status: ('A' for Active; 'I' for Inactive)
    1  A    between atoms: C_2  and  C_21
    2  A    between atoms: C_6  and  N_15
    3  A    between atoms: C_6  and  C_23
                            x       y       z     vdW  Elec       q    Type
                         _______ _______ _______ _____ _____    ______ ____

>  <TORSDO>
F 3

$$$$
