=
 OpenBabel11052412473D

 25 28  0  0  0  0  0  0  0  0999 V2000
  187.5580  177.8840  145.9940 C   0  0  0  0  0  0  0  0  0  0  0  0
  188.8770  177.4700  145.7840 C   0  0  0  0  0  0  0  0  0  0  0  0
  187.8950  178.1030  148.3830 C   0  0  0  0  0  3  0  0  0  0  0  0
  186.4920  178.0840  145.1470 C   0  0  0  0  0  0  0  0  0  0  0  0
  184.0260  178.6590  144.0310 C   0  0  0  0  0  3  0  0  0  0  0  0
  189.2280  177.6880  148.2050 C   0  0  0  0  0  3  0  0  0  0  0  0
  185.4490  178.4970  145.9510 C   0  0  0  0  0  0  0  0  0  0  0  0
  184.1960  178.7940  145.4210 C   0  0  0  0  0  3  0  0  0  0  0  0
  191.0530  176.9530  146.7300 C   0  0  0  0  0  0  0  0  0  0  0  0
  191.8400  176.8480  147.7090 O   0  0  0  0  0  0  0  0  0  0  0  0
  189.3690  177.1570  144.5170 C   0  0  0  0  0  2  0  0  0  0  0  0
  185.0950  178.2360  143.2110 C   0  0  0  0  0  3  0  0  0  0  0  0
  187.0840  178.1910  147.2550 C   0  0  0  0  0  0  0  0  0  0  0  0
  185.8170  178.5570  147.2140 O   0  0  0  0  0  0  0  0  0  0  0  0
  191.4980  176.6550  145.4790 N   0  0  0  0  0  0  0  0  0  0  0  0
  186.3530  177.9420  143.7690 C   0  0  0  0  0  3  0  0  0  0  0  0
  190.6980  176.7540  144.3820 C   0  0  0  0  0  0  0  0  0  0  0  0
  189.7250  177.3710  146.9180 C   0  0  0  0  0  0  0  0  0  0  0  0
  191.2290  176.3910  143.0420 C   0  0  0  0  0  2  0  0  0  0  0  0
  190.1340  176.0090  142.1680 N   0  0  0  0  0  2  0  0  0  0  0  0
  190.1930  176.8870  141.0130 C   0  0  0  0  0  2  0  0  0  0  0  0
  188.9850  177.8090  140.9970 C   0  0  0  0  0  2  0  0  0  0  0  0
  188.5690  178.1250  139.5960 C   0  0  0  0  0  0  0  0  0  0  0  0
  189.5310  177.9320  138.4760 C   0  0  0  0  0  1  0  0  0  0  0  0
  187.4390  178.5210  139.3630 O   0  0  0  0  0  0  0  0  0  0  0  0
  1 13  1  0  0  0  0
  2  1  2  0  0  0  0
  2 18  1  0  0  0  0
  4  7  1  0  0  0  0
  4  1  1  0  0  0  0
  5  8  1  0  0  0  0
  6  3  1  0  0  0  0
  7 14  1  0  0  0  0
  8  7  2  0  0  0  0
  9 18  1  0  0  0  0
  9 10  2  0  0  0  0
 11  2  1  0  0  0  0
 12 16  1  0  0  0  0
 12  5  2  0  0  0  0
 13  3  2  0  0  0  0
 14 13  1  0  0  0  0
 15  9  1  0  0  0  0
 16  4  2  0  0  0  0
 17 11  1  0  0  0  0
 17 15  2  0  0  0  0
 18  6  2  0  0  0  0
 19 17  1  0  0  0  0
 20 19  1  0  0  0  0
 21 20  1  0  0  0  0
 22 21  1  0  0  0  0
 23 22  1  0  0  0  0
 24 23  1  0  0  0  0
 25 23  2  0  0  0  0
M  END
>  <MODEL>
1

>  <REMARK>
 VINA RESULT:     -10.5      0.000      0.000
  Name = 
  5 active torsions:
  status: ('A' for Active; 'I' for Inactive)
    1  A    between atoms: C_2  and  C_25
    2  A    between atoms: C_6  and  N_15
    3  A    between atoms: C_6  and  C_23
    4  A    between atoms: N_15  and  C_21
    5  A    between atoms: C_21  and  C_25
                            x       y       z     vdW  Elec       q    Type
                         _______ _______ _______ _____ _____    ______ ____

>  <TORSDO>
F 5

$$$$
=
 OpenBabel11052412473D

 25 28  0  0  0  0  0  0  0  0999 V2000
  187.1740  177.9820  145.8080 C   0  0  0  0  0  0  0  0  0  0  0  0
  188.4620  177.5500  145.4780 C   0  0  0  0  0  0  0  0  0  0  0  0
  187.7350  178.1980  148.1550 C   0  0  0  0  0  3  0  0  0  0  0  0
  186.0360  178.1960  145.0640 C   0  0  0  0  0  0  0  0  0  0  0  0
  183.4850  178.8020  144.1810 C   0  0  0  0  0  3  0  0  0  0  0  0
  189.0400  177.7650  147.8550 C   0  0  0  0  0  3  0  0  0  0  0  0
  185.0780  178.6230  145.9610 C   0  0  0  0  0  0  0  0  0  0  0  0
  183.7850  178.9360  145.5490 C   0  0  0  0  0  3  0  0  0  0  0  0
  190.7100  177.0040  146.2180 C   0  0  0  0  0  0  0  0  0  0  0  0
  191.5830  176.8900  147.1190 O   0  0  0  0  0  0  0  0  0  0  0  0
  188.8290  177.2290  144.1700 C   0  0  0  0  0  2  0  0  0  0  0  0
  184.4680  178.3650  143.2660 C   0  0  0  0  0  3  0  0  0  0  0  0
  186.8230  178.2960  147.1070 C   0  0  0  0  0  0  0  0  0  0  0  0
  185.5640  178.6790  147.1840 O   0  0  0  0  0  0  0  0  0  0  0  0
  191.0320  176.7000  144.9310 N   0  0  0  0  0  0  0  0  0  0  0  0
  185.7680  178.0540  143.7050 C   0  0  0  0  0  3  0  0  0  0  0  0
  190.1350  176.8090  143.9130 C   0  0  0  0  0  0  0  0  0  0  0  0
  189.4100  177.4410  146.5280 C   0  0  0  0  0  0  0  0  0  0  0  0
  190.5340  176.4370  142.5300 C   0  0  0  0  0  2  0  0  0  0  0  0
  191.2700  177.5320  141.9220 N   0  0  0  0  0  2  0  0  0  0  0  0
  191.1560  177.3670  140.4840 C   0  0  0  0  0  2  0  0  0  0  0  0
  189.7320  176.9830  140.1140 C   0  0  0  0  0  2  0  0  0  0  0  0
  188.8900  178.1970  139.8870 C   0  0  0  0  0  0  0  0  0  0  0  0
  187.8190  178.5480  140.8610 C   0  0  0  0  0  1  0  0  0  0  0  0
  189.0880  178.9120  138.9190 O   0  0  0  0  0  0  0  0  0  0  0  0
  1 13  1  0  0  0  0
  2  1  2  0  0  0  0
  2 18  1  0  0  0  0
  4  1  1  0  0  0  0
  4  7  1  0  0  0  0
  5  8  1  0  0  0  0
  6  3  1  0  0  0  0
  7 14  1  0  0  0  0
  8  7  2  0  0  0  0
  9 18  1  0  0  0  0
  9 10  2  0  0  0  0
 11  2  1  0  0  0  0
 12 16  1  0  0  0  0
 12  5  2  0  0  0  0
 13 14  1  0  0  0  0
 13  3  2  0  0  0  0
 15  9  1  0  0  0  0
 16  4  2  0  0  0  0
 17 11  1  0  0  0  0
 17 15  2  0  0  0  0
 18  6  2  0  0  0  0
 19 17  1  0  0  0  0
 20 19  1  0  0  0  0
 21 20  1  0  0  0  0
 22 21  1  0  0  0  0
 23 22  1  0  0  0  0
 23 24  1  0  0  0  0
 25 23  2  0  0  0  0
M  END
>  <MODEL>
2

>  <REMARK>
 VINA RESULT:     -10.5      0.841      1.005
  Name = 
  5 active torsions:
  status: ('A' for Active; 'I' for Inactive)
    1  A    between atoms: C_2  and  C_25
    2  A    between atoms: C_6  and  N_15
    3  A    between atoms: C_6  and  C_23
    4  A    between atoms: N_15  and  C_21
    5  A    between atoms: C_21  and  C_25
                            x       y       z     vdW  Elec       q    Type
                         _______ _______ _______ _____ _____    ______ ____

>  <TORSDO>
F 5

$$$$
=
 OpenBabel11052412473D

 25 28  0  0  0  0  0  0  0  0999 V2000
  187.5510  177.8950  145.9350 C   0  0  0  0  0  0  0  0  0  0  0  0
  188.8680  177.5050  145.6770 C   0  0  0  0  0  0  0  0  0  0  0  0
  187.9460  178.0270  148.3220 C   0  0  0  0  0  3  0  0  0  0  0  0
  186.4610  178.1130  145.1230 C   0  0  0  0  0  0  0  0  0  0  0  0
  183.9610  178.6980  144.0920 C   0  0  0  0  0  3  0  0  0  0  0  0
  189.2790  177.6360  148.0950 C   0  0  0  0  0  3  0  0  0  0  0  0
  185.4340  178.4820  145.9690 C   0  0  0  0  0  0  0  0  0  0  0  0
  184.1650  178.7830  145.4820 C   0  0  0  0  0  3  0  0  0  0  0  0
  191.0740  176.9800  146.5480 C   0  0  0  0  0  0  0  0  0  0  0  0
  191.8870  176.8480  147.5010 O   0  0  0  0  0  0  0  0  0  0  0  0
  189.3310  177.2460  144.3860 C   0  0  0  0  0  2  0  0  0  0  0  0
  185.0140  178.3200  143.2310 C   0  0  0  0  0  3  0  0  0  0  0  0
  187.1060  178.1480  147.2180 C   0  0  0  0  0  0  0  0  0  0  0  0
  185.8340  178.4990  147.2230 O   0  0  0  0  0  0  0  0  0  0  0  0
  191.4900  176.7360  145.2750 N   0  0  0  0  0  0  0  0  0  0  0  0
  186.2890  178.0210  143.7440 C   0  0  0  0  0  3  0  0  0  0  0  0
  190.6620  176.8660  144.2030 C   0  0  0  0  0  0  0  0  0  0  0  0
  189.7470  177.3740  146.7850 C   0  0  0  0  0  0  0  0  0  0  0  0
  191.1630  176.5610  142.8370 C   0  0  0  0  0  2  0  0  0  0  0  0
  190.0670  176.0890  142.0080 N   0  0  0  0  0  2  0  0  0  0  0  0
  189.9580  177.0120  140.8920 C   0  0  0  0  0  2  0  0  0  0  0  0
  191.3190  177.2120  140.2460 C   0  0  0  0  0  2  0  0  0  0  0  0
  191.4400  176.4130  138.9880 C   0  0  0  0  0  0  0  0  0  0  0  0
  192.6350  176.5830  138.1150 C   0  0  0  0  0  1  0  0  0  0  0  0
  190.5740  175.6100  138.6830 O   0  0  0  0  0  0  0  0  0  0  0  0
  1 13  1  0  0  0  0
  2  1  2  0  0  0  0
  2 18  1  0  0  0  0
  4  1  1  0  0  0  0
  4  7  1  0  0  0  0
  5  8  1  0  0  0  0
  6  3  1  0  0  0  0
  7 14  1  0  0  0  0
  8  7  2  0  0  0  0
  9 18  1  0  0  0  0
  9 10  2  0  0  0  0
 11  2  1  0  0  0  0
 12 16  1  0  0  0  0
 12  5  2  0  0  0  0
 13 14  1  0  0  0  0
 13  3  2  0  0  0  0
 15  9  1  0  0  0  0
 16  4  2  0  0  0  0
 17 11  1  0  0  0  0
 17 15  2  0  0  0  0
 18  6  2  0  0  0  0
 19 17  1  0  0  0  0
 20 19  1  0  0  0  0
 21 20  1  0  0  0  0
 22 21  1  0  0  0  0
 23 22  1  0  0  0  0
 24 23  1  0  0  0  0
 25 23  2  0  0  0  0
M  END
>  <MODEL>
3

>  <REMARK>
 VINA RESULT:     -10.1      1.244      1.397
  Name = 
  5 active torsions:
  status: ('A' for Active; 'I' for Inactive)
    1  A    between atoms: C_2  and  C_25
    2  A    between atoms: C_6  and  N_15
    3  A    between atoms: C_6  and  C_23
    4  A    between atoms: N_15  and  C_21
    5  A    between atoms: C_21  and  C_25
                            x       y       z     vdW  Elec       q    Type
                         _______ _______ _______ _____ _____    ______ ____

>  <TORSDO>
F 5

$$$$
=
 OpenBabel11052412473D

 25 28  0  0  0  0  0  0  0  0999 V2000
  185.8490  178.2020  144.9480 C   0  0  0  0  0  0  0  0  0  0  0  0
  187.1680  177.7410  145.0010 C   0  0  0  0  0  0  0  0  0  0  0  0
  185.8100  178.6820  147.3220 C   0  0  0  0  0  3  0  0  0  0  0  0
  184.9390  178.3260  143.9230 C   0  0  0  0  0  0  0  0  0  0  0  0
  182.7050  178.8190  142.3670 C   0  0  0  0  0  3  0  0  0  0  0  0
  187.1380  178.2240  147.4090 C   0  0  0  0  0  3  0  0  0  0  0  0
  183.7980  178.8470  144.4980 C   0  0  0  0  0  0  0  0  0  0  0  0
  182.6570  179.1060  143.7430 C   0  0  0  0  0  3  0  0  0  0  0  0
  189.1460  177.2920  146.3380 C   0  0  0  0  0  0  0  0  0  0  0  0
  189.7630  177.2830  147.4360 O   0  0  0  0  0  0  0  0  0  0  0  0
  187.8430  177.2770  143.8710 C   0  0  0  0  0  2  0  0  0  0  0  0
  183.8750  178.2860  141.7820 C   0  0  0  0  0  3  0  0  0  0  0  0
  185.1920  178.6580  146.0750 C   0  0  0  0  0  0  0  0  0  0  0  0
  183.9630  179.0420  145.7900 O   0  0  0  0  0  0  0  0  0  0  0  0
  189.7720  176.8460  145.2140 N   0  0  0  0  0  0  0  0  0  0  0  0
  185.0160  178.0310  142.5640 C   0  0  0  0  0  3  0  0  0  0  0  0
  189.1610  176.8360  143.9980 C   0  0  0  0  0  0  0  0  0  0  0  0
  187.8210  177.7540  146.2610 C   0  0  0  0  0  0  0  0  0  0  0  0
  189.8850  176.3140  142.8090 C   0  0  0  0  0  2  0  0  0  0  0  0
  190.2460  177.4150  141.9340 N   0  0  0  0  0  2  0  0  0  0  0  0
  190.0550  176.9490  140.5720 C   0  0  0  0  0  2  0  0  0  0  0  0
  188.9000  177.6930  139.9230 C   0  0  0  0  0  2  0  0  0  0  0  0
  189.3000  178.2560  138.5970 C   0  0  0  0  0  0  0  0  0  0  0  0
  190.0180  177.3970  137.6140 C   0  0  0  0  0  1  0  0  0  0  0  0
  189.0250  179.4090  138.3080 O   0  0  0  0  0  0  0  0  0  0  0  0
  1  2  2  0  0  0  0
  1 13  1  0  0  0  0
  2 18  1  0  0  0  0
  3  6  1  0  0  0  0
  4  7  1  0  0  0  0
  4  1  1  0  0  0  0
  5  8  1  0  0  0  0
  7 14  1  0  0  0  0
  8  7  2  0  0  0  0
  9 10  2  0  0  0  0
 11 17  1  0  0  0  0
 11  2  1  0  0  0  0
 12  5  2  0  0  0  0
 12 16  1  0  0  0  0
 13  3  2  0  0  0  0
 14 13  1  0  0  0  0
 15  9  1  0  0  0  0
 16  4  2  0  0  0  0
 17 15  2  0  0  0  0
 18  9  1  0  0  0  0
 18  6  2  0  0  0  0
 19 17  1  0  0  0  0
 20 19  1  0  0  0  0
 21 20  1  0  0  0  0
 22 21  1  0  0  0  0
 23 22  1  0  0  0  0
 24 23  1  0  0  0  0
 25 23  2  0  0  0  0
M  END
>  <MODEL>
4

>  <REMARK>
 VINA RESULT:      -9.8      1.296      1.885
  Name = 
  5 active torsions:
  status: ('A' for Active; 'I' for Inactive)
    1  A    between atoms: C_2  and  C_25
    2  A    between atoms: C_6  and  N_15
    3  A    between atoms: C_6  and  C_23
    4  A    between atoms: N_15  and  C_21
    5  A    between atoms: C_21  and  C_25
                            x       y       z     vdW  Elec       q    Type
                         _______ _______ _______ _____ _____    ______ ____

>  <TORSDO>
F 5

$$$$
=
 OpenBabel11052412473D

 25 28  0  0  0  0  0  0  0  0999 V2000
  187.8140  177.7200  145.3240 C   0  0  0  0  0  0  0  0  0  0  0  0
  186.5910  178.0520  144.7350 C   0  0  0  0  0  0  0  0  0  0  0  0
  186.9820  178.1710  147.5540 C   0  0  0  0  0  3  0  0  0  0  0  0
  189.0200  177.2990  144.8100 C   0  0  0  0  0  0  0  0  0  0  0  0
  191.6290  176.4520  144.4440 C   0  0  0  0  0  3  0  0  0  0  0  0
  185.7390  178.5120  146.9910 C   0  0  0  0  0  3  0  0  0  0  0  0
  189.8520  177.1320  145.8990 C   0  0  0  0  0  0  0  0  0  0  0  0
  191.1690  176.7070  145.7490 C   0  0  0  0  0  3  0  0  0  0  0  0
  184.2980  178.7990  145.0190 C   0  0  0  0  0  0  0  0  0  0  0  0
  183.3330  179.1670  145.7410 O   0  0  0  0  0  0  0  0  0  0  0  0
  186.3880  177.9990  143.3550 C   0  0  0  0  0  2  0  0  0  0  0  0
  190.7750  176.6250  143.3320 C   0  0  0  0  0  3  0  0  0  0  0  0
  188.0020  177.7780  146.6920 C   0  0  0  0  0  0  0  0  0  0  0  0
  189.2290  177.4220  147.0220 O   0  0  0  0  0  0  0  0  0  0  0  0
  184.1370  178.7350  143.6690 N   0  0  0  0  0  0  0  0  0  0  0  0
  189.4470  177.0550  143.5070 C   0  0  0  0  0  3  0  0  0  0  0  0
  185.1380  178.3410  142.8360 C   0  0  0  0  0  0  0  0  0  0  0  0
  185.5340  178.4570  145.5910 C   0  0  0  0  0  0  0  0  0  0  0  0
  184.9150  178.3150  141.3670 C   0  0  0  0  0  2  0  0  0  0  0  0
  185.8740  179.1850  140.7110 N   0  0  0  0  0  2  0  0  0  0  0  0
  186.6710  178.3440  139.8340 C   0  0  0  0  0  2  0  0  0  0  0  0
  188.1310  178.3900  140.2540 C   0  0  0  0  0  2  0  0  0  0  0  0
  189.0310  178.4660  139.0620 C   0  0  0  0  0  0  0  0  0  0  0  0
  190.0120  177.3750  138.8040 C   0  0  0  0  0  1  0  0  0  0  0  0
  188.9520  179.4070  138.2890 O   0  0  0  0  0  0  0  0  0  0  0  0
  1 13  1  0  0  0  0
  2  1  2  0  0  0  0
  2 18  1  0  0  0  0
  4  1  1  0  0  0  0
  4  7  1  0  0  0  0
  5  8  1  0  0  0  0
  6  3  1  0  0  0  0
  7 14  1  0  0  0  0
  8  7  2  0  0  0  0
  9 18  1  0  0  0  0
  9 10  2  0  0  0  0
 11  2  1  0  0  0  0
 12 16  1  0  0  0  0
 12  5  2  0  0  0  0
 13 14  1  0  0  0  0
 13  3  2  0  0  0  0
 15  9  1  0  0  0  0
 16  4  2  0  0  0  0
 17 11  1  0  0  0  0
 17 15  2  0  0  0  0
 18  6  2  0  0  0  0
 19 17  1  0  0  0  0
 20 19  1  0  0  0  0
 21 22  1  0  0  0  0
 21 20  1  0  0  0  0
 23 22  1  0  0  0  0
 24 23  1  0  0  0  0
 25 23  2  0  0  0  0
M  END
>  <MODEL>
5

>  <REMARK>
 VINA RESULT:      -9.5      2.300      4.855
  Name = 
  5 active torsions:
  status: ('A' for Active; 'I' for Inactive)
    1  A    between atoms: C_2  and  C_25
    2  A    between atoms: C_6  and  N_15
    3  A    between atoms: C_6  and  C_23
    4  A    between atoms: N_15  and  C_21
    5  A    between atoms: C_21  and  C_25
                            x       y       z     vdW  Elec       q    Type
                         _______ _______ _______ _____ _____    ______ ____

>  <TORSDO>
F 5

$$$$
=
 OpenBabel11052412473D

 25 28  0  0  0  0  0  0  0  0999 V2000
  185.7030  178.2030  144.7820 C   0  0  0  0  0  0  0  0  0  0  0  0
  187.0230  177.7430  144.7930 C   0  0  0  0  0  0  0  0  0  0  0  0
  185.7180  178.6210  147.1690 C   0  0  0  0  0  3  0  0  0  0  0  0
  184.7690  178.3520  143.7820 C   0  0  0  0  0  0  0  0  0  0  0  0
  182.4990  178.8810  142.2910 C   0  0  0  0  0  3  0  0  0  0  0  0
  187.0470  178.1630  147.2130 C   0  0  0  0  0  3  0  0  0  0  0  0
  183.6410  178.8550  144.3960 C   0  0  0  0  0  0  0  0  0  0  0  0
  182.4830  179.1330  143.6750 C   0  0  0  0  0  3  0  0  0  0  0  0
  189.0310  177.2630  146.0720 C   0  0  0  0  0  0  0  0  0  0  0  0
  189.6730  177.2260  147.1550 O   0  0  0  0  0  0  0  0  0  0  0  0
  187.6720  177.3100  143.6360 C   0  0  0  0  0  2  0  0  0  0  0  0
  183.6560  178.3660  141.6650 C   0  0  0  0  0  3  0  0  0  0  0  0
  185.0710  178.6280  145.9350 C   0  0  0  0  0  0  0  0  0  0  0  0
  183.8350  179.0170  145.6890 O   0  0  0  0  0  0  0  0  0  0  0  0
  189.6320  176.8480  144.9230 N   0  0  0  0  0  0  0  0  0  0  0  0
  184.8150  178.0930  142.4140 C   0  0  0  0  0  3  0  0  0  0  0  0
  188.9940  176.8690  143.7210 C   0  0  0  0  0  0  0  0  0  0  0  0
  187.7050  177.7240  146.0380 C   0  0  0  0  0  0  0  0  0  0  0  0
  189.6900  176.3790  142.5030 C   0  0  0  0  0  2  0  0  0  0  0  0
  189.9960  177.4990  141.6310 N   0  0  0  0  0  2  0  0  0  0  0  0
  189.4210  177.1900  140.3330 C   0  0  0  0  0  2  0  0  0  0  0  0
  190.3830  177.5930  139.2280 C   0  0  0  0  0  2  0  0  0  0  0  0
  191.1980  176.4250  138.7710 C   0  0  0  0  0  0  0  0  0  0  0  0
  192.6460  176.6040  138.4720 C   0  0  0  0  0  1  0  0  0  0  0  0
  190.6870  175.3230  138.6630 O   0  0  0  0  0  0  0  0  0  0  0  0
  1  2  2  0  0  0  0
  1 13  1  0  0  0  0
  2 18  1  0  0  0  0
  3  6  1  0  0  0  0
  4  7  1  0  0  0  0
  4  1  1  0  0  0  0
  5  8  1  0  0  0  0
  7 14  1  0  0  0  0
  8  7  2  0  0  0  0
  9 10  2  0  0  0  0
 11 17  1  0  0  0  0
 11  2  1  0  0  0  0
 12  5  2  0  0  0  0
 12 16  1  0  0  0  0
 13  3  2  0  0  0  0
 14 13  1  0  0  0  0
 15  9  1  0  0  0  0
 16  4  2  0  0  0  0
 17 15  2  0  0  0  0
 18  9  1  0  0  0  0
 18  6  2  0  0  0  0
 19 17  1  0  0  0  0
 20 19  1  0  0  0  0
 21 20  1  0  0  0  0
 22 21  1  0  0  0  0
 23 22  1  0  0  0  0
 24 23  1  0  0  0  0
 25 23  2  0  0  0  0
M  END
>  <MODEL>
6

>  <REMARK>
 VINA RESULT:      -9.5      1.803      2.414
  Name = 
  5 active torsions:
  status: ('A' for Active; 'I' for Inactive)
    1  A    between atoms: C_2  and  C_25
    2  A    between atoms: C_6  and  N_15
    3  A    between atoms: C_6  and  C_23
    4  A    between atoms: N_15  and  C_21
    5  A    between atoms: C_21  and  C_25
                            x       y       z     vdW  Elec       q    Type
                         _______ _______ _______ _____ _____    ______ ____

>  <TORSDO>
F 5

$$$$
=
 OpenBabel11052412473D

 25 28  0  0  0  0  0  0  0  0999 V2000
  186.8880  177.9830  145.4280 C   0  0  0  0  0  0  0  0  0  0  0  0
  186.1840  178.2560  144.2520 C   0  0  0  0  0  0  0  0  0  0  0  0
  184.9310  178.3480  146.8090 C   0  0  0  0  0  3  0  0  0  0  0  0
  188.1970  177.6410  145.6800 C   0  0  0  0  0  0  0  0  0  0  0  0
  190.6110  176.9490  146.8420 C   0  0  0  0  0  3  0  0  0  0  0  0
  184.1950  178.6280  145.6430 C   0  0  0  0  0  3  0  0  0  0  0  0
  188.2890  177.5020  147.0500 C   0  0  0  0  0  0  0  0  0  0  0  0
  189.4890  177.1550  147.6660 C   0  0  0  0  0  3  0  0  0  0  0  0
  184.0820  178.8660  143.1980 C   0  0  0  0  0  0  0  0  0  0  0  0
  182.8600  179.1660  143.2540 O   0  0  0  0  0  0  0  0  0  0  0  0
  186.7860  178.2140  142.9940 C   0  0  0  0  0  2  0  0  0  0  0  0
  190.5120  177.0920  145.4410 C   0  0  0  0  0  3  0  0  0  0  0  0
  186.2790  178.0280  146.6670 C   0  0  0  0  0  0  0  0  0  0  0  0
  187.1310  177.7370  147.6310 O   0  0  0  0  0  0  0  0  0  0  0  0
  184.7040  178.8160  141.9880 N   0  0  0  0  0  0  0  0  0  0  0  0
  189.2900  177.4430  144.8390 C   0  0  0  0  0  3  0  0  0  0  0  0
  186.0200  178.4930  141.8610 C   0  0  0  0  0  0  0  0  0  0  0  0
  184.8080  178.5850  144.3680 C   0  0  0  0  0  0  0  0  0  0  0  0
  186.6540  178.4790  140.5170 C   0  0  0  0  0  2  0  0  0  0  0  0
  188.0950  178.5910  140.6540 N   0  0  0  0  0  2  0  0  0  0  0  0
  188.6790  177.5780  139.7930 C   0  0  0  0  0  2  0  0  0  0  0  0
  190.1900  177.5630  139.9550 C   0  0  0  0  0  2  0  0  0  0  0  0
  190.5850  176.9470  141.2590 C   0  0  0  0  0  0  0  0  0  0  0  0
  191.7370  177.5030  142.0220 C   0  0  0  0  0  1  0  0  0  0  0  0
  189.9560  176.0040  141.7100 O   0  0  0  0  0  0  0  0  0  0  0  0
  1  4  1  0  0  0  0
  1 13  2  0  0  0  0
  2 18  2  0  0  0  0
  2  1  1  0  0  0  0
  4  7  1  0  0  0  0
  5  8  1  0  0  0  0
  6  3  2  0  0  0  0
  7 14  1  0  0  0  0
  7  8  2  0  0  0  0
  9 10  2  0  0  0  0
  9 18  1  0  0  0  0
 11  2  1  0  0  0  0
 12  5  2  0  0  0  0
 13  3  1  0  0  0  0
 13 14  1  0  0  0  0
 15  9  1  0  0  0  0
 16 12  1  0  0  0  0
 16  4  2  0  0  0  0
 17 15  2  0  0  0  0
 17 11  1  0  0  0  0
 18  6  1  0  0  0  0
 19 20  1  0  0  0  0
 19 17  1  0  0  0  0
 21 22  1  0  0  0  0
 21 20  1  0  0  0  0
 22 23  1  0  0  0  0
 23 25  2  0  0  0  0
 23 24  1  0  0  0  0
M  END
>  <MODEL>
7

>  <REMARK>
 VINA RESULT:      -9.3      2.171      4.943
  Name = 
  5 active torsions:
  status: ('A' for Active; 'I' for Inactive)
    1  A    between atoms: C_2  and  C_25
    2  A    between atoms: C_6  and  N_15
    3  A    between atoms: C_6  and  C_23
    4  A    between atoms: N_15  and  C_21
    5  A    between atoms: C_21  and  C_25
                            x       y       z     vdW  Elec       q    Type
                         _______ _______ _______ _____ _____    ______ ____

>  <TORSDO>
F 5

$$$$
=
 OpenBabel11052412473D

 25 28  0  0  0  0  0  0  0  0999 V2000
  186.2170  178.2780  144.4710 C   0  0  0  0  0  0  0  0  0  0  0  0
  186.2630  178.4080  143.0800 C   0  0  0  0  0  0  0  0  0  0  0  0
  183.8360  178.7220  144.5390 C   0  0  0  0  0  3  0  0  0  0  0  0
  187.1750  178.0020  145.4200 C   0  0  0  0  0  0  0  0  0  0  0  0
  188.5640  177.5040  147.7610 C   0  0  0  0  0  3  0  0  0  0  0  0
  183.8500  178.8600  143.1390 C   0  0  0  0  0  3  0  0  0  0  0  0
  186.5120  178.0060  146.6310 C   0  0  0  0  0  0  0  0  0  0  0  0
  187.1820  177.7590  147.8270 C   0  0  0  0  0  3  0  0  0  0  0  0
  185.0760  178.8450  141.0070 C   0  0  0  0  0  0  0  0  0  0  0  0
  184.0240  179.1130  140.3670 O   0  0  0  0  0  0  0  0  0  0  0  0
  187.4460  178.2580  142.3550 C   0  0  0  0  0  2  0  0  0  0  0  0
  189.2390  177.5010  146.5200 C   0  0  0  0  0  3  0  0  0  0  0  0
  185.0390  178.4300  145.1770 C   0  0  0  0  0  0  0  0  0  0  0  0
  185.2310  178.2640  146.4710 O   0  0  0  0  0  0  0  0  0  0  0  0
  186.2490  178.6920  140.3330 N   0  0  0  0  0  0  0  0  0  0  0  0
  188.5420  177.7530  145.3240 C   0  0  0  0  0  3  0  0  0  0  0  0
  187.4170  178.3970  140.9660 C   0  0  0  0  0  0  0  0  0  0  0  0
  185.0510  178.7070  142.4050 C   0  0  0  0  0  0  0  0  0  0  0  0
  188.6730  178.2660  140.1830 C   0  0  0  0  0  2  0  0  0  0  0  0
  189.0640  176.8690  140.1150 N   0  0  0  0  0  2  0  0  0  0  0  0
  190.3640  176.7660  140.7550 C   0  0  0  0  0  2  0  0  0  0  0  0
  190.2130  176.1920  142.1540 C   0  0  0  0  0  2  0  0  0  0  0  0
  191.2210  176.7830  143.0880 C   0  0  0  0  0  0  0  0  0  0  0  0
  191.6820  176.0010  144.2690 C   0  0  0  0  0  1  0  0  0  0  0  0
  191.6810  177.8930  142.8770 O   0  0  0  0  0  0  0  0  0  0  0  0
  1 13  2  0  0  0  0
  1  4  1  0  0  0  0
  2  1  1  0  0  0  0
  3 13  1  0  0  0  0
  4  7  1  0  0  0  0
  5  8  1  0  0  0  0
  6  3  2  0  0  0  0
  7  8  2  0  0  0  0
  9 18  1  0  0  0  0
 10  9  2  0  0  0  0
 11  2  1  0  0  0  0
 12  5  2  0  0  0  0
 13 14  1  0  0  0  0
 14  7  1  0  0  0  0
 15 17  2  0  0  0  0
 15  9  1  0  0  0  0
 16  4  2  0  0  0  0
 16 12  1  0  0  0  0
 17 11  1  0  0  0  0
 18  2  2  0  0  0  0
 18  6  1  0  0  0  0
 19 17  1  0  0  0  0
 20 19  1  0  0  0  0
 20 21  1  0  0  0  0
 21 22  1  0  0  0  0
 22 23  1  0  0  0  0
 23 24  1  0  0  0  0
 25 23  2  0  0  0  0
M  END
>  <MODEL>
8

>  <REMARK>
 VINA RESULT:      -9.2      1.990      5.134
  Name = 
  5 active torsions:
  status: ('A' for Active; 'I' for Inactive)
    1  A    between atoms: C_2  and  C_25
    2  A    between atoms: C_6  and  N_15
    3  A    between atoms: C_6  and  C_23
    4  A    between atoms: N_15  and  C_21
    5  A    between atoms: C_21  and  C_25
                            x       y       z     vdW  Elec       q    Type
                         _______ _______ _______ _____ _____    ______ ____

>  <TORSDO>
F 5

$$$$
=
 OpenBabel11052412473D

 25 28  0  0  0  0  0  0  0  0999 V2000
  189.8660  177.5110  142.4300 C   0  0  0  0  0  0  0  0  0  0  0  0
  188.9050  177.8730  141.4830 C   0  0  0  0  0  0  0  0  0  0  0  0
  191.5550  177.1460  140.7320 C   0  0  0  0  0  3  0  0  0  0  0  0
  189.8390  177.4080  143.8030 C   0  0  0  0  0  0  0  0  0  0  0  0
  190.4430  177.0120  146.4740 C   0  0  0  0  0  3  0  0  0  0  0  0
  190.6100  177.5050  139.7540 C   0  0  0  0  0  3  0  0  0  0  0  0
  191.1050  177.0010  144.1720 C   0  0  0  0  0  0  0  0  0  0  0  0
  191.4420  176.7940  145.5070 C   0  0  0  0  0  3  0  0  0  0  0  0
  188.3380  178.2250  139.1470 C   0  0  0  0  0  0  0  0  0  0  0  0
  188.6360  178.2310  137.9230 O   0  0  0  0  0  0  0  0  0  0  0  0
  187.6030  178.2300  141.8380 C   0  0  0  0  0  2  0  0  0  0  0  0
  189.1490  177.4270  146.0920 C   0  0  0  0  0  3  0  0  0  0  0  0
  191.1510  177.1590  142.0650 C   0  0  0  0  0  0  0  0  0  0  0  0
  191.8830  176.8560  143.1190 O   0  0  0  0  0  0  0  0  0  0  0  0
  187.0780  178.5670  139.5310 N   0  0  0  0  0  0  0  0  0  0  0  0
  188.8310  177.6310  144.7370 C   0  0  0  0  0  3  0  0  0  0  0  0
  186.6970  178.5850  140.8380 C   0  0  0  0  0  0  0  0  0  0  0  0
  189.2900  177.8680  140.1170 C   0  0  0  0  0  0  0  0  0  0  0  0
  185.3000  178.9420  141.1980 C   0  0  0  0  0  2  0  0  0  0  0  0
  184.7980  178.0110  142.1940 N   0  0  0  0  0  2  0  0  0  0  0  0
  184.5180  178.7870  143.3890 C   0  0  0  0  0  2  0  0  0  0  0  0
  185.3550  178.2760  144.5510 C   0  0  0  0  0  2  0  0  0  0  0  0
  184.7750  178.7040  145.8610 C   0  0  0  0  0  0  0  0  0  0  0  0
  185.6130  178.6620  147.0910 C   0  0  0  0  0  1  0  0  0  0  0  0
  183.6250  179.1070  145.9230 O   0  0  0  0  0  0  0  0  0  0  0  0
  1  4  1  0  0  0  0
  2 11  1  0  0  0  0
  2  1  1  0  0  0  0
  3 13  1  0  0  0  0
  4  7  2  0  0  0  0
  4 16  1  0  0  0  0
  6 18  1  0  0  0  0
  6  3  2  0  0  0  0
  7  8  1  0  0  0  0
  8  5  2  0  0  0  0
  9 15  1  0  0  0  0
  9 18  1  0  0  0  0
 10  9  2  0  0  0  0
 12  5  1  0  0  0  0
 13  1  2  0  0  0  0
 13 14  1  0  0  0  0
 14  7  1  0  0  0  0
 15 17  2  0  0  0  0
 16 12  2  0  0  0  0
 17 19  1  0  0  0  0
 17 11  1  0  0  0  0
 18  2  2  0  0  0  0
 19 20  1  0  0  0  0
 20 21  1  0  0  0  0
 21 22  1  0  0  0  0
 22 23  1  0  0  0  0
 23 25  2  0  0  0  0
 23 24  1  0  0  0  0
M  END
>  <MODEL>
9

>  <REMARK>
 VINA RESULT:      -9.0      2.390      6.764
  Name = 
  5 active torsions:
  status: ('A' for Active; 'I' for Inactive)
    1  A    between atoms: C_2  and  C_25
    2  A    between atoms: C_6  and  N_15
    3  A    between atoms: C_6  and  C_23
    4  A    between atoms: N_15  and  C_21
    5  A    between atoms: C_21  and  C_25
                            x       y       z     vdW  Elec       q    Type
                         _______ _______ _______ _____ _____    ______ ____

>  <TORSDO>
F 5

$$$$
