=
 OpenBabel11052415403D

 34 37  0  0  1  0  0  0  0  0999 V2000
  185.7630  178.0450  146.8870 N   0  0  0  0  0  1  0  0  0  0  0  0
  184.3910  178.5660  143.7910 C   0  0  0  0  0  0  0  0  0  0  0  0
  183.4150  178.7860  144.5990 N   0  0  0  0  0  0  0  0  0  0  0  0
  185.3230  179.0230  145.9010 C   0  0  1  0  0  3  0  0  0  0  0  0
  185.7290  178.6560  144.4550 C   0  0  1  0  0  3  0  0  0  0  0  0
  183.9060  179.0440  145.8520 O   0  0  0  0  0  0  0  0  0  0  0  0
  186.4730  177.3270  144.3430 C   0  0  0  0  0  2  0  0  0  0  0  0
  187.1730  177.2610  143.1220 O   0  0  0  0  0  0  0  0  0  0  0  0
  190.8130  176.3700  142.8540 C   0  0  0  0  0  2  0  0  0  0  0  0
  191.3850  176.7720  146.5660 C   0  0  0  0  0  3  0  0  0  0  0  0
  191.5180  176.0980  144.1810 C   0  0  0  0  0  2  0  0  0  0  0  0
  191.1230  177.0400  145.2830 C   0  0  0  0  0  0  0  0  0  0  0  0
  190.3110  178.2630  144.9910 C   0  0  0  0  0  2  0  0  0  0  0  0
  189.3200  176.1050  142.9740 C   0  0  0  0  0  2  0  0  0  0  0  0
  188.8490  177.8840  144.8030 C   0  0  0  0  0  2  0  0  0  0  0  0
  188.5580  177.3730  143.3830 C   0  0  2  0  0  3  0  0  0  0  0  0
  192.9600  175.6900  148.0190 O   0  0  0  0  0  0  0  0  0  0  0  0
  192.1110  175.6020  147.0900 C   0  0  0  0  0  3  0  0  0  0  0  0
  184.1760  178.3250  142.3330 C   0  0  0  0  0  2  0  0  0  0  0  0
  185.0070  179.1700  141.5950 O   0  0  0  0  0  0  0  0  0  0  0  0
  184.4510  179.2120  140.3070 C   0  0  0  0  0  2  0  0  0  0  0  0
  186.0170  177.6700  137.2780 C   0  0  0  0  0  2  0  0  0  0  0  0
  186.6690  178.4740  139.9140 C   0  0  0  0  0  2  0  0  0  0  0  0
  189.7860  177.4410  137.3580 C   0  0  1  0  0  3  0  0  0  0  0  0
  188.3830  177.0390  136.8920 C   0  0  0  0  0  2  0  0  0  0  0  0
  187.3150  177.2610  137.9680 C   0  0  1  0  0  3  0  0  0  0  0  0
  188.8960  177.8200  139.6990 C   0  0  0  0  0  2  0  0  0  0  0  0
  187.7370  178.2940  138.9310 N   0  0  2  0  0  0  0  0  0  0  0  0
  189.9760  177.1510  138.8430 C   0  0  0  0  0  2  0  0  0  0  0  0
  185.4600  178.9810  139.2690 N   0  0  0  0  0  0  0  0  0  0  0  0
  184.9590  177.9720  138.3300 C   0  0  0  0  0  2  0  0  0  0  0  0
  190.7960  176.7470  136.5760 N   0  0  0  0  0  0  0  0  0  0  0  0
  190.5820  176.4880  135.2430 O   0  0  0  0  0  0  0  0  0  0  0  0
  191.7830  176.2490  137.1510 O   0  0  0  0  0  0  0  0  0  0  0  0
  2  5  1  0  0  0  0
  2  3  2  0  0  0  0
  3  6  1  0  0  0  0
  4  1  1  1  0  0  0
  5  7  1  1  0  0  0
  5  4  1  0  0  0  0
  6  4  1  0  0  0  0
  8  7  1  0  0  0  0
  9 14  1  0  0  0  0
  9 11  1  0  0  0  0
 10 18  1  0  0  0  0
 11 12  1  0  0  0  0
 12 10  2  0  0  0  0
 13 12  1  0  0  0  0
 14 16  1  0  0  0  0
 15 13  1  0  0  0  0
 16  8  1  1  0  0  0
 16 15  1  0  0  0  0
 18 17  2  0  0  0  0
 19  2  1  0  0  0  0
 20 19  1  0  0  0  0
 21 20  1  0  0  0  0
 22 26  1  0  0  0  0
 22 31  1  0  0  0  0
 24 32  1  6  0  0  0
 24 29  1  0  0  0  0
 25 24  1  0  0  0  0
 26 25  1  6  0  0  0
 26 28  1  0  0  0  0
 28 27  1  1  0  0  0
 28 23  1  0  0  0  0
 29 27  1  0  0  0  0
 30 23  1  0  0  0  0
 30 21  1  0  0  0  0
 31 30  1  0  0  0  0
 32 34  2  0  0  0  0
 33 32  2  0  0  0  0
M  END
>  <MODEL>
1

>  <REMARK>
 VINA RESULT:      -9.1      0.000      0.000
  Name = 
  9 active torsions:
  status: ('A' for Active; 'I' for Inactive)
    1  A    between atoms: C_1  and  O_9
    2  A    between atoms: C_1  and  C_20
    3  A    between atoms: C_3  and  C_24
    4  A    between atoms: C_7  and  N_11
    5  A    between atoms: C_8  and  C_10
    6  A    between atoms: C_8  and  O_17
    7  A    between atoms: O_9  and  C_34
    8  A    between atoms: O_17  and  C_18
    9  A    between atoms: C_18  and  N_30
                            x       y       z     vdW  Elec       q    Type
                         _______ _______ _______ _____ _____    ______ ____

>  <TORSDO>
F 9

$$$$
=
 OpenBabel11052415403D

 34 37  0  0  1  0  0  0  0  0999 V2000
  180.0970  178.9730  144.2980 N   0  0  0  0  0  1  0  0  0  0  0  0
  182.0820  178.4210  141.5610 C   0  0  0  0  0  0  0  0  0  0  0  0
  180.9090  178.0770  141.1630 N   0  0  0  0  0  0  0  0  0  0  0  0
  180.5290  179.4540  142.9930 C   0  0  1  0  0  3  0  0  0  0  0  0
  182.0510  179.3110  142.7630 C   0  0  1  0  0  3  0  0  0  0  0  0
  179.9640  178.6430  141.9760 O   0  0  0  0  0  0  0  0  0  0  0  0
  182.7910  178.6600  143.9310 C   0  0  0  0  0  2  0  0  0  0  0  0
  183.9270  179.4200  144.2730 O   0  0  0  0  0  0  0  0  0  0  0  0
  186.3500  177.9410  146.7340 C   0  0  0  0  0  2  0  0  0  0  0  0
  189.1350  177.7770  144.1880 C   0  0  0  0  0  3  0  0  0  0  0  0
  187.8080  177.9160  146.2800 C   0  0  0  0  0  2  0  0  0  0  0  0
  187.9880  177.5470  144.8340 C   0  0  0  0  0  0  0  0  0  0  0  0
  186.8430  177.0160  144.0310 C   0  0  0  0  0  2  0  0  0  0  0  0
  185.5850  179.0500  146.0280 C   0  0  0  0  0  2  0  0  0  0  0  0
  185.9250  178.1560  143.6160 C   0  0  0  0  0  2  0  0  0  0  0  0
  184.9400  178.5460  144.7290 C   0  0  2  0  0  3  0  0  0  0  0  0
  191.3720  178.6370  144.0510 O   0  0  0  0  0  0  0  0  0  0  0  0
  190.3680  178.3470  144.7580 C   0  0  0  0  0  3  0  0  0  0  0  0
  183.3200  178.0180  140.8280 C   0  0  0  0  0  2  0  0  0  0  0  0
  184.1460  179.1310  140.6660 O   0  0  0  0  0  0  0  0  0  0  0  0
  184.2470  179.3230  139.2790 C   0  0  0  0  0  2  0  0  0  0  0  0
  186.9200  177.5870  137.3190 C   0  0  0  0  0  2  0  0  0  0  0  0
  186.4120  178.5980  139.9160 C   0  0  0  0  0  2  0  0  0  0  0  0
  190.3000  177.4320  138.9990 C   0  0  1  0  0  3  0  0  0  0  0  0
  189.2190  176.9710  138.0160 C   0  0  0  0  0  2  0  0  0  0  0  0
  187.8000  177.2540  138.5210 C   0  0  1  0  0  3  0  0  0  0  0  0
  188.5110  177.9690  140.7100 C   0  0  0  0  0  2  0  0  0  0  0  0
  187.7920  178.3640  139.4910 N   0  0  2  0  0  0  0  0  0  0  0  0
  189.8410  177.2570  140.4430 C   0  0  0  0  0  2  0  0  0  0  0  0
  185.5960  179.0340  138.7840 N   0  0  0  0  0  0  0  0  0  0  0  0
  185.5220  177.9480  137.8010 C   0  0  0  0  0  2  0  0  0  0  0  0
  191.5350  176.6990  138.7710 N   0  0  0  0  0  0  0  0  0  0  0  0
  191.5300  175.5560  138.0070 O   0  0  0  0  0  0  0  0  0  0  0  0
  192.5640  177.0190  139.3980 O   0  0  0  0  0  0  0  0  0  0  0  0
  2  5  1  0  0  0  0
  3  2  2  0  0  0  0
  3  6  1  0  0  0  0
  4  1  1  1  0  0  0
  5  4  1  0  0  0  0
  5  7  1  1  0  0  0
  6  4  1  0  0  0  0
  7  8  1  0  0  0  0
 10 18  1  0  0  0  0
 10 12  2  0  0  0  0
 11  9  1  0  0  0  0
 12 11  1  0  0  0  0
 13 12  1  0  0  0  0
 14  9  1  0  0  0  0
 15 13  1  0  0  0  0
 15 16  1  0  0  0  0
 16  8  1  6  0  0  0
 16 14  1  0  0  0  0
 17 18  2  0  0  0  0
 19  2  1  0  0  0  0
 20 19  1  0  0  0  0
 21 20  1  0  0  0  0
 22 31  1  0  0  0  0
 24 32  1  1  0  0  0
 24 29  1  0  0  0  0
 25 26  1  0  0  0  0
 25 24  1  0  0  0  0
 26 22  1  6  0  0  0
 26 28  1  0  0  0  0
 28 23  1  1  0  0  0
 28 27  1  0  0  0  0
 29 27  1  0  0  0  0
 30 21  1  0  0  0  0
 30 23  1  0  0  0  0
 31 30  1  0  0  0  0
 32 34  2  0  0  0  0
 33 32  2  0  0  0  0
M  END
>  <MODEL>
2

>  <REMARK>
 VINA RESULT:      -8.4      2.252      3.492
  Name = 
  9 active torsions:
  status: ('A' for Active; 'I' for Inactive)
    1  A    between atoms: C_1  and  O_9
    2  A    between atoms: C_1  and  C_20
    3  A    between atoms: C_3  and  C_24
    4  A    between atoms: C_7  and  N_11
    5  A    between atoms: C_8  and  C_10
    6  A    between atoms: C_8  and  O_17
    7  A    between atoms: O_9  and  C_34
    8  A    between atoms: O_17  and  C_18
    9  A    between atoms: C_18  and  N_30
                            x       y       z     vdW  Elec       q    Type
                         _______ _______ _______ _____ _____    ______ ____

>  <TORSDO>
F 9

$$$$
=
 OpenBabel11052415403D

 34 37  0  0  1  0  0  0  0  0999 V2000
  189.0620  178.2860  148.0690 N   0  0  0  0  0  1  0  0  0  0  0  0
  190.7760  176.7680  145.5210 C   0  0  0  0  0  0  0  0  0  0  0  0
  191.6950  177.0800  146.3650 N   0  0  0  0  0  0  0  0  0  0  0  0
  189.7320  177.0790  147.6050 C   0  0  1  0  0  3  0  0  0  0  0  0
  189.4110  176.7310  146.1340 C   0  0  1  0  0  3  0  0  0  0  0  0
  191.1340  177.2870  147.5980 O   0  0  0  0  0  0  0  0  0  0  0  0
  188.4900  177.7400  145.4490 C   0  0  0  0  0  2  0  0  0  0  0  0
  187.1680  177.2530  145.4210 O   0  0  0  0  0  0  0  0  0  0  0  0
  184.2070  179.4360  144.6600 C   0  0  0  0  0  2  0  0  0  0  0  0
  183.9500  178.1810  141.1060 C   0  0  0  0  0  3  0  0  0  0  0  0
  183.4790  179.1170  143.3560 C   0  0  0  0  0  2  0  0  0  0  0  0
  184.3960  178.7830  142.2130 C   0  0  0  0  0  0  0  0  0  0  0  0
  185.8710  179.0060  142.3250 C   0  0  0  0  0  2  0  0  0  0  0  0
  184.9320  178.2070  145.1860 C   0  0  0  0  0  2  0  0  0  0  0  0
  186.5050  177.8940  143.1470 C   0  0  0  0  0  2  0  0  0  0  0  0
  186.3720  178.1370  144.6580 C   0  0  2  0  0  3  0  0  0  0  0  0
  181.6760  178.6630  140.5070 O   0  0  0  0  0  0  0  0  0  0  0  0
  182.5560  177.8110  140.8060 C   0  0  0  0  0  3  0  0  0  0  0  0
  191.0870  176.4110  144.1040 C   0  0  0  0  0  2  0  0  0  0  0  0
  191.7630  177.4700  143.4960 O   0  0  0  0  0  0  0  0  0  0  0  0
  190.7950  178.1420  142.7330 C   0  0  0  0  0  2  0  0  0  0  0  0
  191.1730  176.6880  139.3050 C   0  0  0  0  0  2  0  0  0  0  0  0
  189.2770  178.0450  140.9150 C   0  0  0  0  0  2  0  0  0  0  0  0
  187.9750  176.4110  137.3160 C   0  0  1  0  0  3  0  0  0  0  0  0
  189.4930  176.5070  137.4910 C   0  0  0  0  0  2  0  0  0  0  0  0
  189.8970  177.3030  138.7370 C   0  0  1  0  0  3  0  0  0  0  0  0
  187.6540  178.0250  139.2420 C   0  0  0  0  0  2  0  0  0  0  0  0
  188.8230  177.2920  139.7460 N   0  0  2  0  0  0  0  0  0  0  0  0
  187.2840  177.6840  137.7950 C   0  0  0  0  0  2  0  0  0  0  0  0
  190.4290  177.3890  141.5310 N   0  0  0  0  0  0  0  0  0  0  0  0
  191.5540  177.4130  140.5890 C   0  0  0  0  0  2  0  0  0  0  0  0
  187.6420  176.1510  135.9250 N   0  0  0  0  0  0  0  0  0  0  0  0
  186.3470  175.8590  135.5670 O   0  0  0  0  0  0  0  0  0  0  0  0
  188.5560  176.0360  135.0860 O   0  0  0  0  0  0  0  0  0  0  0  0
  2  5  1  0  0  0  0
  2  3  2  0  0  0  0
  3  6  1  0  0  0  0
  4  1  1  6  0  0  0
  5  7  1  6  0  0  0
  5  4  1  0  0  0  0
  6  4  1  0  0  0  0
  8  7  1  0  0  0  0
  9 14  1  0  0  0  0
 10 12  2  0  0  0  0
 11  9  1  0  0  0  0
 12 13  1  0  0  0  0
 12 11  1  0  0  0  0
 13 15  1  0  0  0  0
 15 16  1  0  0  0  0
 16 14  1  0  0  0  0
 16  8  1  1  0  0  0
 17 18  2  0  0  0  0
 18 10  1  0  0  0  0
 19  2  1  0  0  0  0
 20 19  1  0  0  0  0
 21 20  1  0  0  0  0
 22 31  1  0  0  0  0
 23 30  1  0  0  0  0
 24 32  1  6  0  0  0
 24 25  1  0  0  0  0
 24 29  1  0  0  0  0
 26 25  1  6  0  0  0
 26 22  1  0  0  0  0
 26 28  1  0  0  0  0
 28 27  1  6  0  0  0
 28 23  1  0  0  0  0
 29 27  1  0  0  0  0
 30 21  1  0  0  0  0
 31 30  1  0  0  0  0
 33 32  2  0  0  0  0
 34 32  2  0  0  0  0
M  END
>  <MODEL>
3

>  <REMARK>
 VINA RESULT:      -8.2      2.342      6.111
  Name = 
  9 active torsions:
  status: ('A' for Active; 'I' for Inactive)
    1  A    between atoms: C_1  and  O_9
    2  A    between atoms: C_1  and  C_20
    3  A    between atoms: C_3  and  C_24
    4  A    between atoms: C_7  and  N_11
    5  A    between atoms: C_8  and  C_10
    6  A    between atoms: C_8  and  O_17
    7  A    between atoms: O_9  and  C_34
    8  A    between atoms: O_17  and  C_18
    9  A    between atoms: C_18  and  N_30
                            x       y       z     vdW  Elec       q    Type
                         _______ _______ _______ _____ _____    ______ ____

>  <TORSDO>
F 9

$$$$
=
 OpenBabel11052415403D

 34 37  0  0  1  0  0  0  0  0999 V2000
  184.8590  178.2940  146.9360 N   0  0  0  0  0  1  0  0  0  0  0  0
  184.4990  178.5000  143.5350 C   0  0  0  0  0  0  0  0  0  0  0  0
  183.3010  178.6470  143.9790 N   0  0  0  0  0  0  0  0  0  0  0  0
  184.6660  179.1650  145.7850 C   0  0  1  0  0  3  0  0  0  0  0  0
  185.5430  178.7760  144.5720 C   0  0  1  0  0  3  0  0  0  0  0  0
  183.3430  179.0210  145.2960 O   0  0  0  0  0  0  0  0  0  0  0  0
  186.4040  177.5360  144.8070 C   0  0  0  0  0  2  0  0  0  0  0  0
  187.5930  177.8870  145.4760 O   0  0  0  0  0  0  0  0  0  0  0  0
  191.1850  176.9750  144.8620 C   0  0  0  0  0  2  0  0  0  0  0  0
  190.6760  176.6890  141.1300 C   0  0  0  0  0  3  0  0  0  0  0  0
  191.6260  177.0090  143.4000 C   0  0  0  0  0  2  0  0  0  0  0  0
  190.6060  176.4570  142.4440 C   0  0  0  0  0  0  0  0  0  0  0  0
  189.4020  175.7260  142.9480 C   0  0  0  0  0  2  0  0  0  0  0  0
  190.0050  177.9060  145.0890 C   0  0  0  0  0  2  0  0  0  0  0  0
  188.3690  176.7160  143.4640 C   0  0  0  0  0  2  0  0  0  0  0  0
  188.6690  177.1740  144.9000 C   0  0  2  0  0  3  0  0  0  0  0  0
  192.2450  177.0280  139.3440 O   0  0  0  0  0  0  0  0  0  0  0  0
  191.7320  177.4350  140.4220 C   0  0  0  0  0  3  0  0  0  0  0  0
  184.7820  178.1640  142.1070 C   0  0  0  0  0  2  0  0  0  0  0  0
  185.0670  179.3350  141.4030 O   0  0  0  0  0  0  0  0  0  0  0  0
  184.1950  179.3320  140.3030 C   0  0  0  0  0  2  0  0  0  0  0  0
  184.9320  177.4990  137.1240 C   0  0  0  0  0  2  0  0  0  0  0  0
  186.2480  178.5740  139.3910 C   0  0  0  0  0  2  0  0  0  0  0  0
  188.5860  177.3070  136.1900 C   0  0  1  0  0  3  0  0  0  0  0  0
  187.1250  176.8490  136.1670 C   0  0  0  0  0  2  0  0  0  0  0  0
  186.3820  177.1730  137.4690 C   0  0  1  0  0  3  0  0  0  0  0  0
  188.3530  177.9180  138.6380 C   0  0  0  0  0  2  0  0  0  0  0  0
  187.0130  178.3020  138.1740 N   0  0  2  0  0  0  0  0  0  0  0  0
  189.1830  177.1720  137.5870 C   0  0  0  0  0  2  0  0  0  0  0  0
  184.8910  179.0040  139.0560 N   0  0  0  0  0  0  0  0  0  0  0  0
  184.1900  177.8990  138.3920 C   0  0  0  0  0  2  0  0  0  0  0  0
  189.3700  176.5440  135.2320 N   0  0  0  0  0  0  0  0  0  0  0  0
  188.8160  175.4600  134.5940 O   0  0  0  0  0  0  0  0  0  0  0  0
  190.5880  176.7770  135.1110 O   0  0  0  0  0  0  0  0  0  0  0  0
  2  3  2  0  0  0  0
  2  5  1  0  0  0  0
  3  6  1  0  0  0  0
  4  1  1  1  0  0  0
  5  7  1  1  0  0  0
  5  4  1  0  0  0  0
  6  4  1  0  0  0  0
  7  8  1  0  0  0  0
  9 14  1  0  0  0  0
 10 12  2  0  0  0  0
 11  9  1  0  0  0  0
 12 13  1  0  0  0  0
 12 11  1  0  0  0  0
 13 15  1  0  0  0  0
 15 16  1  0  0  0  0
 16 14  1  0  0  0  0
 16  8  1  6  0  0  0
 17 18  2  0  0  0  0
 18 10  1  0  0  0  0
 19  2  1  0  0  0  0
 20 19  1  0  0  0  0
 21 20  1  0  0  0  0
 22 26  1  0  0  0  0
 22 31  1  0  0  0  0
 24 32  1  6  0  0  0
 24 29  1  0  0  0  0
 25 24  1  0  0  0  0
 26 25  1  6  0  0  0
 26 28  1  0  0  0  0
 28 27  1  1  0  0  0
 28 23  1  0  0  0  0
 29 27  1  0  0  0  0
 30 23  1  0  0  0  0
 30 21  1  0  0  0  0
 31 30  1  0  0  0  0
 33 32  2  0  0  0  0
 34 32  2  0  0  0  0
M  END
>  <MODEL>
4

>  <REMARK>
 VINA RESULT:      -8.1      1.552      2.617
  Name = 
  9 active torsions:
  status: ('A' for Active; 'I' for Inactive)
    1  A    between atoms: C_1  and  O_9
    2  A    between atoms: C_1  and  C_20
    3  A    between atoms: C_3  and  C_24
    4  A    between atoms: C_7  and  N_11
    5  A    between atoms: C_8  and  C_10
    6  A    between atoms: C_8  and  O_17
    7  A    between atoms: O_9  and  C_34
    8  A    between atoms: O_17  and  C_18
    9  A    between atoms: C_18  and  N_30
                            x       y       z     vdW  Elec       q    Type
                         _______ _______ _______ _____ _____    ______ ____

>  <TORSDO>
F 9

$$$$
=
 OpenBabel11052415403D

 34 37  0  0  1  0  0  0  0  0999 V2000
  193.0940  176.5730  138.3200 N   0  0  0  0  0  1  0  0  0  0  0  0
  189.7380  176.5060  137.6370 C   0  0  0  0  0  0  0  0  0  0  0  0
  190.2790  176.7290  136.4920 N   0  0  0  0  0  0  0  0  0  0  0  0
  191.9800  175.8090  137.7770 C   0  0  1  0  0  3  0  0  0  0  0  0
  190.6940  175.9190  138.6280 C   0  0  1  0  0  3  0  0  0  0  0  0
  191.5950  176.3530  136.5250 O   0  0  0  0  0  0  0  0  0  0  0  0
  190.8350  176.8350  139.8430 C   0  0  0  0  0  2  0  0  0  0  0  0
  190.5380  176.1280  141.0240 O   0  0  0  0  0  0  0  0  0  0  0  0
  190.8250  178.9370  143.5030 C   0  0  0  0  0  2  0  0  0  0  0  0
  188.7510  177.1260  146.0890 C   0  0  0  0  0  3  0  0  0  0  0  0
  190.3660  178.6060  144.9210 C   0  0  0  0  0  2  0  0  0  0  0  0
  189.1190  177.7680  144.9760 C   0  0  0  0  0  0  0  0  0  0  0  0
  188.3050  177.5270  143.7440 C   0  0  0  0  0  2  0  0  0  0  0  0
  191.2600  177.6770  142.7700 C   0  0  0  0  0  2  0  0  0  0  0  0
  188.9690  176.4640  142.8810 C   0  0  0  0  0  2  0  0  0  0  0  0
  190.0900  177.0430  142.0040 C   0  0  2  0  0  3  0  0  0  0  0  0
  188.9680  177.7970  148.3840 O   0  0  0  0  0  0  0  0  0  0  0  0
  189.4330  177.1670  147.3940 C   0  0  0  0  0  3  0  0  0  0  0  0
  188.2860  176.7470  137.8910 C   0  0  0  0  0  2  0  0  0  0  0  0
  188.0380  178.1210  137.8980 O   0  0  0  0  0  0  0  0  0  0  0  0
  186.6790  178.2570  137.5700 C   0  0  0  0  0  2  0  0  0  0  0  0
  183.5070  178.0260  139.5420 C   0  0  0  0  0  2  0  0  0  0  0  0
  186.2090  178.8280  139.8230 C   0  0  0  0  0  2  0  0  0  0  0  0
  183.8880  178.5420  143.2640 C   0  0  1  0  0  3  0  0  0  0  0  0
  183.1180  178.5220  141.9400 C   0  0  0  0  0  2  0  0  0  0  0  0
  184.0080  178.8390  140.7330 C   0  0  1  0  0  3  0  0  0  0  0  0
  185.9330  179.4260  142.0580 C   0  0  0  0  0  2  0  0  0  0  0  0
  185.4200  178.5260  141.0160 N   0  0  2  0  0  0  0  0  0  0  0  0
  184.9830  179.6030  143.2480 C   0  0  0  0  0  2  0  0  0  0  0  0
  185.8100  177.9640  138.7130 N   0  0  0  0  0  0  0  0  0  0  0  0
  184.4210  178.2640  138.3490 C   0  0  0  0  0  2  0  0  0  0  0  0
  182.9780  178.7750  144.3740 N   0  0  0  0  0  0  0  0  0  0  0  0
  181.6300  178.9160  144.1450 O   0  0  0  0  0  0  0  0  0  0  0  0
  183.4390  179.0060  145.5090 O   0  0  0  0  0  0  0  0  0  0  0  0
  2 19  1  0  0  0  0
  2  5  1  0  0  0  0
  3  6  1  0  0  0  0
  3  2  2  0  0  0  0
  4  1  1  1  0  0  0
  4  5  1  0  0  0  0
  5  7  1  1  0  0  0
  6  4  1  0  0  0  0
  7  8  1  0  0  0  0
  9 11  1  0  0  0  0
 10 18  1  0  0  0  0
 11 12  1  0  0  0  0
 12 10  2  0  0  0  0
 13 12  1  0  0  0  0
 14  9  1  0  0  0  0
 15 13  1  0  0  0  0
 16  8  1  1  0  0  0
 16 14  1  0  0  0  0
 16 15  1  0  0  0  0
 18 17  2  0  0  0  0
 19 20  1  0  0  0  0
 21 20  1  0  0  0  0
 21 30  1  0  0  0  0
 24 32  1  1  0  0  0
 25 24  1  0  0  0  0
 26 22  1  6  0  0  0
 26 28  1  0  0  0  0
 26 25  1  0  0  0  0
 27 29  1  0  0  0  0
 28 23  1  6  0  0  0
 28 27  1  0  0  0  0
 29 24  1  0  0  0  0
 30 23  1  0  0  0  0
 31 30  1  0  0  0  0
 31 22  1  0  0  0  0
 32 34  2  0  0  0  0
 33 32  2  0  0  0  0
M  END
>  <MODEL>
5

>  <REMARK>
 VINA RESULT:      -8.1      1.966      6.744
  Name = 
  9 active torsions:
  status: ('A' for Active; 'I' for Inactive)
    1  A    between atoms: C_1  and  O_9
    2  A    between atoms: C_1  and  C_20
    3  A    between atoms: C_3  and  C_24
    4  A    between atoms: C_7  and  N_11
    5  A    between atoms: C_8  and  C_10
    6  A    between atoms: C_8  and  O_17
    7  A    between atoms: O_9  and  C_34
    8  A    between atoms: O_17  and  C_18
    9  A    between atoms: C_18  and  N_30
                            x       y       z     vdW  Elec       q    Type
                         _______ _______ _______ _____ _____    ______ ____

>  <TORSDO>
F 9

$$$$
=
 OpenBabel11052415403D

 34 37  0  0  1  0  0  0  0  0999 V2000
  184.1140  177.1220  135.4510 N   0  0  0  0  0  1  0  0  0  0  0  0
  183.7650  178.4930  138.5710 C   0  0  0  0  0  0  0  0  0  0  0  0
  182.6350  178.7290  138.0050 N   0  0  0  0  0  0  0  0  0  0  0  0
  183.5500  176.9770  136.7860 C   0  0  1  0  0  3  0  0  0  0  0  0
  184.5290  177.3900  137.9090 C   0  0  1  0  0  3  0  0  0  0  0  0
  182.4670  177.8780  136.9450 O   0  0  0  0  0  0  0  0  0  0  0  0
  185.8740  177.9030  137.3960 C   0  0  0  0  0  2  0  0  0  0  0  0
  186.7810  176.8350  137.2530 O   0  0  0  0  0  0  0  0  0  0  0  0
  190.4750  176.5980  137.8980 C   0  0  0  0  0  2  0  0  0  0  0  0
  190.0870  177.4550  141.5560 C   0  0  0  0  0  3  0  0  0  0  0  0
  190.8810  176.5890  139.3700 C   0  0  0  0  0  2  0  0  0  0  0  0
  190.0960  177.5460  140.2230 C   0  0  0  0  0  0  0  0  0  0  0  0
  189.1970  178.5660  139.5990 C   0  0  0  0  0  2  0  0  0  0  0  0
  189.0550  176.0800  137.7280 C   0  0  0  0  0  2  0  0  0  0  0  0
  187.8970  177.9120  139.1540 C   0  0  0  0  0  2  0  0  0  0  0  0
  188.0310  177.2220  137.7880 C   0  0  2  0  0  3  0  0  0  0  0  0
  191.8010  176.8400  143.1210 O   0  0  0  0  0  0  0  0  0  0  0  0
  190.8420  176.4930  142.3780 C   0  0  0  0  0  3  0  0  0  0  0  0
  184.2020  179.2130  139.8050 C   0  0  0  0  0  2  0  0  0  0  0  0
  184.4540  178.2870  140.8180 O   0  0  0  0  0  0  0  0  0  0  0  0
  183.5780  178.6260  141.8620 C   0  0  0  0  0  2  0  0  0  0  0  0
  184.3650  178.9300  145.5080 C   0  0  0  0  0  2  0  0  0  0  0  0
  185.5710  178.1670  143.0610 C   0  0  0  0  0  2  0  0  0  0  0  0
  187.6090  177.3280  146.5910 C   0  0  1  0  0  3  0  0  0  0  0  0
  186.4380  178.3080  146.7170 C   0  0  0  0  0  2  0  0  0  0  0  0
  185.8700  178.7290  145.3570 C   0  0  1  0  0  3  0  0  0  0  0  0
  187.6030  177.6480  144.0780 C   0  0  0  0  0  2  0  0  0  0  0  0
  186.1560  177.7180  144.3240 N   0  0  2  0  0  0  0  0  0  0  0  0
  188.4500  177.6320  145.3550 C   0  0  0  0  0  2  0  0  0  0  0  0
  184.1150  178.2440  143.1700 N   0  0  0  0  0  0  0  0  0  0  0  0
  183.7630  179.2750  144.1530 C   0  0  0  0  0  2  0  0  0  0  0  0
  188.4360  177.3730  147.7860 N   0  0  0  0  0  0  0  0  0  0  0  0
  187.9290  177.8800  148.9590 O   0  0  0  0  0  0  0  0  0  0  0  0
  189.6490  177.1010  147.7040 O   0  0  0  0  0  0  0  0  0  0  0  0
  2 19  1  0  0  0  0
  3  2  2  0  0  0  0
  4  1  1  6  0  0  0
  4  6  1  0  0  0  0
  4  5  1  0  0  0  0
  5  7  1  6  0  0  0
  5  2  1  0  0  0  0
  6  3  1  0  0  0  0
  8  7  1  0  0  0  0
  9 11  1  0  0  0  0
 10 18  1  0  0  0  0
 11 12  1  0  0  0  0
 12 10  2  0  0  0  0
 13 12  1  0  0  0  0
 14 16  1  0  0  0  0
 14  9  1  0  0  0  0
 15 13  1  0  0  0  0
 16  8  1  1  0  0  0
 16 15  1  0  0  0  0
 18 17  2  0  0  0  0
 19 20  1  0  0  0  0
 20 21  1  0  0  0  0
 21 30  1  0  0  0  0
 23 30  1  0  0  0  0
 24 25  1  0  0  0  0
 24 32  1  1  0  0  0
 26 22  1  1  0  0  0
 26 25  1  0  0  0  0
 27 28  1  0  0  0  0
 27 29  1  0  0  0  0
 28 23  1  6  0  0  0
 28 26  1  0  0  0  0
 29 24  1  0  0  0  0
 30 31  1  0  0  0  0
 31 22  1  0  0  0  0
 32 33  2  0  0  0  0
 34 32  2  0  0  0  0
M  END
>  <MODEL>
6

>  <REMARK>
 VINA RESULT:      -8.0      2.742      7.132
  Name = 
  9 active torsions:
  status: ('A' for Active; 'I' for Inactive)
    1  A    between atoms: C_1  and  O_9
    2  A    between atoms: C_1  and  C_20
    3  A    between atoms: C_3  and  C_24
    4  A    between atoms: C_7  and  N_11
    5  A    between atoms: C_8  and  C_10
    6  A    between atoms: C_8  and  O_17
    7  A    between atoms: O_9  and  C_34
    8  A    between atoms: O_17  and  C_18
    9  A    between atoms: C_18  and  N_30
                            x       y       z     vdW  Elec       q    Type
                         _______ _______ _______ _____ _____    ______ ____

>  <TORSDO>
F 9

$$$$
=
 OpenBabel11052415403D

 34 37  0  0  1  0  0  0  0  0999 V2000
  183.1430  177.5790  140.3920 N   0  0  0  0  0  1  0  0  0  0  0  0
  185.7530  178.1750  138.2550 C   0  0  0  0  0  0  0  0  0  0  0  0
  185.0130  177.3440  137.6100 N   0  0  0  0  0  0  0  0  0  0  0  0
  183.6020  178.2790  139.2000 C   0  0  1  0  0  3  0  0  0  0  0  0
  185.0190  178.8780  139.3530 C   0  0  1  0  0  3  0  0  0  0  0  0
  183.7470  177.3560  138.1340 O   0  0  0  0  0  0  0  0  0  0  0  0
  185.6690  178.5860  140.7040 C   0  0  0  0  0  2  0  0  0  0  0  0
  185.2440  179.5250  141.6640 O   0  0  0  0  0  0  0  0  0  0  0  0
  183.7510  178.9890  145.0690 C   0  0  0  0  0  2  0  0  0  0  0  0
  187.0400  177.8610  146.5470 C   0  0  0  0  0  3  0  0  0  0  0  0
  184.7580  178.7740  146.1970 C   0  0  0  0  0  2  0  0  0  0  0  0
  185.9220  177.9030  145.8140 C   0  0  0  0  0  0  0  0  0  0  0  0
  185.9170  177.1400  144.5270 C   0  0  0  0  0  2  0  0  0  0  0  0
  184.3780  179.7820  143.9330 C   0  0  0  0  0  2  0  0  0  0  0  0
  186.2440  178.0710  143.3690 C   0  0  0  0  0  2  0  0  0  0  0  0
  185.0140  178.8560  142.8870 C   0  0  2  0  0  3  0  0  0  0  0  0
  188.2530  178.2860  148.5740 O   0  0  0  0  0  0  0  0  0  0  0  0
  187.2910  178.5740  147.8110 C   0  0  0  0  0  3  0  0  0  0  0  0
  187.1710  178.4400  137.8690 C   0  0  0  0  0  2  0  0  0  0  0  0
  187.9590  177.3400  138.2130 O   0  0  0  0  0  0  0  0  0  0  0  0
  189.2870  177.7850  138.1110 C   0  0  0  0  0  2  0  0  0  0  0  0
  191.9010  177.4520  140.7690 C   0  0  0  0  0  2  0  0  0  0  0  0
  189.1020  177.2200  140.4060 C   0  0  0  0  0  2  0  0  0  0  0  0
  190.5800  177.1700  144.2960 C   0  0  1  0  0  3  0  0  0  0  0  0
  191.6210  176.9830  143.1870 C   0  0  0  0  0  2  0  0  0  0  0  0
  190.9860  176.8040  141.8040 C   0  0  1  0  0  3  0  0  0  0  0  0
  188.7300  176.6680  142.6400 C   0  0  0  0  0  2  0  0  0  0  0  0
  189.6410  177.4040  141.7530 N   0  0  2  0  0  0  0  0  0  0  0  0
  189.3250  176.3500  144.0160 C   0  0  0  0  0  2  0  0  0  0  0  0
  189.9120  177.9420  139.4280 N   0  0  0  0  0  0  0  0  0  0  0  0
  191.2560  177.3560  139.3930 C   0  0  0  0  0  2  0  0  0  0  0  0
  191.1440  176.8030  145.5850 N   0  0  0  0  0  0  0  0  0  0  0  0
  192.0550  175.7760  145.6740 O   0  0  0  0  0  0  0  0  0  0  0  0
  190.6830  177.3110  146.6240 O   0  0  0  0  0  0  0  0  0  0  0  0
  2  5  1  0  0  0  0
  3  6  1  0  0  0  0
  3  2  2  0  0  0  0
  4  5  1  0  0  0  0
  4  1  1  1  0  0  0
  5  7  1  1  0  0  0
  6  4  1  0  0  0  0
  7  8  1  0  0  0  0
  9 11  1  0  0  0  0
 10 18  1  0  0  0  0
 12 11  1  0  0  0  0
 12 10  2  0  0  0  0
 13 12  1  0  0  0  0
 14  9  1  0  0  0  0
 15 13  1  0  0  0  0
 16  8  1  6  0  0  0
 16 15  1  0  0  0  0
 16 14  1  0  0  0  0
 18 17  2  0  0  0  0
 19 20  1  0  0  0  0
 19  2  1  0  0  0  0
 21 20  1  0  0  0  0
 21 30  1  0  0  0  0
 24 32  1  1  0  0  0
 25 24  1  0  0  0  0
 26 22  1  6  0  0  0
 26 25  1  0  0  0  0
 27 29  1  0  0  0  0
 28 23  1  6  0  0  0
 28 26  1  0  0  0  0
 28 27  1  0  0  0  0
 29 24  1  0  0  0  0
 30 23  1  0  0  0  0
 31 30  1  0  0  0  0
 31 22  1  0  0  0  0
 32 33  2  0  0  0  0
 32 34  2  0  0  0  0
M  END
>  <MODEL>
7

>  <REMARK>
 VINA RESULT:      -7.9      2.365      6.119
  Name = 
  9 active torsions:
  status: ('A' for Active; 'I' for Inactive)
    1  A    between atoms: C_1  and  O_9
    2  A    between atoms: C_1  and  C_20
    3  A    between atoms: C_3  and  C_24
    4  A    between atoms: C_7  and  N_11
    5  A    between atoms: C_8  and  C_10
    6  A    between atoms: C_8  and  O_17
    7  A    between atoms: O_9  and  C_34
    8  A    between atoms: O_17  and  C_18
    9  A    between atoms: C_18  and  N_30
                            x       y       z     vdW  Elec       q    Type
                         _______ _______ _______ _____ _____    ______ ____

>  <TORSDO>
F 9

$$$$
=
 OpenBabel11052415403D

 34 37  0  0  1  0  0  0  0  0999 V2000
  185.4520  176.6190  135.3330 N   0  0  0  0  0  1  0  0  0  0  0  0
  184.6430  178.0920  138.3180 C   0  0  0  0  0  0  0  0  0  0  0  0
  183.5610  177.4910  137.9700 N   0  0  0  0  0  0  0  0  0  0  0  0
  185.2370  176.4330  136.7610 C   0  0  1  0  0  3  0  0  0  0  0  0
  185.8550  177.5570  137.6230 C   0  0  1  0  0  3  0  0  0  0  0  0
  183.8510  176.5200  137.0490 O   0  0  0  0  0  0  0  0  0  0  0  0
  186.5330  178.6570  136.8050 C   0  0  0  0  0  2  0  0  0  0  0  0
  187.6940  179.1080  137.4620 O   0  0  0  0  0  0  0  0  0  0  0  0
  189.4450  177.1350  140.1370 C   0  0  0  0  0  2  0  0  0  0  0  0
  192.1010  175.8940  137.7540 C   0  0  0  0  0  3  0  0  0  0  0  0
  190.8300  176.6130  139.7620 C   0  0  0  0  0  2  0  0  0  0  0  0
  190.9240  176.0920  138.3540 C   0  0  0  0  0  0  0  0  0  0  0  0
  189.6910  175.8910  137.5300 C   0  0  0  0  0  2  0  0  0  0  0  0
  189.0970  178.3700  139.3210 C   0  0  0  0  0  2  0  0  0  0  0  0
  189.2000  177.2270  136.9930 C   0  0  0  0  0  2  0  0  0  0  0  0
  188.3610  177.9970  138.0260 C   0  0  2  0  0  3  0  0  0  0  0  0
  194.4860  175.6280  137.8220 O   0  0  0  0  0  0  0  0  0  0  0  0
  193.4350  176.0860  138.3490 C   0  0  0  0  0  3  0  0  0  0  0  0
  184.6600  179.1560  139.3670 C   0  0  0  0  0  2  0  0  0  0  0  0
  185.2020  178.6380  140.5440 O   0  0  0  0  0  0  0  0  0  0  0  0
  184.1560  178.6640  141.4810 C   0  0  0  0  0  2  0  0  0  0  0  0
  184.6530  178.7940  145.1880 C   0  0  0  0  0  2  0  0  0  0  0  0
  186.0610  178.1820  142.8070 C   0  0  0  0  0  2  0  0  0  0  0  0
  187.8410  177.2010  146.4380 C   0  0  1  0  0  3  0  0  0  0  0  0
  186.6420  178.1500  146.5210 C   0  0  0  0  0  2  0  0  0  0  0  0
  186.1700  178.6300  145.1440 C   0  0  1  0  0  3  0  0  0  0  0  0
  188.0200  177.6510  143.9510 C   0  0  0  0  0  2  0  0  0  0  0  0
  186.5580  177.6800  144.0870 N   0  0  2  0  0  0  0  0  0  0  0  0
  188.7670  177.5850  145.2880 C   0  0  0  0  0  2  0  0  0  0  0  0
  184.6000  178.2250  142.8060 N   0  0  0  0  0  0  0  0  0  0  0  0
  184.1490  179.1960  143.8090 C   0  0  0  0  0  2  0  0  0  0  0  0
  188.5730  177.2010  147.6940 N   0  0  0  0  0  0  0  0  0  0  0  0
  188.0310  177.7940  148.8100 O   0  0  0  0  0  0  0  0  0  0  0  0
  189.7540  176.8050  147.7170 O   0  0  0  0  0  0  0  0  0  0  0  0
  2 19  1  0  0  0  0
  3  2  2  0  0  0  0
  4  1  1  6  0  0  0
  4  6  1  0  0  0  0
  4  5  1  0  0  0  0
  5  7  1  6  0  0  0
  5  2  1  0  0  0  0
  6  3  1  0  0  0  0
  7  8  1  0  0  0  0
 10 18  1  0  0  0  0
 10 12  2  0  0  0  0
 11  9  1  0  0  0  0
 12 11  1  0  0  0  0
 13 12  1  0  0  0  0
 14  9  1  0  0  0  0
 15 13  1  0  0  0  0
 15 16  1  0  0  0  0
 16  8  1  6  0  0  0
 16 14  1  0  0  0  0
 17 18  2  0  0  0  0
 19 20  1  0  0  0  0
 20 21  1  0  0  0  0
 21 30  1  0  0  0  0
 24 25  1  0  0  0  0
 24 32  1  1  0  0  0
 26 22  1  1  0  0  0
 26 25  1  0  0  0  0
 27 28  1  0  0  0  0
 27 29  1  0  0  0  0
 28 23  1  6  0  0  0
 28 26  1  0  0  0  0
 29 24  1  0  0  0  0
 30 23  1  0  0  0  0
 30 31  1  0  0  0  0
 31 22  1  0  0  0  0
 32 34  2  0  0  0  0
 32 33  2  0  0  0  0
M  END
>  <MODEL>
8

>  <REMARK>
 VINA RESULT:      -7.8      2.606      7.554
  Name = 
  9 active torsions:
  status: ('A' for Active; 'I' for Inactive)
    1  A    between atoms: C_1  and  O_9
    2  A    between atoms: C_1  and  C_20
    3  A    between atoms: C_3  and  C_24
    4  A    between atoms: C_7  and  N_11
    5  A    between atoms: C_8  and  C_10
    6  A    between atoms: C_8  and  O_17
    7  A    between atoms: O_9  and  C_34
    8  A    between atoms: O_17  and  C_18
    9  A    between atoms: C_18  and  N_30
                            x       y       z     vdW  Elec       q    Type
                         _______ _______ _______ _____ _____    ______ ____

>  <TORSDO>
F 9

$$$$
=
 OpenBabel11052415403D

 34 37  0  0  1  0  0  0  0  0999 V2000
  187.5740  178.2030  135.7980 N   0  0  0  0  0  1  0  0  0  0  0  0
  189.4340  177.6660  138.6250 C   0  0  0  0  0  0  0  0  0  0  0  0
  188.9160  178.8280  138.8150 N   0  0  0  0  0  0  0  0  0  0  0  0
  187.5650  177.8360  137.2080 C   0  0  1  0  0  3  0  0  0  0  0  0
  188.7050  176.8650  137.5930 C   0  0  1  0  0  3  0  0  0  0  0  0
  187.8270  178.9830  137.9990 O   0  0  0  0  0  0  0  0  0  0  0  0
  189.6340  176.5150  136.4320 C   0  0  0  0  0  2  0  0  0  0  0  0
  189.7080  175.1180  136.2690 O   0  0  0  0  0  0  0  0  0  0  0  0
  192.5780  172.8020  135.5540 C   0  0  0  0  0  2  0  0  0  0  0  0
  194.9270  174.6980  137.8250 C   0  0  0  0  0  3  0  0  0  0  0  0
  193.7860  172.9550  136.4770 C   0  0  0  0  0  2  0  0  0  0  0  0
  194.1230  174.3830  136.8060 C   0  0  0  0  0  0  0  0  0  0  0  0
  193.4690  175.5110  136.0730 C   0  0  0  0  0  2  0  0  0  0  0  0
  191.3090  173.2740  136.2470 C   0  0  0  0  0  2  0  0  0  0  0  0
  192.0600  175.7310  136.6040 C   0  0  0  0  0  2  0  0  0  0  0  0
  191.0450  174.7620  135.9790 C   0  0  2  0  0  3  0  0  0  0  0  0
  196.2100  174.1300  139.7730 O   0  0  0  0  0  0  0  0  0  0  0  0
  195.6270  173.7590  138.7180 C   0  0  0  0  0  3  0  0  0  0  0  0
  190.5960  177.1740  139.4250 C   0  0  0  0  0  2  0  0  0  0  0  0
  190.1300  176.5190  140.5650 O   0  0  0  0  0  0  0  0  0  0  0  0
  190.8580  177.0640  141.6350 C   0  0  0  0  0  2  0  0  0  0  0  0
  189.1950  177.3000  144.9780 C   0  0  0  0  0  2  0  0  0  0  0  0
  188.5970  177.4770  142.2150 C   0  0  0  0  0  2  0  0  0  0  0  0
  185.6700  178.6580  144.9270 C   0  0  1  0  0  3  0  0  0  0  0  0
  186.8410  177.8650  145.5160 C   0  0  0  0  0  2  0  0  0  0  0  0
  187.7670  177.2870  144.4400 C   0  0  1  0  0  3  0  0  0  0  0  0
  186.3400  177.9110  142.6010 C   0  0  0  0  0  2  0  0  0  0  0  0
  187.6780  178.0620  143.1900 N   0  0  2  0  0  0  0  0  0  0  0  0
  185.1970  178.0450  143.6130 C   0  0  0  0  0  2  0  0  0  0  0  0
  189.9780  177.5980  142.6780 N   0  0  0  0  0  0  0  0  0  0  0  0
  190.1460  176.8030  143.8990 C   0  0  0  0  0  2  0  0  0  0  0  0
  184.5720  178.7180  145.8780 N   0  0  0  0  0  0  0  0  0  0  0  0
  184.7550  178.2980  147.1740 O   0  0  0  0  0  0  0  0  0  0  0  0
  183.4270  179.0010  145.4760 O   0  0  0  0  0  0  0  0  0  0  0  0
  2  3  2  0  0  0  0
  2 19  1  0  0  0  0
  4  1  1  6  0  0  0
  4  5  1  0  0  0  0
  4  6  1  0  0  0  0
  5  7  1  6  0  0  0
  5  2  1  0  0  0  0
  6  3  1  0  0  0  0
  8  7  1  0  0  0  0
  9 14  1  0  0  0  0
  9 11  1  0  0  0  0
 10 18  1  0  0  0  0
 11 12  1  0  0  0  0
 12 10  2  0  0  0  0
 13 15  1  0  0  0  0
 13 12  1  0  0  0  0
 16 14  1  0  0  0  0
 16  8  1  1  0  0  0
 16 15  1  0  0  0  0
 18 17  2  0  0  0  0
 19 20  1  0  0  0  0
 20 21  1  0  0  0  0
 21 30  1  0  0  0  0
 23 30  1  0  0  0  0
 24 25  1  0  0  0  0
 24 32  1  1  0  0  0
 26 22  1  1  0  0  0
 26 25  1  0  0  0  0
 27 28  1  0  0  0  0
 27 29  1  0  0  0  0
 28 23  1  6  0  0  0
 28 26  1  0  0  0  0
 29 24  1  0  0  0  0
 30 31  1  0  0  0  0
 31 22  1  0  0  0  0
 32 33  2  0  0  0  0
 34 32  2  0  0  0  0
M  END
>  <MODEL>
9

>  <REMARK>
 VINA RESULT:      -7.7      3.322      8.443
  Name = 
  9 active torsions:
  status: ('A' for Active; 'I' for Inactive)
    1  A    between atoms: C_1  and  O_9
    2  A    between atoms: C_1  and  C_20
    3  A    between atoms: C_3  and  C_24
    4  A    between atoms: C_7  and  N_11
    5  A    between atoms: C_8  and  C_10
    6  A    between atoms: C_8  and  O_17
    7  A    between atoms: O_9  and  C_34
    8  A    between atoms: O_17  and  C_18
    9  A    between atoms: C_18  and  N_30
                            x       y       z     vdW  Elec       q    Type
                         _______ _______ _______ _____ _____    ______ ____

>  <TORSDO>
F 9

$$$$
