=
 OpenBabel11052413373D

 28 29  0  0  1  0  0  0  0  0999 V2000
  186.2070  178.1150  145.3360 C   0  0  0  0  0  2  0  0  0  0  0  0
  185.1290  180.2700  143.7300 C   0  0  0  0  0  1  0  0  0  0  0  0
  184.8180  178.8320  143.3090 C   0  0  1  0  0  0  0  0  0  0  0  0
  188.8140  177.9530  146.4060 C   0  0  0  0  0  2  0  0  0  0  0  0
  186.1390  179.1990  141.2020 C   0  0  0  0  0  2  0  0  0  0  0  0
  187.2460  178.3260  141.7280 C   0  0  0  0  0  0  0  0  0  0  0  0
  184.7730  178.8190  141.7640 C   0  0  1  0  0  3  0  0  0  0  0  0
  189.4690  177.5410  144.0380 C   0  0  0  0  0  2  0  0  0  0  0  0
  187.2020  177.7920  142.9830 C   0  0  0  0  0  0  0  0  0  0  0  0
  187.7580  177.2210  146.9890 O   0  0  0  0  0  0  0  0  0  0  0  0
  188.2730  176.8240  143.4250 C   0  0  0  0  0  2  0  0  0  0  0  0
  189.6770  177.1010  145.4800 C   0  0  0  0  0  2  0  0  0  0  0  0
  186.8300  176.8830  145.9850 C   0  0  0  0  0  2  0  0  0  0  0  0
  185.9350  177.8800  143.8430 C   0  0  1  0  0  3  0  0  0  0  0  0
  183.2300  177.4560  140.5990 O   0  0  0  0  0  0  0  0  0  0  0  0
  184.3100  177.5250  141.1620 C   0  0  0  0  0  3  0  0  0  0  0  0
  183.5450  178.5290  143.8530 O   0  0  0  0  0  0  0  0  0  0  0  0
  183.0400  179.6320  144.3760 O   0  0  0  0  0  1  0  0  0  0  0  0
  188.3860  178.0980  140.7580 C   0  0  1  0  0  3  0  0  0  0  0  0
  190.2370  176.8840  140.6310 C   0  0  0  0  0  1  0  0  0  0  0  0
  188.8620  176.7850  140.8530 O   0  0  0  0  0  0  0  0  0  0  0  0
  188.0160  178.4570  139.3140 C   0  0  2  0  0  3  0  0  0  0  0  0
  187.8760  177.2390  138.5040 C   0  0  0  0  0  0  0  0  0  0  0  0
  187.7610  176.2410  137.8400 C   0  0  0  0  0  0  0  0  0  0  0  0
  187.6210  175.0290  137.0320 C   0  0  0  0  0  1  0  0  0  0  0  0
  189.0050  179.2690  138.7510 O   0  0  0  0  0  0  0  0  0  0  0  0
  188.9120  179.0510  137.3740 C   0  0  0  0  0  2  0  0  0  0  0  0
  187.8790  179.8250  136.8500 O   0  0  0  0  0  1  0  0  0  0  0  0
  1 13  1  0  0  0  0
  3  2  1  1  0  0  0
  3 14  1  0  0  0  0
  3 17  1  0  0  0  0
  4 10  1  0  0  0  0
  5  6  1  0  0  0  0
  5  7  1  0  0  0  0
  6  9  2  0  0  0  0
  7 16  1  1  0  0  0
  7  3  1  0  0  0  0
  8 12  1  0  0  0  0
  9 11  1  0  0  0  0
  9 14  1  0  0  0  0
 11  8  1  0  0  0  0
 12  4  1  0  0  0  0
 13 10  1  0  0  0  0
 14  1  1  1  0  0  0
 15 16  2  0  0  0  0
 17 18  1  0  0  0  0
 19 21  1  6  0  0  0
 19  6  1  0  0  0  0
 20 21  1  0  0  0  0
 22 23  1  6  0  0  0
 22 19  1  0  0  0  0
 24 23  3  0  0  0  0
 25 24  1  0  0  0  0
 26 22  1  0  0  0  0
 27 26  1  0  0  0  0
 28 27  1  0  0  0  0
M  END
>  <MODEL>
1

>  <REMARK>
 VINA RESULT:      -6.4      0.000      0.000
  Name = 
  8 active torsions:
  status: ('A' for Active; 'I' for Inactive)
    1  A    between atoms: C_3  and  O_7
    2  A    between atoms: C_9  and  C_12
    3  A    between atoms: C_9  and  C_13
    4  A    between atoms: C_9  and  O_14
    5  A    between atoms: C_10  and  C_13
    6  A    between atoms: C_11  and  C_22
    7  A    between atoms: C_13  and  O_24
    8  A    between atoms: O_14  and  C_18
                            x       y       z     vdW  Elec       q    Type
                         _______ _______ _______ _____ _____    ______ ____

>  <TORSDO>
F 8

$$$$
=
 OpenBabel11052413373D

 28 29  0  0  1  0  0  0  0  0999 V2000
  185.9370  178.1250  143.1970 C   0  0  0  0  0  2  0  0  0  0  0  0
  187.8780  176.0070  143.5620 C   0  0  0  0  0  1  0  0  0  0  0  0
  188.3930  177.4420  143.4290 C   0  0  1  0  0  0  0  0  0  0  0  0
  183.6750  178.0640  141.5090 C   0  0  0  0  0  2  0  0  0  0  0  0
  189.5180  176.8030  141.2740 C   0  0  0  0  0  2  0  0  0  0  0  0
  188.4920  177.5790  140.4930 C   0  0  0  0  0  0  0  0  0  0  0  0
  189.7390  177.3650  142.6750 C   0  0  1  0  0  3  0  0  0  0  0  0
  185.3640  178.2550  139.6880 C   0  0  0  0  0  2  0  0  0  0  0  0
  187.4380  178.1910  141.1050 C   0  0  0  0  0  0  0  0  0  0  0  0
  183.7170  178.9420  142.6130 O   0  0  0  0  0  0  0  0  0  0  0  0
  186.5020  179.0600  140.3000 C   0  0  0  0  0  2  0  0  0  0  0  0
  184.0190  178.7580  140.1940 C   0  0  0  0  0  2  0  0  0  0  0  0
  185.0540  179.3190  142.8450 C   0  0  0  0  0  2  0  0  0  0  0  0
  187.3550  178.2960  142.6330 C   0  0  1  0  0  3  0  0  0  0  0  0
  191.3270  178.9450  143.4360 O   0  0  0  0  0  0  0  0  0  0  0  0
  190.4880  178.6630  142.5960 C   0  0  0  0  0  3  0  0  0  0  0  0
  188.5820  177.9160  144.7510 O   0  0  0  0  0  0  0  0  0  0  0  0
  188.9670  176.9040  145.5080 O   0  0  0  0  0  1  0  0  0  0  0  0
  188.7340  177.6200  138.9990 C   0  0  1  0  0  3  0  0  0  0  0  0
  189.0380  179.2870  137.5680 C   0  0  0  0  0  1  0  0  0  0  0  0
  189.6200  178.6530  138.6680 O   0  0  0  0  0  0  0  0  0  0  0  0
  189.2090  176.2740  138.4380 C   0  0  2  0  0  3  0  0  0  0  0  0
  190.6740  176.2550  138.3260 C   0  0  0  0  0  0  0  0  0  0  0  0
  191.8740  176.2390  138.2330 C   0  0  0  0  0  0  0  0  0  0  0  0
  193.3330  176.2190  138.1190 C   0  0  0  0  0  1  0  0  0  0  0  0
  188.6510  176.0550  137.1750 O   0  0  0  0  0  0  0  0  0  0  0  0
  187.2760  175.9520  137.4010 C   0  0  0  0  0  2  0  0  0  0  0  0
  186.5890  176.6400  136.4020 O   0  0  0  0  0  1  0  0  0  0  0  0
  3  2  1  1  0  0  0
  3 17  1  0  0  0  0
  4 10  1  0  0  0  0
  5  7  1  0  0  0  0
  6  9  2  0  0  0  0
  6  5  1  0  0  0  0
  7 16  1  6  0  0  0
  7  3  1  0  0  0  0
  8 12  1  0  0  0  0
  8 11  1  0  0  0  0
  9 14  1  0  0  0  0
 10 13  1  0  0  0  0
 11  9  1  0  0  0  0
 12  4  1  0  0  0  0
 13  1  1  0  0  0  0
 14  1  1  1  0  0  0
 14  3  1  0  0  0  0
 16 15  2  0  0  0  0
 17 18  1  0  0  0  0
 19 21  1  1  0  0  0
 19  6  1  0  0  0  0
 20 21  1  0  0  0  0
 22 23  1  6  0  0  0
 22 19  1  0  0  0  0
 24 23  3  0  0  0  0
 25 24  1  0  0  0  0
 26 27  1  0  0  0  0
 26 22  1  0  0  0  0
 28 27  1  0  0  0  0
M  END
>  <MODEL>
2

>  <REMARK>
 VINA RESULT:      -6.3      1.972      4.809
  Name = 
  8 active torsions:
  status: ('A' for Active; 'I' for Inactive)
    1  A    between atoms: C_3  and  O_7
    2  A    between atoms: C_9  and  C_12
    3  A    between atoms: C_9  and  C_13
    4  A    between atoms: C_9  and  O_14
    5  A    between atoms: C_10  and  C_13
    6  A    between atoms: C_11  and  C_22
    7  A    between atoms: C_13  and  O_24
    8  A    between atoms: O_14  and  C_18
                            x       y       z     vdW  Elec       q    Type
                         _______ _______ _______ _____ _____    ______ ____

>  <TORSDO>
F 8

$$$$
=
 OpenBabel11052413373D

 28 29  0  0  1  0  0  0  0  0999 V2000
  191.0650  173.6350  135.9880 C   0  0  0  0  0  2  0  0  0  0  0  0
  188.4050  173.1040  137.0000 C   0  0  0  0  0  1  0  0  0  0  0  0
  188.5640  174.1740  135.9170 C   0  0  1  0  0  0  0  0  0  0  0  0
  193.4320  173.8620  137.5100 C   0  0  0  0  0  2  0  0  0  0  0  0
  187.8120  175.9120  137.5700 C   0  0  0  0  0  2  0  0  0  0  0  0
  189.2160  176.4460  137.6670 C   0  0  0  0  0  0  0  0  0  0  0  0
  187.5190  175.2720  136.2170 C   0  0  1  0  0  3  0  0  0  0  0  0
  192.4420  176.0330  138.2280 C   0  0  0  0  0  2  0  0  0  0  0  0
  190.2540  175.8580  137.0050 C   0  0  0  0  0  0  0  0  0  0  0  0
  193.4950  173.5270  136.1410 O   0  0  0  0  0  0  0  0  0  0  0  0
  191.6210  176.4970  137.0320 C   0  0  0  0  0  2  0  0  0  0  0  0
  193.7160  175.3390  137.7670 C   0  0  0  0  0  2  0  0  0  0  0  0
  192.4130  174.1340  135.4740 C   0  0  0  0  0  2  0  0  0  0  0  0
  190.0140  174.7540  135.9680 C   0  0  1  0  0  3  0  0  0  0  0  0
  186.7050  177.3160  135.3450 O   0  0  0  0  0  0  0  0  0  0  0  0
  187.4040  176.3320  135.1610 C   0  0  0  0  0  3  0  0  0  0  0  0
  188.2820  173.5320  134.6860 O   0  0  0  0  0  0  0  0  0  0  0  0
  187.8540  172.3080  134.9400 O   0  0  0  0  0  1  0  0  0  0  0  0
  189.3670  177.6700  138.5450 C   0  0  1  0  0  3  0  0  0  0  0  0
  188.9740  179.3490  137.1500 C   0  0  0  0  0  1  0  0  0  0  0  0
  188.4130  178.6390  138.2140 O   0  0  0  0  0  0  0  0  0  0  0  0
  189.3290  177.3350  140.0420 C   0  0  2  0  0  3  0  0  0  0  0  0
  188.1590  177.9570  140.6750 C   0  0  0  0  0  0  0  0  0  0  0  0
  187.2000  178.4680  141.1940 C   0  0  0  0  0  0  0  0  0  0  0  0
  186.0360  179.0900  141.8250 C   0  0  0  0  0  1  0  0  0  0  0  0
  190.4890  177.7990  140.6690 O   0  0  0  0  0  0  0  0  0  0  0  0
  190.6000  177.0350  141.8330 C   0  0  0  0  0  2  0  0  0  0  0  0
  191.9060  177.1120  142.3160 O   0  0  0  0  0  1  0  0  0  0  0  0
  3 14  1  0  0  0  0
  3  7  1  0  0  0  0
  3  2  1  1  0  0  0
  4 12  1  0  0  0  0
  5  6  1  0  0  0  0
  6 19  1  0  0  0  0
  7 16  1  6  0  0  0
  7  5  1  0  0  0  0
  9 11  1  0  0  0  0
  9  6  2  0  0  0  0
 10  4  1  0  0  0  0
 11  8  1  0  0  0  0
 12  8  1  0  0  0  0
 13  1  1  0  0  0  0
 13 10  1  0  0  0  0
 14  1  1  1  0  0  0
 14  9  1  0  0  0  0
 16 15  2  0  0  0  0
 17 18  1  0  0  0  0
 17  3  1  0  0  0  0
 19 21  1  1  0  0  0
 19 22  1  0  0  0  0
 20 21  1  0  0  0  0
 22 26  1  0  0  0  0
 22 23  1  1  0  0  0
 23 24  3  0  0  0  0
 24 25  1  0  0  0  0
 26 27  1  0  0  0  0
 27 28  1  0  0  0  0
M  END
>  <MODEL>
3

>  <REMARK>
 VINA RESULT:      -6.2      3.459      7.906
  Name = 
  8 active torsions:
  status: ('A' for Active; 'I' for Inactive)
    1  A    between atoms: C_3  and  O_7
    2  A    between atoms: C_9  and  C_12
    3  A    between atoms: C_9  and  C_13
    4  A    between atoms: C_9  and  O_14
    5  A    between atoms: C_10  and  C_13
    6  A    between atoms: C_11  and  C_22
    7  A    between atoms: C_13  and  O_24
    8  A    between atoms: O_14  and  C_18
                            x       y       z     vdW  Elec       q    Type
                         _______ _______ _______ _____ _____    ______ ____

>  <TORSDO>
F 8

$$$$
=
 OpenBabel11052413373D

 28 29  0  0  1  0  0  0  0  0999 V2000
  185.9700  175.4650  136.1000 C   0  0  0  0  0  2  0  0  0  0  0  0
  183.9900  174.2190  137.8050 C   0  0  0  0  0  1  0  0  0  0  0  0
  183.5280  175.3250  136.8530 C   0  0  1  0  0  0  0  0  0  0  0  0
  188.5730  176.2640  136.8470 C   0  0  0  0  0  2  0  0  0  0  0  0
  182.9540  176.7510  138.8410 C   0  0  0  0  0  2  0  0  0  0  0  0
  184.1410  177.6340  138.5670 C   0  0  0  0  0  0  0  0  0  0  0  0
  182.4030  176.0970  137.5770 C   0  0  1  0  0  3  0  0  0  0  0  0
  187.3740  178.0730  138.0710 C   0  0  0  0  0  2  0  0  0  0  0  0
  185.0190  177.3620  137.5590 C   0  0  0  0  0  0  0  0  0  0  0  0
  188.2700  175.9990  135.4950 O   0  0  0  0  0  0  0  0  0  0  0  0
  186.1260  178.3390  137.2420 C   0  0  0  0  0  2  0  0  0  0  0  0
  188.5590  177.7560  137.1710 C   0  0  0  0  0  2  0  0  0  0  0  0
  186.9180  176.3180  135.2610 C   0  0  0  0  0  2  0  0  0  0  0  0
  184.7320  176.2660  136.5260 C   0  0  1  0  0  3  0  0  0  0  0  0
  180.8180  177.8140  137.2090 O   0  0  0  0  0  0  0  0  0  0  0  0
  181.7010  177.1200  136.7330 C   0  0  0  0  0  3  0  0  0  0  0  0
  183.0280  174.6680  135.7010 O   0  0  0  0  0  0  0  0  0  0  0  0
  182.3020  173.6350  136.0900 O   0  0  0  0  0  1  0  0  0  0  0  0
  184.2670  178.8270  139.4900 C   0  0  1  0  0  3  0  0  0  0  0  0
  182.8620  180.3670  138.7310 C   0  0  0  0  0  1  0  0  0  0  0  0
  183.0140  179.4030  139.7310 O   0  0  0  0  0  0  0  0  0  0  0  0
  184.9890  178.4900  140.8010 C   0  0  2  0  0  3  0  0  0  0  0  0
  184.0700  178.6220  141.9390 C   0  0  0  0  0  0  0  0  0  0  0  0
  183.3170  178.7320  142.8720 C   0  0  0  0  0  0  0  0  0  0  0  0
  182.4010  178.8660  144.0050 C   0  0  0  0  0  1  0  0  0  0  0  0
  186.0750  179.3500  140.9870 O   0  0  0  0  0  0  0  0  0  0  0  0
  186.9820  178.6240  141.7640 C   0  0  0  0  0  2  0  0  0  0  0  0
  188.2760  178.8480  141.2970 O   0  0  0  0  0  1  0  0  0  0  0  0
  3  7  1  0  0  0  0
  3  2  1  1  0  0  0
  4 12  1  0  0  0  0
  6  5  1  0  0  0  0
  6 19  1  0  0  0  0
  7 16  1  6  0  0  0
  7  5  1  0  0  0  0
  9  6  2  0  0  0  0
 10  4  1  0  0  0  0
 11  9  1  0  0  0  0
 11  8  1  0  0  0  0
 12  8  1  0  0  0  0
 13 10  1  0  0  0  0
 13  1  1  0  0  0  0
 14  1  1  1  0  0  0
 14  3  1  0  0  0  0
 14  9  1  0  0  0  0
 16 15  2  0  0  0  0
 17 18  1  0  0  0  0
 17  3  1  0  0  0  0
 19 21  1  1  0  0  0
 19 22  1  0  0  0  0
 20 21  1  0  0  0  0
 22 26  1  0  0  0  0
 22 23  1  1  0  0  0
 23 24  3  0  0  0  0
 24 25  1  0  0  0  0
 26 27  1  0  0  0  0
 28 27  1  0  0  0  0
M  END
>  <MODEL>
4

>  <REMARK>
 VINA RESULT:      -6.2      3.178      7.286
  Name = 
  8 active torsions:
  status: ('A' for Active; 'I' for Inactive)
    1  A    between atoms: C_3  and  O_7
    2  A    between atoms: C_9  and  C_12
    3  A    between atoms: C_9  and  C_13
    4  A    between atoms: C_9  and  O_14
    5  A    between atoms: C_10  and  C_13
    6  A    between atoms: C_11  and  C_22
    7  A    between atoms: C_13  and  O_24
    8  A    between atoms: O_14  and  C_18
                            x       y       z     vdW  Elec       q    Type
                         _______ _______ _______ _____ _____    ______ ____

>  <TORSDO>
F 8

$$$$
=
 OpenBabel11052413373D

 28 29  0  0  1  0  0  0  0  0999 V2000
  186.1060  178.9800  141.3840 C   0  0  0  0  0  2  0  0  0  0  0  0
  188.6640  179.9920  140.4800 C   0  0  0  0  0  1  0  0  0  0  0  0
  188.3150  178.5340  140.1710 C   0  0  1  0  0  0  0  0  0  0  0  0
  184.9050  179.4400  143.8970 C   0  0  0  0  0  2  0  0  0  0  0  0
  190.2040  177.8010  141.6570 C   0  0  0  0  0  2  0  0  0  0  0  0
  189.2230  177.3410  142.7020 C   0  0  0  0  0  0  0  0  0  0  0  0
  189.6340  177.7340  140.2440 C   0  0  1  0  0  3  0  0  0  0  0  0
  186.6720  177.8900  144.7230 C   0  0  0  0  0  2  0  0  0  0  0  0
  187.8790  177.5220  142.5500 C   0  0  0  0  0  0  0  0  0  0  0  0
  184.1130  179.0880  142.7830 O   0  0  0  0  0  0  0  0  0  0  0  0
  186.9230  176.9370  143.5620 C   0  0  0  0  0  2  0  0  0  0  0  0
  185.1960  178.2520  144.8100 C   0  0  0  0  0  2  0  0  0  0  0  0
  184.8720  178.2650  141.9280 C   0  0  0  0  0  2  0  0  0  0  0  0
  187.2850  178.0110  141.2230 C   0  0  1  0  0  3  0  0  0  0  0  0
  190.3900  175.8070  139.0970 O   0  0  0  0  0  0  0  0  0  0  0  0
  189.5250  176.3040  139.8010 C   0  0  0  0  0  3  0  0  0  0  0  0
  187.7920  178.5260  138.8540 O   0  0  0  0  0  0  0  0  0  0  0  0
  188.6800  179.0810  138.0480 O   0  0  0  0  0  1  0  0  0  0  0  0
  189.8480  176.6730  143.9070 C   0  0  1  0  0  3  0  0  0  0  0  0
  191.6850  175.6620  144.6300 C   0  0  0  0  0  1  0  0  0  0  0  0
  190.8540  175.7820  143.5140 O   0  0  0  0  0  0  0  0  0  0  0  0
  190.3660  177.6810  144.9410 C   0  0  2  0  0  3  0  0  0  0  0  0
  189.6320  177.5390  146.2050 C   0  0  0  0  0  0  0  0  0  0  0  0
  189.0290  177.4210  147.2410 C   0  0  0  0  0  0  0  0  0  0  0  0
  188.2960  177.2770  148.4990 C   0  0  0  0  0  1  0  0  0  0  0  0
  190.2070  178.9860  144.4640 O   0  0  0  0  0  0  0  0  0  0  0  0
  191.4460  179.5990  144.6690 C   0  0  0  0  0  2  0  0  0  0  0  0
  192.4300  178.9040  143.9670 O   0  0  0  0  0  1  0  0  0  0  0  0
  1 13  1  0  0  0  0
  3  7  1  0  0  0  0
  3  2  1  1  0  0  0
  3 14  1  0  0  0  0
  4 12  1  0  0  0  0
  5  6  1  0  0  0  0
  6 19  1  0  0  0  0
  7 16  1  1  0  0  0
  7  5  1  0  0  0  0
  8 12  1  0  0  0  0
  9  6  2  0  0  0  0
  9 11  1  0  0  0  0
 10  4  1  0  0  0  0
 11  8  1  0  0  0  0
 13 10  1  0  0  0  0
 14  1  1  1  0  0  0
 14  9  1  0  0  0  0
 15 16  2  0  0  0  0
 17  3  1  0  0  0  0
 18 17  1  0  0  0  0
 19 21  1  6  0  0  0
 19 22  1  0  0  0  0
 21 20  1  0  0  0  0
 22 23  1  1  0  0  0
 23 24  3  0  0  0  0
 24 25  1  0  0  0  0
 26 27  1  0  0  0  0
 26 22  1  0  0  0  0
 28 27  1  0  0  0  0
M  END
>  <MODEL>
5

>  <REMARK>
 VINA RESULT:      -5.8      1.941      5.910
  Name = 
  8 active torsions:
  status: ('A' for Active; 'I' for Inactive)
    1  A    between atoms: C_3  and  O_7
    2  A    between atoms: C_9  and  C_12
    3  A    between atoms: C_9  and  C_13
    4  A    between atoms: C_9  and  O_14
    5  A    between atoms: C_10  and  C_13
    6  A    between atoms: C_11  and  C_22
    7  A    between atoms: C_13  and  O_24
    8  A    between atoms: O_14  and  C_18
                            x       y       z     vdW  Elec       q    Type
                         _______ _______ _______ _____ _____    ______ ____

>  <TORSDO>
F 8

$$$$
=
 OpenBabel11052413373D

 28 29  0  0  1  0  0  0  0  0999 V2000
  186.5970  174.9900  136.1630 C   0  0  0  0  0  2  0  0  0  0  0  0
  184.8250  173.5080  137.9080 C   0  0  0  0  0  1  0  0  0  0  0  0
  184.2090  174.2630  136.7280 C   0  0  1  0  0  0  0  0  0  0  0  0
  188.7590  176.6250  136.9520 C   0  0  0  0  0  2  0  0  0  0  0  0
  183.0080  175.7580  138.3520 C   0  0  0  0  0  2  0  0  0  0  0  0
  183.9340  176.8940  138.0120 C   0  0  0  0  0  0  0  0  0  0  0  0
  182.8300  174.7780  137.1970 C   0  0  1  0  0  3  0  0  0  0  0  0
  186.9600  178.1750  137.7050 C   0  0  0  0  0  2  0  0  0  0  0  0
  184.9790  176.7330  137.1500 C   0  0  0  0  0  0  0  0  0  0  0  0
  188.7220  176.0700  135.6550 O   0  0  0  0  0  0  0  0  0  0  0  0
  185.8080  177.9270  136.7420 C   0  0  0  0  0  2  0  0  0  0  0  0
  188.2950  178.0790  136.9810 C   0  0  0  0  0  2  0  0  0  0  0  0
  187.3780  175.9360  135.2550 C   0  0  0  0  0  2  0  0  0  0  0  0
  185.1410  175.4500  136.3250 C   0  0  1  0  0  3  0  0  0  0  0  0
  180.9750  176.0110  136.4000 O   0  0  0  0  0  0  0  0  0  0  0  0
  181.9940  175.4000  136.1180 C   0  0  0  0  0  3  0  0  0  0  0  0
  184.0650  173.3130  135.6860 O   0  0  0  0  0  0  0  0  0  0  0  0
  184.2540  172.1060  136.1900 O   0  0  0  0  0  1  0  0  0  0  0  0
  183.6050  178.2030  138.6960 C   0  0  1  0  0  3  0  0  0  0  0  0
  181.9760  179.2460  137.6110 C   0  0  0  0  0  1  0  0  0  0  0  0
  182.2230  178.4220  138.7110 O   0  0  0  0  0  0  0  0  0  0  0  0
  184.2030  178.3030  140.1050 C   0  0  2  0  0  3  0  0  0  0  0  0
  183.1380  178.4770  141.1010 C   0  0  0  0  0  0  0  0  0  0  0  0
  182.2640  178.6190  141.9180 C   0  0  0  0  0  0  0  0  0  0  0  0
  181.2020  178.7900  142.9100 C   0  0  0  0  0  1  0  0  0  0  0  0
  185.0820  179.3880  140.1800 O   0  0  0  0  0  0  0  0  0  0  0  0
  185.7570  179.2230  141.3920 C   0  0  0  0  0  2  0  0  0  0  0  0
  186.9320  178.5060  141.1750 O   0  0  0  0  0  1  0  0  0  0  0  0
  3  7  1  0  0  0  0
  3  2  1  1  0  0  0
  4 12  1  0  0  0  0
  6  5  1  0  0  0  0
  6 19  1  0  0  0  0
  7 16  1  6  0  0  0
  7  5  1  0  0  0  0
  9  6  2  0  0  0  0
 10  4  1  0  0  0  0
 11  9  1  0  0  0  0
 11  8  1  0  0  0  0
 12  8  1  0  0  0  0
 13 10  1  0  0  0  0
 13  1  1  0  0  0  0
 14  1  1  1  0  0  0
 14  3  1  0  0  0  0
 14  9  1  0  0  0  0
 16 15  2  0  0  0  0
 17 18  1  0  0  0  0
 17  3  1  0  0  0  0
 19 21  1  1  0  0  0
 19 22  1  0  0  0  0
 20 21  1  0  0  0  0
 22 26  1  0  0  0  0
 22 23  1  1  0  0  0
 23 24  3  0  0  0  0
 24 25  1  0  0  0  0
 26 27  1  0  0  0  0
 28 27  1  0  0  0  0
M  END
>  <MODEL>
6

>  <REMARK>
 VINA RESULT:      -5.8      3.485      7.665
  Name = 
  8 active torsions:
  status: ('A' for Active; 'I' for Inactive)
    1  A    between atoms: C_3  and  O_7
    2  A    between atoms: C_9  and  C_12
    3  A    between atoms: C_9  and  C_13
    4  A    between atoms: C_9  and  O_14
    5  A    between atoms: C_10  and  C_13
    6  A    between atoms: C_11  and  C_22
    7  A    between atoms: C_13  and  O_24
    8  A    between atoms: O_14  and  C_18
                            x       y       z     vdW  Elec       q    Type
                         _______ _______ _______ _____ _____    ______ ____

>  <TORSDO>
F 8

$$$$
=
 OpenBabel11052413373D

 28 29  0  0  1  0  0  0  0  0999 V2000
  186.0740  178.5250  142.5650 C   0  0  0  0  0  2  0  0  0  0  0  0
  188.7030  179.4680  141.8040 C   0  0  0  0  0  1  0  0  0  0  0  0
  188.4910  177.9590  141.9450 C   0  0  1  0  0  0  0  0  0  0  0  0
  184.3980  179.6270  144.5520 C   0  0  0  0  0  2  0  0  0  0  0  0
  190.1000  177.9460  143.8770 C   0  0  0  0  0  2  0  0  0  0  0  0
  188.9620  177.7390  144.8400 C   0  0  0  0  0  0  0  0  0  0  0  0
  189.8110  177.3720  142.4930 C   0  0  1  0  0  3  0  0  0  0  0  0
  186.0510  178.6220  146.1210 C   0  0  0  0  0  2  0  0  0  0  0  0
  187.6640  177.7150  144.4210 C   0  0  0  0  0  0  0  0  0  0  0  0
  183.8500  178.8550  143.5060 O   0  0  0  0  0  0  0  0  0  0  0  0
  186.5640  177.3820  145.4000 C   0  0  0  0  0  2  0  0  0  0  0  0
  184.5700  178.8300  145.8420 C   0  0  0  0  0  2  0  0  0  0  0  0
  184.7960  177.8900  143.1080 C   0  0  0  0  0  2  0  0  0  0  0  0
  187.3080  177.6890  142.9290 C   0  0  1  0  0  3  0  0  0  0  0  0
  190.9300  175.2890  142.5890 O   0  0  0  0  0  0  0  0  0  0  0  0
  189.8590  175.8730  142.5390 C   0  0  0  0  0  3  0  0  0  0  0  0
  188.2280  177.4760  140.6390 O   0  0  0  0  0  0  0  0  0  0  0  0
  189.2400  177.8080  139.8580 O   0  0  0  0  0  1  0  0  0  0  0  0
  189.3810  177.5610  146.2830 C   0  0  1  0  0  3  0  0  0  0  0  0
  188.3220  176.8400  148.0930 C   0  0  0  0  0  1  0  0  0  0  0  0
  188.7770  176.4270  146.8390 O   0  0  0  0  0  0  0  0  0  0  0  0
  190.9050  177.5270  146.4590 C   0  0  2  0  0  3  0  0  0  0  0  0
  191.4460  176.2510  145.9750 C   0  0  0  0  0  0  0  0  0  0  0  0
  191.8910  175.2040  145.5760 C   0  0  0  0  0  0  0  0  0  0  0  0
  192.4320  173.9340  145.0920 C   0  0  0  0  0  1  0  0  0  0  0  0
  191.2380  177.6830  147.8080 O   0  0  0  0  0  0  0  0  0  0  0  0
  192.0380  176.5790  148.1120 C   0  0  0  0  0  2  0  0  0  0  0  0
  193.0410  176.9640  149.0000 O   0  0  0  0  0  1  0  0  0  0  0  0
  1 13  1  0  0  0  0
  3  2  1  6  0  0  0
  3  7  1  0  0  0  0
  3 14  1  0  0  0  0
  4 12  1  0  0  0  0
  5  6  1  0  0  0  0
  6 19  1  0  0  0  0
  7 16  1  1  0  0  0
  7  5  1  0  0  0  0
  9  6  2  0  0  0  0
  9 11  1  0  0  0  0
 10  4  1  0  0  0  0
 11  8  1  0  0  0  0
 12  8  1  0  0  0  0
 13 10  1  0  0  0  0
 14  1  1  1  0  0  0
 14  9  1  0  0  0  0
 16 15  2  0  0  0  0
 17  3  1  0  0  0  0
 18 17  1  0  0  0  0
 19 22  1  0  0  0  0
 19 21  1  6  0  0  0
 21 20  1  0  0  0  0
 22 23  1  1  0  0  0
 22 26  1  0  0  0  0
 24 23  3  0  0  0  0
 25 24  1  0  0  0  0
 26 27  1  0  0  0  0
 27 28  1  0  0  0  0
M  END
>  <MODEL>
7

>  <REMARK>
 VINA RESULT:      -5.7      2.342      6.710
  Name = 
  8 active torsions:
  status: ('A' for Active; 'I' for Inactive)
    1  A    between atoms: C_3  and  O_7
    2  A    between atoms: C_9  and  C_12
    3  A    between atoms: C_9  and  C_13
    4  A    between atoms: C_9  and  O_14
    5  A    between atoms: C_10  and  C_13
    6  A    between atoms: C_11  and  C_22
    7  A    between atoms: C_13  and  O_24
    8  A    between atoms: O_14  and  C_18
                            x       y       z     vdW  Elec       q    Type
                         _______ _______ _______ _____ _____    ______ ____

>  <TORSDO>
F 8

$$$$
=
 OpenBabel11052413373D

 28 29  0  0  1  0  0  0  0  0999 V2000
  181.8860  179.3480  144.0130 C   0  0  0  0  0  2  0  0  0  0  0  0
  179.7910  180.3950  142.3110 C   0  0  0  0  0  1  0  0  0  0  0  0
  179.8450  178.8830  142.5410 C   0  0  1  0  0  0  0  0  0  0  0  0
  184.6010  180.1240  144.0160 C   0  0  0  0  0  2  0  0  0  0  0  0
  180.3550  178.5630  140.1000 C   0  0  0  0  0  2  0  0  0  0  0  0
  181.7800  178.2080  140.4310 C   0  0  0  0  0  0  0  0  0  0  0  0
  179.3860  178.2150  141.2260 C   0  0  1  0  0  3  0  0  0  0  0  0
  184.6790  178.8810  141.8580 C   0  0  0  0  0  2  0  0  0  0  0  0
  182.2500  178.2520  141.7110 C   0  0  0  0  0  0  0  0  0  0  0  0
  184.0290  179.5280  145.1600 O   0  0  0  0  0  0  0  0  0  0  0  0
  183.6490  177.7700  142.0150 C   0  0  0  0  0  2  0  0  0  0  0  0
  185.4000  179.1330  143.1740 C   0  0  0  0  0  2  0  0  0  0  0  0
  183.0170  178.6370  144.7510 C   0  0  0  0  0  2  0  0  0  0  0  0
  181.3060  178.4630  142.9010 C   0  0  1  0  0  3  0  0  0  0  0  0
  179.0050  176.0710  140.2980 O   0  0  0  0  0  0  0  0  0  0  0  0
  179.2070  176.7270  141.3080 C   0  0  0  0  0  3  0  0  0  0  0  0
  178.9310  178.6130  143.5900 O   0  0  0  0  0  0  0  0  0  0  0  0
  179.5110  177.7950  144.4510 O   0  0  0  0  0  1  0  0  0  0  0  0
  182.6220  177.8030  139.2410 C   0  0  1  0  0  3  0  0  0  0  0  0
  181.9970  175.8760  138.3400 C   0  0  0  0  0  1  0  0  0  0  0  0
  181.8240  177.2570  138.2300 O   0  0  0  0  0  0  0  0  0  0  0  0
  183.4890  178.9530  138.7100 C   0  0  2  0  0  3  0  0  0  0  0  0
  182.6720  180.1560  138.5070 C   0  0  0  0  0  0  0  0  0  0  0  0
  182.0030  181.1440  138.3390 C   0  0  0  0  0  0  0  0  0  0  0  0
  181.1910  182.3430  138.1350 C   0  0  0  0  0  1  0  0  0  0  0  0
  184.0780  178.5900  137.4950 O   0  0  0  0  0  0  0  0  0  0  0  0
  185.2220  177.8690  137.8500 C   0  0  0  0  0  2  0  0  0  0  0  0
  186.0310  178.6550  138.6680 O   0  0  0  0  0  1  0  0  0  0  0  0
  1 13  1  0  0  0  0
  3  2  1  6  0  0  0
  3 14  1  0  0  0  0
  3 17  1  0  0  0  0
  4 10  1  0  0  0  0
  5  6  1  0  0  0  0
  5  7  1  0  0  0  0
  6  9  2  0  0  0  0
  7 16  1  1  0  0  0
  7  3  1  0  0  0  0
  8 11  1  0  0  0  0
  8 12  1  0  0  0  0
  9 11  1  0  0  0  0
  9 14  1  0  0  0  0
 12  4  1  0  0  0  0
 13 10  1  0  0  0  0
 14  1  1  1  0  0  0
 15 16  2  0  0  0  0
 17 18  1  0  0  0  0
 19 21  1  6  0  0  0
 19  6  1  0  0  0  0
 21 20  1  0  0  0  0
 22 23  1  6  0  0  0
 22 19  1  0  0  0  0
 24 23  3  0  0  0  0
 25 24  1  0  0  0  0
 26 27  1  0  0  0  0
 26 22  1  0  0  0  0
 27 28  1  0  0  0  0
M  END
>  <MODEL>
8

>  <REMARK>
 VINA RESULT:      -5.7      3.610      5.620
  Name = 
  8 active torsions:
  status: ('A' for Active; 'I' for Inactive)
    1  A    between atoms: C_3  and  O_7
    2  A    between atoms: C_9  and  C_12
    3  A    between atoms: C_9  and  C_13
    4  A    between atoms: C_9  and  O_14
    5  A    between atoms: C_10  and  C_13
    6  A    between atoms: C_11  and  C_22
    7  A    between atoms: C_13  and  O_24
    8  A    between atoms: O_14  and  C_18
                            x       y       z     vdW  Elec       q    Type
                         _______ _______ _______ _____ _____    ______ ____

>  <TORSDO>
F 8

$$$$
=
 OpenBabel11052413373D

 28 29  0  0  1  0  0  0  0  0999 V2000
  181.1010  177.6940  136.4170 C   0  0  0  0  0  2  0  0  0  0  0  0
  179.1170  179.2460  137.8450 C   0  0  0  0  0  1  0  0  0  0  0  0
  180.4340  179.9290  137.4700 C   0  0  1  0  0  0  0  0  0  0  0  0
  181.8570  175.0260  136.9510 C   0  0  0  0  0  2  0  0  0  0  0  0
  180.9780  180.1490  139.9140 C   0  0  0  0  0  2  0  0  0  0  0  0
  182.0250  179.0740  139.7910 C   0  0  0  0  0  0  0  0  0  0  0  0
  180.7670  180.9150  138.6120 C   0  0  1  0  0  3  0  0  0  0  0  0
  182.9620  176.0240  138.9490 C   0  0  0  0  0  2  0  0  0  0  0  0
  182.2300  178.4050  138.6200 C   0  0  0  0  0  0  0  0  0  0  0  0
  182.0650  175.5830  135.6710 O   0  0  0  0  0  0  0  0  0  0  0  0
  183.3710  177.4220  138.5060 C   0  0  0  0  0  2  0  0  0  0  0  0
  183.1210  175.0320  137.8060 C   0  0  0  0  0  2  0  0  0  0  0  0
  182.2970  176.9660  135.8090 C   0  0  0  0  0  2  0  0  0  0  0  0
  181.5550  178.8520  137.3170 C   0  0  1  0  0  3  0  0  0  0  0  0
  181.7720  182.9710  138.0110 O   0  0  0  0  0  0  0  0  0  0  0  0
  181.9420  181.8100  138.3450 C   0  0  0  0  0  3  0  0  0  0  0  0
  180.1860  180.6240  136.2600 O   0  0  0  0  0  0  0  0  0  0  0  0
  179.0490  181.2860  136.3830 O   0  0  0  0  0  1  0  0  0  0  0  0
  182.8120  178.8110  141.0570 C   0  0  1  0  0  3  0  0  0  0  0  0
  185.0230  178.6350  141.0900 C   0  0  0  0  0  1  0  0  0  0  0  0
  183.9870  179.5720  141.0770 O   0  0  0  0  0  0  0  0  0  0  0  0
  181.9820  179.0300  142.3280 C   0  0  2  0  0  3  0  0  0  0  0  0
  182.8390  178.9520  143.5180 C   0  0  0  0  0  0  0  0  0  0  0  0
  183.5440  178.8880  144.4930 C   0  0  0  0  0  0  0  0  0  0  0  0
  184.4000  178.8100  145.6770 C   0  0  0  0  0  1  0  0  0  0  0  0
  180.9800  178.0590  142.4220 O   0  0  0  0  0  0  0  0  0  0  0  0
  180.0320  178.6010  143.2920 C   0  0  0  0  0  2  0  0  0  0  0  0
  179.6860  177.6510  144.2520 O   0  0  0  0  0  1  0  0  0  0  0  0
  3  2  1  1  0  0  0
  3  7  1  0  0  0  0
  4 12  1  0  0  0  0
  6  5  1  0  0  0  0
  6 19  1  0  0  0  0
  7 16  1  6  0  0  0
  7  5  1  0  0  0  0
  9  6  2  0  0  0  0
 10 13  1  0  0  0  0
 10  4  1  0  0  0  0
 11  9  1  0  0  0  0
 11  8  1  0  0  0  0
 12  8  1  0  0  0  0
 13  1  1  0  0  0  0
 14  1  1  1  0  0  0
 14  3  1  0  0  0  0
 14  9  1  0  0  0  0
 15 16  2  0  0  0  0
 17 18  1  0  0  0  0
 17  3  1  0  0  0  0
 19 21  1  1  0  0  0
 19 22  1  0  0  0  0
 21 20  1  0  0  0  0
 22 26  1  0  0  0  0
 22 23  1  1  0  0  0
 23 24  3  0  0  0  0
 24 25  1  0  0  0  0
 26 27  1  0  0  0  0
 27 28  1  0  0  0  0
M  END
>  <MODEL>
9

>  <REMARK>
 VINA RESULT:      -5.6      4.484      8.446
  Name = 
  8 active torsions:
  status: ('A' for Active; 'I' for Inactive)
    1  A    between atoms: C_3  and  O_7
    2  A    between atoms: C_9  and  C_12
    3  A    between atoms: C_9  and  C_13
    4  A    between atoms: C_9  and  O_14
    5  A    between atoms: C_10  and  C_13
    6  A    between atoms: C_11  and  C_22
    7  A    between atoms: C_13  and  O_24
    8  A    between atoms: O_14  and  C_18
                            x       y       z     vdW  Elec       q    Type
                         _______ _______ _______ _____ _____    ______ ____

>  <TORSDO>
F 8

$$$$
