=
 OpenBabel11052413333D

 28 31  0  0  1  0  0  0  0  0999 V2000
  186.4240  177.7320  145.9360 C   0  0  0  0  0  0  0  0  0  0  0  0
  190.2180  176.3510  142.4540 C   0  0  0  0  0  2  0  0  0  0  0  0
  184.6150  179.1860  141.6210 C   0  0  0  0  0  1  0  0  0  0  0  0
  189.4810  178.0160  140.6580 C   0  0  1  0  0  3  0  0  0  0  0  0
  187.8420  177.1700  142.4710 C   0  0  1  0  0  3  0  0  0  0  0  0
  191.9320  177.6330  141.0340 C   0  0  2  0  0  3  0  0  0  0  0  0
  189.2950  177.5240  142.1200 C   0  0  1  0  0  3  0  0  0  0  0  0
  187.0340  178.2560  140.3130 C   0  0  0  0  0  2  0  0  0  0  0  0
  190.7950  177.5550  140.0210 C   0  0  0  0  0  2  0  0  0  0  0  0
  185.5610  178.3860  143.7550 C   0  0  0  0  0  0  0  0  0  0  0  0
  187.6520  177.2290  143.9570 C   0  0  0  0  0  3  0  0  0  0  0  0
  188.3120  177.6290  139.7670 C   0  0  0  0  0  2  0  0  0  0  0  0
  184.2970  178.8440  145.7270 C   0  0  0  0  0  3  0  0  0  0  0  0
  185.6900  178.5070  142.4180 C   0  0  0  0  0  0  0  0  0  0  0  0
  184.4580  178.8920  144.3790 N   0  0  0  0  0  0  0  0  0  0  0  0
  193.2410  177.2640  140.3710 C   0  0  0  0  0  1  0  0  0  0  0  0
  191.6910  176.7210  142.2450 C   0  0  0  0  0  2  0  0  0  0  0  0
  186.8760  178.0210  141.7530 N   0  0  0  0  0  0  0  0  0  0  0  0
  185.2810  178.2700  146.5270 C   0  0  0  0  0  3  0  0  0  0  0  0
  186.5710  177.7700  144.5330 C   0  0  0  0  0  0  0  0  0  0  0  0
  187.4790  177.1460  146.8230 C   0  0  0  0  0  2  0  0  0  0  0  0
  187.9290  178.1800  147.8410 C   0  0  0  0  0  2  0  0  0  0  0  0
  189.4120  178.0190  148.1310 C   0  0  0  0  0  2  0  0  0  0  0  0
  189.9940  176.8300  147.3730 C   0  0  0  0  0  2  0  0  0  0  0  0
  191.1780  177.2230  146.4930 C   0  0  2  0  0  3  0  0  0  0  0  0
  190.7310  177.7800  145.3060 F   0  0  0  0  0  0  0  0  0  0  0  0
  192.3800  175.6490  147.4840 C   0  0  0  0  0  1  0  0  0  0  0  0
  191.9870  176.1150  146.2280 O   0  0  0  0  0  0  0  0  0  0  0  0
  1 19  2  0  0  0  0
  1 21  1  0  0  0  0
  3 14  1  0  0  0  0
  4 12  1  6  0  0  0
  4  7  1  0  0  0  0
  5 11  1  1  0  0  0
  6 16  1  6  0  0  0
  6 17  1  0  0  0  0
  7  2  1  6  0  0  0
  7  5  1  0  0  0  0
  8 18  1  0  0  0  0
  9  4  1  0  0  0  0
  9  6  1  0  0  0  0
 10 15  1  0  0  0  0
 10 20  1  0  0  0  0
 11 20  2  0  0  0  0
 12  8  1  0  0  0  0
 13 19  1  0  0  0  0
 14 10  2  0  0  0  0
 15 13  2  0  0  0  0
 17  2  1  0  0  0  0
 18 14  1  0  0  0  0
 18  5  1  0  0  0  0
 20  1  1  0  0  0  0
 21 22  1  0  0  0  0
 22 23  1  0  0  0  0
 24 23  1  0  0  0  0
 25 26  1  6  0  0  0
 25 24  1  0  0  0  0
 28 25  1  0  0  0  0
 28 27  1  0  0  0  0
M  END
>  <MODEL>
1

>  <REMARK>
 VINA RESULT:      -8.7      0.000      0.000
  Name = 
  6 active torsions:
  status: ('A' for Active; 'I' for Inactive)
    1  A    between atoms: C_1  and  C_2
    2  A    between atoms: C_2  and  C_3
    3  A    between atoms: C_3  and  C_8
    4  A    between atoms: C_6  and  C_11
    5  A    between atoms: C_6  and  O_28
    6  A    between atoms: C_8  and  C_11
                            x       y       z     vdW  Elec       q    Type
                         _______ _______ _______ _____ _____    ______ ____

>  <TORSDO>
F 6

$$$$
=
 OpenBabel11052413333D

 28 31  0  0  1  0  0  0  0  0999 V2000
  186.9140  177.8550  145.4170 C   0  0  0  0  0  0  0  0  0  0  0  0
  188.4780  178.3680  140.3450 C   0  0  0  0  0  2  0  0  0  0  0  0
  191.6710  176.6870  145.5530 C   0  0  0  0  0  1  0  0  0  0  0  0
  190.5150  176.8400  140.5910 C   0  0  1  0  0  3  0  0  0  0  0  0
  189.4710  178.0400  142.6310 C   0  0  1  0  0  3  0  0  0  0  0  0
  189.1590  176.7360  138.4830 C   0  0  2  0  0  3  0  0  0  0  0  0
  189.2260  177.3940  141.2590 C   0  0  1  0  0  3  0  0  0  0  0  0
  191.8330  177.0850  142.6820 C   0  0  0  0  0  2  0  0  0  0  0  0
  190.5380  177.0150  139.0700 C   0  0  0  0  0  2  0  0  0  0  0  0
  189.2930  177.3330  145.4240 C   0  0  0  0  0  0  0  0  0  0  0  0
  188.1940  178.0550  143.4180 C   0  0  0  0  0  3  0  0  0  0  0  0
  191.7780  177.4310  141.1980 C   0  0  0  0  0  2  0  0  0  0  0  0
  188.0300  177.1840  147.4440 C   0  0  0  0  0  3  0  0  0  0  0  0
  190.4680  177.1570  144.7880 C   0  0  0  0  0  0  0  0  0  0  0  0
  189.1990  177.0730  146.7600 N   0  0  0  0  0  0  0  0  0  0  0  0
  189.2140  176.8200  136.9730 C   0  0  0  0  0  1  0  0  0  0  0  0
  188.0970  177.7060  139.0160 C   0  0  0  0  0  2  0  0  0  0  0  0
  190.5670  177.3810  143.3650 N   0  0  0  0  0  0  0  0  0  0  0  0
  186.8680  177.5700  146.7820 C   0  0  0  0  0  3  0  0  0  0  0  0
  188.1380  177.7540  144.7210 C   0  0  0  0  0  0  0  0  0  0  0  0
  185.6430  178.2390  144.7240 C   0  0  0  0  0  2  0  0  0  0  0  0
  184.6110  178.6820  145.7460 C   0  0  0  0  0  2  0  0  0  0  0  0
  183.3080  179.0450  145.0530 C   0  0  0  0  0  2  0  0  0  0  0  0
  183.4450  178.9370  143.5370 C   0  0  0  0  0  2  0  0  0  0  0  0
  182.0980  179.0320  142.8230 C   0  0  2  0  0  3  0  0  0  0  0  0
  181.1300  178.3360  143.5280 F   0  0  0  0  0  0  0  0  0  0  0  0
  183.5480  178.2500  141.3430 C   0  0  0  0  0  1  0  0  0  0  0  0
  182.1930  178.5350  141.5200 O   0  0  0  0  0  0  0  0  0  0  0  0
  1 19  2  0  0  0  0
  4  9  1  6  0  0  0
  4 12  1  0  0  0  0
  4  7  1  0  0  0  0
  5 18  1  0  0  0  0
  5 11  1  1  0  0  0
  6 16  1  6  0  0  0
  6 17  1  0  0  0  0
  6  9  1  0  0  0  0
  7  2  1  6  0  0  0
  7  5  1  0  0  0  0
  8 18  1  0  0  0  0
 10 15  1  0  0  0  0
 11 20  2  0  0  0  0
 12  8  1  0  0  0  0
 14 10  2  0  0  0  0
 14  3  1  0  0  0  0
 15 13  2  0  0  0  0
 17  2  1  0  0  0  0
 18 14  1  0  0  0  0
 19 13  1  0  0  0  0
 20  1  1  0  0  0  0
 20 10  1  0  0  0  0
 21  1  1  0  0  0  0
 21 22  1  0  0  0  0
 23 22  1  0  0  0  0
 24 23  1  0  0  0  0
 25 26  1  1  0  0  0
 25 24  1  0  0  0  0
 27 28  1  0  0  0  0
 28 25  1  0  0  0  0
M  END
>  <MODEL>
2

>  <REMARK>
 VINA RESULT:      -8.7      3.361      5.673
  Name = 
  6 active torsions:
  status: ('A' for Active; 'I' for Inactive)
    1  A    between atoms: C_1  and  C_2
    2  A    between atoms: C_2  and  C_3
    3  A    between atoms: C_3  and  C_8
    4  A    between atoms: C_6  and  C_11
    5  A    between atoms: C_6  and  O_28
    6  A    between atoms: C_8  and  C_11
                            x       y       z     vdW  Elec       q    Type
                         _______ _______ _______ _____ _____    ______ ____

>  <TORSDO>
F 6

$$$$
=
 OpenBabel11052413333D

 28 31  0  0  1  0  0  0  0  0999 V2000
  190.4160  176.5950  144.2410 C   0  0  0  0  0  0  0  0  0  0  0  0
  185.2610  177.3320  143.0940 C   0  0  0  0  0  2  0  0  0  0  0  0
  188.4960  178.1200  148.4840 C   0  0  0  0  0  1  0  0  0  0  0  0
  184.8360  178.9440  145.0340 C   0  0  1  0  0  3  0  0  0  0  0  0
  186.7850  177.2440  145.0920 C   0  0  1  0  0  3  0  0  0  0  0  0
  183.7390  179.3820  142.8210 C   0  0  2  0  0  3  0  0  0  0  0  0
  185.8950  178.1470  144.2240 C   0  0  1  0  0  3  0  0  0  0  0  0
  185.9040  178.3690  147.2010 C   0  0  0  0  0  2  0  0  0  0  0  0
  183.5010  179.1050  144.3010 C   0  0  0  0  0  2  0  0  0  0  0  0
  189.3900  177.3100  146.3310 C   0  0  0  0  0  0  0  0  0  0  0  0
  188.0630  176.9460  144.3670 C   0  0  0  0  0  3  0  0  0  0  0  0
  184.5990  178.3480  146.4130 C   0  0  0  0  0  2  0  0  0  0  0  0
  191.7400  176.9070  146.2300 C   0  0  0  0  0  3  0  0  0  0  0  0
  188.3250  177.7230  147.0470 C   0  0  0  0  0  0  0  0  0  0  0  0
  190.6230  177.2660  146.9140 N   0  0  0  0  0  0  0  0  0  0  0  0
  182.4190  179.6310  142.1230 C   0  0  0  0  0  1  0  0  0  0  0  0
  184.4780  178.2290  142.1290 C   0  0  0  0  0  2  0  0  0  0  0  0
  187.0240  177.8220  146.4260 N   0  0  0  0  0  0  0  0  0  0  0  0
  191.6560  176.5730  144.8810 C   0  0  0  0  0  3  0  0  0  0  0  0
  189.2590  176.9520  144.9670 C   0  0  0  0  0  0  0  0  0  0  0  0
  190.3580  176.2600  142.7830 C   0  0  0  0  0  2  0  0  0  0  0  0
  191.0420  177.3500  141.9750 C   0  0  0  0  0  2  0  0  0  0  0  0
  190.5890  177.2910  140.5260 C   0  0  0  0  0  2  0  0  0  0  0  0
  189.0710  177.1650  140.4300 C   0  0  0  0  0  2  0  0  0  0  0  0
  188.3730  178.5220  140.4590 C   0  0  2  0  0  3  0  0  0  0  0  0
  188.0290  178.8590  141.7580 F   0  0  0  0  0  0  0  0  0  0  0  0
  187.6320  177.8600  138.4800 C   0  0  0  0  0  1  0  0  0  0  0  0
  187.2330  178.5090  139.6500 O   0  0  0  0  0  0  0  0  0  0  0  0
  1 19  2  0  0  0  0
  1 20  1  0  0  0  0
  4  9  1  6  0  0  0
  4 12  1  0  0  0  0
  5 11  1  6  0  0  0
  5 18  1  0  0  0  0
  6 16  1  6  0  0  0
  6  9  1  0  0  0  0
  7  2  1  6  0  0  0
  7  4  1  0  0  0  0
  7  5  1  0  0  0  0
 10 15  1  0  0  0  0
 10 14  2  0  0  0  0
 11 20  2  0  0  0  0
 12  8  1  0  0  0  0
 13 15  2  0  0  0  0
 14  3  1  0  0  0  0
 17  6  1  0  0  0  0
 17  2  1  0  0  0  0
 18 14  1  0  0  0  0
 18  8  1  0  0  0  0
 19 13  1  0  0  0  0
 20 10  1  0  0  0  0
 21  1  1  0  0  0  0
 22 21  1  0  0  0  0
 23 22  1  0  0  0  0
 24 25  1  0  0  0  0
 24 23  1  0  0  0  0
 25 26  1  1  0  0  0
 27 28  1  0  0  0  0
 28 25  1  0  0  0  0
M  END
>  <MODEL>
3

>  <REMARK>
 VINA RESULT:      -8.4      2.552      6.737
  Name = 
  6 active torsions:
  status: ('A' for Active; 'I' for Inactive)
    1  A    between atoms: C_1  and  C_2
    2  A    between atoms: C_2  and  C_3
    3  A    between atoms: C_3  and  C_8
    4  A    between atoms: C_6  and  C_11
    5  A    between atoms: C_6  and  O_28
    6  A    between atoms: C_8  and  C_11
                            x       y       z     vdW  Elec       q    Type
                         _______ _______ _______ _____ _____    ______ ____

>  <TORSDO>
F 6

$$$$
=
 OpenBabel11052413333D

 28 31  0  0  1  0  0  0  0  0999 V2000
  186.5440  177.8860  144.7730 C   0  0  0  0  0  0  0  0  0  0  0  0
  188.5390  178.1610  139.8360 C   0  0  0  0  0  2  0  0  0  0  0  0
  191.3210  176.9970  145.4070 C   0  0  0  0  0  1  0  0  0  0  0  0
  190.6190  176.7680  140.3650 C   0  0  1  0  0  3  0  0  0  0  0  0
  189.3330  178.0350  142.2180 C   0  0  1  0  0  3  0  0  0  0  0  0
  189.4680  176.4540  138.1570 C   0  0  2  0  0  3  0  0  0  0  0  0
  189.2480  177.2910  140.8770 C   0  0  1  0  0  3  0  0  0  0  0  0
  191.7250  177.2190  142.5410 C   0  0  0  0  0  2  0  0  0  0  0  0
  190.7720  176.8470  138.8430 C   0  0  0  0  0  2  0  0  0  0  0  0
  188.9350  177.5000  145.0260 C   0  0  0  0  0  0  0  0  0  0  0  0
  187.9910  178.0290  142.8850 C   0  0  0  0  0  3  0  0  0  0  0  0
  191.7890  177.4670  141.0390 C   0  0  0  0  0  2  0  0  0  0  0  0
  187.5020  177.4090  146.9320 C   0  0  0  0  0  3  0  0  0  0  0  0
  190.1720  177.3490  144.5090 C   0  0  0  0  0  0  0  0  0  0  0  0
  188.7320  177.3200  146.3630 N   0  0  0  0  0  0  0  0  0  0  0  0
  189.6570  176.4450  136.6550 C   0  0  0  0  0  1  0  0  0  0  0  0
  188.3150  177.3960  138.5270 C   0  0  0  0  0  2  0  0  0  0  0  0
  190.3890  177.4870  143.0880 N   0  0  0  0  0  0  0  0  0  0  0  0
  186.3870  177.6860  146.1450 C   0  0  0  0  0  3  0  0  0  0  0  0
  187.8300  177.8090  144.1960 C   0  0  0  0  0  0  0  0  0  0  0  0
  185.3250  178.1530  143.9460 C   0  0  0  0  0  2  0  0  0  0  0  0
  184.4900  179.2440  144.5940 C   0  0  0  0  0  2  0  0  0  0  0  0
  183.0260  178.8360  144.6240 C   0  0  0  0  0  2  0  0  0  0  0  0
  182.3850  178.9920  143.2480 C   0  0  0  0  0  2  0  0  0  0  0  0
  180.8670  179.1370  143.3270 C   0  0  2  0  0  3  0  0  0  0  0  0
  180.2500  178.1970  142.5190 F   0  0  0  0  0  0  0  0  0  0  0  0
  179.3250  180.2370  142.1800 C   0  0  0  0  0  1  0  0  0  0  0  0
  180.4730  180.4240  142.9510 O   0  0  0  0  0  0  0  0  0  0  0  0
  1 19  2  0  0  0  0
  4  9  1  6  0  0  0
  4  7  1  0  0  0  0
  4 12  1  0  0  0  0
  5 11  1  1  0  0  0
  5 18  1  0  0  0  0
  6 16  1  6  0  0  0
  6 17  1  0  0  0  0
  6  9  1  0  0  0  0
  7  2  1  6  0  0  0
  7  5  1  0  0  0  0
  8 18  1  0  0  0  0
 10 15  1  0  0  0  0
 11 20  2  0  0  0  0
 12  8  1  0  0  0  0
 14 10  2  0  0  0  0
 14  3  1  0  0  0  0
 15 13  2  0  0  0  0
 17  2  1  0  0  0  0
 18 14  1  0  0  0  0
 19 13  1  0  0  0  0
 20  1  1  0  0  0  0
 20 10  1  0  0  0  0
 21 22  1  0  0  0  0
 21  1  1  0  0  0  0
 22 23  1  0  0  0  0
 24 25  1  0  0  0  0
 24 23  1  0  0  0  0
 25 26  1  6  0  0  0
 27 28  1  0  0  0  0
 28 25  1  0  0  0  0
M  END
>  <MODEL>
4

>  <REMARK>
 VINA RESULT:      -8.3      3.836      6.229
  Name = 
  6 active torsions:
  status: ('A' for Active; 'I' for Inactive)
    1  A    between atoms: C_1  and  C_2
    2  A    between atoms: C_2  and  C_3
    3  A    between atoms: C_3  and  C_8
    4  A    between atoms: C_6  and  C_11
    5  A    between atoms: C_6  and  O_28
    6  A    between atoms: C_8  and  C_11
                            x       y       z     vdW  Elec       q    Type
                         _______ _______ _______ _____ _____    ______ ____

>  <TORSDO>
F 6

$$$$
=
 OpenBabel11052413333D

 28 31  0  0  1  0  0  0  0  0999 V2000
  189.7510  177.8350  142.2630 C   0  0  0  0  0  0  0  0  0  0  0  0
  184.7790  179.4940  143.2420 C   0  0  0  0  0  2  0  0  0  0  0  0
  187.5970  177.6820  137.8650 C   0  0  0  0  0  1  0  0  0  0  0  0
  183.7740  178.4070  141.1560 C   0  0  1  0  0  3  0  0  0  0  0  0
  186.2860  179.0080  141.2890 C   0  0  1  0  0  3  0  0  0  0  0  0
  182.4700  178.3720  143.3000 C   0  0  2  0  0  3  0  0  0  0  0  0
  185.0310  178.5620  142.0550 C   0  0  1  0  0  3  0  0  0  0  0  0
  185.1110  178.5740  139.0710 C   0  0  0  0  0  2  0  0  0  0  0  0
  182.4740  178.8320  141.8470 C   0  0  0  0  0  2  0  0  0  0  0  0
  188.6360  177.8290  140.0980 C   0  0  0  0  0  0  0  0  0  0  0  0
  187.5130  178.6260  142.0620 C   0  0  0  0  0  3  0  0  0  0  0  0
  183.9190  179.1410  139.8320 C   0  0  0  0  0  2  0  0  0  0  0  0
  190.8970  177.0870  140.2800 C   0  0  0  0  0  3  0  0  0  0  0  0
  187.5440  178.0100  139.3280 C   0  0  0  0  0  0  0  0  0  0  0  0
  189.7820  177.3370  139.5450 N   0  0  0  0  0  0  0  0  0  0  0  0
  181.1460  178.7140  143.9470 C   0  0  0  0  0  1  0  0  0  0  0  0
  183.6160  178.9970  144.1070 C   0  0  0  0  0  2  0  0  0  0  0  0
  186.3100  178.4820  139.9130 N   0  0  0  0  0  0  0  0  0  0  0  0
  190.8970  177.3250  141.6520 C   0  0  0  0  0  3  0  0  0  0  0  0
  188.6050  178.1090  141.4860 C   0  0  0  0  0  0  0  0  0  0  0  0
  189.7690  178.0540  143.7450 C   0  0  0  0  0  2  0  0  0  0  0  0
  190.0460  176.7410  144.4570 C   0  0  0  0  0  2  0  0  0  0  0  0
  189.9330  176.9270  145.9610 C   0  0  0  0  0  2  0  0  0  0  0  0
  188.9480  178.0410  146.3050 C   0  0  0  0  0  2  0  0  0  0  0  0
  187.5720  177.5030  146.6870 C   0  0  2  0  0  3  0  0  0  0  0  0
  186.8040  177.2960  145.5530 F   0  0  0  0  0  0  0  0  0  0  0  0
  185.6370  178.5270  147.0210 C   0  0  0  0  0  1  0  0  0  0  0  0
  186.9190  178.3860  147.5530 O   0  0  0  0  0  0  0  0  0  0  0  0
  1 21  1  0  0  0  0
  2 17  1  0  0  0  0
  3 14  1  0  0  0  0
  4 12  1  6  0  0  0
  4  9  1  0  0  0  0
  4  7  1  0  0  0  0
  5  7  1  0  0  0  0
  5 11  1  1  0  0  0
  6 16  1  1  0  0  0
  6 17  1  0  0  0  0
  7  2  1  1  0  0  0
  8 12  1  0  0  0  0
  8 18  1  0  0  0  0
  9  6  1  0  0  0  0
 10 20  1  0  0  0  0
 13 19  1  0  0  0  0
 14 18  1  0  0  0  0
 14 10  2  0  0  0  0
 15 10  1  0  0  0  0
 15 13  2  0  0  0  0
 18  5  1  0  0  0  0
 19  1  2  0  0  0  0
 20 11  2  0  0  0  0
 20  1  1  0  0  0  0
 21 22  1  0  0  0  0
 22 23  1  0  0  0  0
 23 24  1  0  0  0  0
 24 25  1  0  0  0  0
 25 26  1  6  0  0  0
 25 28  1  0  0  0  0
 27 28  1  0  0  0  0
M  END
>  <MODEL>
5

>  <REMARK>
 VINA RESULT:      -8.0      2.189      5.933
  Name = 
  6 active torsions:
  status: ('A' for Active; 'I' for Inactive)
    1  A    between atoms: C_1  and  C_2
    2  A    between atoms: C_2  and  C_3
    3  A    between atoms: C_3  and  C_8
    4  A    between atoms: C_6  and  C_11
    5  A    between atoms: C_6  and  O_28
    6  A    between atoms: C_8  and  C_11
                            x       y       z     vdW  Elec       q    Type
                         _______ _______ _______ _____ _____    ______ ____

>  <TORSDO>
F 6

$$$$
=
 OpenBabel11052413333D

 28 31  0  0  1  0  0  0  0  0999 V2000
  187.3950  177.3630  144.4370 C   0  0  0  0  0  0  0  0  0  0  0  0
  182.5640  179.2120  143.1440 C   0  0  0  0  0  2  0  0  0  0  0  0
  187.7440  178.2400  139.6290 C   0  0  0  0  0  1  0  0  0  0  0  0
  182.7680  178.6350  140.6610 C   0  0  1  0  0  3  0  0  0  0  0  0
  184.8590  178.9870  142.1430 C   0  0  1  0  0  3  0  0  0  0  0  0
  180.5660  178.2970  141.8150 C   0  0  2  0  0  3  0  0  0  0  0  0
  183.4010  178.5080  142.0740 C   0  0  1  0  0  3  0  0  0  0  0  0
  184.9670  179.0870  139.6000 C   0  0  0  0  0  2  0  0  0  0  0  0
  181.2880  179.0260  140.6880 C   0  0  0  0  0  2  0  0  0  0  0  0
  187.5170  177.8660  142.0580 C   0  0  0  0  0  0  0  0  0  0  0  0
  185.5410  178.3620  143.3230 C   0  0  0  0  0  3  0  0  0  0  0  0
  183.5400  179.5950  139.7690 C   0  0  0  0  0  2  0  0  0  0  0  0
  189.3990  176.9170  143.1770 C   0  0  0  0  0  3  0  0  0  0  0  0
  186.9550  178.2830  140.9050 C   0  0  0  0  0  0  0  0  0  0  0  0
  188.7980  177.3960  142.0570 N   0  0  0  0  0  0  0  0  0  0  0  0
  179.0880  178.6180  141.7750 C   0  0  0  0  0  1  0  0  0  0  0  0
  181.1360  178.6570  143.1940 C   0  0  0  0  0  2  0  0  0  0  0  0
  185.5840  178.7350  140.8850 N   0  0  0  0  0  0  0  0  0  0  0  0
  188.7050  176.8860  144.3830 C   0  0  0  0  0  3  0  0  0  0  0  0
  186.7870  177.8760  143.2710 C   0  0  0  0  0  0  0  0  0  0  0  0
  186.6610  177.2900  145.7410 C   0  0  0  0  0  2  0  0  0  0  0  0
  187.1640  178.3760  146.6770 C   0  0  0  0  0  2  0  0  0  0  0  0
  187.6340  177.7630  147.9860 C   0  0  0  0  0  2  0  0  0  0  0  0
  189.1160  178.0440  148.2220 C   0  0  0  0  0  2  0  0  0  0  0  0
  190.0200  177.1210  147.4100 C   0  0  2  0  0  3  0  0  0  0  0  0
  189.5080  175.8340  147.3980 F   0  0  0  0  0  0  0  0  0  0  0  0
  191.9780  176.1020  147.2360 C   0  0  0  0  0  1  0  0  0  0  0  0
  191.3170  177.1160  147.9300 O   0  0  0  0  0  0  0  0  0  0  0  0
  1 21  1  0  0  0  0
  2 17  1  0  0  0  0
  3 14  1  0  0  0  0
  4 12  1  6  0  0  0
  4  9  1  0  0  0  0
  4  7  1  0  0  0  0
  5 11  1  1  0  0  0
  6 16  1  1  0  0  0
  6 17  1  0  0  0  0
  7  5  1  0  0  0  0
  7  2  1  1  0  0  0
  8 12  1  0  0  0  0
  8 18  1  0  0  0  0
  9  6  1  0  0  0  0
 10 20  1  0  0  0  0
 13 19  1  0  0  0  0
 14 10  2  0  0  0  0
 15 10  1  0  0  0  0
 15 13  2  0  0  0  0
 18 14  1  0  0  0  0
 18  5  1  0  0  0  0
 19  1  2  0  0  0  0
 20 11  2  0  0  0  0
 20  1  1  0  0  0  0
 21 22  1  0  0  0  0
 22 23  1  0  0  0  0
 23 24  1  0  0  0  0
 25 26  1  1  0  0  0
 25 28  1  0  0  0  0
 25 24  1  0  0  0  0
 27 28  1  0  0  0  0
M  END
>  <MODEL>
6

>  <REMARK>
 VINA RESULT:      -8.0      2.140      5.617
  Name = 
  6 active torsions:
  status: ('A' for Active; 'I' for Inactive)
    1  A    between atoms: C_1  and  C_2
    2  A    between atoms: C_2  and  C_3
    3  A    between atoms: C_3  and  C_8
    4  A    between atoms: C_6  and  C_11
    5  A    between atoms: C_6  and  O_28
    6  A    between atoms: C_8  and  C_11
                            x       y       z     vdW  Elec       q    Type
                         _______ _______ _______ _____ _____    ______ ____

>  <TORSDO>
F 6

$$$$
=
 OpenBabel11052413333D

 28 31  0  0  1  0  0  0  0  0999 V2000
  187.7110  177.5160  146.7400 C   0  0  0  0  0  0  0  0  0  0  0  0
  189.1340  176.4620  141.7100 C   0  0  0  0  0  2  0  0  0  0  0  0
  184.2510  179.7350  144.0730 C   0  0  0  0  0  1  0  0  0  0  0  0
  187.8460  178.4300  140.7040 C   0  0  1  0  0  3  0  0  0  0  0  0
  187.1920  177.4140  142.9910 C   0  0  1  0  0  3  0  0  0  0  0  0
  190.1000  177.8420  139.7710 C   0  0  2  0  0  3  0  0  0  0  0  0
  188.3260  177.7290  142.0040 C   0  0  1  0  0  3  0  0  0  0  0  0
  185.5920  178.8720  141.6470 C   0  0  0  0  0  2  0  0  0  0  0  0
  188.6160  177.9930  139.4550 C   0  0  0  0  0  2  0  0  0  0  0  0
  185.9960  178.5550  145.3580 C   0  0  0  0  0  0  0  0  0  0  0  0
  187.7530  177.2530  144.3720 C   0  0  0  0  0  3  0  0  0  0  0  0
  186.3520  178.2600  140.4760 C   0  0  0  0  0  2  0  0  0  0  0  0
  185.9140  178.7770  147.7320 C   0  0  0  0  0  3  0  0  0  0  0  0
  185.4780  178.8750  144.1550 C   0  0  0  0  0  0  0  0  0  0  0  0
  185.4090  179.0250  146.4960 N   0  0  0  0  0  0  0  0  0  0  0  0
  190.8650  177.5000  138.5110 C   0  0  0  0  0  1  0  0  0  0  0  0
  190.3560  176.7680  140.8380 C   0  0  0  0  0  2  0  0  0  0  0  0
  186.1200  178.4260  142.9420 N   0  0  0  0  0  0  0  0  0  0  0  0
  187.0780  178.0250  147.8740 C   0  0  0  0  0  3  0  0  0  0  0  0
  187.1660  177.7640  145.4610 C   0  0  0  0  0  0  0  0  0  0  0  0
  188.9760  176.7350  146.9180 C   0  0  0  0  0  2  0  0  0  0  0  0
  189.9750  177.5480  147.7250 C   0  0  0  0  0  2  0  0  0  0  0  0
  191.3930  177.1130  147.3950 C   0  0  0  0  0  2  0  0  0  0  0  0
  191.4160  176.1940  146.1770 C   0  0  0  0  0  2  0  0  0  0  0  0
  191.2880  176.9640  144.8650 C   0  0  2  0  0  3  0  0  0  0  0  0
  191.8530  176.2430  143.8260 F   0  0  0  0  0  0  0  0  0  0  0  0
  191.2940  178.9910  143.9740 C   0  0  0  0  0  1  0  0  0  0  0  0
  191.8980  178.2170  144.9660 O   0  0  0  0  0  0  0  0  0  0  0  0
  1 21  1  0  0  0  0
  1 19  2  0  0  0  0
  3 14  1  0  0  0  0
  4  9  1  6  0  0  0
  4  7  1  0  0  0  0
  5 11  1  1  0  0  0
  6 16  1  6  0  0  0
  6 17  1  0  0  0  0
  7  2  1  6  0  0  0
  7  5  1  0  0  0  0
  8 18  1  0  0  0  0
  9  6  1  0  0  0  0
 10 20  1  0  0  0  0
 10 15  1  0  0  0  0
 11 20  2  0  0  0  0
 12  4  1  0  0  0  0
 12  8  1  0  0  0  0
 13 19  1  0  0  0  0
 14 10  2  0  0  0  0
 15 13  2  0  0  0  0
 17  2  1  0  0  0  0
 18  5  1  0  0  0  0
 18 14  1  0  0  0  0
 20  1  1  0  0  0  0
 21 22  1  0  0  0  0
 23 22  1  0  0  0  0
 24 23  1  0  0  0  0
 25 26  1  6  0  0  0
 25 28  1  0  0  0  0
 25 24  1  0  0  0  0
 27 28  1  0  0  0  0
M  END
>  <MODEL>
7

>  <REMARK>
 VINA RESULT:      -7.9      1.421      2.149
  Name = 
  6 active torsions:
  status: ('A' for Active; 'I' for Inactive)
    1  A    between atoms: C_1  and  C_2
    2  A    between atoms: C_2  and  C_3
    3  A    between atoms: C_3  and  C_8
    4  A    between atoms: C_6  and  C_11
    5  A    between atoms: C_6  and  O_28
    6  A    between atoms: C_8  and  C_11
                            x       y       z     vdW  Elec       q    Type
                         _______ _______ _______ _____ _____    ______ ____

>  <TORSDO>
F 6

$$$$
=
 OpenBabel11052413333D

 28 31  0  0  1  0  0  0  0  0999 V2000
  187.4100  178.2540  139.8960 C   0  0  0  0  0  0  0  0  0  0  0  0
  187.6410  177.0140  145.0770 C   0  0  0  0  0  2  0  0  0  0  0  0
  192.1820  177.4640  140.6830 C   0  0  0  0  0  1  0  0  0  0  0  0
  190.1110  177.6260  145.3370 C   0  0  1  0  0  3  0  0  0  0  0  0
  189.1090  176.9950  143.0370 C   0  0  1  0  0  3  0  0  0  0  0  0
  188.5130  178.1900  147.1870 C   0  0  2  0  0  3  0  0  0  0  0  0
  188.8650  177.6430  144.4080 C   0  0  1  0  0  3  0  0  0  0  0  0
  191.6170  176.9470  143.4830 C   0  0  0  0  0  2  0  0  0  0  0  0
  189.7680  177.4090  146.8140 C   0  0  0  0  0  2  0  0  0  0  0  0
  189.7610  177.8000  140.3420 C   0  0  0  0  0  0  0  0  0  0  0  0
  188.1020  177.5060  142.0500 C   0  0  0  0  0  3  0  0  0  0  0  0
  191.1460  176.6050  144.8920 C   0  0  0  0  0  2  0  0  0  0  0  0
  189.0700  178.4940  138.1660 C   0  0  0  0  0  3  0  0  0  0  0  0
  190.7670  177.4800  141.1820 C   0  0  0  0  0  0  0  0  0  0  0  0
  190.0350  178.1170  139.0440 N   0  0  0  0  0  0  0  0  0  0  0  0
  188.2360  178.0440  148.6680 C   0  0  0  0  0  1  0  0  0  0  0  0
  187.2880  177.7310  146.3850 C   0  0  0  0  0  2  0  0  0  0  0  0
  190.4930  177.1930  142.5700 N   0  0  0  0  0  0  0  0  0  0  0  0
  187.7430  178.5760  138.5810 C   0  0  0  0  0  3  0  0  0  0  0  0
  188.4190  177.8450  140.7950 C   0  0  0  0  0  0  0  0  0  0  0  0
  185.9800  178.3790  140.3230 C   0  0  0  0  0  2  0  0  0  0  0  0
  185.8760  179.3240  141.5080 C   0  0  0  0  0  2  0  0  0  0  0  0
  184.7070  178.9260  142.3940 C   0  0  0  0  0  2  0  0  0  0  0  0
  184.9320  179.3780  143.8340 C   0  0  0  0  0  2  0  0  0  0  0  0
  183.7100  179.1360  144.7180 C   0  0  2  0  0  3  0  0  0  0  0  0
  184.0980  178.6290  145.9470 F   0  0  0  0  0  0  0  0  0  0  0  0
  181.6430  178.9930  143.9380 C   0  0  0  0  0  1  0  0  0  0  0  0
  182.8180  178.2580  144.0970 O   0  0  0  0  0  0  0  0  0  0  0  0
  1 21  1  0  0  0  0
  1 20  1  0  0  0  0
  2 17  1  0  0  0  0
  3 14  1  0  0  0  0
  4 12  1  6  0  0  0
  4  9  1  0  0  0  0
  5 11  1  6  0  0  0
  5  7  1  0  0  0  0
  6 16  1  1  0  0  0
  7  2  1  1  0  0  0
  7  4  1  0  0  0  0
  8 12  1  0  0  0  0
  9  6  1  0  0  0  0
 10 20  1  0  0  0  0
 10 14  2  0  0  0  0
 13 19  1  0  0  0  0
 13 15  2  0  0  0  0
 14 18  1  0  0  0  0
 15 10  1  0  0  0  0
 17  6  1  0  0  0  0
 18  5  1  0  0  0  0
 18  8  1  0  0  0  0
 19  1  2  0  0  0  0
 20 11  2  0  0  0  0
 21 22  1  0  0  0  0
 22 23  1  0  0  0  0
 23 24  1  0  0  0  0
 24 25  1  0  0  0  0
 25 26  1  1  0  0  0
 27 28  1  0  0  0  0
 28 25  1  0  0  0  0
M  END
>  <MODEL>
8

>  <REMARK>
 VINA RESULT:      -7.9      2.885      6.749
  Name = 
  6 active torsions:
  status: ('A' for Active; 'I' for Inactive)
    1  A    between atoms: C_1  and  C_2
    2  A    between atoms: C_2  and  C_3
    3  A    between atoms: C_3  and  C_8
    4  A    between atoms: C_6  and  C_11
    5  A    between atoms: C_6  and  O_28
    6  A    between atoms: C_8  and  C_11
                            x       y       z     vdW  Elec       q    Type
                         _______ _______ _______ _____ _____    ______ ____

>  <TORSDO>
F 6

$$$$
=
 OpenBabel11052413333D

 28 31  0  0  1  0  0  0  0  0999 V2000
  187.0560  177.7980  144.3910 C   0  0  0  0  0  0  0  0  0  0  0  0
  187.2020  178.3620  139.0910 C   0  0  0  0  0  2  0  0  0  0  0  0
  191.6970  176.7240  143.2440 C   0  0  0  0  0  1  0  0  0  0  0  0
  189.2580  176.8740  138.7720 C   0  0  1  0  0  3  0  0  0  0  0  0
  188.7740  178.0440  141.0270 C   0  0  1  0  0  3  0  0  0  0  0  0
  187.3910  176.7510  137.1000 C   0  0  2  0  0  3  0  0  0  0  0  0
  188.1850  177.4000  139.7640 C   0  0  1  0  0  3  0  0  0  0  0  0
  191.0810  177.1360  140.4370 C   0  0  0  0  0  2  0  0  0  0  0  0
  188.8720  177.0550  137.3010 C   0  0  0  0  0  2  0  0  0  0  0  0
  189.3600  177.3230  143.7600 C   0  0  0  0  0  0  0  0  0  0  0  0
  187.7530  178.0320  142.1250 C   0  0  0  0  0  3  0  0  0  0  0  0
  190.6260  177.4880  139.0260 C   0  0  0  0  0  2  0  0  0  0  0  0
  188.6840  177.1410  146.0410 C   0  0  0  0  0  3  0  0  0  0  0  0
  190.3260  177.1730  142.8320 C   0  0  0  0  0  0  0  0  0  0  0  0
  189.6300  177.0560  145.0700 N   0  0  0  0  0  0  0  0  0  0  0  0
  187.0400  176.8430  135.6300 C   0  0  0  0  0  1  0  0  0  0  0  0
  186.4930  177.6990  137.9060 C   0  0  0  0  0  2  0  0  0  0  0  0
  190.0380  177.4040  141.4360 N   0  0  0  0  0  0  0  0  0  0  0  0
  187.3800  177.5060  145.7160 C   0  0  0  0  0  3  0  0  0  0  0  0
  188.0520  177.7240  143.3930 C   0  0  0  0  0  0  0  0  0  0  0  0
  185.6400  178.1600  144.0650 C   0  0  0  0  0  2  0  0  0  0  0  0
  184.9350  178.6630  145.3130 C   0  0  0  0  0  2  0  0  0  0  0  0
  183.4850  178.9930  145.0000 C   0  0  0  0  0  2  0  0  0  0  0  0
  183.1960  178.8340  143.5100 C   0  0  0  0  0  2  0  0  0  0  0  0
  181.7250  179.0670  143.1750 C   0  0  2  0  0  3  0  0  0  0  0  0
  180.9160  178.3210  144.0160 F   0  0  0  0  0  0  0  0  0  0  0  0
  180.4400  179.6010  141.4530 C   0  0  0  0  0  1  0  0  0  0  0  0
  181.4630  178.7360  141.8420 O   0  0  0  0  0  0  0  0  0  0  0  0
  1 19  2  0  0  0  0
  4  9  1  6  0  0  0
  4 12  1  0  0  0  0
  4  7  1  0  0  0  0
  5 18  1  0  0  0  0
  5 11  1  1  0  0  0
  6 16  1  6  0  0  0
  6  9  1  0  0  0  0
  6 17  1  0  0  0  0
  7  2  1  6  0  0  0
  7  5  1  0  0  0  0
  8 18  1  0  0  0  0
 10 15  1  0  0  0  0
 11 20  2  0  0  0  0
 12  8  1  0  0  0  0
 14  3  1  0  0  0  0
 14 10  2  0  0  0  0
 15 13  2  0  0  0  0
 17  2  1  0  0  0  0
 18 14  1  0  0  0  0
 19 13  1  0  0  0  0
 20 10  1  0  0  0  0
 20  1  1  0  0  0  0
 21  1  1  0  0  0  0
 21 22  1  0  0  0  0
 23 22  1  0  0  0  0
 24 23  1  0  0  0  0
 25 24  1  0  0  0  0
 25 26  1  1  0  0  0
 27 28  1  0  0  0  0
 28 25  1  0  0  0  0
M  END
>  <MODEL>
9

>  <REMARK>
 VINA RESULT:      -7.6      3.576      6.178
  Name = 
  6 active torsions:
  status: ('A' for Active; 'I' for Inactive)
    1  A    between atoms: C_1  and  C_2
    2  A    between atoms: C_2  and  C_3
    3  A    between atoms: C_3  and  C_8
    4  A    between atoms: C_6  and  C_11
    5  A    between atoms: C_6  and  O_28
    6  A    between atoms: C_8  and  C_11
                            x       y       z     vdW  Elec       q    Type
                         _______ _______ _______ _____ _____    ______ ____

>  <TORSDO>
F 6

$$$$
