=
 OpenBabel11052416243D

 43 48  0  0  1  0  0  0  0  0999 V2000
  191.3220  176.3260  135.7010 C   0  0  2  0  0  3  0  0  0  0  0  0
  190.2380  177.7150  140.5740 C   0  0  0  0  0  0  0  0  0  0  0  0
  187.5140  178.6840  140.5640 C   0  0  2  0  0  3  0  0  0  0  0  0
  191.3900  176.6370  138.2020 C   0  0  0  0  0  0  0  0  0  0  0  0
  189.8170  176.1840  135.8540 C   0  0  0  0  0  2  0  0  0  0  0  0
  191.8090  175.4160  134.5950 C   0  0  0  0  0  1  0  0  0  0  0  0
  190.1260  177.1130  138.1840 C   0  0  0  0  0  0  0  0  0  0  0  0
  191.9990  175.9430  137.0130 C   0  0  0  0  0  2  0  0  0  0  0  0
  189.3270  177.1770  136.9040 C   0  0  0  0  0  2  0  0  0  0  0  0
  188.1350  178.0130  139.4280 N   0  0  0  0  0  2  0  0  0  0  0  0
  189.5210  177.6410  139.4310 C   0  0  0  0  0  0  0  0  0  0  0  0
  191.7290  177.4990  140.5450 C   0  0  0  0  0  2  0  0  0  0  0  0
  189.6070  178.2420  141.8490 C   0  0  1  0  0  3  0  0  0  0  0  0
  188.0790  178.1310  141.8620 C   0  0  0  0  0  2  0  0  0  0  0  0
  192.1230  176.6440  139.4290 N   0  0  0  0  0  2  0  0  0  0  0  0
  190.1850  177.6210  143.0450 N   0  0  0  0  0  0  0  0  0  0  0  0
  187.6370  177.5440  145.7370 C   0  0  0  0  0  2  0  0  0  0  0  0
  188.6140  177.5940  146.9110 C   0  0  2  0  0  3  0  0  0  0  0  0
  190.3800  176.9120  145.3170 C   0  0  0  0  0  3  0  0  0  0  0  0
  188.2850  178.1790  144.5060 C   0  0  0  0  0  2  0  0  0  0  0  0
  189.6350  177.5610  144.2230 C   0  0  0  0  0  0  0  0  0  0  0  0
  189.8980  176.8950  146.5620 C   0  0  0  0  0  3  0  0  0  0  0  0
  188.0380  177.0030  148.0370 O   0  0  0  0  0  0  0  0  0  0  0  0
  188.1490  177.9670  149.0390 C   0  0  0  0  0  1  0  0  0  0  0  0
  186.0330  178.5080  140.5160 C   0  0  0  0  0  0  0  0  0  0  0  0
  183.0450  178.4010  140.6860 N   0  0  0  0  0  2  0  0  0  0  0  0
  185.2970  178.4680  141.7430 N   0  0  0  0  0  2  0  0  0  0  0  0
  185.4510  178.3840  139.4050 O   0  0  0  0  0  0  0  0  0  0  0  0
  183.8720  178.3910  141.8520 C   0  0  0  0  0  0  0  0  0  0  0  0
  183.3470  178.3290  142.9950 O   0  0  0  0  0  0  0  0  0  0  0  0
  181.5910  178.3670  140.7650 C   0  0  1  0  0  3  0  0  0  0  0  0
  180.1160  179.5810  142.3080 C   0  0  0  0  0  2  0  0  0  0  0  0
  181.0680  179.7280  141.1870 C   0  0  2  0  0  3  0  0  0  0  0  0
  179.6770  179.7690  140.9850 O   0  0  0  0  0  0  0  0  0  0  0  0
  180.9700  177.9310  139.4330 C   0  0  2  0  0  3  0  0  0  0  0  0
  180.3330  176.5760  139.5250 C   0  0  0  0  0  0  0  0  0  0  0  0
  179.6670  174.5170  138.4300 C   0  0  0  0  0  3  0  0  0  0  0  0
  179.1470  174.8610  140.7700 C   0  0  0  0  0  3  0  0  0  0  0  0
  179.1020  174.0600  139.6230 C   0  0  0  0  0  3  0  0  0  0  0  0
  179.7580  176.1170  140.7200 C   0  0  0  0  0  3  0  0  0  0  0  0
  180.2800  175.7720  138.3800 C   0  0  0  0  0  3  0  0  0  0  0  0
  182.1290  178.0530  138.0240 S   0  0  0  0  0  0  0  0  0  0  0  0
  181.0590  179.2330  137.1540 C   0  0  0  0  0  1  0  0  0  0  0  0
  1  6  1  6  0  0  0
  1  5  1  0  0  0  0
  1  8  1  0  0  0  0
  2 13  1  0  0  0  0
  3 25  1  1  0  0  0
  3 14  1  0  0  0  0
  4 15  1  0  0  0  0
  5  9  1  0  0  0  0
  7  4  2  0  0  0  0
  7 11  1  0  0  0  0
  8  4  1  0  0  0  0
  9  7  1  0  0  0  0
 10 11  1  0  0  0  0
 10  3  1  0  0  0  0
 11  2  2  0  0  0  0
 12  2  1  0  0  0  0
 13 14  1  0  0  0  0
 13 16  1  1  0  0  0
 15 12  1  0  0  0  0
 16 21  2  0  0  0  0
 17 18  1  0  0  0  0
 18 23  1  1  0  0  0
 19 22  2  0  0  0  0
 20 17  1  0  0  0  0
 21 20  1  0  0  0  0
 21 19  1  0  0  0  0
 22 18  1  0  0  0  0
 23 24  1  0  0  0  0
 25 27  1  0  0  0  0
 26 29  1  0  0  0  0
 27 29  1  0  0  0  0
 28 25  2  0  0  0  0
 29 30  2  0  0  0  0
 31 26  1  6  0  0  0
 33 31  1  6  0  0  0
 33 32  1  0  0  0  0
 34 33  1  0  0  0  0
 34 32  1  0  0  0  0
 35 42  1  6  0  0  0
 35 36  1  0  0  0  0
 35 31  1  0  0  0  0
 36 40  1  0  0  0  0
 37 39  2  0  0  0  0
 39 38  1  0  0  0  0
 40 38  2  0  0  0  0
 41 37  1  0  0  0  0
 41 36  2  0  0  0  0
 43 42  1  0  0  0  0
M  END
>  <MODEL>
1

>  <REMARK>
 VINA RESULT:      -7.7      0.000      0.000
  Name = 
  8 active torsions:
  status: ('A' for Active; 'I' for Inactive)
    1  A    between atoms: N_1  and  C_34
    2  A    between atoms: C_2  and  C_13
    3  A    between atoms: N_3  and  C_4
    4  A    between atoms: C_4  and  C_15
    5  A    between atoms: C_4  and  C_22
    6  A    between atoms: C_11  and  C_22
    7  A    between atoms: S_14  and  C_22
    8  A    between atoms: C_19  and  O_25
                            x       y       z     vdW  Elec       q    Type
                         _______ _______ _______ _____ _____    ______ ____

>  <TORSDO>
F 8

$$$$
=
 OpenBabel11052416243D

 43 48  0  0  1  0  0  0  0  0999 V2000
  191.3160  176.6850  146.7860 C   0  0  2  0  0  3  0  0  0  0  0  0
  187.4040  178.1840  143.7370 C   0  0  0  0  0  0  0  0  0  0  0  0
  188.5200  178.5590  141.0960 C   0  0  2  0  0  3  0  0  0  0  0  0
  189.0280  177.1930  145.8570 C   0  0  0  0  0  0  0  0  0  0  0  0
  191.6850  176.2440  145.3810 C   0  0  0  0  0  2  0  0  0  0  0  0
  192.0300  175.8150  147.7980 C   0  0  0  0  0  1  0  0  0  0  0  0
  189.5620  177.3920  144.6330 C   0  0  0  0  0  0  0  0  0  0  0  0
  189.8080  176.5540  146.9750 C   0  0  0  0  0  2  0  0  0  0  0  0
  191.0360  177.1890  144.3740 C   0  0  0  0  0  2  0  0  0  0  0  0
  189.2500  177.9470  142.2010 N   0  0  0  0  0  2  0  0  0  0  0  0
  188.7030  177.8750  143.5250 C   0  0  0  0  0  0  0  0  0  0  0  0
  186.8720  178.2830  145.1430 C   0  0  0  0  0  2  0  0  0  0  0  0
  186.5280  178.6630  142.5950 C   0  0  1  0  0  3  0  0  0  0  0  0
  187.0390  178.2370  141.2150 C   0  0  0  0  0  2  0  0  0  0  0  0
  187.6360  177.4470  146.0630 N   0  0  0  0  0  2  0  0  0  0  0  0
  185.1270  178.2690  142.7760 N   0  0  0  0  0  0  0  0  0  0  0  0
  183.2550  178.9360  139.6460 C   0  0  0  0  0  2  0  0  0  0  0  0
  181.8920  179.1650  140.2960 C   0  0  2  0  0  3  0  0  0  0  0  0
  182.7960  178.0440  142.3090 C   0  0  0  0  0  3  0  0  0  0  0  0
  184.3620  179.2510  140.6520 C   0  0  0  0  0  2  0  0  0  0  0  0
  184.1510  178.4970  141.9450 C   0  0  0  0  0  0  0  0  0  0  0  0
  181.7460  178.3210  141.5330 C   0  0  0  0  0  3  0  0  0  0  0  0
  180.8740  178.8650  139.3900 O   0  0  0  0  0  0  0  0  0  0  0  0
  179.7190  178.7850  140.1680 C   0  0  0  0  0  1  0  0  0  0  0  0
  189.0620  178.0740  139.7930 C   0  0  0  0  0  0  0  0  0  0  0  0
  190.0840  176.7670  137.3000 N   0  0  0  0  0  2  0  0  0  0  0  0
  189.9160  176.9250  139.7780 N   0  0  0  0  0  2  0  0  0  0  0  0
  188.7760  178.6840  138.7270 O   0  0  0  0  0  0  0  0  0  0  0  0
  190.4390  176.2970  138.6030 C   0  0  0  0  0  0  0  0  0  0  0  0
  191.2080  175.3080  138.7280 O   0  0  0  0  0  0  0  0  0  0  0  0
  190.5650  176.1220  136.0860 C   0  0  1  0  0  3  0  0  0  0  0  0
  192.9830  175.9930  135.6770 C   0  0  0  0  0  2  0  0  0  0  0  0
  191.8470  175.3620  136.3810 C   0  0  2  0  0  3  0  0  0  0  0  0
  192.3560  174.8360  135.1800 O   0  0  0  0  0  0  0  0  0  0  0  0
  189.5030  175.1910  135.4900 C   0  0  2  0  0  3  0  0  0  0  0  0
  188.1510  175.8380  135.4400 C   0  0  0  0  0  0  0  0  0  0  0  0
  185.8240  175.8430  136.1240 C   0  0  0  0  0  3  0  0  0  0  0  0
  186.6340  177.5360  134.5940 C   0  0  0  0  0  3  0  0  0  0  0  0
  185.5900  176.9720  135.3350 C   0  0  0  0  0  3  0  0  0  0  0  0
  187.9100  176.9700  134.6430 C   0  0  0  0  0  3  0  0  0  0  0  0
  187.1010  175.2760  136.1750 C   0  0  0  0  0  3  0  0  0  0  0  0
  189.4500  173.5510  136.2960 S   0  0  0  0  0  0  0  0  0  0  0  0
  189.1190  172.7100  134.7220 C   0  0  0  0  0  1  0  0  0  0  0  0
  1  8  1  0  0  0  0
  1  6  1  1  0  0  0
  2 12  1  0  0  0  0
  3 25  1  6  0  0  0
  3 14  1  0  0  0  0
  3 10  1  0  0  0  0
  4 15  1  0  0  0  0
  4  8  1  0  0  0  0
  5  1  1  0  0  0  0
  7  4  2  0  0  0  0
  9  7  1  0  0  0  0
  9  5  1  0  0  0  0
 10 11  1  0  0  0  0
 11  2  2  0  0  0  0
 11  7  1  0  0  0  0
 12 15  1  0  0  0  0
 13 16  1  1  0  0  0
 13  2  1  0  0  0  0
 14 13  1  0  0  0  0
 17 18  1  0  0  0  0
 17 20  1  0  0  0  0
 18 23  1  6  0  0  0
 18 22  1  0  0  0  0
 20 21  1  0  0  0  0
 21 19  1  0  0  0  0
 21 16  2  0  0  0  0
 22 19  2  0  0  0  0
 23 24  1  0  0  0  0
 26 29  1  0  0  0  0
 27 25  1  0  0  0  0
 28 25  2  0  0  0  0
 29 30  2  0  0  0  0
 29 27  1  0  0  0  0
 31 26  1  1  0  0  0
 32 33  1  0  0  0  0
 33 31  1  6  0  0  0
 34 32  1  0  0  0  0
 34 33  1  0  0  0  0
 35 31  1  0  0  0  0
 35 42  1  1  0  0  0
 36 35  1  0  0  0  0
 36 41  1  0  0  0  0
 37 41  2  0  0  0  0
 38 40  1  0  0  0  0
 38 39  2  0  0  0  0
 39 37  1  0  0  0  0
 40 36  2  0  0  0  0
 43 42  1  0  0  0  0
M  END
>  <MODEL>
2

>  <REMARK>
 VINA RESULT:      -7.7      2.937      8.649
  Name = 
  8 active torsions:
  status: ('A' for Active; 'I' for Inactive)
    1  A    between atoms: N_1  and  C_34
    2  A    between atoms: C_2  and  C_13
    3  A    between atoms: N_3  and  C_4
    4  A    between atoms: C_4  and  C_15
    5  A    between atoms: C_4  and  C_22
    6  A    between atoms: C_11  and  C_22
    7  A    between atoms: S_14  and  C_22
    8  A    between atoms: C_19  and  O_25
                            x       y       z     vdW  Elec       q    Type
                         _______ _______ _______ _____ _____    ______ ____

>  <TORSDO>
F 8

$$$$
=
 OpenBabel11052416243D

 43 48  0  0  1  0  0  0  0  0999 V2000
  181.3530  178.3460  137.8620 C   0  0  2  0  0  3  0  0  0  0  0  0
  186.3570  177.5160  136.8040 C   0  0  0  0  0  0  0  0  0  0  0  0
  187.8380  178.3430  139.1450 C   0  0  2  0  0  3  0  0  0  0  0  0
  183.5080  177.5690  136.8120 C   0  0  0  0  0  0  0  0  0  0  0  0
  182.0350  178.1230  139.2010 C   0  0  0  0  0  2  0  0  0  0  0  0
  179.8840  178.0000  137.9740 C   0  0  0  0  0  1  0  0  0  0  0  0
  184.1950  177.9820  137.8980 C   0  0  0  0  0  0  0  0  0  0  0  0
  182.0070  177.4570  136.8100 C   0  0  0  0  0  2  0  0  0  0  0  0
  183.4910  178.5660  139.1000 C   0  0  0  0  0  2  0  0  0  0  0  0
  186.3850  178.2290  139.1090 N   0  0  0  0  0  2  0  0  0  0  0  0
  185.6770  177.9200  137.9000 C   0  0  0  0  0  0  0  0  0  0  0  0
  185.6410  177.3620  135.4870 C   0  0  0  0  0  2  0  0  0  0  0  0
  187.8710  177.4400  136.8190 C   0  0  1  0  0  3  0  0  0  0  0  0
  188.4600  177.3030  138.2270 C   0  0  0  0  0  2  0  0  0  0  0  0
  184.2240  177.0700  135.6790 N   0  0  0  0  0  2  0  0  0  0  0  0
  188.3770  176.3820  135.9380 N   0  0  0  0  0  0  0  0  0  0  0  0
  186.7670  173.1660  136.8390 C   0  0  0  0  0  2  0  0  0  0  0  0
  187.9080  172.2590  136.3830 C   0  0  2  0  0  3  0  0  0  0  0  0
  188.7630  174.1850  135.0860 C   0  0  0  0  0  3  0  0  0  0  0  0
  187.3200  174.5470  137.1920 C   0  0  0  0  0  2  0  0  0  0  0  0
  188.1490  175.1060  136.0590 C   0  0  0  0  0  0  0  0  0  0  0  0
  188.6290  172.8630  135.2100 C   0  0  0  0  0  3  0  0  0  0  0  0
  187.4120  171.0000  136.0430 O   0  0  0  0  0  0  0  0  0  0  0  0
  186.2230  171.2600  135.3610 C   0  0  0  0  0  1  0  0  0  0  0  0
  188.3310  178.1750  140.5430 C   0  0  0  0  0  0  0  0  0  0  0  0
  189.6380  177.7410  143.2020 N   0  0  0  0  0  2  0  0  0  0  0  0
  189.1740  177.0600  140.8540 N   0  0  0  0  0  2  0  0  0  0  0  0
  187.9920  179.0010  141.4330 O   0  0  0  0  0  0  0  0  0  0  0  0
  189.7900  176.8160  142.1230 C   0  0  0  0  0  0  0  0  0  0  0  0
  190.4850  175.7770  142.2770 O   0  0  0  0  0  0  0  0  0  0  0  0
  190.2870  177.5430  144.4910 C   0  0  1  0  0  3  0  0  0  0  0  0
  191.2020  179.7480  143.9170 C   0  0  0  0  0  2  0  0  0  0  0  0
  190.7750  178.8750  145.0310 C   0  0  2  0  0  3  0  0  0  0  0  0
  192.1310  179.0370  144.6990 O   0  0  0  0  0  0  0  0  0  0  0  0
  189.3450  176.8600  145.4910 C   0  0  2  0  0  3  0  0  0  0  0  0
  187.9770  177.4750  145.4850 C   0  0  0  0  0  0  0  0  0  0  0  0
  186.2310  178.6640  146.6770 C   0  0  0  0  0  3  0  0  0  0  0  0
  185.8620  177.9550  144.3910 C   0  0  0  0  0  3  0  0  0  0  0  0
  185.4060  178.5900  145.5520 C   0  0  0  0  0  3  0  0  0  0  0  0
  187.1430  177.3970  144.3590 C   0  0  0  0  0  3  0  0  0  0  0  0
  187.5120  178.1070  146.6450 C   0  0  0  0  0  3  0  0  0  0  0  0
  190.0430  176.7490  147.1770 S   0  0  0  0  0  0  0  0  0  0  0  0
  191.5850  176.0110  146.5650 C   0  0  0  0  0  1  0  0  0  0  0  0
  1  6  1  1  0  0  0
  1  5  1  0  0  0  0
  2 13  1  0  0  0  0
  2 11  2  0  0  0  0
  3 25  1  1  0  0  0
  4  7  2  0  0  0  0
  7 11  1  0  0  0  0
  7  9  1  0  0  0  0
  8  4  1  0  0  0  0
  8  1  1  0  0  0  0
  9  5  1  0  0  0  0
 10  3  1  0  0  0  0
 11 10  1  0  0  0  0
 12 15  1  0  0  0  0
 12  2  1  0  0  0  0
 13 16  1  6  0  0  0
 13 14  1  0  0  0  0
 14  3  1  0  0  0  0
 15  4  1  0  0  0  0
 16 21  2  0  0  0  0
 17 20  1  0  0  0  0
 18 23  1  6  0  0  0
 18 17  1  0  0  0  0
 19 22  2  0  0  0  0
 19 21  1  0  0  0  0
 21 20  1  0  0  0  0
 22 18  1  0  0  0  0
 24 23  1  0  0  0  0
 25 27  1  0  0  0  0
 25 28  2  0  0  0  0
 27 29  1  0  0  0  0
 29 30  2  0  0  0  0
 29 26  1  0  0  0  0
 31 26  1  6  0  0  0
 31 35  1  0  0  0  0
 32 34  1  0  0  0  0
 32 33  1  0  0  0  0
 33 31  1  6  0  0  0
 34 33  1  0  0  0  0
 35 42  1  1  0  0  0
 36 35  1  0  0  0  0
 36 41  1  0  0  0  0
 38 39  2  0  0  0  0
 39 37  1  0  0  0  0
 40 38  1  0  0  0  0
 40 36  2  0  0  0  0
 41 37  2  0  0  0  0
 43 42  1  0  0  0  0
M  END
>  <MODEL>
3

>  <REMARK>
 VINA RESULT:      -7.7      3.653      9.224
  Name = 
  8 active torsions:
  status: ('A' for Active; 'I' for Inactive)
    1  A    between atoms: N_1  and  C_34
    2  A    between atoms: C_2  and  C_13
    3  A    between atoms: N_3  and  C_4
    4  A    between atoms: C_4  and  C_15
    5  A    between atoms: C_4  and  C_22
    6  A    between atoms: C_11  and  C_22
    7  A    between atoms: S_14  and  C_22
    8  A    between atoms: C_19  and  O_25
                            x       y       z     vdW  Elec       q    Type
                         _______ _______ _______ _____ _____    ______ ____

>  <TORSDO>
F 8

$$$$
=
 OpenBabel11052416243D

 43 48  0  0  1  0  0  0  0  0999 V2000
  181.8380  178.5720  137.3800 C   0  0  2  0  0  3  0  0  0  0  0  0
  186.7740  177.1600  136.6760 C   0  0  0  0  0  0  0  0  0  0  0  0
  188.2170  178.0210  139.0290 C   0  0  2  0  0  3  0  0  0  0  0  0
  183.9500  177.4990  136.5160 C   0  0  0  0  0  0  0  0  0  0  0  0
  182.4260  178.3900  138.7680 C   0  0  0  0  0  2  0  0  0  0  0  0
  180.3380  178.3860  137.4330 C   0  0  0  0  0  1  0  0  0  0  0  0
  184.6220  177.9280  137.6060 C   0  0  0  0  0  0  0  0  0  0  0  0
  182.4470  177.5390  136.4370 C   0  0  0  0  0  2  0  0  0  0  0  0
  183.9240  178.6750  138.7170 C   0  0  0  0  0  2  0  0  0  0  0  0
  186.7630  178.0510  138.9190 N   0  0  0  0  0  2  0  0  0  0  0  0
  186.0870  177.7170  137.6980 C   0  0  0  0  0  0  0  0  0  0  0  0
  186.1120  176.9730  135.3350 C   0  0  0  0  0  2  0  0  0  0  0  0
  188.2700  176.9330  136.7840 C   0  0  1  0  0  3  0  0  0  0  0  0
  188.7710  176.8530  138.2290 C   0  0  0  0  0  2  0  0  0  0  0  0
  184.6650  176.8410  135.4680 N   0  0  0  0  0  2  0  0  0  0  0  0
  188.7040  175.7620  136.0160 N   0  0  0  0  0  0  0  0  0  0  0  0
  192.3830  175.4050  136.3060 C   0  0  0  0  0  2  0  0  0  0  0  0
  192.6040  174.7140  134.9610 C   0  0  2  0  0  3  0  0  0  0  0  0
  190.1800  174.2130  134.9540 C   0  0  0  0  0  3  0  0  0  0  0  0
  191.1070  176.2440  136.2460 C   0  0  0  0  0  2  0  0  0  0  0  0
  189.9350  175.4180  135.7680 C   0  0  0  0  0  0  0  0  0  0  0  0
  191.4190  173.8610  134.6030 C   0  0  0  0  0  3  0  0  0  0  0  0
  193.7590  173.9320  135.0090 O   0  0  0  0  0  0  0  0  0  0  0  0
  194.1950  174.0240  136.3310 C   0  0  0  0  0  1  0  0  0  0  0  0
  188.6200  177.9170  140.4620 C   0  0  0  0  0  0  0  0  0  0  0  0
  189.7500  177.5940  143.2160 N   0  0  0  0  0  2  0  0  0  0  0  0
  189.3970  176.7920  140.8870 N   0  0  0  0  0  2  0  0  0  0  0  0
  188.2630  178.8070  141.2810 O   0  0  0  0  0  0  0  0  0  0  0  0
  189.9270  176.6010  142.2020 C   0  0  0  0  0  0  0  0  0  0  0  0
  190.5690  175.5480  142.4570 O   0  0  0  0  0  0  0  0  0  0  0  0
  190.3130  177.4480  144.5510 C   0  0  1  0  0  3  0  0  0  0  0  0
  191.0440  179.7030  143.9110 C   0  0  0  0  0  2  0  0  0  0  0  0
  190.8030  178.7950  145.0520 C   0  0  2  0  0  3  0  0  0  0  0  0
  192.0970  179.0280  144.5540 O   0  0  0  0  0  0  0  0  0  0  0  0
  189.2940  176.8410  145.5240 C   0  0  2  0  0  3  0  0  0  0  0  0
  187.9480  177.4900  145.4060 C   0  0  0  0  0  0  0  0  0  0  0  0
  186.1610  178.7660  146.4360 C   0  0  0  0  0  3  0  0  0  0  0  0
  185.9240  177.9840  144.1570 C   0  0  0  0  0  3  0  0  0  0  0  0
  185.4100  178.6720  145.2610 C   0  0  0  0  0  3  0  0  0  0  0  0
  187.1870  177.3920  144.2290 C   0  0  0  0  0  3  0  0  0  0  0  0
  187.4250  178.1750  146.5090 C   0  0  0  0  0  3  0  0  0  0  0  0
  189.8880  176.7970  147.2520 S   0  0  0  0  0  0  0  0  0  0  0  0
  191.5290  176.2080  146.7470 C   0  0  0  0  0  1  0  0  0  0  0  0
  1  6  1  1  0  0  0
  1  5  1  0  0  0  0
  2 13  1  0  0  0  0
  2 11  2  0  0  0  0
  3 25  1  1  0  0  0
  4  7  2  0  0  0  0
  7 11  1  0  0  0  0
  7  9  1  0  0  0  0
  8  4  1  0  0  0  0
  8  1  1  0  0  0  0
  9  5  1  0  0  0  0
 10  3  1  0  0  0  0
 11 10  1  0  0  0  0
 12 15  1  0  0  0  0
 12  2  1  0  0  0  0
 13 16  1  6  0  0  0
 13 14  1  0  0  0  0
 14  3  1  0  0  0  0
 15  4  1  0  0  0  0
 18 23  1  1  0  0  0
 18 17  1  0  0  0  0
 19 21  1  0  0  0  0
 20 17  1  0  0  0  0
 21 16  2  0  0  0  0
 21 20  1  0  0  0  0
 22 19  2  0  0  0  0
 22 18  1  0  0  0  0
 23 24  1  0  0  0  0
 25 27  1  0  0  0  0
 25 28  2  0  0  0  0
 27 29  1  0  0  0  0
 29 30  2  0  0  0  0
 29 26  1  0  0  0  0
 31 26  1  6  0  0  0
 31 35  1  0  0  0  0
 32 34  1  0  0  0  0
 32 33  1  0  0  0  0
 33 31  1  6  0  0  0
 34 33  1  0  0  0  0
 35 42  1  1  0  0  0
 36 35  1  0  0  0  0
 36 41  1  0  0  0  0
 37 41  2  0  0  0  0
 38 40  1  0  0  0  0
 38 39  2  0  0  0  0
 39 37  1  0  0  0  0
 40 36  2  0  0  0  0
 43 42  1  0  0  0  0
M  END
>  <MODEL>
4

>  <REMARK>
 VINA RESULT:      -7.7      3.500      9.229
  Name = 
  8 active torsions:
  status: ('A' for Active; 'I' for Inactive)
    1  A    between atoms: N_1  and  C_34
    2  A    between atoms: C_2  and  C_13
    3  A    between atoms: N_3  and  C_4
    4  A    between atoms: C_4  and  C_15
    5  A    between atoms: C_4  and  C_22
    6  A    between atoms: C_11  and  C_22
    7  A    between atoms: S_14  and  C_22
    8  A    between atoms: C_19  and  O_25
                            x       y       z     vdW  Elec       q    Type
                         _______ _______ _______ _____ _____    ______ ____

>  <TORSDO>
F 8

$$$$
=
 OpenBabel11052416243D

 43 48  0  0  1  0  0  0  0  0999 V2000
  188.8340  177.7630  145.8230 C   0  0  2  0  0  3  0  0  0  0  0  0
  187.9450  178.1410  140.7320 C   0  0  0  0  0  0  0  0  0  0  0  0
  190.4750  177.6550  139.4200 C   0  0  2  0  0  3  0  0  0  0  0  0
  187.7270  177.9130  143.5630 C   0  0  0  0  0  0  0  0  0  0  0  0
  189.8820  176.8960  145.1470 C   0  0  0  0  0  2  0  0  0  0  0  0
  188.6050  177.2780  147.2370 C   0  0  0  0  0  1  0  0  0  0  0  0
  188.9170  177.7100  142.9580 C   0  0  0  0  0  0  0  0  0  0  0  0
  187.5300  177.6800  145.0380 C   0  0  0  0  0  2  0  0  0  0  0  0
  190.1730  177.4550  143.7580 C   0  0  0  0  0  2  0  0  0  0  0  0
  190.2530  177.4440  140.8460 N   0  0  0  0  0  2  0  0  0  0  0  0
  189.0170  177.7970  141.4820 C   0  0  0  0  0  0  0  0  0  0  0  0
  186.7050  178.6830  141.3930 C   0  0  0  0  0  2  0  0  0  0  0  0
  188.0510  178.2120  139.2210 C   0  0  1  0  0  3  0  0  0  0  0  0
  189.1960  177.3680  138.6500 C   0  0  0  0  0  2  0  0  0  0  0  0
  186.5760  178.2010  142.7650 N   0  0  0  0  0  2  0  0  0  0  0  0
  186.7820  177.8800  138.5650 N   0  0  0  0  0  0  0  0  0  0  0  0
  187.3130  175.0460  136.2350 C   0  0  0  0  0  2  0  0  0  0  0  0
  186.1980  175.4060  135.2550 C   0  0  2  0  0  3  0  0  0  0  0  0
  185.2650  176.8530  137.0330 C   0  0  0  0  0  3  0  0  0  0  0  0
  187.7850  176.3060  136.9610 C   0  0  0  0  0  2  0  0  0  0  0  0
  186.6210  177.0430  137.5820 C   0  0  0  0  0  0  0  0  0  0  0  0
  185.0560  176.0690  135.9740 C   0  0  0  0  0  3  0  0  0  0  0  0
  185.7500  174.2590  134.5990 O   0  0  0  0  0  0  0  0  0  0  0  0
  186.0960  173.2070  135.4460 C   0  0  0  0  0  1  0  0  0  0  0  0
  191.5860  176.7810  138.9390 C   0  0  0  0  0  0  0  0  0  0  0  0
  193.6360  175.0120  137.6610 N   0  0  0  0  0  2  0  0  0  0  0  0
  191.2740  175.6400  138.1320 N   0  0  0  0  0  2  0  0  0  0  0  0
  192.7760  177.0450  139.2580 O   0  0  0  0  0  0  0  0  0  0  0  0
  192.2340  174.7640  137.5310 C   0  0  0  0  0  0  0  0  0  0  0  0
  191.8280  173.7730  136.8680 O   0  0  0  0  0  0  0  0  0  0  0  0
  194.6350  174.1640  137.0260 C   0  0  1  0  0  3  0  0  0  0  0  0
  195.0730  175.3510  134.9210 C   0  0  0  0  0  2  0  0  0  0  0  0
  195.6210  175.0220  136.2540 C   0  0  2  0  0  3  0  0  0  0  0  0
  196.0260  174.3320  135.0980 O   0  0  0  0  0  0  0  0  0  0  0  0
  195.3610  173.2890  138.0560 C   0  0  2  0  0  3  0  0  0  0  0  0
  196.4200  174.0520  138.7950 C   0  0  0  0  0  0  0  0  0  0  0  0
  198.7650  174.6010  139.0820 C   0  0  0  0  0  3  0  0  0  0  0  0
  197.1150  175.5360  140.5880 C   0  0  0  0  0  3  0  0  0  0  0  0
  198.4460  175.4080  140.1780 C   0  0  0  0  0  3  0  0  0  0  0  0
  196.1050  174.8580  139.9010 C   0  0  0  0  0  3  0  0  0  0  0  0
  197.7550  173.9240  138.3930 C   0  0  0  0  0  3  0  0  0  0  0  0
  196.0030  171.7300  137.3500 S   0  0  0  0  0  0  0  0  0  0  0  0
  194.3370  171.1650  136.9030 C   0  0  0  0  0  1  0  0  0  0  0  0
  1  6  1  1  0  0  0
  2 12  1  0  0  0  0
  2 11  2  0  0  0  0
  3 25  1  6  0  0  0
  3 10  1  0  0  0  0
  4  8  1  0  0  0  0
  5  1  1  0  0  0  0
  7  4  2  0  0  0  0
  7  9  1  0  0  0  0
  8  1  1  0  0  0  0
  9  5  1  0  0  0  0
 10 11  1  0  0  0  0
 11  7  1  0  0  0  0
 12 15  1  0  0  0  0
 13 16  1  6  0  0  0
 13  2  1  0  0  0  0
 14 13  1  0  0  0  0
 14  3  1  0  0  0  0
 15  4  1  0  0  0  0
 17 20  1  0  0  0  0
 18 23  1  1  0  0  0
 18 22  1  0  0  0  0
 18 17  1  0  0  0  0
 19 21  1  0  0  0  0
 20 21  1  0  0  0  0
 21 16  2  0  0  0  0
 22 19  2  0  0  0  0
 23 24  1  0  0  0  0
 25 28  2  0  0  0  0
 27 25  1  0  0  0  0
 29 26  1  0  0  0  0
 29 27  1  0  0  0  0
 30 29  2  0  0  0  0
 31 26  1  1  0  0  0
 31 35  1  0  0  0  0
 32 34  1  0  0  0  0
 32 33  1  0  0  0  0
 33 31  1  1  0  0  0
 34 33  1  0  0  0  0
 35 42  1  6  0  0  0
 35 36  1  0  0  0  0
 36 40  1  0  0  0  0
 37 39  2  0  0  0  0
 39 38  1  0  0  0  0
 40 38  2  0  0  0  0
 41 36  2  0  0  0  0
 41 37  1  0  0  0  0
 43 42  1  0  0  0  0
M  END
>  <MODEL>
5

>  <REMARK>
 VINA RESULT:      -7.5      4.962     11.749
  Name = 
  8 active torsions:
  status: ('A' for Active; 'I' for Inactive)
    1  A    between atoms: N_1  and  C_34
    2  A    between atoms: C_2  and  C_13
    3  A    between atoms: N_3  and  C_4
    4  A    between atoms: C_4  and  C_15
    5  A    between atoms: C_4  and  C_22
    6  A    between atoms: C_11  and  C_22
    7  A    between atoms: S_14  and  C_22
    8  A    between atoms: C_19  and  O_25
                            x       y       z     vdW  Elec       q    Type
                         _______ _______ _______ _____ _____    ______ ____

>  <TORSDO>
F 8

$$$$
=
 OpenBabel11052416243D

 43 48  0  0  1  0  0  0  0  0999 V2000
  191.6810  176.5080  146.7720 C   0  0  2  0  0  3  0  0  0  0  0  0
  187.3860  178.2500  144.4540 C   0  0  0  0  0  0  0  0  0  0  0  0
  187.9230  178.2320  141.6140 C   0  0  2  0  0  3  0  0  0  0  0  0
  189.3170  177.2400  146.2890 C   0  0  0  0  0  0  0  0  0  0  0  0
  191.6760  175.8980  145.3810 C   0  0  0  0  0  2  0  0  0  0  0  0
  192.4980  175.6430  147.7060 C   0  0  0  0  0  1  0  0  0  0  0  0
  189.5840  177.2530  144.9650 C   0  0  0  0  0  0  0  0  0  0  0  0
  190.2480  176.6020  147.2850 C   0  0  0  0  0  2  0  0  0  0  0  0
  190.9310  176.8290  144.4300 C   0  0  0  0  0  2  0  0  0  0  0  0
  188.8060  177.6270  142.6040 N   0  0  0  0  0  2  0  0  0  0  0  0
  188.5610  177.7490  144.0130 C   0  0  0  0  0  0  0  0  0  0  0  0
  187.1950  178.5450  145.9190 C   0  0  0  0  0  2  0  0  0  0  0  0
  186.3390  178.7400  143.4730 C   0  0  1  0  0  3  0  0  0  0  0  0
  186.4790  178.1270  142.0760 C   0  0  0  0  0  2  0  0  0  0  0  0
  188.0450  177.6990  146.7510 N   0  0  0  0  0  2  0  0  0  0  0  0
  184.9780  178.5600  143.9880 N   0  0  0  0  0  0  0  0  0  0  0  0
  182.5890  178.5480  141.1520 C   0  0  0  0  0  2  0  0  0  0  0  0
  181.3870  179.0850  141.9260 C   0  0  2  0  0  3  0  0  0  0  0  0
  182.5910  178.4620  143.9960 C   0  0  0  0  0  3  0  0  0  0  0  0
  183.8810  179.0060  141.8300 C   0  0  0  0  0  2  0  0  0  0  0  0
  183.8760  178.6550  143.3000 C   0  0  0  0  0  0  0  0  0  0  0  0
  181.4310  178.6280  143.3580 C   0  0  0  0  0  3  0  0  0  0  0  0
  180.2020  178.6610  141.3250 O   0  0  0  0  0  0  0  0  0  0  0  0
  180.5680  177.5500  140.5640 C   0  0  0  0  0  1  0  0  0  0  0  0
  188.1020  177.5630  140.2910 C   0  0  0  0  0  0  0  0  0  0  0  0
  188.6080  175.9470  137.8220 N   0  0  0  0  0  2  0  0  0  0  0  0
  189.3130  176.8440  140.0340 N   0  0  0  0  0  2  0  0  0  0  0  0
  187.2000  177.6500  139.4160 O   0  0  0  0  0  0  0  0  0  0  0  0
  189.5900  176.0850  138.8520 C   0  0  0  0  0  0  0  0  0  0  0  0
  190.7100  175.5230  138.7340 O   0  0  0  0  0  0  0  0  0  0  0  0
  188.8440  175.1460  136.6280 C   0  0  1  0  0  3  0  0  0  0  0  0
  187.5190  173.1070  136.2850 C   0  0  0  0  0  2  0  0  0  0  0  0
  187.5300  174.5760  136.1240 C   0  0  2  0  0  3  0  0  0  0  0  0
  187.7870  173.7130  135.0450 O   0  0  0  0  0  0  0  0  0  0  0  0
  189.5390  175.9660  135.5350 C   0  0  2  0  0  3  0  0  0  0  0  0
  190.9500  175.5140  135.3030 C   0  0  0  0  0  0  0  0  0  0  0  0
  193.2090  176.0410  134.5940 C   0  0  0  0  0  3  0  0  0  0  0  0
  192.6480  173.7780  135.2490 C   0  0  0  0  0  3  0  0  0  0  0  0
  193.5870  174.7110  134.7960 C   0  0  0  0  0  3  0  0  0  0  0  0
  191.3330  174.1770  135.4990 C   0  0  0  0  0  3  0  0  0  0  0  0
  191.8930  176.4410  134.8450 C   0  0  0  0  0  3  0  0  0  0  0  0
  189.4310  177.7700  135.8110 S   0  0  0  0  0  0  0  0  0  0  0  0
  187.8360  177.8770  134.9490 C   0  0  0  0  0  1  0  0  0  0  0  0
  1  8  1  0  0  0  0
  1  6  1  1  0  0  0
  2 12  1  0  0  0  0
  3 25  1  6  0  0  0
  3 14  1  0  0  0  0
  3 10  1  0  0  0  0
  4 15  1  0  0  0  0
  4  8  1  0  0  0  0
  5  1  1  0  0  0  0
  7  4  2  0  0  0  0
  9  7  1  0  0  0  0
  9  5  1  0  0  0  0
 10 11  1  0  0  0  0
 11  2  2  0  0  0  0
 11  7  1  0  0  0  0
 12 15  1  0  0  0  0
 13 16  1  1  0  0  0
 13  2  1  0  0  0  0
 14 13  1  0  0  0  0
 17 20  1  0  0  0  0
 17 18  1  0  0  0  0
 18 23  1  6  0  0  0
 18 22  1  0  0  0  0
 20 21  1  0  0  0  0
 21 16  2  0  0  0  0
 21 19  1  0  0  0  0
 22 19  2  0  0  0  0
 24 23  1  0  0  0  0
 26 29  1  0  0  0  0
 27 25  1  0  0  0  0
 28 25  2  0  0  0  0
 29 27  1  0  0  0  0
 30 29  2  0  0  0  0
 31 26  1  1  0  0  0
 33 32  1  0  0  0  0
 33 31  1  1  0  0  0
 34 33  1  0  0  0  0
 34 32  1  0  0  0  0
 35 42  1  1  0  0  0
 35 31  1  0  0  0  0
 36 40  1  0  0  0  0
 36 35  1  0  0  0  0
 37 39  2  0  0  0  0
 37 41  1  0  0  0  0
 38 40  2  0  0  0  0
 39 38  1  0  0  0  0
 41 36  2  0  0  0  0
 43 42  1  0  0  0  0
M  END
>  <MODEL>
6

>  <REMARK>
 VINA RESULT:      -7.5      2.693      8.918
  Name = 
  8 active torsions:
  status: ('A' for Active; 'I' for Inactive)
    1  A    between atoms: N_1  and  C_34
    2  A    between atoms: C_2  and  C_13
    3  A    between atoms: N_3  and  C_4
    4  A    between atoms: C_4  and  C_15
    5  A    between atoms: C_4  and  C_22
    6  A    between atoms: C_11  and  C_22
    7  A    between atoms: S_14  and  C_22
    8  A    between atoms: C_19  and  O_25
                            x       y       z     vdW  Elec       q    Type
                         _______ _______ _______ _____ _____    ______ ____

>  <TORSDO>
F 8

$$$$
=
 OpenBabel11052416243D

 43 48  0  0  1  0  0  0  0  0999 V2000
  190.1050  177.3130  145.7730 C   0  0  2  0  0  3  0  0  0  0  0  0
  189.0030  177.8160  140.7350 C   0  0  0  0  0  0  0  0  0  0  0  0
  191.5060  177.5370  139.3160 C   0  0  2  0  0  3  0  0  0  0  0  0
  188.9060  177.4730  143.5620 C   0  0  0  0  0  0  0  0  0  0  0  0
  191.1770  176.5380  145.0280 C   0  0  0  0  0  2  0  0  0  0  0  0
  189.9600  176.7640  147.1750 C   0  0  0  0  0  1  0  0  0  0  0  0
  190.0820  177.3680  142.9080 C   0  0  0  0  0  0  0  0  0  0  0  0
  188.7790  177.1760  145.0320 C   0  0  0  0  0  2  0  0  0  0  0  0
  191.3800  177.1630  143.6520 C   0  0  0  0  0  2  0  0  0  0  0  0
  191.3510  177.2610  140.7400 N   0  0  0  0  0  2  0  0  0  0  0  0
  190.1200  177.5140  141.4320 C   0  0  0  0  0  0  0  0  0  0  0  0
  187.7570  178.2550  141.4600 C   0  0  0  0  0  2  0  0  0  0  0  0
  189.0470  177.9480  139.2250 C   0  0  1  0  0  3  0  0  0  0  0  0
  190.2180  177.1990  138.5820 C   0  0  0  0  0  2  0  0  0  0  0  0
  187.7100  177.7170  142.8160 N   0  0  0  0  0  2  0  0  0  0  0  0
  187.7770  177.5600  138.6030 N   0  0  0  0  0  0  0  0  0  0  0  0
  188.3810  174.8000  136.2030 C   0  0  0  0  0  2  0  0  0  0  0  0
  187.2180  175.1180  135.2650 C   0  0  2  0  0  3  0  0  0  0  0  0
  186.2680  176.4820  137.0990 C   0  0  0  0  0  3  0  0  0  0  0  0
  188.8090  176.0710  136.9370 C   0  0  0  0  0  2  0  0  0  0  0  0
  187.6280  176.7340  137.6080 C   0  0  0  0  0  0  0  0  0  0  0  0
  186.0650  175.7070  136.0310 C   0  0  0  0  0  3  0  0  0  0  0  0
  186.8090  173.9610  134.6000 O   0  0  0  0  0  0  0  0  0  0  0  0
  185.4160  174.0290  134.5940 C   0  0  0  0  0  1  0  0  0  0  0  0
  192.6490  176.7520  138.7640 C   0  0  0  0  0  0  0  0  0  0  0  0
  194.8160  175.2650  137.3290 N   0  0  0  0  0  2  0  0  0  0  0  0
  192.4320  175.9140  137.6240 N   0  0  0  0  0  2  0  0  0  0  0  0
  193.7830  176.8230  139.3110 O   0  0  0  0  0  0  0  0  0  0  0  0
  193.4440  175.1730  136.9350 C   0  0  0  0  0  0  0  0  0  0  0  0
  193.1160  174.4440  135.9620 O   0  0  0  0  0  0  0  0  0  0  0  0
  195.8750  174.5570  136.6210 C   0  0  1  0  0  3  0  0  0  0  0  0
  197.9720  175.0950  135.4640 C   0  0  0  0  0  2  0  0  0  0  0  0
  196.5630  175.5000  135.6510 C   0  0  2  0  0  3  0  0  0  0  0  0
  197.6150  176.1560  136.3150 O   0  0  0  0  0  0  0  0  0  0  0  0
  196.8860  173.9450  137.5980 C   0  0  2  0  0  3  0  0  0  0  0  0
  196.9360  172.4500  137.4930 C   0  0  0  0  0  0  0  0  0  0  0  0
  198.1150  170.4580  136.7670 C   0  0  0  0  0  3  0  0  0  0  0  0
  195.9340  170.2580  137.8010 C   0  0  0  0  0  3  0  0  0  0  0  0
  197.0570  169.6630  137.2150 C   0  0  0  0  0  3  0  0  0  0  0  0
  195.8720  171.6470  137.9370 C   0  0  0  0  0  3  0  0  0  0  0  0
  198.0540  171.8480  136.9030 C   0  0  0  0  0  3  0  0  0  0  0  0
  196.6510  174.5060  139.3220 S   0  0  0  0  0  0  0  0  0  0  0  0
  198.3220  175.2100  139.3950 C   0  0  0  0  0  1  0  0  0  0  0  0
  1  6  1  1  0  0  0
  2 11  2  0  0  0  0
  2 12  1  0  0  0  0
  3 25  1  6  0  0  0
  3 10  1  0  0  0  0
  4  8  1  0  0  0  0
  5  1  1  0  0  0  0
  7  4  2  0  0  0  0
  7  9  1  0  0  0  0
  8  1  1  0  0  0  0
  9  5  1  0  0  0  0
 10 11  1  0  0  0  0
 11  7  1  0  0  0  0
 12 15  1  0  0  0  0
 13 16  1  6  0  0  0
 13  2  1  0  0  0  0
 14 13  1  0  0  0  0
 14  3  1  0  0  0  0
 15  4  1  0  0  0  0
 17 20  1  0  0  0  0
 18 23  1  1  0  0  0
 18 22  1  0  0  0  0
 18 17  1  0  0  0  0
 19 21  1  0  0  0  0
 20 21  1  0  0  0  0
 21 16  2  0  0  0  0
 22 19  2  0  0  0  0
 24 23  1  0  0  0  0
 25 28  2  0  0  0  0
 27 25  1  0  0  0  0
 29 26  1  0  0  0  0
 29 27  1  0  0  0  0
 30 29  2  0  0  0  0
 31 26  1  1  0  0  0
 31 35  1  0  0  0  0
 32 33  1  0  0  0  0
 32 34  1  0  0  0  0
 33 34  1  0  0  0  0
 33 31  1  1  0  0  0
 35 42  1  1  0  0  0
 36 35  1  0  0  0  0
 36 40  1  0  0  0  0
 37 41  1  0  0  0  0
 37 39  2  0  0  0  0
 38 40  2  0  0  0  0
 39 38  1  0  0  0  0
 41 36  2  0  0  0  0
 42 43  1  0  0  0  0
M  END
>  <MODEL>
7

>  <REMARK>
 VINA RESULT:      -7.5      5.378     12.126
  Name = 
  8 active torsions:
  status: ('A' for Active; 'I' for Inactive)
    1  A    between atoms: N_1  and  C_34
    2  A    between atoms: C_2  and  C_13
    3  A    between atoms: N_3  and  C_4
    4  A    between atoms: C_4  and  C_15
    5  A    between atoms: C_4  and  C_22
    6  A    between atoms: C_11  and  C_22
    7  A    between atoms: S_14  and  C_22
    8  A    between atoms: C_19  and  O_25
                            x       y       z     vdW  Elec       q    Type
                         _______ _______ _______ _____ _____    ______ ____

>  <TORSDO>
F 8

$$$$
=
 OpenBabel11052416243D

 43 48  0  0  1  0  0  0  0  0999 V2000
  187.9620  177.9590  147.2230 C   0  0  2  0  0  3  0  0  0  0  0  0
  185.1890  178.7680  142.9220 C   0  0  0  0  0  0  0  0  0  0  0  0
  187.0480  178.6370  140.7110 C   0  0  2  0  0  3  0  0  0  0  0  0
  186.0740  178.2380  145.5780 C   0  0  0  0  0  0  0  0  0  0  0  0
  188.7100  177.2580  146.1030 C   0  0  0  0  0  2  0  0  0  0  0  0
  188.3090  177.3160  148.5480 C   0  0  0  0  0  1  0  0  0  0  0  0
  186.9520  178.2020  144.5520 C   0  0  0  0  0  0  0  0  0  0  0  0
  186.4620  177.8420  146.9770 C   0  0  0  0  0  2  0  0  0  0  0  0
  188.4260  177.9770  144.7870 C   0  0  0  0  0  2  0  0  0  0  0  0
  187.3940  178.2660  142.0780 N   0  0  0  0  0  2  0  0  0  0  0  0
  186.4780  178.4450  143.1680 C   0  0  0  0  0  0  0  0  0  0  0  0
  184.2710  179.1310  144.0600 C   0  0  0  0  0  2  0  0  0  0  0  0
  184.7090  178.9990  141.5020 C   0  0  1  0  0  3  0  0  0  0  0  0
  185.5850  178.3200  140.4450 C   0  0  0  0  0  2  0  0  0  0  0  0
  184.6950  178.5040  145.3090 N   0  0  0  0  0  2  0  0  0  0  0  0
  183.3010  178.6260  141.3300 N   0  0  0  0  0  0  0  0  0  0  0  0
  182.1860  179.5840  137.9270 C   0  0  0  0  0  2  0  0  0  0  0  0
  180.7130  179.7920  138.2720 C   0  0  2  0  0  3  0  0  0  0  0  0
  181.1340  178.4930  140.3350 C   0  0  0  0  0  3  0  0  0  0  0  0
  183.0390  179.7920  139.1790 C   0  0  0  0  0  2  0  0  0  0  0  0
  182.5390  178.9420  140.3240 C   0  0  0  0  0  0  0  0  0  0  0  0
  180.2880  178.8560  139.3700 C   0  0  0  0  0  3  0  0  0  0  0  0
  179.9240  179.5900  137.1390 O   0  0  0  0  0  0  0  0  0  0  0  0
  180.6670  178.7220  136.3390 C   0  0  0  0  0  1  0  0  0  0  0  0
  187.9280  177.9160  139.7460 C   0  0  0  0  0  0  0  0  0  0  0  0
  189.8620  176.7840  137.7600 N   0  0  0  0  0  2  0  0  0  0  0  0
  188.3000  178.5630  138.5250 N   0  0  0  0  0  2  0  0  0  0  0  0
  188.3210  176.7470  140.0070 O   0  0  0  0  0  0  0  0  0  0  0  0
  189.2010  178.0340  137.5470 C   0  0  0  0  0  0  0  0  0  0  0  0
  189.4210  178.6910  136.4960 O   0  0  0  0  0  0  0  0  0  0  0  0
  190.8180  176.2390  136.8050 C   0  0  1  0  0  3  0  0  0  0  0  0
  193.0780  176.7490  137.6170 C   0  0  0  0  0  2  0  0  0  0  0  0
  192.0340  175.7060  137.5420 C   0  0  2  0  0  3  0  0  0  0  0  0
  193.1380  175.7100  136.6710 O   0  0  0  0  0  0  0  0  0  0  0  0
  190.1800  175.1450  135.9400 C   0  0  2  0  0  3  0  0  0  0  0  0
  188.6930  175.3080  135.8320 C   0  0  0  0  0  0  0  0  0  0  0  0
  186.4820  174.7980  136.6890 C   0  0  0  0  0  3  0  0  0  0  0  0
  186.7200  176.1490  134.6920 C   0  0  0  0  0  3  0  0  0  0  0  0
  185.9050  175.5290  135.6460 C   0  0  0  0  0  3  0  0  0  0  0  0
  188.1100  176.0360  134.7830 C   0  0  0  0  0  3  0  0  0  0  0  0
  187.8720  174.6860  136.7800 C   0  0  0  0  0  3  0  0  0  0  0  0
  190.6520  173.4560  136.4540 S   0  0  0  0  0  0  0  0  0  0  0  0
  190.9390  172.9380  134.7370 C   0  0  0  0  0  1  0  0  0  0  0  0
  1  6  1  1  0  0  0
  2 11  2  0  0  0  0
  2 12  1  0  0  0  0
  3 25  1  6  0  0  0
  3 10  1  0  0  0  0
  4  8  1  0  0  0  0
  5  1  1  0  0  0  0
  7  9  1  0  0  0  0
  7  4  2  0  0  0  0
  8  1  1  0  0  0  0
  9  5  1  0  0  0  0
 10 11  1  0  0  0  0
 11  7  1  0  0  0  0
 12 15  1  0  0  0  0
 13 16  1  1  0  0  0
 13  2  1  0  0  0  0
 14  3  1  0  0  0  0
 14 13  1  0  0  0  0
 15  4  1  0  0  0  0
 17 18  1  0  0  0  0
 17 20  1  0  0  0  0
 18 23  1  6  0  0  0
 18 22  1  0  0  0  0
 20 21  1  0  0  0  0
 21 19  1  0  0  0  0
 21 16  2  0  0  0  0
 22 19  2  0  0  0  0
 24 23  1  0  0  0  0
 25 28  2  0  0  0  0
 27 25  1  0  0  0  0
 29 26  1  0  0  0  0
 29 27  1  0  0  0  0
 30 29  2  0  0  0  0
 31 26  1  1  0  0  0
 33 31  1  6  0  0  0
 33 32  1  0  0  0  0
 34 33  1  0  0  0  0
 34 32  1  0  0  0  0
 35 42  1  1  0  0  0
 35 31  1  0  0  0  0
 36 35  1  0  0  0  0
 36 41  1  0  0  0  0
 37 41  2  0  0  0  0
 38 40  1  0  0  0  0
 38 39  2  0  0  0  0
 39 37  1  0  0  0  0
 40 36  2  0  0  0  0
 43 42  1  0  0  0  0
M  END
>  <MODEL>
8

>  <REMARK>
 VINA RESULT:      -7.4      3.035      9.447
  Name = 
  8 active torsions:
  status: ('A' for Active; 'I' for Inactive)
    1  A    between atoms: N_1  and  C_34
    2  A    between atoms: C_2  and  C_13
    3  A    between atoms: N_3  and  C_4
    4  A    between atoms: C_4  and  C_15
    5  A    between atoms: C_4  and  C_22
    6  A    between atoms: C_11  and  C_22
    7  A    between atoms: S_14  and  C_22
    8  A    between atoms: C_19  and  O_25
                            x       y       z     vdW  Elec       q    Type
                         _______ _______ _______ _____ _____    ______ ____

>  <TORSDO>
F 8

$$$$
=
 OpenBabel11052416243D

 43 48  0  0  1  0  0  0  0  0999 V2000
  194.0500  174.9510  135.4630 C   0  0  2  0  0  3  0  0  0  0  0  0
  192.2280  177.0620  139.8300 C   0  0  0  0  0  0  0  0  0  0  0  0
  189.6290  178.1550  139.1900 C   0  0  2  0  0  3  0  0  0  0  0  0
  193.6980  175.6070  137.8710 C   0  0  0  0  0  0  0  0  0  0  0  0
  192.5360  174.9080  135.3520 C   0  0  0  0  0  2  0  0  0  0  0  0
  194.6570  173.8720  134.5940 C   0  0  0  0  0  1  0  0  0  0  0  0
  192.4960  176.1370  137.5590 C   0  0  0  0  0  0  0  0  0  0  0  0
  194.4540  174.7230  136.9160 C   0  0  0  0  0  2  0  0  0  0  0  0
  191.9430  176.0600  136.1560 C   0  0  0  0  0  2  0  0  0  0  0  0
  190.3890  177.3000  138.2850 N   0  0  0  0  0  2  0  0  0  0  0  0
  191.7210  176.8650  138.5930 C   0  0  0  0  0  0  0  0  0  0  0  0
  193.6800  176.7700  140.1060 C   0  0  0  0  0  2  0  0  0  0  0  0
  191.4220  177.7930  140.8870 C   0  0  1  0  0  3  0  0  0  0  0  0
  189.9120  177.7620  140.6310 C   0  0  0  0  0  2  0  0  0  0  0  0
  194.2010  175.7490  139.2020 N   0  0  0  0  0  2  0  0  0  0  0  0
  191.7320  177.3180  142.2390 N   0  0  0  0  0  0  0  0  0  0  0  0
  188.7070  177.6130  144.3620 C   0  0  0  0  0  2  0  0  0  0  0  0
  189.4360  177.7950  145.6920 C   0  0  2  0  0  3  0  0  0  0  0  0
  191.4520  176.8960  144.5730 C   0  0  0  0  0  3  0  0  0  0  0  0
  189.6050  178.0800  143.2170 C   0  0  0  0  0  2  0  0  0  0  0  0
  190.9600  177.4130  143.2830 C   0  0  0  0  0  0  0  0  0  0  0  0
  190.7370  177.0400  145.6900 C   0  0  0  0  0  3  0  0  0  0  0  0
  188.6300  177.3570  146.7430 O   0  0  0  0  0  0  0  0  0  0  0  0
  189.2840  177.7910  147.8960 C   0  0  0  0  0  1  0  0  0  0  0  0
  188.1700  178.0480  138.8920 C   0  0  0  0  0  0  0  0  0  0  0  0
  185.3350  177.5810  138.0500 N   0  0  0  0  0  2  0  0  0  0  0  0
  187.7460  177.9130  137.5310 N   0  0  0  0  0  2  0  0  0  0  0  0
  187.3320  178.0900  139.8330 O   0  0  0  0  0  0  0  0  0  0  0  0
  186.3960  177.7150  137.1010 C   0  0  0  0  0  0  0  0  0  0  0  0
  186.1500  177.6440  135.8680 O   0  0  0  0  0  0  0  0  0  0  0  0
  183.9570  177.3360  137.6440 C   0  0  1  0  0  3  0  0  0  0  0  0
  183.3460  175.5390  136.0860 C   0  0  0  0  0  2  0  0  0  0  0  0
  183.7280  175.8440  137.4810 C   0  0  2  0  0  3  0  0  0  0  0  0
  182.3890  175.6220  137.1140 O   0  0  0  0  0  0  0  0  0  0  0  0
  182.9650  177.9350  138.6490 C   0  0  2  0  0  3  0  0  0  0  0  0
  182.2300  179.1120  138.0800 C   0  0  0  0  0  0  0  0  0  0  0  0
  181.7480  181.4880  138.1470 C   0  0  0  0  0  3  0  0  0  0  0  0
  180.6190  180.0740  136.5380 C   0  0  0  0  0  3  0  0  0  0  0  0
  180.8380  181.3370  137.0970 C   0  0  0  0  0  3  0  0  0  0  0  0
  181.3100  178.9630  137.0290 C   0  0  0  0  0  3  0  0  0  0  0  0
  182.4410  180.3780  138.6380 C   0  0  0  0  0  3  0  0  0  0  0  0
  183.7220  178.3130  140.2690 S   0  0  0  0  0  0  0  0  0  0  0  0
  182.1690  177.9830  141.1500 C   0  0  0  0  0  1  0  0  0  0  0  0
  1  6  1  6  0  0  0
  1  8  1  0  0  0  0
  2 12  1  0  0  0  0
  2 13  1  0  0  0  0
  3 25  1  6  0  0  0
  3 14  1  0  0  0  0
  4 15  1  0  0  0  0
  5  1  1  0  0  0  0
  5  9  1  0  0  0  0
  7  4  2  0  0  0  0
  7 11  1  0  0  0  0
  8  4  1  0  0  0  0
  9  7  1  0  0  0  0
 10 11  1  0  0  0  0
 10  3  1  0  0  0  0
 11  2  2  0  0  0  0
 13 16  1  1  0  0  0
 14 13  1  0  0  0  0
 15 12  1  0  0  0  0
 16 21  2  0  0  0  0
 17 18  1  0  0  0  0
 18 23  1  1  0  0  0
 19 22  2  0  0  0  0
 20 21  1  0  0  0  0
 20 17  1  0  0  0  0
 21 19  1  0  0  0  0
 22 18  1  0  0  0  0
 23 24  1  0  0  0  0
 25 28  2  0  0  0  0
 27 25  1  0  0  0  0
 29 27  1  0  0  0  0
 29 26  1  0  0  0  0
 30 29  2  0  0  0  0
 31 26  1  1  0  0  0
 31 35  1  0  0  0  0
 32 34  1  0  0  0  0
 32 33  1  0  0  0  0
 33 31  1  6  0  0  0
 34 33  1  0  0  0  0
 35 42  1  1  0  0  0
 36 41  1  0  0  0  0
 36 35  1  0  0  0  0
 37 41  2  0  0  0  0
 38 40  1  0  0  0  0
 38 39  2  0  0  0  0
 39 37  1  0  0  0  0
 40 36  2  0  0  0  0
 42 43  1  0  0  0  0
M  END
>  <MODEL>
9

>  <REMARK>
 VINA RESULT:      -7.3      2.542      3.961
  Name = 
  8 active torsions:
  status: ('A' for Active; 'I' for Inactive)
    1  A    between atoms: N_1  and  C_34
    2  A    between atoms: C_2  and  C_13
    3  A    between atoms: N_3  and  C_4
    4  A    between atoms: C_4  and  C_15
    5  A    between atoms: C_4  and  C_22
    6  A    between atoms: C_11  and  C_22
    7  A    between atoms: S_14  and  C_22
    8  A    between atoms: C_19  and  O_25
                            x       y       z     vdW  Elec       q    Type
                         _______ _______ _______ _____ _____    ______ ____

>  <TORSDO>
F 8

$$$$
