=
 OpenBabel11052413493D

 27 31  0  0  0  0  0  0  0  0999 V2000
  187.1310  178.2230  141.7050 C   0  0  0  0  0  0  0  0  0  0  0  0
  187.4290  177.8060  144.1420 C   0  0  0  0  0  0  0  0  0  0  0  0
  189.2940  177.5750  142.6000 O   0  0  0  0  0  0  0  0  0  0  0  0
  189.9060  176.7930  147.3610 C   0  0  0  0  0  3  0  0  0  0  0  0
  192.0450  176.1640  148.1980 F   0  0  0  0  0  0  0  0  0  0  0  0
  186.9510  177.7610  145.4610 C   0  0  0  0  0  3  0  0  0  0  0  0
  190.9750  176.8690  144.7710 C   0  0  0  0  0  3  0  0  0  0  0  0
  191.7880  176.5300  145.8570 C   0  0  0  0  0  3  0  0  0  0  0  0
  189.6220  177.1710  144.9750 C   0  0  0  0  0  0  0  0  0  0  0  0
  186.5680  178.1700  143.0370 N   0  0  0  0  0  0  0  0  0  0  0  0
  191.2540  176.4920  147.1500 C   0  0  0  0  0  0  0  0  0  0  0  0
  189.0860  177.1330  146.2800 C   0  0  0  0  0  0  0  0  0  0  0  0
  186.3530  178.5490  140.5850 C   0  0  0  0  0  3  0  0  0  0  0  0
  188.7860  177.5140  143.9040 C   0  0  0  0  0  0  0  0  0  0  0  0
  189.0400  177.9600  140.2310 C   0  0  0  0  0  3  0  0  0  0  0  0
  187.7770  177.4280  146.4870 N   0  0  0  0  0  0  0  0  0  0  0  0
  188.2250  178.2910  139.1460 C   0  0  0  0  0  0  0  0  0  0  0  0
  186.9100  178.5790  139.3450 N   0  0  0  0  0  0  0  0  0  0  0  0
  188.4890  177.9210  141.5120 C   0  0  0  0  0  0  0  0  0  0  0  0
  182.4680  179.0570  143.6830 C   0  0  0  0  0  3  0  0  0  0  0  0
  185.1770  178.4720  143.2570 C   0  0  0  0  0  0  0  0  0  0  0  0
  184.2290  178.2000  142.2600 C   0  0  0  0  0  3  0  0  0  0  0  0
  182.8790  178.4920  142.4730 C   0  0  0  0  0  3  0  0  0  0  0  0
  183.4080  179.3290  144.6820 C   0  0  0  0  0  3  0  0  0  0  0  0
  184.7590  179.0370  144.4700 C   0  0  0  0  0  3  0  0  0  0  0  0
  188.8020  178.3610  137.7780 C   0  0  0  0  0  2  0  0  0  0  0  0
  189.0320  179.6920  137.4330 O   0  0  0  0  0  1  0  0  0  0  0  0
  1 10  1  0  0  0  0
  2  6  1  0  0  0  0
  3 14  1  0  0  0  0
  6 16  2  0  0  0  0
  7  9  2  0  0  0  0
  7  8  1  0  0  0  0
  8 11  2  0  0  0  0
  9 12  1  0  0  0  0
 10 21  1  0  0  0  0
 10  2  1  0  0  0  0
 11  4  1  0  0  0  0
 11  5  1  0  0  0  0
 12 16  1  0  0  0  0
 12  4  2  0  0  0  0
 13  1  2  0  0  0  0
 14  2  2  0  0  0  0
 14  9  1  0  0  0  0
 15 19  2  0  0  0  0
 17 18  2  0  0  0  0
 17 15  1  0  0  0  0
 18 13  1  0  0  0  0
 19  1  1  0  0  0  0
 19  3  1  0  0  0  0
 20 24  1  0  0  0  0
 21 25  1  0  0  0  0
 22 23  1  0  0  0  0
 22 21  2  0  0  0  0
 23 20  2  0  0  0  0
 25 24  2  0  0  0  0
 26 17  1  0  0  0  0
 27 26  1  0  0  0  0
M  END
>  <MODEL>
1

>  <REMARK>
 VINA RESULT:     -11.1      0.000      0.000
  Name = 
  2 active torsions:
  status: ('A' for Active; 'I' for Inactive)
    1  A    between atoms: C_9  and  N_15
    2  A    between atoms: C_10  and  CA_22
                            x       y       z     vdW  Elec       q    Type
                         _______ _______ _______ _____ _____    ______ ____

>  <TORSDO>
F 2

$$$$
=
 OpenBabel11052413493D

 27 31  0  0  0  0  0  0  0  0999 V2000
  189.2270  177.1610  145.2050 C   0  0  0  0  0  0  0  0  0  0  0  0
  188.2970  177.7230  142.9650 C   0  0  0  0  0  0  0  0  0  0  0  0
  190.5690  176.8920  143.1990 O   0  0  0  0  0  0  0  0  0  0  0  0
  188.7590  177.9460  138.8100 C   0  0  0  0  0  3  0  0  0  0  0  0
  190.1080  177.6630  136.8670 F   0  0  0  0  0  0  0  0  0  0  0  0
  187.2580  178.1510  142.1240 C   0  0  0  0  0  3  0  0  0  0  0  0
  190.8980  177.0580  140.3880 C   0  0  0  0  0  3  0  0  0  0  0  0
  191.0370  177.1410  138.9990 C   0  0  0  0  0  3  0  0  0  0  0  0
  189.6890  177.4200  140.9960 C   0  0  0  0  0  0  0  0  0  0  0  0
  188.1240  177.6370  144.3980 N   0  0  0  0  0  0  0  0  0  0  0  0
  189.9690  177.5840  138.2120 C   0  0  0  0  0  0  0  0  0  0  0  0
  188.6130  177.8660  140.1980 C   0  0  0  0  0  0  0  0  0  0  0  0
  189.1380  177.0700  146.6020 C   0  0  0  0  0  3  0  0  0  0  0  0
  189.5240  177.3450  142.3850 C   0  0  0  0  0  0  0  0  0  0  0  0
  191.5080  176.3480  145.3550 C   0  0  0  0  0  3  0  0  0  0  0  0
  187.4350  178.2150  140.7780 N   0  0  0  0  0  0  0  0  0  0  0  0
  191.3700  176.2740  146.7430 C   0  0  0  0  0  0  0  0  0  0  0  0
  190.1970  176.6310  147.3320 N   0  0  0  0  0  0  0  0  0  0  0  0
  190.4350  176.7990  144.5860 C   0  0  0  0  0  0  0  0  0  0  0  0
  184.4520  178.7570  146.2100 C   0  0  0  0  0  3  0  0  0  0  0  0
  186.8780  178.0180  145.0130 C   0  0  0  0  0  0  0  0  0  0  0  0
  185.7200  178.1620  144.2350 C   0  0  0  0  0  3  0  0  0  0  0  0
  184.5110  178.5300  144.8320 C   0  0  0  0  0  3  0  0  0  0  0  0
  185.6020  178.6140  146.9910 C   0  0  0  0  0  3  0  0  0  0  0  0
  186.8120  178.2450  146.3960 C   0  0  0  0  0  3  0  0  0  0  0  0
  192.4970  175.7720  147.5750 C   0  0  0  0  0  2  0  0  0  0  0  0
  192.7730  176.6860  148.5910 O   0  0  0  0  0  1  0  0  0  0  0  0
  1 13  1  0  0  0  0
  2 10  1  0  0  0  0
  3 19  1  0  0  0  0
  4 12  1  0  0  0  0
  5 11  1  0  0  0  0
  6  2  2  0  0  0  0
  7  9  1  0  0  0  0
  8  7  2  0  0  0  0
  9 14  2  0  0  0  0
 10 21  1  0  0  0  0
 10  1  1  0  0  0  0
 11  4  2  0  0  0  0
 11  8  1  0  0  0  0
 12 16  2  0  0  0  0
 12  9  1  0  0  0  0
 13 18  2  0  0  0  0
 14  2  1  0  0  0  0
 14  3  1  0  0  0  0
 15 17  2  0  0  0  0
 16  6  1  0  0  0  0
 17 18  1  0  0  0  0
 17 26  1  0  0  0  0
 19  1  2  0  0  0  0
 19 15  1  0  0  0  0
 20 24  1  0  0  0  0
 21 25  1  0  0  0  0
 22 23  1  0  0  0  0
 22 21  2  0  0  0  0
 23 20  2  0  0  0  0
 25 24  2  0  0  0  0
 26 27  1  0  0  0  0
M  END
>  <MODEL>
2

>  <REMARK>
 VINA RESULT:     -10.3      2.936      6.230
  Name = 
  2 active torsions:
  status: ('A' for Active; 'I' for Inactive)
    1  A    between atoms: C_9  and  N_15
    2  A    between atoms: C_10  and  CA_22
                            x       y       z     vdW  Elec       q    Type
                         _______ _______ _______ _____ _____    ______ ____

>  <TORSDO>
F 2

$$$$
=
 OpenBabel11052413493D

 27 31  0  0  0  0  0  0  0  0999 V2000
  190.0800  177.0440  144.2600 C   0  0  0  0  0  0  0  0  0  0  0  0
  188.0600  177.7350  142.9790 C   0  0  0  0  0  0  0  0  0  0  0  0
  188.0000  177.5580  145.4030 O   0  0  0  0  0  0  0  0  0  0  0  0
  184.0530  178.9480  142.9250 C   0  0  0  0  0  3  0  0  0  0  0  0
  182.0340  179.4470  144.0850 F   0  0  0  0  0  0  0  0  0  0  0  0
  187.3960  178.0510  141.7840 C   0  0  0  0  0  3  0  0  0  0  0  0
  185.2800  178.3600  145.3750 C   0  0  0  0  0  3  0  0  0  0  0  0
  183.9420  178.7630  145.3390 C   0  0  0  0  0  3  0  0  0  0  0  0
  186.0120  178.2470  144.1850 C   0  0  0  0  0  0  0  0  0  0  0  0
  189.4480  177.3290  142.9900 N   0  0  0  0  0  0  0  0  0  0  0  0
  183.3300  179.0560  144.1150 C   0  0  0  0  0  0  0  0  0  0  0  0
  185.3920  178.5440  142.9520 C   0  0  0  0  0  0  0  0  0  0  0  0
  191.4170  176.6270  144.3450 C   0  0  0  0  0  3  0  0  0  0  0  0
  187.3550  177.8450  144.1940 C   0  0  0  0  0  0  0  0  0  0  0  0
  189.9350  176.8800  146.6760 C   0  0  0  0  0  3  0  0  0  0  0  0
  186.0940  178.4410  141.7950 N   0  0  0  0  0  0  0  0  0  0  0  0
  191.2700  176.4690  146.7100 C   0  0  0  0  0  0  0  0  0  0  0  0
  191.9770  176.3550  145.5540 N   0  0  0  0  0  0  0  0  0  0  0  0
  189.3390  177.1620  145.4470 C   0  0  0  0  0  0  0  0  0  0  0  0
  191.6290  176.9790  139.3660 C   0  0  0  0  0  3  0  0  0  0  0  0
  190.1890  177.2100  141.7610 C   0  0  0  0  0  0  0  0  0  0  0  0
  189.6000  176.6150  140.6350 C   0  0  0  0  0  3  0  0  0  0  0  0
  190.3190  176.5000  139.4420 C   0  0  0  0  0  3  0  0  0  0  0  0
  192.2220  177.5740  140.4830 C   0  0  0  0  0  3  0  0  0  0  0  0
  191.5040  177.6900  141.6780 C   0  0  0  0  0  3  0  0  0  0  0  0
  191.9270  176.1880  148.0140 C   0  0  0  0  0  2  0  0  0  0  0  0
  193.1320  175.5220  147.7990 O   0  0  0  0  0  1  0  0  0  0  0  0
  1 13  2  0  0  0  0
  1 19  1  0  0  0  0
  2 10  1  0  0  0  0
  2 14  1  0  0  0  0
  3 19  1  0  0  0  0
  4 12  1  0  0  0  0
  4 11  2  0  0  0  0
  5 11  1  0  0  0  0
  6 16  1  0  0  0  0
  6  2  2  0  0  0  0
  8  7  2  0  0  0  0
  9 14  2  0  0  0  0
  9  7  1  0  0  0  0
 10  1  1  0  0  0  0
 11  8  1  0  0  0  0
 12  9  1  0  0  0  0
 13 18  1  0  0  0  0
 14  3  1  0  0  0  0
 15 17  1  0  0  0  0
 16 12  2  0  0  0  0
 17 26  1  0  0  0  0
 18 17  2  0  0  0  0
 19 15  2  0  0  0  0
 20 23  2  0  0  0  0
 20 24  1  0  0  0  0
 21 10  1  0  0  0  0
 22 21  2  0  0  0  0
 23 22  1  0  0  0  0
 24 25  2  0  0  0  0
 25 21  1  0  0  0  0
 27 26  1  0  0  0  0
M  END
>  <MODEL>
3

>  <REMARK>
 VINA RESULT:     -10.2      3.128      7.156
  Name = 
  2 active torsions:
  status: ('A' for Active; 'I' for Inactive)
    1  A    between atoms: C_9  and  N_15
    2  A    between atoms: C_10  and  CA_22
                            x       y       z     vdW  Elec       q    Type
                         _______ _______ _______ _____ _____    ______ ____

>  <TORSDO>
F 2

$$$$
=
 OpenBabel11052413493D

 27 31  0  0  0  0  0  0  0  0999 V2000
  188.9720  177.2760  144.8310 C   0  0  0  0  0  0  0  0  0  0  0  0
  188.0280  177.8350  142.5960 C   0  0  0  0  0  0  0  0  0  0  0  0
  190.3120  177.0330  142.8200 O   0  0  0  0  0  0  0  0  0  0  0  0
  188.4760  178.0820  138.4410 C   0  0  0  0  0  3  0  0  0  0  0  0
  189.8230  177.8260  136.4930 F   0  0  0  0  0  0  0  0  0  0  0  0
  186.9810  178.2530  141.7600 C   0  0  0  0  0  3  0  0  0  0  0  0
  190.6310  177.2160  140.0090 C   0  0  0  0  0  3  0  0  0  0  0  0
  190.7650  177.3070  138.6200 C   0  0  0  0  0  3  0  0  0  0  0  0
  189.4190  177.5590  140.6210 C   0  0  0  0  0  0  0  0  0  0  0  0
  187.8600  177.7400  144.0290 N   0  0  0  0  0  0  0  0  0  0  0  0
  189.6890  177.7400  137.8370 C   0  0  0  0  0  0  0  0  0  0  0  0
  188.3340  177.9940  139.8290 C   0  0  0  0  0  0  0  0  0  0  0  0
  188.8880  177.1780  146.2280 C   0  0  0  0  0  3  0  0  0  0  0  0
  189.2580  177.4760  142.0110 C   0  0  0  0  0  0  0  0  0  0  0  0
  191.2640  176.4930  144.9710 C   0  0  0  0  0  3  0  0  0  0  0  0
  187.1540  178.3250  140.4140 N   0  0  0  0  0  0  0  0  0  0  0  0
  191.1310  176.4100  146.3590 C   0  0  0  0  0  0  0  0  0  0  0  0
  189.9550  176.7490  146.9530 N   0  0  0  0  0  0  0  0  0  0  0  0
  190.1830  176.9320  144.2070 C   0  0  0  0  0  0  0  0  0  0  0  0
  184.1810  178.8080  145.8570 C   0  0  0  0  0  3  0  0  0  0  0  0
  186.6110  178.1010  144.6490 C   0  0  0  0  0  0  0  0  0  0  0  0
  186.5380  178.2830  146.0380 C   0  0  0  0  0  3  0  0  0  0  0  0
  185.3260  178.6350  146.6400 C   0  0  0  0  0  3  0  0  0  0  0  0
  184.2470  178.6290  144.4720 C   0  0  0  0  0  3  0  0  0  0  0  0
  185.4590  178.2780  143.8690 C   0  0  0  0  0  3  0  0  0  0  0  0
  192.2670  175.9210  147.1850 C   0  0  0  0  0  2  0  0  0  0  0  0
  192.4330  176.7500  148.2940 O   0  0  0  0  0  1  0  0  0  0  0  0
  1 13  1  0  0  0  0
  2 10  1  0  0  0  0
  3 19  1  0  0  0  0
  4 12  1  0  0  0  0
  5 11  1  0  0  0  0
  6  2  2  0  0  0  0
  7  9  1  0  0  0  0
  8  7  2  0  0  0  0
  9 14  2  0  0  0  0
 10 21  1  0  0  0  0
 10  1  1  0  0  0  0
 11  4  2  0  0  0  0
 11  8  1  0  0  0  0
 12 16  2  0  0  0  0
 12  9  1  0  0  0  0
 13 18  2  0  0  0  0
 14  2  1  0  0  0  0
 14  3  1  0  0  0  0
 15 17  2  0  0  0  0
 16  6  1  0  0  0  0
 17 18  1  0  0  0  0
 17 26  1  0  0  0  0
 19  1  2  0  0  0  0
 19 15  1  0  0  0  0
 20 23  1  0  0  0  0
 21 22  1  0  0  0  0
 22 23  2  0  0  0  0
 24 20  2  0  0  0  0
 25 24  1  0  0  0  0
 25 21  2  0  0  0  0
 26 27  1  0  0  0  0
M  END
>  <MODEL>
4

>  <REMARK>
 VINA RESULT:     -10.1      2.893      6.242
  Name = 
  2 active torsions:
  status: ('A' for Active; 'I' for Inactive)
    1  A    between atoms: C_9  and  N_15
    2  A    between atoms: C_10  and  CA_22
                            x       y       z     vdW  Elec       q    Type
                         _______ _______ _______ _____ _____    ______ ____

>  <TORSDO>
F 2

$$$$
=
 OpenBabel11052413493D

 27 31  0  0  0  0  0  0  0  0999 V2000
  188.4690  177.9260  140.6630 C   0  0  0  0  0  0  0  0  0  0  0  0
  187.0420  178.0540  142.6990 C   0  0  0  0  0  0  0  0  0  0  0  0
  186.0910  178.3820  140.4860 O   0  0  0  0  0  0  0  0  0  0  0  0
  183.2770  178.5980  144.4470 C   0  0  0  0  0  3  0  0  0  0  0  0
  180.9480  179.0440  144.2300 F   0  0  0  0  0  0  0  0  0  0  0  0
  186.8490  177.9690  144.0860 C   0  0  0  0  0  3  0  0  0  0  0  0
  183.5400  178.7720  141.6630 C   0  0  0  0  0  3  0  0  0  0  0  0
  182.2900  178.9540  142.2630 C   0  0  0  0  0  3  0  0  0  0  0  0
  184.6660  178.5030  142.4520 C   0  0  0  0  0  0  0  0  0  0  0  0
  188.3440  177.8520  142.1020 N   0  0  0  0  0  0  0  0  0  0  0  0
  182.1600  178.8680  143.6530 C   0  0  0  0  0  0  0  0  0  0  0  0
  184.5310  178.4160  143.8550 C   0  0  0  0  0  0  0  0  0  0  0  0
  189.7030  177.7600  140.0170 C   0  0  0  0  0  3  0  0  0  0  0  0
  185.9300  178.3160  141.8760 C   0  0  0  0  0  0  0  0  0  0  0  0
  187.4450  178.2770  138.4920 C   0  0  0  0  0  3  0  0  0  0  0  0
  185.6150  178.1510  144.6280 N   0  0  0  0  0  0  0  0  0  0  0  0
  188.6960  178.1030  137.8940 C   0  0  0  0  0  0  0  0  0  0  0  0
  189.7890  177.8470  138.6620 N   0  0  0  0  0  0  0  0  0  0  0  0
  187.3340  178.1930  139.8790 C   0  0  0  0  0  0  0  0  0  0  0  0
  191.7400  177.0580  144.5220 C   0  0  0  0  0  3  0  0  0  0  0  0
  189.4960  177.5830  142.9240 C   0  0  0  0  0  0  0  0  0  0  0  0
  189.9100  176.2620  143.1510 C   0  0  0  0  0  3  0  0  0  0  0  0
  191.0290  176.0010  143.9470 C   0  0  0  0  0  3  0  0  0  0  0  0
  191.3340  178.3770  144.2990 C   0  0  0  0  0  3  0  0  0  0  0  0
  190.2150  178.6400  143.5020 C   0  0  0  0  0  3  0  0  0  0  0  0
  188.8260  178.1640  136.4140 C   0  0  0  0  0  2  0  0  0  0  0  0
  187.5600  178.2030  135.8320 O   0  0  0  0  0  1  0  0  0  0  0  0
  1 10  1  0  0  0  0
  2  6  1  0  0  0  0
  3 14  1  0  0  0  0
  6 16  2  0  0  0  0
  7  8  2  0  0  0  0
  7  9  1  0  0  0  0
  8 11  1  0  0  0  0
  9 12  2  0  0  0  0
 10  2  1  0  0  0  0
 10 21  1  0  0  0  0
 11  5  1  0  0  0  0
 11  4  2  0  0  0  0
 12  4  1  0  0  0  0
 12 16  1  0  0  0  0
 13  1  1  0  0  0  0
 14  9  1  0  0  0  0
 14  2  2  0  0  0  0
 15 19  1  0  0  0  0
 17 15  2  0  0  0  0
 17 18  1  0  0  0  0
 18 13  2  0  0  0  0
 19  3  1  0  0  0  0
 19  1  2  0  0  0  0
 21 22  2  0  0  0  0
 21 25  1  0  0  0  0
 22 23  1  0  0  0  0
 23 20  2  0  0  0  0
 24 20  1  0  0  0  0
 25 24  2  0  0  0  0
 26 17  1  0  0  0  0
 27 26  1  0  0  0  0
M  END
>  <MODEL>
5

>  <REMARK>
 VINA RESULT:     -10.1      2.975      5.928
  Name = 
  2 active torsions:
  status: ('A' for Active; 'I' for Inactive)
    1  A    between atoms: C_9  and  N_15
    2  A    between atoms: C_10  and  CA_22
                            x       y       z     vdW  Elec       q    Type
                         _______ _______ _______ _____ _____    ______ ____

>  <TORSDO>
F 2

$$$$
=
 OpenBabel11052413493D

 27 31  0  0  0  0  0  0  0  0999 V2000
  188.2720  177.8370  140.4690 C   0  0  0  0  0  0  0  0  0  0  0  0
  189.5900  177.3750  142.5310 C   0  0  0  0  0  0  0  0  0  0  0  0
  187.2630  178.0670  142.6660 O   0  0  0  0  0  0  0  0  0  0  0  0
  189.8070  177.1320  146.7040 C   0  0  0  0  0  3  0  0  0  0  0  0
  188.7780  177.3650  148.8400 F   0  0  0  0  0  0  0  0  0  0  0  0
  190.7620  176.9760  143.1910 C   0  0  0  0  0  3  0  0  0  0  0  0
  187.4060  177.9240  145.4940 C   0  0  0  0  0  3  0  0  0  0  0  0
  187.4960  177.8400  146.8870 C   0  0  0  0  0  3  0  0  0  0  0  0
  188.5170  177.6130  144.6990 C   0  0  0  0  0  0  0  0  0  0  0  0
  189.5200  177.4440  141.0870 N   0  0  0  0  0  0  0  0  0  0  0  0
  188.6950  177.4450  147.4910 C   0  0  0  0  0  0  0  0  0  0  0  0
  189.7250  177.2140  145.3110 C   0  0  0  0  0  0  0  0  0  0  0  0
  188.1370  177.9440  139.0770 C   0  0  0  0  0  3  0  0  0  0  0  0
  188.4530  177.6880  143.3010 C   0  0  0  0  0  0  0  0  0  0  0  0
  185.9590  178.5340  140.6900 C   0  0  0  0  0  3  0  0  0  0  0  0
  190.8050  176.9070  144.5480 N   0  0  0  0  0  0  0  0  0  0  0  0
  185.8730  178.6250  139.2980 C   0  0  0  0  0  0  0  0  0  0  0  0
  186.9530  178.3280  138.5280 N   0  0  0  0  0  0  0  0  0  0  0  0
  187.1640  178.1440  141.2750 C   0  0  0  0  0  0  0  0  0  0  0  0
  192.9080  176.5160  138.7040 C   0  0  0  0  0  3  0  0  0  0  0  0
  190.6700  177.1280  140.2800 C   0  0  0  0  0  0  0  0  0  0  0  0
  190.5300  176.3430  139.1260 C   0  0  0  0  0  3  0  0  0  0  0  0
  191.6450  176.0380  138.3410 C   0  0  0  0  0  3  0  0  0  0  0  0
  193.0540  177.3000  139.8520 C   0  0  0  0  0  3  0  0  0  0  0  0
  191.9390  177.6070  140.6380 C   0  0  0  0  0  3  0  0  0  0  0  0
  184.5880  179.0150  138.6580 C   0  0  0  0  0  2  0  0  0  0  0  0
  184.2140  180.2850  139.0930 O   0  0  0  0  0  1  0  0  0  0  0  0
  1 10  1  0  0  0  0
  1 19  1  0  0  0  0
  2  6  2  0  0  0  0
  2 14  1  0  0  0  0
  3 14  1  0  0  0  0
  4 11  2  0  0  0  0
  6 16  1  0  0  0  0
  7  8  2  0  0  0  0
  8 11  1  0  0  0  0
  9 12  1  0  0  0  0
  9  7  1  0  0  0  0
 10  2  1  0  0  0  0
 11  5  1  0  0  0  0
 12  4  1  0  0  0  0
 13  1  2  0  0  0  0
 14  9  2  0  0  0  0
 15 19  2  0  0  0  0
 16 12  2  0  0  0  0
 17 15  1  0  0  0  0
 18 13  1  0  0  0  0
 18 17  2  0  0  0  0
 19  3  1  0  0  0  0
 20 24  1  0  0  0  0
 21 25  1  0  0  0  0
 21 10  1  0  0  0  0
 22 21  2  0  0  0  0
 23 20  2  0  0  0  0
 23 22  1  0  0  0  0
 24 25  2  0  0  0  0
 26 27  1  0  0  0  0
 26 17  1  0  0  0  0
M  END
>  <MODEL>
6

>  <REMARK>
 VINA RESULT:     -10.1      2.456      5.139
  Name = 
  2 active torsions:
  status: ('A' for Active; 'I' for Inactive)
    1  A    between atoms: C_9  and  N_15
    2  A    between atoms: C_10  and  CA_22
                            x       y       z     vdW  Elec       q    Type
                         _______ _______ _______ _____ _____    ______ ____

>  <TORSDO>
F 2

$$$$
=
 OpenBabel11052413493D

 27 31  0  0  0  0  0  0  0  0999 V2000
  186.7810  178.1120  141.8060 C   0  0  0  0  0  0  0  0  0  0  0  0
  189.0650  177.5240  142.6030 C   0  0  0  0  0  0  0  0  0  0  0  0
  187.2350  177.8270  144.1750 O   0  0  0  0  0  0  0  0  0  0  0  0
  191.6810  176.6390  145.7500 C   0  0  0  0  0  3  0  0  0  0  0  0
  192.0830  176.3640  148.0820 F   0  0  0  0  0  0  0  0  0  0  0  0
  190.4130  177.2030  142.3800 C   0  0  0  0  0  3  0  0  0  0  0  0
  189.0040  177.2480  146.3150 C   0  0  0  0  0  3  0  0  0  0  0  0
  189.8910  176.9530  147.3540 C   0  0  0  0  0  3  0  0  0  0  0  0
  189.4510  177.2410  144.9870 C   0  0  0  0  0  0  0  0  0  0  0  0
  188.1660  177.8150  141.5090 N   0  0  0  0  0  0  0  0  0  0  0  0
  191.2270  176.6500  147.0720 C   0  0  0  0  0  0  0  0  0  0  0  0
  190.7990  176.9340  144.7050 C   0  0  0  0  0  0  0  0  0  0  0  0
  185.8570  178.4230  140.7980 C   0  0  0  0  0  3  0  0  0  0  0  0
  188.5820  177.5330  143.9260 C   0  0  0  0  0  0  0  0  0  0  0  0
  185.0120  178.4090  143.4390 C   0  0  0  0  0  3  0  0  0  0  0  0
  191.2410  176.9210  143.4210 N   0  0  0  0  0  0  0  0  0  0  0  0
  184.1280  178.7110  142.4000 C   0  0  0  0  0  0  0  0  0  0  0  0
  184.5650  178.7090  141.1120 N   0  0  0  0  0  0  0  0  0  0  0  0
  186.3420  178.1140  143.1410 C   0  0  0  0  0  0  0  0  0  0  0  0
  189.5540  177.8050  137.4980 C   0  0  0  0  0  3  0  0  0  0  0  0
  188.6370  177.8120  140.1480 C   0  0  0  0  0  0  0  0  0  0  0  0
  189.0560  176.6160  139.5470 C   0  0  0  0  0  3  0  0  0  0  0  0
  189.5120  176.6130  138.2260 C   0  0  0  0  0  3  0  0  0  0  0  0
  189.1380  179.0010  138.0900 C   0  0  0  0  0  3  0  0  0  0  0  0
  188.6800  179.0060  139.4120 C   0  0  0  0  0  3  0  0  0  0  0  0
  182.7010  179.0030  142.7010 C   0  0  0  0  0  2  0  0  0  0  0  0
  182.4450  178.7550  144.0480 O   0  0  0  0  0  1  0  0  0  0  0  0
  1 19  1  0  0  0  0
  2 14  1  0  0  0  0
  4 11  2  0  0  0  0
  6  2  2  0  0  0  0
  6 16  1  0  0  0  0
  7  8  2  0  0  0  0
  9  7  1  0  0  0  0
 10  1  1  0  0  0  0
 10  2  1  0  0  0  0
 11  8  1  0  0  0  0
 11  5  1  0  0  0  0
 12  9  1  0  0  0  0
 12  4  1  0  0  0  0
 13 18  1  0  0  0  0
 13  1  2  0  0  0  0
 14  3  1  0  0  0  0
 14  9  2  0  0  0  0
 16 12  2  0  0  0  0
 17 26  1  0  0  0  0
 17 15  1  0  0  0  0
 18 17  2  0  0  0  0
 19 15  2  0  0  0  0
 19  3  1  0  0  0  0
 20 24  2  0  0  0  0
 20 23  1  0  0  0  0
 21 10  1  0  0  0  0
 22 21  1  0  0  0  0
 23 22  2  0  0  0  0
 24 25  1  0  0  0  0
 25 21  2  0  0  0  0
 26 27  1  0  0  0  0
M  END
>  <MODEL>
7

>  <REMARK>
 VINA RESULT:     -10.0      2.025      4.842
  Name = 
  2 active torsions:
  status: ('A' for Active; 'I' for Inactive)
    1  A    between atoms: C_9  and  N_15
    2  A    between atoms: C_10  and  CA_22
                            x       y       z     vdW  Elec       q    Type
                         _______ _______ _______ _____ _____    ______ ____

>  <TORSDO>
F 2

$$$$
=
 OpenBabel11052413493D

 27 31  0  0  0  0  0  0  0  0999 V2000
  189.3620  177.3300  142.9800 C   0  0  0  0  0  0  0  0  0  0  0  0
  187.4210  177.8120  144.4640 C   0  0  0  0  0  0  0  0  0  0  0  0
  187.1900  177.8820  142.0450 O   0  0  0  0  0  0  0  0  0  0  0  0
  183.3760  178.7870  144.9240 C   0  0  0  0  0  3  0  0  0  0  0  0
  181.2610  179.3200  143.9650 F   0  0  0  0  0  0  0  0  0  0  0  0
  186.8250  177.9280  145.7290 C   0  0  0  0  0  3  0  0  0  0  0  0
  184.4540  178.5630  142.3460 C   0  0  0  0  0  3  0  0  0  0  0  0
  183.1050  178.8900  142.5180 C   0  0  0  0  0  3  0  0  0  0  0  0
  185.2710  178.3460  143.4640 C   0  0  0  0  0  0  0  0  0  0  0  0
  188.8160  177.4610  144.3140 N   0  0  0  0  0  0  0  0  0  0  0  0
  182.5670  179.0030  143.8040 C   0  0  0  0  0  0  0  0  0  0  0  0
  184.7260  178.4600  144.7610 C   0  0  0  0  0  0  0  0  0  0  0  0
  190.7100  177.0130  142.7590 C   0  0  0  0  0  3  0  0  0  0  0  0
  186.6260  178.0160  143.3200 C   0  0  0  0  0  0  0  0  0  0  0  0
  189.0520  177.4330  140.5760 C   0  0  0  0  0  3  0  0  0  0  0  0
  185.5090  178.2470  145.8490 N   0  0  0  0  0  0  0  0  0  0  0  0
  190.4010  177.1140  140.4070 C   0  0  0  0  0  0  0  0  0  0  0  0
  191.1940  176.9090  141.4930 N   0  0  0  0  0  0  0  0  0  0  0  0
  188.5340  177.5470  141.8660 C   0  0  0  0  0  0  0  0  0  0  0  0
  191.2730  176.8340  147.7180 C   0  0  0  0  0  3  0  0  0  0  0  0
  189.6490  177.2480  145.4700 C   0  0  0  0  0  0  0  0  0  0  0  0
  190.8720  176.5730  145.3450 C   0  0  0  0  0  3  0  0  0  0  0  0
  191.6810  176.3670  146.4660 C   0  0  0  0  0  3  0  0  0  0  0  0
  190.0550  177.5080  147.8500 C   0  0  0  0  0  3  0  0  0  0  0  0
  189.2450  177.7160  146.7290 C   0  0  0  0  0  3  0  0  0  0  0  0
  190.9620  176.9640  139.0380 C   0  0  0  0  0  2  0  0  0  0  0  0
  190.8840  175.6300  138.6410 O   0  0  0  0  0  1  0  0  0  0  0  0
  1 10  1  0  0  0  0
  2  6  1  0  0  0  0
  3 14  1  0  0  0  0
  6 16  2  0  0  0  0
  7  8  2  0  0  0  0
  7  9  1  0  0  0  0
  8 11  1  0  0  0  0
  9 12  2  0  0  0  0
 10  2  1  0  0  0  0
 10 21  1  0  0  0  0
 11  5  1  0  0  0  0
 11  4  2  0  0  0  0
 12  4  1  0  0  0  0
 12 16  1  0  0  0  0
 13  1  1  0  0  0  0
 14  9  1  0  0  0  0
 14  2  2  0  0  0  0
 15 19  1  0  0  0  0
 17 15  2  0  0  0  0
 17 18  1  0  0  0  0
 18 13  2  0  0  0  0
 19  3  1  0  0  0  0
 19  1  2  0  0  0  0
 20 24  1  0  0  0  0
 21 25  1  0  0  0  0
 22 21  2  0  0  0  0
 22 23  1  0  0  0  0
 23 20  2  0  0  0  0
 25 24  2  0  0  0  0
 26 17  1  0  0  0  0
 27 26  1  0  0  0  0
M  END
>  <MODEL>
8

>  <REMARK>
 VINA RESULT:     -10.0      2.958      5.974
  Name = 
  2 active torsions:
  status: ('A' for Active; 'I' for Inactive)
    1  A    between atoms: C_9  and  N_15
    2  A    between atoms: C_10  and  CA_22
                            x       y       z     vdW  Elec       q    Type
                         _______ _______ _______ _____ _____    ______ ____

>  <TORSDO>
F 2

$$$$
=
 OpenBabel11052413493D

 27 31  0  0  0  0  0  0  0  0999 V2000
  188.1600  177.6960  143.6170 C   0  0  0  0  0  0  0  0  0  0  0  0
  185.9130  178.2380  144.5410 C   0  0  0  0  0  0  0  0  0  0  0  0
  186.2530  178.0050  142.1460 O   0  0  0  0  0  0  0  0  0  0  0  0
  181.8460  179.0260  143.9330 C   0  0  0  0  0  3  0  0  0  0  0  0
  180.0010  179.3160  142.4550 F   0  0  0  0  0  0  0  0  0  0  0  0
  185.0330  178.4710  145.6110 C   0  0  0  0  0  3  0  0  0  0  0  0
  183.5040  178.5570  141.7220 C   0  0  0  0  0  3  0  0  0  0  0  0
  182.1440  178.8240  141.5360 C   0  0  0  0  0  3  0  0  0  0  0  0
  184.0430  178.5240  143.0150 C   0  0  0  0  0  0  0  0  0  0  0  0
  187.3130  177.9540  144.7620 N   0  0  0  0  0  0  0  0  0  0  0  0
  181.3170  179.0580  142.6400 C   0  0  0  0  0  0  0  0  0  0  0  0
  183.2050  178.7600  144.1270 C   0  0  0  0  0  0  0  0  0  0  0  0
  189.5310  177.4330  143.7540 C   0  0  0  0  0  3  0  0  0  0  0  0
  185.4020  178.2580  143.2290 C   0  0  0  0  0  0  0  0  0  0  0  0
  188.4190  177.4920  141.2140 C   0  0  0  0  0  3  0  0  0  0  0  0
  183.7180  178.7250  145.3840 N   0  0  0  0  0  0  0  0  0  0  0  0
  189.7790  177.2330  141.4000 C   0  0  0  0  0  0  0  0  0  0  0  0
  190.3010  177.2070  142.6560 N   0  0  0  0  0  0  0  0  0  0  0  0
  187.6100  177.7300  142.3250 C   0  0  0  0  0  0  0  0  0  0  0  0
  188.9210  177.8820  148.6900 C   0  0  0  0  0  3  0  0  0  0  0  0
  187.8580  177.9290  146.0950 C   0  0  0  0  0  0  0  0  0  0  0  0
  189.1230  177.3710  146.3320 C   0  0  0  0  0  3  0  0  0  0  0  0
  189.6520  177.3480  147.6250 C   0  0  0  0  0  3  0  0  0  0  0  0
  187.6600  178.4410  148.4610 C   0  0  0  0  0  3  0  0  0  0  0  0
  187.1290  178.4650  147.1670 C   0  0  0  0  0  3  0  0  0  0  0  0
  190.6490  176.9540  140.2270 C   0  0  0  0  0  2  0  0  0  0  0  0
  190.1520  177.6160  139.1060 O   0  0  0  0  0  1  0  0  0  0  0  0
  1 13  1  0  0  0  0
  1 10  1  0  0  0  0
  2 10  1  0  0  0  0
  2  6  1  0  0  0  0
  3 19  1  0  0  0  0
  3 14  1  0  0  0  0
  4 12  1  0  0  0  0
  5 11  1  0  0  0  0
  7  9  1  0  0  0  0
  8  7  2  0  0  0  0
  8 11  1  0  0  0  0
  9 14  1  0  0  0  0
  9 12  2  0  0  0  0
 10 21  1  0  0  0  0
 11  4  2  0  0  0  0
 12 16  1  0  0  0  0
 14  2  2  0  0  0  0
 15 17  2  0  0  0  0
 15 19  1  0  0  0  0
 16  6  2  0  0  0  0
 17 18  1  0  0  0  0
 18 13  2  0  0  0  0
 19  1  2  0  0  0  0
 21 22  2  0  0  0  0
 21 25  1  0  0  0  0
 22 23  1  0  0  0  0
 23 20  2  0  0  0  0
 24 20  1  0  0  0  0
 25 24  2  0  0  0  0
 26 17  1  0  0  0  0
 27 26  1  0  0  0  0
M  END
>  <MODEL>
9

>  <REMARK>
 VINA RESULT:      -9.8      3.254      6.200
  Name = 
  2 active torsions:
  status: ('A' for Active; 'I' for Inactive)
    1  A    between atoms: C_9  and  N_15
    2  A    between atoms: C_10  and  CA_22
                            x       y       z     vdW  Elec       q    Type
                         _______ _______ _______ _____ _____    ______ ____

>  <TORSDO>
F 2

$$$$
