=
 OpenBabel11052416593D

 32 36  0  0  1  0  0  0  0  0999 V2000
  189.2910  177.5640  137.4510 C   0  0  2  0  0  3  0  0  0  0  0  0
  188.5930  177.0010  142.4850 C   0  0  0  0  0  0  0  0  0  0  0  0
  184.2020  178.7300  143.6630 C   0  0  0  0  0  2  0  0  0  0  0  0
  184.5270  178.3920  145.1220 C   0  0  0  0  0  2  0  0  0  0  0  0
  189.5300  176.9770  140.2460 C   0  0  0  0  0  0  0  0  0  0  0  0
  187.6130  178.3800  140.7490 C   0  0  0  0  0  3  0  0  0  0  0  0
  188.5400  178.4600  138.4330 C   0  0  0  0  0  2  0  0  0  0  0  0
  185.1880  178.0460  142.7100 C   0  0  0  0  0  2  0  0  0  0  0  0
  187.6200  177.9280  142.0730 C   0  0  0  0  0  0  0  0  0  0  0  0
  186.6140  178.4840  143.0400 C   0  0  0  0  0  0  0  0  0  0  0  0
  187.8330  177.2750  144.8770 C   0  0  0  0  0  0  0  0  0  0  0  0
  190.6660  177.2310  138.0170 C   0  0  0  0  0  2  0  0  0  0  0  0
  188.5460  177.8990  139.8270 C   0  0  0  0  0  0  0  0  0  0  0  0
  190.5120  176.3830  139.2760 C   0  0  0  0  0  2  0  0  0  0  0  0
  185.9580  178.8060  145.4740 C   0  0  0  0  0  2  0  0  0  0  0  0
  186.9020  178.1760  144.4910 C   0  0  0  0  0  0  0  0  0  0  0  0
  189.5300  176.5210  141.5660 C   0  0  0  0  0  3  0  0  0  0  0  0
  188.6140  176.4560  143.8800 C   0  0  0  0  0  3  0  0  0  0  0  0
  189.4310  178.2240  136.2300 O   0  0  0  0  0  0  0  0  0  0  0  0
  188.2680  177.9150  135.5200 C   0  0  0  0  0  2  0  0  0  0  0  0
  188.3000  176.4640  135.0730 C   0  0  0  0  0  2  0  0  0  0  0  0
  185.9240  177.2430  135.8830 C   0  0  0  0  0  1  0  0  0  0  0  0
  186.6520  175.7120  135.2380 S   0  0  0  0  0  0  0  0  0  0  0  0
  188.0540  176.9760  146.3310 C   0  0  0  0  0  2  0  0  0  0  0  0
  189.4320  177.4500  146.7830 C   0  0  2  0  0  3  0  0  0  0  0  0
  191.6850  176.4310  146.0830 C   0  0  1  0  0  3  0  0  0  0  0  0
  191.6750  176.6950  147.5750 C   0  0  0  0  0  2  0  0  0  0  0  0
  190.3930  176.2640  146.8890 C   0  0  1  0  0  3  0  0  0  0  0  0
  191.7340  177.6490  145.3990 O   0  0  0  0  0  1  0  0  0  0  0  0
  189.3640  178.2370  148.0950 C   0  0  0  0  0  2  0  0  0  0  0  0
  188.0950  177.9460  148.8830 C   0  0  0  0  0  2  0  0  0  0  0  0
  187.0410  178.9770  148.5370 C   0  0  0  0  0  1  0  0  0  0  0  0
  1 19  1  6  0  0  0
  1 12  1  0  0  0  0
  1  7  1  0  0  0  0
  2 18  1  0  0  0  0
  3  4  1  0  0  0  0
  4 15  1  0  0  0  0
  5 17  1  0  0  0  0
  6  9  2  0  0  0  0
  7 13  1  0  0  0  0
  8 10  1  0  0  0  0
  8  3  1  0  0  0  0
  9  2  1  0  0  0  0
  9 10  1  0  0  0  0
 10 16  2  0  0  0  0
 11 24  1  0  0  0  0
 12 14  1  0  0  0  0
 13  5  2  0  0  0  0
 13  6  1  0  0  0  0
 14  5  1  0  0  0  0
 16 11  1  0  0  0  0
 16 15  1  0  0  0  0
 17  2  2  0  0  0  0
 18 11  2  0  0  0  0
 20 19  1  0  0  0  0
 21 23  1  0  0  0  0
 21 20  1  0  0  0  0
 23 22  1  0  0  0  0
 25 24  1  1  0  0  0
 25 30  1  0  0  0  0
 26 29  1  6  0  0  0
 26 28  1  0  0  0  0
 26 27  1  0  0  0  0
 28 25  1  6  0  0  0
 28 27  1  0  0  0  0
 30 31  1  0  0  0  0
 32 31  1  0  0  0  0
M  END
>  <MODEL>
1

>  <REMARK>
 VINA RESULT:      -8.1      0.000      0.000
  Name = 
  9 active torsions:
  status: ('A' for Active; 'I' for Inactive)
    1  A    between atoms: C_2  and  O_24
    2  A    between atoms: C_6  and  C_7
    3  A    between atoms: C_7  and  C_32
    4  A    between atoms: C_10  and  C_20
    5  A    between atoms: C_10  and  O_24
    6  A    between atoms: C_16  and  C_27
    7  A    between atoms: S_17  and  C_20
    8  A    between atoms: C_22  and  C_32
    9  A    between atoms: C_27  and  C_32
                            x       y       z     vdW  Elec       q    Type
                         _______ _______ _______ _____ _____    ______ ____

>  <TORSDO>
F 9

$$$$
=
 OpenBabel11052416593D

 32 36  0  0  1  0  0  0  0  0999 V2000
  180.2380  179.8960  141.9960 C   0  0  2  0  0  3  0  0  0  0  0  0
  184.6620  178.2960  144.0030 C   0  0  0  0  0  0  0  0  0  0  0  0
  188.1030  178.4920  140.5710 C   0  0  0  0  0  2  0  0  0  0  0  0
  189.0790  177.9140  141.6020 C   0  0  0  0  0  2  0  0  0  0  0  0
  182.3380  178.9220  143.6870 C   0  0  0  0  0  0  0  0  0  0  0  0
  183.7640  178.5250  141.7620 C   0  0  0  0  0  3  0  0  0  0  0  0
  181.3750  179.1150  141.3420 C   0  0  0  0  0  2  0  0  0  0  0  0
  186.8230  178.9920  141.2500 C   0  0  0  0  0  2  0  0  0  0  0  0
  184.8410  178.2440  142.6100 C   0  0  0  0  0  0  0  0  0  0  0  0
  186.1580  177.8440  142.0080 C   0  0  0  0  0  0  0  0  0  0  0  0
  186.9700  177.3280  144.3310 C   0  0  0  0  0  0  0  0  0  0  0  0
  179.8700  179.2410  143.3220 C   0  0  0  0  0  2  0  0  0  0  0  0
  182.5190  178.8830  142.2880 C   0  0  0  0  0  0  0  0  0  0  0  0
  181.0370  179.3640  144.2980 C   0  0  0  0  0  2  0  0  0  0  0  0
  188.4310  176.7720  142.3880 C   0  0  0  0  0  2  0  0  0  0  0  0
  187.1470  177.2650  142.9920 C   0  0  0  0  0  0  0  0  0  0  0  0
  183.4170  178.6480  144.5310 C   0  0  0  0  0  3  0  0  0  0  0  0
  185.7960  178.0450  144.9480 C   0  0  0  0  0  3  0  0  0  0  0  0
  179.1290  179.9040  141.1500 O   0  0  0  0  0  0  0  0  0  0  0  0
  179.2340  181.1000  140.4350 C   0  0  0  0  0  2  0  0  0  0  0  0
  178.9550  180.8530  138.9630 C   0  0  0  0  0  2  0  0  0  0  0  0
  181.4440  181.5420  138.4690 C   0  0  0  0  0  1  0  0  0  0  0  0
  179.8000  182.0970  137.9390 S   0  0  0  0  0  0  0  0  0  0  0  0
  188.0020  176.7710  145.2680 C   0  0  0  0  0  2  0  0  0  0  0  0
  189.1920  177.7170  145.3930 C   0  0  2  0  0  3  0  0  0  0  0  0
  191.4280  178.0230  144.1630 C   0  0  1  0  0  3  0  0  0  0  0  0
  191.6760  177.5660  145.5860 C   0  0  0  0  0  2  0  0  0  0  0  0
  190.4570  177.0530  144.8440 C   0  0  1  0  0  3  0  0  0  0  0  0
  190.9620  179.3410  144.1750 O   0  0  0  0  0  1  0  0  0  0  0  0
  189.3920  178.1980  146.8340 C   0  0  0  0  0  2  0  0  0  0  0  0
  188.7570  177.2620  147.8530 C   0  0  0  0  0  2  0  0  0  0  0  0
  187.9210  178.0680  148.8240 C   0  0  0  0  0  1  0  0  0  0  0  0
  1 19  1  6  0  0  0
  1 12  1  0  0  0  0
  2 17  2  0  0  0  0
  2 18  1  0  0  0  0
  3  8  1  0  0  0  0
  3  4  1  0  0  0  0
  4 15  1  0  0  0  0
  5 14  1  0  0  0  0
  5 17  1  0  0  0  0
  6 13  1  0  0  0  0
  6  9  2  0  0  0  0
  7  1  1  0  0  0  0
  7 13  1  0  0  0  0
  8 10  1  0  0  0  0
  9  2  1  0  0  0  0
 10  9  1  0  0  0  0
 10 16  2  0  0  0  0
 11 18  2  0  0  0  0
 11 24  1  0  0  0  0
 12 14  1  0  0  0  0
 13  5  2  0  0  0  0
 15 16  1  0  0  0  0
 16 11  1  0  0  0  0
 20 19  1  0  0  0  0
 21 20  1  0  0  0  0
 23 22  1  0  0  0  0
 23 21  1  0  0  0  0
 25 24  1  1  0  0  0
 25 30  1  0  0  0  0
 26 29  1  1  0  0  0
 26 28  1  0  0  0  0
 26 27  1  0  0  0  0
 28 25  1  1  0  0  0
 28 27  1  0  0  0  0
 30 31  1  0  0  0  0
 31 32  1  0  0  0  0
M  END
>  <MODEL>
2

>  <REMARK>
 VINA RESULT:      -7.9      3.837      6.342
  Name = 
  9 active torsions:
  status: ('A' for Active; 'I' for Inactive)
    1  A    between atoms: C_2  and  O_24
    2  A    between atoms: C_6  and  C_7
    3  A    between atoms: C_7  and  C_32
    4  A    between atoms: C_10  and  C_20
    5  A    between atoms: C_10  and  O_24
    6  A    between atoms: C_16  and  C_27
    7  A    between atoms: S_17  and  C_20
    8  A    between atoms: C_22  and  C_32
    9  A    between atoms: C_27  and  C_32
                            x       y       z     vdW  Elec       q    Type
                         _______ _______ _______ _____ _____    ______ ____

>  <TORSDO>
F 9

$$$$
=
 OpenBabel11052416593D

 32 36  0  0  1  0  0  0  0  0999 V2000
  181.7010  179.2550  142.4470 C   0  0  2  0  0  3  0  0  0  0  0  0
  186.3870  178.1540  144.1750 C   0  0  0  0  0  0  0  0  0  0  0  0
  189.4390  177.9250  140.3950 C   0  0  0  0  0  2  0  0  0  0  0  0
  190.5460  177.5540  141.3880 C   0  0  0  0  0  2  0  0  0  0  0  0
  184.0130  178.6380  144.0250 C   0  0  0  0  0  0  0  0  0  0  0  0
  185.2510  177.9920  142.0390 C   0  0  0  0  0  3  0  0  0  0  0  0
  182.8040  178.4200  141.7990 C   0  0  0  0  0  2  0  0  0  0  0  0
  188.2120  178.4800  141.1250 C   0  0  0  0  0  2  0  0  0  0  0  0
  186.4240  177.8880  142.7950 C   0  0  0  0  0  0  0  0  0  0  0  0
  187.6910  177.4440  142.1200 C   0  0  0  0  0  0  0  0  0  0  0  0
  188.7650  177.3340  144.3910 C   0  0  0  0  0  0  0  0  0  0  0  0
  181.5070  178.8060  143.8900 C   0  0  0  0  0  2  0  0  0  0  0  0
  184.0500  178.3830  142.6370 C   0  0  0  0  0  0  0  0  0  0  0  0
  182.7610  179.1240  144.7000 C   0  0  0  0  0  2  0  0  0  0  0  0
  190.0440  176.5290  142.4080 C   0  0  0  0  0  2  0  0  0  0  0  0
  188.8050  177.0650  143.0670 C   0  0  0  0  0  0  0  0  0  0  0  0
  185.1870  178.5410  144.7760 C   0  0  0  0  0  3  0  0  0  0  0  0
  187.6250  178.0980  145.0160 C   0  0  0  0  0  3  0  0  0  0  0  0
  180.5120  179.0880  141.7370 O   0  0  0  0  0  0  0  0  0  0  0  0
  180.8720  179.2340  140.3950 C   0  0  0  0  0  2  0  0  0  0  0  0
  180.0920  180.3750  139.7670 C   0  0  0  0  0  2  0  0  0  0  0  0
  182.4950  180.3860  138.7010 C   0  0  0  0  0  1  0  0  0  0  0  0
  180.8210  180.8370  138.1660 S   0  0  0  0  0  0  0  0  0  0  0  0
  189.9160  176.9710  145.2830 C   0  0  0  0  0  2  0  0  0  0  0  0
  189.4650  176.8530  146.7350 C   0  0  2  0  0  3  0  0  0  0  0  0
  188.0960  178.3010  148.3590 C   0  0  1  0  0  3  0  0  0  0  0  0
  189.5370  178.2250  148.8190 C   0  0  0  0  0  2  0  0  0  0  0  0
  189.2330  178.2420  147.3340 C   0  0  1  0  0  3  0  0  0  0  0  0
  187.4840  177.0580  148.5480 O   0  0  0  0  0  1  0  0  0  0  0  0
  190.4520  176.0380  147.5760 C   0  0  0  0  0  2  0  0  0  0  0  0
  191.8520  176.0230  146.9780 C   0  0  0  0  0  2  0  0  0  0  0  0
  192.8580  175.6920  148.0600 C   0  0  0  0  0  1  0  0  0  0  0  0
  1 19  1  6  0  0  0
  1 12  1  0  0  0  0
  2 17  2  0  0  0  0
  2 18  1  0  0  0  0
  3  8  1  0  0  0  0
  3  4  1  0  0  0  0
  4 15  1  0  0  0  0
  5 14  1  0  0  0  0
  5 17  1  0  0  0  0
  6 13  1  0  0  0  0
  6  9  2  0  0  0  0
  7  1  1  0  0  0  0
  7 13  1  0  0  0  0
  8 10  1  0  0  0  0
  9  2  1  0  0  0  0
 10  9  1  0  0  0  0
 10 16  2  0  0  0  0
 11 18  2  0  0  0  0
 11 24  1  0  0  0  0
 12 14  1  0  0  0  0
 13  5  2  0  0  0  0
 15 16  1  0  0  0  0
 16 11  1  0  0  0  0
 20 19  1  0  0  0  0
 21 20  1  0  0  0  0
 23 22  1  0  0  0  0
 23 21  1  0  0  0  0
 25 24  1  6  0  0  0
 25 30  1  0  0  0  0
 26 29  1  6  0  0  0
 26 27  1  0  0  0  0
 28 25  1  6  0  0  0
 28 26  1  0  0  0  0
 28 27  1  0  0  0  0
 31 30  1  0  0  0  0
 31 32  1  0  0  0  0
M  END
>  <MODEL>
3

>  <REMARK>
 VINA RESULT:      -7.9      3.245      6.018
  Name = 
  9 active torsions:
  status: ('A' for Active; 'I' for Inactive)
    1  A    between atoms: C_2  and  O_24
    2  A    between atoms: C_6  and  C_7
    3  A    between atoms: C_7  and  C_32
    4  A    between atoms: C_10  and  C_20
    5  A    between atoms: C_10  and  O_24
    6  A    between atoms: C_16  and  C_27
    7  A    between atoms: S_17  and  C_20
    8  A    between atoms: C_22  and  C_32
    9  A    between atoms: C_27  and  C_32
                            x       y       z     vdW  Elec       q    Type
                         _______ _______ _______ _____ _____    ______ ____

>  <TORSDO>
F 9

$$$$
=
 OpenBabel11052416593D

 32 36  0  0  1  0  0  0  0  0999 V2000
  188.5970  177.9620  145.2190 C   0  0  2  0  0  3  0  0  0  0  0  0
  191.1110  177.2010  140.8310 C   0  0  0  0  0  0  0  0  0  0  0  0
  188.2220  178.4660  137.1290 C   0  0  0  0  0  2  0  0  0  0  0  0
  189.3440  178.0250  136.1820 C   0  0  0  0  0  2  0  0  0  0  0  0
  190.5060  177.3240  143.1790 C   0  0  0  0  0  0  0  0  0  0  0  0
  188.7830  177.4310  141.4720 C   0  0  0  0  0  3  0  0  0  0  0  0
  188.0640  177.5140  143.8600 C   0  0  0  0  0  2  0  0  0  0  0  0
  188.7410  178.6060  138.5640 C   0  0  0  0  0  2  0  0  0  0  0  0
  189.7570  177.3180  140.4720 C   0  0  0  0  0  0  0  0  0  0  0  0
  189.3250  177.2750  139.0340 C   0  0  0  0  0  0  0  0  0  0  0  0
  191.7040  176.7400  138.4210 C   0  0  0  0  0  0  0  0  0  0  0  0
  189.8140  177.1230  145.5890 C   0  0  0  0  0  2  0  0  0  0  0  0
  189.1470  177.4550  142.8210 C   0  0  0  0  0  0  0  0  0  0  0  0
  190.9510  177.4100  144.6120 C   0  0  0  0  0  2  0  0  0  0  0  0
  189.9590  176.7000  136.6410 C   0  0  0  0  0  2  0  0  0  0  0  0
  190.4020  176.8400  138.0690 C   0  0  0  0  0  0  0  0  0  0  0  0
  191.4760  177.2190  142.1800 C   0  0  0  0  0  3  0  0  0  0  0  0
  192.1900  177.1200  139.7970 C   0  0  0  0  0  3  0  0  0  0  0  0
  187.6030  177.8030  146.1860 O   0  0  0  0  0  0  0  0  0  0  0  0
  186.4050  177.7910  145.4680 C   0  0  0  0  0  2  0  0  0  0  0  0
  185.4350  178.8000  146.0550 C   0  0  0  0  0  2  0  0  0  0  0  0
  184.8370  179.4010  143.5670 C   0  0  0  0  0  1  0  0  0  0  0  0
  183.9230  178.8890  145.0480 S   0  0  0  0  0  0  0  0  0  0  0  0
  192.7430  176.3410  137.4140 C   0  0  0  0  0  2  0  0  0  0  0  0
  193.2680  174.9370  137.6980 C   0  0  2  0  0  3  0  0  0  0  0  0
  195.7810  174.4310  137.8790 C   0  0  1  0  0  3  0  0  0  0  0  0
  195.0690  173.2850  137.1900 C   0  0  0  0  0  2  0  0  0  0  0  0
  194.5880  174.7050  136.9590 C   0  0  1  0  0  3  0  0  0  0  0  0
  195.4280  174.4490  139.2310 O   0  0  0  0  0  1  0  0  0  0  0  0
  192.2350  173.8600  137.3540 C   0  0  0  0  0  2  0  0  0  0  0  0
  191.8790  173.8460  135.8750 C   0  0  0  0  0  2  0  0  0  0  0  0
  190.5540  173.1390  135.6820 C   0  0  0  0  0  1  0  0  0  0  0  0
  1 12  1  0  0  0  0
  1 19  1  1  0  0  0
  2 17  1  0  0  0  0
  3  8  1  0  0  0  0
  4 15  1  0  0  0  0
  4  3  1  0  0  0  0
  5 14  1  0  0  0  0
  6 13  2  0  0  0  0
  7  1  1  0  0  0  0
  8 10  1  0  0  0  0
  9  2  1  0  0  0  0
  9  6  1  0  0  0  0
 10  9  2  0  0  0  0
 11 18  1  0  0  0  0
 13  5  1  0  0  0  0
 13  7  1  0  0  0  0
 14 12  1  0  0  0  0
 15 16  1  0  0  0  0
 16 11  2  0  0  0  0
 16 10  1  0  0  0  0
 17  5  2  0  0  0  0
 18  2  2  0  0  0  0
 20 21  1  0  0  0  0
 20 19  1  0  0  0  0
 22 23  1  0  0  0  0
 23 21  1  0  0  0  0
 24 25  1  0  0  0  0
 24 11  1  0  0  0  0
 25 30  1  6  0  0  0
 26 29  1  1  0  0  0
 27 26  1  0  0  0  0
 28 27  1  0  0  0  0
 28 25  1  1  0  0  0
 28 26  1  0  0  0  0
 31 30  1  0  0  0  0
 32 31  1  0  0  0  0
M  END
>  <MODEL>
4

>  <REMARK>
 VINA RESULT:      -7.6      3.459      8.585
  Name = 
  9 active torsions:
  status: ('A' for Active; 'I' for Inactive)
    1  A    between atoms: C_2  and  O_24
    2  A    between atoms: C_6  and  C_7
    3  A    between atoms: C_7  and  C_32
    4  A    between atoms: C_10  and  C_20
    5  A    between atoms: C_10  and  O_24
    6  A    between atoms: C_16  and  C_27
    7  A    between atoms: S_17  and  C_20
    8  A    between atoms: C_22  and  C_32
    9  A    between atoms: C_27  and  C_32
                            x       y       z     vdW  Elec       q    Type
                         _______ _______ _______ _____ _____    ______ ____

>  <TORSDO>
F 9

$$$$
=
 OpenBabel11052416593D

 32 36  0  0  1  0  0  0  0  0999 V2000
  190.6370  177.2960  139.6130 C   0  0  2  0  0  3  0  0  0  0  0  0
  186.5130  178.7090  142.2860 C   0  0  0  0  0  0  0  0  0  0  0  0
  187.3430  177.8810  147.0060 C   0  0  0  0  0  2  0  0  0  0  0  0
  185.9200  178.3790  147.2820 C   0  0  0  0  0  2  0  0  0  0  0  0
  188.0810  178.2510  140.4910 C   0  0  0  0  0  0  0  0  0  0  0  0
  188.4120  177.2540  142.6810 C   0  0  0  0  0  3  0  0  0  0  0  0
  190.0470  176.6860  140.8820 C   0  0  0  0  0  2  0  0  0  0  0  0
  187.7880  178.2530  145.5880 C   0  0  0  0  0  2  0  0  0  0  0  0
  187.2600  177.8930  143.1530 C   0  0  0  0  0  0  0  0  0  0  0  0
  186.8200  177.6520  144.5690 C   0  0  0  0  0  0  0  0  0  0  0  0
  184.7120  178.9180  144.0430 C   0  0  0  0  0  0  0  0  0  0  0  0
  189.5320  177.4910  138.5820 C   0  0  0  0  0  2  0  0  0  0  0  0
  188.8400  177.4410  141.3630 C   0  0  0  0  0  0  0  0  0  0  0  0
  188.5370  178.5320  139.0870 C   0  0  0  0  0  2  0  0  0  0  0  0
  184.9320  177.8040  146.2630 C   0  0  0  0  0  2  0  0  0  0  0  0
  185.4200  178.1250  144.8790 C   0  0  0  0  0  0  0  0  0  0  0  0
  186.9360  178.8930  140.9670 C   0  0  0  0  0  3  0  0  0  0  0  0
  185.2980  179.4460  142.7580 C   0  0  0  0  0  3  0  0  0  0  0  0
  191.6170  176.4470  139.0990 O   0  0  0  0  0  0  0  0  0  0  0  0
  190.9330  175.5990  138.2240 C   0  0  0  0  0  2  0  0  0  0  0  0
  191.8540  175.1510  137.1040 C   0  0  0  0  0  2  0  0  0  0  0  0
  194.3220  174.5280  137.7620 C   0  0  0  0  0  1  0  0  0  0  0  0
  193.4500  176.0190  137.2080 S   0  0  0  0  0  0  0  0  0  0  0  0
  183.3380  179.3930  144.4160 C   0  0  0  0  0  2  0  0  0  0  0  0
  182.3310  179.0680  143.3170 C   0  0  2  0  0  3  0  0  0  0  0  0
  179.8230  179.5350  143.6260 C   0  0  1  0  0  3  0  0  0  0  0  0
  180.0200  178.2600  142.8320 C   0  0  0  0  0  2  0  0  0  0  0  0
  181.0060  178.6110  143.9300 C   0  0  1  0  0  3  0  0  0  0  0  0
  180.1900  180.6310  142.8390 O   0  0  0  0  0  1  0  0  0  0  0  0
  182.8780  178.0350  142.3280 C   0  0  0  0  0  2  0  0  0  0  0  0
  182.6320  178.4310  140.8790 C   0  0  0  0  0  2  0  0  0  0  0  0
  183.4660  177.5540  139.9690 C   0  0  0  0  0  1  0  0  0  0  0  0
  1 19  1  6  0  0  0
  1  7  1  0  0  0  0
  2 18  2  0  0  0  0
  2  9  1  0  0  0  0
  3  4  1  0  0  0  0
  5 17  2  0  0  0  0
  5 13  1  0  0  0  0
  6  9  1  0  0  0  0
  7 13  1  0  0  0  0
  8  3  1  0  0  0  0
  9 10  2  0  0  0  0
 10 16  1  0  0  0  0
 10  8  1  0  0  0  0
 11 24  1  0  0  0  0
 11 16  2  0  0  0  0
 12 14  1  0  0  0  0
 12  1  1  0  0  0  0
 13  6  2  0  0  0  0
 14  5  1  0  0  0  0
 15  4  1  0  0  0  0
 16 15  1  0  0  0  0
 17  2  1  0  0  0  0
 18 11  1  0  0  0  0
 20 19  1  0  0  0  0
 21 23  1  0  0  0  0
 21 20  1  0  0  0  0
 23 22  1  0  0  0  0
 25 30  1  6  0  0  0
 25 24  1  0  0  0  0
 26 29  1  6  0  0  0
 26 28  1  0  0  0  0
 27 26  1  0  0  0  0
 27 28  1  0  0  0  0
 28 25  1  6  0  0  0
 31 30  1  0  0  0  0
 32 31  1  0  0  0  0
M  END
>  <MODEL>
5

>  <REMARK>
 VINA RESULT:      -7.6      3.202      6.266
  Name = 
  9 active torsions:
  status: ('A' for Active; 'I' for Inactive)
    1  A    between atoms: C_2  and  O_24
    2  A    between atoms: C_6  and  C_7
    3  A    between atoms: C_7  and  C_32
    4  A    between atoms: C_10  and  C_20
    5  A    between atoms: C_10  and  O_24
    6  A    between atoms: C_16  and  C_27
    7  A    between atoms: S_17  and  C_20
    8  A    between atoms: C_22  and  C_32
    9  A    between atoms: C_27  and  C_32
                            x       y       z     vdW  Elec       q    Type
                         _______ _______ _______ _____ _____    ______ ____

>  <TORSDO>
F 9

$$$$
=
 OpenBabel11052416593D

 32 36  0  0  1  0  0  0  0  0999 V2000
  189.2750  177.4960  144.2000 C   0  0  2  0  0  3  0  0  0  0  0  0
  185.4550  178.7610  141.0440 C   0  0  0  0  0  0  0  0  0  0  0  0
  181.3310  179.0460  143.6070 C   0  0  0  0  0  2  0  0  0  0  0  0
  180.6080  179.3610  142.2930 C   0  0  0  0  0  2  0  0  0  0  0  0
  187.6320  178.1980  141.9590 C   0  0  0  0  0  0  0  0  0  0  0  0
  185.6180  177.7300  143.2330 C   0  0  0  0  0  3  0  0  0  0  0  0
  187.8080  177.0710  144.2320 C   0  0  0  0  0  2  0  0  0  0  0  0
  182.8480  179.1870  143.4440 C   0  0  0  0  0  2  0  0  0  0  0  0
  184.8350  178.2640  142.2040 C   0  0  0  0  0  0  0  0  0  0  0  0
  183.3390  178.2490  142.3420 C   0  0  0  0  0  0  0  0  0  0  0  0
  183.1920  179.0380  139.9590 C   0  0  0  0  0  0  0  0  0  0  0  0
  189.8290  177.3030  142.7940 C   0  0  0  0  0  2  0  0  0  0  0  0
  187.0120  177.7100  143.1300 C   0  0  0  0  0  0  0  0  0  0  0  0
  189.1280  178.2570  141.8310 C   0  0  0  0  0  2  0  0  0  0  0  0
  181.0940  178.4450  141.1670 C   0  0  0  0  0  2  0  0  0  0  0  0
  182.5890  178.5510  141.0660 C   0  0  0  0  0  0  0  0  0  0  0  0
  186.8480  178.7370  140.9370 C   0  0  0  0  0  3  0  0  0  0  0  0
  184.6610  179.3800  139.9360 C   0  0  0  0  0  3  0  0  0  0  0  0
  190.0040  176.7230  145.1050 O   0  0  0  0  0  0  0  0  0  0  0  0
  190.0930  177.5090  146.2560 C   0  0  0  0  0  2  0  0  0  0  0  0
  189.3530  176.8420  147.4020 C   0  0  0  0  0  2  0  0  0  0  0  0
  187.1160  178.2220  147.4490 C   0  0  0  0  0  1  0  0  0  0  0  0
  188.6000  178.0940  148.4860 S   0  0  0  0  0  0  0  0  0  0  0  0
  182.3950  179.3590  138.7280 C   0  0  0  0  0  2  0  0  0  0  0  0
  182.0850  178.0940  137.9330 C   0  0  2  0  0  3  0  0  0  0  0  0
  183.5190  175.9690  138.1120 C   0  0  1  0  0  3  0  0  0  0  0  0
  183.0700  176.1740  136.6800 C   0  0  0  0  0  2  0  0  0  0  0  0
  183.3820  177.3830  137.5400 C   0  0  1  0  0  3  0  0  0  0  0  0
  182.4200  175.6000  138.8930 O   0  0  0  0  0  1  0  0  0  0  0  0
  181.2130  178.3880  136.7100 C   0  0  0  0  0  2  0  0  0  0  0  0
  180.8130  179.8540  136.6180 C   0  0  0  0  0  2  0  0  0  0  0  0
  180.5690  180.2190  135.1690 C   0  0  0  0  0  1  0  0  0  0  0  0
  1  7  1  0  0  0  0
  1 19  1  1  0  0  0
  2  9  1  0  0  0  0
  4  3  1  0  0  0  0
  5 13  1  0  0  0  0
  8  3  1  0  0  0  0
  9 10  2  0  0  0  0
  9  6  1  0  0  0  0
 10  8  1  0  0  0  0
 11 16  2  0  0  0  0
 12  1  1  0  0  0  0
 13  6  2  0  0  0  0
 13  7  1  0  0  0  0
 14  5  1  0  0  0  0
 14 12  1  0  0  0  0
 15  4  1  0  0  0  0
 16 15  1  0  0  0  0
 16 10  1  0  0  0  0
 17  2  1  0  0  0  0
 17  5  2  0  0  0  0
 18 11  1  0  0  0  0
 18  2  2  0  0  0  0
 19 20  1  0  0  0  0
 20 21  1  0  0  0  0
 21 23  1  0  0  0  0
 22 23  1  0  0  0  0
 24 11  1  0  0  0  0
 25 30  1  6  0  0  0
 25 24  1  0  0  0  0
 26 29  1  1  0  0  0
 27 28  1  0  0  0  0
 27 26  1  0  0  0  0
 28 25  1  1  0  0  0
 28 26  1  0  0  0  0
 31 30  1  0  0  0  0
 32 31  1  0  0  0  0
M  END
>  <MODEL>
6

>  <REMARK>
 VINA RESULT:      -7.3      4.013      8.874
  Name = 
  9 active torsions:
  status: ('A' for Active; 'I' for Inactive)
    1  A    between atoms: C_2  and  O_24
    2  A    between atoms: C_6  and  C_7
    3  A    between atoms: C_7  and  C_32
    4  A    between atoms: C_10  and  C_20
    5  A    between atoms: C_10  and  O_24
    6  A    between atoms: C_16  and  C_27
    7  A    between atoms: S_17  and  C_20
    8  A    between atoms: C_22  and  C_32
    9  A    between atoms: C_27  and  C_32
                            x       y       z     vdW  Elec       q    Type
                         _______ _______ _______ _____ _____    ______ ____

>  <TORSDO>
F 9

$$$$
=
 OpenBabel11052416593D

 32 36  0  0  1  0  0  0  0  0999 V2000
  189.3790  177.7830  144.1600 C   0  0  2  0  0  3  0  0  0  0  0  0
  185.3690  178.6610  141.1100 C   0  0  0  0  0  0  0  0  0  0  0  0
  181.3990  179.2250  143.8620 C   0  0  0  0  0  2  0  0  0  0  0  0
  180.5970  179.3840  142.5660 C   0  0  0  0  0  2  0  0  0  0  0  0
  187.6010  178.2160  141.9540 C   0  0  0  0  0  0  0  0  0  0  0  0
  185.6700  177.8900  143.3900 C   0  0  0  0  0  3  0  0  0  0  0  0
  187.9210  177.3590  144.3260 C   0  0  0  0  0  2  0  0  0  0  0  0
  182.9020  179.3520  143.5940 C   0  0  0  0  0  2  0  0  0  0  0  0
  184.8220  178.2990  142.3540 C   0  0  0  0  0  0  0  0  0  0  0  0
  183.3380  178.2940  142.5810 C   0  0  0  0  0  0  0  0  0  0  0  0
  183.0440  178.8030  140.1360 C   0  0  0  0  0  0  0  0  0  0  0  0
  189.8530  177.4310  142.7550 C   0  0  0  0  0  2  0  0  0  0  0  0
  187.0550  177.8640  143.2070 C   0  0  0  0  0  0  0  0  0  0  0  0
  189.0870  178.2650  141.7310 C   0  0  0  0  0  2  0  0  0  0  0  0
  181.0260  178.3460  141.5260 C   0  0  0  0  0  2  0  0  0  0  0  0
  182.5110  178.4450  141.3250 C   0  0  0  0  0  0  0  0  0  0  0  0
  186.7540  178.6300  140.9240 C   0  0  0  0  0  3  0  0  0  0  0  0
  184.5050  179.1450  139.9870 C   0  0  0  0  0  3  0  0  0  0  0  0
  190.1680  177.1220  145.1020 O   0  0  0  0  0  0  0  0  0  0  0  0
  189.2900  176.7980  146.1400 C   0  0  0  0  0  2  0  0  0  0  0  0
  189.9900  176.9430  147.4800 C   0  0  0  0  0  2  0  0  0  0  0  0
  187.5510  177.8590  147.8340 C   0  0  0  0  0  1  0  0  0  0  0  0
  189.2050  178.2530  148.4680 S   0  0  0  0  0  0  0  0  0  0  0  0
  182.1740  178.9760  138.9260 C   0  0  0  0  0  2  0  0  0  0  0  0
  182.0940  177.6840  138.1200 C   0  0  2  0  0  3  0  0  0  0  0  0
  184.0730  177.1370  136.5730 C   0  0  1  0  0  3  0  0  0  0  0  0
  182.7950  176.5490  136.0100 C   0  0  0  0  0  2  0  0  0  0  0  0
  182.7410  177.8740  136.7460 C   0  0  1  0  0  3  0  0  0  0  0  0
  184.4430  176.4270  137.7190 O   0  0  0  0  0  1  0  0  0  0  0  0
  180.6550  177.1740  137.9970 C   0  0  0  0  0  2  0  0  0  0  0  0
  180.4470  175.8430  138.7060 C   0  0  0  0  0  2  0  0  0  0  0  0
  181.7150  175.4600  139.4400 C   0  0  0  0  0  1  0  0  0  0  0  0
  1  7  1  0  0  0  0
  1 19  1  1  0  0  0
  2  9  1  0  0  0  0
  4  3  1  0  0  0  0
  5 13  1  0  0  0  0
  8  3  1  0  0  0  0
  9 10  2  0  0  0  0
  9  6  1  0  0  0  0
 10  8  1  0  0  0  0
 11 16  2  0  0  0  0
 12  1  1  0  0  0  0
 13  6  2  0  0  0  0
 13  7  1  0  0  0  0
 14  5  1  0  0  0  0
 14 12  1  0  0  0  0
 15  4  1  0  0  0  0
 16 15  1  0  0  0  0
 16 10  1  0  0  0  0
 17  2  1  0  0  0  0
 17  5  2  0  0  0  0
 18 11  1  0  0  0  0
 18  2  2  0  0  0  0
 19 20  1  0  0  0  0
 20 21  1  0  0  0  0
 21 23  1  0  0  0  0
 22 23  1  0  0  0  0
 24 11  1  0  0  0  0
 25 30  1  6  0  0  0
 25 24  1  0  0  0  0
 26 28  1  0  0  0  0
 26 29  1  1  0  0  0
 27 26  1  0  0  0  0
 27 28  1  0  0  0  0
 28 25  1  1  0  0  0
 30 31  1  0  0  0  0
 31 32  1  0  0  0  0
M  END
>  <MODEL>
7

>  <REMARK>
 VINA RESULT:      -7.2      3.870      8.674
  Name = 
  9 active torsions:
  status: ('A' for Active; 'I' for Inactive)
    1  A    between atoms: C_2  and  O_24
    2  A    between atoms: C_6  and  C_7
    3  A    between atoms: C_7  and  C_32
    4  A    between atoms: C_10  and  C_20
    5  A    between atoms: C_10  and  O_24
    6  A    between atoms: C_16  and  C_27
    7  A    between atoms: S_17  and  C_20
    8  A    between atoms: C_22  and  C_32
    9  A    between atoms: C_27  and  C_32
                            x       y       z     vdW  Elec       q    Type
                         _______ _______ _______ _____ _____    ______ ____

>  <TORSDO>
F 9

$$$$
=
 OpenBabel11052416593D

 32 36  0  0  1  0  0  0  0  0999 V2000
  191.4660  176.7520  137.5280 C   0  0  2  0  0  3  0  0  0  0  0  0
  187.7650  178.2380  140.7280 C   0  0  0  0  0  0  0  0  0  0  0  0
  189.1860  177.3470  145.2930 C   0  0  0  0  0  2  0  0  0  0  0  0
  187.8240  177.8760  145.7570 C   0  0  0  0  0  2  0  0  0  0  0  0
  189.0720  177.7590  138.7400 C   0  0  0  0  0  0  0  0  0  0  0  0
  189.6630  176.7350  140.8610 C   0  0  0  0  0  3  0  0  0  0  0  0
  191.0320  176.1440  138.8600 C   0  0  0  0  0  2  0  0  0  0  0  0
  189.4500  177.7210  143.8310 C   0  0  0  0  0  2  0  0  0  0  0  0
  188.5990  177.3970  141.4850 C   0  0  0  0  0  0  0  0  0  0  0  0
  188.3430  177.1530  142.9440 C   0  0  0  0  0  0  0  0  0  0  0  0
  186.2160  178.4730  142.7080 C   0  0  0  0  0  0  0  0  0  0  0  0
  190.2410  176.9830  136.6520 C   0  0  0  0  0  2  0  0  0  0  0  0
  189.9190  176.9230  139.5000 C   0  0  0  0  0  0  0  0  0  0  0  0
  189.3470  178.0430  137.2900 C   0  0  0  0  0  2  0  0  0  0  0  0
  186.6980  177.3340  144.8730 C   0  0  0  0  0  2  0  0  0  0  0  0
  187.0070  177.6560  143.4390 C   0  0  0  0  0  0  0  0  0  0  0  0
  188.0160  178.4240  139.3660 C   0  0  0  0  0  3  0  0  0  0  0  0
  186.6410  179.0000  141.3610 C   0  0  0  0  0  3  0  0  0  0  0  0
  192.3490  175.8840  136.8840 O   0  0  0  0  0  0  0  0  0  0  0  0
  192.2820  174.6970  137.6170 C   0  0  0  0  0  2  0  0  0  0  0  0
  193.3830  173.7490  137.1770 C   0  0  0  0  0  2  0  0  0  0  0  0
  195.5120  173.7380  138.7190 C   0  0  0  0  0  1  0  0  0  0  0  0
  194.9950  174.5920  137.2040 S   0  0  0  0  0  0  0  0  0  0  0  0
  184.9150  178.9780  143.2610 C   0  0  0  0  0  2  0  0  0  0  0  0
  183.7480  178.5710  142.3680 C   0  0  2  0  0  3  0  0  0  0  0  0
  183.6000  177.8790  139.8970 C   0  0  1  0  0  3  0  0  0  0  0  0
  182.7410  179.1010  140.1470 C   0  0  0  0  0  2  0  0  0  0  0  0
  184.0400  178.9390  140.9120 C   0  0  1  0  0  3  0  0  0  0  0  0
  183.0120  176.7670  140.5070 O   0  0  0  0  0  1  0  0  0  0  0  0
  182.4240  179.1760  142.8450 C   0  0  0  0  0  2  0  0  0  0  0  0
  181.7940  178.3780  143.9770 C   0  0  0  0  0  2  0  0  0  0  0  0
  180.2960  178.5970  143.9740 C   0  0  0  0  0  1  0  0  0  0  0  0
  1 19  1  6  0  0  0
  1  7  1  0  0  0  0
  2 18  2  0  0  0  0
  2  9  1  0  0  0  0
  3  4  1  0  0  0  0
  5 17  2  0  0  0  0
  5 13  1  0  0  0  0
  6  9  1  0  0  0  0
  7 13  1  0  0  0  0
  8  3  1  0  0  0  0
  9 10  2  0  0  0  0
 10 16  1  0  0  0  0
 10  8  1  0  0  0  0
 11 24  1  0  0  0  0
 11 16  2  0  0  0  0
 12 14  1  0  0  0  0
 12  1  1  0  0  0  0
 13  6  2  0  0  0  0
 14  5  1  0  0  0  0
 15  4  1  0  0  0  0
 16 15  1  0  0  0  0
 17  2  1  0  0  0  0
 18 11  1  0  0  0  0
 19 20  1  0  0  0  0
 21 23  1  0  0  0  0
 21 20  1  0  0  0  0
 23 22  1  0  0  0  0
 25 30  1  1  0  0  0
 25 24  1  0  0  0  0
 26 27  1  0  0  0  0
 26 29  1  1  0  0  0
 26 28  1  0  0  0  0
 27 28  1  0  0  0  0
 28 25  1  1  0  0  0
 30 31  1  0  0  0  0
 32 31  1  0  0  0  0
M  END
>  <MODEL>
8

>  <REMARK>
 VINA RESULT:      -7.1      2.991      5.961
  Name = 
  9 active torsions:
  status: ('A' for Active; 'I' for Inactive)
    1  A    between atoms: C_2  and  O_24
    2  A    between atoms: C_6  and  C_7
    3  A    between atoms: C_7  and  C_32
    4  A    between atoms: C_10  and  C_20
    5  A    between atoms: C_10  and  O_24
    6  A    between atoms: C_16  and  C_27
    7  A    between atoms: S_17  and  C_20
    8  A    between atoms: C_22  and  C_32
    9  A    between atoms: C_27  and  C_32
                            x       y       z     vdW  Elec       q    Type
                         _______ _______ _______ _____ _____    ______ ____

>  <TORSDO>
F 9

$$$$
=
 OpenBabel11052416593D

 32 36  0  0  1  0  0  0  0  0999 V2000
  182.7660  179.0070  143.3430 C   0  0  2  0  0  3  0  0  0  0  0  0
  187.7430  178.2120  144.2050 C   0  0  0  0  0  0  0  0  0  0  0  0
  190.0210  177.7520  139.9320 C   0  0  0  0  0  2  0  0  0  0  0  0
  191.3140  177.5040  140.7170 C   0  0  0  0  0  2  0  0  0  0  0  0
  185.3640  178.6050  144.4830 C   0  0  0  0  0  0  0  0  0  0  0  0
  186.2280  177.8280  142.3510 C   0  0  0  0  0  3  0  0  0  0  0  0
  183.7630  178.1550  142.5600 C   0  0  0  0  0  2  0  0  0  0  0  0
  188.9310  178.3290  140.8420 C   0  0  0  0  0  2  0  0  0  0  0  0
  187.5280  177.8280  142.8700 C   0  0  0  0  0  0  0  0  0  0  0  0
  188.6610  177.3680  141.9980 C   0  0  0  0  0  0  0  0  0  0  0  0
  190.1550  177.4900  144.0170 C   0  0  0  0  0  0  0  0  0  0  0  0
  182.8740  178.6800  144.8270 C   0  0  0  0  0  2  0  0  0  0  0  0
  185.1470  178.2310  143.1400 C   0  0  0  0  0  0  0  0  0  0  0  0
  184.2430  179.1070  145.3490 C   0  0  0  0  0  2  0  0  0  0  0  0
  191.0670  176.5560  141.8930 C   0  0  0  0  0  2  0  0  0  0  0  0
  189.9540  177.1080  142.7360 C   0  0  0  0  0  0  0  0  0  0  0  0
  186.6630  178.6110  144.9960 C   0  0  0  0  0  3  0  0  0  0  0  0
  189.1210  178.2680  144.7900 C   0  0  0  0  0  3  0  0  0  0  0  0
  181.4720  178.7420  142.8950 O   0  0  0  0  0  0  0  0  0  0  0  0
  181.5770  178.7010  141.5020 C   0  0  0  0  0  2  0  0  0  0  0  0
  180.4640  177.8480  140.9200 C   0  0  0  0  0  2  0  0  0  0  0  0
  180.7930  180.1240  139.6480 C   0  0  0  0  0  1  0  0  0  0  0  0
  179.7060  178.6800  139.4910 S   0  0  0  0  0  0  0  0  0  0  0  0
  191.4720  177.2430  144.6930 C   0  0  0  0  0  2  0  0  0  0  0  0
  191.2720  176.8600  146.1560 C   0  0  2  0  0  3  0  0  0  0  0  0
  192.8050  175.6260  147.8090 C   0  0  1  0  0  3  0  0  0  0  0  0
  191.4660  174.9240  147.7190 C   0  0  0  0  0  2  0  0  0  0  0  0
  192.0450  175.5800  146.4800 C   0  0  1  0  0  3  0  0  0  0  0  0
  192.6440  176.8460  148.4740 O   0  0  0  0  0  1  0  0  0  0  0  0
  189.7890  176.7260  146.5140 C   0  0  0  0  0  2  0  0  0  0  0  0
  189.4000  177.5800  147.7120 C   0  0  0  0  0  2  0  0  0  0  0  0
  188.0030  177.2100  148.1630 C   0  0  0  0  0  1  0  0  0  0  0  0
  1 19  1  6  0  0  0
  1 12  1  0  0  0  0
  2 18  1  0  0  0  0
  2 17  2  0  0  0  0
  3  4  1  0  0  0  0
  3  8  1  0  0  0  0
  4 15  1  0  0  0  0
  5 17  1  0  0  0  0
  5 14  1  0  0  0  0
  6  9  2  0  0  0  0
  6 13  1  0  0  0  0
  7 13  1  0  0  0  0
  7  1  1  0  0  0  0
  8 10  1  0  0  0  0
  9  2  1  0  0  0  0
 10 16  2  0  0  0  0
 10  9  1  0  0  0  0
 11 24  1  0  0  0  0
 11 18  2  0  0  0  0
 12 14  1  0  0  0  0
 13  5  2  0  0  0  0
 15 16  1  0  0  0  0
 16 11  1  0  0  0  0
 20 19  1  0  0  0  0
 21 20  1  0  0  0  0
 23 22  1  0  0  0  0
 23 21  1  0  0  0  0
 25 24  1  6  0  0  0
 25 30  1  0  0  0  0
 26 29  1  1  0  0  0
 27 26  1  0  0  0  0
 28 25  1  1  0  0  0
 28 27  1  0  0  0  0
 28 26  1  0  0  0  0
 30 31  1  0  0  0  0
 31 32  1  0  0  0  0
M  END
>  <MODEL>
9

>  <REMARK>
 VINA RESULT:      -6.9      3.192      5.806
  Name = 
  9 active torsions:
  status: ('A' for Active; 'I' for Inactive)
    1  A    between atoms: C_2  and  O_24
    2  A    between atoms: C_6  and  C_7
    3  A    between atoms: C_7  and  C_32
    4  A    between atoms: C_10  and  C_20
    5  A    between atoms: C_10  and  O_24
    6  A    between atoms: C_16  and  C_27
    7  A    between atoms: S_17  and  C_20
    8  A    between atoms: C_22  and  C_32
    9  A    between atoms: C_27  and  C_32
                            x       y       z     vdW  Elec       q    Type
                         _______ _______ _______ _____ _____    ______ ____

>  <TORSDO>
F 9

$$$$
