=
 OpenBabel11052413433D

 27 30  0  0  1  0  0  0  0  0999 V2000
  188.7410  177.1650  137.9250 O   0  0  0  0  0  0  0  0  0  0  0  0
  190.1340  177.3340  137.9830 C   0  0  0  0  0  2  0  0  0  0  0  0
  188.2010  178.0440  138.8780 C   0  0  0  0  0  2  0  0  0  0  0  0
  190.6710  176.7010  139.2630 C   0  0  0  0  0  2  0  0  0  0  0  0
  190.0060  177.3510  140.4850 C   0  0  1  0  0  3  0  0  0  0  0  0
  188.4880  177.5390  140.2940 C   0  0  1  0  0  3  0  0  0  0  0  0
  187.9360  178.5640  141.2760 C   0  0  0  0  0  2  0  0  0  0  0  0
  187.3760  177.9390  143.4370 C   0  0  0  0  0  2  0  0  0  0  0  0
  183.4430  179.1960  142.8220 O   0  0  0  0  0  0  0  0  0  0  0  0
  183.1920  177.6170  140.8430 C   0  0  0  0  0  2  0  0  0  0  0  0
  186.3210  177.4560  144.4380 C   0  0  0  0  0  2  0  0  0  0  0  0
  185.1870  179.2690  140.6460 C   0  0  0  0  0  2  0  0  0  0  0  0
  184.3310  178.1830  139.9840 C   0  0  0  0  0  2  0  0  0  0  0  0
  185.7150  178.9410  142.0580 C   0  0  1  0  0  3  0  0  0  0  0  0
  182.5700  178.6050  141.8650 C   0  0  0  0  0  2  0  0  0  0  0  0
  184.6010  178.4160  142.9620 C   0  0  1  0  0  3  0  0  0  0  0  0
  186.8480  177.9980  142.0680 N   0  0  0  0  0  0  0  0  0  0  0  0
  185.0940  178.3640  144.3940 C   0  0  0  0  0  2  0  0  0  0  0  0
  190.3450  176.5600  141.7480 C   0  0  0  0  0  2  0  0  0  0  0  0
  191.5160  177.1700  142.5110 C   0  0  0  0  0  2  0  0  0  0  0  0
  191.0130  178.2500  143.4520 C   0  0  0  0  0  2  0  0  0  0  0  0
  190.9850  176.6980  147.4650 C   0  0  0  0  0  2  0  0  0  0  0  0
  191.1880  177.8420  144.9060 C   0  0  0  0  0  3  0  0  0  0  0  0
  191.7040  176.4070  145.0140 C   0  0  0  0  0  2  0  0  0  0  0  0
  191.9430  176.0140  146.4790 C   0  0  0  0  0  2  0  0  0  0  0  0
  189.6530  177.0310  146.8020 C   0  0  0  0  0  2  0  0  0  0  0  0
  189.8480  178.0090  145.6360 C   0  0  0  0  0  2  0  0  0  0  0  0
  1  2  1  0  0  0  0
  1  3  1  0  0  0  0
  2  4  1  0  0  0  0
  3  6  1  0  0  0  0
  4  5  1  0  0  0  0
  5 19  1  1  0  0  0
  6  5  1  0  0  0  0
  6  7  1  1  0  0  0
  7 17  1  0  0  0  0
  8 11  1  0  0  0  0
  9 16  1  0  0  0  0
 10 15  1  0  0  0  0
 13 12  1  0  0  0  0
 13 10  1  0  0  0  0
 14 12  1  6  0  0  0
 14 17  1  0  0  0  0
 14 16  1  0  0  0  0
 15  9  1  0  0  0  0
 16 18  1  1  0  0  0
 17  8  1  0  0  0  0
 18 11  1  0  0  0  0
 19 20  1  0  0  0  0
 20 21  1  0  0  0  0
 21 23  1  0  0  0  0
 23 24  1  0  0  0  0
 23 27  1  0  0  0  0
 24 25  1  0  0  0  0
 25 22  1  0  0  0  0
 26 22  1  0  0  0  0
 27 26  1  0  0  0  0
M  END
>  <MODEL>
1

>  <REMARK>
 VINA RESULT:      -8.2      0.000      0.000
  Name = 
  6 active torsions:
  status: ('A' for Active; 'I' for Inactive)
    1  A    between atoms: C_1  and  C_15
    2  A    between atoms: C_1  and  C_18
    3  A    between atoms: C_3  and  N_19
    4  A    between atoms: C_3  and  C_26
    5  A    between atoms: C_9  and  C_15
    6  A    between atoms: C_18  and  C_24
                            x       y       z     vdW  Elec       q    Type
                         _______ _______ _______ _____ _____    ______ ____

>  <TORSDO>
F 6

$$$$
=
 OpenBabel11052413433D

 27 30  0  0  1  0  0  0  0  0999 V2000
  183.8350  179.3940  145.6220 O   0  0  0  0  0  0  0  0  0  0  0  0
  184.6490  178.4180  146.2180 C   0  0  0  0  0  2  0  0  0  0  0  0
  183.3330  178.8180  144.4450 C   0  0  0  0  0  2  0  0  0  0  0  0
  185.9410  178.2750  145.4190 C   0  0  0  0  0  2  0  0  0  0  0  0
  185.6170  177.8840  143.9700 C   0  0  1  0  0  3  0  0  0  0  0  0
  184.4380  178.6940  143.3950 C   0  0  1  0  0  3  0  0  0  0  0  0
  183.8470  178.0060  142.1710 C   0  0  0  0  0  2  0  0  0  0  0  0
  184.3280  178.9660  140.1170 C   0  0  0  0  0  2  0  0  0  0  0  0
  180.2590  179.1390  139.2030 O   0  0  0  0  0  0  0  0  0  0  0  0
  179.7970  180.5340  141.2790 C   0  0  0  0  0  2  0  0  0  0  0  0
  183.9080  179.8740  138.9550 C   0  0  0  0  0  2  0  0  0  0  0  0
  180.9830  178.2720  141.7530 C   0  0  0  0  0  2  0  0  0  0  0  0
  180.3170  179.5320  142.3190 C   0  0  0  0  0  2  0  0  0  0  0  0
  182.0600  178.5080  140.6750 C   0  0  1  0  0  3  0  0  0  0  0  0
  179.3210  179.9200  139.9370 C   0  0  0  0  0  2  0  0  0  0  0  0
  181.5660  179.4670  139.5930 C   0  0  1  0  0  3  0  0  0  0  0  0
  183.3480  178.9850  141.2110 N   0  0  0  0  0  0  0  0  0  0  0  0
  182.5370  179.4590  138.4290 C   0  0  0  0  0  2  0  0  0  0  0  0
  186.8750  177.9840  143.1070 C   0  0  0  0  0  2  0  0  0  0  0  0
  188.0360  177.1860  143.6900 C   0  0  0  0  0  2  0  0  0  0  0  0
  189.2920  178.0380  143.7070 C   0  0  0  0  0  2  0  0  0  0  0  0
  191.2240  176.8020  147.3480 C   0  0  0  0  0  2  0  0  0  0  0  0
  190.1170  177.7840  144.9580 C   0  0  0  0  0  3  0  0  0  0  0  0
  190.9700  176.5240  144.8050 C   0  0  0  0  0  2  0  0  0  0  0  0
  191.8530  176.3010  146.0400 C   0  0  0  0  0  2  0  0  0  0  0  0
  189.7010  176.7640  147.2800 C   0  0  0  0  0  2  0  0  0  0  0  0
  189.1760  177.6770  146.1660 C   0  0  0  0  0  2  0  0  0  0  0  0
  1  2  1  0  0  0  0
  3  1  1  0  0  0  0
  4  2  1  0  0  0  0
  5 19  1  6  0  0  0
  5  4  1  0  0  0  0
  6  7  1  6  0  0  0
  6  5  1  0  0  0  0
  6  3  1  0  0  0  0
  8 17  1  0  0  0  0
  9 16  1  0  0  0  0
  9 15  1  0  0  0  0
 10 13  1  0  0  0  0
 11  8  1  0  0  0  0
 12 13  1  0  0  0  0
 14 17  1  0  0  0  0
 14 12  1  1  0  0  0
 15 10  1  0  0  0  0
 16 18  1  6  0  0  0
 16 14  1  0  0  0  0
 17  7  1  0  0  0  0
 18 11  1  0  0  0  0
 19 20  1  0  0  0  0
 20 21  1  0  0  0  0
 21 23  1  0  0  0  0
 23 27  1  0  0  0  0
 24 23  1  0  0  0  0
 24 25  1  0  0  0  0
 25 22  1  0  0  0  0
 26 22  1  0  0  0  0
 27 26  1  0  0  0  0
M  END
>  <MODEL>
2

>  <REMARK>
 VINA RESULT:      -8.1      2.928      5.012
  Name = 
  6 active torsions:
  status: ('A' for Active; 'I' for Inactive)
    1  A    between atoms: C_1  and  C_15
    2  A    between atoms: C_1  and  C_18
    3  A    between atoms: C_3  and  N_19
    4  A    between atoms: C_3  and  C_26
    5  A    between atoms: C_9  and  C_15
    6  A    between atoms: C_18  and  C_24
                            x       y       z     vdW  Elec       q    Type
                         _______ _______ _______ _____ _____    ______ ____

>  <TORSDO>
F 6

$$$$
=
 OpenBabel11052413433D

 27 30  0  0  1  0  0  0  0  0999 V2000
  188.9590  177.3150  138.4980 O   0  0  0  0  0  0  0  0  0  0  0  0
  190.2330  177.4760  139.0670 C   0  0  0  0  0  2  0  0  0  0  0  0
  188.1250  178.2460  139.1370 C   0  0  0  0  0  2  0  0  0  0  0  0
  190.2350  176.9080  140.4830 C   0  0  0  0  0  2  0  0  0  0  0  0
  189.1790  177.6280  141.3340 C   0  0  1  0  0  3  0  0  0  0  0  0
  187.8470  177.8160  140.5790 C   0  0  1  0  0  3  0  0  0  0  0  0
  186.9950  178.8960  141.2330 C   0  0  0  0  0  2  0  0  0  0  0  0
  185.7830  178.6680  143.1960 C   0  0  0  0  0  2  0  0  0  0  0  0
  182.2080  179.0600  141.0770 O   0  0  0  0  0  0  0  0  0  0  0  0
  182.8000  177.0700  139.6070 C   0  0  0  0  0  2  0  0  0  0  0  0
  184.4950  178.2380  143.9070 C   0  0  0  0  0  2  0  0  0  0  0  0
  184.5810  178.9600  139.6150 C   0  0  0  0  0  2  0  0  0  0  0  0
  184.1090  177.6240  139.0290 C   0  0  0  0  0  2  0  0  0  0  0  0
  184.6170  179.0430  141.1550 C   0  0  1  0  0  3  0  0  0  0  0  0
  181.7760  178.1330  140.0860 C   0  0  0  0  0  2  0  0  0  0  0  0
  183.3110  178.5410  141.7710 C   0  0  1  0  0  3  0  0  0  0  0  0
  185.7580  178.3360  141.7650 N   0  0  0  0  0  0  0  0  0  0  0  0
  183.2830  178.8880  143.2460 C   0  0  0  0  0  2  0  0  0  0  0  0
  188.9980  176.9030  142.6680 C   0  0  0  0  0  2  0  0  0  0  0  0
  189.3560  177.7900  143.8560 C   0  0  0  0  0  2  0  0  0  0  0  0
  189.9320  176.9450  144.9760 C   0  0  0  0  0  2  0  0  0  0  0  0
  187.7630  177.8030  148.5930 C   0  0  0  0  0  2  0  0  0  0  0  0
  189.0780  177.0320  146.2310 C   0  0  0  0  0  3  0  0  0  0  0  0
  187.9110  178.0000  146.0330 C   0  0  0  0  0  2  0  0  0  0  0  0
  187.0100  178.0410  147.2750 C   0  0  0  0  0  2  0  0  0  0  0  0
  189.2160  178.2530  148.4880 C   0  0  0  0  0  2  0  0  0  0  0  0
  189.9630  177.4590  147.4110 C   0  0  0  0  0  2  0  0  0  0  0  0
  1  2  1  0  0  0  0
  1  3  1  0  0  0  0
  2  4  1  0  0  0  0
  3  6  1  0  0  0  0
  4  5  1  0  0  0  0
  5 19  1  1  0  0  0
  6  7  1  1  0  0  0
  6  5  1  0  0  0  0
  7 17  1  0  0  0  0
  8 11  1  0  0  0  0
  9 16  1  0  0  0  0
 10 15  1  0  0  0  0
 13 10  1  0  0  0  0
 13 12  1  0  0  0  0
 14 12  1  6  0  0  0
 14 17  1  0  0  0  0
 14 16  1  0  0  0  0
 15  9  1  0  0  0  0
 16 18  1  1  0  0  0
 17  8  1  0  0  0  0
 18 11  1  0  0  0  0
 19 20  1  0  0  0  0
 20 21  1  0  0  0  0
 21 23  1  0  0  0  0
 23 27  1  0  0  0  0
 24 23  1  0  0  0  0
 24 25  1  0  0  0  0
 25 22  1  0  0  0  0
 26 22  1  0  0  0  0
 27 26  1  0  0  0  0
M  END
>  <MODEL>
3

>  <REMARK>
 VINA RESULT:      -7.9      1.435      2.179
  Name = 
  6 active torsions:
  status: ('A' for Active; 'I' for Inactive)
    1  A    between atoms: C_1  and  C_15
    2  A    between atoms: C_1  and  C_18
    3  A    between atoms: C_3  and  N_19
    4  A    between atoms: C_3  and  C_26
    5  A    between atoms: C_9  and  C_15
    6  A    between atoms: C_18  and  C_24
                            x       y       z     vdW  Elec       q    Type
                         _______ _______ _______ _____ _____    ______ ____

>  <TORSDO>
F 6

$$$$
=
 OpenBabel11052413433D

 27 30  0  0  1  0  0  0  0  0999 V2000
  186.2380  179.2260  140.9610 O   0  0  0  0  0  0  0  0  0  0  0  0
  184.9730  178.7860  140.5400 C   0  0  0  0  0  2  0  0  0  0  0  0
  186.6930  178.2750  141.8880 C   0  0  0  0  0  2  0  0  0  0  0  0
  183.9590  179.0010  141.6600 C   0  0  0  0  0  2  0  0  0  0  0  0
  184.3980  178.2310  142.9140 C   0  0  1  0  0  3  0  0  0  0  0  0
  185.9070  178.3840  143.1960 C   0  0  1  0  0  3  0  0  0  0  0  0
  186.4020  177.2880  144.1320 C   0  0  0  0  0  2  0  0  0  0  0  0
  186.6480  177.7320  146.3940 C   0  0  0  0  0  2  0  0  0  0  0  0
  190.6860  176.6900  146.1960 O   0  0  0  0  0  0  0  0  0  0  0  0
  191.1080  178.4540  144.4120 C   0  0  0  0  0  2  0  0  0  0  0  0
  187.5420  178.1600  147.5630 C   0  0  0  0  0  2  0  0  0  0  0  0
  189.2400  176.7520  143.8110 C   0  0  0  0  0  2  0  0  0  0  0  0
  190.1180  177.9270  143.3640 C   0  0  0  0  0  2  0  0  0  0  0  0
  188.5200  176.9270  145.1630 C   0  0  1  0  0  3  0  0  0  0  0  0
  191.6430  177.4010  145.4170 C   0  0  0  0  0  2  0  0  0  0  0  0
  189.4820  177.4090  146.2490 C   0  0  1  0  0  3  0  0  0  0  0  0
  187.3490  177.8200  145.1060 N   0  0  0  0  0  0  0  0  0  0  0  0
  188.8070  177.3090  147.6030 C   0  0  0  0  0  2  0  0  0  0  0  0
  183.5340  178.6380  144.1070 C   0  0  0  0  0  2  0  0  0  0  0  0
  182.2970  179.4200  143.6800 C   0  0  0  0  0  2  0  0  0  0  0  0
  181.0580  178.5640  143.8560 C   0  0  0  0  0  2  0  0  0  0  0  0
  178.9310  179.0830  140.1520 C   0  0  0  0  0  2  0  0  0  0  0  0
  180.1120  178.7050  142.6740 C   0  0  0  0  0  3  0  0  0  0  0  0
  180.2660  177.5310  141.7070 C   0  0  0  0  0  2  0  0  0  0  0  0
  179.2680  177.6370  140.5450 C   0  0  0  0  0  2  0  0  0  0  0  0
  180.0850  180.0260  140.4690 C   0  0  0  0  0  2  0  0  0  0  0  0
  180.3850  180.0440  141.9730 C   0  0  0  0  0  2  0  0  0  0  0  0
  1  3  1  0  0  0  0
  2  1  1  0  0  0  0
  2  4  1  0  0  0  0
  3  6  1  0  0  0  0
  4  5  1  0  0  0  0
  5  6  1  0  0  0  0
  5 19  1  1  0  0  0
  6  7  1  1  0  0  0
  7 17  1  0  0  0  0
  8 11  1  0  0  0  0
  9 16  1  0  0  0  0
 10 15  1  0  0  0  0
 11 18  1  0  0  0  0
 13 12  1  0  0  0  0
 13 10  1  0  0  0  0
 14 12  1  6  0  0  0
 14 16  1  0  0  0  0
 15  9  1  0  0  0  0
 16 18  1  1  0  0  0
 17 14  1  0  0  0  0
 17  8  1  0  0  0  0
 20 21  1  0  0  0  0
 20 19  1  0  0  0  0
 22 26  1  0  0  0  0
 22 25  1  0  0  0  0
 23 21  1  0  0  0  0
 24 23  1  0  0  0  0
 25 24  1  0  0  0  0
 26 27  1  0  0  0  0
 27 23  1  0  0  0  0
M  END
>  <MODEL>
4

>  <REMARK>
 VINA RESULT:      -7.8      2.668      8.145
  Name = 
  6 active torsions:
  status: ('A' for Active; 'I' for Inactive)
    1  A    between atoms: C_1  and  C_15
    2  A    between atoms: C_1  and  C_18
    3  A    between atoms: C_3  and  N_19
    4  A    between atoms: C_3  and  C_26
    5  A    between atoms: C_9  and  C_15
    6  A    between atoms: C_18  and  C_24
                            x       y       z     vdW  Elec       q    Type
                         _______ _______ _______ _____ _____    ______ ____

>  <TORSDO>
F 6

$$$$
=
 OpenBabel11052413433D

 27 30  0  0  1  0  0  0  0  0999 V2000
  192.0030  176.8910  142.0580 O   0  0  0  0  0  0  0  0  0  0  0  0
  191.7010  177.7430  143.1330 C   0  0  0  0  0  2  0  0  0  0  0  0
  191.4680  177.5030  140.9130 C   0  0  0  0  0  2  0  0  0  0  0  0
  190.2120  177.6520  143.4530 C   0  0  0  0  0  2  0  0  0  0  0  0
  189.3890  178.0440  142.2180 C   0  0  1  0  0  3  0  0  0  0  0  0
  189.9410  177.4150  140.9230 C   0  0  1  0  0  3  0  0  0  0  0  0
  189.4230  178.1500  139.6930 C   0  0  0  0  0  2  0  0  0  0  0  0
  187.3950  177.8870  138.6010 C   0  0  0  0  0  2  0  0  0  0  0  0
  189.3330  176.1210  135.3520 O   0  0  0  0  0  0  0  0  0  0  0  0
  190.3130  174.3140  136.8520 C   0  0  0  0  0  2  0  0  0  0  0  0
  186.5270  177.1140  137.6020 C   0  0  0  0  0  2  0  0  0  0  0  0
  190.8640  176.7390  137.6000 C   0  0  0  0  0  2  0  0  0  0  0  0
  191.0830  175.2360  137.8070 C   0  0  0  0  0  2  0  0  0  0  0  0
  189.3950  177.1980  137.5080 C   0  0  1  0  0  3  0  0  0  0  0  0
  190.0450  174.8900  135.4360 C   0  0  0  0  0  2  0  0  0  0  0  0
  188.6000  176.3330  136.5300 C   0  0  1  0  0  3  0  0  0  0  0  0
  188.7000  177.2440  138.8070 N   0  0  0  0  0  0  0  0  0  0  0  0
  187.2530  176.9740  136.2670 C   0  0  0  0  0  2  0  0  0  0  0  0
  187.9140  177.7160  142.4460 C   0  0  0  0  0  2  0  0  0  0  0  0
  187.7130  176.7550  143.6130 C   0  0  0  0  0  2  0  0  0  0  0  0
  186.8940  177.4250  144.7000 C   0  0  0  0  0  2  0  0  0  0  0  0
  189.0560  178.2530  148.3280 C   0  0  0  0  0  2  0  0  0  0  0  0
  187.7730  177.8790  145.8550 C   0  0  0  0  0  3  0  0  0  0  0  0
  188.7950  176.8020  146.2210 C   0  0  0  0  0  2  0  0  0  0  0  0
  189.7260  177.2830  147.3440 C   0  0  0  0  0  2  0  0  0  0  0  0
  187.5540  178.0050  148.4130 C   0  0  0  0  0  2  0  0  0  0  0  0
  186.8800  178.2300  147.0540 C   0  0  0  0  0  2  0  0  0  0  0  0
  1  2  1  0  0  0  0
  2  4  1  0  0  0  0
  3  6  1  0  0  0  0
  3  1  1  0  0  0  0
  5 19  1  1  0  0  0
  5  4  1  0  0  0  0
  6  7  1  6  0  0  0
  6  5  1  0  0  0  0
  8 17  1  0  0  0  0
  9 15  1  0  0  0  0
  9 16  1  0  0  0  0
 10 13  1  0  0  0  0
 11  8  1  0  0  0  0
 12 13  1  0  0  0  0
 14 12  1  1  0  0  0
 14 17  1  0  0  0  0
 15 10  1  0  0  0  0
 16 18  1  6  0  0  0
 16 14  1  0  0  0  0
 17  7  1  0  0  0  0
 18 11  1  0  0  0  0
 19 20  1  0  0  0  0
 20 21  1  0  0  0  0
 21 23  1  0  0  0  0
 22 26  1  0  0  0  0
 23 24  1  0  0  0  0
 23 27  1  0  0  0  0
 24 25  1  0  0  0  0
 25 22  1  0  0  0  0
 27 26  1  0  0  0  0
M  END
>  <MODEL>
5

>  <REMARK>
 VINA RESULT:      -7.5      2.907      5.619
  Name = 
  6 active torsions:
  status: ('A' for Active; 'I' for Inactive)
    1  A    between atoms: C_1  and  C_15
    2  A    between atoms: C_1  and  C_18
    3  A    between atoms: C_3  and  N_19
    4  A    between atoms: C_3  and  C_26
    5  A    between atoms: C_9  and  C_15
    6  A    between atoms: C_18  and  C_24
                            x       y       z     vdW  Elec       q    Type
                         _______ _______ _______ _____ _____    ______ ____

>  <TORSDO>
F 6

$$$$
=
 OpenBabel11052413433D

 27 30  0  0  1  0  0  0  0  0999 V2000
  192.1280  176.9390  142.1410 O   0  0  0  0  0  0  0  0  0  0  0  0
  191.5360  177.6510  143.1960 C   0  0  0  0  0  2  0  0  0  0  0  0
  191.7450  177.5990  140.9620 C   0  0  0  0  0  2  0  0  0  0  0  0
  190.0350  177.3810  143.2150 C   0  0  0  0  0  2  0  0  0  0  0  0
  189.4130  177.8020  141.8760 C   0  0  1  0  0  3  0  0  0  0  0  0
  190.2640  177.3570  140.6700 C   0  0  1  0  0  3  0  0  0  0  0  0
  189.8980  178.1480  139.4200 C   0  0  0  0  0  2  0  0  0  0  0  0
  190.6030  176.1000  138.5940 C   0  0  0  0  0  2  0  0  0  0  0  0
  186.9030  175.5290  136.7470 O   0  0  0  0  0  0  0  0  0  0  0  0
  187.1670  177.6900  135.4310 C   0  0  0  0  0  2  0  0  0  0  0  0
  190.5170  175.0130  137.5170 C   0  0  0  0  0  2  0  0  0  0  0  0
  187.3650  177.9760  138.0040 C   0  0  0  0  0  2  0  0  0  0  0  0
  187.2990  178.6440  136.6260 C   0  0  0  0  0  2  0  0  0  0  0  0
  188.3800  176.8230  138.1450 C   0  0  1  0  0  3  0  0  0  0  0  0
  186.4050  176.3680  135.7100 C   0  0  0  0  0  2  0  0  0  0  0  0
  188.2520  175.8230  136.9960 C   0  0  1  0  0  3  0  0  0  0  0  0
  189.7800  177.2710  138.2610 N   0  0  0  0  0  0  0  0  0  0  0  0
  189.0670  174.5850  137.3110 C   0  0  0  0  0  2  0  0  0  0  0  0
  187.9690  177.3070  141.7910 C   0  0  0  0  0  2  0  0  0  0  0  0
  186.9640  178.4510  141.8750 C   0  0  0  0  0  2  0  0  0  0  0  0
  185.7940  178.0470  142.7520 C   0  0  0  0  0  2  0  0  0  0  0  0
  185.9960  178.6750  147.0040 C   0  0  0  0  0  2  0  0  0  0  0  0
  186.0310  178.4270  144.2050 C   0  0  0  0  0  3  0  0  0  0  0  0
  186.7220  177.2930  144.9620 C   0  0  0  0  0  2  0  0  0  0  0  0
  187.0220  177.6980  146.4110 C   0  0  0  0  0  2  0  0  0  0  0  0
  184.6280  178.5000  146.3570 C   0  0  0  0  0  2  0  0  0  0  0  0
  184.6880  178.7930  144.8520 C   0  0  0  0  0  2  0  0  0  0  0  0
  1  2  1  0  0  0  0
  2  4  1  0  0  0  0
  3  1  1  0  0  0  0
  5 19  1  6  0  0  0
  5  4  1  0  0  0  0
  6  7  1  6  0  0  0
  6  3  1  0  0  0  0
  6  5  1  0  0  0  0
  9 16  1  0  0  0  0
 10 15  1  0  0  0  0
 10 13  1  0  0  0  0
 11  8  1  0  0  0  0
 13 12  1  0  0  0  0
 14 12  1  6  0  0  0
 14 17  1  0  0  0  0
 15  9  1  0  0  0  0
 16 18  1  1  0  0  0
 16 14  1  0  0  0  0
 17  8  1  0  0  0  0
 17  7  1  0  0  0  0
 18 11  1  0  0  0  0
 19 20  1  0  0  0  0
 20 21  1  0  0  0  0
 21 23  1  0  0  0  0
 23 27  1  0  0  0  0
 23 24  1  0  0  0  0
 24 25  1  0  0  0  0
 25 22  1  0  0  0  0
 26 22  1  0  0  0  0
 27 26  1  0  0  0  0
M  END
>  <MODEL>
6

>  <REMARK>
 VINA RESULT:      -7.3      2.735      5.513
  Name = 
  6 active torsions:
  status: ('A' for Active; 'I' for Inactive)
    1  A    between atoms: C_1  and  C_15
    2  A    between atoms: C_1  and  C_18
    3  A    between atoms: C_3  and  N_19
    4  A    between atoms: C_3  and  C_26
    5  A    between atoms: C_9  and  C_15
    6  A    between atoms: C_18  and  C_24
                            x       y       z     vdW  Elec       q    Type
                         _______ _______ _______ _____ _____    ______ ____

>  <TORSDO>
F 6

$$$$
=
 OpenBabel11052413433D

 27 30  0  0  1  0  0  0  0  0999 V2000
  191.7420  176.5510  143.3020 O   0  0  0  0  0  0  0  0  0  0  0  0
  191.2700  176.9950  144.5480 C   0  0  0  0  0  2  0  0  0  0  0  0
  191.2500  177.4610  142.3520 C   0  0  0  0  0  2  0  0  0  0  0  0
  189.7750  176.7120  144.6570 C   0  0  0  0  0  2  0  0  0  0  0  0
  189.0260  177.4240  143.5220 C   0  0  1  0  0  3  0  0  0  0  0  0
  189.7430  177.2770  142.1650 C   0  0  1  0  0  3  0  0  0  0  0  0
  189.2630  178.3310  141.1750 C   0  0  0  0  0  2  0  0  0  0  0  0
  187.3170  178.4160  139.9190 C   0  0  0  0  0  2  0  0  0  0  0  0
  189.4730  177.5450  136.4520 O   0  0  0  0  0  0  0  0  0  0  0  0
  190.3390  175.3810  137.4710 C   0  0  0  0  0  2  0  0  0  0  0  0
  186.5190  177.9600  138.6920 C   0  0  0  0  0  2  0  0  0  0  0  0
  190.8440  177.5030  138.8810 C   0  0  0  0  0  2  0  0  0  0  0  0
  191.0430  175.9950  138.6890 C   0  0  0  0  0  2  0  0  0  0  0  0
  189.3860  178.0020  138.8170 C   0  0  1  0  0  3  0  0  0  0  0  0
  190.1730  176.3220  136.2480 C   0  0  0  0  0  2  0  0  0  0  0  0
  188.6600  177.4490  137.5910 C   0  0  1  0  0  3  0  0  0  0  0  0
  188.6010  177.7130  140.0310 N   0  0  0  0  0  0  0  0  0  0  0  0
  187.3360  178.1680  137.4210 C   0  0  0  0  0  2  0  0  0  0  0  0
  187.5740  176.9470  143.4720 C   0  0  0  0  0  2  0  0  0  0  0  0
  186.8500  177.1760  144.7940 C   0  0  0  0  0  2  0  0  0  0  0  0
  186.0400  178.4570  144.7250 C   0  0  0  0  0  2  0  0  0  0  0  0
  182.3900  178.5930  142.4490 C   0  0  0  0  0  2  0  0  0  0  0  0
  184.7860  178.2760  143.8840 C   0  0  0  0  0  3  0  0  0  0  0  0
  184.9320  178.9690  142.5280 C   0  0  0  0  0  2  0  0  0  0  0  0
  183.6950  178.7330  141.6510 C   0  0  0  0  0  2  0  0  0  0  0  0
  182.4600  179.3620  143.7630 C   0  0  0  0  0  2  0  0  0  0  0  0
  183.5790  178.8200  144.6600 C   0  0  0  0  0  2  0  0  0  0  0  0
  1  2  1  0  0  0  0
  2  4  1  0  0  0  0
  3  1  1  0  0  0  0
  5 19  1  6  0  0  0
  5  4  1  0  0  0  0
  6  7  1  6  0  0  0
  6  3  1  0  0  0  0
  6  5  1  0  0  0  0
  8 17  1  0  0  0  0
  9 16  1  0  0  0  0
 10 13  1  0  0  0  0
 11  8  1  0  0  0  0
 13 12  1  0  0  0  0
 14 12  1  1  0  0  0
 14 17  1  0  0  0  0
 15  9  1  0  0  0  0
 15 10  1  0  0  0  0
 16 18  1  6  0  0  0
 16 14  1  0  0  0  0
 17  7  1  0  0  0  0
 18 11  1  0  0  0  0
 19 20  1  0  0  0  0
 21 20  1  0  0  0  0
 22 26  1  0  0  0  0
 23 27  1  0  0  0  0
 23 21  1  0  0  0  0
 24 23  1  0  0  0  0
 25 22  1  0  0  0  0
 25 24  1  0  0  0  0
 26 27  1  0  0  0  0
M  END
>  <MODEL>
7

>  <REMARK>
 VINA RESULT:      -7.3      2.231      6.483
  Name = 
  6 active torsions:
  status: ('A' for Active; 'I' for Inactive)
    1  A    between atoms: C_1  and  C_15
    2  A    between atoms: C_1  and  C_18
    3  A    between atoms: C_3  and  N_19
    4  A    between atoms: C_3  and  C_26
    5  A    between atoms: C_9  and  C_15
    6  A    between atoms: C_18  and  C_24
                            x       y       z     vdW  Elec       q    Type
                         _______ _______ _______ _____ _____    ______ ____

>  <TORSDO>
F 6

$$$$
=
 OpenBabel11052413433D

 27 30  0  0  1  0  0  0  0  0999 V2000
  184.6230  178.0720  146.1990 O   0  0  0  0  0  0  0  0  0  0  0  0
  183.8140  179.0030  145.5260 C   0  0  0  0  0  2  0  0  0  0  0  0
  185.9420  178.3390  145.7980 C   0  0  0  0  0  2  0  0  0  0  0  0
  183.7250  178.6270  144.0500 C   0  0  0  0  0  2  0  0  0  0  0  0
  185.1310  178.6020  143.4340 C   0  0  1  0  0  3  0  0  0  0  0  0
  186.1580  177.9050  144.3470 C   0  0  1  0  0  3  0  0  0  0  0  0
  187.5820  178.2790  143.9550 C   0  0  0  0  0  2  0  0  0  0  0  0
  188.8900  176.7450  142.8110 C   0  0  0  0  0  2  0  0  0  0  0  0
  191.7790  176.9090  145.8200 O   0  0  0  0  0  0  0  0  0  0  0  0
  190.0730  176.2020  147.5690 C   0  0  0  0  0  2  0  0  0  0  0  0
  189.9400  175.6280  142.8380 C   0  0  0  0  0  2  0  0  0  0  0  0
  189.4050  178.3180  146.2190 C   0  0  0  0  0  2  0  0  0  0  0  0
  189.0870  177.3630  147.3760 C   0  0  0  0  0  2  0  0  0  0  0  0
  189.6970  177.6520  144.8590 C   0  0  1  0  0  3  0  0  0  0  0  0
  191.5410  176.4950  147.1610 C   0  0  0  0  0  2  0  0  0  0  0  0
  190.7110  176.5170  144.9990 C   0  0  1  0  0  3  0  0  0  0  0  0
  188.4940  177.1600  144.1630 N   0  0  0  0  0  0  0  0  0  0  0  0
  191.1690  176.0750  143.6240 C   0  0  0  0  0  2  0  0  0  0  0  0
  185.0780  177.9870  142.0350 C   0  0  0  0  0  2  0  0  0  0  0  0
  185.4050  179.0050  140.9480 C   0  0  0  0  0  2  0  0  0  0  0  0
  184.3150  179.0030  139.8920 C   0  0  0  0  0  2  0  0  0  0  0  0
  181.3940  175.8430  139.8370 C   0  0  0  0  0  2  0  0  0  0  0  0
  183.4340  177.7680  140.0080 C   0  0  0  0  0  3  0  0  0  0  0  0
  183.3600  177.0230  138.6740 C   0  0  0  0  0  2  0  0  0  0  0  0
  182.5250  175.7410  138.8040 C   0  0  0  0  0  2  0  0  0  0  0  0
  180.9110  177.2810  139.9890 C   0  0  0  0  0  2  0  0  0  0  0  0
  182.0390  178.1910  140.4890 C   0  0  0  0  0  2  0  0  0  0  0  0
  2  1  1  0  0  0  0
  3  1  1  0  0  0  0
  4  2  1  0  0  0  0
  5 19  1  6  0  0  0
  5  4  1  0  0  0  0
  5  6  1  0  0  0  0
  6  7  1  6  0  0  0
  6  3  1  0  0  0  0
  7 17  1  0  0  0  0
  8 11  1  0  0  0  0
  8 17  1  0  0  0  0
  9 15  1  0  0  0  0
 11 18  1  0  0  0  0
 12 13  1  0  0  0  0
 13 10  1  0  0  0  0
 14 16  1  0  0  0  0
 14 12  1  1  0  0  0
 15 10  1  0  0  0  0
 16 18  1  6  0  0  0
 16  9  1  0  0  0  0
 17 14  1  0  0  0  0
 20 19  1  0  0  0  0
 21 23  1  0  0  0  0
 21 20  1  0  0  0  0
 22 26  1  0  0  0  0
 23 27  1  0  0  0  0
 24 25  1  0  0  0  0
 24 23  1  0  0  0  0
 25 22  1  0  0  0  0
 26 27  1  0  0  0  0
M  END
>  <MODEL>
8

>  <REMARK>
 VINA RESULT:      -7.2      2.645      8.107
  Name = 
  6 active torsions:
  status: ('A' for Active; 'I' for Inactive)
    1  A    between atoms: C_1  and  C_15
    2  A    between atoms: C_1  and  C_18
    3  A    between atoms: C_3  and  N_19
    4  A    between atoms: C_3  and  C_26
    5  A    between atoms: C_9  and  C_15
    6  A    between atoms: C_18  and  C_24
                            x       y       z     vdW  Elec       q    Type
                         _______ _______ _______ _____ _____    ______ ____

>  <TORSDO>
F 6

$$$$
=
 OpenBabel11052413433D

 27 30  0  0  1  0  0  0  0  0999 V2000
  184.7140  178.0930  146.2190 O   0  0  0  0  0  0  0  0  0  0  0  0
  183.9120  179.0030  145.5110 C   0  0  0  0  0  2  0  0  0  0  0  0
  186.0380  178.3620  145.8390 C   0  0  0  0  0  2  0  0  0  0  0  0
  183.8550  178.5950  144.0420 C   0  0  0  0  0  2  0  0  0  0  0  0
  185.2730  178.5680  143.4540 C   0  0  1  0  0  3  0  0  0  0  0  0
  186.2870  177.8990  144.4030 C   0  0  1  0  0  3  0  0  0  0  0  0
  187.7160  178.2750  144.0300 C   0  0  0  0  0  2  0  0  0  0  0  0
  189.0030  176.7540  142.8460 C   0  0  0  0  0  2  0  0  0  0  0  0
  191.9130  176.8320  145.8380 O   0  0  0  0  0  0  0  0  0  0  0  0
  190.2130  176.1040  147.5850 C   0  0  0  0  0  2  0  0  0  0  0  0
  190.0430  175.6280  142.8440 C   0  0  0  0  0  2  0  0  0  0  0  0
  189.5540  178.2530  146.2820 C   0  0  0  0  0  2  0  0  0  0  0  0
  189.2360  177.2770  147.4220 C   0  0  0  0  0  2  0  0  0  0  0  0
  189.8310  177.6120  144.9070 C   0  0  1  0  0  3  0  0  0  0  0  0
  191.6810  176.3930  147.1730 C   0  0  0  0  0  2  0  0  0  0  0  0
  190.8360  176.4660  145.0170 C   0  0  1  0  0  3  0  0  0  0  0  0
  188.6190  177.1440  144.2100 N   0  0  0  0  0  0  0  0  0  0  0  0
  191.2810  176.0480  143.6300 C   0  0  0  0  0  2  0  0  0  0  0  0
  185.2520  177.9230  142.0680 C   0  0  0  0  0  2  0  0  0  0  0  0
  185.6260  178.9130  140.9690 C   0  0  0  0  0  2  0  0  0  0  0  0
  184.4200  179.1920  140.0930 C   0  0  0  0  0  2  0  0  0  0  0  0
  185.2680  177.1280  136.4130 C   0  0  0  0  0  2  0  0  0  0  0  0
  184.6170  178.6460  138.6870 C   0  0  0  0  0  3  0  0  0  0  0  0
  183.7140  177.4380  138.4370 C   0  0  0  0  0  2  0  0  0  0  0  0
  183.8630  176.9250  136.9990 C   0  0  0  0  0  2  0  0  0  0  0  0
  186.3280  177.1330  137.5090 C   0  0  0  0  0  2  0  0  0  0  0  0
  186.0970  178.2850  138.4940 C   0  0  0  0  0  2  0  0  0  0  0  0
  2  1  1  0  0  0  0
  3  1  1  0  0  0  0
  4  2  1  0  0  0  0
  5 19  1  6  0  0  0
  5  4  1  0  0  0  0
  5  6  1  0  0  0  0
  6  7  1  6  0  0  0
  6  3  1  0  0  0  0
  7 17  1  0  0  0  0
  8 17  1  0  0  0  0
  9 15  1  0  0  0  0
 11  8  1  0  0  0  0
 11 18  1  0  0  0  0
 12 13  1  0  0  0  0
 13 10  1  0  0  0  0
 14 16  1  0  0  0  0
 14 12  1  1  0  0  0
 15 10  1  0  0  0  0
 16 18  1  6  0  0  0
 16  9  1  0  0  0  0
 17 14  1  0  0  0  0
 20 19  1  0  0  0  0
 21 20  1  0  0  0  0
 22 25  1  0  0  0  0
 22 26  1  0  0  0  0
 23 21  1  0  0  0  0
 24 23  1  0  0  0  0
 25 24  1  0  0  0  0
 26 27  1  0  0  0  0
 27 23  1  0  0  0  0
M  END
>  <MODEL>
9

>  <REMARK>
 VINA RESULT:      -7.2      2.576      8.033
  Name = 
  6 active torsions:
  status: ('A' for Active; 'I' for Inactive)
    1  A    between atoms: C_1  and  C_15
    2  A    between atoms: C_1  and  C_18
    3  A    between atoms: C_3  and  N_19
    4  A    between atoms: C_3  and  C_26
    5  A    between atoms: C_9  and  C_15
    6  A    between atoms: C_18  and  C_24
                            x       y       z     vdW  Elec       q    Type
                         _______ _______ _______ _____ _____    ______ ____

>  <TORSDO>
F 6

$$$$
