=
 OpenBabel11052413023D

 31 34  0  0  1  0  0  0  0  0999 V2000
  183.4620  178.7770  144.4170 C   0  0  0  0  0  0  0  0  0  0  0  0
  187.1410  178.0840  143.9150 C   0  0  0  0  0  0  0  0  0  0  0  0
  187.6920  177.8380  145.2230 C   0  0  0  0  0  0  0  0  0  0  0  0
  187.3090  178.4010  147.6680 C   0  0  0  0  0  2  0  0  0  0  0  0
  185.7570  178.3740  143.6650 C   0  0  0  0  0  0  0  0  0  0  0  0
  183.0420  178.9410  143.1000 C   0  0  0  0  0  3  0  0  0  0  0  0
  186.7830  177.6990  146.4250 C   0  0  0  0  0  2  0  0  0  0  0  0
  187.5480  178.2430  141.4800 C   0  0  0  0  0  0  0  0  0  0  0  0
  182.5710  178.8890  145.4320 F   0  0  0  0  0  0  0  0  0  0  0  0
  189.9080  177.5820  144.2320 C   0  0  0  0  0  3  0  0  0  0  0  0
  188.1370  177.4370  148.5140 C   0  0  0  0  0  2  0  0  0  0  0  0
  186.1960  178.4980  141.2710 C   0  0  0  0  0  3  0  0  0  0  0  0
  188.0210  178.0420  142.7890 C   0  0  0  0  0  0  0  0  0  0  0  0
  184.8030  178.4980  144.6910 C   0  0  0  0  0  3  0  0  0  0  0  0
  189.0870  176.5780  147.6810 C   0  0  0  0  0  2  0  0  0  0  0  0
  185.3080  178.5650  142.3330 C   0  0  0  0  0  0  0  0  0  0  0  0
  183.9640  178.8380  142.0600 C   0  0  0  0  0  3  0  0  0  0  0  0
  189.3810  177.7940  142.9710 C   0  0  0  0  0  3  0  0  0  0  0  0
  189.0930  177.5860  145.3560 C   0  0  0  0  0  0  0  0  0  0  0  0
  189.8280  177.4300  146.6630 C   0  0  0  0  0  2  0  0  0  0  0  0
  186.9530  178.3820  138.5880 O   0  0  0  0  0  0  0  0  0  0  0  0
  188.1470  178.3270  138.9790 C   0  0  0  0  0  0  0  0  0  0  0  0
  188.4650  178.2020  140.3730 N   0  0  0  0  0  2  0  0  0  0  0  0
  189.1080  179.5540  137.1950 O   0  0  0  0  0  1  0  0  0  0  0  0
  189.2450  178.4020  137.9710 C   0  0  2  0  0  3  0  0  0  0  0  0
  189.7850  174.6930  136.9080 C   0  0  0  0  0  0  0  0  0  0  0  0
  188.8680  177.2970  135.9010 O   0  0  0  0  0  0  0  0  0  0  0  0
  189.4550  174.5910  135.4580 C   0  0  0  0  0  1  0  0  0  0  0  0
  190.1690  173.6620  137.5160 O   0  0  0  0  0  0  0  0  0  0  0  0
  189.2460  177.1890  137.0980 C   0  0  0  0  0  0  0  0  0  0  0  0
  189.6790  175.9280  137.6280 N   0  0  0  0  0  2  0  0  0  0  0  0
  1 14  1  0  0  0  0
  1  9  1  0  0  0  0
  2  3  1  0  0  0  0
  3 19  2  0  0  0  0
  3  7  1  0  0  0  0
  4 11  1  0  0  0  0
  5  2  1  0  0  0  0
  5 14  2  0  0  0  0
  6  1  2  0  0  0  0
  7  4  1  0  0  0  0
  8 13  1  0  0  0  0
 10 19  1  0  0  0  0
 12  8  2  0  0  0  0
 12 16  1  0  0  0  0
 13 18  1  0  0  0  0
 13  2  2  0  0  0  0
 15 11  1  0  0  0  0
 16  5  1  0  0  0  0
 17 16  2  0  0  0  0
 17  6  1  0  0  0  0
 18 10  2  0  0  0  0
 19 20  1  0  0  0  0
 20 15  1  0  0  0  0
 21 22  2  0  0  0  0
 22 23  1  0  0  0  0
 23  8  1  0  0  0  0
 25 24  1  6  0  0  0
 25 22  1  0  0  0  0
 26 29  2  0  0  0  0
 26 31  1  0  0  0  0
 27 30  2  0  0  0  0
 28 26  1  0  0  0  0
 30 31  1  0  0  0  0
 30 25  1  0  0  0  0
M  END
>  <MODEL>
1

>  <REMARK>
 VINA RESULT:     -11.6      0.000      0.000
  Name = 
  3 active torsions:
  status: ('A' for Active; 'I' for Inactive)
    1  A    between atoms: C_9  and  C_22
    2  A    between atoms: C_15  and  N_23
    3  A    between atoms: C_19  and  C_22
                            x       y       z     vdW  Elec       q    Type
                         _______ _______ _______ _____ _____    ______ ____

>  <TORSDO>
F 3

$$$$
=
 OpenBabel11052413023D

 31 34  0  0  1  0  0  0  0  0999 V2000
  183.5010  178.7300  144.1600 C   0  0  0  0  0  0  0  0  0  0  0  0
  187.2070  178.0880  143.8110 C   0  0  0  0  0  0  0  0  0  0  0  0
  187.7060  177.8480  145.1410 C   0  0  0  0  0  0  0  0  0  0  0  0
  187.2140  178.4030  147.5680 C   0  0  0  0  0  2  0  0  0  0  0  0
  185.8310  178.3590  143.5040 C   0  0  0  0  0  0  0  0  0  0  0  0
  183.1340  178.8900  142.8270 C   0  0  0  0  0  3  0  0  0  0  0  0
  186.7500  177.6960  146.3050 C   0  0  0  0  0  2  0  0  0  0  0  0
  187.7120  178.2540  141.3950 C   0  0  0  0  0  0  0  0  0  0  0  0
  182.5680  178.8290  145.1370 F   0  0  0  0  0  0  0  0  0  0  0  0
  189.9650  177.6220  144.2420 C   0  0  0  0  0  3  0  0  0  0  0  0
  188.0190  177.4500  148.4480 C   0  0  0  0  0  2  0  0  0  0  0  0
  186.3670  178.4910  141.1300 C   0  0  0  0  0  3  0  0  0  0  0  0
  188.1330  178.0580  142.7230 C   0  0  0  0  0  0  0  0  0  0  0  0
  184.8330  178.4690  144.4900 C   0  0  0  0  0  3  0  0  0  0  0  0
  189.0150  176.6050  147.6540 C   0  0  0  0  0  2  0  0  0  0  0  0
  185.4340  178.5450  142.1540 C   0  0  0  0  0  0  0  0  0  0  0  0
  184.1000  178.7990  141.8260 C   0  0  0  0  0  3  0  0  0  0  0  0
  189.4880  177.8290  142.9620 C   0  0  0  0  0  3  0  0  0  0  0  0
  189.1040  177.6150  145.3320 C   0  0  0  0  0  0  0  0  0  0  0  0
  189.7860  177.4680  146.6690 C   0  0  0  0  0  2  0  0  0  0  0  0
  187.2290  178.2390  138.4800 O   0  0  0  0  0  0  0  0  0  0  0  0
  188.4080  178.2750  138.9190 C   0  0  0  0  0  0  0  0  0  0  0  0
  188.6760  178.2260  140.3270 N   0  0  0  0  0  2  0  0  0  0  0  0
  189.0710  178.7940  136.7030 O   0  0  0  0  0  1  0  0  0  0  0  0
  189.5400  178.3780  137.9510 C   0  0  2  0  0  3  0  0  0  0  0  0
  192.4880  175.8320  137.9410 C   0  0  0  0  0  0  0  0  0  0  0  0
  189.5910  176.0460  137.4970 O   0  0  0  0  0  0  0  0  0  0  0  0
  191.9420  174.5170  137.5000 C   0  0  0  0  0  1  0  0  0  0  0  0
  193.7140  175.9210  138.2070 O   0  0  0  0  0  0  0  0  0  0  0  0
  190.2490  177.0690  137.8250 C   0  0  0  0  0  0  0  0  0  0  0  0
  191.6610  176.9950  138.0710 N   0  0  0  0  0  2  0  0  0  0  0  0
  1 14  1  0  0  0  0
  1  9  1  0  0  0  0
  2  3  1  0  0  0  0
  3 19  2  0  0  0  0
  3  7  1  0  0  0  0
  4 11  1  0  0  0  0
  5  2  1  0  0  0  0
  5 14  2  0  0  0  0
  6  1  2  0  0  0  0
  7  4  1  0  0  0  0
  8 13  1  0  0  0  0
 10 19  1  0  0  0  0
 12  8  2  0  0  0  0
 12 16  1  0  0  0  0
 13 18  1  0  0  0  0
 13  2  2  0  0  0  0
 15 11  1  0  0  0  0
 16  5  1  0  0  0  0
 17 16  2  0  0  0  0
 17  6  1  0  0  0  0
 18 10  2  0  0  0  0
 19 20  1  0  0  0  0
 20 15  1  0  0  0  0
 21 22  2  0  0  0  0
 22 23  1  0  0  0  0
 23  8  1  0  0  0  0
 25 24  1  6  0  0  0
 25 22  1  0  0  0  0
 26 31  1  0  0  0  0
 26 29  2  0  0  0  0
 27 30  2  0  0  0  0
 28 26  1  0  0  0  0
 30 25  1  0  0  0  0
 30 31  1  0  0  0  0
M  END
>  <MODEL>
2

>  <REMARK>
 VINA RESULT:     -11.5      1.219      1.288
  Name = 
  3 active torsions:
  status: ('A' for Active; 'I' for Inactive)
    1  A    between atoms: C_9  and  C_22
    2  A    between atoms: C_15  and  N_23
    3  A    between atoms: C_19  and  C_22
                            x       y       z     vdW  Elec       q    Type
                         _______ _______ _______ _____ _____    ______ ____

>  <TORSDO>
F 3

$$$$
=
 OpenBabel11052413023D

 31 34  0  0  1  0  0  0  0  0999 V2000
  190.0380  177.1470  147.2120 C   0  0  0  0  0  0  0  0  0  0  0  0
  188.4280  177.4580  143.8100 C   0  0  0  0  0  0  0  0  0  0  0  0
  187.1000  177.9680  144.0330 C   0  0  0  0  0  0  0  0  0  0  0  0
  185.2720  178.0240  145.7920 C   0  0  0  0  0  2  0  0  0  0  0  0
  189.3820  177.2100  144.8540 C   0  0  0  0  0  0  0  0  0  0  0  0
  191.3110  176.7060  146.8630 C   0  0  0  0  0  3  0  0  0  0  0  0
  186.6810  178.4460  145.4060 C   0  0  0  0  0  2  0  0  0  0  0  0
  190.1220  176.7030  142.1720 C   0  0  0  0  0  0  0  0  0  0  0  0
  189.7200  177.3370  148.5160 F   0  0  0  0  0  0  0  0  0  0  0  0
  186.6570  177.8370  141.6350 C   0  0  0  0  0  3  0  0  0  0  0  0
  184.2660  179.1030  145.4000 C   0  0  0  0  0  2  0  0  0  0  0  0
  191.0300  176.4960  143.2070 C   0  0  0  0  0  3  0  0  0  0  0  0
  188.8300  177.1760  142.4680 C   0  0  0  0  0  0  0  0  0  0  0  0
  189.0890  177.3940  146.2180 C   0  0  0  0  0  3  0  0  0  0  0  0
  184.5200  179.6770  144.0070 C   0  0  0  0  0  2  0  0  0  0  0  0
  190.6790  176.7400  144.5260 C   0  0  0  0  0  0  0  0  0  0  0  0
  191.6300  176.5000  145.5210 C   0  0  0  0  0  3  0  0  0  0  0  0
  187.9380  177.3690  141.4130 C   0  0  0  0  0  3  0  0  0  0  0  0
  186.2240  178.1510  142.9160 C   0  0  0  0  0  0  0  0  0  0  0  0
  184.7760  178.5620  143.0060 C   0  0  0  0  0  2  0  0  0  0  0  0
  192.3180  177.8710  140.5750 O   0  0  0  0  0  0  0  0  0  0  0  0
  191.5960  176.9670  140.0800 C   0  0  0  0  0  0  0  0  0  0  0  0
  190.4870  176.4220  140.8100 N   0  0  0  0  0  2  0  0  0  0  0  0
  193.1460  176.9440  138.2880 O   0  0  0  0  0  1  0  0  0  0  0  0
  191.9090  176.4550  138.7130 C   0  0  2  0  0  3  0  0  0  0  0  0
  189.0480  178.5620  137.1170 C   0  0  0  0  0  0  0  0  0  0  0  0
  190.5770  176.0760  136.7820 O   0  0  0  0  0  0  0  0  0  0  0  0
  188.5170  177.7900  135.9570 C   0  0  0  0  0  1  0  0  0  0  0  0
  188.5280  179.6730  137.3930 O   0  0  0  0  0  0  0  0  0  0  0  0
  190.8400  176.8450  137.7450 C   0  0  0  0  0  0  0  0  0  0  0  0
  190.1270  178.0770  137.9250 N   0  0  0  0  0  2  0  0  0  0  0  0
  1  9  1  0  0  0  0
  2  3  1  0  0  0  0
  2  5  1  0  0  0  0
  3  7  1  0  0  0  0
  5 14  1  0  0  0  0
  6  1  1  0  0  0  0
  7  4  1  0  0  0  0
  8 13  1  0  0  0  0
  8 12  2  0  0  0  0
 10 19  1  0  0  0  0
 11  4  1  0  0  0  0
 12 16  1  0  0  0  0
 13  2  2  0  0  0  0
 14  1  2  0  0  0  0
 15 11  1  0  0  0  0
 16  5  2  0  0  0  0
 16 17  1  0  0  0  0
 17  6  2  0  0  0  0
 18 10  2  0  0  0  0
 18 13  1  0  0  0  0
 19 20  1  0  0  0  0
 19  3  2  0  0  0  0
 20 15  1  0  0  0  0
 22 21  2  0  0  0  0
 22 23  1  0  0  0  0
 23  8  1  0  0  0  0
 25 24  1  6  0  0  0
 25 22  1  0  0  0  0
 26 29  2  0  0  0  0
 26 31  1  0  0  0  0
 27 30  2  0  0  0  0
 28 26  1  0  0  0  0
 30 31  1  0  0  0  0
 30 25  1  0  0  0  0
M  END
>  <MODEL>
3

>  <REMARK>
 VINA RESULT:     -11.2      2.431      4.849
  Name = 
  3 active torsions:
  status: ('A' for Active; 'I' for Inactive)
    1  A    between atoms: C_9  and  C_22
    2  A    between atoms: C_15  and  N_23
    3  A    between atoms: C_19  and  C_22
                            x       y       z     vdW  Elec       q    Type
                         _______ _______ _______ _____ _____    ______ ____

>  <TORSDO>
F 3

$$$$
=
 OpenBabel11052413023D

 31 34  0  0  1  0  0  0  0  0999 V2000
  184.9830  178.3860  145.8450 C   0  0  0  0  0  0  0  0  0  0  0  0
  188.2660  177.6850  144.1150 C   0  0  0  0  0  0  0  0  0  0  0  0
  189.2230  177.4070  145.1550 C   0  0  0  0  0  0  0  0  0  0  0  0
  189.6960  177.9170  147.5960 C   0  0  0  0  0  2  0  0  0  0  0  0
  186.8830  177.9870  144.3530 C   0  0  0  0  0  0  0  0  0  0  0  0
  184.1440  178.5820  144.7510 C   0  0  0  0  0  3  0  0  0  0  0  0
  188.7730  177.2460  146.5910 C   0  0  0  0  0  2  0  0  0  0  0  0
  187.8280  177.8960  141.6900 C   0  0  0  0  0  0  0  0  0  0  0  0
  184.4890  178.4800  147.1030 F   0  0  0  0  0  0  0  0  0  0  0  0
  190.9710  177.1610  143.4680 C   0  0  0  0  0  3  0  0  0  0  0  0
  190.7490  176.9300  148.0940 C   0  0  0  0  0  2  0  0  0  0  0  0
  186.4880  178.1630  141.9550 C   0  0  0  0  0  3  0  0  0  0  0  0
  188.7130  177.6630  142.7580 C   0  0  0  0  0  0  0  0  0  0  0  0
  186.3330  178.0940  145.6440 C   0  0  0  0  0  3  0  0  0  0  0  0
  191.3510  176.0850  146.9720 C   0  0  0  0  0  2  0  0  0  0  0  0
  186.0120  178.2110  143.2560 C   0  0  0  0  0  0  0  0  0  0  0  0
  184.6590  178.4970  143.4590 C   0  0  0  0  0  3  0  0  0  0  0  0
  190.0520  177.4040  142.4640 C   0  0  0  0  0  3  0  0  0  0  0  0
  190.5840  177.1450  144.8010 C   0  0  0  0  0  0  0  0  0  0  0  0
  191.7150  176.9560  145.7800 C   0  0  0  0  0  2  0  0  0  0  0  0
  186.3870  178.5730  139.2000 O   0  0  0  0  0  0  0  0  0  0  0  0
  187.6060  178.2630  139.1530 C   0  0  0  0  0  0  0  0  0  0  0  0
  188.3170  177.8750  140.3370 N   0  0  0  0  0  2  0  0  0  0  0  0
  187.6840  179.2110  136.9830 O   0  0  0  0  0  1  0  0  0  0  0  0
  188.3170  178.3100  137.8410 C   0  0  2  0  0  3  0  0  0  0  0  0
  189.5770  174.6990  137.1020 C   0  0  0  0  0  0  0  0  0  0  0  0
  187.5290  176.6580  136.3250 O   0  0  0  0  0  0  0  0  0  0  0  0
  188.7470  174.1540  135.9890 C   0  0  0  0  0  1  0  0  0  0  0  0
  190.4900  173.9810  137.5840 O   0  0  0  0  0  0  0  0  0  0  0  0
  188.3670  176.9530  137.2180 C   0  0  0  0  0  0  0  0  0  0  0  0
  189.3670  176.0120  137.6370 N   0  0  0  0  0  2  0  0  0  0  0  0
  1  9  1  0  0  0  0
  2  5  1  0  0  0  0
  2  3  1  0  0  0  0
  3  7  1  0  0  0  0
  4 11  1  0  0  0  0
  5 14  2  0  0  0  0
  6  1  2  0  0  0  0
  7  4  1  0  0  0  0
  8 12  2  0  0  0  0
  8 13  1  0  0  0  0
 10 19  1  0  0  0  0
 12 16  1  0  0  0  0
 13  2  2  0  0  0  0
 14  1  1  0  0  0  0
 15 11  1  0  0  0  0
 16 17  2  0  0  0  0
 16  5  1  0  0  0  0
 17  6  1  0  0  0  0
 18 13  1  0  0  0  0
 18 10  2  0  0  0  0
 19  3  2  0  0  0  0
 19 20  1  0  0  0  0
 20 15  1  0  0  0  0
 22 21  2  0  0  0  0
 22 23  1  0  0  0  0
 23  8  1  0  0  0  0
 25 24  1  6  0  0  0
 25 22  1  0  0  0  0
 26 29  2  0  0  0  0
 26 31  1  0  0  0  0
 27 30  2  0  0  0  0
 28 26  1  0  0  0  0
 30 31  1  0  0  0  0
 30 25  1  0  0  0  0
M  END
>  <MODEL>
4

>  <REMARK>
 VINA RESULT:     -11.1      1.149      1.527
  Name = 
  3 active torsions:
  status: ('A' for Active; 'I' for Inactive)
    1  A    between atoms: C_9  and  C_22
    2  A    between atoms: C_15  and  N_23
    3  A    between atoms: C_19  and  C_22
                            x       y       z     vdW  Elec       q    Type
                         _______ _______ _______ _____ _____    ______ ____

>  <TORSDO>
F 3

$$$$
=
 OpenBabel11052413023D

 31 34  0  0  1  0  0  0  0  0999 V2000
  190.2550  176.9030  146.8440 C   0  0  0  0  0  0  0  0  0  0  0  0
  188.3150  177.5770  143.6750 C   0  0  0  0  0  0  0  0  0  0  0  0
  187.0100  178.0300  144.0850 C   0  0  0  0  0  0  0  0  0  0  0  0
  185.3640  177.8400  146.0070 C   0  0  0  0  0  2  0  0  0  0  0  0
  189.3690  177.2280  144.5850 C   0  0  0  0  0  0  0  0  0  0  0  0
  191.4920  176.5320  146.3230 C   0  0  0  0  0  3  0  0  0  0  0  0
  186.7240  178.3340  145.5390 C   0  0  0  0  0  2  0  0  0  0  0  0
  189.8460  177.0570  141.8030 C   0  0  0  0  0  0  0  0  0  0  0  0
  190.0650  176.9310  148.1860 F   0  0  0  0  0  0  0  0  0  0  0  0
  186.3350  178.1720  141.7430 C   0  0  0  0  0  3  0  0  0  0  0  0
  184.3140  178.9360  145.8450 C   0  0  0  0  0  2  0  0  0  0  0  0
  190.8530  176.7480  142.7130 C   0  0  0  0  0  3  0  0  0  0  0  0
  188.5860  177.4640  142.2760 C   0  0  0  0  0  0  0  0  0  0  0  0
  189.2100  177.2440  145.9830 C   0  0  0  0  0  3  0  0  0  0  0  0
  184.4240  179.6750  144.5130 C   0  0  0  0  0  2  0  0  0  0  0  0
  190.6320  176.8280  144.0790 C   0  0  0  0  0  0  0  0  0  0  0  0
  191.6790  176.4930  144.9430 C   0  0  0  0  0  3  0  0  0  0  0  0
  187.5920  177.7610  141.3430 C   0  0  0  0  0  3  0  0  0  0  0  0
  186.0270  178.3240  143.0880 C   0  0  0  0  0  0  0  0  0  0  0  0
  184.5910  178.6910  143.3660 C   0  0  0  0  0  2  0  0  0  0  0  0
  192.3530  177.5130  140.3070 O   0  0  0  0  0  0  0  0  0  0  0  0
  191.3240  177.1210  139.6990 C   0  0  0  0  0  0  0  0  0  0  0  0
  190.0780  176.9460  140.3880 N   0  0  0  0  0  2  0  0  0  0  0  0
  190.1390  176.5770  137.7200 O   0  0  0  0  0  1  0  0  0  0  0  0
  191.4120  176.8290  138.2370 C   0  0  2  0  0  3  0  0  0  0  0  0
  194.6880  174.8760  137.4490 C   0  0  0  0  0  0  0  0  0  0  0  0
  191.8210  174.5030  137.9690 O   0  0  0  0  0  0  0  0  0  0  0  0
  194.3290  173.4350  137.3130 C   0  0  0  0  0  1  0  0  0  0  0  0
  195.8880  175.2190  137.2880 O   0  0  0  0  0  0  0  0  0  0  0  0
  192.3110  175.6640  137.9840 C   0  0  0  0  0  0  0  0  0  0  0  0
  193.7120  175.8790  137.7560 N   0  0  0  0  0  2  0  0  0  0  0  0
  1  9  1  0  0  0  0
  2  3  1  0  0  0  0
  2  5  1  0  0  0  0
  3  7  1  0  0  0  0
  5 14  1  0  0  0  0
  6  1  1  0  0  0  0
  7  4  1  0  0  0  0
  8 13  1  0  0  0  0
  8 12  2  0  0  0  0
 10 19  1  0  0  0  0
 11  4  1  0  0  0  0
 12 16  1  0  0  0  0
 13  2  2  0  0  0  0
 14  1  2  0  0  0  0
 15 11  1  0  0  0  0
 16  5  2  0  0  0  0
 16 17  1  0  0  0  0
 17  6  2  0  0  0  0
 18 10  2  0  0  0  0
 18 13  1  0  0  0  0
 19 20  1  0  0  0  0
 19  3  2  0  0  0  0
 20 15  1  0  0  0  0
 22 21  2  0  0  0  0
 22 23  1  0  0  0  0
 23  8  1  0  0  0  0
 25 24  1  1  0  0  0
 25 22  1  0  0  0  0
 26 31  1  0  0  0  0
 27 30  2  0  0  0  0
 28 26  1  0  0  0  0
 29 26  2  0  0  0  0
 30 25  1  0  0  0  0
 31 30  1  0  0  0  0
M  END
>  <MODEL>
5

>  <REMARK>
 VINA RESULT:     -11.0      2.868      4.926
  Name = 
  3 active torsions:
  status: ('A' for Active; 'I' for Inactive)
    1  A    between atoms: C_9  and  C_22
    2  A    between atoms: C_15  and  N_23
    3  A    between atoms: C_19  and  C_22
                            x       y       z     vdW  Elec       q    Type
                         _______ _______ _______ _____ _____    ______ ____

>  <TORSDO>
F 3

$$$$
=
 OpenBabel11052413023D

 31 34  0  0  1  0  0  0  0  0999 V2000
  189.9820  177.3180  141.7450 C   0  0  0  0  0  0  0  0  0  0  0  0
  186.6490  178.2730  143.2430 C   0  0  0  0  0  0  0  0  0  0  0  0
  186.7900  178.1390  144.6700 C   0  0  0  0  0  0  0  0  0  0  0  0
  188.1160  176.8590  146.4150 C   0  0  0  0  0  2  0  0  0  0  0  0
  187.7030  178.0170  142.3010 C   0  0  0  0  0  0  0  0  0  0  0  0
  189.7370  177.5370  140.3930 C   0  0  0  0  0  3  0  0  0  0  0  0
  188.1470  177.8780  145.2870 C   0  0  0  0  0  2  0  0  0  0  0  0
  185.1810  178.8620  141.3410 C   0  0  0  0  0  0  0  0  0  0  0  0
  191.1970  176.8740  142.1510 F   0  0  0  0  0  0  0  0  0  0  0  0
  184.4470  178.7660  144.9510 C   0  0  0  0  0  3  0  0  0  0  0  0
  187.9340  177.5590  147.7600 C   0  0  0  0  0  2  0  0  0  0  0  0
  186.2310  178.6280  140.4580 C   0  0  0  0  0  3  0  0  0  0  0  0
  185.3830  178.6830  142.7210 C   0  0  0  0  0  0  0  0  0  0  0  0
  188.9760  177.5550  142.6830 C   0  0  0  0  0  3  0  0  0  0  0  0
  186.8790  178.6640  147.7180 C   0  0  0  0  0  2  0  0  0  0  0  0
  187.4710  178.2130  140.9160 C   0  0  0  0  0  0  0  0  0  0  0  0
  188.4820  177.9810  139.9790 C   0  0  0  0  0  3  0  0  0  0  0  0
  184.3120  178.9180  143.5840 C   0  0  0  0  0  3  0  0  0  0  0  0
  185.6620  178.3950  145.5110 C   0  0  0  0  0  0  0  0  0  0  0  0
  185.6260  178.1830  147.0040 C   0  0  0  0  0  2  0  0  0  0  0  0
  183.0010  177.1730  140.2780 O   0  0  0  0  0  0  0  0  0  0  0  0
  182.8310  178.4150  140.3940 C   0  0  0  0  0  0  0  0  0  0  0  0
  183.8890  179.2670  140.8530 N   0  0  0  0  0  2  0  0  0  0  0  0
  181.6650  180.1410  139.2650 O   0  0  0  0  0  1  0  0  0  0  0  0
  181.5010  179.0000  140.0530 C   0  0  2  0  0  3  0  0  0  0  0  0
  179.7700  178.4780  143.5030 C   0  0  0  0  0  0  0  0  0  0  0  0
  180.2860  180.5020  141.4370 O   0  0  0  0  0  0  0  0  0  0  0  0
  179.0860  179.7540  143.8580 C   0  0  0  0  0  1  0  0  0  0  0  0
  179.6810  177.5030  144.2920 O   0  0  0  0  0  0  0  0  0  0  0  0
  180.7370  179.3350  141.2920 C   0  0  0  0  0  0  0  0  0  0  0  0
  180.5210  178.3280  142.2920 N   0  0  0  0  0  2  0  0  0  0  0  0
  1  9  1  0  0  0  0
  1 14  1  0  0  0  0
  2  3  1  0  0  0  0
  3  7  1  0  0  0  0
  3 19  2  0  0  0  0
  4 11  1  0  0  0  0
  5 14  2  0  0  0  0
  5  2  1  0  0  0  0
  6  1  2  0  0  0  0
  7  4  1  0  0  0  0
  8 13  1  0  0  0  0
 10 19  1  0  0  0  0
 12 16  1  0  0  0  0
 12  8  2  0  0  0  0
 13  2  2  0  0  0  0
 13 18  1  0  0  0  0
 15 11  1  0  0  0  0
 16  5  1  0  0  0  0
 17  6  1  0  0  0  0
 17 16  2  0  0  0  0
 18 10  2  0  0  0  0
 19 20  1  0  0  0  0
 20 15  1  0  0  0  0
 21 22  2  0  0  0  0
 22 23  1  0  0  0  0
 23  8  1  0  0  0  0
 25 24  1  1  0  0  0
 25 22  1  0  0  0  0
 25 30  1  0  0  0  0
 26 28  1  0  0  0  0
 26 29  2  0  0  0  0
 30 27  2  0  0  0  0
 30 31  1  0  0  0  0
 31 26  1  0  0  0  0
M  END
>  <MODEL>
6

>  <REMARK>
 VINA RESULT:     -10.9      3.828      6.792
  Name = 
  3 active torsions:
  status: ('A' for Active; 'I' for Inactive)
    1  A    between atoms: C_9  and  C_22
    2  A    between atoms: C_15  and  N_23
    3  A    between atoms: C_19  and  C_22
                            x       y       z     vdW  Elec       q    Type
                         _______ _______ _______ _____ _____    ______ ____

>  <TORSDO>
F 3

$$$$
=
 OpenBabel11052413023D

 31 34  0  0  1  0  0  0  0  0999 V2000
  184.8970  178.2950  145.4140 C   0  0  0  0  0  0  0  0  0  0  0  0
  188.2680  177.9520  143.7450 C   0  0  0  0  0  0  0  0  0  0  0  0
  189.1970  177.5700  144.7780 C   0  0  0  0  0  0  0  0  0  0  0  0
  189.5590  177.7600  147.2820 C   0  0  0  0  0  2  0  0  0  0  0  0
  186.8660  178.1700  143.9640 C   0  0  0  0  0  0  0  0  0  0  0  0
  184.0920  178.6080  144.3230 C   0  0  0  0  0  3  0  0  0  0  0  0
  188.7010  177.2000  146.1590 C   0  0  0  0  0  2  0  0  0  0  0  0
  187.9110  178.4750  141.3540 C   0  0  0  0  0  0  0  0  0  0  0  0
  184.3540  178.1990  146.6520 F   0  0  0  0  0  0  0  0  0  0  0  0
  191.0140  177.6180  143.1470 C   0  0  0  0  0  3  0  0  0  0  0  0
  190.6320  176.7530  147.6870 C   0  0  0  0  0  2  0  0  0  0  0  0
  186.5530  178.6560  141.5960 C   0  0  0  0  0  3  0  0  0  0  0  0
  188.7650  178.1310  142.4170 C   0  0  0  0  0  0  0  0  0  0  0  0
  186.2650  178.0810  145.2330 C   0  0  0  0  0  3  0  0  0  0  0  0
  191.3090  176.0900  146.4880 C   0  0  0  0  0  2  0  0  0  0  0  0
  186.0280  178.5100  142.8710 C   0  0  0  0  0  0  0  0  0  0  0  0
  184.6580  178.7170  143.0530 C   0  0  0  0  0  3  0  0  0  0  0  0
  190.1230  177.9620  142.1480 C   0  0  0  0  0  3  0  0  0  0  0  0
  190.5790  177.4070  144.4490 C   0  0  0  0  0  0  0  0  0  0  0  0
  191.6800  177.1270  145.4410 C   0  0  0  0  0  2  0  0  0  0  0  0
  188.6890  176.4130  139.3850 O   0  0  0  0  0  0  0  0  0  0  0  0
  188.7660  177.6310  139.0790 C   0  0  0  0  0  0  0  0  0  0  0  0
  188.4500  178.6550  140.0320 N   0  0  0  0  0  2  0  0  0  0  0  0
  189.0550  179.3840  137.5120 O   0  0  0  0  0  1  0  0  0  0  0  0
  189.1870  178.0070  137.6970 C   0  0  2  0  0  3  0  0  0  0  0  0
  186.0500  176.8200  135.7170 C   0  0  0  0  0  0  0  0  0  0  0  0
  188.9600  176.4610  135.9060 O   0  0  0  0  0  0  0  0  0  0  0  0
  186.4970  175.7730  134.7550 C   0  0  0  0  0  1  0  0  0  0  0  0
  184.8310  177.1280  135.7540 O   0  0  0  0  0  0  0  0  0  0  0  0
  188.3800  177.2700  136.6790 C   0  0  0  0  0  0  0  0  0  0  0  0
  186.9630  177.4850  136.5990 N   0  0  0  0  0  2  0  0  0  0  0  0
  1  9  1  0  0  0  0
  2  5  1  0  0  0  0
  2  3  1  0  0  0  0
  3  7  1  0  0  0  0
  4 11  1  0  0  0  0
  5 14  2  0  0  0  0
  6  1  2  0  0  0  0
  7  4  1  0  0  0  0
  8 12  2  0  0  0  0
  8 13  1  0  0  0  0
 10 19  1  0  0  0  0
 12 16  1  0  0  0  0
 13  2  2  0  0  0  0
 14  1  1  0  0  0  0
 15 11  1  0  0  0  0
 16 17  2  0  0  0  0
 16  5  1  0  0  0  0
 17  6  1  0  0  0  0
 18 13  1  0  0  0  0
 18 10  2  0  0  0  0
 19  3  2  0  0  0  0
 19 20  1  0  0  0  0
 20 15  1  0  0  0  0
 22 21  2  0  0  0  0
 22 23  1  0  0  0  0
 23  8  1  0  0  0  0
 25 24  1  6  0  0  0
 25 22  1  0  0  0  0
 26 29  2  0  0  0  0
 26 31  1  0  0  0  0
 27 30  2  0  0  0  0
 28 26  1  0  0  0  0
 30 25  1  0  0  0  0
 31 30  1  0  0  0  0
M  END
>  <MODEL>
7

>  <REMARK>
 VINA RESULT:     -10.8      1.680      2.225
  Name = 
  3 active torsions:
  status: ('A' for Active; 'I' for Inactive)
    1  A    between atoms: C_9  and  C_22
    2  A    between atoms: C_15  and  N_23
    3  A    between atoms: C_19  and  C_22
                            x       y       z     vdW  Elec       q    Type
                         _______ _______ _______ _____ _____    ______ ____

>  <TORSDO>
F 3

$$$$
=
 OpenBabel11052413023D

 31 34  0  0  1  0  0  0  0  0999 V2000
  191.0960  177.3710  141.8310 C   0  0  0  0  0  0  0  0  0  0  0  0
  187.9640  177.8470  143.8880 C   0  0  0  0  0  0  0  0  0  0  0  0
  188.3680  177.7730  145.2690 C   0  0  0  0  0  0  0  0  0  0  0  0
  190.1550  176.7520  146.7540 C   0  0  0  0  0  2  0  0  0  0  0  0
  188.8660  177.7300  142.7770 C   0  0  0  0  0  0  0  0  0  0  0  0
  190.5900  177.5170  140.5420 C   0  0  0  0  0  3  0  0  0  0  0  0
  189.8350  177.7350  145.6390 C   0  0  0  0  0  2  0  0  0  0  0  0
  186.1170  178.1600  142.2730 C   0  0  0  0  0  0  0  0  0  0  0  0
  192.4150  177.1270  142.0180 F   0  0  0  0  0  0  0  0  0  0  0  0
  186.0410  178.0440  145.9550 C   0  0  0  0  0  3  0  0  0  0  0  0
  190.1020  177.4500  148.1110 C   0  0  0  0  0  2  0  0  0  0  0  0
  187.0220  178.0650  141.2190 C   0  0  0  0  0  3  0  0  0  0  0  0
  186.5790  178.0480  143.5960 C   0  0  0  0  0  0  0  0  0  0  0  0
  190.2410  177.4770  142.9300 C   0  0  0  0  0  3  0  0  0  0  0  0
  188.8990  178.3810  148.2560 C   0  0  0  0  0  2  0  0  0  0  0  0
  188.3720  177.8550  141.4530 C   0  0  0  0  0  0  0  0  0  0  0  0
  189.2300  177.7560  140.3540 C   0  0  0  0  0  3  0  0  0  0  0  0
  185.6500  178.1400  144.6320 C   0  0  0  0  0  3  0  0  0  0  0  0
  187.3760  177.8750  146.2940 C   0  0  0  0  0  0  0  0  0  0  0  0
  187.6310  177.6980  147.7700 C   0  0  0  0  0  2  0  0  0  0  0  0
  184.8320  179.5880  140.0270 O   0  0  0  0  0  0  0  0  0  0  0  0
  184.1210  179.0050  140.8860 C   0  0  0  0  0  0  0  0  0  0  0  0
  184.7140  178.3520  142.0180 N   0  0  0  0  0  2  0  0  0  0  0  0
  182.0150  178.6950  141.9280 O   0  0  0  0  0  1  0  0  0  0  0  0
  182.6390  178.9910  140.7140 C   0  0  2  0  0  3  0  0  0  0  0  0
  182.8390  175.8410  138.4310 C   0  0  0  0  0  0  0  0  0  0  0  0
  181.1760  178.1900  139.0210 O   0  0  0  0  0  0  0  0  0  0  0  0
  181.6800  175.8920  137.4950 C   0  0  0  0  0  1  0  0  0  0  0  0
  183.6470  174.8810  138.3430 O   0  0  0  0  0  0  0  0  0  0  0  0
  182.2370  177.9980  139.6730 C   0  0  0  0  0  0  0  0  0  0  0  0
  183.0610  176.8490  139.4250 N   0  0  0  0  0  2  0  0  0  0  0  0
  1  9  1  0  0  0  0
  1 14  1  0  0  0  0
  2  3  1  0  0  0  0
  3  7  1  0  0  0  0
  3 19  2  0  0  0  0
  4 11  1  0  0  0  0
  5 14  2  0  0  0  0
  5  2  1  0  0  0  0
  6  1  2  0  0  0  0
  7  4  1  0  0  0  0
  8 13  1  0  0  0  0
 10 19  1  0  0  0  0
 11 15  1  0  0  0  0
 12 16  1  0  0  0  0
 12  8  2  0  0  0  0
 13  2  2  0  0  0  0
 13 18  1  0  0  0  0
 16  5  1  0  0  0  0
 17  6  1  0  0  0  0
 17 16  2  0  0  0  0
 18 10  2  0  0  0  0
 19 20  1  0  0  0  0
 20 15  1  0  0  0  0
 21 22  2  0  0  0  0
 22 23  1  0  0  0  0
 23  8  1  0  0  0  0
 25 22  1  0  0  0  0
 25 24  1  1  0  0  0
 26 31  1  0  0  0  0
 27 30  2  0  0  0  0
 28 26  1  0  0  0  0
 29 26  2  0  0  0  0
 30 25  1  0  0  0  0
 31 30  1  0  0  0  0
M  END
>  <MODEL>
8

>  <REMARK>
 VINA RESULT:     -10.6      3.570      5.447
  Name = 
  3 active torsions:
  status: ('A' for Active; 'I' for Inactive)
    1  A    between atoms: C_9  and  C_22
    2  A    between atoms: C_15  and  N_23
    3  A    between atoms: C_19  and  C_22
                            x       y       z     vdW  Elec       q    Type
                         _______ _______ _______ _____ _____    ______ ____

>  <TORSDO>
F 3

$$$$
=
 OpenBabel11052413023D

 31 34  0  0  1  0  0  0  0  0999 V2000
  190.4180  176.9230  146.2670 C   0  0  0  0  0  0  0  0  0  0  0  0
  188.1470  177.8630  143.3990 C   0  0  0  0  0  0  0  0  0  0  0  0
  186.8550  178.1320  143.9740 C   0  0  0  0  0  0  0  0  0  0  0  0
  185.4130  177.5210  145.9710 C   0  0  0  0  0  2  0  0  0  0  0  0
  189.3050  177.4850  144.1600 C   0  0  0  0  0  0  0  0  0  0  0  0
  191.6270  176.7440  145.5990 C   0  0  0  0  0  3  0  0  0  0  0  0
  186.6810  178.1990  145.4760 C   0  0  0  0  0  2  0  0  0  0  0  0
  189.5360  177.7560  141.3540 C   0  0  0  0  0  0  0  0  0  0  0  0
  190.3510  176.7430  147.6080 F   0  0  0  0  0  0  0  0  0  0  0  0
  185.9570  178.5450  141.7410 C   0  0  0  0  0  3  0  0  0  0  0  0
  184.2700  178.5300  146.0600 C   0  0  0  0  0  2  0  0  0  0  0  0
  190.6440  177.4130  142.1250 C   0  0  0  0  0  3  0  0  0  0  0  0
  188.2960  177.9750  141.9820 C   0  0  0  0  0  0  0  0  0  0  0  0
  189.2750  177.2870  145.5530 C   0  0  0  0  0  3  0  0  0  0  0  0
  184.1990  179.4580  144.8480 C   0  0  0  0  0  2  0  0  0  0  0  0
  190.5440  177.2770  143.5000 C   0  0  0  0  0  0  0  0  0  0  0  0
  191.6880  176.9190  144.2180 C   0  0  0  0  0  3  0  0  0  0  0  0
  187.2010  178.3100  141.1860 C   0  0  0  0  0  3  0  0  0  0  0  0
  185.7640  178.4750  143.1140 C   0  0  0  0  0  0  0  0  0  0  0  0
  184.3360  178.6670  143.5580 C   0  0  0  0  0  2  0  0  0  0  0  0
  190.6150  175.7910  139.4290 O   0  0  0  0  0  0  0  0  0  0  0  0
  190.1240  176.8710  139.0110 C   0  0  0  0  0  0  0  0  0  0  0  0
  189.6450  177.8690  139.9240 N   0  0  0  0  0  2  0  0  0  0  0  0
  189.4790  178.3630  137.2870 O   0  0  0  0  0  1  0  0  0  0  0  0
  190.0360  177.1080  137.5400 C   0  0  2  0  0  3  0  0  0  0  0  0
  186.9710  174.8330  136.7660 C   0  0  0  0  0  0  0  0  0  0  0  0
  189.7630  175.3250  135.9930 O   0  0  0  0  0  0  0  0  0  0  0  0
  187.4040  173.8260  135.7550 C   0  0  0  0  0  1  0  0  0  0  0  0
  185.7890  174.7920  137.1930 O   0  0  0  0  0  0  0  0  0  0  0  0
  189.2260  176.0410  136.8800 C   0  0  0  0  0  0  0  0  0  0  0  0
  187.8580  175.8420  137.2660 N   0  0  0  0  0  2  0  0  0  0  0  0
  1  9  1  0  0  0  0
  2  3  1  0  0  0  0
  2  5  1  0  0  0  0
  3  7  1  0  0  0  0
  4 11  1  0  0  0  0
  5 14  1  0  0  0  0
  6  1  1  0  0  0  0
  7  4  1  0  0  0  0
  8 13  1  0  0  0  0
  8 12  2  0  0  0  0
 10 19  1  0  0  0  0
 12 16  1  0  0  0  0
 13  2  2  0  0  0  0
 14  1  2  0  0  0  0
 15 11  1  0  0  0  0
 16  5  2  0  0  0  0
 16 17  1  0  0  0  0
 17  6  2  0  0  0  0
 18 10  2  0  0  0  0
 18 13  1  0  0  0  0
 19 20  1  0  0  0  0
 19  3  2  0  0  0  0
 20 15  1  0  0  0  0
 22 21  2  0  0  0  0
 22 23  1  0  0  0  0
 23  8  1  0  0  0  0
 25 24  1  1  0  0  0
 25 22  1  0  0  0  0
 26 29  2  0  0  0  0
 26 31  1  0  0  0  0
 27 30  2  0  0  0  0
 28 26  1  0  0  0  0
 30 31  1  0  0  0  0
 30 25  1  0  0  0  0
M  END
>  <MODEL>
9

>  <REMARK>
 VINA RESULT:     -10.6      2.208      4.436
  Name = 
  3 active torsions:
  status: ('A' for Active; 'I' for Inactive)
    1  A    between atoms: C_9  and  C_22
    2  A    between atoms: C_15  and  N_23
    3  A    between atoms: C_19  and  C_22
                            x       y       z     vdW  Elec       q    Type
                         _______ _______ _______ _____ _____    ______ ____

>  <TORSDO>
F 3

$$$$
