=
 OpenBabel11052414433D

 32 34  0  0  1  0  0  0  0  0999 V2000
  186.1060  177.7670  143.3900 S   0  0  0  0  0  0  0  0  0  0  0  0
  184.8370  178.8780  144.0790 C   0  0  1  0  0  3  0  0  0  0  0  0
  186.0860  178.7020  141.8530 C   0  0  0  0  0  0  0  0  0  0  0  0
  184.9200  178.9360  141.2310 C   0  0  0  0  0  0  0  0  0  0  0  0
  183.6480  178.3950  141.8340 C   0  0  0  0  0  2  0  0  0  0  0  0
  183.5020  178.7470  143.3250 C   0  0  0  0  0  2  0  0  0  0  0  0
  187.3630  179.3020  141.3600 C   0  0  0  0  0  2  0  0  0  0  0  0
  188.1640  178.2850  140.6220 C   0  0  0  0  0  0  0  0  0  0  0  0
  190.9140  176.8590  137.4120 C   0  0  0  0  0  2  0  0  0  0  0  0
  187.8750  177.9150  139.4220 N   0  0  0  0  0  0  0  0  0  0  0  0
  191.2830  177.0650  139.8070 C   0  0  0  0  0  2  0  0  0  0  0  0
  189.8230  176.7750  140.1500 C   0  0  1  0  0  3  0  0  0  0  0  0
  189.3420  177.7090  141.1540 N   0  0  0  0  0  2  0  0  0  0  0  0
  188.8820  176.9800  138.9420 C   0  0  2  0  0  3  0  0  0  0  0  0
  191.6390  176.3420  138.5860 N   0  0  0  0  0  2  0  0  0  0  0  0
  189.6070  177.6010  137.7440 C   0  0  0  0  0  2  0  0  0  0  0  0
  184.8940  179.6970  140.0590 O   0  0  0  0  0  0  0  0  0  0  0  0
  184.1650  179.2960  138.9090 C   0  0  0  0  0  2  0  0  0  0  0  0
  182.9270  180.1560  138.7760 C   0  0  0  0  0  2  0  0  0  0  0  0
  181.7650  179.2980  138.3260 C   0  0  0  0  0  1  0  0  0  0  0  0
  184.6420  178.6290  145.5650 C   0  0  0  0  0  2  0  0  0  0  0  0
  186.0100  179.9190  147.7160 O   0  0  0  0  0  0  0  0  0  0  0  0
  186.4650  178.8210  147.3000 C   0  0  0  0  0  0  0  0  0  0  0  0
  185.8980  178.1850  146.1550 N   0  0  0  0  0  2  0  0  0  0  0  0
  187.5820  178.1610  148.0350 C   0  0  0  0  0  2  0  0  0  0  0  0
  188.2930  177.1430  147.1510 C   0  0  0  0  0  2  0  0  0  0  0  0
  189.5580  177.7330  146.5390 C   0  0  0  0  0  2  0  0  0  0  0  0
  189.4100  177.8920  145.0340 C   0  0  0  0  0  2  0  0  0  0  0  0
  190.7110  178.2940  144.4140 C   0  0  0  0  0  0  0  0  0  0  0  0
  190.9040  179.5020  144.1190 O   0  0  0  0  0  0  0  0  0  0  0  0
  191.7270  177.3640  144.1790 O   0  0  0  0  0  0  0  0  0  0  0  0
  191.4620  176.0380  143.7430 C   0  0  0  0  0  1  0  0  0  0  0  0
  1  2  1  0  0  0  0
  2 21  1  1  0  0  0
  3  1  1  0  0  0  0
  4  5  1  0  0  0  0
  4  3  2  0  0  0  0
  5  6  1  0  0  0  0
  6  2  1  0  0  0  0
  7  3  1  0  0  0  0
  8 13  1  0  0  0  0
  8  7  1  0  0  0  0
  9 16  1  0  0  0  0
  9 15  1  0  0  0  0
 10  8  2  0  0  0  0
 12 11  1  6  0  0  0
 12 13  1  0  0  0  0
 14 16  1  6  0  0  0
 14 10  1  0  0  0  0
 14 12  1  0  0  0  0
 15 11  1  0  0  0  0
 17  4  1  0  0  0  0
 18 17  1  0  0  0  0
 19 18  1  0  0  0  0
 20 19  1  0  0  0  0
 21 24  1  0  0  0  0
 23 22  2  0  0  0  0
 23 25  1  0  0  0  0
 24 23  1  0  0  0  0
 26 25  1  0  0  0  0
 27 26  1  0  0  0  0
 28 27  1  0  0  0  0
 29 28  1  0  0  0  0
 30 29  2  0  0  0  0
 31 29  1  0  0  0  0
 32 31  1  0  0  0  0
M  END
>  <MODEL>
1

>  <REMARK>
 VINA RESULT:      -7.2      0.000      0.000
  Name = 
  13 active torsions:
  status: ('A' for Active; 'I' for Inactive)
    1  A    between atoms: C_2  and  C_5
    2  A    between atoms: C_2  and  C_6
    3  A    between atoms: C_3  and  C_19
    4  A    between atoms: C_3  and  O_22
    5  A    between atoms: C_4  and  C_27
    6  A    between atoms: C_7  and  C_19
    7  A    between atoms: C_7  and  C_26
    8  A    between atoms: C_13  and  C_29
    9  A    between atoms: C_14  and  O_18
   10  A    between atoms: C_15  and  C_20
   11  A    between atoms: C_15  and  C_26
   12  A    between atoms: O_18  and  C_29
   13  A    between atoms: N_24  and  C_27
                            x       y       z     vdW  Elec       q    Type
                         _______ _______ _______ _____ _____    ______ ____

>  <TORSDO>
F 13

$$$$
=
 OpenBabel11052414433D

 32 34  0  0  1  0  0  0  0  0999 V2000
  190.3270  176.9940  140.9840 S   0  0  0  0  0  0  0  0  0  0  0  0
  190.3590  178.0000  142.5020 C   0  0  1  0  0  3  0  0  0  0  0  0
  188.9520  177.9740  140.3640 C   0  0  0  0  0  0  0  0  0  0  0  0
  187.8660  178.1560  141.1300 C   0  0  0  0  0  0  0  0  0  0  0  0
  187.8180  177.5160  142.4960 C   0  0  0  0  0  2  0  0  0  0  0  0
  189.0760  177.8100  143.3310 C   0  0  0  0  0  2  0  0  0  0  0  0
  189.1000  178.6690  139.0490 C   0  0  0  0  0  2  0  0  0  0  0  0
  188.2800  177.9880  138.0070 C   0  0  0  0  0  0  0  0  0  0  0  0
  185.5250  174.8430  136.4500 C   0  0  0  0  0  2  0  0  0  0  0  0
  188.5710  176.8170  137.5530 N   0  0  0  0  0  0  0  0  0  0  0  0
  185.1380  177.2150  136.8210 C   0  0  0  0  0  2  0  0  0  0  0  0
  186.5850  177.5940  136.5150 C   0  0  1  0  0  3  0  0  0  0  0  0
  187.0810  178.5410  137.4990 N   0  0  0  0  0  2  0  0  0  0  0  0
  187.5440  176.3860  136.6160 C   0  0  2  0  0  3  0  0  0  0  0  0
  184.7750  176.0400  136.0300 N   0  0  0  0  0  2  0  0  0  0  0  0
  186.8480  175.1420  137.1770 C   0  0  0  0  0  2  0  0  0  0  0  0
  186.8110  178.9510  140.6710 O   0  0  0  0  0  0  0  0  0  0  0  0
  185.5770  179.0510  141.3650 C   0  0  0  0  0  2  0  0  0  0  0  0
  184.4380  178.9860  140.3700 C   0  0  0  0  0  2  0  0  0  0  0  0
  183.4650  177.9080  140.7910 C   0  0  0  0  0  1  0  0  0  0  0  0
  191.5890  177.6910  143.3360 C   0  0  0  0  0  2  0  0  0  0  0  0
  191.9590  175.4960  145.1270 O   0  0  0  0  0  0  0  0  0  0  0  0
  191.5480  176.5870  145.6050 C   0  0  0  0  0  0  0  0  0  0  0  0
  191.2340  177.6840  144.7480 N   0  0  0  0  0  2  0  0  0  0  0  0
  191.4290  176.7440  147.0820 C   0  0  0  0  0  2  0  0  0  0  0  0
  189.9840  176.5700  147.5370 C   0  0  0  0  0  2  0  0  0  0  0  0
  189.2970  177.9180  147.7190 C   0  0  0  0  0  2  0  0  0  0  0  0
  187.8320  177.7350  148.0880 C   0  0  0  0  0  2  0  0  0  0  0  0
  186.9580  177.9160  146.8870 C   0  0  0  0  0  0  0  0  0  0  0  0
  187.0380  177.0930  145.9400 O   0  0  0  0  0  0  0  0  0  0  0  0
  186.0380  178.9640  146.8040 O   0  0  0  0  0  0  0  0  0  0  0  0
  185.0090  178.9990  145.8240 C   0  0  0  0  0  1  0  0  0  0  0  0
  1  2  1  0  0  0  0
  2  6  1  0  0  0  0
  2 21  1  1  0  0  0
  3  1  1  0  0  0  0
  3  4  2  0  0  0  0
  4  5  1  0  0  0  0
  5  6  1  0  0  0  0
  7  3  1  0  0  0  0
  8  7  1  0  0  0  0
  9 16  1  0  0  0  0
 10  8  2  0  0  0  0
 12 14  1  0  0  0  0
 12 11  1  1  0  0  0
 12 13  1  0  0  0  0
 13  8  1  0  0  0  0
 14 16  1  1  0  0  0
 14 10  1  0  0  0  0
 15  9  1  0  0  0  0
 15 11  1  0  0  0  0
 17  4  1  0  0  0  0
 17 18  1  0  0  0  0
 19 20  1  0  0  0  0
 19 18  1  0  0  0  0
 21 24  1  0  0  0  0
 22 23  2  0  0  0  0
 23 25  1  0  0  0  0
 24 23  1  0  0  0  0
 25 26  1  0  0  0  0
 26 27  1  0  0  0  0
 27 28  1  0  0  0  0
 29 28  1  0  0  0  0
 30 29  2  0  0  0  0
 31 29  1  0  0  0  0
 32 31  1  0  0  0  0
M  END
>  <MODEL>
2

>  <REMARK>
 VINA RESULT:      -6.7      2.467      4.791
  Name = 
  13 active torsions:
  status: ('A' for Active; 'I' for Inactive)
    1  A    between atoms: C_2  and  C_5
    2  A    between atoms: C_2  and  C_6
    3  A    between atoms: C_3  and  C_19
    4  A    between atoms: C_3  and  O_22
    5  A    between atoms: C_4  and  C_27
    6  A    between atoms: C_7  and  C_19
    7  A    between atoms: C_7  and  C_26
    8  A    between atoms: C_13  and  C_29
    9  A    between atoms: C_14  and  O_18
   10  A    between atoms: C_15  and  C_20
   11  A    between atoms: C_15  and  C_26
   12  A    between atoms: O_18  and  C_29
   13  A    between atoms: N_24  and  C_27
                            x       y       z     vdW  Elec       q    Type
                         _______ _______ _______ _____ _____    ______ ____

>  <TORSDO>
F 13

$$$$
=
 OpenBabel11052414433D

 32 34  0  0  1  0  0  0  0  0999 V2000
  185.4010  178.7890  143.6310 S   0  0  0  0  0  0  0  0  0  0  0  0
  184.0860  178.3710  144.8200 C   0  0  1  0  0  3  0  0  0  0  0  0
  186.5750  177.8220  144.5920 C   0  0  0  0  0  0  0  0  0  0  0  0
  186.6990  178.0430  145.9090 C   0  0  0  0  0  0  0  0  0  0  0  0
  185.8550  179.1150  146.5540 C   0  0  0  0  0  2  0  0  0  0  0  0
  184.3620  178.9830  146.2050 C   0  0  0  0  0  2  0  0  0  0  0  0
  187.3050  176.7050  143.9190 C   0  0  0  0  0  2  0  0  0  0  0  0
  188.3760  177.2430  143.0340 C   0  0  0  0  0  0  0  0  0  0  0  0
  192.4290  177.3030  141.1700 C   0  0  0  0  0  2  0  0  0  0  0  0
  189.4670  177.7500  143.4970 N   0  0  0  0  0  0  0  0  0  0  0  0
  190.2570  176.8570  140.1720 C   0  0  0  0  0  2  0  0  0  0  0  0
  189.5210  177.7950  141.1270 C   0  0  1  0  0  3  0  0  0  0  0  0
  188.3090  177.1670  141.6230 N   0  0  0  0  0  2  0  0  0  0  0  0
  190.3470  178.1090  142.3950 C   0  0  2  0  0  3  0  0  0  0  0  0
  191.6080  177.3680  139.9470 N   0  0  0  0  0  2  0  0  0  0  0  0
  191.6210  177.2620  142.4790 C   0  0  0  0  0  2  0  0  0  0  0  0
  187.5790  177.2670  146.6680 O   0  0  0  0  0  0  0  0  0  0  0  0
  188.8450  177.7490  147.0940 C   0  0  0  0  0  2  0  0  0  0  0  0
  189.7980  176.5840  147.2480 C   0  0  0  0  0  2  0  0  0  0  0  0
  191.0750  176.8770  146.4930 C   0  0  0  0  0  1  0  0  0  0  0  0
  182.7250  178.8030  144.3030 C   0  0  0  0  0  2  0  0  0  0  0  0
  180.4050  178.4710  142.6680 O   0  0  0  0  0  0  0  0  0  0  0  0
  181.5050  178.6960  142.0960 C   0  0  0  0  0  0  0  0  0  0  0  0
  182.7170  178.7560  142.8470 N   0  0  0  0  0  2  0  0  0  0  0  0
  181.5340  178.9420  140.6260 C   0  0  0  0  0  2  0  0  0  0  0  0
  181.6170  177.6310  139.8530 C   0  0  0  0  0  2  0  0  0  0  0  0
  183.0350  177.3740  139.3550 C   0  0  0  0  0  2  0  0  0  0  0  0
  183.5060  178.5040  138.4510 C   0  0  0  0  0  2  0  0  0  0  0  0
  184.8550  178.9930  138.8770 C   0  0  0  0  0  0  0  0  0  0  0  0
  184.9890  179.5140  140.0140 O   0  0  0  0  0  0  0  0  0  0  0  0
  185.9740  178.8630  138.0510 O   0  0  0  0  0  0  0  0  0  0  0  0
  187.0190  177.9390  138.3230 C   0  0  0  0  0  1  0  0  0  0  0  0
  1  3  1  0  0  0  0
  1  2  1  0  0  0  0
  2 21  1  6  0  0  0
  2  6  1  0  0  0  0
  3  4  2  0  0  0  0
  4  5  1  0  0  0  0
  4 17  1  0  0  0  0
  6  5  1  0  0  0  0
  7  3  1  0  0  0  0
  8 10  2  0  0  0  0
  8  7  1  0  0  0  0
  9 16  1  0  0  0  0
 12 11  1  6  0  0  0
 12 13  1  0  0  0  0
 12 14  1  0  0  0  0
 13  8  1  0  0  0  0
 14 16  1  6  0  0  0
 14 10  1  0  0  0  0
 15 11  1  0  0  0  0
 15  9  1  0  0  0  0
 17 18  1  0  0  0  0
 18 19  1  0  0  0  0
 20 19  1  0  0  0  0
 23 22  2  0  0  0  0
 23 24  1  0  0  0  0
 24 21  1  0  0  0  0
 25 23  1  0  0  0  0
 26 25  1  0  0  0  0
 27 26  1  0  0  0  0
 28 29  1  0  0  0  0
 28 27  1  0  0  0  0
 29 30  2  0  0  0  0
 31 32  1  0  0  0  0
 31 29  1  0  0  0  0
M  END
>  <MODEL>
3

>  <REMARK>
 VINA RESULT:      -6.6      2.266      6.525
  Name = 
  13 active torsions:
  status: ('A' for Active; 'I' for Inactive)
    1  A    between atoms: C_2  and  C_5
    2  A    between atoms: C_2  and  C_6
    3  A    between atoms: C_3  and  C_19
    4  A    between atoms: C_3  and  O_22
    5  A    between atoms: C_4  and  C_27
    6  A    between atoms: C_7  and  C_19
    7  A    between atoms: C_7  and  C_26
    8  A    between atoms: C_13  and  C_29
    9  A    between atoms: C_14  and  O_18
   10  A    between atoms: C_15  and  C_20
   11  A    between atoms: C_15  and  C_26
   12  A    between atoms: O_18  and  C_29
   13  A    between atoms: N_24  and  C_27
                            x       y       z     vdW  Elec       q    Type
                         _______ _______ _______ _____ _____    ______ ____

>  <TORSDO>
F 13

$$$$
=
 OpenBabel11052414433D

 32 34  0  0  1  0  0  0  0  0999 V2000
  185.5370  178.8670  142.4170 S   0  0  0  0  0  0  0  0  0  0  0  0
  183.8290  178.3770  142.8210 C   0  0  1  0  0  3  0  0  0  0  0  0
  186.1280  178.0110  143.8850 C   0  0  0  0  0  0  0  0  0  0  0  0
  185.5680  178.2690  145.0770 C   0  0  0  0  0  0  0  0  0  0  0  0
  184.4580  179.2880  145.1590 C   0  0  0  0  0  2  0  0  0  0  0  0
  183.3460  179.0370  144.1250 C   0  0  0  0  0  2  0  0  0  0  0  0
  187.1560  176.9380  143.7260 C   0  0  0  0  0  2  0  0  0  0  0  0
  188.2680  177.4100  142.8540 C   0  0  0  0  0  0  0  0  0  0  0  0
  192.4170  177.3620  141.2140 C   0  0  0  0  0  2  0  0  0  0  0  0
  189.3260  177.9740  143.3270 N   0  0  0  0  0  0  0  0  0  0  0  0
  190.3080  176.7920  140.1450 C   0  0  0  0  0  2  0  0  0  0  0  0
  189.5110  177.8020  140.9680 C   0  0  1  0  0  3  0  0  0  0  0  0
  188.2800  177.2030  141.4540 N   0  0  0  0  0  2  0  0  0  0  0  0
  190.2620  178.2440  142.2450 C   0  0  2  0  0  3  0  0  0  0  0  0
  191.6650  177.3010  139.9480 N   0  0  0  0  0  2  0  0  0  0  0  0
  191.5380  177.4280  142.4760 C   0  0  0  0  0  2  0  0  0  0  0  0
  185.9950  177.5770  146.2140 O   0  0  0  0  0  0  0  0  0  0  0  0
  186.7330  178.2030  147.2520 C   0  0  0  0  0  2  0  0  0  0  0  0
  188.1900  177.8100  147.1360 C   0  0  0  0  0  2  0  0  0  0  0  0
  188.8860  178.0680  148.4530 C   0  0  0  0  0  1  0  0  0  0  0  0
  182.8850  178.6950  141.6760 C   0  0  0  0  0  2  0  0  0  0  0  0
  182.8510  176.5210  139.8210 O   0  0  0  0  0  0  0  0  0  0  0  0
  183.4600  177.5730  139.4890 C   0  0  0  0  0  0  0  0  0  0  0  0
  183.6120  178.6490  140.4150 N   0  0  0  0  0  2  0  0  0  0  0  0
  183.9920  177.7090  138.1030 C   0  0  0  0  0  2  0  0  0  0  0  0
  185.3630  178.3760  138.1060 C   0  0  0  0  0  2  0  0  0  0  0  0
  186.3700  177.5670  137.2960 C   0  0  0  0  0  2  0  0  0  0  0  0
  187.2160  178.4770  136.4170 C   0  0  0  0  0  2  0  0  0  0  0  0
  188.6130  178.5690  136.9430 C   0  0  0  0  0  0  0  0  0  0  0  0
  188.9820  179.6220  137.5250 O   0  0  0  0  0  0  0  0  0  0  0  0
  189.5110  177.5060  136.8240 O   0  0  0  0  0  0  0  0  0  0  0  0
  189.7950  176.8830  135.5780 C   0  0  0  0  0  1  0  0  0  0  0  0
  1  2  1  0  0  0  0
  1  3  1  0  0  0  0
  2 21  1  6  0  0  0
  2  6  1  0  0  0  0
  3  4  2  0  0  0  0
  4  5  1  0  0  0  0
  4 17  1  0  0  0  0
  6  5  1  0  0  0  0
  7  3  1  0  0  0  0
  8 10  2  0  0  0  0
  8  7  1  0  0  0  0
  9 16  1  0  0  0  0
 12 11  1  1  0  0  0
 12 13  1  0  0  0  0
 12 14  1  0  0  0  0
 13  8  1  0  0  0  0
 14 16  1  1  0  0  0
 14 10  1  0  0  0  0
 15 11  1  0  0  0  0
 15  9  1  0  0  0  0
 17 18  1  0  0  0  0
 19 18  1  0  0  0  0
 19 20  1  0  0  0  0
 23 22  2  0  0  0  0
 23 24  1  0  0  0  0
 24 21  1  0  0  0  0
 25 26  1  0  0  0  0
 25 23  1  0  0  0  0
 27 26  1  0  0  0  0
 28 29  1  0  0  0  0
 28 27  1  0  0  0  0
 29 30  2  0  0  0  0
 31 29  1  0  0  0  0
 32 31  1  0  0  0  0
M  END
>  <MODEL>
4

>  <REMARK>
 VINA RESULT:      -6.6      2.449      6.481
  Name = 
  13 active torsions:
  status: ('A' for Active; 'I' for Inactive)
    1  A    between atoms: C_2  and  C_5
    2  A    between atoms: C_2  and  C_6
    3  A    between atoms: C_3  and  C_19
    4  A    between atoms: C_3  and  O_22
    5  A    between atoms: C_4  and  C_27
    6  A    between atoms: C_7  and  C_19
    7  A    between atoms: C_7  and  C_26
    8  A    between atoms: C_13  and  C_29
    9  A    between atoms: C_14  and  O_18
   10  A    between atoms: C_15  and  C_20
   11  A    between atoms: C_15  and  C_26
   12  A    between atoms: O_18  and  C_29
   13  A    between atoms: N_24  and  C_27
                            x       y       z     vdW  Elec       q    Type
                         _______ _______ _______ _____ _____    ______ ____

>  <TORSDO>
F 13

$$$$
=
 OpenBabel11052414433D

 32 34  0  0  1  0  0  0  0  0999 V2000
  187.1050  177.6690  143.2770 S   0  0  0  0  0  0  0  0  0  0  0  0
  185.7920  178.6490  144.0730 C   0  0  1  0  0  3  0  0  0  0  0  0
  186.8310  178.5560  141.7370 C   0  0  0  0  0  0  0  0  0  0  0  0
  185.5920  178.6440  141.2300 C   0  0  0  0  0  0  0  0  0  0  0  0
  184.4530  177.9790  141.9640 C   0  0  0  0  0  2  0  0  0  0  0  0
  184.4130  178.3510  143.4570 C   0  0  0  0  0  2  0  0  0  0  0  0
  187.9790  179.2810  141.1120 C   0  0  0  0  0  2  0  0  0  0  0  0
  188.5170  178.5060  139.9580 C   0  0  0  0  0  0  0  0  0  0  0  0
  188.2260  175.8320  136.3990 C   0  0  0  0  0  2  0  0  0  0  0  0
  188.4950  177.2180  139.9200 N   0  0  0  0  0  0  0  0  0  0  0  0
  188.7950  178.1930  136.5370 C   0  0  0  0  0  2  0  0  0  0  0  0
  189.4450  178.0510  137.9120 C   0  0  1  0  0  3  0  0  0  0  0  0
  189.0170  179.1270  138.7890 N   0  0  0  0  0  2  0  0  0  0  0  0
  189.0100  176.7580  138.6380 C   0  0  2  0  0  3  0  0  0  0  0  0
  188.9760  176.9470  135.7930 N   0  0  0  0  0  2  0  0  0  0  0  0
  187.8930  176.0230  137.8890 C   0  0  0  0  0  2  0  0  0  0  0  0
  185.3670  179.3670  140.0550 O   0  0  0  0  0  0  0  0  0  0  0  0
  184.4690  178.9220  139.0500 C   0  0  0  0  0  2  0  0  0  0  0  0
  185.2540  178.2790  137.9270 C   0  0  0  0  0  2  0  0  0  0  0  0
  184.3540  177.3370  137.1600 C   0  0  0  0  0  1  0  0  0  0  0  0
  185.7710  178.4170  145.5740 C   0  0  0  0  0  2  0  0  0  0  0  0
  187.2830  178.7890  147.9700 O   0  0  0  0  0  0  0  0  0  0  0  0
  187.5780  177.8130  147.2300 C   0  0  0  0  0  0  0  0  0  0  0  0
  186.9390  177.6400  145.9650 N   0  0  0  0  0  2  0  0  0  0  0  0
  188.5750  176.8090  147.6990 C   0  0  0  0  0  2  0  0  0  0  0  0
  189.9600  177.1070  147.1370 C   0  0  0  0  0  2  0  0  0  0  0  0
  189.9810  176.9680  145.6190 C   0  0  0  0  0  2  0  0  0  0  0  0
  191.3680  177.2590  145.0660 C   0  0  0  0  0  2  0  0  0  0  0  0
  191.2860  178.1860  143.8950 C   0  0  0  0  0  0  0  0  0  0  0  0
  191.6460  179.3830  144.0330 O   0  0  0  0  0  0  0  0  0  0  0  0
  190.8430  177.7480  142.6450 O   0  0  0  0  0  0  0  0  0  0  0  0
  191.7310  177.5080  141.5620 C   0  0  0  0  0  1  0  0  0  0  0  0
  1  2  1  0  0  0  0
  2 21  1  1  0  0  0
  3  1  1  0  0  0  0
  4  3  2  0  0  0  0
  4  5  1  0  0  0  0
  5  6  1  0  0  0  0
  6  2  1  0  0  0  0
  7  3  1  0  0  0  0
  8  7  1  0  0  0  0
  9 16  1  0  0  0  0
 10  8  2  0  0  0  0
 12 11  1  6  0  0  0
 12 14  1  0  0  0  0
 12 13  1  0  0  0  0
 13  8  1  0  0  0  0
 14 16  1  6  0  0  0
 14 10  1  0  0  0  0
 15  9  1  0  0  0  0
 15 11  1  0  0  0  0
 17  4  1  0  0  0  0
 18 17  1  0  0  0  0
 19 18  1  0  0  0  0
 20 19  1  0  0  0  0
 21 24  1  0  0  0  0
 23 25  1  0  0  0  0
 23 22  2  0  0  0  0
 24 23  1  0  0  0  0
 26 25  1  0  0  0  0
 27 26  1  0  0  0  0
 28 27  1  0  0  0  0
 29 30  2  0  0  0  0
 29 28  1  0  0  0  0
 31 29  1  0  0  0  0
 32 31  1  0  0  0  0
M  END
>  <MODEL>
5

>  <REMARK>
 VINA RESULT:      -6.6      1.459      1.961
  Name = 
  13 active torsions:
  status: ('A' for Active; 'I' for Inactive)
    1  A    between atoms: C_2  and  C_5
    2  A    between atoms: C_2  and  C_6
    3  A    between atoms: C_3  and  C_19
    4  A    between atoms: C_3  and  O_22
    5  A    between atoms: C_4  and  C_27
    6  A    between atoms: C_7  and  C_19
    7  A    between atoms: C_7  and  C_26
    8  A    between atoms: C_13  and  C_29
    9  A    between atoms: C_14  and  O_18
   10  A    between atoms: C_15  and  C_20
   11  A    between atoms: C_15  and  C_26
   12  A    between atoms: O_18  and  C_29
   13  A    between atoms: N_24  and  C_27
                            x       y       z     vdW  Elec       q    Type
                         _______ _______ _______ _____ _____    ______ ____

>  <TORSDO>
F 13

$$$$
=
 OpenBabel11052414433D

 32 34  0  0  1  0  0  0  0  0999 V2000
  184.1060  178.2350  141.9580 S   0  0  0  0  0  0  0  0  0  0  0  0
  183.1000  179.2730  143.0670 C   0  0  1  0  0  3  0  0  0  0  0  0
  183.2560  178.9350  140.5350 C   0  0  0  0  0  0  0  0  0  0  0  0
  181.9150  178.9400  140.4960 C   0  0  0  0  0  0  0  0  0  0  0  0
  181.1480  178.3410  141.6490 C   0  0  0  0  0  2  0  0  0  0  0  0
  181.6130  178.8790  143.0140 C   0  0  0  0  0  2  0  0  0  0  0  0
  184.0670  179.6080  139.4740 C   0  0  0  0  0  2  0  0  0  0  0  0
  184.8340  178.6000  138.6900 C   0  0  0  0  0  0  0  0  0  0  0  0
  186.2880  176.6380  134.9570 C   0  0  0  0  0  2  0  0  0  0  0  0
  184.2590  177.6880  137.9840 N   0  0  0  0  0  0  0  0  0  0  0  0
  187.5020  177.9470  136.6080 C   0  0  0  0  0  2  0  0  0  0  0  0
  186.6110  177.4900  137.7620 C   0  0  1  0  0  3  0  0  0  0  0  0
  186.2460  178.6180  138.6000 N   0  0  0  0  0  2  0  0  0  0  0  0
  185.2640  176.9130  137.2720 C   0  0  2  0  0  3  0  0  0  0  0  0
  187.5850  176.8760  135.6160 N   0  0  0  0  0  2  0  0  0  0  0  0
  185.0660  177.1080  135.7650 C   0  0  0  0  0  2  0  0  0  0  0  0
  181.2490  179.5200  139.4130 O   0  0  0  0  0  0  0  0  0  0  0  0
  180.4790  180.7050  139.5400 C   0  0  0  0  0  2  0  0  0  0  0  0
  180.8280  181.6520  138.4120 C   0  0  0  0  0  2  0  0  0  0  0  0
  180.9390  180.8740  137.1200 C   0  0  0  0  0  1  0  0  0  0  0  0
  183.6210  179.2130  144.4920 C   0  0  0  0  0  2  0  0  0  0  0  0
  185.3910  179.2080  146.7350 O   0  0  0  0  0  0  0  0  0  0  0  0
  185.7680  178.6260  145.6840 C   0  0  0  0  0  0  0  0  0  0  0  0
  184.9810  178.6920  144.4940 N   0  0  0  0  0  2  0  0  0  0  0  0
  187.0270  177.8280  145.6940 C   0  0  0  0  0  2  0  0  0  0  0  0
  187.5980  177.7250  147.1040 C   0  0  0  0  0  2  0  0  0  0  0  0
  189.0920  177.4250  147.0720 C   0  0  0  0  0  2  0  0  0  0  0  0
  189.5730  177.2080  145.6450 C   0  0  0  0  0  2  0  0  0  0  0  0
  191.0660  177.1290  145.5970 C   0  0  0  0  0  0  0  0  0  0  0  0
  191.6530  177.2690  144.4930 O   0  0  0  0  0  0  0  0  0  0  0  0
  191.8260  176.9280  146.7520 O   0  0  0  0  0  0  0  0  0  0  0  0
  192.3010  175.6460  147.1380 C   0  0  0  0  0  1  0  0  0  0  0  0
  1  2  1  0  0  0  0
  2 21  1  1  0  0  0
  3  1  1  0  0  0  0
  4  3  2  0  0  0  0
  4  5  1  0  0  0  0
  5  6  1  0  0  0  0
  6  2  1  0  0  0  0
  7  3  1  0  0  0  0
  8  7  1  0  0  0  0
  9 15  1  0  0  0  0
  9 16  1  0  0  0  0
 10  8  2  0  0  0  0
 12 11  1  6  0  0  0
 12 13  1  0  0  0  0
 13  8  1  0  0  0  0
 14 16  1  6  0  0  0
 14 12  1  0  0  0  0
 14 10  1  0  0  0  0
 15 11  1  0  0  0  0
 17 18  1  0  0  0  0
 17  4  1  0  0  0  0
 19 18  1  0  0  0  0
 20 19  1  0  0  0  0
 21 24  1  0  0  0  0
 23 25  1  0  0  0  0
 23 22  2  0  0  0  0
 24 23  1  0  0  0  0
 25 26  1  0  0  0  0
 27 26  1  0  0  0  0
 28 27  1  0  0  0  0
 29 28  1  0  0  0  0
 29 31  1  0  0  0  0
 30 29  2  0  0  0  0
 31 32  1  0  0  0  0
M  END
>  <MODEL>
6

>  <REMARK>
 VINA RESULT:      -6.5      2.564      3.188
  Name = 
  13 active torsions:
  status: ('A' for Active; 'I' for Inactive)
    1  A    between atoms: C_2  and  C_5
    2  A    between atoms: C_2  and  C_6
    3  A    between atoms: C_3  and  C_19
    4  A    between atoms: C_3  and  O_22
    5  A    between atoms: C_4  and  C_27
    6  A    between atoms: C_7  and  C_19
    7  A    between atoms: C_7  and  C_26
    8  A    between atoms: C_13  and  C_29
    9  A    between atoms: C_14  and  O_18
   10  A    between atoms: C_15  and  C_20
   11  A    between atoms: C_15  and  C_26
   12  A    between atoms: O_18  and  C_29
   13  A    between atoms: N_24  and  C_27
                            x       y       z     vdW  Elec       q    Type
                         _______ _______ _______ _____ _____    ______ ____

>  <TORSDO>
F 13

$$$$
=
 OpenBabel11052414433D

 32 34  0  0  1  0  0  0  0  0999 V2000
  183.9490  178.1180  141.6690 S   0  0  0  0  0  0  0  0  0  0  0  0
  182.7970  179.0910  142.6900 C   0  0  1  0  0  3  0  0  0  0  0  0
  183.2440  178.8460  140.1830 C   0  0  0  0  0  0  0  0  0  0  0  0
  181.9170  178.8190  139.9940 C   0  0  0  0  0  0  0  0  0  0  0  0
  181.0430  178.1610  141.0330 C   0  0  0  0  0  2  0  0  0  0  0  0
  181.3370  178.6630  142.4580 C   0  0  0  0  0  2  0  0  0  0  0  0
  184.1480  179.5740  139.2420 C   0  0  0  0  0  2  0  0  0  0  0  0
  185.1510  178.6400  138.6570 C   0  0  0  0  0  0  0  0  0  0  0  0
  187.8260  177.0730  135.4490 C   0  0  0  0  0  2  0  0  0  0  0  0
  184.8650  177.8320  137.6940 N   0  0  0  0  0  0  0  0  0  0  0  0
  188.3810  178.1490  137.5590 C   0  0  0  0  0  2  0  0  0  0  0  0
  187.1520  177.5900  138.2730 C   0  0  1  0  0  3  0  0  0  0  0  0
  186.5070  178.6260  139.0600 N   0  0  0  0  0  2  0  0  0  0  0  0
  186.0620  177.1130  137.2850 C   0  0  2  0  0  3  0  0  0  0  0  0
  188.8130  177.1960  136.5370 N   0  0  0  0  0  2  0  0  0  0  0  0
  186.3950  177.4850  135.8360 C   0  0  0  0  0  2  0  0  0  0  0  0
  181.3590  179.4190  138.8610 O   0  0  0  0  0  0  0  0  0  0  0  0
  180.5480  180.5810  138.9380 C   0  0  0  0  0  2  0  0  0  0  0  0
  181.2940  181.7530  138.3380 C   0  0  0  0  0  2  0  0  0  0  0  0
  180.7920  182.0010  136.9330 C   0  0  0  0  0  1  0  0  0  0  0  0
  183.1580  178.9960  144.1630 C   0  0  0  0  0  2  0  0  0  0  0  0
  184.5570  178.6700  146.6330 O   0  0  0  0  0  0  0  0  0  0  0  0
  185.2190  178.5940  145.5640 C   0  0  0  0  0  0  0  0  0  0  0  0
  184.6010  178.8620  144.3050 N   0  0  0  0  0  2  0  0  0  0  0  0
  186.6500  178.1800  145.6120 C   0  0  0  0  0  2  0  0  0  0  0  0
  186.9530  177.1310  144.5490 C   0  0  0  0  0  2  0  0  0  0  0  0
  188.4470  177.0650  144.2500 C   0  0  0  0  0  2  0  0  0  0  0  0
  188.7000  176.4530  142.8810 C   0  0  0  0  0  2  0  0  0  0  0  0
  190.1660  176.2630  142.6500 C   0  0  0  0  0  0  0  0  0  0  0  0
  190.7640  175.3230  143.2350 O   0  0  0  0  0  0  0  0  0  0  0  0
  190.8830  177.0900  141.7820 O   0  0  0  0  0  0  0  0  0  0  0  0
  190.6360  177.1230  140.3830 C   0  0  0  0  0  1  0  0  0  0  0  0
  1  2  1  0  0  0  0
  2 21  1  1  0  0  0
  3  1  1  0  0  0  0
  4  3  2  0  0  0  0
  4  5  1  0  0  0  0
  5  6  1  0  0  0  0
  6  2  1  0  0  0  0
  7  3  1  0  0  0  0
  8 13  1  0  0  0  0
  8  7  1  0  0  0  0
  9 16  1  0  0  0  0
  9 15  1  0  0  0  0
 10  8  2  0  0  0  0
 12 11  1  6  0  0  0
 12 13  1  0  0  0  0
 14 16  1  6  0  0  0
 14 10  1  0  0  0  0
 14 12  1  0  0  0  0
 15 11  1  0  0  0  0
 17 18  1  0  0  0  0
 17  4  1  0  0  0  0
 19 18  1  0  0  0  0
 20 19  1  0  0  0  0
 21 24  1  0  0  0  0
 23 25  1  0  0  0  0
 23 22  2  0  0  0  0
 24 23  1  0  0  0  0
 26 25  1  0  0  0  0
 27 26  1  0  0  0  0
 28 27  1  0  0  0  0
 29 28  1  0  0  0  0
 29 30  2  0  0  0  0
 31 29  1  0  0  0  0
 32 31  1  0  0  0  0
M  END
>  <MODEL>
7

>  <REMARK>
 VINA RESULT:      -6.3      2.324      3.148
  Name = 
  13 active torsions:
  status: ('A' for Active; 'I' for Inactive)
    1  A    between atoms: C_2  and  C_5
    2  A    between atoms: C_2  and  C_6
    3  A    between atoms: C_3  and  C_19
    4  A    between atoms: C_3  and  O_22
    5  A    between atoms: C_4  and  C_27
    6  A    between atoms: C_7  and  C_19
    7  A    between atoms: C_7  and  C_26
    8  A    between atoms: C_13  and  C_29
    9  A    between atoms: C_14  and  O_18
   10  A    between atoms: C_15  and  C_20
   11  A    between atoms: C_15  and  C_26
   12  A    between atoms: O_18  and  C_29
   13  A    between atoms: N_24  and  C_27
                            x       y       z     vdW  Elec       q    Type
                         _______ _______ _______ _____ _____    ______ ____

>  <TORSDO>
F 13

$$$$
=
 OpenBabel11052414433D

 32 34  0  0  1  0  0  0  0  0999 V2000
  185.6820  178.9000  143.9190 S   0  0  0  0  0  0  0  0  0  0  0  0
  184.5090  178.4200  145.2270 C   0  0  1  0  0  3  0  0  0  0  0  0
  186.9280  177.8240  144.6420 C   0  0  0  0  0  0  0  0  0  0  0  0
  187.2220  177.9290  145.9470 C   0  0  0  0  0  0  0  0  0  0  0  0
  186.5060  178.9660  146.7770 C   0  0  0  0  0  2  0  0  0  0  0  0
  184.9780  178.9050  146.6110 C   0  0  0  0  0  2  0  0  0  0  0  0
  187.5270  176.7470  143.7960 C   0  0  0  0  0  2  0  0  0  0  0  0
  188.2580  177.3420  142.6420 C   0  0  0  0  0  0  0  0  0  0  0  0
  190.6390  177.2210  138.8710 C   0  0  0  0  0  2  0  0  0  0  0  0
  189.5340  177.2300  142.4990 N   0  0  0  0  0  0  0  0  0  0  0  0
  188.3480  177.9440  139.2490 C   0  0  0  0  0  2  0  0  0  0  0  0
  188.6400  178.4370  140.6650 C   0  0  1  0  0  3  0  0  0  0  0  0
  187.5980  178.0030  141.5790 N   0  0  0  0  0  2  0  0  0  0  0  0
  189.9420  177.8370  141.2410 C   0  0  2  0  0  3  0  0  0  0  0  0
  189.5480  178.1080  138.4300 N   0  0  0  0  0  2  0  0  0  0  0  0
  190.5290  176.7520  140.3320 C   0  0  0  0  0  2  0  0  0  0  0  0
  188.1600  177.0680  146.5240 O   0  0  0  0  0  0  0  0  0  0  0  0
  189.2810  177.5430  147.2530 C   0  0  0  0  0  2  0  0  0  0  0  0
  190.4760  176.6600  146.9640 C   0  0  0  0  0  2  0  0  0  0  0  0
  191.1890  177.1660  145.7310 C   0  0  0  0  0  1  0  0  0  0  0  0
  183.1120  178.9320  144.9230 C   0  0  0  0  0  2  0  0  0  0  0  0
  180.5870  178.6140  143.6230 O   0  0  0  0  0  0  0  0  0  0  0  0
  181.5900  178.8830  142.9090 C   0  0  0  0  0  0  0  0  0  0  0  0
  182.8970  178.9390  143.4820 N   0  0  0  0  0  2  0  0  0  0  0  0
  181.4050  179.1830  141.4610 C   0  0  0  0  0  2  0  0  0  0  0  0
  181.8660  178.0170  140.5960 C   0  0  0  0  0  2  0  0  0  0  0  0
  181.9090  178.4070  139.1230 C   0  0  0  0  0  2  0  0  0  0  0  0
  182.9420  179.4960  138.8790 C   0  0  0  0  0  2  0  0  0  0  0  0
  184.3030  179.0380  139.2980 C   0  0  0  0  0  0  0  0  0  0  0  0
  184.9340  179.6970  140.1640 O   0  0  0  0  0  0  0  0  0  0  0  0
  184.8810  177.8810  138.7690 O   0  0  0  0  0  0  0  0  0  0  0  0
  184.8170  177.5610  137.3860 C   0  0  0  0  0  1  0  0  0  0  0  0
  1  3  1  0  0  0  0
  1  2  1  0  0  0  0
  2 21  1  6  0  0  0
  2  6  1  0  0  0  0
  3  4  2  0  0  0  0
  4 17  1  0  0  0  0
  4  5  1  0  0  0  0
  6  5  1  0  0  0  0
  7  3  1  0  0  0  0
  8  7  1  0  0  0  0
  9 16  1  0  0  0  0
 10  8  2  0  0  0  0
 12 11  1  6  0  0  0
 12 14  1  0  0  0  0
 12 13  1  0  0  0  0
 13  8  1  0  0  0  0
 14 16  1  6  0  0  0
 14 10  1  0  0  0  0
 15  9  1  0  0  0  0
 15 11  1  0  0  0  0
 17 18  1  0  0  0  0
 19 18  1  0  0  0  0
 20 19  1  0  0  0  0
 23 24  1  0  0  0  0
 23 22  2  0  0  0  0
 24 21  1  0  0  0  0
 25 23  1  0  0  0  0
 26 25  1  0  0  0  0
 27 26  1  0  0  0  0
 28 27  1  0  0  0  0
 28 29  1  0  0  0  0
 29 30  2  0  0  0  0
 31 29  1  0  0  0  0
 32 31  1  0  0  0  0
M  END
>  <MODEL>
8

>  <REMARK>
 VINA RESULT:      -6.3      2.078      6.517
  Name = 
  13 active torsions:
  status: ('A' for Active; 'I' for Inactive)
    1  A    between atoms: C_2  and  C_5
    2  A    between atoms: C_2  and  C_6
    3  A    between atoms: C_3  and  C_19
    4  A    between atoms: C_3  and  O_22
    5  A    between atoms: C_4  and  C_27
    6  A    between atoms: C_7  and  C_19
    7  A    between atoms: C_7  and  C_26
    8  A    between atoms: C_13  and  C_29
    9  A    between atoms: C_14  and  O_18
   10  A    between atoms: C_15  and  C_20
   11  A    between atoms: C_15  and  C_26
   12  A    between atoms: O_18  and  C_29
   13  A    between atoms: N_24  and  C_27
                            x       y       z     vdW  Elec       q    Type
                         _______ _______ _______ _____ _____    ______ ____

>  <TORSDO>
F 13

$$$$
=
 OpenBabel11052414433D

 32 34  0  0  1  0  0  0  0  0999 V2000
  187.7520  178.4170  141.0030 S   0  0  0  0  0  0  0  0  0  0  0  0
  186.2470  178.2160  139.9960 C   0  0  1  0  0  3  0  0  0  0  0  0
  186.8630  177.8190  142.4480 C   0  0  0  0  0  0  0  0  0  0  0  0
  185.6910  178.3770  142.7860 C   0  0  0  0  0  0  0  0  0  0  0  0
  185.1510  179.5100  141.9490 C   0  0  0  0  0  2  0  0  0  0  0  0
  185.1340  179.1800  140.4460 C   0  0  0  0  0  2  0  0  0  0  0  0
  187.3950  176.6270  143.1760 C   0  0  0  0  0  2  0  0  0  0  0  0
  188.4890  177.0310  144.1040 C   0  0  0  0  0  0  0  0  0  0  0  0
  191.0150  176.6890  147.7650 C   0  0  0  0  0  2  0  0  0  0  0  0
  188.2590  177.4920  145.2850 N   0  0  0  0  0  0  0  0  0  0  0  0
  191.5910  176.3270  145.4300 C   0  0  0  0  0  2  0  0  0  0  0  0
  190.6000  177.3750  144.9270 C   0  0  1  0  0  3  0  0  0  0  0  0
  189.8580  176.8660  143.7870 N   0  0  0  0  0  2  0  0  0  0  0  0
  189.5190  177.7160  145.9780 C   0  0  2  0  0  3  0  0  0  0  0  0
  192.0810  176.7280  146.7480 N   0  0  0  0  0  2  0  0  0  0  0  0
  189.5880  176.7900  147.1970 C   0  0  0  0  0  2  0  0  0  0  0  0
  184.9760  177.8900  143.8840 O   0  0  0  0  0  0  0  0  0  0  0  0
  184.3020  178.7460  144.7930 C   0  0  0  0  0  2  0  0  0  0  0  0
  185.2790  179.2310  145.8420 C   0  0  0  0  0  2  0  0  0  0  0  0
  185.3130  178.2480  146.9900 C   0  0  0  0  0  1  0  0  0  0  0  0
  186.5500  178.3970  138.5190 C   0  0  0  0  0  2  0  0  0  0  0  0
  188.8080  179.4370  137.1090 O   0  0  0  0  0  0  0  0  0  0  0  0
  188.8810  178.2630  137.5590 C   0  0  0  0  0  0  0  0  0  0  0  0
  187.7480  177.6450  138.1700 N   0  0  0  0  0  2  0  0  0  0  0  0
  190.1760  177.5270  137.4890 C   0  0  0  0  0  2  0  0  0  0  0  0
  189.9950  176.0620  137.8690 C   0  0  0  0  0  2  0  0  0  0  0  0
  191.3190  175.3090  137.8100 C   0  0  0  0  0  2  0  0  0  0  0  0
  192.4600  176.2460  137.4450 C   0  0  0  0  0  2  0  0  0  0  0  0
  193.6610  175.9710  138.2930 C   0  0  0  0  0  0  0  0  0  0  0  0
  193.9330  176.7470  139.2450 O   0  0  0  0  0  0  0  0  0  0  0  0
  194.4760  174.8580  138.0690 O   0  0  0  0  0  0  0  0  0  0  0  0
  195.4320  174.4080  139.0190 C   0  0  0  0  0  1  0  0  0  0  0  0
  1  3  1  0  0  0  0
  2 21  1  6  0  0  0
  2  6  1  0  0  0  0
  2  1  1  0  0  0  0
  3  4  2  0  0  0  0
  3  7  1  0  0  0  0
  4 17  1  0  0  0  0
  5  4  1  0  0  0  0
  6  5  1  0  0  0  0
  7  8  1  0  0  0  0
  8 10  2  0  0  0  0
 10 14  1  0  0  0  0
 11 15  1  0  0  0  0
 12 11  1  1  0  0  0
 12 14  1  0  0  0  0
 13  8  1  0  0  0  0
 13 12  1  0  0  0  0
 14 16  1  1  0  0  0
 15  9  1  0  0  0  0
 16  9  1  0  0  0  0
 17 18  1  0  0  0  0
 18 19  1  0  0  0  0
 19 20  1  0  0  0  0
 22 23  2  0  0  0  0
 23 24  1  0  0  0  0
 24 21  1  0  0  0  0
 25 23  1  0  0  0  0
 25 26  1  0  0  0  0
 27 26  1  0  0  0  0
 28 27  1  0  0  0  0
 28 29  1  0  0  0  0
 29 30  2  0  0  0  0
 31 29  1  0  0  0  0
 31 32  1  0  0  0  0
M  END
>  <MODEL>
9

>  <REMARK>
 VINA RESULT:      -6.3      2.900      7.011
  Name = 
  13 active torsions:
  status: ('A' for Active; 'I' for Inactive)
    1  A    between atoms: C_2  and  C_5
    2  A    between atoms: C_2  and  C_6
    3  A    between atoms: C_3  and  C_19
    4  A    between atoms: C_3  and  O_22
    5  A    between atoms: C_4  and  C_27
    6  A    between atoms: C_7  and  C_19
    7  A    between atoms: C_7  and  C_26
    8  A    between atoms: C_13  and  C_29
    9  A    between atoms: C_14  and  O_18
   10  A    between atoms: C_15  and  C_20
   11  A    between atoms: C_15  and  C_26
   12  A    between atoms: O_18  and  C_29
   13  A    between atoms: N_24  and  C_27
                            x       y       z     vdW  Elec       q    Type
                         _______ _______ _______ _____ _____    ______ ____

>  <TORSDO>
F 13

$$$$
