=
 OpenBabel11052414103D

 34 38  0  0  1  0  0  0  0  0999 V2000
  191.6210  176.5380  137.6690 C   0  0  0  0  0  0  0  0  0  0  0  0
  189.5120  176.7680  136.4470 C   0  0  0  0  0  0  0  0  0  0  0  0
  189.7750  177.6480  138.9030 C   0  0  2  0  0  3  0  0  0  0  0  0
  187.9220  178.2410  140.2450 C   0  0  1  0  0  3  0  0  0  0  0  0
  191.3890  175.7850  135.2580 C   0  0  0  0  0  3  0  0  0  0  0  0
  190.1320  176.2210  135.2370 C   0  0  0  0  0  3  0  0  0  0  0  0
  190.3190  176.9160  137.6850 C   0  0  0  0  0  0  0  0  0  0  0  0
  192.2190  175.7740  136.5120 C   0  0  0  0  0  2  0  0  0  0  0  0
  190.5100  177.2290  140.1770 C   0  0  2  0  0  3  0  0  0  0  0  0
  192.4530  176.7540  138.8210 N   0  0  0  0  0  2  0  0  0  0  0  0
  188.3110  177.1410  136.4010 O   0  0  0  0  0  0  0  0  0  0  0  0
  188.5110  177.7380  141.4230 O   0  0  0  0  0  0  0  0  0  0  0  0
  189.8940  178.0030  141.3490 C   0  0  1  0  0  3  0  0  0  0  0  0
  188.3400  177.4450  139.0860 N   0  0  0  0  0  2  0  0  0  0  0  0
  191.9900  177.5120  139.9790 C   0  0  0  0  0  2  0  0  0  0  0  0
  191.5590  175.9750  144.0890 C   0  0  0  0  0  0  0  0  0  0  0  0
  191.7500  176.9430  145.1230 N   0  0  0  0  0  0  0  0  0  0  0  0
  190.5390  177.6350  142.6480 C   0  0  0  0  0  0  0  0  0  0  0  0
  191.3880  178.1820  144.9760 C   0  0  0  0  0  3  0  0  0  0  0  0
  190.9260  176.3720  142.8310 C   0  0  0  0  0  3  0  0  0  0  0  0
  190.7470  178.6940  143.7090 C   0  0  0  0  0  2  0  0  0  0  0  0
  191.9280  174.7850  144.2630 O   0  0  0  0  0  0  0  0  0  0  0  0
  186.4000  178.2330  140.3720 C   0  0  0  0  0  2  0  0  0  0  0  0
  186.1630  180.0070  141.9500 O   0  0  0  0  0  0  0  0  0  0  0  0
  185.3140  177.9400  142.6320 N   0  0  0  0  0  2  0  0  0  0  0  0
  185.9470  178.7960  141.6810 C   0  0  0  0  0  0  0  0  0  0  0  0
  184.9550  178.3850  143.9670 C   0  0  0  0  0  2  0  0  0  0  0  0
  184.9870  179.2910  146.7030 O   0  0  0  0  0  1  0  0  0  0  0  0
  186.0610  178.0530  144.9110 C   0  0  0  0  0  0  0  0  0  0  0  0
  186.0310  178.4990  146.2430 C   0  0  0  0  0  0  0  0  0  0  0  0
  188.1150  177.3370  146.6740 C   0  0  0  0  0  3  0  0  0  0  0  0
  188.1410  176.8870  145.3520 C   0  0  0  0  0  3  0  0  0  0  0  0
  187.1140  177.2420  144.4730 C   0  0  0  0  0  3  0  0  0  0  0  0
  187.0610  178.1410  147.1190 C   0  0  0  0  0  3  0  0  0  0  0  0
  1  7  2  0  0  0  0
  1 10  1  0  0  0  0
  2  7  1  0  0  0  0
  3  7  1  6  0  0  0
  3 14  1  0  0  0  0
  3  9  1  0  0  0  0
  4 23  1  1  0  0  0
  4 12  1  0  0  0  0
  5  8  1  0  0  0  0
  6  5  2  0  0  0  0
  6  2  1  0  0  0  0
  8  1  1  0  0  0  0
  9 15  1  6  0  0  0
  9 13  1  0  0  0  0
 10 15  1  0  0  0  0
 11  2  2  0  0  0  0
 13 12  1  0  0  0  0
 13 18  1  1  0  0  0
 14  4  1  0  0  0  0
 16 22  2  0  0  0  0
 16 17  1  0  0  0  0
 18 20  2  0  0  0  0
 18 21  1  0  0  0  0
 19 17  2  0  0  0  0
 20 16  1  0  0  0  0
 21 19  1  0  0  0  0
 23 26  1  0  0  0  0
 25 27  1  0  0  0  0
 26 24  2  0  0  0  0
 26 25  1  0  0  0  0
 27 29  1  0  0  0  0
 29 30  1  0  0  0  0
 30 28  1  0  0  0  0
 30 34  2  0  0  0  0
 31 34  1  0  0  0  0
 32 31  2  0  0  0  0
 33 29  2  0  0  0  0
 33 32  1  0  0  0  0
M  END
>  <MODEL>
1

>  <REMARK>
 VINA RESULT:      -9.3      0.000      0.000
  Name = 
  5 active torsions:
  status: ('A' for Active; 'I' for Inactive)
    1  A    between atoms: C_3  and  C_13
    2  A    between atoms: C_3  and  N_17
    3  A    between atoms: C_5  and  C_18
    4  A    between atoms: C_12  and  C_28
    5  A    between atoms: C_18  and  C_29
                            x       y       z     vdW  Elec       q    Type
                         _______ _______ _______ _____ _____    ______ ____

>  <TORSDO>
F 5

$$$$
=
 OpenBabel11052414103D

 34 38  0  0  1  0  0  0  0  0999 V2000
  182.6130  178.7220  140.5840 C   0  0  0  0  0  0  0  0  0  0  0  0
  181.2010  178.8360  142.5810 C   0  0  0  0  0  0  0  0  0  0  0  0
  183.8160  178.9340  142.7460 C   0  0  2  0  0  3  0  0  0  0  0  0
  184.9720  178.6340  144.7850 C   0  0  1  0  0  3  0  0  0  0  0  0
  180.0810  178.7330  140.4280 C   0  0  0  0  0  3  0  0  0  0  0  0
  179.9940  178.8550  141.7500 C   0  0  0  0  0  3  0  0  0  0  0  0
  182.5370  178.7670  141.9370 C   0  0  0  0  0  0  0  0  0  0  0  0
  181.3910  178.5180  139.7200 C   0  0  0  0  0  2  0  0  0  0  0  0
  185.0140  178.3150  142.0240 C   0  0  2  0  0  3  0  0  0  0  0  0
  183.8910  178.7490  139.9280 N   0  0  0  0  0  2  0  0  0  0  0  0
  181.0800  178.9190  143.8310 O   0  0  0  0  0  0  0  0  0  0  0  0
  186.0340  177.9350  144.1740 O   0  0  0  0  0  0  0  0  0  0  0  0
  186.2510  178.5190  142.9080 C   0  0  1  0  0  3  0  0  0  0  0  0
  183.7130  178.3610  144.0850 N   0  0  0  0  0  2  0  0  0  0  0  0
  185.1320  178.9760  140.6600 C   0  0  0  0  0  2  0  0  0  0  0  0
  189.1960  176.2150  142.2700 C   0  0  0  0  0  0  0  0  0  0  0  0
  189.8020  176.7950  141.1120 N   0  0  0  0  0  0  0  0  0  0  0  0
  187.4730  177.9190  142.2880 C   0  0  0  0  0  0  0  0  0  0  0  0
  189.3120  177.8540  140.5410 C   0  0  0  0  0  3  0  0  0  0  0  0
  188.0000  176.8290  142.8470 C   0  0  0  0  0  3  0  0  0  0  0  0
  188.0700  178.5470  141.0480 C   0  0  0  0  0  2  0  0  0  0  0  0
  189.6930  175.1840  142.7920 O   0  0  0  0  0  0  0  0  0  0  0  0
  184.8590  178.2390  146.2560 C   0  0  0  0  0  2  0  0  0  0  0  0
  186.2030  179.6280  147.6560 O   0  0  0  0  0  0  0  0  0  0  0  0
  187.2050  177.6340  146.9630 N   0  0  0  0  0  2  0  0  0  0  0  0
  186.1100  178.5480  147.0140 C   0  0  0  0  0  0  0  0  0  0  0  0
  188.4910  177.9200  147.5740 C   0  0  0  0  0  2  0  0  0  0  0  0
  190.6320  175.9970  147.7310 O   0  0  0  0  0  1  0  0  0  0  0  0
  189.5610  177.8220  146.5410 C   0  0  0  0  0  0  0  0  0  0  0  0
  190.5780  176.8590  146.6430 C   0  0  0  0  0  0  0  0  0  0  0  0
  191.5020  177.6160  144.5330 C   0  0  0  0  0  3  0  0  0  0  0  0
  190.4860  178.5680  144.4270 C   0  0  0  0  0  3  0  0  0  0  0  0
  189.5160  178.6690  145.4270 C   0  0  0  0  0  3  0  0  0  0  0  0
  191.5480  176.7610  145.6390 C   0  0  0  0  0  3  0  0  0  0  0  0
  1  7  2  0  0  0  0
  2 11  2  0  0  0  0
  3  7  1  6  0  0  0
  3 14  1  0  0  0  0
  4 23  1  1  0  0  0
  5  6  2  0  0  0  0
  6  2  1  0  0  0  0
  7  2  1  0  0  0  0
  8  5  1  0  0  0  0
  8  1  1  0  0  0  0
  9 15  1  6  0  0  0
  9  3  1  0  0  0  0
  9 13  1  0  0  0  0
 10  1  1  0  0  0  0
 10 15  1  0  0  0  0
 12  4  1  0  0  0  0
 13 18  1  6  0  0  0
 13 12  1  0  0  0  0
 14  4  1  0  0  0  0
 16 22  2  0  0  0  0
 16 20  1  0  0  0  0
 17 16  1  0  0  0  0
 18 20  2  0  0  0  0
 19 21  1  0  0  0  0
 19 17  2  0  0  0  0
 21 18  1  0  0  0  0
 23 26  1  0  0  0  0
 25 26  1  0  0  0  0
 25 27  1  0  0  0  0
 26 24  2  0  0  0  0
 29 30  1  0  0  0  0
 29 27  1  0  0  0  0
 30 28  1  0  0  0  0
 31 34  1  0  0  0  0
 32 31  2  0  0  0  0
 32 33  1  0  0  0  0
 33 29  2  0  0  0  0
 34 30  2  0  0  0  0
M  END
>  <MODEL>
2

>  <REMARK>
 VINA RESULT:      -9.1      2.979      6.751
  Name = 
  5 active torsions:
  status: ('A' for Active; 'I' for Inactive)
    1  A    between atoms: C_3  and  C_13
    2  A    between atoms: C_3  and  N_17
    3  A    between atoms: C_5  and  C_18
    4  A    between atoms: C_12  and  C_28
    5  A    between atoms: C_18  and  C_29
                            x       y       z     vdW  Elec       q    Type
                         _______ _______ _______ _____ _____    ______ ____

>  <TORSDO>
F 5

$$$$
=
 OpenBabel11052414103D

 34 38  0  0  1  0  0  0  0  0999 V2000
  186.9380  178.3440  138.3230 C   0  0  0  0  0  0  0  0  0  0  0  0
  186.3380  178.4650  140.6940 C   0  0  0  0  0  0  0  0  0  0  0  0
  188.7810  177.8990  139.9270 C   0  0  2  0  0  3  0  0  0  0  0  0
  190.3970  176.9970  141.3960 C   0  0  1  0  0  3  0  0  0  0  0  0
  184.6040  178.9920  139.0770 C   0  0  0  0  0  3  0  0  0  0  0  0
  184.9860  178.9120  140.3490 C   0  0  0  0  0  3  0  0  0  0  0  0
  187.3190  178.1820  139.6150 C   0  0  0  0  0  0  0  0  0  0  0  0
  185.4990  178.5870  137.9370 C   0  0  0  0  0  2  0  0  0  0  0  0
  189.4550  177.1370  138.7850 C   0  0  2  0  0  3  0  0  0  0  0  0
  187.8890  178.1690  137.2600 N   0  0  0  0  0  2  0  0  0  0  0  0
  186.6560  178.3680  141.9080 O   0  0  0  0  0  0  0  0  0  0  0  0
  190.9610  176.1730  140.4000 O   0  0  0  0  0  0  0  0  0  0  0  0
  190.9140  176.8870  139.1850 C   0  0  1  0  0  3  0  0  0  0  0  0
  188.9570  177.1560  141.1710 N   0  0  0  0  0  2  0  0  0  0  0  0
  189.3100  177.9660  137.5180 C   0  0  0  0  0  2  0  0  0  0  0  0
  193.6200  175.7980  136.7580 C   0  0  0  0  0  0  0  0  0  0  0  0
  193.0270  174.6660  136.1170 N   0  0  0  0  0  0  0  0  0  0  0  0
  191.6480  176.1200  138.1310 C   0  0  0  0  0  0  0  0  0  0  0  0
  191.8380  174.2460  136.4310 C   0  0  0  0  0  3  0  0  0  0  0  0
  192.8720  176.5220  137.7870 C   0  0  0  0  0  3  0  0  0  0  0  0
  190.9980  174.9120  137.4930 C   0  0  0  0  0  2  0  0  0  0  0  0
  194.7760  176.1720  136.4360 O   0  0  0  0  0  0  0  0  0  0  0  0
  190.6570  176.4040  142.7790 C   0  0  0  0  0  2  0  0  0  0  0  0
  190.5330  178.5620  143.7890 O   0  0  0  0  0  0  0  0  0  0  0  0
  189.5840  176.8210  145.0250 N   0  0  0  0  0  2  0  0  0  0  0  0
  190.2490  177.3380  143.8730 C   0  0  0  0  0  0  0  0  0  0  0  0
  189.2650  177.6450  146.1780 C   0  0  0  0  0  2  0  0  0  0  0  0
  187.8960  178.5730  148.5380 O   0  0  0  0  0  1  0  0  0  0  0  0
  187.7970  177.9070  146.2060 C   0  0  0  0  0  0  0  0  0  0  0  0
  187.1690  178.3770  147.3710 C   0  0  0  0  0  0  0  0  0  0  0  0
  185.0540  178.4680  146.1900 C   0  0  0  0  0  3  0  0  0  0  0  0
  185.6800  178.0090  145.0280 C   0  0  0  0  0  3  0  0  0  0  0  0
  187.0500  177.7320  145.0350 C   0  0  0  0  0  3  0  0  0  0  0  0
  185.7980  178.6520  147.3590 C   0  0  0  0  0  3  0  0  0  0  0  0
  1  7  2  0  0  0  0
  2 11  2  0  0  0  0
  3  7  1  6  0  0  0
  3 14  1  0  0  0  0
  4 23  1  1  0  0  0
  5  6  2  0  0  0  0
  6  2  1  0  0  0  0
  7  2  1  0  0  0  0
  8  1  1  0  0  0  0
  8  5  1  0  0  0  0
  9 15  1  6  0  0  0
  9 13  1  0  0  0  0
  9  3  1  0  0  0  0
 10 15  1  0  0  0  0
 10  1  1  0  0  0  0
 12  4  1  0  0  0  0
 13 18  1  6  0  0  0
 13 12  1  0  0  0  0
 14  4  1  0  0  0  0
 16 20  1  0  0  0  0
 17 19  2  0  0  0  0
 17 16  1  0  0  0  0
 19 21  1  0  0  0  0
 20 18  2  0  0  0  0
 21 18  1  0  0  0  0
 22 16  2  0  0  0  0
 23 26  1  0  0  0  0
 24 26  2  0  0  0  0
 25 27  1  0  0  0  0
 26 25  1  0  0  0  0
 27 29  1  0  0  0  0
 29 30  1  0  0  0  0
 30 28  1  0  0  0  0
 31 34  1  0  0  0  0
 32 33  1  0  0  0  0
 32 31  2  0  0  0  0
 33 29  2  0  0  0  0
 34 30  2  0  0  0  0
M  END
>  <MODEL>
3

>  <REMARK>
 VINA RESULT:      -9.1      2.075      5.271
  Name = 
  5 active torsions:
  status: ('A' for Active; 'I' for Inactive)
    1  A    between atoms: C_3  and  C_13
    2  A    between atoms: C_3  and  N_17
    3  A    between atoms: C_5  and  C_18
    4  A    between atoms: C_12  and  C_28
    5  A    between atoms: C_18  and  C_29
                            x       y       z     vdW  Elec       q    Type
                         _______ _______ _______ _____ _____    ______ ____

>  <TORSDO>
F 5

$$$$
=
 OpenBabel11052414103D

 34 38  0  0  1  0  0  0  0  0999 V2000
  189.0730  177.4950  146.2580 C   0  0  0  0  0  0  0  0  0  0  0  0
  186.8700  178.1300  147.1150 C   0  0  0  0  0  0  0  0  0  0  0  0
  187.2220  177.4650  144.6040 C   0  0  2  0  0  3  0  0  0  0  0  0
  185.6090  177.9070  142.9340 C   0  0  1  0  0  3  0  0  0  0  0  0
  188.7010  178.0380  148.7080 C   0  0  0  0  0  3  0  0  0  0  0  0
  187.4030  178.2190  148.4770 C   0  0  0  0  0  3  0  0  0  0  0  0
  187.7680  177.7510  145.9950 C   0  0  0  0  0  0  0  0  0  0  0  0
  189.6920  177.7910  147.6030 C   0  0  0  0  0  2  0  0  0  0  0  0
  188.3070  177.6240  143.5370 C   0  0  2  0  0  3  0  0  0  0  0  0
  189.9470  177.0360  145.2140 N   0  0  0  0  0  2  0  0  0  0  0  0
  185.6430  178.3390  146.9280 O   0  0  0  0  0  0  0  0  0  0  0  0
  186.5830  178.1970  141.9560 O   0  0  0  0  0  0  0  0  0  0  0  0
  187.6720  177.3290  142.1730 C   0  0  1  0  0  3  0  0  0  0  0  0
  186.0830  178.3120  144.2610 N   0  0  0  0  0  2  0  0  0  0  0  0
  189.4500  176.6850  143.8870 C   0  0  0  0  0  2  0  0  0  0  0  0
  189.3000  178.4790  138.9450 C   0  0  0  0  0  0  0  0  0  0  0  0
  190.5400  177.7680  138.9500 N   0  0  0  0  0  0  0  0  0  0  0  0
  188.6610  177.4870  141.0620 C   0  0  0  0  0  0  0  0  0  0  0  0
  190.8680  176.9700  139.9210 C   0  0  0  0  0  3  0  0  0  0  0  0
  188.3580  178.3010  140.0510 C   0  0  0  0  0  3  0  0  0  0  0  0
  189.9740  176.7360  141.1150 C   0  0  0  0  0  2  0  0  0  0  0  0
  189.0190  179.2500  137.9930 O   0  0  0  0  0  0  0  0  0  0  0  0
  184.2980  178.6150  142.5990 C   0  0  0  0  0  2  0  0  0  0  0  0
  184.5030  179.7470  140.5080 O   0  0  0  0  0  0  0  0  0  0  0  0
  183.3720  177.7030  140.4360 N   0  0  0  0  0  2  0  0  0  0  0  0
  184.0870  178.7300  141.1230 C   0  0  0  0  0  0  0  0  0  0  0  0
  183.0240  177.8010  139.0290 C   0  0  0  0  0  2  0  0  0  0  0  0
  182.6710  175.0570  138.2200 O   0  0  0  0  0  1  0  0  0  0  0  0
  184.0370  177.0640  138.2190 C   0  0  0  0  0  0  0  0  0  0  0  0
  183.8200  175.7320  137.8290 C   0  0  0  0  0  0  0  0  0  0  0  0
  185.9240  175.7450  136.6260 C   0  0  0  0  0  3  0  0  0  0  0  0
  186.1370  177.0720  137.0060 C   0  0  0  0  0  3  0  0  0  0  0  0
  185.1930  177.7320  137.7990 C   0  0  0  0  0  3  0  0  0  0  0  0
  184.7670  175.0760  137.0360 C   0  0  0  0  0  3  0  0  0  0  0  0
  1  8  1  0  0  0  0
  2  6  1  0  0  0  0
  3 14  1  6  0  0  0
  3  7  1  0  0  0  0
  4 23  1  6  0  0  0
  4 14  1  0  0  0  0
  6  5  2  0  0  0  0
  7  1  2  0  0  0  0
  7  2  1  0  0  0  0
  8  5  1  0  0  0  0
  9 15  1  1  0  0  0
  9  3  1  0  0  0  0
 10  1  1  0  0  0  0
 11  2  2  0  0  0  0
 12 13  1  0  0  0  0
 12  4  1  0  0  0  0
 13 18  1  6  0  0  0
 13  9  1  0  0  0  0
 15 10  1  0  0  0  0
 16 17  1  0  0  0  0
 16 20  1  0  0  0  0
 17 19  2  0  0  0  0
 18 21  1  0  0  0  0
 19 21  1  0  0  0  0
 20 18  2  0  0  0  0
 22 16  2  0  0  0  0
 24 26  2  0  0  0  0
 25 26  1  0  0  0  0
 26 23  1  0  0  0  0
 27 25  1  0  0  0  0
 29 27  1  0  0  0  0
 30 29  1  0  0  0  0
 30 28  1  0  0  0  0
 31 32  2  0  0  0  0
 31 34  1  0  0  0  0
 32 33  1  0  0  0  0
 33 29  2  0  0  0  0
 34 30  2  0  0  0  0
M  END
>  <MODEL>
4

>  <REMARK>
 VINA RESULT:      -8.9      2.511      7.539
  Name = 
  5 active torsions:
  status: ('A' for Active; 'I' for Inactive)
    1  A    between atoms: C_3  and  C_13
    2  A    between atoms: C_3  and  N_17
    3  A    between atoms: C_5  and  C_18
    4  A    between atoms: C_12  and  C_28
    5  A    between atoms: C_18  and  C_29
                            x       y       z     vdW  Elec       q    Type
                         _______ _______ _______ _____ _____    ______ ____

>  <TORSDO>
F 5

$$$$
=
 OpenBabel11052414103D

 34 38  0  0  1  0  0  0  0  0999 V2000
  189.1490  177.3880  146.2090 C   0  0  0  0  0  0  0  0  0  0  0  0
  186.9840  178.0980  147.1050 C   0  0  0  0  0  0  0  0  0  0  0  0
  187.2840  177.4840  144.5740 C   0  0  2  0  0  3  0  0  0  0  0  0
  185.6770  178.0400  142.9320 C   0  0  1  0  0  3  0  0  0  0  0  0
  188.8240  177.8830  148.6760 C   0  0  0  0  0  3  0  0  0  0  0  0
  187.5330  178.1270  148.4630 C   0  0  0  0  0  3  0  0  0  0  0  0
  187.8540  177.7090  145.9660 C   0  0  0  0  0  0  0  0  0  0  0  0
  189.7920  177.6210  147.5560 C   0  0  0  0  0  2  0  0  0  0  0  0
  188.3650  177.6220  143.5010 C   0  0  2  0  0  3  0  0  0  0  0  0
  189.9920  176.9180  145.1450 N   0  0  0  0  0  2  0  0  0  0  0  0
  185.7660  178.3660  146.9350 O   0  0  0  0  0  0  0  0  0  0  0  0
  186.6540  178.3120  141.9520 O   0  0  0  0  0  0  0  0  0  0  0  0
  187.7050  177.3910  142.1370 C   0  0  1  0  0  3  0  0  0  0  0  0
  186.1810  178.3890  144.2640 N   0  0  0  0  0  2  0  0  0  0  0  0
  189.4680  176.6240  143.8150 C   0  0  0  0  0  2  0  0  0  0  0  0
  189.3220  178.4960  138.8870 C   0  0  0  0  0  0  0  0  0  0  0  0
  190.5620  177.7850  138.8980 N   0  0  0  0  0  0  0  0  0  0  0  0
  188.6910  177.5330  141.0200 C   0  0  0  0  0  0  0  0  0  0  0  0
  190.8940  177.0010  139.8790 C   0  0  0  0  0  3  0  0  0  0  0  0
  188.3830  178.3330  139.9980 C   0  0  0  0  0  3  0  0  0  0  0  0
  190.0040  176.7850  141.0790 C   0  0  0  0  0  2  0  0  0  0  0  0
  189.0360  179.2530  137.9240 O   0  0  0  0  0  0  0  0  0  0  0  0
  184.3960  178.8150  142.6290 C   0  0  0  0  0  2  0  0  0  0  0  0
  183.4350  177.4050  140.9620 O   0  0  0  0  0  0  0  0  0  0  0  0
  183.9830  179.5630  140.2540 N   0  0  0  0  0  2  0  0  0  0  0  0
  183.8930  178.5420  141.2480 C   0  0  0  0  0  0  0  0  0  0  0  0
  183.6260  179.3350  138.8650 C   0  0  0  0  0  2  0  0  0  0  0  0
  181.2880  177.6890  138.5030 O   0  0  0  0  0  1  0  0  0  0  0  0
  182.2730  179.9060  138.6030 C   0  0  0  0  0  0  0  0  0  0  0  0
  181.1540  179.0710  138.4500 C   0  0  0  0  0  0  0  0  0  0  0  0
  179.7370  181.0210  138.1980 C   0  0  0  0  0  3  0  0  0  0  0  0
  180.8480  181.8530  138.3590 C   0  0  0  0  0  3  0  0  0  0  0  0
  182.1130  181.2960  138.5640 C   0  0  0  0  0  3  0  0  0  0  0  0
  179.8900  179.6320  138.2450 C   0  0  0  0  0  3  0  0  0  0  0  0
  1  8  1  0  0  0  0
  2  6  1  0  0  0  0
  3 14  1  6  0  0  0
  3  7  1  0  0  0  0
  4 23  1  6  0  0  0
  4 14  1  0  0  0  0
  6  5  2  0  0  0  0
  7  1  2  0  0  0  0
  7  2  1  0  0  0  0
  8  5  1  0  0  0  0
  9 15  1  1  0  0  0
  9  3  1  0  0  0  0
 10  1  1  0  0  0  0
 11  2  2  0  0  0  0
 12 13  1  0  0  0  0
 12  4  1  0  0  0  0
 13 18  1  6  0  0  0
 13  9  1  0  0  0  0
 15 10  1  0  0  0  0
 16 17  1  0  0  0  0
 16 20  1  0  0  0  0
 17 19  2  0  0  0  0
 18 21  1  0  0  0  0
 19 21  1  0  0  0  0
 20 18  2  0  0  0  0
 22 16  2  0  0  0  0
 24 26  2  0  0  0  0
 25 26  1  0  0  0  0
 26 23  1  0  0  0  0
 27 25  1  0  0  0  0
 29 27  1  0  0  0  0
 30 28  1  0  0  0  0
 30 29  2  0  0  0  0
 31 34  2  0  0  0  0
 31 32  1  0  0  0  0
 32 33  2  0  0  0  0
 33 29  1  0  0  0  0
 34 30  1  0  0  0  0
M  END
>  <MODEL>
5

>  <REMARK>
 VINA RESULT:      -8.8      3.312      7.814
  Name = 
  5 active torsions:
  status: ('A' for Active; 'I' for Inactive)
    1  A    between atoms: C_3  and  C_13
    2  A    between atoms: C_3  and  N_17
    3  A    between atoms: C_5  and  C_18
    4  A    between atoms: C_12  and  C_28
    5  A    between atoms: C_18  and  C_29
                            x       y       z     vdW  Elec       q    Type
                         _______ _______ _______ _____ _____    ______ ____

>  <TORSDO>
F 5

$$$$
=
 OpenBabel11052414103D

 34 38  0  0  1  0  0  0  0  0999 V2000
  185.5450  178.2430  143.4790 C   0  0  0  0  0  0  0  0  0  0  0  0
  185.8840  178.6470  141.0880 C   0  0  0  0  0  0  0  0  0  0  0  0
  187.7080  177.4590  142.5490 C   0  0  2  0  0  3  0  0  0  0  0  0
  189.9330  177.1620  141.8090 C   0  0  1  0  0  3  0  0  0  0  0  0
  183.7440  179.2980  142.0360 C   0  0  0  0  0  3  0  0  0  0  0  0
  184.5200  179.1680  140.9630 C   0  0  0  0  0  3  0  0  0  0  0  0
  186.3750  178.1780  142.4090 C   0  0  0  0  0  0  0  0  0  0  0  0
  184.2240  178.9750  143.4240 C   0  0  0  0  0  2  0  0  0  0  0  0
  188.2410  177.5490  143.9800 C   0  0  2  0  0  3  0  0  0  0  0  0
  185.9550  177.7130  144.7490 N   0  0  0  0  0  2  0  0  0  0  0  0
  186.6020  178.5690  140.0580 O   0  0  0  0  0  0  0  0  0  0  0  0
  190.4750  177.3780  143.0930 O   0  0  0  0  0  0  0  0  0  0  0  0
  189.5840  176.8110  144.0280 C   0  0  1  0  0  3  0  0  0  0  0  0
  188.7200  177.9650  141.6260 N   0  0  0  0  0  2  0  0  0  0  0  0
  187.1930  176.9570  144.9090 C   0  0  0  0  0  2  0  0  0  0  0  0
  190.0870  177.5700  147.7110 C   0  0  0  0  0  0  0  0  0  0  0  0
  191.3670  176.9930  147.9770 N   0  0  0  0  0  0  0  0  0  0  0  0
  190.1940  176.8710  145.3930 C   0  0  0  0  0  0  0  0  0  0  0  0
  192.0470  176.3800  147.0550 C   0  0  0  0  0  3  0  0  0  0  0  0
  189.5210  177.4900  146.3640 C   0  0  0  0  0  3  0  0  0  0  0  0
  191.5400  176.2260  145.6420 C   0  0  0  0  0  2  0  0  0  0  0  0
  189.4520  178.1490  148.6290 O   0  0  0  0  0  0  0  0  0  0  0  0
  190.9650  177.5070  140.7370 C   0  0  0  0  0  2  0  0  0  0  0  0
  190.7720  175.7760  139.1060 O   0  0  0  0  0  0  0  0  0  0  0  0
  190.0100  177.8800  138.4310 N   0  0  0  0  0  2  0  0  0  0  0  0
  190.5700  176.9860  139.3930 C   0  0  0  0  0  0  0  0  0  0  0  0
  189.7120  177.4750  137.0680 C   0  0  0  0  0  2  0  0  0  0  0  0
  187.5540  179.3720  136.8430 O   0  0  0  0  0  1  0  0  0  0  0  0
  188.2830  177.0600  136.9780 C   0  0  0  0  0  0  0  0  0  0  0  0
  187.2600  178.0140  136.8520 C   0  0  0  0  0  0  0  0  0  0  0  0
  185.6190  176.2340  136.7270 C   0  0  0  0  0  3  0  0  0  0  0  0
  186.6370  175.2840  136.8450 C   0  0  0  0  0  3  0  0  0  0  0  0
  187.9660  175.6960  136.9670 C   0  0  0  0  0  3  0  0  0  0  0  0
  185.9310  177.5970  136.7290 C   0  0  0  0  0  3  0  0  0  0  0  0
  1 10  1  0  0  0  0
  2  7  1  0  0  0  0
  3 14  1  6  0  0  0
  3  9  1  0  0  0  0
  4 23  1  6  0  0  0
  4 12  1  0  0  0  0
  5  8  1  0  0  0  0
  6  2  1  0  0  0  0
  6  5  2  0  0  0  0
  7  3  1  0  0  0  0
  7  1  2  0  0  0  0
  8  1  1  0  0  0  0
  9 13  1  0  0  0  0
  9 15  1  1  0  0  0
 10 15  1  0  0  0  0
 11  2  2  0  0  0  0
 12 13  1  0  0  0  0
 13 18  1  1  0  0  0
 14  4  1  0  0  0  0
 16 17  1  0  0  0  0
 16 22  2  0  0  0  0
 18 21  1  0  0  0  0
 18 20  2  0  0  0  0
 19 17  2  0  0  0  0
 20 16  1  0  0  0  0
 21 19  1  0  0  0  0
 24 26  2  0  0  0  0
 25 26  1  0  0  0  0
 26 23  1  0  0  0  0
 27 25  1  0  0  0  0
 28 30  1  0  0  0  0
 29 27  1  0  0  0  0
 30 29  2  0  0  0  0
 31 34  2  0  0  0  0
 31 32  1  0  0  0  0
 32 33  2  0  0  0  0
 33 29  1  0  0  0  0
 34 30  1  0  0  0  0
M  END
>  <MODEL>
6

>  <REMARK>
 VINA RESULT:      -8.8      2.288      6.869
  Name = 
  5 active torsions:
  status: ('A' for Active; 'I' for Inactive)
    1  A    between atoms: C_3  and  C_13
    2  A    between atoms: C_3  and  N_17
    3  A    between atoms: C_5  and  C_18
    4  A    between atoms: C_12  and  C_28
    5  A    between atoms: C_18  and  C_29
                            x       y       z     vdW  Elec       q    Type
                         _______ _______ _______ _____ _____    ______ ____

>  <TORSDO>
F 5

$$$$
=
 OpenBabel11052414103D

 34 38  0  0  1  0  0  0  0  0999 V2000
  186.9380  177.9580  137.8790 C   0  0  0  0  0  0  0  0  0  0  0  0
  186.6410  178.5510  140.2360 C   0  0  0  0  0  0  0  0  0  0  0  0
  189.0010  177.9630  139.2590 C   0  0  2  0  0  3  0  0  0  0  0  0
  190.8620  177.4820  140.6340 C   0  0  1  0  0  3  0  0  0  0  0  0
  184.6750  178.6300  138.8100 C   0  0  0  0  0  3  0  0  0  0  0  0
  185.2230  178.8430  140.0040 C   0  0  0  0  0  3  0  0  0  0  0  0
  187.4930  178.0960  139.1080 C   0  0  0  0  0  0  0  0  0  0  0  0
  185.4450  178.0380  137.6620 C   0  0  0  0  0  2  0  0  0  0  0  0
  189.5830  177.0110  138.2120 C   0  0  2  0  0  3  0  0  0  0  0  0
  187.7530  177.6100  136.7490 N   0  0  0  0  0  2  0  0  0  0  0  0
  187.1190  178.7330  141.3850 O   0  0  0  0  0  0  0  0  0  0  0  0
  191.3570  176.4950  139.7570 O   0  0  0  0  0  0  0  0  0  0  0  0
  191.0970  176.9300  138.4410 C   0  0  1  0  0  3  0  0  0  0  0  0
  189.3970  177.5140  140.5900 N   0  0  0  0  0  2  0  0  0  0  0  0
  189.2080  177.5410  136.8370 C   0  0  0  0  0  2  0  0  0  0  0  0
  191.7470  173.9000  136.2520 C   0  0  0  0  0  0  0  0  0  0  0  0
  193.0000  174.2190  135.6420 N   0  0  0  0  0  0  0  0  0  0  0  0
  191.7480  175.9940  137.4720 C   0  0  0  0  0  0  0  0  0  0  0  0
  193.6180  175.3350  135.8880 C   0  0  0  0  0  3  0  0  0  0  0  0
  191.1390  174.8410  137.1940 C   0  0  0  0  0  3  0  0  0  0  0  0
  193.0620  176.3780  136.8280 C   0  0  0  0  0  2  0  0  0  0  0  0
  191.1730  172.8140  135.9850 O   0  0  0  0  0  0  0  0  0  0  0  0
  191.3450  177.2120  142.0580 C   0  0  0  0  0  2  0  0  0  0  0  0
  190.1790  175.2920  142.8610 O   0  0  0  0  0  0  0  0  0  0  0  0
  189.4010  177.3450  143.6620 N   0  0  0  0  0  2  0  0  0  0  0  0
  190.2950  176.5460  142.8860 C   0  0  0  0  0  0  0  0  0  0  0  0
  188.2830  176.7780  144.3960 C   0  0  0  0  0  2  0  0  0  0  0  0
  185.9570  177.9030  145.6730 O   0  0  0  0  0  1  0  0  0  0  0  0
  188.3030  177.2900  145.7960 C   0  0  0  0  0  0  0  0  0  0  0  0
  187.1440  177.8150  146.3900 C   0  0  0  0  0  0  0  0  0  0  0  0
  188.3620  178.1630  148.4560 C   0  0  0  0  0  3  0  0  0  0  0  0
  189.5140  177.6330  147.8700 C   0  0  0  0  0  3  0  0  0  0  0  0
  189.4840  177.1950  146.5430 C   0  0  0  0  0  3  0  0  0  0  0  0
  187.1790  178.2530  147.7180 C   0  0  0  0  0  3  0  0  0  0  0  0
  1  7  2  0  0  0  0
  2 11  2  0  0  0  0
  3  7  1  1  0  0  0
  3 14  1  0  0  0  0
  4 23  1  1  0  0  0
  5  6  2  0  0  0  0
  6  2  1  0  0  0  0
  7  2  1  0  0  0  0
  8  1  1  0  0  0  0
  8  5  1  0  0  0  0
  9 15  1  6  0  0  0
  9 13  1  0  0  0  0
  9  3  1  0  0  0  0
 10 15  1  0  0  0  0
 10  1  1  0  0  0  0
 12  4  1  0  0  0  0
 13 18  1  6  0  0  0
 13 12  1  0  0  0  0
 14  4  1  0  0  0  0
 16 20  1  0  0  0  0
 17 19  2  0  0  0  0
 17 16  1  0  0  0  0
 19 21  1  0  0  0  0
 20 18  2  0  0  0  0
 21 18  1  0  0  0  0
 22 16  2  0  0  0  0
 23 26  1  0  0  0  0
 24 26  2  0  0  0  0
 25 27  1  0  0  0  0
 26 25  1  0  0  0  0
 27 29  1  0  0  0  0
 28 30  1  0  0  0  0
 29 30  2  0  0  0  0
 29 33  1  0  0  0  0
 30 34  1  0  0  0  0
 32 31  1  0  0  0  0
 33 32  2  0  0  0  0
 34 31  2  0  0  0  0
M  END
>  <MODEL>
7

>  <REMARK>
 VINA RESULT:      -8.8      2.007      5.327
  Name = 
  5 active torsions:
  status: ('A' for Active; 'I' for Inactive)
    1  A    between atoms: C_3  and  C_13
    2  A    between atoms: C_3  and  N_17
    3  A    between atoms: C_5  and  C_18
    4  A    between atoms: C_12  and  C_28
    5  A    between atoms: C_18  and  C_29
                            x       y       z     vdW  Elec       q    Type
                         _______ _______ _______ _____ _____    ______ ____

>  <TORSDO>
F 5

$$$$
=
 OpenBabel11052414103D

 34 38  0  0  1  0  0  0  0  0999 V2000
  189.8000  176.8570  137.2320 C   0  0  0  0  0  0  0  0  0  0  0  0
  187.6060  177.6970  136.5440 C   0  0  0  0  0  0  0  0  0  0  0  0
  188.5560  178.1550  138.9430 C   0  0  2  0  0  3  0  0  0  0  0  0
  187.2050  178.9390  140.7170 C   0  0  1  0  0  3  0  0  0  0  0  0
  188.9170  176.5090  134.8790 C   0  0  0  0  0  3  0  0  0  0  0  0
  187.8220  177.2020  135.1810 C   0  0  0  0  0  3  0  0  0  0  0  0
  188.6550  177.4980  137.5750 C   0  0  0  0  0  0  0  0  0  0  0  0
  189.9550  176.1490  135.9060 C   0  0  0  0  0  2  0  0  0  0  0  0
  189.4100  177.4190  139.9770 C   0  0  2  0  0  3  0  0  0  0  0  0
  190.8730  176.7310  138.1790 N   0  0  0  0  0  2  0  0  0  0  0  0
  186.5430  178.3200  136.8030 O   0  0  0  0  0  0  0  0  0  0  0  0
  187.8820  178.1660  141.6830 O   0  0  0  0  0  0  0  0  0  0  0  0
  189.2440  178.1380  141.3210 C   0  0  1  0  0  3  0  0  0  0  0  0
  187.1810  178.2400  139.4290 N   0  0  0  0  0  2  0  0  0  0  0  0
  190.8450  177.4030  139.4740 C   0  0  0  0  0  2  0  0  0  0  0  0
  191.5030  177.6040  144.3230 C   0  0  0  0  0  0  0  0  0  0  0  0
  191.5310  176.1800  144.4430 N   0  0  0  0  0  0  0  0  0  0  0  0
  190.0300  177.4660  142.4030 C   0  0  0  0  0  0  0  0  0  0  0  0
  190.8670  175.4100  143.6340 C   0  0  0  0  0  3  0  0  0  0  0  0
  190.7210  178.2260  143.2530 C   0  0  0  0  0  3  0  0  0  0  0  0
  190.0150  175.9570  142.5130 C   0  0  0  0  0  2  0  0  0  0  0  0
  192.1510  178.3180  145.1290 O   0  0  0  0  0  0  0  0  0  0  0  0
  185.7820  179.2380  141.1850 C   0  0  0  0  0  2  0  0  0  0  0  0
  184.4820  177.5020  142.1800 O   0  0  0  0  0  0  0  0  0  0  0  0
  185.9850  178.5760  143.6120 N   0  0  0  0  0  2  0  0  0  0  0  0
  185.3790  178.3720  142.3350 C   0  0  0  0  0  0  0  0  0  0  0  0
  185.5620  177.8570  144.8010 C   0  0  0  0  0  2  0  0  0  0  0  0
  185.2580  179.0940  147.3860 O   0  0  0  0  0  1  0  0  0  0  0  0
  186.6570  177.8870  145.8110 C   0  0  0  0  0  0  0  0  0  0  0  0
  186.4650  178.4840  147.0680 C   0  0  0  0  0  0  0  0  0  0  0  0
  188.7140  177.8470  147.7110 C   0  0  0  0  0  3  0  0  0  0  0  0
  188.9030  177.2450  146.4650 C   0  0  0  0  0  3  0  0  0  0  0  0
  187.8760  177.2630  145.5180 C   0  0  0  0  0  3  0  0  0  0  0  0
  187.4960  178.4650  148.0130 C   0  0  0  0  0  3  0  0  0  0  0  0
  1  7  2  0  0  0  0
  1 10  1  0  0  0  0
  2 11  2  0  0  0  0
  2  7  1  0  0  0  0
  3  7  1  6  0  0  0
  3 14  1  0  0  0  0
  3  9  1  0  0  0  0
  4 23  1  1  0  0  0
  4 12  1  0  0  0  0
  5  6  2  0  0  0  0
  5  8  1  0  0  0  0
  6  2  1  0  0  0  0
  8  1  1  0  0  0  0
  9 15  1  6  0  0  0
  9 13  1  0  0  0  0
 10 15  1  0  0  0  0
 13 12  1  0  0  0  0
 13 18  1  1  0  0  0
 14  4  1  0  0  0  0
 16 17  1  0  0  0  0
 16 22  2  0  0  0  0
 18 21  1  0  0  0  0
 18 20  2  0  0  0  0
 19 17  2  0  0  0  0
 20 16  1  0  0  0  0
 21 19  1  0  0  0  0
 23 26  1  0  0  0  0
 24 26  2  0  0  0  0
 25 27  1  0  0  0  0
 26 25  1  0  0  0  0
 27 29  1  0  0  0  0
 29 30  1  0  0  0  0
 30 28  1  0  0  0  0
 30 34  2  0  0  0  0
 31 34  1  0  0  0  0
 32 31  2  0  0  0  0
 33 29  2  0  0  0  0
 33 32  1  0  0  0  0
M  END
>  <MODEL>
8

>  <REMARK>
 VINA RESULT:      -8.7      1.398      1.809
  Name = 
  5 active torsions:
  status: ('A' for Active; 'I' for Inactive)
    1  A    between atoms: C_3  and  C_13
    2  A    between atoms: C_3  and  N_17
    3  A    between atoms: C_5  and  C_18
    4  A    between atoms: C_12  and  C_28
    5  A    between atoms: C_18  and  C_29
                            x       y       z     vdW  Elec       q    Type
                         _______ _______ _______ _____ _____    ______ ____

>  <TORSDO>
F 5

$$$$
=
 OpenBabel11052414103D

 34 38  0  0  1  0  0  0  0  0999 V2000
  189.4650  177.1340  146.3380 C   0  0  0  0  0  0  0  0  0  0  0  0
  191.3530  176.3900  144.9680 C   0  0  0  0  0  0  0  0  0  0  0  0
  189.3080  177.6480  143.9150 C   0  0  2  0  0  3  0  0  0  0  0  0
  188.9110  177.7020  141.5860 C   0  0  1  0  0  3  0  0  0  0  0  0
  191.4950  176.0090  147.3620 C   0  0  0  0  0  3  0  0  0  0  0  0
  192.0710  175.9430  146.1640 C   0  0  0  0  0  3  0  0  0  0  0  0
  190.0060  177.0020  145.1020 C   0  0  0  0  0  0  0  0  0  0  0  0
  190.0820  176.4860  147.5550 C   0  0  0  0  0  2  0  0  0  0  0  0
  187.7950  177.7190  144.1310 C   0  0  2  0  0  3  0  0  0  0  0  0
  188.2070  177.8050  146.5120 N   0  0  0  0  0  2  0  0  0  0  0  0
  191.9130  176.2820  143.8460 O   0  0  0  0  0  0  0  0  0  0  0  0
  187.5110  177.6280  141.7400 O   0  0  0  0  0  0  0  0  0  0  0  0
  187.1740  178.3710  142.8900 C   0  0  1  0  0  3  0  0  0  0  0  0
  189.5820  176.9590  142.6570 N   0  0  0  0  0  2  0  0  0  0  0  0
  187.5410  178.4960  145.4130 C   0  0  0  0  0  2  0  0  0  0  0  0
  183.7000  178.8110  144.3500 C   0  0  0  0  0  0  0  0  0  0  0  0
  182.8560  178.6070  143.2140 N   0  0  0  0  0  0  0  0  0  0  0  0
  185.6850  178.4590  143.0050 C   0  0  0  0  0  0  0  0  0  0  0  0
  183.3410  178.3550  142.0360 C   0  0  0  0  0  3  0  0  0  0  0  0
  185.1530  178.7200  144.1990 C   0  0  0  0  0  3  0  0  0  0  0  0
  184.8250  178.2620  141.7750 C   0  0  0  0  0  2  0  0  0  0  0  0
  183.1950  179.0610  145.4750 O   0  0  0  0  0  0  0  0  0  0  0  0
  189.3200  177.1510  140.2210 C   0  0  0  0  0  2  0  0  0  0  0  0
  188.7130  179.1100  139.0020 O   0  0  0  0  0  0  0  0  0  0  0  0
  187.8250  177.1080  138.1870 N   0  0  0  0  0  2  0  0  0  0  0  0
  188.6240  177.8580  139.1030 C   0  0  0  0  0  0  0  0  0  0  0  0
  187.0260  177.7360  137.1500 C   0  0  0  0  0  2  0  0  0  0  0  0
  185.2440  179.4160  138.6710 O   0  0  0  0  0  1  0  0  0  0  0  0
  185.5890  177.3990  137.3630 C   0  0  0  0  0  0  0  0  0  0  0  0
  184.7470  178.2520  138.0960 C   0  0  0  0  0  0  0  0  0  0  0  0
  182.8780  176.7710  137.6680 C   0  0  0  0  0  3  0  0  0  0  0  0
  183.7120  175.9260  136.9320 C   0  0  0  0  0  3  0  0  0  0  0  0
  185.0650  176.2410  136.7780 C   0  0  0  0  0  3  0  0  0  0  0  0
  183.3940  177.9330  138.2480 C   0  0  0  0  0  3  0  0  0  0  0  0
  1 10  1  0  0  0  0
  1  8  1  0  0  0  0
  2  7  1  0  0  0  0
  2  6  1  0  0  0  0
  3 14  1  6  0  0  0
  3  9  1  0  0  0  0
  3  7  1  0  0  0  0
  4 23  1  6  0  0  0
  4 12  1  0  0  0  0
  4 14  1  0  0  0  0
  5  8  1  0  0  0  0
  6  5  2  0  0  0  0
  7  1  2  0  0  0  0
  9 15  1  1  0  0  0
 11  2  2  0  0  0  0
 12 13  1  0  0  0  0
 13 18  1  1  0  0  0
 13  9  1  0  0  0  0
 15 10  1  0  0  0  0
 16 22  2  0  0  0  0
 17 16  1  0  0  0  0
 18 20  2  0  0  0  0
 19 17  2  0  0  0  0
 20 16  1  0  0  0  0
 21 19  1  0  0  0  0
 21 18  1  0  0  0  0
 24 26  2  0  0  0  0
 25 26  1  0  0  0  0
 26 23  1  0  0  0  0
 27 29  1  0  0  0  0
 27 25  1  0  0  0  0
 29 30  1  0  0  0  0
 30 34  2  0  0  0  0
 30 28  1  0  0  0  0
 31 34  1  0  0  0  0
 32 31  2  0  0  0  0
 33 32  1  0  0  0  0
 33 29  2  0  0  0  0
M  END
>  <MODEL>
9

>  <REMARK>
 VINA RESULT:      -8.5      2.534      7.627
  Name = 
  5 active torsions:
  status: ('A' for Active; 'I' for Inactive)
    1  A    between atoms: C_3  and  C_13
    2  A    between atoms: C_3  and  N_17
    3  A    between atoms: C_5  and  C_18
    4  A    between atoms: C_12  and  C_28
    5  A    between atoms: C_18  and  C_29
                            x       y       z     vdW  Elec       q    Type
                         _______ _______ _______ _____ _____    ______ ____

>  <TORSDO>
F 5

$$$$
