=
 OpenBabel11052416153D

 43 47  0  0  0  0  0  0  0  0999 V2000
  186.0530  177.5710  145.9160 C   0  0  0  0  0  3  0  0  0  0  0  0
  182.8100  178.8110  141.6710 C   0  0  0  0  0  0  0  0  0  0  0  0
  184.7280  178.5440  139.6380 C   0  0  0  0  0  0  0  0  0  0  0  0
  183.5930  178.7550  144.3880 C   0  0  0  0  0  0  0  0  0  0  0  0
  186.4170  177.4790  144.6380 C   0  0  0  0  0  3  0  0  0  0  0  0
  185.2520  178.7400  146.3870 C   0  0  0  0  0  2  0  0  0  0  0  0
  184.5800  178.6210  143.3680 C   0  0  0  0  0  0  0  0  0  0  0  0
  183.8210  178.6240  145.8790 C   0  0  0  0  0  2  0  0  0  0  0  0
  186.0590  178.5610  143.6680 C   0  0  0  0  0  2  0  0  0  0  0  0
  185.1200  178.5080  140.9780 C   0  0  0  0  0  3  0  0  0  0  0  0
  184.1770  178.6460  142.0100 C   0  0  0  0  0  0  0  0  0  0  0  0
  181.8650  178.9390  142.6910 C   0  0  0  0  0  3  0  0  0  0  0  0
  182.4180  178.8440  140.3150 C   0  0  0  0  0  0  0  0  0  0  0  0
  183.3830  178.7090  139.3120 C   0  0  0  0  0  3  0  0  0  0  0  0
  182.2540  178.9050  144.0250 C   0  0  0  0  0  3  0  0  0  0  0  0
  180.9870  179.0360  139.9080 C   0  0  0  0  0  2  0  0  0  0  0  0
  180.4110  176.5380  140.2750 C   0  0  0  0  0  2  0  0  0  0  0  0
  180.3800  177.7450  139.3690 C   0  0  0  0  0  0  0  0  0  0  0  0
  179.0990  177.2720  140.0100 C   0  0  0  0  0  2  0  0  0  0  0  0
  181.0900  176.3610  137.5750 C   0  0  0  0  0  3  0  0  0  0  0  0
  180.5060  177.4340  137.9670 N   0  0  0  0  0  0  0  0  0  0  0  0
  181.1880  176.0440  136.1200 C   0  0  0  0  0  2  0  0  0  0  0  0
  182.5910  175.5870  135.7690 C   0  0  0  0  0  2  0  0  0  0  0  0
  183.5530  176.7430  135.9430 C   0  0  0  0  0  1  0  0  0  0  0  0
  185.7310  178.3620  138.5470 C   0  0  0  0  0  2  0  0  0  0  0  0
  187.0960  178.4160  139.0880 N   0  0  0  0  0  2  0  0  0  0  0  0
  187.3970  177.1410  137.1260 C   0  0  0  0  0  1  0  0  0  0  0  0
  187.9800  177.5460  138.3990 N   0  0  0  0  0  0  0  0  0  0  0  0
  189.2610  178.2050  138.1510 C   0  0  0  0  0  2  0  0  0  0  0  0
  190.3980  177.3090  138.5990 C   0  0  0  0  0  2  0  0  0  0  0  0
  190.0390  176.6590  139.9200 C   0  0  0  0  0  2  0  0  0  0  0  0
  190.7860  177.2820  141.0030 N   0  0  0  0  0  0  0  0  0  0  0  0
  192.2180  177.4590  140.8350 C   0  0  0  0  0  1  0  0  0  0  0  0
  188.8520  177.7190  142.2400 O   0  0  0  0  0  0  0  0  0  0  0  0
  190.1060  177.8150  142.1530 C   0  0  0  0  0  0  0  0  0  0  0  0
  190.8680  178.5370  143.2270 C   0  0  0  0  0  2  0  0  0  0  0  0
  189.7130  178.1960  145.4310 C   0  0  0  0  0  3  0  0  0  0  0  0
  190.7480  177.8560  144.5510 C   0  0  0  0  0  0  0  0  0  0  0  0
  192.4910  175.3070  146.5100 F   0  0  0  0  0  0  0  0  0  0  0  0
  190.5490  176.5890  147.0380 C   0  0  0  0  0  3  0  0  0  0  0  0
  191.5830  176.2490  146.1580 C   0  0  0  0  0  0  0  0  0  0  0  0
  189.6160  177.5650  146.6740 C   0  0  0  0  0  3  0  0  0  0  0  0
  191.6840  176.8840  144.9180 C   0  0  0  0  0  3  0  0  0  0  0  0
  1  6  1  0  0  0  0
  2 11  1  0  0  0  0
  2 12  1  0  0  0  0
  3 10  1  0  0  0  0
  4  8  1  0  0  0  0
  5  1  2  0  0  0  0
  7  9  1  0  0  0  0
  7  4  2  0  0  0  0
  8  6  1  0  0  0  0
  9  5  1  0  0  0  0
 10 11  2  0  0  0  0
 11  7  1  0  0  0  0
 12 15  2  0  0  0  0
 13  2  2  0  0  0  0
 14  3  2  0  0  0  0
 14 13  1  0  0  0  0
 15  4  1  0  0  0  0
 16 13  1  0  0  0  0
 18 16  1  0  0  0  0
 18 19  1  0  0  0  0
 18 17  1  0  0  0  0
 19 17  1  0  0  0  0
 20 21  2  0  0  0  0
 21 18  1  0  0  0  0
 22 20  1  0  0  0  0
 23 24  1  0  0  0  0
 23 22  1  0  0  0  0
 25 26  1  0  0  0  0
 25  3  1  0  0  0  0
 27 28  1  0  0  0  0
 28 26  1  0  0  0  0
 29 28  1  0  0  0  0
 29 30  1  0  0  0  0
 30 31  1  0  0  0  0
 31 32  1  0  0  0  0
 32 35  1  0  0  0  0
 33 32  1  0  0  0  0
 35 34  2  0  0  0  0
 35 36  1  0  0  0  0
 36 38  1  0  0  0  0
 37 42  1  0  0  0  0
 38 43  1  0  0  0  0
 38 37  2  0  0  0  0
 41 39  1  0  0  0  0
 41 40  1  0  0  0  0
 42 40  2  0  0  0  0
 43 41  2  0  0  0  0
M  END
>  <MODEL>
1

>  <REMARK>
 VINA RESULT:      -8.7      0.000      0.000
  Name = 
  14 active torsions:
  status: ('A' for Active; 'I' for Inactive)
    1  A    between atoms: C_1  and  C_34
    2  A    between atoms: C_1  and  C_35
    3  A    between atoms: C_2  and  N_7
    4  A    between atoms: C_2  and  C_13
    5  A    between atoms: C_3  and  C_17
    6  A    between atoms: C_3  and  C_42
    7  A    between atoms: C_4  and  C_14
    8  A    between atoms: C_4  and  C_41
    9  A    between atoms: N_7  and  N_12
   10  A    between atoms: C_9  and  C_37
   11  A    between atoms: N_10  and  C_42
   12  A    between atoms: N_12  and  C_17
   13  A    between atoms: C_19  and  C_37
   14  A    between atoms: N_32  and  C_35
                            x       y       z     vdW  Elec       q    Type
                         _______ _______ _______ _____ _____    ______ ____

>  <TORSDO>
F 14

$$$$
=
 OpenBabel11052416153D

 43 47  0  0  0  0  0  0  0  0999 V2000
  186.1340  177.5970  145.3950 C   0  0  0  0  0  3  0  0  0  0  0  0
  182.8340  178.8960  141.2120 C   0  0  0  0  0  0  0  0  0  0  0  0
  184.7130  178.6130  139.1440 C   0  0  0  0  0  0  0  0  0  0  0  0
  183.6630  178.8190  143.9150 C   0  0  0  0  0  0  0  0  0  0  0  0
  186.4740  177.5060  144.1100 C   0  0  0  0  0  3  0  0  0  0  0  0
  185.3570  178.7750  145.8840 C   0  0  0  0  0  2  0  0  0  0  0  0
  184.6300  178.6770  142.8770 C   0  0  0  0  0  0  0  0  0  0  0  0
  183.9160  178.6790  145.4010 C   0  0  0  0  0  2  0  0  0  0  0  0
  186.1140  178.5970  143.1510 C   0  0  0  0  0  2  0  0  0  0  0  0
  185.1270  178.5670  140.4770 C   0  0  0  0  0  3  0  0  0  0  0  0
  184.2040  178.7130  141.5270 C   0  0  0  0  0  0  0  0  0  0  0  0
  181.9080  179.0320  142.2480 C   0  0  0  0  0  3  0  0  0  0  0  0
  182.4190  178.9400  139.8630 C   0  0  0  0  0  0  0  0  0  0  0  0
  183.3640  178.7970  138.8430 C   0  0  0  0  0  3  0  0  0  0  0  0
  182.3200  178.9880  143.5760 C   0  0  0  0  0  3  0  0  0  0  0  0
  180.9830  179.1520  139.4820 C   0  0  0  0  0  2  0  0  0  0  0  0
  181.0420  179.5480  136.9230 C   0  0  0  0  0  2  0  0  0  0  0  0
  180.8520  180.1180  138.3080 C   0  0  0  0  0  0  0  0  0  0  0  0
  179.6510  179.9450  137.4120 C   0  0  0  0  0  2  0  0  0  0  0  0
  181.1750  182.3270  137.5030 C   0  0  0  0  0  3  0  0  0  0  0  0
  181.3070  181.4770  138.4550 N   0  0  0  0  0  0  0  0  0  0  0  0
  181.6290  183.7380  137.6830 C   0  0  0  0  0  2  0  0  0  0  0  0
  181.1700  184.5960  136.5210 C   0  0  0  0  0  2  0  0  0  0  0  0
  179.9550  185.3960  136.9380 C   0  0  0  0  0  1  0  0  0  0  0  0
  185.6940  178.4230  138.0350 C   0  0  0  0  0  2  0  0  0  0  0  0
  186.7260  177.4510  138.4220 N   0  0  0  0  0  2  0  0  0  0  0  0
  187.7550  178.3590  136.5030 C   0  0  0  0  0  1  0  0  0  0  0  0
  187.9700  177.7120  137.7920 N   0  0  0  0  0  0  0  0  0  0  0  0
  188.8000  178.5760  138.6290 C   0  0  0  0  0  2  0  0  0  0  0  0
  188.7960  178.0710  140.0570 C   0  0  0  0  0  2  0  0  0  0  0  0
  189.5800  176.7770  140.1390 C   0  0  0  0  0  2  0  0  0  0  0  0
  190.6850  176.9210  141.0760 N   0  0  0  0  0  0  0  0  0  0  0  0
  191.8660  177.6440  140.6390 C   0  0  0  0  0  1  0  0  0  0  0  0
  189.4920  175.9100  142.8140 O   0  0  0  0  0  0  0  0  0  0  0  0
  190.5600  176.4650  142.4350 C   0  0  0  0  0  0  0  0  0  0  0  0
  191.6650  176.6940  143.4250 C   0  0  0  0  0  2  0  0  0  0  0  0
  189.9870  177.5800  145.0700 C   0  0  0  0  0  3  0  0  0  0  0  0
  191.1460  176.8360  144.8180 C   0  0  0  0  0  0  0  0  0  0  0  0
  192.0220  175.7830  148.2090 F   0  0  0  0  0  0  0  0  0  0  0  0
  190.1990  177.1130  147.4360 C   0  0  0  0  0  3  0  0  0  0  0  0
  191.3560  176.3680  147.1850 C   0  0  0  0  0  0  0  0  0  0  0  0
  189.5150  177.7200  146.3790 C   0  0  0  0  0  3  0  0  0  0  0  0
  191.8310  176.2330  145.8780 C   0  0  0  0  0  3  0  0  0  0  0  0
  1  6  1  0  0  0  0
  2 11  1  0  0  0  0
  2 12  1  0  0  0  0
  3 10  1  0  0  0  0
  4  8  1  0  0  0  0
  5  1  2  0  0  0  0
  7  9  1  0  0  0  0
  7  4  2  0  0  0  0
  8  6  1  0  0  0  0
  9  5  1  0  0  0  0
 10 11  2  0  0  0  0
 11  7  1  0  0  0  0
 12 15  2  0  0  0  0
 13  2  2  0  0  0  0
 14  3  2  0  0  0  0
 14 13  1  0  0  0  0
 15  4  1  0  0  0  0
 16 13  1  0  0  0  0
 17 19  1  0  0  0  0
 17 18  1  0  0  0  0
 18 21  1  0  0  0  0
 18 16  1  0  0  0  0
 19 18  1  0  0  0  0
 20 22  1  0  0  0  0
 20 21  2  0  0  0  0
 23 24  1  0  0  0  0
 23 22  1  0  0  0  0
 25 26  1  0  0  0  0
 25  3  1  0  0  0  0
 27 28  1  0  0  0  0
 28 26  1  0  0  0  0
 28 29  1  0  0  0  0
 29 30  1  0  0  0  0
 30 31  1  0  0  0  0
 31 32  1  0  0  0  0
 32 35  1  0  0  0  0
 33 32  1  0  0  0  0
 35 34  2  0  0  0  0
 35 36  1  0  0  0  0
 36 38  1  0  0  0  0
 37 42  1  0  0  0  0
 38 37  2  0  0  0  0
 38 43  1  0  0  0  0
 41 40  1  0  0  0  0
 41 39  1  0  0  0  0
 42 40  2  0  0  0  0
 43 41  2  0  0  0  0
M  END
>  <MODEL>
2

>  <REMARK>
 VINA RESULT:      -8.7      2.172      2.902
  Name = 
  14 active torsions:
  status: ('A' for Active; 'I' for Inactive)
    1  A    between atoms: C_1  and  C_34
    2  A    between atoms: C_1  and  C_35
    3  A    between atoms: C_2  and  N_7
    4  A    between atoms: C_2  and  C_13
    5  A    between atoms: C_3  and  C_17
    6  A    between atoms: C_3  and  C_42
    7  A    between atoms: C_4  and  C_14
    8  A    between atoms: C_4  and  C_41
    9  A    between atoms: N_7  and  N_12
   10  A    between atoms: C_9  and  C_37
   11  A    between atoms: N_10  and  C_42
   12  A    between atoms: N_12  and  C_17
   13  A    between atoms: C_19  and  C_37
   14  A    between atoms: N_32  and  C_35
                            x       y       z     vdW  Elec       q    Type
                         _______ _______ _______ _____ _____    ______ ____

>  <TORSDO>
F 14

$$$$
=
 OpenBabel11052416153D

 43 47  0  0  0  0  0  0  0  0999 V2000
  186.6780  177.5110  145.8220 C   0  0  0  0  0  3  0  0  0  0  0  0
  182.8650  178.8850  142.1270 C   0  0  0  0  0  0  0  0  0  0  0  0
  184.5030  178.8120  139.8470 C   0  0  0  0  0  0  0  0  0  0  0  0
  184.0030  178.6940  144.7090 C   0  0  0  0  0  0  0  0  0  0  0  0
  186.8700  177.5110  144.5040 C   0  0  0  0  0  3  0  0  0  0  0  0
  185.9130  178.6200  146.4680 C   0  0  0  0  0  2  0  0  0  0  0  0
  184.8500  178.6590  143.5610 C   0  0  0  0  0  0  0  0  0  0  0  0
  184.4310  178.4830  146.1450 C   0  0  0  0  0  2  0  0  0  0  0  0
  186.3570  178.6350  143.6620 C   0  0  0  0  0  2  0  0  0  0  0  0
  185.0700  178.7100  141.1190 C   0  0  0  0  0  3  0  0  0  0  0  0
  184.2690  178.7510  142.2730 C   0  0  0  0  0  0  0  0  0  0  0  0
  182.0610  178.9170  143.2670 C   0  0  0  0  0  3  0  0  0  0  0  0
  182.2960  178.9860  140.8390 C   0  0  0  0  0  0  0  0  0  0  0  0
  183.1230  178.9470  139.7120 C   0  0  0  0  0  3  0  0  0  0  0  0
  182.6240  178.8170  144.5340 C   0  0  0  0  0  3  0  0  0  0  0  0
  180.8180  179.1490  140.6360 C   0  0  0  0  0  2  0  0  0  0  0  0
  180.8070  176.6180  140.0880 C   0  0  0  0  0  2  0  0  0  0  0  0
  180.2310  177.9900  139.8360 C   0  0  0  0  0  0  0  0  0  0  0  0
  179.4140  176.9780  140.5990 C   0  0  0  0  0  2  0  0  0  0  0  0
  180.3590  179.1090  137.7460 C   0  0  0  0  0  3  0  0  0  0  0  0
  179.8050  178.2110  138.4770 N   0  0  0  0  0  0  0  0  0  0  0  0
  179.9210  179.3050  136.3320 C   0  0  0  0  0  2  0  0  0  0  0  0
  180.3180  180.6830  135.8400 C   0  0  0  0  0  2  0  0  0  0  0  0
  180.7290  181.5380  137.0190 C   0  0  0  0  0  1  0  0  0  0  0  0
  185.3570  178.7330  138.6250 C   0  0  0  0  0  2  0  0  0  0  0  0
  185.1230  177.4680  137.9150 N   0  0  0  0  0  2  0  0  0  0  0  0
  185.7870  176.4600  135.8880 C   0  0  0  0  0  1  0  0  0  0  0  0
  186.2380  177.0820  137.1270 N   0  0  0  0  0  0  0  0  0  0  0  0
  187.0680  178.2410  136.8060 C   0  0  0  0  0  2  0  0  0  0  0  0
  188.5330  177.8840  136.9530 C   0  0  0  0  0  2  0  0  0  0  0  0
  189.0930  178.5470  138.1960 C   0  0  0  0  0  2  0  0  0  0  0  0
  189.8550  177.5830  138.9770 N   0  0  0  0  0  0  0  0  0  0  0  0
  191.0360  176.9930  138.3740 C   0  0  0  0  0  1  0  0  0  0  0  0
  188.5290  177.9020  140.8760 O   0  0  0  0  0  0  0  0  0  0  0  0
  189.5140  177.3160  140.3490 C   0  0  0  0  0  0  0  0  0  0  0  0
  190.3540  176.3910  141.1810 C   0  0  0  0  0  2  0  0  0  0  0  0
  190.0540  176.2470  143.6700 C   0  0  0  0  0  3  0  0  0  0  0  0
  190.5740  176.9220  142.5590 C   0  0  0  0  0  0  0  0  0  0  0  0
  192.1900  179.7670  144.1920 F   0  0  0  0  0  0  0  0  0  0  0  0
  190.9740  177.9420  145.1330 C   0  0  0  0  0  3  0  0  0  0  0  0
  191.4940  178.6170  144.0240 C   0  0  0  0  0  0  0  0  0  0  0  0
  190.2520  176.7590  144.9560 C   0  0  0  0  0  3  0  0  0  0  0  0
  191.2910  178.1090  142.7370 C   0  0  0  0  0  3  0  0  0  0  0  0
  1  6  1  0  0  0  0
  2 11  1  0  0  0  0
  2 12  1  0  0  0  0
  3 10  1  0  0  0  0
  4  8  1  0  0  0  0
  5  1  2  0  0  0  0
  7  9  1  0  0  0  0
  7  4  2  0  0  0  0
  8  6  1  0  0  0  0
  9  5  1  0  0  0  0
 10 11  2  0  0  0  0
 11  7  1  0  0  0  0
 12 15  2  0  0  0  0
 13  2  2  0  0  0  0
 14  3  2  0  0  0  0
 14 13  1  0  0  0  0
 15  4  1  0  0  0  0
 16 13  1  0  0  0  0
 17 19  1  0  0  0  0
 18 17  1  0  0  0  0
 18 19  1  0  0  0  0
 18 16  1  0  0  0  0
 20 21  2  0  0  0  0
 21 18  1  0  0  0  0
 22 20  1  0  0  0  0
 23 22  1  0  0  0  0
 23 24  1  0  0  0  0
 25  3  1  0  0  0  0
 26 25  1  0  0  0  0
 27 28  1  0  0  0  0
 28 26  1  0  0  0  0
 29 30  1  0  0  0  0
 29 28  1  0  0  0  0
 30 31  1  0  0  0  0
 31 32  1  0  0  0  0
 32 35  1  0  0  0  0
 33 32  1  0  0  0  0
 35 34  2  0  0  0  0
 35 36  1  0  0  0  0
 36 38  1  0  0  0  0
 37 42  1  0  0  0  0
 38 43  1  0  0  0  0
 38 37  2  0  0  0  0
 41 39  1  0  0  0  0
 41 40  1  0  0  0  0
 42 40  2  0  0  0  0
 43 41  2  0  0  0  0
M  END
>  <MODEL>
3

>  <REMARK>
 VINA RESULT:      -8.1      1.669      2.252
  Name = 
  14 active torsions:
  status: ('A' for Active; 'I' for Inactive)
    1  A    between atoms: C_1  and  C_34
    2  A    between atoms: C_1  and  C_35
    3  A    between atoms: C_2  and  N_7
    4  A    between atoms: C_2  and  C_13
    5  A    between atoms: C_3  and  C_17
    6  A    between atoms: C_3  and  C_42
    7  A    between atoms: C_4  and  C_14
    8  A    between atoms: C_4  and  C_41
    9  A    between atoms: N_7  and  N_12
   10  A    between atoms: C_9  and  C_37
   11  A    between atoms: N_10  and  C_42
   12  A    between atoms: N_12  and  C_17
   13  A    between atoms: C_19  and  C_37
   14  A    between atoms: N_32  and  C_35
                            x       y       z     vdW  Elec       q    Type
                         _______ _______ _______ _____ _____    ______ ____

>  <TORSDO>
F 14

$$$$
=
 OpenBabel11052416153D

 43 47  0  0  0  0  0  0  0  0999 V2000
  188.4510  177.8820  147.1150 C   0  0  0  0  0  3  0  0  0  0  0  0
  190.7040  177.2610  142.1540 C   0  0  0  0  0  0  0  0  0  0  0  0
  188.4420  177.9180  140.6260 C   0  0  0  0  0  0  0  0  0  0  0  0
  190.4800  176.8920  144.9490 C   0  0  0  0  0  0  0  0  0  0  0  0
  187.8480  178.1940  145.9690 C   0  0  0  0  0  3  0  0  0  0  0  0
  189.2540  176.6270  147.2240 C   0  0  0  0  0  2  0  0  0  0  0  0
  189.3210  177.2220  144.1870 C   0  0  0  0  0  0  0  0  0  0  0  0
  190.5600  176.7810  146.4570 C   0  0  0  0  0  2  0  0  0  0  0  0
  187.9370  177.2760  144.7910 C   0  0  0  0  0  2  0  0  0  0  0  0
  188.3270  177.7440  142.0060 C   0  0  0  0  0  3  0  0  0  0  0  0
  189.4450  177.4090  142.7890 C   0  0  0  0  0  0  0  0  0  0  0  0
  191.8220  176.9380  142.9250 C   0  0  0  0  0  3  0  0  0  0  0  0
  190.8170  177.4400  140.7590 C   0  0  0  0  0  0  0  0  0  0  0  0
  189.6830  177.7680  140.0090 C   0  0  0  0  0  3  0  0  0  0  0  0
  191.7090  176.7630  144.3000 C   0  0  0  0  0  3  0  0  0  0  0  0
  192.1250  177.2740  140.0410 C   0  0  0  0  0  2  0  0  0  0  0  0
  192.7330  176.7410  137.5810 C   0  0  0  0  0  2  0  0  0  0  0  0
  191.9880  176.3510  138.8350 C   0  0  0  0  0  0  0  0  0  0  0  0
  193.2140  175.5680  138.4310 C   0  0  0  0  0  2  0  0  0  0  0  0
  190.3250  175.4510  137.4000 C   0  0  0  0  0  3  0  0  0  0  0  0
  190.7360  175.6800  138.5940 N   0  0  0  0  0  0  0  0  0  0  0  0
  189.0370  174.7320  137.1710 C   0  0  0  0  0  2  0  0  0  0  0  0
  189.2880  173.2540  136.9390 C   0  0  0  0  0  2  0  0  0  0  0  0
  190.0830  173.0760  135.6630 C   0  0  0  0  0  1  0  0  0  0  0  0
  187.2570  178.3080  139.8060 C   0  0  0  0  0  2  0  0  0  0  0  0
  187.5140  178.0620  138.3800 N   0  0  0  0  0  2  0  0  0  0  0  0
  186.4080  177.8090  136.3120 C   0  0  0  0  0  1  0  0  0  0  0  0
  186.4780  178.5690  137.5540 N   0  0  0  0  0  0  0  0  0  0  0  0
  185.1880  178.4880  138.2370 C   0  0  0  0  0  2  0  0  0  0  0  0
  184.3400  177.4000  137.6110 C   0  0  0  0  0  2  0  0  0  0  0  0
  182.8760  177.7760  137.7160 C   0  0  0  0  0  2  0  0  0  0  0  0
  182.3980  177.5520  139.0730 N   0  0  0  0  0  0  0  0  0  0  0  0
  182.4280  176.1970  139.5940 C   0  0  0  0  0  1  0  0  0  0  0  0
  182.0790  179.8340  139.4610 O   0  0  0  0  0  0  0  0  0  0  0  0
  182.0210  178.6580  139.9120 C   0  0  0  0  0  0  0  0  0  0  0  0
  181.6140  178.4330  141.3390 C   0  0  0  0  0  2  0  0  0  0  0  0
  184.0630  178.7270  141.8130 C   0  0  0  0  0  3  0  0  0  0  0  0
  182.7470  178.6600  142.2860 C   0  0  0  0  0  0  0  0  0  0  0  0
  183.2940  179.1270  145.8710 F   0  0  0  0  0  0  0  0  0  0  0  0
  184.8610  179.0640  144.0730 C   0  0  0  0  0  3  0  0  0  0  0  0
  183.5460  178.9990  144.5460 C   0  0  0  0  0  0  0  0  0  0  0  0
  185.1190  178.9260  142.7060 C   0  0  0  0  0  3  0  0  0  0  0  0
  182.4900  178.7930  143.6540 C   0  0  0  0  0  3  0  0  0  0  0  0
  1  6  1  0  0  0  0
  2 11  1  0  0  0  0
  2 12  1  0  0  0  0
  3 10  1  0  0  0  0
  4  8  1  0  0  0  0
  5  1  2  0  0  0  0
  7  9  1  0  0  0  0
  7  4  2  0  0  0  0
  8  6  1  0  0  0  0
  9  5  1  0  0  0  0
 10 11  2  0  0  0  0
 11  7  1  0  0  0  0
 12 15  2  0  0  0  0
 13  2  2  0  0  0  0
 14  3  2  0  0  0  0
 14 13  1  0  0  0  0
 15  4  1  0  0  0  0
 16 13  1  0  0  0  0
 17 19  1  0  0  0  0
 17 18  1  0  0  0  0
 18 16  1  0  0  0  0
 19 18  1  0  0  0  0
 20 21  2  0  0  0  0
 21 18  1  0  0  0  0
 22 20  1  0  0  0  0
 23 22  1  0  0  0  0
 24 23  1  0  0  0  0
 25  3  1  0  0  0  0
 26 25  1  0  0  0  0
 27 28  1  0  0  0  0
 28 29  1  0  0  0  0
 28 26  1  0  0  0  0
 30 31  1  0  0  0  0
 30 29  1  0  0  0  0
 31 32  1  0  0  0  0
 32 33  1  0  0  0  0
 32 35  1  0  0  0  0
 34 35  2  0  0  0  0
 35 36  1  0  0  0  0
 36 38  1  0  0  0  0
 37 38  2  0  0  0  0
 37 42  1  0  0  0  0
 38 43  1  0  0  0  0
 40 41  1  0  0  0  0
 41 39  1  0  0  0  0
 42 40  2  0  0  0  0
 43 41  2  0  0  0  0
M  END
>  <MODEL>
4

>  <REMARK>
 VINA RESULT:      -8.1      2.668      7.732
  Name = 
  14 active torsions:
  status: ('A' for Active; 'I' for Inactive)
    1  A    between atoms: C_1  and  C_34
    2  A    between atoms: C_1  and  C_35
    3  A    between atoms: C_2  and  N_7
    4  A    between atoms: C_2  and  C_13
    5  A    between atoms: C_3  and  C_17
    6  A    between atoms: C_3  and  C_42
    7  A    between atoms: C_4  and  C_14
    8  A    between atoms: C_4  and  C_41
    9  A    between atoms: N_7  and  N_12
   10  A    between atoms: C_9  and  C_37
   11  A    between atoms: N_10  and  C_42
   12  A    between atoms: N_12  and  C_17
   13  A    between atoms: C_19  and  C_37
   14  A    between atoms: N_32  and  C_35
                            x       y       z     vdW  Elec       q    Type
                         _______ _______ _______ _____ _____    ______ ____

>  <TORSDO>
F 14

$$$$
=
 OpenBabel11052416153D

 43 47  0  0  0  0  0  0  0  0999 V2000
  184.5150  178.6050  144.4090 C   0  0  0  0  0  3  0  0  0  0  0  0
  182.8520  178.0180  139.2160 C   0  0  0  0  0  0  0  0  0  0  0  0
  185.3880  177.9130  138.0150 C   0  0  0  0  0  0  0  0  0  0  0  0
  182.5920  178.7190  141.9430 C   0  0  0  0  0  0  0  0  0  0  0  0
  185.3270  178.3720  143.3790 C   0  0  0  0  0  3  0  0  0  0  0  0
  183.3810  179.5680  144.2680 C   0  0  0  0  0  2  0  0  0  0  0  0
  183.8870  178.6740  141.3480 C   0  0  0  0  0  0  0  0  0  0  0  0
  182.2860  178.9540  143.4070 C   0  0  0  0  0  2  0  0  0  0  0  0
  185.1360  179.0960  142.0840 C   0  0  0  0  0  2  0  0  0  0  0  0
  185.2660  178.2530  139.3640 C   0  0  0  0  0  3  0  0  0  0  0  0
  184.0060  178.3170  139.9830 C   0  0  0  0  0  0  0  0  0  0  0  0
  181.5960  178.0700  139.8250 C   0  0  0  0  0  3  0  0  0  0  0  0
  182.9790  177.6720  137.8530 C   0  0  0  0  0  0  0  0  0  0  0  0
  184.2480  177.6230  137.2680 C   0  0  0  0  0  3  0  0  0  0  0  0
  181.4740  178.4090  141.1670 C   0  0  0  0  0  3  0  0  0  0  0  0
  181.7850  177.3670  136.9970 C   0  0  0  0  0  2  0  0  0  0  0  0
  180.1420  175.4530  137.5870 C   0  0  0  0  0  2  0  0  0  0  0  0
  181.4650  175.8750  136.9940 C   0  0  0  0  0  0  0  0  0  0  0  0
  180.3600  175.4160  136.0760 C   0  0  0  0  0  2  0  0  0  0  0  0
  182.6030  173.8590  136.4700 C   0  0  0  0  0  3  0  0  0  0  0  0
  182.5290  174.9220  137.1840 N   0  0  0  0  0  0  0  0  0  0  0  0
  183.7270  172.8960  136.6650 C   0  0  0  0  0  2  0  0  0  0  0  0
  183.2000  171.5530  137.1340 C   0  0  0  0  0  2  0  0  0  0  0  0
  183.2570  170.5660  135.9880 C   0  0  0  0  0  1  0  0  0  0  0  0
  186.7320  177.8130  137.3740 C   0  0  0  0  0  2  0  0  0  0  0  0
  187.6760  177.1200  138.2620 N   0  0  0  0  0  2  0  0  0  0  0  0
  188.9750  178.9340  137.4950 C   0  0  0  0  0  1  0  0  0  0  0  0
  188.8480  177.8840  138.4980 N   0  0  0  0  0  0  0  0  0  0  0  0
  188.8070  178.4930  139.8260 C   0  0  0  0  0  2  0  0  0  0  0  0
  188.9620  177.4250  140.8890 C   0  0  0  0  0  2  0  0  0  0  0  0
  190.4220  177.0420  141.0130 C   0  0  0  0  0  2  0  0  0  0  0  0
  190.8800  177.2510  142.3800 N   0  0  0  0  0  0  0  0  0  0  0  0
  191.3160  178.5830  142.7600 C   0  0  0  0  0  1  0  0  0  0  0  0
  190.3320  175.0710  143.0190 O   0  0  0  0  0  0  0  0  0  0  0  0
  190.7880  176.1980  143.3550 C   0  0  0  0  0  0  0  0  0  0  0  0
  191.1760  176.4420  144.7840 C   0  0  0  0  0  2  0  0  0  0  0  0
  188.7570  177.0740  145.0230 C   0  0  0  0  0  3  0  0  0  0  0  0
  190.0260  176.9380  145.5980 C   0  0  0  0  0  0  0  0  0  0  0  0
  189.3490  178.0860  149.0040 F   0  0  0  0  0  0  0  0  0  0  0  0
  187.8870  177.8910  147.1290 C   0  0  0  0  0  3  0  0  0  0  0  0
  189.1540  177.7540  147.7050 C   0  0  0  0  0  0  0  0  0  0  0  0
  187.6890  177.5520  145.7870 C   0  0  0  0  0  3  0  0  0  0  0  0
  190.2240  177.2820  146.9390 C   0  0  0  0  0  3  0  0  0  0  0  0
  2 12  1  0  0  0  0
  2 11  1  0  0  0  0
  3 10  1  0  0  0  0
  4  8  1  0  0  0  0
  5  1  2  0  0  0  0
  6  1  1  0  0  0  0
  7  4  2  0  0  0  0
  7  9  1  0  0  0  0
  8  6  1  0  0  0  0
  9  5  1  0  0  0  0
 10 11  2  0  0  0  0
 11  7  1  0  0  0  0
 12 15  2  0  0  0  0
 13  2  2  0  0  0  0
 14 13  1  0  0  0  0
 14  3  2  0  0  0  0
 15  4  1  0  0  0  0
 16 13  1  0  0  0  0
 18 16  1  0  0  0  0
 18 21  1  0  0  0  0
 18 17  1  0  0  0  0
 19 18  1  0  0  0  0
 19 17  1  0  0  0  0
 20 22  1  0  0  0  0
 20 21  2  0  0  0  0
 22 23  1  0  0  0  0
 24 23  1  0  0  0  0
 25  3  1  0  0  0  0
 25 26  1  0  0  0  0
 26 28  1  0  0  0  0
 27 28  1  0  0  0  0
 28 29  1  0  0  0  0
 29 30  1  0  0  0  0
 30 31  1  0  0  0  0
 31 32  1  0  0  0  0
 32 33  1  0  0  0  0
 32 35  1  0  0  0  0
 34 35  2  0  0  0  0
 35 36  1  0  0  0  0
 36 38  1  0  0  0  0
 37 38  2  0  0  0  0
 37 42  1  0  0  0  0
 38 43  1  0  0  0  0
 40 41  1  0  0  0  0
 41 39  1  0  0  0  0
 42 40  2  0  0  0  0
 43 41  2  0  0  0  0
M  END
>  <MODEL>
5

>  <REMARK>
 VINA RESULT:      -8.0      1.882      2.844
  Name = 
  14 active torsions:
  status: ('A' for Active; 'I' for Inactive)
    1  A    between atoms: C_1  and  C_34
    2  A    between atoms: C_1  and  C_35
    3  A    between atoms: C_2  and  N_7
    4  A    between atoms: C_2  and  C_13
    5  A    between atoms: C_3  and  C_17
    6  A    between atoms: C_3  and  C_42
    7  A    between atoms: C_4  and  C_14
    8  A    between atoms: C_4  and  C_41
    9  A    between atoms: N_7  and  N_12
   10  A    between atoms: C_9  and  C_37
   11  A    between atoms: N_10  and  C_42
   12  A    between atoms: N_12  and  C_17
   13  A    between atoms: C_19  and  C_37
   14  A    between atoms: N_32  and  C_35
                            x       y       z     vdW  Elec       q    Type
                         _______ _______ _______ _____ _____    ______ ____

>  <TORSDO>
F 14

$$$$
=
 OpenBabel11052416153D

 43 47  0  0  0  0  0  0  0  0999 V2000
  184.5930  178.4630  144.7330 C   0  0  0  0  0  3  0  0  0  0  0  0
  182.1570  178.1220  139.8310 C   0  0  0  0  0  0  0  0  0  0  0  0
  184.4780  177.8460  138.2730 C   0  0  0  0  0  0  0  0  0  0  0  0
  182.3500  178.7810  142.5740 C   0  0  0  0  0  0  0  0  0  0  0  0
  185.2270  178.1900  143.5930 C   0  0  0  0  0  3  0  0  0  0  0  0
  183.5320  179.5140  144.7690 C   0  0  0  0  0  2  0  0  0  0  0  0
  183.5380  178.6480  141.7960 C   0  0  0  0  0  0  0  0  0  0  0  0
  182.2780  179.0060  144.0690 C   0  0  0  0  0  2  0  0  0  0  0  0
  184.9100  178.9550  142.3470 C   0  0  0  0  0  2  0  0  0  0  0  0
  184.5790  178.1650  139.6290 C   0  0  0  0  0  3  0  0  0  0  0  0
  183.4310  178.3140  140.4250 C   0  0  0  0  0  0  0  0  0  0  0  0
  181.0110  178.2580  140.6160 C   0  0  0  0  0  3  0  0  0  0  0  0
  182.0590  177.7980  138.4600 C   0  0  0  0  0  0  0  0  0  0  0  0
  183.2230  177.6620  137.6960 C   0  0  0  0  0  3  0  0  0  0  0  0
  181.1110  178.5760  141.9650 C   0  0  0  0  0  3  0  0  0  0  0  0
  180.7340  177.6050  137.7840 C   0  0  0  0  0  2  0  0  0  0  0  0
  180.7740  178.9300  135.5590 C   0  0  0  0  0  2  0  0  0  0  0  0
  180.3210  178.8450  136.9970 C   0  0  0  0  0  0  0  0  0  0  0  0
  179.3110  178.6490  135.8930 C   0  0  0  0  0  2  0  0  0  0  0  0
  181.1840  180.9850  137.5550 C   0  0  0  0  0  3  0  0  0  0  0  0
  180.2450  180.1180  137.6680 N   0  0  0  0  0  0  0  0  0  0  0  0
  181.0740  182.3080  138.2370 C   0  0  0  0  0  2  0  0  0  0  0  0
  180.2920  183.2840  137.3800 C   0  0  0  0  0  2  0  0  0  0  0  0
  181.2320  184.3360  136.8340 C   0  0  0  0  0  1  0  0  0  0  0  0
  185.7030  177.6560  137.4420 C   0  0  0  0  0  2  0  0  0  0  0  0
  186.6880  178.7080  137.7290 N   0  0  0  0  0  2  0  0  0  0  0  0
  189.0470  178.7070  137.7670 C   0  0  0  0  0  1  0  0  0  0  0  0
  187.8330  178.2020  138.3970 N   0  0  0  0  0  0  0  0  0  0  0  0
  187.8260  178.5960  139.8040 C   0  0  0  0  0  2  0  0  0  0  0  0
  188.4820  177.5210  140.6460 C   0  0  0  0  0  2  0  0  0  0  0  0
  189.3800  178.1670  141.6810 C   0  0  0  0  0  2  0  0  0  0  0  0
  189.4310  177.3450  142.8820 N   0  0  0  0  0  0  0  0  0  0  0  0
  188.7960  176.0400  142.8460 C   0  0  0  0  0  1  0  0  0  0  0  0
  190.8020  178.8690  144.0060 O   0  0  0  0  0  0  0  0  0  0  0  0
  190.1930  177.7650  144.0280 C   0  0  0  0  0  0  0  0  0  0  0  0
  190.3190  176.8760  145.2310 C   0  0  0  0  0  2  0  0  0  0  0  0
  190.0800  177.6610  147.6050 C   0  0  0  0  0  3  0  0  0  0  0  0
  189.4870  177.3590  146.3730 C   0  0  0  0  0  0  0  0  0  0  0  0
  185.9800  178.0760  147.1210 F   0  0  0  0  0  0  0  0  0  0  0  0
  187.9120  178.2420  148.5100 C   0  0  0  0  0  3  0  0  0  0  0  0
  187.3190  177.9430  147.2800 C   0  0  0  0  0  0  0  0  0  0  0  0
  189.2930  178.0990  148.6730 C   0  0  0  0  0  3  0  0  0  0  0  0
  188.1050  177.4980  146.2130 C   0  0  0  0  0  3  0  0  0  0  0  0
  1  6  1  0  0  0  0
  2 11  1  0  0  0  0
  2 12  1  0  0  0  0
  3 10  1  0  0  0  0
  4  8  1  0  0  0  0
  5  1  2  0  0  0  0
  7  9  1  0  0  0  0
  7  4  2  0  0  0  0
  8  6  1  0  0  0  0
  9  5  1  0  0  0  0
 10 11  2  0  0  0  0
 11  7  1  0  0  0  0
 12 15  2  0  0  0  0
 13  2  2  0  0  0  0
 14  3  2  0  0  0  0
 14 13  1  0  0  0  0
 15  4  1  0  0  0  0
 16 13  1  0  0  0  0
 17 19  1  0  0  0  0
 17 18  1  0  0  0  0
 18 21  1  0  0  0  0
 18 16  1  0  0  0  0
 19 18  1  0  0  0  0
 20 21  2  0  0  0  0
 20 22  1  0  0  0  0
 23 22  1  0  0  0  0
 24 23  1  0  0  0  0
 25 26  1  0  0  0  0
 25  3  1  0  0  0  0
 26 28  1  0  0  0  0
 27 28  1  0  0  0  0
 28 29  1  0  0  0  0
 29 30  1  0  0  0  0
 30 31  1  0  0  0  0
 31 32  1  0  0  0  0
 32 35  1  0  0  0  0
 33 32  1  0  0  0  0
 34 35  2  0  0  0  0
 35 36  1  0  0  0  0
 36 38  1  0  0  0  0
 37 42  1  0  0  0  0
 38 37  2  0  0  0  0
 39 41  1  0  0  0  0
 40 42  2  0  0  0  0
 41 40  1  0  0  0  0
 43 38  1  0  0  0  0
 43 41  2  0  0  0  0
M  END
>  <MODEL>
6

>  <REMARK>
 VINA RESULT:      -7.9      2.374      3.448
  Name = 
  14 active torsions:
  status: ('A' for Active; 'I' for Inactive)
    1  A    between atoms: C_1  and  C_34
    2  A    between atoms: C_1  and  C_35
    3  A    between atoms: C_2  and  N_7
    4  A    between atoms: C_2  and  C_13
    5  A    between atoms: C_3  and  C_17
    6  A    between atoms: C_3  and  C_42
    7  A    between atoms: C_4  and  C_14
    8  A    between atoms: C_4  and  C_41
    9  A    between atoms: N_7  and  N_12
   10  A    between atoms: C_9  and  C_37
   11  A    between atoms: N_10  and  C_42
   12  A    between atoms: N_12  and  C_17
   13  A    between atoms: C_19  and  C_37
   14  A    between atoms: N_32  and  C_35
                            x       y       z     vdW  Elec       q    Type
                         _______ _______ _______ _____ _____    ______ ____

>  <TORSDO>
F 14

$$$$
=
 OpenBabel11052416153D

 43 47  0  0  0  0  0  0  0  0999 V2000
  185.9090  177.6660  145.3020 C   0  0  0  0  0  3  0  0  0  0  0  0
  182.5960  178.9060  141.1110 C   0  0  0  0  0  0  0  0  0  0  0  0
  184.4800  178.6350  139.0460 C   0  0  0  0  0  0  0  0  0  0  0  0
  183.4250  178.8510  143.8150 C   0  0  0  0  0  0  0  0  0  0  0  0
  186.2510  177.5730  144.0180 C   0  0  0  0  0  3  0  0  0  0  0  0
  185.1170  178.8360  145.7860 C   0  0  0  0  0  2  0  0  0  0  0  0
  184.3950  178.7160  142.7780 C   0  0  0  0  0  0  0  0  0  0  0  0
  183.6780  178.7220  145.3020 C   0  0  0  0  0  2  0  0  0  0  0  0
  185.8780  178.6540  143.0540 C   0  0  0  0  0  2  0  0  0  0  0  0
  184.8940  178.6000  140.3800 C   0  0  0  0  0  3  0  0  0  0  0  0
  183.9690  178.7400  141.4280 C   0  0  0  0  0  0  0  0  0  0  0  0
  181.6690  179.0360  142.1470 C   0  0  0  0  0  3  0  0  0  0  0  0
  182.1820  178.9380  139.7620 C   0  0  0  0  0  0  0  0  0  0  0  0
  183.1300  178.8010  138.7430 C   0  0  0  0  0  3  0  0  0  0  0  0
  182.0800  179.0030  143.4740 C   0  0  0  0  0  3  0  0  0  0  0  0
  180.7440  179.1320  139.3790 C   0  0  0  0  0  2  0  0  0  0  0  0
  179.9810  178.3810  137.0200 C   0  0  0  0  0  2  0  0  0  0  0  0
  180.2550  178.0170  138.4600 C   0  0  0  0  0  0  0  0  0  0  0  0
  181.2070  177.5490  137.3870 C   0  0  0  0  0  2  0  0  0  0  0  0
  179.8500  176.0250  139.6860 C   0  0  0  0  0  3  0  0  0  0  0  0
  179.3860  176.9950  138.9860 N   0  0  0  0  0  0  0  0  0  0  0  0
  178.9310  174.9900  140.2440 C   0  0  0  0  0  2  0  0  0  0  0  0
  179.7020  173.7370  140.6120 C   0  0  0  0  0  2  0  0  0  0  0  0
  179.6540  173.5430  142.1120 C   0  0  0  0  0  1  0  0  0  0  0  0
  185.4640  178.4510  137.9390 C   0  0  0  0  0  2  0  0  0  0  0  0
  186.4190  177.3850  138.2710 N   0  0  0  0  0  2  0  0  0  0  0  0
  187.6480  178.5670  136.6400 C   0  0  0  0  0  1  0  0  0  0  0  0
  187.7210  177.6600  137.7790 N   0  0  0  0  0  0  0  0  0  0  0  0
  188.5470  178.2670  138.8210 C   0  0  0  0  0  2  0  0  0  0  0  0
  189.9550  177.7110  138.7530 C   0  0  0  0  0  2  0  0  0  0  0  0
  190.1430  176.6750  139.8430 C   0  0  0  0  0  2  0  0  0  0  0  0
  190.9620  177.2210  140.9160 N   0  0  0  0  0  0  0  0  0  0  0  0
  192.3580  177.5070  140.6360 C   0  0  0  0  0  1  0  0  0  0  0  0
  189.1420  177.3940  142.3720 O   0  0  0  0  0  0  0  0  0  0  0  0
  190.3740  177.5790  142.1790 C   0  0  0  0  0  0  0  0  0  0  0  0
  191.2010  178.2250  143.2530 C   0  0  0  0  0  2  0  0  0  0  0  0
  191.6490  176.6820  145.1840 C   0  0  0  0  0  3  0  0  0  0  0  0
  190.8690  177.6930  144.6090 C   0  0  0  0  0  0  0  0  0  0  0  0
  188.3740  178.1950  147.2350 F   0  0  0  0  0  0  0  0  0  0  0  0
  190.2230  176.6900  147.1400 C   0  0  0  0  0  3  0  0  0  0  0  0
  189.4450  177.7020  146.5670 C   0  0  0  0  0  0  0  0  0  0  0  0
  191.3240  176.1790  146.4470 C   0  0  0  0  0  3  0  0  0  0  0  0
  189.7650  178.2000  145.3020 C   0  0  0  0  0  3  0  0  0  0  0  0
  1  6  1  0  0  0  0
  2 11  1  0  0  0  0
  2 12  1  0  0  0  0
  3 10  1  0  0  0  0
  4  8  1  0  0  0  0
  5  1  2  0  0  0  0
  7  9  1  0  0  0  0
  7  4  2  0  0  0  0
  8  6  1  0  0  0  0
  9  5  1  0  0  0  0
 10 11  2  0  0  0  0
 11  7  1  0  0  0  0
 12 15  2  0  0  0  0
 13  2  2  0  0  0  0
 14  3  2  0  0  0  0
 14 13  1  0  0  0  0
 15  4  1  0  0  0  0
 16 13  1  0  0  0  0
 17 19  1  0  0  0  0
 17 18  1  0  0  0  0
 18 21  1  0  0  0  0
 18 16  1  0  0  0  0
 19 18  1  0  0  0  0
 20 22  1  0  0  0  0
 21 20  2  0  0  0  0
 22 23  1  0  0  0  0
 23 24  1  0  0  0  0
 25 26  1  0  0  0  0
 25  3  1  0  0  0  0
 27 28  1  0  0  0  0
 28 26  1  0  0  0  0
 28 29  1  0  0  0  0
 30 29  1  0  0  0  0
 30 31  1  0  0  0  0
 31 32  1  0  0  0  0
 32 35  1  0  0  0  0
 33 32  1  0  0  0  0
 35 34  2  0  0  0  0
 35 36  1  0  0  0  0
 36 38  1  0  0  0  0
 37 42  1  0  0  0  0
 38 37  2  0  0  0  0
 38 43  1  0  0  0  0
 41 40  1  0  0  0  0
 41 39  1  0  0  0  0
 42 40  2  0  0  0  0
 43 41  2  0  0  0  0
M  END
>  <MODEL>
7

>  <REMARK>
 VINA RESULT:      -7.8      1.341      2.262
  Name = 
  14 active torsions:
  status: ('A' for Active; 'I' for Inactive)
    1  A    between atoms: C_1  and  C_34
    2  A    between atoms: C_1  and  C_35
    3  A    between atoms: C_2  and  N_7
    4  A    between atoms: C_2  and  C_13
    5  A    between atoms: C_3  and  C_17
    6  A    between atoms: C_3  and  C_42
    7  A    between atoms: C_4  and  C_14
    8  A    between atoms: C_4  and  C_41
    9  A    between atoms: N_7  and  N_12
   10  A    between atoms: C_9  and  C_37
   11  A    between atoms: N_10  and  C_42
   12  A    between atoms: N_12  and  C_17
   13  A    between atoms: C_19  and  C_37
   14  A    between atoms: N_32  and  C_35
                            x       y       z     vdW  Elec       q    Type
                         _______ _______ _______ _____ _____    ______ ____

>  <TORSDO>
F 14

$$$$
=
 OpenBabel11052416153D

 43 47  0  0  0  0  0  0  0  0999 V2000
  189.6610  177.5250  147.6860 C   0  0  0  0  0  3  0  0  0  0  0  0
  189.2140  177.9560  142.2370 C   0  0  0  0  0  0  0  0  0  0  0  0
  186.4200  178.2130  142.1050 C   0  0  0  0  0  0  0  0  0  0  0  0
  190.4700  177.2640  144.6750 C   0  0  0  0  0  0  0  0  0  0  0  0
  188.5280  177.8010  147.0420 C   0  0  0  0  0  3  0  0  0  0  0  0
  190.5960  176.4900  147.1510 C   0  0  0  0  0  2  0  0  0  0  0  0
  189.0500  177.3870  144.6240 C   0  0  0  0  0  0  0  0  0  0  0  0
  191.3050  177.0240  145.9140 C   0  0  0  0  0  2  0  0  0  0  0  0
  188.1610  177.0540  145.7990 C   0  0  0  0  0  2  0  0  0  0  0  0
  187.0360  177.8780  143.3130 C   0  0  0  0  0  3  0  0  0  0  0  0
  188.4310  177.7380  143.4000 C   0  0  0  0  0  0  0  0  0  0  0  0
  190.6020  177.8280  142.3160 C   0  0  0  0  0  3  0  0  0  0  0  0
  188.5880  178.2960  141.0180 C   0  0  0  0  0  0  0  0  0  0  0  0
  187.1960  178.4220  140.9660 C   0  0  0  0  0  3  0  0  0  0  0  0
  191.2150  177.4940  143.5170 C   0  0  0  0  0  3  0  0  0  0  0  0
  189.3730  178.5150  139.7580 C   0  0  0  0  0  2  0  0  0  0  0  0
  190.3840  177.1770  137.7850 C   0  0  0  0  0  2  0  0  0  0  0  0
  189.3120  177.2980  138.8410 C   0  0  0  0  0  0  0  0  0  0  0  0
  190.3970  176.2630  139.0080 C   0  0  0  0  0  2  0  0  0  0  0  0
  187.6250  176.8580  137.2300 C   0  0  0  0  0  3  0  0  0  0  0  0
  188.0300  176.7720  138.4450 N   0  0  0  0  0  0  0  0  0  0  0  0
  186.3050  176.2850  136.8340 C   0  0  0  0  0  2  0  0  0  0  0  0
  186.1120  176.3850  135.3330 C   0  0  0  0  0  2  0  0  0  0  0  0
  186.4430  177.7900  134.8780 C   0  0  0  0  0  1  0  0  0  0  0  0
  184.9410  178.3940  142.0300 C   0  0  0  0  0  2  0  0  0  0  0  0
  184.4840  179.3370  143.0590 N   0  0  0  0  0  2  0  0  0  0  0  0
  183.8020  179.0010  145.2930 C   0  0  0  0  0  1  0  0  0  0  0  0
  183.4770  178.7780  143.8890 N   0  0  0  0  0  0  0  0  0  0  0  0
  182.1780  179.3790  143.5980 C   0  0  0  0  0  2  0  0  0  0  0  0
  181.0690  178.4120  143.9570 C   0  0  0  0  0  2  0  0  0  0  0  0
  179.7620  178.8970  143.3640 C   0  0  0  0  0  2  0  0  0  0  0  0
  179.7630  178.6990  141.9210 N   0  0  0  0  0  0  0  0  0  0  0  0
  179.6800  177.3400  141.4160 C   0  0  0  0  0  1  0  0  0  0  0  0
  179.7170  180.9960  141.4910 O   0  0  0  0  0  0  0  0  0  0  0  0
  179.7240  179.8240  141.0260 C   0  0  0  0  0  0  0  0  0  0  0  0
  179.6340  179.6180  139.5410 C   0  0  0  0  0  2  0  0  0  0  0  0
  180.9450  178.0770  138.0530 C   0  0  0  0  0  3  0  0  0  0  0  0
  180.9260  179.1390  138.9640 C   0  0  0  0  0  0  0  0  0  0  0  0
  184.4970  179.8930  139.1930 F   0  0  0  0  0  0  0  0  0  0  0  0
  183.3550  178.2380  137.9090 C   0  0  0  0  0  3  0  0  0  0  0  0
  183.3380  179.3000  138.8190 C   0  0  0  0  0  0  0  0  0  0  0  0
  182.1580  177.6250  137.5280 C   0  0  0  0  0  3  0  0  0  0  0  0
  182.1250  179.7480  139.3480 C   0  0  0  0  0  3  0  0  0  0  0  0
  2 12  1  0  0  0  0
  2 11  1  0  0  0  0
  3 10  1  0  0  0  0
  4  8  1  0  0  0  0
  5  1  2  0  0  0  0
  6  1  1  0  0  0  0
  7  4  2  0  0  0  0
  7  9  1  0  0  0  0
  8  6  1  0  0  0  0
  9  5  1  0  0  0  0
 10 11  2  0  0  0  0
 11  7  1  0  0  0  0
 12 15  2  0  0  0  0
 13  2  2  0  0  0  0
 14 13  1  0  0  0  0
 14  3  2  0  0  0  0
 15  4  1  0  0  0  0
 16 13  1  0  0  0  0
 17 18  1  0  0  0  0
 17 19  1  0  0  0  0
 18 19  1  0  0  0  0
 18 16  1  0  0  0  0
 20 21  2  0  0  0  0
 21 18  1  0  0  0  0
 22 20  1  0  0  0  0
 23 22  1  0  0  0  0
 24 23  1  0  0  0  0
 25  3  1  0  0  0  0
 25 26  1  0  0  0  0
 26 28  1  0  0  0  0
 28 27  1  0  0  0  0
 29 28  1  0  0  0  0
 29 30  1  0  0  0  0
 31 30  1  0  0  0  0
 32 31  1  0  0  0  0
 33 32  1  0  0  0  0
 35 34  2  0  0  0  0
 35 32  1  0  0  0  0
 36 35  1  0  0  0  0
 37 38  1  0  0  0  0
 38 43  2  0  0  0  0
 38 36  1  0  0  0  0
 40 41  2  0  0  0  0
 41 39  1  0  0  0  0
 41 43  1  0  0  0  0
 42 40  1  0  0  0  0
 42 37  2  0  0  0  0
M  END
>  <MODEL>
8

>  <REMARK>
 VINA RESULT:      -7.7      2.993      8.490
  Name = 
  14 active torsions:
  status: ('A' for Active; 'I' for Inactive)
    1  A    between atoms: C_1  and  C_34
    2  A    between atoms: C_1  and  C_35
    3  A    between atoms: C_2  and  N_7
    4  A    between atoms: C_2  and  C_13
    5  A    between atoms: C_3  and  C_17
    6  A    between atoms: C_3  and  C_42
    7  A    between atoms: C_4  and  C_14
    8  A    between atoms: C_4  and  C_41
    9  A    between atoms: N_7  and  N_12
   10  A    between atoms: C_9  and  C_37
   11  A    between atoms: N_10  and  C_42
   12  A    between atoms: N_12  and  C_17
   13  A    between atoms: C_19  and  C_37
   14  A    between atoms: N_32  and  C_35
                            x       y       z     vdW  Elec       q    Type
                         _______ _______ _______ _____ _____    ______ ____

>  <TORSDO>
F 14

$$$$
=
 OpenBabel11052416153D

 43 47  0  0  0  0  0  0  0  0999 V2000
  194.0380  175.3330  136.9740 C   0  0  0  0  0  3  0  0  0  0  0  0
  188.6150  174.8010  136.3500 C   0  0  0  0  0  0  0  0  0  0  0  0
  187.8340  176.9560  137.9720 C   0  0  0  0  0  0  0  0  0  0  0  0
  191.3120  173.9480  136.3110 C   0  0  0  0  0  0  0  0  0  0  0  0
  193.1370  176.1970  137.4390 C   0  0  0  0  0  3  0  0  0  0  0  0
  193.7920  173.8640  137.0780 C   0  0  0  0  0  2  0  0  0  0  0  0
  190.9310  175.0420  137.1430 C   0  0  0  0  0  0  0  0  0  0  0  0
  192.7210  173.4470  136.0790 C   0  0  0  0  0  2  0  0  0  0  0  0
  191.8880  175.7080  138.1030 C   0  0  0  0  0  2  0  0  0  0  0  0
  189.1680  176.5440  137.9510 C   0  0  0  0  0  3  0  0  0  0  0  0
  189.5790  175.4640  137.1520 C   0  0  0  0  0  0  0  0  0  0  0  0
  189.0160  173.7330  135.5450 C   0  0  0  0  0  3  0  0  0  0  0  0
  187.2680  175.2220  136.3720 C   0  0  0  0  0  0  0  0  0  0  0  0
  186.8920  176.2980  137.1830 C   0  0  0  0  0  3  0  0  0  0  0  0
  190.3440  173.3210  135.5250 C   0  0  0  0  0  3  0  0  0  0  0  0
  186.2100  174.5390  135.5560 C   0  0  0  0  0  2  0  0  0  0  0  0
  185.2440  172.2760  136.3640 C   0  0  0  0  0  2  0  0  0  0  0  0
  185.2230  173.7830  136.4400 C   0  0  0  0  0  0  0  0  0  0  0  0
  185.8000  172.9960  137.5900 C   0  0  0  0  0  2  0  0  0  0  0  0
  183.6540  174.9590  137.7790 C   0  0  0  0  0  3  0  0  0  0  0  0
  183.9180  174.3440  136.6840 N   0  0  0  0  0  0  0  0  0  0  0  0
  182.3040  175.5550  138.0030 C   0  0  0  0  0  2  0  0  0  0  0  0
  182.1350  175.9550  139.4560 C   0  0  0  0  0  2  0  0  0  0  0  0
  183.0540  177.1170  139.7660 C   0  0  0  0  0  1  0  0  0  0  0  0
  187.4110  178.1260  138.7970 C   0  0  0  0  0  2  0  0  0  0  0  0
  188.5460  178.6440  139.5750 N   0  0  0  0  0  2  0  0  0  0  0  0
  186.7820  178.6280  141.1420 C   0  0  0  0  0  1  0  0  0  0  0  0
  188.2050  178.8700  140.9340 N   0  0  0  0  0  0  0  0  0  0  0  0
  188.9730  177.9880  141.8100 C   0  0  0  0  0  2  0  0  0  0  0  0
  190.1550  177.4130  141.0570 C   0  0  0  0  0  2  0  0  0  0  0  0
  191.3970  177.5040  141.9200 C   0  0  0  0  0  2  0  0  0  0  0  0
  191.1410  176.9190  143.2290 N   0  0  0  0  0  0  0  0  0  0  0  0
  190.8700  175.4940  143.3010 C   0  0  0  0  0  1  0  0  0  0  0  0
  191.5900  178.9250  144.3410 O   0  0  0  0  0  0  0  0  0  0  0  0
  191.2740  177.7070  144.4250 C   0  0  0  0  0  0  0  0  0  0  0  0
  191.0990  177.0810  145.7780 C   0  0  0  0  0  2  0  0  0  0  0  0
  189.6040  177.5680  147.7360 C   0  0  0  0  0  3  0  0  0  0  0  0
  189.7540  177.3730  146.3580 C   0  0  0  0  0  0  0  0  0  0  0  0
  186.2930  177.7620  145.2410 F   0  0  0  0  0  0  0  0  0  0  0  0
  187.2240  177.8950  147.4340 C   0  0  0  0  0  3  0  0  0  0  0  0
  187.3730  177.7010  146.0570 C   0  0  0  0  0  0  0  0  0  0  0  0
  188.3400  177.8270  148.2740 C   0  0  0  0  0  3  0  0  0  0  0  0
  188.6360  177.4360  145.5200 C   0  0  0  0  0  3  0  0  0  0  0  0
  1  6  1  0  0  0  0
  1  5  2  0  0  0  0
  2 13  2  0  0  0  0
  2 11  1  0  0  0  0
  3 25  1  0  0  0  0
  4  7  2  0  0  0  0
  5  9  1  0  0  0  0
  7 11  1  0  0  0  0
  7  9  1  0  0  0  0
  8  4  1  0  0  0  0
  8  6  1  0  0  0  0
 10  3  1  0  0  0  0
 11 10  2  0  0  0  0
 12  2  1  0  0  0  0
 13 14  1  0  0  0  0
 14  3  2  0  0  0  0
 15 12  2  0  0  0  0
 15  4  1  0  0  0  0
 16 13  1  0  0  0  0
 16 18  1  0  0  0  0
 17 18  1  0  0  0  0
 17 19  1  0  0  0  0
 18 21  1  0  0  0  0
 18 19  1  0  0  0  0
 20 22  1  0  0  0  0
 21 20  2  0  0  0  0
 22 23  1  0  0  0  0
 23 24  1  0  0  0  0
 25 26  1  0  0  0  0
 26 28  1  0  0  0  0
 28 27  1  0  0  0  0
 28 29  1  0  0  0  0
 30 29  1  0  0  0  0
 30 31  1  0  0  0  0
 31 32  1  0  0  0  0
 32 33  1  0  0  0  0
 32 35  1  0  0  0  0
 34 35  2  0  0  0  0
 35 36  1  0  0  0  0
 36 38  1  0  0  0  0
 37 42  1  0  0  0  0
 38 37  2  0  0  0  0
 39 41  1  0  0  0  0
 40 42  2  0  0  0  0
 41 40  1  0  0  0  0
 43 41  2  0  0  0  0
 43 38  1  0  0  0  0
M  END
>  <MODEL>
9

>  <REMARK>
 VINA RESULT:      -7.6      2.955      6.848
  Name = 
  14 active torsions:
  status: ('A' for Active; 'I' for Inactive)
    1  A    between atoms: C_1  and  C_34
    2  A    between atoms: C_1  and  C_35
    3  A    between atoms: C_2  and  N_7
    4  A    between atoms: C_2  and  C_13
    5  A    between atoms: C_3  and  C_17
    6  A    between atoms: C_3  and  C_42
    7  A    between atoms: C_4  and  C_14
    8  A    between atoms: C_4  and  C_41
    9  A    between atoms: N_7  and  N_12
   10  A    between atoms: C_9  and  C_37
   11  A    between atoms: N_10  and  C_42
   12  A    between atoms: N_12  and  C_17
   13  A    between atoms: C_19  and  C_37
   14  A    between atoms: N_32  and  C_35
                            x       y       z     vdW  Elec       q    Type
                         _______ _______ _______ _____ _____    ______ ____

>  <TORSDO>
F 14

$$$$
