=
 OpenBabel11052412583D

 31 35  0  0  1  0  0  0  0  0999 V2000
  186.3530  177.6670  146.3470 C   0  0  0  0  0  0  0  0  0  0  0  0
  186.8170  177.9960  142.5570 C   0  0  0  0  0  0  0  0  0  0  0  0
  188.0370  177.4820  142.2490 C   0  0  0  0  0  0  0  0  0  0  0  0
  190.2440  176.6660  142.9330 C   0  0  0  0  0  0  0  0  0  0  0  0
  186.2630  178.0910  143.9480 C   0  0  0  0  0  0  0  0  0  0  0  0
  185.1980  178.4250  146.5340 C   0  0  0  0  0  3  0  0  0  0  0  0
  188.9790  176.9460  143.2550 C   0  0  0  0  0  3  0  0  0  0  0  0
  184.6290  178.9320  141.6750 C   0  0  1  0  0  3  0  0  0  0  0  0
  186.9690  177.0980  147.4110 F   0  0  0  0  0  0  0  0  0  0  0  0
  187.8130  178.3710  139.8960 C   0  0  0  0  0  3  0  0  0  0  0  0
  191.1680  176.1470  143.9740 C   0  0  0  0  0  1  0  0  0  0  0  0
  184.3920  179.4010  143.0350 N   0  0  0  0  0  2  0  0  0  0  0  0
  186.0380  178.5940  141.4910 N   0  0  0  0  0  0  0  0  0  0  0  0
  186.8830  177.5060  145.0650 C   0  0  0  0  0  3  0  0  0  0  0  0
  190.7570  176.9440  141.5790 C   0  0  0  0  0  3  0  0  0  0  0  0
  185.0790  178.8280  144.1480 C   0  0  0  0  0  0  0  0  0  0  0  0
  184.5620  179.0050  145.4350 C   0  0  0  0  0  3  0  0  0  0  0  0
  186.6430  178.9080  140.2290 C   0  0  0  0  0  3  0  0  0  0  0  0
  188.4450  177.3510  140.7890 C   0  0  1  0  0  3  0  0  0  0  0  0
  189.9350  177.3030  140.5890 C   0  0  0  0  0  3  0  0  0  0  0  0
  181.3660  177.0100  140.8840 C   0  0  0  0  0  1  0  0  0  0  0  0
  183.6680  177.4630  139.8980 C   0  0  0  0  0  2  0  0  0  0  0  0
  182.4710  178.0210  140.6360 C   0  0  2  0  0  0  0  0  0  0  0  0
  183.7570  177.7070  141.3990 C   0  0  2  0  0  3  0  0  0  0  0  0
  182.1200  179.4960  140.3480 C   0  0  1  0  0  3  0  0  0  0  0  0
  182.3920  179.9730  138.9040 C   0  0  0  0  0  0  0  0  0  0  0  0
  183.7250  180.3700  138.8030 O   0  0  0  0  0  1  0  0  0  0  0  0
  181.5110  181.1530  138.5280 C   0  0  0  0  0  1  0  0  0  0  0  0
  182.1600  178.8510  137.9090 C   0  0  0  0  0  1  0  0  0  0  0  0
  180.8510  180.1250  141.9700 O   0  0  0  0  0  1  0  0  0  0  0  0
  180.7910  179.7450  140.7100 O   0  0  0  0  0  0  0  0  0  0  0  0
  1  6  1  0  0  0  0
  1  9  1  0  0  0  0
  2  5  1  0  0  0  0
  3  2  2  0  0  0  0
  3  7  1  0  0  0  0
  4  7  2  0  0  0  0
  4 11  1  0  0  0  0
  5 16  2  0  0  0  0
  5 14  1  0  0  0  0
  8 12  1  1  0  0  0
 10 18  2  0  0  0  0
 12 16  1  0  0  0  0
 13  8  1  0  0  0  0
 13  2  1  0  0  0  0
 14  1  2  0  0  0  0
 15  4  1  0  0  0  0
 16 17  1  0  0  0  0
 17  6  2  0  0  0  0
 18 13  1  0  0  0  0
 19 10  1  6  0  0  0
 19  3  1  0  0  0  0
 20 19  1  0  0  0  0
 20 15  2  0  0  0  0
 22 23  1  0  0  0  0
 23 21  1  1  0  0  0
 23 24  1  0  0  0  0
 24 22  1  6  0  0  0
 24  8  1  0  0  0  0
 25 23  1  0  0  0  0
 25 31  1  6  0  0  0
 26 25  1  0  0  0  0
 27 26  1  0  0  0  0
 28 26  1  0  0  0  0
 29 26  1  0  0  0  0
 31 30  1  0  0  0  0
M  END
>  <MODEL>
1

>  <REMARK>
 VINA RESULT:      -8.2      0.000      0.000
  Name = 
  4 active torsions:
  status: ('A' for Active; 'I' for Inactive)
    1  A    between atoms: C_1  and  C_19
    2  A    between atoms: O_7  and  C_19
    3  A    between atoms: C_15  and  C_23
    4  A    between atoms: C_19  and  C_22
                            x       y       z     vdW  Elec       q    Type
                         _______ _______ _______ _____ _____    ______ ____

>  <TORSDO>
F 4

$$$$
=
 OpenBabel11052412583D

 31 35  0  0  1  0  0  0  0  0999 V2000
  185.1470  178.4230  143.2200 C   0  0  0  0  0  0  0  0  0  0  0  0
  188.7070  177.5840  142.0760 C   0  0  0  0  0  0  0  0  0  0  0  0
  189.4230  177.2460  143.1810 C   0  0  0  0  0  0  0  0  0  0  0  0
  189.6660  177.1450  145.6170 C   0  0  0  0  0  0  0  0  0  0  0  0
  187.2710  178.0160  142.0940 C   0  0  0  0  0  0  0  0  0  0  0  0
  184.6170  178.9590  142.0470 C   0  0  0  0  0  3  0  0  0  0  0  0
  188.8690  177.2620  144.5530 C   0  0  0  0  0  3  0  0  0  0  0  0
  188.6690  177.7350  139.5420 C   0  0  1  0  0  3  0  0  0  0  0  0
  184.3890  178.3630  144.3410 F   0  0  0  0  0  0  0  0  0  0  0  0
  191.5420  177.2590  141.8080 C   0  0  0  0  0  3  0  0  0  0  0  0
  189.0780  177.1840  146.9810 C   0  0  0  0  0  1  0  0  0  0  0  0
  187.4810  178.5650  139.7060 N   0  0  0  0  0  2  0  0  0  0  0  0
  189.4000  177.6370  140.8030 N   0  0  0  0  0  0  0  0  0  0  0  0
  186.4650  177.9600  143.2430 C   0  0  0  0  0  3  0  0  0  0  0  0
  191.1290  177.0610  145.4590 C   0  0  0  0  0  3  0  0  0  0  0  0
  186.7120  178.5310  140.9080 C   0  0  0  0  0  0  0  0  0  0  0  0
  185.3990  179.0130  140.8920 C   0  0  0  0  0  3  0  0  0  0  0  0
  190.8330  177.6360  140.7490 C   0  0  0  0  0  3  0  0  0  0  0  0
  190.8440  176.7290  143.0210 C   0  0  1  0  0  3  0  0  0  0  0  0
  191.6860  176.9110  144.2540 C   0  0  0  0  0  3  0  0  0  0  0  0
  187.3440  175.0860  137.0530 C   0  0  0  0  0  1  0  0  0  0  0  0
  189.4330  175.6550  138.3900 C   0  0  0  0  0  2  0  0  0  0  0  0
  188.2840  176.1690  137.5510 C   0  0  2  0  0  0  0  0  0  0  0  0
  188.2550  176.3420  139.0690 C   0  0  2  0  0  3  0  0  0  0  0  0
  188.5830  177.4000  136.6690 C   0  0  1  0  0  3  0  0  0  0  0  0
  189.4700  177.1320  135.4330 C   0  0  0  0  0  0  0  0  0  0  0  0
  189.5030  178.2800  134.6420 O   0  0  0  0  0  1  0  0  0  0  0  0
  188.9290  175.9860  134.5940 C   0  0  0  0  0  1  0  0  0  0  0  0
  190.8930  176.8070  135.8470 C   0  0  0  0  0  1  0  0  0  0  0  0
  187.4830  179.2490  136.7410 O   0  0  0  0  0  1  0  0  0  0  0  0
  187.3830  178.0150  136.2930 O   0  0  0  0  0  0  0  0  0  0  0  0
  1 14  1  0  0  0  0
  1  9  1  0  0  0  0
  2  5  1  0  0  0  0
  2  3  2  0  0  0  0
  3  7  1  0  0  0  0
  4 11  1  0  0  0  0
  5 14  2  0  0  0  0
  6  1  2  0  0  0  0
  7  4  2  0  0  0  0
  8 12  1  1  0  0  0
  8 13  1  0  0  0  0
 12 16  1  0  0  0  0
 13  2  1  0  0  0  0
 15  4  1  0  0  0  0
 16  5  1  0  0  0  0
 17 16  2  0  0  0  0
 17  6  1  0  0  0  0
 18 13  1  0  0  0  0
 18 10  2  0  0  0  0
 19 10  1  6  0  0  0
 19  3  1  0  0  0  0
 19 20  1  0  0  0  0
 20 15  2  0  0  0  0
 23 21  1  6  0  0  0
 23 22  1  0  0  0  0
 23 24  1  0  0  0  0
 24 22  1  1  0  0  0
 24  8  1  0  0  0  0
 25 31  1  6  0  0  0
 25 23  1  0  0  0  0
 26 29  1  0  0  0  0
 26 25  1  0  0  0  0
 27 26  1  0  0  0  0
 28 26  1  0  0  0  0
 31 30  1  0  0  0  0
M  END
>  <MODEL>
2

>  <REMARK>
 VINA RESULT:      -7.6      3.287      5.488
  Name = 
  4 active torsions:
  status: ('A' for Active; 'I' for Inactive)
    1  A    between atoms: C_1  and  C_19
    2  A    between atoms: O_7  and  C_19
    3  A    between atoms: C_15  and  C_23
    4  A    between atoms: C_19  and  C_22
                            x       y       z     vdW  Elec       q    Type
                         _______ _______ _______ _____ _____    ______ ____

>  <TORSDO>
F 4

$$$$
=
 OpenBabel11052412583D

 31 35  0  0  1  0  0  0  0  0999 V2000
  184.8150  177.8300  137.9470 C   0  0  0  0  0  0  0  0  0  0  0  0
  184.6460  178.5030  141.7160 C   0  0  0  0  0  0  0  0  0  0  0  0
  183.3330  178.5490  142.0650 C   0  0  0  0  0  0  0  0  0  0  0  0
  180.9650  178.6740  141.4490 C   0  0  0  0  0  0  0  0  0  0  0  0
  185.1460  178.2960  140.3180 C   0  0  0  0  0  0  0  0  0  0  0  0
  186.1730  178.0400  137.7070 C   0  0  0  0  0  3  0  0  0  0  0  0
  182.2230  178.3970  141.1000 C   0  0  0  0  0  3  0  0  0  0  0  0
  187.0530  178.5050  142.5240 C   0  0  1  0  0  3  0  0  0  0  0  0
  183.9870  177.5120  136.9240 F   0  0  0  0  0  0  0  0  0  0  0  0
  183.9750  179.3820  144.3610 C   0  0  0  0  0  3  0  0  0  0  0  0
  179.8770  178.5290  140.4480 C   0  0  0  0  0  1  0  0  0  0  0  0
  187.4170  178.7690  141.1360 N   0  0  0  0  0  2  0  0  0  0  0  0
  185.6350  178.7820  142.7400 N   0  0  0  0  0  0  0  0  0  0  0  0
  184.3070  177.9620  139.2420 C   0  0  0  0  0  3  0  0  0  0  0  0
  180.6530  179.2030  142.7900 C   0  0  0  0  0  3  0  0  0  0  0  0
  186.5210  178.4740  140.0650 C   0  0  0  0  0  0  0  0  0  0  0  0
  187.0240  178.3610  138.7650 C   0  0  0  0  0  3  0  0  0  0  0  0
  185.2510  179.3770  143.9860 C   0  0  0  0  0  3  0  0  0  0  0  0
  182.9540  178.6670  143.5330 C   0  0  1  0  0  3  0  0  0  0  0  0
  181.5810  179.2420  143.7490 C   0  0  0  0  0  3  0  0  0  0  0  0
  189.2550  175.3550  142.9620 C   0  0  0  0  0  1  0  0  0  0  0  0
  187.7860  176.9310  144.3180 C   0  0  0  0  0  2  0  0  0  0  0  0
  188.8190  176.7850  143.2220 C   0  0  2  0  0  0  0  0  0  0  0  0
  187.3580  177.0460  142.8610 C   0  0  2  0  0  3  0  0  0  0  0  0
  189.8350  177.9400  143.0870 C   0  0  1  0  0  3  0  0  0  0  0  0
  190.5070  178.3910  144.4020 C   0  0  0  0  0  0  0  0  0  0  0  0
  189.5190  178.6300  145.3570 O   0  0  0  0  0  1  0  0  0  0  0  0
  191.3110  179.6670  144.2120 C   0  0  0  0  0  1  0  0  0  0  0  0
  191.4260  177.3090  144.9400 C   0  0  0  0  0  1  0  0  0  0  0  0
  190.1920  177.7930  140.9690 O   0  0  0  0  0  1  0  0  0  0  0  0
  190.7980  177.6130  142.1240 O   0  0  0  0  0  0  0  0  0  0  0  0
  1 14  1  0  0  0  0
  2  3  2  0  0  0  0
  2 13  1  0  0  0  0
  3 19  1  0  0  0  0
  4 15  1  0  0  0  0
  5  2  1  0  0  0  0
  6  1  2  0  0  0  0
  6 17  1  0  0  0  0
  7  4  2  0  0  0  0
  7  3  1  0  0  0  0
  8 12  1  6  0  0  0
  8 13  1  0  0  0  0
  8 24  1  0  0  0  0
  9  1  1  0  0  0  0
 11  4  1  0  0  0  0
 13 18  1  0  0  0  0
 14  5  2  0  0  0  0
 15 20  2  0  0  0  0
 16  5  1  0  0  0  0
 16 12  1  0  0  0  0
 17 16  2  0  0  0  0
 18 10  2  0  0  0  0
 19 20  1  6  0  0  0
 19 10  1  0  0  0  0
 23 21  1  6  0  0  0
 23 22  1  0  0  0  0
 24 23  1  0  0  0  0
 24 22  1  1  0  0  0
 25 31  1  6  0  0  0
 25 23  1  0  0  0  0
 25 26  1  0  0  0  0
 26 29  1  0  0  0  0
 26 27  1  0  0  0  0
 28 26  1  0  0  0  0
 30 31  1  0  0  0  0
M  END
>  <MODEL>
3

>  <REMARK>
 VINA RESULT:      -7.4      3.752      7.843
  Name = 
  4 active torsions:
  status: ('A' for Active; 'I' for Inactive)
    1  A    between atoms: C_1  and  C_19
    2  A    between atoms: O_7  and  C_19
    3  A    between atoms: C_15  and  C_23
    4  A    between atoms: C_19  and  C_22
                            x       y       z     vdW  Elec       q    Type
                         _______ _______ _______ _____ _____    ______ ____

>  <TORSDO>
F 4

$$$$
=
 OpenBabel11052412583D

 31 35  0  0  1  0  0  0  0  0999 V2000
  187.2380  178.2090  136.7350 C   0  0  0  0  0  0  0  0  0  0  0  0
  186.1790  178.3470  140.4150 C   0  0  0  0  0  0  0  0  0  0  0  0
  184.8210  178.2930  140.4520 C   0  0  0  0  0  0  0  0  0  0  0  0
  182.6500  178.4110  139.3230 C   0  0  0  0  0  0  0  0  0  0  0  0
  186.9940  178.3550  139.1560 C   0  0  0  0  0  0  0  0  0  0  0  0
  188.5980  178.5020  136.8450 C   0  0  0  0  0  3  0  0  0  0  0  0
  183.9700  178.2340  139.2430 C   0  0  0  0  0  3  0  0  0  0  0  0
  188.3360  178.3290  141.7540 C   0  0  1  0  0  3  0  0  0  0  0  0
  186.6870  178.0050  135.5150 F   0  0  0  0  0  0  0  0  0  0  0  0
  184.8700  178.8240  142.9200 C   0  0  0  0  0  3  0  0  0  0  0  0
  181.8280  178.3640  138.0860 C   0  0  0  0  0  1  0  0  0  0  0  0
  188.9840  178.7970  140.5340 N   0  0  0  0  0  2  0  0  0  0  0  0
  186.8900  178.5180  141.6670 N   0  0  0  0  0  0  0  0  0  0  0  0
  186.4440  178.1410  137.8820 C   0  0  0  0  0  3  0  0  0  0  0  0
  182.0080  178.7370  140.6100 C   0  0  0  0  0  3  0  0  0  0  0  0
  188.3750  178.6180  139.2550 C   0  0  0  0  0  0  0  0  0  0  0  0
  189.1650  178.7060  138.1040 C   0  0  0  0  0  3  0  0  0  0  0  0
  186.1950  178.9200  142.8550 C   0  0  0  0  0  3  0  0  0  0  0  0
  184.1130  178.1920  141.7940 C   0  0  1  0  0  3  0  0  0  0  0  0
  182.6910  178.6780  141.7560 C   0  0  0  0  0  3  0  0  0  0  0  0
  190.2480  175.2890  143.1910 C   0  0  0  0  0  1  0  0  0  0  0  0
  187.9270  176.3340  143.1990 C   0  0  0  0  0  2  0  0  0  0  0  0
  189.4220  176.5610  143.2570 C   0  0  2  0  0  0  0  0  0  0  0  0
  188.6570  176.8500  141.9660 C   0  0  2  0  0  3  0  0  0  0  0  0
  189.8980  177.7490  144.1190 C   0  0  1  0  0  3  0  0  0  0  0  0
  189.5870  177.6400  145.6280 C   0  0  0  0  0  0  0  0  0  0  0  0
  189.6820  178.9070  146.2030 O   0  0  0  0  0  1  0  0  0  0  0  0
  190.5660  176.7180  146.3370 C   0  0  0  0  0  1  0  0  0  0  0  0
  188.1770  177.1270  145.8560 C   0  0  0  0  0  1  0  0  0  0  0  0
  191.3560  179.2440  143.5940 O   0  0  0  0  0  1  0  0  0  0  0  0
  191.2650  177.9680  143.9100 O   0  0  0  0  0  0  0  0  0  0  0  0
  1  6  2  0  0  0  0
  1 14  1  0  0  0  0
  2  3  2  0  0  0  0
  2 13  1  0  0  0  0
  3 19  1  0  0  0  0
  4 15  1  0  0  0  0
  5 16  1  0  0  0  0
  5  2  1  0  0  0  0
  6 17  1  0  0  0  0
  7  4  2  0  0  0  0
  7  3  1  0  0  0  0
  8 12  1  6  0  0  0
  8 24  1  0  0  0  0
  9  1  1  0  0  0  0
 11  4  1  0  0  0  0
 13  8  1  0  0  0  0
 13 18  1  0  0  0  0
 14  5  2  0  0  0  0
 15 20  2  0  0  0  0
 16 12  1  0  0  0  0
 17 16  2  0  0  0  0
 18 10  2  0  0  0  0
 19 20  1  6  0  0  0
 19 10  1  0  0  0  0
 22 23  1  0  0  0  0
 23 21  1  1  0  0  0
 23 25  1  0  0  0  0
 24 22  1  1  0  0  0
 24 23  1  0  0  0  0
 25 31  1  1  0  0  0
 25 26  1  0  0  0  0
 26 29  1  0  0  0  0
 26 27  1  0  0  0  0
 26 28  1  0  0  0  0
 30 31  1  0  0  0  0
M  END
>  <MODEL>
4

>  <REMARK>
 VINA RESULT:      -7.3      4.033      8.009
  Name = 
  4 active torsions:
  status: ('A' for Active; 'I' for Inactive)
    1  A    between atoms: C_1  and  C_19
    2  A    between atoms: O_7  and  C_19
    3  A    between atoms: C_15  and  C_23
    4  A    between atoms: C_19  and  C_22
                            x       y       z     vdW  Elec       q    Type
                         _______ _______ _______ _____ _____    ______ ____

>  <TORSDO>
F 4

$$$$
=
 OpenBabel11052412583D

 31 35  0  0  1  0  0  0  0  0999 V2000
  186.1660  177.7730  146.0130 C   0  0  0  0  0  0  0  0  0  0  0  0
  185.7150  178.3600  142.2530 C   0  0  0  0  0  0  0  0  0  0  0  0
  186.8730  177.9960  141.6410 C   0  0  0  0  0  0  0  0  0  0  0  0
  189.2420  177.3800  141.7500 C   0  0  0  0  0  0  0  0  0  0  0  0
  185.4900  178.3180  143.7350 C   0  0  0  0  0  0  0  0  0  0  0  0
  185.0200  178.3940  146.5110 C   0  0  0  0  0  3  0  0  0  0  0  0
  188.0660  177.5070  142.3670 C   0  0  0  0  0  3  0  0  0  0  0  0
  183.3080  179.1080  141.9560 C   0  0  1  0  0  3  0  0  0  0  0  0
  187.0580  177.2140  146.8640 F   0  0  0  0  0  0  0  0  0  0  0  0
  186.0360  178.9860  139.4740 C   0  0  0  0  0  3  0  0  0  0  0  0
  190.4240  176.9040  142.5150 C   0  0  0  0  0  1  0  0  0  0  0  0
  183.3490  179.4720  143.3680 N   0  0  0  0  0  2  0  0  0  0  0  0
  184.6620  178.9310  141.4370 N   0  0  0  0  0  0  0  0  0  0  0  0
  186.3990  177.7400  144.6360 C   0  0  0  0  0  3  0  0  0  0  0  0
  189.4030  177.7860  140.3420 C   0  0  0  0  0  3  0  0  0  0  0  0
  184.3210  178.9140  144.2510 C   0  0  0  0  0  0  0  0  0  0  0  0
  184.0990  178.9630  145.6310 C   0  0  0  0  0  3  0  0  0  0  0  0
  184.9300  179.3780  140.1010 C   0  0  0  0  0  3  0  0  0  0  0  0
  186.9450  177.9900  140.1220 C   0  0  1  0  0  3  0  0  0  0  0  0
  188.3470  178.1110  139.5910 C   0  0  0  0  0  3  0  0  0  0  0  0
  180.1660  176.9380  141.3330 C   0  0  0  0  0  1  0  0  0  0  0  0
  182.4440  177.4380  140.3130 C   0  0  0  0  0  2  0  0  0  0  0  0
  181.2120  177.9870  140.9990 C   0  0  2  0  0  0  0  0  0  0  0  0
  182.5100  177.8150  141.7870 C   0  0  2  0  0  3  0  0  0  0  0  0
  180.7780  179.4090  140.5840 C   0  0  1  0  0  3  0  0  0  0  0  0
  180.5430  179.6160  139.0720 C   0  0  0  0  0  0  0  0  0  0  0  0
  180.0210  178.4410  138.5300 O   0  0  0  0  0  1  0  0  0  0  0  0
  181.8360  179.9470  138.3440 C   0  0  0  0  0  1  0  0  0  0  0  0
  179.5420  180.7300  138.8260 C   0  0  0  0  0  1  0  0  0  0  0  0
  180.1240  180.5160  142.3110 O   0  0  0  0  0  1  0  0  0  0  0  0
  179.6490  179.7910  141.3180 O   0  0  0  0  0  0  0  0  0  0  0  0
  1  6  1  0  0  0  0
  1  9  1  0  0  0  0
  2  5  1  0  0  0  0
  3  2  2  0  0  0  0
  3  7  1  0  0  0  0
  4  7  2  0  0  0  0
  4 11  1  0  0  0  0
  5 16  2  0  0  0  0
  5 14  1  0  0  0  0
  8 12  1  1  0  0  0
 10 18  2  0  0  0  0
 12 16  1  0  0  0  0
 13  8  1  0  0  0  0
 13  2  1  0  0  0  0
 14  1  2  0  0  0  0
 15  4  1  0  0  0  0
 16 17  1  0  0  0  0
 17  6  2  0  0  0  0
 18 13  1  0  0  0  0
 19 10  1  6  0  0  0
 19  3  1  0  0  0  0
 20 19  1  0  0  0  0
 20 15  2  0  0  0  0
 22 23  1  0  0  0  0
 23 21  1  1  0  0  0
 23 24  1  0  0  0  0
 24 22  1  6  0  0  0
 24  8  1  0  0  0  0
 25 23  1  0  0  0  0
 25 31  1  1  0  0  0
 26 25  1  0  0  0  0
 27 26  1  0  0  0  0
 28 26  1  0  0  0  0
 29 26  1  0  0  0  0
 31 30  1  0  0  0  0
M  END
>  <MODEL>
5

>  <REMARK>
 VINA RESULT:      -7.2      1.250      1.630
  Name = 
  4 active torsions:
  status: ('A' for Active; 'I' for Inactive)
    1  A    between atoms: C_1  and  C_19
    2  A    between atoms: O_7  and  C_19
    3  A    between atoms: C_15  and  C_23
    4  A    between atoms: C_19  and  C_22
                            x       y       z     vdW  Elec       q    Type
                         _______ _______ _______ _____ _____    ______ ____

>  <TORSDO>
F 4

$$$$
=
 OpenBabel11052412583D

 31 35  0  0  1  0  0  0  0  0999 V2000
  191.6170  176.1310  145.4700 C   0  0  0  0  0  0  0  0  0  0  0  0
  188.2030  177.3580  144.2350 C   0  0  0  0  0  0  0  0  0  0  0  0
  187.5510  177.8940  145.3010 C   0  0  0  0  0  0  0  0  0  0  0  0
  187.3460  178.2540  147.7160 C   0  0  0  0  0  0  0  0  0  0  0  0
  189.5630  176.7300  144.3010 C   0  0  0  0  0  0  0  0  0  0  0  0
  192.0560  175.4190  144.3540 C   0  0  0  0  0  3  0  0  0  0  0  0
  188.1080  177.9270  146.6710 C   0  0  0  0  0  3  0  0  0  0  0  0
  188.1980  176.9690  141.7260 C   0  0  1  0  0  3  0  0  0  0  0  0
  192.3850  176.1860  146.5840 F   0  0  0  0  0  0  0  0  0  0  0  0
  185.4400  178.0560  143.9250 C   0  0  0  0  0  3  0  0  0  0  0  0
  187.9330  178.2570  149.0800 C   0  0  0  0  0  1  0  0  0  0  0  0
  189.2570  175.9980  141.9720 N   0  0  0  0  0  2  0  0  0  0  0  0
  187.4990  177.2860  142.9700 N   0  0  0  0  0  0  0  0  0  0  0  0
  190.3790  176.7770  145.4430 C   0  0  0  0  0  3  0  0  0  0  0  0
  185.9070  178.5290  147.5430 C   0  0  0  0  0  3  0  0  0  0  0  0
  190.0330  176.0330  143.1700 C   0  0  0  0  0  0  0  0  0  0  0  0
  191.2640  175.3700  143.2050 C   0  0  0  0  0  3  0  0  0  0  0  0
  186.0800  177.4860  142.9080 C   0  0  0  0  0  3  0  0  0  0  0  0
  186.2160  178.5910  145.0870 C   0  0  1  0  0  3  0  0  0  0  0  0
  185.3670  178.6450  146.3270 C   0  0  0  0  0  3  0  0  0  0  0  0
  189.4320  179.3230  138.9150 C   0  0  0  0  0  1  0  0  0  0  0  0
  187.6910  179.2200  140.7690 C   0  0  0  0  0  2  0  0  0  0  0  0
  188.4190  178.4800  139.6680 C   0  0  2  0  0  0  0  0  0  0  0  0
  188.8010  178.2400  141.1280 C   0  0  2  0  0  3  0  0  0  0  0  0
  187.6090  177.3960  138.9260 C   0  0  1  0  0  3  0  0  0  0  0  0
  186.2960  177.8800  138.2720 C   0  0  0  0  0  0  0  0  0  0  0  0
  186.5660  179.0070  137.4960 O   0  0  0  0  0  1  0  0  0  0  0  0
  185.2560  178.2550  139.3150 C   0  0  0  0  0  1  0  0  0  0  0  0
  185.7160  176.8130  137.3620 C   0  0  0  0  0  1  0  0  0  0  0  0
  189.1530  175.9140  138.6880 O   0  0  0  0  0  1  0  0  0  0  0  0
  188.4250  176.7570  137.9840 O   0  0  0  0  0  0  0  0  0  0  0  0
  1  9  1  0  0  0  0
  2  5  1  0  0  0  0
  2  3  2  0  0  0  0
  3  7  1  0  0  0  0
  4 11  1  0  0  0  0
  5 14  2  0  0  0  0
  6  1  2  0  0  0  0
  7  4  2  0  0  0  0
  8 12  1  1  0  0  0
  8 13  1  0  0  0  0
 12 16  1  0  0  0  0
 13  2  1  0  0  0  0
 14  1  1  0  0  0  0
 15  4  1  0  0  0  0
 16 17  2  0  0  0  0
 16  5  1  0  0  0  0
 17  6  1  0  0  0  0
 18 13  1  0  0  0  0
 18 10  2  0  0  0  0
 19 10  1  6  0  0  0
 19  3  1  0  0  0  0
 19 20  1  0  0  0  0
 20 15  2  0  0  0  0
 23 21  1  6  0  0  0
 23 22  1  0  0  0  0
 23 24  1  0  0  0  0
 24 22  1  1  0  0  0
 24  8  1  0  0  0  0
 25 31  1  6  0  0  0
 25 23  1  0  0  0  0
 26 25  1  0  0  0  0
 26 28  1  0  0  0  0
 27 26  1  0  0  0  0
 29 26  1  0  0  0  0
 31 30  1  0  0  0  0
M  END
>  <MODEL>
6

>  <REMARK>
 VINA RESULT:      -7.0      3.027      5.729
  Name = 
  4 active torsions:
  status: ('A' for Active; 'I' for Inactive)
    1  A    between atoms: C_1  and  C_19
    2  A    between atoms: O_7  and  C_19
    3  A    between atoms: C_15  and  C_23
    4  A    between atoms: C_19  and  C_22
                            x       y       z     vdW  Elec       q    Type
                         _______ _______ _______ _____ _____    ______ ____

>  <TORSDO>
F 4

$$$$
=
 OpenBabel11052412583D

 31 35  0  0  1  0  0  0  0  0999 V2000
  184.9050  179.0690  141.2380 C   0  0  0  0  0  0  0  0  0  0  0  0
  188.3440  177.5980  142.0710 C   0  0  0  0  0  0  0  0  0  0  0  0
  189.1170  177.7080  140.9570 C   0  0  0  0  0  0  0  0  0  0  0  0
  189.3520  178.1490  138.5590 C   0  0  0  0  0  0  0  0  0  0  0  0
  186.9100  178.0250  142.1540 C   0  0  0  0  0  0  0  0  0  0  0  0
  184.1780  178.6810  142.3640 C   0  0  0  0  0  3  0  0  0  0  0  0
  188.6340  178.2700  139.6770 C   0  0  0  0  0  3  0  0  0  0  0  0
  188.2540  176.9850  144.5330 C   0  0  1  0  0  3  0  0  0  0  0  0
  184.2960  179.7530  140.2410 F   0  0  0  0  0  0  0  0  0  0  0  0
  190.8870  176.2750  142.0480 C   0  0  0  0  0  3  0  0  0  0  0  0
  188.8270  178.7090  137.2870 C   0  0  0  0  0  1  0  0  0  0  0  0
  186.8030  176.9830  144.3790 N   0  0  0  0  0  2  0  0  0  0  0  0
  188.9040  176.9230  143.2260 N   0  0  0  0  0  0  0  0  0  0  0  0
  186.2580  178.7380  141.1340 C   0  0  0  0  0  3  0  0  0  0  0  0
  190.6180  177.3930  138.5530 C   0  0  0  0  0  3  0  0  0  0  0  0
  186.1700  177.6680  143.2990 C   0  0  0  0  0  0  0  0  0  0  0  0
  184.8110  177.9820  143.3930 C   0  0  0  0  0  3  0  0  0  0  0  0
  190.0980  176.1380  143.1090 C   0  0  0  0  0  3  0  0  0  0  0  0
  190.5880  177.3290  141.0280 C   0  0  1  0  0  3  0  0  0  0  0  0
  191.1760  176.9730  139.6910 C   0  0  0  0  0  3  0  0  0  0  0  0
  189.5480  179.0810  147.5160 C   0  0  0  0  0  1  0  0  0  0  0  0
  190.1910  178.4400  145.1380 C   0  0  0  0  0  2  0  0  0  0  0  0
  189.6090  177.9920  146.4610 C   0  0  2  0  0  0  0  0  0  0  0  0
  188.6850  178.2520  145.2710 C   0  0  2  0  0  3  0  0  0  0  0  0
  189.8970  176.5320  146.8710 C   0  0  1  0  0  3  0  0  0  0  0  0
  191.3900  176.1640  147.0100 C   0  0  0  0  0  0  0  0  0  0  0  0
  192.0460  177.1830  147.7000 O   0  0  0  0  0  1  0  0  0  0  0  0
  192.0550  176.0000  145.6530 C   0  0  0  0  0  1  0  0  0  0  0  0
  191.5620  174.8780  147.7980 C   0  0  0  0  0  1  0  0  0  0  0  0
  187.9290  176.3770  147.7310 O   0  0  0  0  0  1  0  0  0  0  0  0
  189.2000  176.2240  148.0460 O   0  0  0  0  0  0  0  0  0  0  0  0
  1  6  1  0  0  0  0
  2  5  1  0  0  0  0
  2 13  1  0  0  0  0
  3 19  1  0  0  0  0
  3  2  2  0  0  0  0
  4  7  2  0  0  0  0
  5 16  2  0  0  0  0
  6 17  2  0  0  0  0
  7  3  1  0  0  0  0
  8 12  1  6  0  0  0
  8 24  1  0  0  0  0
  9  1  1  0  0  0  0
 10 18  2  0  0  0  0
 11  4  1  0  0  0  0
 13  8  1  0  0  0  0
 14  1  2  0  0  0  0
 14  5  1  0  0  0  0
 15  4  1  0  0  0  0
 15 20  2  0  0  0  0
 16 17  1  0  0  0  0
 16 12  1  0  0  0  0
 18 13  1  0  0  0  0
 19 20  1  6  0  0  0
 19 10  1  0  0  0  0
 22 23  1  0  0  0  0
 23 25  1  0  0  0  0
 23 21  1  1  0  0  0
 24 22  1  6  0  0  0
 24 23  1  0  0  0  0
 25 26  1  0  0  0  0
 25 31  1  1  0  0  0
 26 27  1  0  0  0  0
 26 29  1  0  0  0  0
 28 26  1  0  0  0  0
 30 31  1  0  0  0  0
M  END
>  <MODEL>
7

>  <REMARK>
 VINA RESULT:      -7.0      4.292      7.460
  Name = 
  4 active torsions:
  status: ('A' for Active; 'I' for Inactive)
    1  A    between atoms: C_1  and  C_19
    2  A    between atoms: O_7  and  C_19
    3  A    between atoms: C_15  and  C_23
    4  A    between atoms: C_19  and  C_22
                            x       y       z     vdW  Elec       q    Type
                         _______ _______ _______ _____ _____    ______ ____

>  <TORSDO>
F 4

$$$$
=
 OpenBabel11052412583D

 31 35  0  0  1  0  0  0  0  0999 V2000
  186.2200  178.0790  145.0870 C   0  0  0  0  0  0  0  0  0  0  0  0
  186.0880  178.2460  141.2610 C   0  0  0  0  0  0  0  0  0  0  0  0
  187.3300  177.9480  140.7960 C   0  0  0  0  0  0  0  0  0  0  0  0
  189.7250  177.5980  141.1780 C   0  0  0  0  0  0  0  0  0  0  0  0
  185.7230  178.3250  142.7130 C   0  0  0  0  0  0  0  0  0  0  0  0
  184.9770  178.6210  145.4130 C   0  0  0  0  0  3  0  0  0  0  0  0
  188.4870  177.6600  141.6720 C   0  0  0  0  0  3  0  0  0  0  0  0
  183.6610  178.7040  140.6750 C   0  0  1  0  0  3  0  0  0  0  0  0
  187.0730  177.7030  146.0690 F   0  0  0  0  0  0  0  0  0  0  0  0
  186.6190  178.6280  138.4700 C   0  0  0  0  0  3  0  0  0  0  0  0
  190.8650  177.3260  142.0910 C   0  0  0  0  0  1  0  0  0  0  0  0
  183.5280  179.2060  142.0370 N   0  0  0  0  0  2  0  0  0  0  0  0
  185.0700  178.6200  140.2980 N   0  0  0  0  0  0  0  0  0  0  0  0
  186.5900  177.9370  143.7480 C   0  0  0  0  0  3  0  0  0  0  0  0
  189.9840  177.8790  139.7540 C   0  0  0  0  0  3  0  0  0  0  0  0
  184.4570  178.8420  143.0570 C   0  0  0  0  0  0  0  0  0  0  0  0
  184.0970  179.0020  144.3990 C   0  0  0  0  0  3  0  0  0  0  0  0
  185.4250  178.9600  138.9520 C   0  0  0  0  0  3  0  0  0  0  0  0
  187.5520  177.8010  139.2980 C   0  0  1  0  0  3  0  0  0  0  0  0
  188.9810  178.0170  138.8840 C   0  0  0  0  0  3  0  0  0  0  0  0
  180.7720  176.1720  140.2180 C   0  0  0  0  0  1  0  0  0  0  0  0
  182.9540  176.8840  139.1180 C   0  0  0  0  0  2  0  0  0  0  0  0
  181.6840  177.3170  139.8180 C   0  0  2  0  0  0  0  0  0  0  0  0
  183.0110  177.3240  140.5750 C   0  0  2  0  0  3  0  0  0  0  0  0
  181.0820  178.6640  139.3630 C   0  0  1  0  0  3  0  0  0  0  0  0
  180.6020  178.7150  137.8960 C   0  0  0  0  0  0  0  0  0  0  0  0
  181.0230  177.5570  137.2420 O   0  0  0  0  0  1  0  0  0  0  0  0
  181.1740  179.9160  137.1610 C   0  0  0  0  0  1  0  0  0  0  0  0
  179.0870  178.7700  137.8220 C   0  0  0  0  0  1  0  0  0  0  0  0
  180.4740  180.1570  140.7900 O   0  0  0  0  0  1  0  0  0  0  0  0
  180.0520  179.0390  140.2340 O   0  0  0  0  0  0  0  0  0  0  0  0
  1  6  1  0  0  0  0
  1  9  1  0  0  0  0
  2  5  1  0  0  0  0
  3  2  2  0  0  0  0
  3  7  1  0  0  0  0
  4  7  2  0  0  0  0
  4 11  1  0  0  0  0
  5 16  2  0  0  0  0
  5 14  1  0  0  0  0
  8 12  1  1  0  0  0
 10 18  2  0  0  0  0
 12 16  1  0  0  0  0
 13  8  1  0  0  0  0
 13  2  1  0  0  0  0
 14  1  2  0  0  0  0
 15  4  1  0  0  0  0
 16 17  1  0  0  0  0
 17  6  2  0  0  0  0
 18 13  1  0  0  0  0
 19 10  1  6  0  0  0
 19  3  1  0  0  0  0
 20 19  1  0  0  0  0
 20 15  2  0  0  0  0
 22 23  1  0  0  0  0
 23 21  1  1  0  0  0
 23 24  1  0  0  0  0
 24 22  1  6  0  0  0
 24  8  1  0  0  0  0
 25 23  1  0  0  0  0
 25 31  1  1  0  0  0
 26 25  1  0  0  0  0
 27 26  1  0  0  0  0
 28 26  1  0  0  0  0
 29 26  1  0  0  0  0
 31 30  1  0  0  0  0
M  END
>  <MODEL>
8

>  <REMARK>
 VINA RESULT:      -6.9      1.491      1.822
  Name = 
  4 active torsions:
  status: ('A' for Active; 'I' for Inactive)
    1  A    between atoms: C_1  and  C_19
    2  A    between atoms: O_7  and  C_19
    3  A    between atoms: C_15  and  C_23
    4  A    between atoms: C_19  and  C_22
                            x       y       z     vdW  Elec       q    Type
                         _______ _______ _______ _____ _____    ______ ____

>  <TORSDO>
F 4

$$$$
=
 OpenBabel11052412583D

 31 35  0  0  1  0  0  0  0  0999 V2000
  185.6240  178.4780  140.9110 C   0  0  0  0  0  0  0  0  0  0  0  0
  189.3550  177.6010  140.9010 C   0  0  0  0  0  0  0  0  0  0  0  0
  189.7500  177.4830  142.1960 C   0  0  0  0  0  0  0  0  0  0  0  0
  189.3390  177.8010  144.5900 C   0  0  0  0  0  0  0  0  0  0  0  0
  187.9680  177.9730  140.4680 C   0  0  0  0  0  0  0  0  0  0  0  0
  185.4280  178.7890  139.5660 C   0  0  0  0  0  3  0  0  0  0  0  0
  188.8540  177.7060  143.3510 C   0  0  0  0  0  3  0  0  0  0  0  0
  189.9900  177.3230  138.4590 C   0  0  1  0  0  3  0  0  0  0  0  0
  184.5960  178.5780  141.7870 F   0  0  0  0  0  0  0  0  0  0  0  0
  192.1580  177.3490  141.4450 C   0  0  0  0  0  3  0  0  0  0  0  0
  188.4110  178.0450  145.7250 C   0  0  0  0  0  1  0  0  0  0  0  0
  188.8070  178.1210  138.1600 N   0  0  0  0  0  2  0  0  0  0  0  0
  190.3600  177.4680  139.8650 N   0  0  0  0  0  0  0  0  0  0  0  0
  186.8860  178.0780  141.3580 C   0  0  0  0  0  3  0  0  0  0  0  0
  190.7920  177.7500  144.8380 C   0  0  0  0  0  3  0  0  0  0  0  0
  187.7460  178.2590  139.1060 C   0  0  0  0  0  0  0  0  0  0  0  0
  186.4880  178.6790  138.6650 C   0  0  0  0  0  3  0  0  0  0  0  0
  191.7560  177.5140  140.1890 C   0  0  0  0  0  3  0  0  0  0  0  0
  191.1600  177.0030  142.5060 C   0  0  1  0  0  3  0  0  0  0  0  0
  191.6470  177.4220  143.8650 C   0  0  0  0  0  3  0  0  0  0  0  0
  189.8570  174.1320  136.2770 C   0  0  0  0  0  1  0  0  0  0  0  0
  190.9580  175.0220  138.3920 C   0  0  0  0  0  2  0  0  0  0  0  0
  190.5220  175.3060  136.9710 C   0  0  2  0  0  0  0  0  0  0  0  0
  189.7070  175.8550  138.1410 C   0  0  2  0  0  3  0  0  0  0  0  0
  191.4130  176.2770  136.1670 C   0  0  1  0  0  3  0  0  0  0  0  0
  192.9220  175.9480  136.1680 C   0  0  0  0  0  0  0  0  0  0  0  0
  193.5320  176.6200  137.2270 O   0  0  0  0  0  1  0  0  0  0  0  0
  193.5920  176.3830  134.8750 C   0  0  0  0  0  1  0  0  0  0  0  0
  193.1530  174.4600  136.3630 C   0  0  0  0  0  1  0  0  0  0  0  0
  189.9540  177.2680  134.9320 O   0  0  0  0  0  1  0  0  0  0  0  0
  190.9310  176.3870  134.8570 O   0  0  0  0  0  0  0  0  0  0  0  0
  1 14  1  0  0  0  0
  1  9  1  0  0  0  0
  2  3  2  0  0  0  0
  3 19  1  0  0  0  0
  3  7  1  0  0  0  0
  4 15  1  0  0  0  0
  4 11  1  0  0  0  0
  5  2  1  0  0  0  0
  5 14  2  0  0  0  0
  6  1  2  0  0  0  0
  7  4  2  0  0  0  0
  8 12  1  1  0  0  0
  8 13  1  0  0  0  0
 12 16  1  0  0  0  0
 13 18  1  0  0  0  0
 13  2  1  0  0  0  0
 16  5  1  0  0  0  0
 17 16  2  0  0  0  0
 17  6  1  0  0  0  0
 18 10  2  0  0  0  0
 19 10  1  6  0  0  0
 19 20  1  0  0  0  0
 20 15  2  0  0  0  0
 23 21  1  6  0  0  0
 23 24  1  0  0  0  0
 23 22  1  0  0  0  0
 24 22  1  1  0  0  0
 24  8  1  0  0  0  0
 25 31  1  6  0  0  0
 25 26  1  0  0  0  0
 25 23  1  0  0  0  0
 26 29  1  0  0  0  0
 26 27  1  0  0  0  0
 28 26  1  0  0  0  0
 31 30  1  0  0  0  0
M  END
>  <MODEL>
9

>  <REMARK>
 VINA RESULT:      -6.9      4.381      7.472
  Name = 
  4 active torsions:
  status: ('A' for Active; 'I' for Inactive)
    1  A    between atoms: C_1  and  C_19
    2  A    between atoms: O_7  and  C_19
    3  A    between atoms: C_15  and  C_23
    4  A    between atoms: C_19  and  C_22
                            x       y       z     vdW  Elec       q    Type
                         _______ _______ _______ _____ _____    ______ ____

>  <TORSDO>
F 4

$$$$
