=
 OpenBabel11052415353D

 37 39  0  0  1  0  0  0  0  0999 V2000
  181.1340  180.2140  139.1030 C   0  0  0  0  0  2  0  0  0  0  0  0
  180.7400  180.4620  137.6510 C   0  0  1  0  0  3  0  0  0  0  0  0
  181.6210  175.6850  137.1210 C   0  0  1  0  0  3  0  0  0  0  0  0
  182.9600  175.5880  136.3900 C   0  0  0  0  0  2  0  0  0  0  0  0
  185.0600  177.8140  138.5880 C   0  0  2  0  0  3  0  0  0  0  0  0
  180.4440  177.6990  136.2000 C   0  0  0  0  0  2  0  0  0  0  0  0
  178.9360  180.1400  136.0910 O   0  0  0  0  0  1  0  0  0  0  0  0
  182.9150  177.7320  139.8400 C   0  0  0  0  0  1  0  0  0  0  0  0
  184.4580  177.3430  137.2640 C   0  0  0  0  0  2  0  0  0  0  0  0
  179.4370  179.7340  137.3300 C   0  0  1  0  0  3  0  0  0  0  0  0
  184.0930  178.6440  139.4660 C   0  0  2  0  0  0  0  0  0  0  0  0
  180.5820  181.8330  137.4440 O   0  0  0  0  0  1  0  0  0  0  0  0
  179.6040  178.2150  137.3600 C   0  0  0  0  0  2  0  0  0  0  0  0
  183.5820  179.8510  138.6610 C   0  0  0  0  0  2  0  0  0  0  0  0
  184.0970  175.8760  137.3500 C   0  0  0  0  0  2  0  0  0  0  0  0
  180.4680  176.1790  136.2390 C   0  0  1  0  0  3  0  0  0  0  0  0
  182.5460  180.7070  139.3850 C   0  0  0  0  0  2  0  0  0  0  0  0
  185.4510  178.1020  141.4260 O   0  0  0  0  0  0  0  0  0  0  0  0
  184.3360  178.7380  142.0090 C   0  0  2  0  0  3  0  0  0  0  0  0
  184.8820  179.1620  140.6960 C   0  0  2  0  0  3  0  0  0  0  0  0
  184.8130  179.6880  143.0850 C   0  0  0  0  0  2  0  0  0  0  0  0
  186.2710  178.4380  145.1770 O   0  0  0  0  0  0  0  0  0  0  0  0
  185.0500  178.6710  145.3750 C   0  0  0  0  0  0  0  0  0  0  0  0
  184.4540  178.3020  146.6130 N   0  0  0  0  0  1  0  0  0  0  0  0
  184.2530  179.2890  144.3650 N   0  0  0  0  0  2  0  0  0  0  0  0
  181.7420  173.3380  137.4030 O   0  0  0  0  0  0  0  0  0  0  0  0
  181.2730  174.3930  137.8010 C   0  0  0  0  0  0  0  0  0  0  0  0
  179.0870  174.0840  138.6160 O   0  0  0  0  0  0  0  0  0  0  0  0
  180.3730  174.4030  138.9940 C   0  0  0  0  0  3  0  0  0  0  0  0
  179.8500  173.1440  139.1930 O   0  0  0  0  0  0  0  0  0  0  0  0
  186.3460  178.4210  138.4140 O   0  0  0  0  0  0  0  0  0  0  0  0
  187.5760  177.7610  138.5410 C   0  0  0  0  0  0  0  0  0  0  0  0
  188.5150  178.2450  139.2270 O   0  0  0  0  0  0  0  0  0  0  0  0
  187.7840  176.4730  137.8300 C   0  0  0  0  0  1  0  0  0  0  0  0
  180.4880  175.5850  134.8340 C   0  0  0  0  0  2  0  0  0  0  0  0
  179.3010  174.7090  134.6190 C   0  0  0  0  0  3  0  0  0  0  0  0
  179.2520  173.6090  135.1440 O   0  0  0  0  0  0  0  0  0  0  0  0
  1 17  1  0  0  0  0
  2 12  1  1  0  0  0
  2  1  1  0  0  0  0
  3 27  1  6  0  0  0
  4  3  1  0  0  0  0
  4 15  1  0  0  0  0
  5 31  1  6  0  0  0
  5 11  1  0  0  0  0
  6 16  1  0  0  0  0
  6 13  1  0  0  0  0
  9 15  1  0  0  0  0
  9  5  1  0  0  0  0
 10  7  1  6  0  0  0
 10 13  1  0  0  0  0
 10  2  1  0  0  0  0
 11  8  1  1  0  0  0
 11 20  1  0  0  0  0
 14 17  1  0  0  0  0
 14 11  1  0  0  0  0
 16 35  1  6  0  0  0
 16  3  1  0  0  0  0
 18 19  1  0  0  0  0
 19 21  1  1  0  0  0
 20 18  1  6  0  0  0
 20 19  1  0  0  0  0
 21 25  1  0  0  0  0
 22 23  2  0  0  0  0
 23 24  1  0  0  0  0
 25 23  1  0  0  0  0
 26 27  2  0  0  0  0
 27 29  1  0  0  0  0
 28 29  1  0  0  0  0
 28 30  1  0  0  0  0
 29 30  1  0  0  0  0
 31 32  1  0  0  0  0
 32 33  2  0  0  0  0
 34 32  1  0  0  0  0
 36 35  1  0  0  0  0
 36 37  2  0  0  0  0
M  END
>  <MODEL>
1

>  <REMARK>
 VINA RESULT:      -4.5      0.000      0.000
  Name = 
  9 active torsions:
  status: ('A' for Active; 'I' for Inactive)
    1  A    between atoms: C_4  and  O_22
    2  A    between atoms: C_6  and  C_19
    3  A    between atoms: C_7  and  C_33
    4  A    between atoms: C_10  and  O_22
    5  A    between atoms: C_16  and  C_30
    6  A    between atoms: C_18  and  C_19
    7  A    between atoms: C_20  and  C_24
    8  A    between atoms: C_30  and  N_32
    9  A    between atoms: C_33  and  C_34
                            x       y       z     vdW  Elec       q    Type
                         _______ _______ _______ _____ _____    ______ ____

>  <TORSDO>
F 9

$$$$
=
 OpenBabel11052415353D

 37 39  0  0  1  0  0  0  0  0999 V2000
  184.4470  172.9120  137.3860 C   0  0  0  0  0  2  0  0  0  0  0  0
  185.3730  172.3960  136.2890 C   0  0  1  0  0  3  0  0  0  0  0  0
  187.0740  176.9760  136.2660 C   0  0  1  0  0  3  0  0  0  0  0  0
  186.4980  177.6280  135.0090 C   0  0  0  0  0  2  0  0  0  0  0  0
  182.8480  176.8140  135.4750 C   0  0  2  0  0  3  0  0  0  0  0  0
  187.5380  174.5810  135.6860 C   0  0  0  0  0  2  0  0  0  0  0  0
  187.6460  171.7190  135.8840 O   0  0  0  0  0  1  0  0  0  0  0  0
  183.8340  175.9860  137.6000 C   0  0  0  0  0  1  0  0  0  0  0  0
  184.1760  176.8450  134.7170 C   0  0  0  0  0  2  0  0  0  0  0  0
  186.8200  172.4060  136.7760 C   0  0  1  0  0  3  0  0  0  0  0  0
  182.7550  175.7010  136.5460 C   0  0  2  0  0  0  0  0  0  0  0  0
  184.9970  171.0970  135.9420 O   0  0  0  0  0  1  0  0  0  0  0  0
  187.3430  173.8260  136.9940 C   0  0  0  0  0  2  0  0  0  0  0  0
  183.0180  174.3360  135.8870 C   0  0  0  0  0  2  0  0  0  0  0  0
  185.0390  177.9780  135.2290 C   0  0  0  0  0  2  0  0  0  0  0  0
  188.1640  175.9350  135.9810 C   0  0  1  0  0  3  0  0  0  0  0  0
  183.0420  173.1560  136.8550 C   0  0  0  0  0  2  0  0  0  0  0  0
  181.2350  176.4840  138.2950 O   0  0  0  0  0  0  0  0  0  0  0  0
  181.1810  175.0860  138.4650 C   0  0  2  0  0  3  0  0  0  0  0  0
  181.3160  175.7080  137.1240 C   0  0  2  0  0  3  0  0  0  0  0  0
  179.7440  174.6680  138.6850 C   0  0  0  0  0  2  0  0  0  0  0  0
  179.1000  175.4150  141.3480 O   0  0  0  0  0  0  0  0  0  0  0  0
  179.3360  174.1990  141.1240 C   0  0  0  0  0  0  0  0  0  0  0  0
  179.2790  173.2630  142.1930 N   0  0  0  0  0  1  0  0  0  0  0  0
  179.6760  173.7530  139.8110 N   0  0  0  0  0  2  0  0  0  0  0  0
  187.7530  179.1560  136.8910 O   0  0  0  0  0  0  0  0  0  0  0  0
  187.5490  178.0070  137.2490 C   0  0  0  0  0  0  0  0  0  0  0  0
  189.0680  177.3480  138.9220 O   0  0  0  0  0  0  0  0  0  0  0  0
  187.7400  177.6300  138.6820 C   0  0  0  0  0  3  0  0  0  0  0  0
  188.5760  178.5380  139.2950 O   0  0  0  0  0  0  0  0  0  0  0  0
  181.7190  176.8630  134.5940 O   0  0  0  0  0  0  0  0  0  0  0  0
  180.7100  177.8350  134.6270 C   0  0  0  0  0  0  0  0  0  0  0  0
  179.4910  177.5190  134.5940 O   0  0  0  0  0  0  0  0  0  0  0  0
  181.0870  179.2710  134.6770 C   0  0  0  0  0  1  0  0  0  0  0  0
  189.1250  176.3580  134.8750 C   0  0  0  0  0  2  0  0  0  0  0  0
  190.5320  176.3460  135.3700 C   0  0  0  0  0  3  0  0  0  0  0  0
  190.7770  175.9520  136.4980 O   0  0  0  0  0  0  0  0  0  0  0  0
  2 12  1  1  0  0  0
  2 10  1  0  0  0  0
  2  1  1  0  0  0  0
  3 27  1  1  0  0  0
  4 15  1  0  0  0  0
  4  3  1  0  0  0  0
  5 31  1  6  0  0  0
  5 11  1  0  0  0  0
  6 16  1  0  0  0  0
  6 13  1  0  0  0  0
  9 15  1  0  0  0  0
  9  5  1  0  0  0  0
 10  7  1  6  0  0  0
 10 13  1  0  0  0  0
 11 20  1  0  0  0  0
 11  8  1  1  0  0  0
 14 11  1  0  0  0  0
 14 17  1  0  0  0  0
 16 35  1  6  0  0  0
 16  3  1  0  0  0  0
 17  1  1  0  0  0  0
 18 19  1  0  0  0  0
 19 21  1  6  0  0  0
 20 18  1  1  0  0  0
 20 19  1  0  0  0  0
 21 25  1  0  0  0  0
 23 22  2  0  0  0  0
 23 24  1  0  0  0  0
 25 23  1  0  0  0  0
 26 27  2  0  0  0  0
 27 29  1  0  0  0  0
 28 30  1  0  0  0  0
 29 28  1  0  0  0  0
 29 30  1  0  0  0  0
 31 32  1  0  0  0  0
 32 34  1  0  0  0  0
 33 32  2  0  0  0  0
 35 36  1  0  0  0  0
 36 37  2  0  0  0  0
M  END
>  <MODEL>
2

>  <REMARK>
 VINA RESULT:      -4.2      3.851      8.118
  Name = 
  9 active torsions:
  status: ('A' for Active; 'I' for Inactive)
    1  A    between atoms: C_4  and  O_22
    2  A    between atoms: C_6  and  C_19
    3  A    between atoms: C_7  and  C_33
    4  A    between atoms: C_10  and  O_22
    5  A    between atoms: C_16  and  C_30
    6  A    between atoms: C_18  and  C_19
    7  A    between atoms: C_20  and  C_24
    8  A    between atoms: C_30  and  N_32
    9  A    between atoms: C_33  and  C_34
                            x       y       z     vdW  Elec       q    Type
                         _______ _______ _______ _____ _____    ______ ____

>  <TORSDO>
F 9

$$$$
=
 OpenBabel11052415353D

 37 39  0  0  1  0  0  0  0  0999 V2000
  182.9290  174.8750  135.9670 C   0  0  0  0  0  2  0  0  0  0  0  0
  182.2000  174.3290  137.1890 C   0  0  1  0  0  3  0  0  0  0  0  0
  181.7740  179.0390  138.4170 C   0  0  1  0  0  3  0  0  0  0  0  0
  182.7860  179.2690  139.5390 C   0  0  0  0  0  2  0  0  0  0  0  0
  185.8820  177.8590  137.9200 C   0  0  2  0  0  3  0  0  0  0  0  0
  180.8740  176.7190  138.7250 C   0  0  0  0  0  2  0  0  0  0  0  0
  179.9990  174.0510  138.1220 O   0  0  0  0  0  1  0  0  0  0  0  0
  184.2310  177.7330  136.0670 C   0  0  0  0  0  1  0  0  0  0  0  0
  184.8320  177.9900  139.0240 C   0  0  0  0  0  2  0  0  0  0  0  0
  180.7290  174.7370  137.1480 C   0  0  1  0  0  3  0  0  0  0  0  0
  185.4260  177.0120  136.7080 C   0  0  2  0  0  0  0  0  0  0  0  0
  182.3070  172.9370  137.2070 O   0  0  0  0  0  1  0  0  0  0  0  0
  180.5460  176.2450  137.3160 C   0  0  0  0  0  2  0  0  0  0  0  0
  184.9940  175.6180  137.1930 C   0  0  0  0  0  2  0  0  0  0  0  0
  184.1860  179.3580  138.9660 C   0  0  0  0  0  2  0  0  0  0  0  0
  180.5600  178.2020  138.8380 C   0  0  1  0  0  3  0  0  0  0  0  0
  184.4360  174.7080  136.1010 C   0  0  0  0  0  2  0  0  0  0  0  0
  186.3270  176.0040  134.6690 O   0  0  0  0  0  0  0  0  0  0  0  0
  187.1830  175.4790  135.6590 C   0  0  2  0  0  3  0  0  0  0  0  0
  186.6340  176.8550  135.7480 C   0  0  2  0  0  3  0  0  0  0  0  0
  188.6110  175.5370  135.1620 C   0  0  0  0  0  2  0  0  0  0  0  0
  190.4940  176.6430  136.9770 O   0  0  0  0  0  0  0  0  0  0  0  0
  190.3820  175.3890  136.9440 C   0  0  0  0  0  0  0  0  0  0  0  0
  191.1900  174.5870  137.7960 N   0  0  0  0  0  1  0  0  0  0  0  0
  189.4620  174.7640  136.0500 N   0  0  0  0  0  2  0  0  0  0  0  0
  181.0880  180.3840  136.5940 O   0  0  0  0  0  0  0  0  0  0  0  0
  181.3520  180.3340  137.7850 C   0  0  0  0  0  0  0  0  0  0  0  0
  182.2520  182.4330  138.3520 O   0  0  0  0  0  0  0  0  0  0  0  0
  181.2210  181.5610  138.6270 C   0  0  0  0  0  3  0  0  0  0  0  0
  181.0420  182.6630  137.8200 O   0  0  0  0  0  0  0  0  0  0  0  0
  187.1660  177.4850  138.4340 O   0  0  0  0  0  0  0  0  0  0  0  0
  188.0470  178.3410  139.1100 C   0  0  0  0  0  0  0  0  0  0  0  0
  188.8270  179.1090  138.4870 O   0  0  0  0  0  0  0  0  0  0  0  0
  188.0770  178.3230  140.5950 C   0  0  0  0  0  1  0  0  0  0  0  0
  180.0380  178.5580  140.2260 C   0  0  0  0  0  2  0  0  0  0  0  0
  179.6120  177.3280  140.9560 C   0  0  0  0  0  3  0  0  0  0  0  0
  179.3820  177.3780  142.1520 O   0  0  0  0  0  0  0  0  0  0  0  0
  1 17  1  0  0  0  0
  1  2  1  0  0  0  0
  2 12  1  6  0  0  0
  3 27  1  1  0  0  0
  3 16  1  0  0  0  0
  3  4  1  0  0  0  0
  5 31  1  1  0  0  0
  5  9  1  0  0  0  0
  6 16  1  0  0  0  0
 10  2  1  0  0  0  0
 10 13  1  0  0  0  0
 10  7  1  1  0  0  0
 11  8  1  6  0  0  0
 11 14  1  0  0  0  0
 11  5  1  0  0  0  0
 13  6  1  0  0  0  0
 15  9  1  0  0  0  0
 15  4  1  0  0  0  0
 16 35  1  1  0  0  0
 17 14  1  0  0  0  0
 18 19  1  0  0  0  0
 19 21  1  6  0  0  0
 19 20  1  0  0  0  0
 20 18  1  6  0  0  0
 20 11  1  0  0  0  0
 21 25  1  0  0  0  0
 23 22  2  0  0  0  0
 23 24  1  0  0  0  0
 25 23  1  0  0  0  0
 26 27  2  0  0  0  0
 27 29  1  0  0  0  0
 28 29  1  0  0  0  0
 30 28  1  0  0  0  0
 30 29  1  0  0  0  0
 31 32  1  0  0  0  0
 32 34  1  0  0  0  0
 33 32  2  0  0  0  0
 35 36  1  0  0  0  0
 36 37  2  0  0  0  0
M  END
>  <MODEL>
3

>  <REMARK>
 VINA RESULT:      -4.1      3.461      6.529
  Name = 
  9 active torsions:
  status: ('A' for Active; 'I' for Inactive)
    1  A    between atoms: C_4  and  O_22
    2  A    between atoms: C_6  and  C_19
    3  A    between atoms: C_7  and  C_33
    4  A    between atoms: C_10  and  O_22
    5  A    between atoms: C_16  and  C_30
    6  A    between atoms: C_18  and  C_19
    7  A    between atoms: C_20  and  C_24
    8  A    between atoms: C_30  and  N_32
    9  A    between atoms: C_33  and  C_34
                            x       y       z     vdW  Elec       q    Type
                         _______ _______ _______ _____ _____    ______ ____

>  <TORSDO>
F 9

$$$$
=
 OpenBabel11052415353D

 37 39  0  0  1  0  0  0  0  0999 V2000
  185.1980  174.2610  135.9620 C   0  0  0  0  0  2  0  0  0  0  0  0
  184.3250  173.4280  136.8940 C   0  0  1  0  0  3  0  0  0  0  0  0
  181.4550  177.3820  136.9260 C   0  0  1  0  0  3  0  0  0  0  0  0
  181.6830  178.0500  138.2820 C   0  0  0  0  0  2  0  0  0  0  0  0
  185.4440  178.2630  138.2760 C   0  0  2  0  0  3  0  0  0  0  0  0
  181.5930  174.9080  137.3110 C   0  0  0  0  0  2  0  0  0  0  0  0
  182.2890  172.1450  136.9490 O   0  0  0  0  0  1  0  0  0  0  0  0
  184.9760  177.3950  135.9950 C   0  0  0  0  0  1  0  0  0  0  0  0
  184.0780  177.8800  138.8470 C   0  0  0  0  0  2  0  0  0  0  0  0
  182.9970  173.1010  136.2150 C   0  0  1  0  0  3  0  0  0  0  0  0
  185.9610  177.3120  137.1710 C   0  0  2  0  0  0  0  0  0  0  0  0
  184.9950  172.2470  137.2200 O   0  0  0  0  0  1  0  0  0  0  0  0
  182.1370  174.3470  136.0040 C   0  0  0  0  0  2  0  0  0  0  0  0
  186.0020  175.8740  137.7140 C   0  0  0  0  0  2  0  0  0  0  0  0
  183.0070  178.7870  138.2820 C   0  0  0  0  0  2  0  0  0  0  0  0
  180.6630  176.0710  137.0050 C   0  0  1  0  0  3  0  0  0  0  0  0
  186.4120  174.8170  136.6910 C   0  0  0  0  0  2  0  0  0  0  0  0
  187.4430  178.3480  135.5240 O   0  0  0  0  0  0  0  0  0  0  0  0
  187.9750  177.0460  135.6180 C   0  0  2  0  0  3  0  0  0  0  0  0
  187.4010  177.7450  136.7950 C   0  0  2  0  0  3  0  0  0  0  0  0
  189.4850  177.1290  135.6690 C   0  0  0  0  0  2  0  0  0  0  0  0
  190.1660  176.1450  138.2440 O   0  0  0  0  0  0  0  0  0  0  0  0
  190.3430  175.3780  137.2610 C   0  0  0  0  0  0  0  0  0  0  0  0
  190.8730  174.0750  137.4700 N   0  0  0  0  0  1  0  0  0  0  0  0
  190.0320  175.8100  135.9360 N   0  0  0  0  0  2  0  0  0  0  0  0
  180.9460  178.1390  134.7420 O   0  0  0  0  0  0  0  0  0  0  0  0
  180.8380  178.3340  135.9430 C   0  0  0  0  0  0  0  0  0  0  0  0
  180.7620  180.6700  136.2130 O   0  0  0  0  0  0  0  0  0  0  0  0
  180.0570  179.5070  136.4380 C   0  0  0  0  0  3  0  0  0  0  0  0
  179.7580  180.3450  135.3860 O   0  0  0  0  0  0  0  0  0  0  0  0
  186.4070  178.5300  139.3040 O   0  0  0  0  0  0  0  0  0  0  0  0
  186.1020  178.8760  140.6270 C   0  0  0  0  0  0  0  0  0  0  0  0
  185.2070  179.7200  140.8970 O   0  0  0  0  0  0  0  0  0  0  0  0
  186.8690  178.2510  141.7350 C   0  0  0  0  0  1  0  0  0  0  0  0
  179.5010  176.1300  137.9910 C   0  0  0  0  0  2  0  0  0  0  0  0
  179.6550  175.0860  139.0450 C   0  0  0  0  0  3  0  0  0  0  0  0
  180.0290  175.4000  140.1620 O   0  0  0  0  0  0  0  0  0  0  0  0
  1 17  1  0  0  0  0
  1  2  1  0  0  0  0
  2 12  1  6  0  0  0
  3 27  1  6  0  0  0
  3 16  1  0  0  0  0
  3  4  1  0  0  0  0
  5  9  1  0  0  0  0
  5 31  1  1  0  0  0
 10  2  1  0  0  0  0
 10  7  1  1  0  0  0
 11  8  1  6  0  0  0
 11 14  1  0  0  0  0
 11  5  1  0  0  0  0
 13 10  1  0  0  0  0
 13  6  1  0  0  0  0
 15  4  1  0  0  0  0
 15  9  1  0  0  0  0
 16  6  1  0  0  0  0
 16 35  1  1  0  0  0
 17 14  1  0  0  0  0
 18 19  1  0  0  0  0
 19 21  1  1  0  0  0
 19 20  1  0  0  0  0
 20 18  1  6  0  0  0
 20 11  1  0  0  0  0
 21 25  1  0  0  0  0
 23 24  1  0  0  0  0
 23 22  2  0  0  0  0
 25 23  1  0  0  0  0
 26 27  2  0  0  0  0
 27 29  1  0  0  0  0
 28 29  1  0  0  0  0
 30 28  1  0  0  0  0
 30 29  1  0  0  0  0
 31 32  1  0  0  0  0
 32 33  2  0  0  0  0
 32 34  1  0  0  0  0
 35 36  1  0  0  0  0
 36 37  2  0  0  0  0
M  END
>  <MODEL>
4

>  <REMARK>
 VINA RESULT:      -4.0      3.315      6.327
  Name = 
  9 active torsions:
  status: ('A' for Active; 'I' for Inactive)
    1  A    between atoms: C_4  and  O_22
    2  A    between atoms: C_6  and  C_19
    3  A    between atoms: C_7  and  C_33
    4  A    between atoms: C_10  and  O_22
    5  A    between atoms: C_16  and  C_30
    6  A    between atoms: C_18  and  C_19
    7  A    between atoms: C_20  and  C_24
    8  A    between atoms: C_30  and  N_32
    9  A    between atoms: C_33  and  C_34
                            x       y       z     vdW  Elec       q    Type
                         _______ _______ _______ _____ _____    ______ ____

>  <TORSDO>
F 9

$$$$
=
 OpenBabel11052415353D

 37 39  0  0  1  0  0  0  0  0999 V2000
  186.2240  174.2370  135.8440 C   0  0  0  0  0  2  0  0  0  0  0  0
  185.6330  173.4220  136.9890 C   0  0  1  0  0  3  0  0  0  0  0  0
  182.7810  177.3360  137.6390 C   0  0  1  0  0  3  0  0  0  0  0  0
  183.3290  178.0500  138.8740 C   0  0  0  0  0  2  0  0  0  0  0  0
  186.9620  178.3140  137.9090 C   0  0  2  0  0  3  0  0  0  0  0  0
  183.0640  174.8770  138.0440 C   0  0  0  0  0  2  0  0  0  0  0  0
  183.7050  172.1140  137.5940 O   0  0  0  0  0  1  0  0  0  0  0  0
  185.9510  177.3670  135.8460 C   0  0  0  0  0  1  0  0  0  0  0  0
  185.7930  177.9310  138.8170 C   0  0  0  0  0  2  0  0  0  0  0  0
  184.1830  173.0560  136.6790 C   0  0  1  0  0  3  0  0  0  0  0  0
  187.2020  177.3350  136.7350 C   0  0  2  0  0  0  0  0  0  0  0  0
  186.3890  172.2620  137.1670 O   0  0  0  0  0  1  0  0  0  0  0  0
  183.2720  174.2820  136.6580 C   0  0  0  0  0  2  0  0  0  0  0  0
  187.4100  175.9160  137.2910 C   0  0  0  0  0  2  0  0  0  0  0  0
  184.5940  178.8050  138.5180 C   0  0  0  0  0  2  0  0  0  0  0  0
  182.0620  176.0180  137.9520 C   0  0  1  0  0  3  0  0  0  0  0  0
  187.5710  174.8330  136.2260 C   0  0  0  0  0  2  0  0  0  0  0  0
  188.2260  178.1110  134.6540 O   0  0  0  0  0  0  0  0  0  0  0  0
  188.8990  176.8920  134.8750 C   0  0  2  0  0  3  0  0  0  0  0  0
  188.4920  177.7760  135.9950 C   0  0  2  0  0  3  0  0  0  0  0  0
  190.3730  177.0810  134.5940 C   0  0  0  0  0  2  0  0  0  0  0  0
  191.5540  176.4630  137.1010 O   0  0  0  0  0  0  0  0  0  0  0  0
  191.6450  175.6030  136.1860 C   0  0  0  0  0  0  0  0  0  0  0  0
  192.3270  174.3800  136.4340 N   0  0  0  0  0  1  0  0  0  0  0  0
  191.0830  175.8500  134.8970 N   0  0  0  0  0  2  0  0  0  0  0  0
  181.9180  178.1720  135.5990 O   0  0  0  0  0  0  0  0  0  0  0  0
  181.9150  178.2470  136.8180 C   0  0  0  0  0  0  0  0  0  0  0  0
  181.5530  180.4960  137.4090 O   0  0  0  0  0  0  0  0  0  0  0  0
  181.0180  179.2290  137.4990 C   0  0  0  0  0  3  0  0  0  0  0  0
  180.5540  180.1480  136.5850 O   0  0  0  0  0  0  0  0  0  0  0  0
  188.1470  178.6270  138.6520 O   0  0  0  0  0  0  0  0  0  0  0  0
  188.5440  178.0020  139.8420 C   0  0  0  0  0  0  0  0  0  0  0  0
  189.1740  176.9120  139.8350 O   0  0  0  0  0  0  0  0  0  0  0  0
  188.1910  178.6290  141.1420 C   0  0  0  0  0  1  0  0  0  0  0  0
  181.1860  176.0920  139.1980 C   0  0  0  0  0  2  0  0  0  0  0  0
  179.7900  175.6720  138.8820 C   0  0  0  0  0  3  0  0  0  0  0  0
  179.2650  176.0340  137.8430 O   0  0  0  0  0  0  0  0  0  0  0  0
  1 17  1  0  0  0  0
  1  2  1  0  0  0  0
  2 12  1  6  0  0  0
  3 27  1  1  0  0  0
  3 16  1  0  0  0  0
  3  4  1  0  0  0  0
  5 31  1  1  0  0  0
  5  9  1  0  0  0  0
 10  2  1  0  0  0  0
 10  7  1  1  0  0  0
 11  8  1  6  0  0  0
 11 14  1  0  0  0  0
 11  5  1  0  0  0  0
 13 10  1  0  0  0  0
 13  6  1  0  0  0  0
 15  9  1  0  0  0  0
 15  4  1  0  0  0  0
 16  6  1  0  0  0  0
 16 35  1  1  0  0  0
 17 14  1  0  0  0  0
 18 19  1  0  0  0  0
 19 21  1  6  0  0  0
 19 20  1  0  0  0  0
 20 18  1  6  0  0  0
 20 11  1  0  0  0  0
 21 25  1  0  0  0  0
 23 24  1  0  0  0  0
 23 22  2  0  0  0  0
 25 23  1  0  0  0  0
 26 27  2  0  0  0  0
 27 29  1  0  0  0  0
 28 29  1  0  0  0  0
 30 28  1  0  0  0  0
 30 29  1  0  0  0  0
 31 32  1  0  0  0  0
 32 34  1  0  0  0  0
 33 32  2  0  0  0  0
 36 35  1  0  0  0  0
 37 36  2  0  0  0  0
M  END
>  <MODEL>
5

>  <REMARK>
 VINA RESULT:      -3.9      3.913      6.883
  Name = 
  9 active torsions:
  status: ('A' for Active; 'I' for Inactive)
    1  A    between atoms: C_4  and  O_22
    2  A    between atoms: C_6  and  C_19
    3  A    between atoms: C_7  and  C_33
    4  A    between atoms: C_10  and  O_22
    5  A    between atoms: C_16  and  C_30
    6  A    between atoms: C_18  and  C_19
    7  A    between atoms: C_20  and  C_24
    8  A    between atoms: C_30  and  N_32
    9  A    between atoms: C_33  and  C_34
                            x       y       z     vdW  Elec       q    Type
                         _______ _______ _______ _____ _____    ______ ____

>  <TORSDO>
F 9

$$$$
=
 OpenBabel11052415353D

 37 39  0  0  1  0  0  0  0  0999 V2000
  185.0920  178.2900  137.2480 C   0  0  0  0  0  2  0  0  0  0  0  0
  185.9100  177.0950  137.7280 C   0  0  1  0  0  3  0  0  0  0  0  0
  181.7570  174.6150  137.0380 C   0  0  1  0  0  3  0  0  0  0  0  0
  181.1880  174.3600  138.4330 C   0  0  0  0  0  2  0  0  0  0  0  0
  181.2610  177.8660  139.8120 C   0  0  2  0  0  3  0  0  0  0  0  0
  184.2530  174.4790  137.2430 C   0  0  0  0  0  2  0  0  0  0  0  0
  187.0340  175.1210  136.9340 O   0  0  0  0  0  1  0  0  0  0  0  0
  181.9580  178.2270  137.4540 C   0  0  0  0  0  1  0  0  0  0  0  0
  181.5720  176.3690  139.8140 C   0  0  0  0  0  2  0  0  0  0  0  0
  186.0950  176.0960  136.5890 C   0  0  1  0  0  3  0  0  0  0  0  0
  182.1840  178.7050  138.8960 C   0  0  2  0  0  0  0  0  0  0  0  0
  187.1540  177.5390  138.1780 O   0  0  0  0  0  1  0  0  0  0  0  0
  184.7770  175.4370  136.1820 C   0  0  0  0  0  2  0  0  0  0  0  0
  183.6500  178.4710  139.2980 C   0  0  0  0  0  2  0  0  0  0  0  0
  180.5550  175.6260  138.9750 C   0  0  0  0  0  2  0  0  0  0  0  0
  183.0060  173.7850  136.7160 C   0  0  1  0  0  3  0  0  0  0  0  0
  184.6730  179.1770  138.4120 C   0  0  0  0  0  2  0  0  0  0  0  0
  180.4590  180.4380  138.9680 O   0  0  0  0  0  0  0  0  0  0  0  0
  181.2800  180.8860  137.9140 C   0  0  2  0  0  3  0  0  0  0  0  0
  181.8400  180.2020  139.1070 C   0  0  2  0  0  3  0  0  0  0  0  0
  181.4860  182.3790  138.0450 C   0  0  0  0  0  2  0  0  0  0  0  0
  181.0380  183.3410  135.4110 O   0  0  0  0  0  0  0  0  0  0  0  0
  180.1260  183.5200  136.2600 C   0  0  0  0  0  0  0  0  0  0  0  0
  178.9310  184.1900  135.8800 N   0  0  0  0  0  1  0  0  0  0  0  0
  180.2870  183.0710  137.6060 N   0  0  0  0  0  2  0  0  0  0  0  0
  180.8910  174.8830  134.8510 O   0  0  0  0  0  0  0  0  0  0  0  0
  180.7060  174.4510  135.9790 C   0  0  0  0  0  0  0  0  0  0  0  0
  179.1540  172.8160  135.3000 O   0  0  0  0  0  0  0  0  0  0  0  0
  179.4400  173.7240  136.2970 C   0  0  0  0  0  3  0  0  0  0  0  0
  179.6990  172.3790  136.4450 O   0  0  0  0  0  0  0  0  0  0  0  0
  181.1280  178.3940  141.1370 O   0  0  0  0  0  0  0  0  0  0  0  0
  180.0720  178.1170  142.0160 C   0  0  0  0  0  0  0  0  0  0  0  0
  178.9500  177.7310  141.5960 O   0  0  0  0  0  0  0  0  0  0  0  0
  180.2760  178.3080  143.4760 C   0  0  0  0  0  1  0  0  0  0  0  0
  182.9170  172.3460  137.2130 C   0  0  0  0  0  2  0  0  0  0  0  0
  183.3120  171.3940  136.1350 C   0  0  0  0  0  3  0  0  0  0  0  0
  182.4690  170.9490  135.3760 O   0  0  0  0  0  0  0  0  0  0  0  0
  1  2  1  0  0  0  0
  1 17  1  0  0  0  0
  2 12  1  6  0  0  0
  3 27  1  6  0  0  0
  3  4  1  0  0  0  0
  4 15  1  0  0  0  0
  5  9  1  0  0  0  0
  5 31  1  1  0  0  0
 10  7  1  1  0  0  0
 10  2  1  0  0  0  0
 11  8  1  6  0  0  0
 11 20  1  0  0  0  0
 11 14  1  0  0  0  0
 11  5  1  0  0  0  0
 13 10  1  0  0  0  0
 13  6  1  0  0  0  0
 15  9  1  0  0  0  0
 16  3  1  0  0  0  0
 16 35  1  1  0  0  0
 16  6  1  0  0  0  0
 17 14  1  0  0  0  0
 19 21  1  1  0  0  0
 19 18  1  0  0  0  0
 19 20  1  0  0  0  0
 20 18  1  1  0  0  0
 22 23  2  0  0  0  0
 23 25  1  0  0  0  0
 24 23  1  0  0  0  0
 25 21  1  0  0  0  0
 26 27  2  0  0  0  0
 27 29  1  0  0  0  0
 28 29  1  0  0  0  0
 28 30  1  0  0  0  0
 29 30  1  0  0  0  0
 31 32  1  0  0  0  0
 32 34  1  0  0  0  0
 33 32  2  0  0  0  0
 36 35  1  0  0  0  0
 37 36  2  0  0  0  0
M  END
>  <MODEL>
6

>  <REMARK>
 VINA RESULT:      -3.7      3.287      6.337
  Name = 
  9 active torsions:
  status: ('A' for Active; 'I' for Inactive)
    1  A    between atoms: C_4  and  O_22
    2  A    between atoms: C_6  and  C_19
    3  A    between atoms: C_7  and  C_33
    4  A    between atoms: C_10  and  O_22
    5  A    between atoms: C_16  and  C_30
    6  A    between atoms: C_18  and  C_19
    7  A    between atoms: C_20  and  C_24
    8  A    between atoms: C_30  and  N_32
    9  A    between atoms: C_33  and  C_34
                            x       y       z     vdW  Elec       q    Type
                         _______ _______ _______ _____ _____    ______ ____

>  <TORSDO>
F 9

$$$$
=
 OpenBabel11052415353D

 37 39  0  0  1  0  0  0  0  0999 V2000
  183.5830  174.3790  137.0840 C   0  0  0  0  0  2  0  0  0  0  0  0
  184.4090  174.8580  135.8960 C   0  0  1  0  0  3  0  0  0  0  0  0
  185.7460  178.4590  138.9150 C   0  0  1  0  0  3  0  0  0  0  0  0
  184.9780  179.6970  138.4510 C   0  0  0  0  0  2  0  0  0  0  0  0
  181.4810  178.2980  138.3730 C   0  0  2  0  0  3  0  0  0  0  0  0
  186.3180  177.1530  136.8520 C   0  0  0  0  0  2  0  0  0  0  0  0
  186.6640  174.9380  135.0580 O   0  0  0  0  0  1  0  0  0  0  0  0
  182.7680  176.4070  139.3430 C   0  0  0  0  0  1  0  0  0  0  0  0
  182.7040  179.0060  137.7890 C   0  0  0  0  0  2  0  0  0  0  0  0
  185.8980  174.7350  136.2090 C   0  0  1  0  0  3  0  0  0  0  0  0
  181.5980  176.7560  138.4120 C   0  0  2  0  0  0  0  0  0  0  0  0
  184.0940  174.0870  134.7750 O   0  0  0  0  0  1  0  0  0  0  0  0
  186.3350  175.7010  137.3100 C   0  0  0  0  0  2  0  0  0  0  0  0
  181.8840  176.2300  136.9950 C   0  0  0  0  0  2  0  0  0  0  0  0
  183.5340  179.6110  138.9010 C   0  0  0  0  0  2  0  0  0  0  0  0
  186.8700  178.0330  137.9630 C   0  0  1  0  0  3  0  0  0  0  0  0
  182.1100  174.7230  136.9090 C   0  0  0  0  0  2  0  0  0  0  0  0
  180.0940  176.3050  140.2870 O   0  0  0  0  0  0  0  0  0  0  0  0
  180.3460  175.0080  139.7960 C   0  0  2  0  0  3  0  0  0  0  0  0
  180.2400  176.1810  138.8930 C   0  0  2  0  0  3  0  0  0  0  0  0
  179.0500  174.2280  139.7650 C   0  0  0  0  0  2  0  0  0  0  0  0
  178.9310  173.7460  136.9680 O   0  0  0  0  0  0  0  0  0  0  0  0
  179.2090  172.7730  137.7170 C   0  0  0  0  0  0  0  0  0  0  0  0
  179.4450  171.4920  137.1480 N   0  0  0  0  0  1  0  0  0  0  0  0
  179.2770  172.9400  139.1330 N   0  0  0  0  0  2  0  0  0  0  0  0
  185.6350  179.2990  141.1250 O   0  0  0  0  0  0  0  0  0  0  0  0
  186.2530  178.6220  140.3180 C   0  0  0  0  0  0  0  0  0  0  0  0
  188.4730  178.8500  141.0680 O   0  0  0  0  0  0  0  0  0  0  0  0
  187.5050  177.9240  140.7400 C   0  0  0  0  0  3  0  0  0  0  0  0
  187.7950  178.2370  142.0500 O   0  0  0  0  0  0  0  0  0  0  0  0
  180.2560  178.7700  137.7990 O   0  0  0  0  0  0  0  0  0  0  0  0
  180.1200  179.9280  137.0220 C   0  0  0  0  0  0  0  0  0  0  0  0
  179.7660  181.0250  137.5310 O   0  0  0  0  0  0  0  0  0  0  0  0
  180.3750  179.8540  135.5600 C   0  0  0  0  0  1  0  0  0  0  0  0
  187.6600  179.2110  137.4000 C   0  0  0  0  0  2  0  0  0  0  0  0
  189.0710  178.8110  137.1270 C   0  0  0  0  0  3  0  0  0  0  0  0
  189.7410  178.3000  138.0080 O   0  0  0  0  0  0  0  0  0  0  0  0
  2 12  1  6  0  0  0
  2 10  1  0  0  0  0
  2  1  1  0  0  0  0
  3 27  1  1  0  0  0
  4 15  1  0  0  0  0
  4  3  1  0  0  0  0
  5 31  1  6  0  0  0
  5 11  1  0  0  0  0
  6 13  1  0  0  0  0
  6 16  1  0  0  0  0
  9  5  1  0  0  0  0
  9 15  1  0  0  0  0
 10  7  1  6  0  0  0
 10 13  1  0  0  0  0
 11 20  1  0  0  0  0
 11  8  1  1  0  0  0
 14 11  1  0  0  0  0
 16 35  1  6  0  0  0
 16  3  1  0  0  0  0
 17 14  1  0  0  0  0
 17  1  1  0  0  0  0
 19 21  1  6  0  0  0
 19 18  1  0  0  0  0
 20 19  1  0  0  0  0
 20 18  1  1  0  0  0
 22 23  2  0  0  0  0
 23 25  1  0  0  0  0
 24 23  1  0  0  0  0
 25 21  1  0  0  0  0
 27 29  1  0  0  0  0
 27 26  2  0  0  0  0
 28 30  1  0  0  0  0
 29 28  1  0  0  0  0
 29 30  1  0  0  0  0
 32 33  2  0  0  0  0
 32 31  1  0  0  0  0
 34 32  1  0  0  0  0
 36 35  1  0  0  0  0
 36 37  2  0  0  0  0
M  END
>  <MODEL>
7

>  <REMARK>
 VINA RESULT:      -3.2      3.145      7.897
  Name = 
  9 active torsions:
  status: ('A' for Active; 'I' for Inactive)
    1  A    between atoms: C_4  and  O_22
    2  A    between atoms: C_6  and  C_19
    3  A    between atoms: C_7  and  C_33
    4  A    between atoms: C_10  and  O_22
    5  A    between atoms: C_16  and  C_30
    6  A    between atoms: C_18  and  C_19
    7  A    between atoms: C_20  and  C_24
    8  A    between atoms: C_30  and  N_32
    9  A    between atoms: C_33  and  C_34
                            x       y       z     vdW  Elec       q    Type
                         _______ _______ _______ _____ _____    ______ ____

>  <TORSDO>
F 9

$$$$
=
 OpenBabel11052415353D

 37 39  0  0  1  0  0  0  0  0999 V2000
  186.1070  177.8610  139.0620 C   0  0  0  0  0  2  0  0  0  0  0  0
  185.0180  178.5070  138.2130 C   0  0  1  0  0  3  0  0  0  0  0  0
  184.9210  174.1830  135.9410 C   0  0  1  0  0  3  0  0  0  0  0  0
  185.6270  174.4010  134.6020 C   0  0  0  0  0  2  0  0  0  0  0  0
  188.8200  175.9970  135.8060 C   0  0  2  0  0  3  0  0  0  0  0  0
  183.6700  176.2970  136.4460 C   0  0  0  0  0  2  0  0  0  0  0  0
  182.6330  178.5500  137.8930 O   0  0  0  0  0  1  0  0  0  0  0  0
  187.7080  175.3980  137.9460 C   0  0  0  0  0  1  0  0  0  0  0  0
  187.5460  175.9080  134.9650 C   0  0  0  0  0  2  0  0  0  0  0  0
  183.6770  177.8240  138.4710 C   0  0  1  0  0  3  0  0  0  0  0  0
  188.5870  176.4570  137.2650 C   0  0  2  0  0  0  0  0  0  0  0  0
  184.9300  179.8640  138.5310 O   0  0  0  0  0  1  0  0  0  0  0  0
  183.6610  176.3820  137.9660 C   0  0  0  0  0  2  0  0  0  0  0  0
  187.8610  177.8130  137.2620 C   0  0  0  0  0  2  0  0  0  0  0  0
  187.1270  174.4620  134.8110 C   0  0  0  0  0  2  0  0  0  0  0  0
  183.5390  174.8410  136.0280 C   0  0  1  0  0  3  0  0  0  0  0  0
  187.4910  178.3400  138.6470 C   0  0  0  0  0  2  0  0  0  0  0  0
  190.4430  175.4170  138.4720 O   0  0  0  0  0  0  0  0  0  0  0  0
  189.9860  176.3710  139.4030 C   0  0  2  0  0  3  0  0  0  0  0  0
  189.9710  176.6330  137.9420 C   0  0  2  0  0  3  0  0  0  0  0  0
  191.1770  177.0650  140.0280 C   0  0  0  0  0  2  0  0  0  0  0  0
  190.3650  175.7470  142.4090 O   0  0  0  0  0  0  0  0  0  0  0  0
  190.3720  177.0060  142.4120 C   0  0  0  0  0  0  0  0  0  0  0  0
  189.9750  177.7090  143.5820 N   0  0  0  0  0  1  0  0  0  0  0  0
  190.7600  177.7350  141.2470 N   0  0  0  0  0  2  0  0  0  0  0  0
  184.8690  172.3720  137.4640 O   0  0  0  0  0  0  0  0  0  0  0  0
  184.8550  172.7260  136.2950 C   0  0  0  0  0  0  0  0  0  0  0  0
  184.5960  170.4480  135.7620 O   0  0  0  0  0  0  0  0  0  0  0  0
  184.7360  171.7040  135.2120 C   0  0  0  0  0  3  0  0  0  0  0  0
  183.5100  171.0800  135.2930 O   0  0  0  0  0  0  0  0  0  0  0  0
  189.8640  176.7140  135.1350 O   0  0  0  0  0  0  0  0  0  0  0  0
  191.1190  176.1880  134.7990 C   0  0  0  0  0  0  0  0  0  0  0  0
  192.1250  176.9300  134.6450 O   0  0  0  0  0  0  0  0  0  0  0  0
  191.2600  174.7230  134.5960 C   0  0  0  0  0  1  0  0  0  0  0  0
  182.7250  174.7010  134.7450 C   0  0  0  0  0  2  0  0  0  0  0  0
  181.5500  173.8080  134.9660 C   0  0  0  0  0  3  0  0  0  0  0  0
  181.3360  173.3450  136.0730 O   0  0  0  0  0  0  0  0  0  0  0  0
  2 10  1  0  0  0  0
  2 12  1  1  0  0  0
  2  1  1  0  0  0  0
  3 16  1  0  0  0  0
  3 27  1  6  0  0  0
  4 15  1  0  0  0  0
  4  3  1  0  0  0  0
  5 31  1  6  0  0  0
  5 11  1  0  0  0  0
  6 13  1  0  0  0  0
  9  5  1  0  0  0  0
 10  7  1  6  0  0  0
 11 20  1  0  0  0  0
 11  8  1  1  0  0  0
 13 10  1  0  0  0  0
 14 11  1  0  0  0  0
 14 17  1  0  0  0  0
 15  9  1  0  0  0  0
 16 35  1  6  0  0  0
 16  6  1  0  0  0  0
 17  1  1  0  0  0  0
 18 19  1  0  0  0  0
 19 21  1  1  0  0  0
 20 18  1  6  0  0  0
 20 19  1  0  0  0  0
 21 25  1  0  0  0  0
 22 23  2  0  0  0  0
 23 24  1  0  0  0  0
 25 23  1  0  0  0  0
 27 26  2  0  0  0  0
 29 30  1  0  0  0  0
 29 28  1  0  0  0  0
 29 27  1  0  0  0  0
 30 28  1  0  0  0  0
 32 31  1  0  0  0  0
 33 32  2  0  0  0  0
 34 32  1  0  0  0  0
 35 36  1  0  0  0  0
 36 37  2  0  0  0  0
M  END
>  <MODEL>
8

>  <REMARK>
 VINA RESULT:      -3.2      3.432      5.201
  Name = 
  9 active torsions:
  status: ('A' for Active; 'I' for Inactive)
    1  A    between atoms: C_4  and  O_22
    2  A    between atoms: C_6  and  C_19
    3  A    between atoms: C_7  and  C_33
    4  A    between atoms: C_10  and  O_22
    5  A    between atoms: C_16  and  C_30
    6  A    between atoms: C_18  and  C_19
    7  A    between atoms: C_20  and  C_24
    8  A    between atoms: C_30  and  N_32
    9  A    between atoms: C_33  and  C_34
                            x       y       z     vdW  Elec       q    Type
                         _______ _______ _______ _____ _____    ______ ____

>  <TORSDO>
F 9

$$$$
=
 OpenBabel11052415353D

 37 39  0  0  1  0  0  0  0  0999 V2000
  184.0080  177.8940  138.8560 C   0  0  0  0  0  2  0  0  0  0  0  0
  182.7990  178.2310  137.9910 C   0  0  1  0  0  3  0  0  0  0  0  0
  183.5680  173.8050  136.0700 C   0  0  1  0  0  3  0  0  0  0  0  0
  184.1970  174.0500  134.6990 C   0  0  0  0  0  2  0  0  0  0  0  0
  187.0070  176.3600  135.6810 C   0  0  2  0  0  3  0  0  0  0  0  0
  181.9140  175.6530  136.4430 C   0  0  0  0  0  2  0  0  0  0  0  0
  180.4530  177.7590  137.7360 O   0  0  0  0  0  1  0  0  0  0  0  0
  186.0680  175.7260  137.8920 C   0  0  0  0  0  1  0  0  0  0  0  0
  185.7690  175.9420  134.8860 C   0  0  0  0  0  2  0  0  0  0  0  0
  181.6310  177.3130  138.3400 C   0  0  1  0  0  3  0  0  0  0  0  0
  186.7020  176.8820  137.1050 C   0  0  2  0  0  0  0  0  0  0  0  0
  182.4370  179.5630  138.2030 O   0  0  0  0  0  1  0  0  0  0  0  0
  181.9050  175.8600  137.9510 C   0  0  0  0  0  2  0  0  0  0  0  0
  185.7120  178.0560  137.0160 C   0  0  0  0  0  2  0  0  0  0  0  0
  185.6550  174.4340  134.8580 C   0  0  0  0  0  2  0  0  0  0  0  0
  182.0810  174.1710  136.1450 C   0  0  1  0  0  3  0  0  0  0  0  0
  185.2580  178.6090  138.3650 C   0  0  0  0  0  2  0  0  0  0  0  0
  188.8370  176.3250  138.1600 O   0  0  0  0  0  0  0  0  0  0  0  0
  188.2010  177.0790  139.1670 C   0  0  2  0  0  3  0  0  0  0  0  0
  188.0280  177.3920  137.7260 C   0  0  2  0  0  3  0  0  0  0  0  0
  189.2010  178.0380  139.7750 C   0  0  0  0  0  2  0  0  0  0  0  0
  190.4230  176.2410  141.6020 O   0  0  0  0  0  0  0  0  0  0  0  0
  189.6770  177.1370  142.0760 C   0  0  0  0  0  0  0  0  0  0  0  0
  189.4730  177.2130  143.4810 N   0  0  0  0  0  1  0  0  0  0  0  0
  189.0230  178.0700  141.2160 N   0  0  0  0  0  2  0  0  0  0  0  0
  184.5180  172.1840  137.5100 O   0  0  0  0  0  0  0  0  0  0  0  0
  183.8070  172.3990  136.5400 C   0  0  0  0  0  0  0  0  0  0  0  0
  183.9860  170.7460  134.8740 O   0  0  0  0  0  0  0  0  0  0  0  0
  183.1440  171.2600  135.8380 C   0  0  0  0  0  3  0  0  0  0  0  0
  183.8630  170.1030  136.0440 O   0  0  0  0  0  0  0  0  0  0  0  0
  187.8730  177.2160  134.9260 O   0  0  0  0  0  0  0  0  0  0  0  0
  189.2440  177.0040  134.7220 C   0  0  0  0  0  0  0  0  0  0  0  0
  190.0500  177.9660  134.6150 O   0  0  0  0  0  0  0  0  0  0  0  0
  189.7520  175.6130  134.6050 C   0  0  0  0  0  1  0  0  0  0  0  0
  181.2980  173.7610  134.9010 C   0  0  0  0  0  2  0  0  0  0  0  0
  179.9680  173.2030  135.2810 C   0  0  0  0  0  3  0  0  0  0  0  0
  179.5360  173.3690  136.4090 O   0  0  0  0  0  0  0  0  0  0  0  0
  2 12  1  1  0  0  0
  2 10  1  0  0  0  0
  2  1  1  0  0  0  0
  3 16  1  0  0  0  0
  3 27  1  6  0  0  0
  4 15  1  0  0  0  0
  4  3  1  0  0  0  0
  5 31  1  6  0  0  0
  5 11  1  0  0  0  0
  6 13  1  0  0  0  0
  9  5  1  0  0  0  0
 10  7  1  6  0  0  0
 11 20  1  0  0  0  0
 11  8  1  1  0  0  0
 13 10  1  0  0  0  0
 14 11  1  0  0  0  0
 14 17  1  0  0  0  0
 15  9  1  0  0  0  0
 16 35  1  6  0  0  0
 16  6  1  0  0  0  0
 17  1  1  0  0  0  0
 18 19  1  0  0  0  0
 19 21  1  1  0  0  0
 20 18  1  6  0  0  0
 20 19  1  0  0  0  0
 21 25  1  0  0  0  0
 22 23  2  0  0  0  0
 23 24  1  0  0  0  0
 25 23  1  0  0  0  0
 27 26  2  0  0  0  0
 28 29  1  0  0  0  0
 28 30  1  0  0  0  0
 29 30  1  0  0  0  0
 29 27  1  0  0  0  0
 32 31  1  0  0  0  0
 33 32  2  0  0  0  0
 34 32  1  0  0  0  0
 35 36  1  0  0  0  0
 36 37  2  0  0  0  0
M  END
>  <MODEL>
9

>  <REMARK>
 VINA RESULT:      -3.2      3.025      4.175
  Name = 
  9 active torsions:
  status: ('A' for Active; 'I' for Inactive)
    1  A    between atoms: C_4  and  O_22
    2  A    between atoms: C_6  and  C_19
    3  A    between atoms: C_7  and  C_33
    4  A    between atoms: C_10  and  O_22
    5  A    between atoms: C_16  and  C_30
    6  A    between atoms: C_18  and  C_19
    7  A    between atoms: C_20  and  C_24
    8  A    between atoms: C_30  and  N_32
    9  A    between atoms: C_33  and  C_34
                            x       y       z     vdW  Elec       q    Type
                         _______ _______ _______ _____ _____    ______ ____

>  <TORSDO>
F 9

$$$$
