=
 OpenBabel11052412553D

 31 34  0  0  1  0  0  0  0  0999 V2000
  189.4180  177.3120  140.7940 C   0  0  0  0  0  0  0  0  0  0  0  0
  187.5710  177.8150  144.1060 C   0  0  2  0  0  3  0  0  0  0  0  0
  188.6470  178.1990  145.1450 C   0  0  2  0  0  3  0  0  0  0  0  0
  190.7240  176.7800  144.8420 C   0  0  0  0  0  2  0  0  0  0  0  0
  187.9380  177.9240  142.6310 C   0  0  0  0  0  0  0  0  0  0  0  0
  188.5290  177.8720  139.8770 C   0  0  0  0  0  3  0  0  0  0  0  0
  190.1350  178.1820  144.7640 C   0  0  0  0  0  2  0  0  0  0  0  0
  185.2160  178.4970  143.4390 C   0  0  1  0  0  3  0  0  0  0  0  0
  190.6850  176.6960  140.3230 C   0  0  0  0  0  1  0  0  0  0  0  0
  186.7650  177.5080  146.7370 C   0  0  0  0  0  2  0  0  0  0  0  0
  191.3440  176.5010  146.2110 C   0  0  0  0  0  2  0  0  0  0  0  0
  185.6990  179.0260  142.0930 C   0  0  0  0  0  2  0  0  0  0  0  0
  186.3350  178.6570  144.4730 C   0  0  1  0  0  3  0  0  0  0  0  0
  189.1130  177.3240  142.1560 C   0  0  0  0  0  3  0  0  0  0  0  0
  190.4820  176.9580  147.3880 C   0  0  0  0  0  2  0  0  0  0  0  0
  187.0120  178.4310  141.6840 C   0  0  0  0  0  0  0  0  0  0  0  0
  187.3290  178.4260  140.3220 C   0  0  0  0  0  3  0  0  0  0  0  0
  185.8670  178.4470  145.9270 C   0  0  0  0  0  2  0  0  0  0  0  0
  188.2600  177.8260  146.6050 C   0  0  1  0  0  3  0  0  0  0  0  0
  189.0160  176.6260  147.1700 C   0  0  0  0  0  2  0  0  0  0  0  0
  183.9070  179.1850  143.8450 C   0  0  0  0  0  2  0  0  0  0  0  0
  181.6870  178.4070  144.3480 O   0  0  0  0  0  1  0  0  0  0  0  0
  182.6540  178.4600  143.3430 C   0  0  1  0  0  3  0  0  0  0  0  0
  180.6790  179.6570  142.3540 C   0  0  0  0  0  1  0  0  0  0  0  0
  182.0700  179.1040  142.0820 C   0  0  2  0  0  3  0  0  0  0  0  0
  181.2270  177.4210  140.6510 O   0  0  0  0  0  0  0  0  0  0  0  0
  182.1330  178.2120  140.8610 C   0  0  0  0  0  0  0  0  0  0  0  0
  183.2820  178.2640  139.8950 C   0  0  0  0  0  2  0  0  0  0  0  0
  183.3110  179.5710  139.1790 C   0  0  0  0  0  0  0  0  0  0  0  0
  184.3910  180.2080  139.0710 O   0  0  0  0  0  0  0  0  0  0  0  0
  182.1210  180.0880  138.5980 N   0  0  0  0  0  1  0  0  0  0  0  0
  1 14  1  0  0  0  0
  2  5  1  6  0  0  0
  2 13  1  0  0  0  0
  2  3  1  0  0  0  0
  3  7  1  6  0  0  0
  3 19  1  0  0  0  0
  4 11  1  0  0  0  0
  6 17  1  0  0  0  0
  6  1  2  0  0  0  0
  7  4  1  0  0  0  0
  8 21  1  1  0  0  0
  8 13  1  0  0  0  0
  9  1  1  0  0  0  0
 11 15  1  0  0  0  0
 12  8  1  0  0  0  0
 13 18  1  1  0  0  0
 14  5  2  0  0  0  0
 16 12  1  0  0  0  0
 16  5  1  0  0  0  0
 17 16  2  0  0  0  0
 18 10  1  0  0  0  0
 19 10  1  6  0  0  0
 19 20  1  0  0  0  0
 20 15  1  0  0  0  0
 23 21  1  0  0  0  0
 23 22  1  1  0  0  0
 25 24  1  1  0  0  0
 25 23  1  0  0  0  0
 26 27  2  0  0  0  0
 27 25  1  0  0  0  0
 28 27  1  0  0  0  0
 29 28  1  0  0  0  0
 30 29  2  0  0  0  0
 31 29  1  0  0  0  0
M  END
>  <MODEL>
1

>  <REMARK>
 VINA RESULT:      -9.5      0.000      0.000
  Name = 
  6 active torsions:
  status: ('A' for Active; 'I' for Inactive)
    1  A    between atoms: C_1  and  C_24
    2  A    between atoms: C_9  and  C_22
    3  A    between atoms: C_9  and  C_23
    4  A    between atoms: C_15  and  C_23
    5  A    between atoms: C_19  and  C_22
    6  A    between atoms: C_19  and  C_24
                            x       y       z     vdW  Elec       q    Type
                         _______ _______ _______ _____ _____    ______ ____

>  <TORSDO>
F 6

$$$$
=
 OpenBabel11052412553D

 31 34  0  0  1  0  0  0  0  0999 V2000
  184.0700  178.8570  143.3050 C   0  0  0  0  0  0  0  0  0  0  0  0
  187.8060  178.0960  142.9850 C   0  0  2  0  0  3  0  0  0  0  0  0
  188.1380  177.0930  144.1120 C   0  0  2  0  0  3  0  0  0  0  0  0
  186.9690  177.7460  146.2610 C   0  0  0  0  0  2  0  0  0  0  0  0
  186.3400  178.2900  142.6190 C   0  0  0  0  0  0  0  0  0  0  0  0
  183.6700  178.9150  141.9710 C   0  0  0  0  0  3  0  0  0  0  0  0
  187.0740  176.7100  145.1510 C   0  0  0  0  0  2  0  0  0  0  0  0
  188.3370  178.4720  140.5300 C   0  0  1  0  0  3  0  0  0  0  0  0
  183.0880  179.1120  144.3900 C   0  0  0  0  0  1  0  0  0  0  0  0
  190.5060  177.9010  143.5670 C   0  0  0  0  0  2  0  0  0  0  0  0
  187.8700  177.3990  147.4470 C   0  0  0  0  0  2  0  0  0  0  0  0
  186.8890  178.2140  140.1270 C   0  0  0  0  0  2  0  0  0  0  0  0
  188.6630  177.6560  141.7840 C   0  0  1  0  0  3  0  0  0  0  0  0
  185.3980  178.5650  143.6220 C   0  0  0  0  0  3  0  0  0  0  0  0
  189.2750  176.9490  147.0490 C   0  0  0  0  0  2  0  0  0  0  0  0
  185.9360  178.4170  141.2660 C   0  0  0  0  0  0  0  0  0  0  0  0
  184.6010  178.7000  140.9560 C   0  0  0  0  0  3  0  0  0  0  0  0
  190.1700  177.5920  142.1050 C   0  0  0  0  0  2  0  0  0  0  0  0
  189.6240  177.1460  144.5700 C   0  0  1  0  0  3  0  0  0  0  0  0
  189.8410  177.8060  145.9290 C   0  0  0  0  0  2  0  0  0  0  0  0
  189.2780  178.1840  139.3530 C   0  0  0  0  0  2  0  0  0  0  0  0
  188.9050  179.6860  137.5120 O   0  0  0  0  0  1  0  0  0  0  0  0
  188.6270  178.4020  137.9830 C   0  0  1  0  0  3  0  0  0  0  0  0
  188.8420  177.8670  135.5370 C   0  0  0  0  0  1  0  0  0  0  0  0
  189.0630  177.3550  136.9540 C   0  0  2  0  0  3  0  0  0  0  0  0
  187.2930  175.8880  137.5020 O   0  0  0  0  0  0  0  0  0  0  0  0
  188.4710  175.9840  137.1960 C   0  0  0  0  0  0  0  0  0  0  0  0
  189.2900  174.7310  137.0770 C   0  0  0  0  0  2  0  0  0  0  0  0
  190.7200  175.0020  137.3980 C   0  0  0  0  0  0  0  0  0  0  0  0
  191.0750  175.1960  138.5890 O   0  0  0  0  0  0  0  0  0  0  0  0
  191.6890  175.0190  136.3570 N   0  0  0  0  0  1  0  0  0  0  0  0
  1 14  1  0  0  0  0
  1  9  1  0  0  0  0
  2  5  1  6  0  0  0
  2  3  1  0  0  0  0
  3 19  1  0  0  0  0
  3  7  1  1  0  0  0
  4 11  1  0  0  0  0
  5 14  2  0  0  0  0
  6  1  2  0  0  0  0
  7  4  1  0  0  0  0
  8 21  1  6  0  0  0
  8 13  1  0  0  0  0
 12  8  1  0  0  0  0
 12 16  1  0  0  0  0
 13 18  1  1  0  0  0
 13  2  1  0  0  0  0
 15 11  1  0  0  0  0
 16  5  1  0  0  0  0
 17 16  2  0  0  0  0
 17  6  1  0  0  0  0
 18 10  1  0  0  0  0
 19 10  1  6  0  0  0
 19 20  1  0  0  0  0
 20 15  1  0  0  0  0
 23 22  1  6  0  0  0
 23 21  1  0  0  0  0
 25 24  1  6  0  0  0
 25 27  1  0  0  0  0
 25 23  1  0  0  0  0
 27 26  2  0  0  0  0
 28 27  1  0  0  0  0
 28 29  1  0  0  0  0
 29 30  2  0  0  0  0
 31 29  1  0  0  0  0
M  END
>  <MODEL>
2

>  <REMARK>
 VINA RESULT:      -9.3      3.301      6.157
  Name = 
  6 active torsions:
  status: ('A' for Active; 'I' for Inactive)
    1  A    between atoms: C_1  and  C_24
    2  A    between atoms: C_9  and  C_22
    3  A    between atoms: C_9  and  C_23
    4  A    between atoms: C_15  and  C_23
    5  A    between atoms: C_19  and  C_22
    6  A    between atoms: C_19  and  C_24
                            x       y       z     vdW  Elec       q    Type
                         _______ _______ _______ _____ _____    ______ ____

>  <TORSDO>
F 6

$$$$
=
 OpenBabel11052412553D

 31 34  0  0  1  0  0  0  0  0999 V2000
  184.0220  178.7920  143.4990 C   0  0  0  0  0  0  0  0  0  0  0  0
  187.7690  178.1110  143.1310 C   0  0  2  0  0  3  0  0  0  0  0  0
  188.1320  177.0940  144.2340 C   0  0  2  0  0  3  0  0  0  0  0  0
  186.9710  177.6830  146.4070 C   0  0  0  0  0  2  0  0  0  0  0  0
  186.2960  178.2840  142.7820 C   0  0  0  0  0  0  0  0  0  0  0  0
  183.6080  178.8670  142.1710 C   0  0  0  0  0  3  0  0  0  0  0  0
  187.0860  176.6710  145.2760 C   0  0  0  0  0  2  0  0  0  0  0  0
  188.2690  178.5450  140.6780 C   0  0  1  0  0  3  0  0  0  0  0  0
  183.0460  179.0070  144.5980 C   0  0  0  0  0  1  0  0  0  0  0  0
  190.4780  177.9600  143.6830 C   0  0  0  0  0  2  0  0  0  0  0  0
  187.8900  177.3320  147.5780 C   0  0  0  0  0  2  0  0  0  0  0  0
  186.8230  178.2650  140.2840 C   0  0  0  0  0  2  0  0  0  0  0  0
  188.6240  177.7120  141.9130 C   0  0  1  0  0  3  0  0  0  0  0  0
  185.3580  178.5200  143.7980 C   0  0  0  0  0  3  0  0  0  0  0  0
  189.2990  176.9180  147.1570 C   0  0  0  0  0  2  0  0  0  0  0  0
  185.8770  178.4280  141.4350 C   0  0  0  0  0  0  0  0  0  0  0  0
  184.5340  178.6900  141.1430 C   0  0  0  0  0  3  0  0  0  0  0  0
  190.1340  177.6720  142.2190 C   0  0  0  0  0  2  0  0  0  0  0  0
  189.6210  177.1680  144.6790 C   0  0  1  0  0  3  0  0  0  0  0  0
  189.8380  177.8070  146.0490 C   0  0  0  0  0  2  0  0  0  0  0  0
  189.2040  178.2980  139.4870 C   0  0  0  0  0  2  0  0  0  0  0  0
  188.9430  179.6940  137.5460 O   0  0  0  0  0  1  0  0  0  0  0  0
  188.5260  178.4950  138.1270 C   0  0  1  0  0  3  0  0  0  0  0  0
  190.2450  176.9100  137.2080 C   0  0  0  0  0  1  0  0  0  0  0  0
  188.7820  177.3270  137.1700 C   0  0  2  0  0  3  0  0  0  0  0  0
  189.0430  177.5470  134.8310 O   0  0  0  0  0  0  0  0  0  0  0  0
  188.2610  177.5650  135.7690 C   0  0  0  0  0  0  0  0  0  0  0  0
  186.8100  177.8300  135.4940 C   0  0  0  0  0  2  0  0  0  0  0  0
  185.9540  176.7830  136.1200 C   0  0  0  0  0  0  0  0  0  0  0  0
  186.0320  175.5880  135.7330 O   0  0  0  0  0  0  0  0  0  0  0  0
  185.0620  177.1320  137.1720 N   0  0  0  0  0  1  0  0  0  0  0  0
  1 14  1  0  0  0  0
  1  9  1  0  0  0  0
  2  5  1  6  0  0  0
  2  3  1  0  0  0  0
  3 19  1  0  0  0  0
  3  7  1  1  0  0  0
  4 11  1  0  0  0  0
  5 14  2  0  0  0  0
  6  1  2  0  0  0  0
  7  4  1  0  0  0  0
  8 21  1  6  0  0  0
  8 13  1  0  0  0  0
 12  8  1  0  0  0  0
 12 16  1  0  0  0  0
 13 18  1  1  0  0  0
 13  2  1  0  0  0  0
 15 11  1  0  0  0  0
 16  5  1  0  0  0  0
 17 16  2  0  0  0  0
 17  6  1  0  0  0  0
 18 10  1  0  0  0  0
 19 10  1  6  0  0  0
 19 20  1  0  0  0  0
 20 15  1  0  0  0  0
 23 22  1  6  0  0  0
 23 21  1  0  0  0  0
 25 24  1  6  0  0  0
 25 23  1  0  0  0  0
 26 27  2  0  0  0  0
 27 25  1  0  0  0  0
 28 27  1  0  0  0  0
 28 29  1  0  0  0  0
 29 31  1  0  0  0  0
 30 29  2  0  0  0  0
M  END
>  <MODEL>
3

>  <REMARK>
 VINA RESULT:      -9.1      2.835      5.703
  Name = 
  6 active torsions:
  status: ('A' for Active; 'I' for Inactive)
    1  A    between atoms: C_1  and  C_24
    2  A    between atoms: C_9  and  C_22
    3  A    between atoms: C_9  and  C_23
    4  A    between atoms: C_15  and  C_23
    5  A    between atoms: C_19  and  C_22
    6  A    between atoms: C_19  and  C_24
                            x       y       z     vdW  Elec       q    Type
                         _______ _______ _______ _____ _____    ______ ____

>  <TORSDO>
F 6

$$$$
=
 OpenBabel11052412553D

 31 34  0  0  1  0  0  0  0  0999 V2000
  185.2580  178.5950  145.8880 C   0  0  0  0  0  0  0  0  0  0  0  0
  186.9140  178.2880  142.4520 C   0  0  2  0  0  3  0  0  0  0  0  0
  187.9650  177.1640  142.5800 C   0  0  2  0  0  3  0  0  0  0  0  0
  189.2090  177.3540  144.7790 C   0  0  0  0  0  2  0  0  0  0  0  0
  185.8410  178.3820  143.5300 C   0  0  0  0  0  0  0  0  0  0  0  0
  183.9240  178.8150  145.5490 C   0  0  0  0  0  3  0  0  0  0  0  0
  188.2490  176.5170  143.9440 C   0  0  0  0  0  2  0  0  0  0  0  0
  185.1510  179.0910  140.8080 C   0  0  1  0  0  3  0  0  0  0  0  0
  185.6720  178.5760  147.3140 C   0  0  0  0  0  1  0  0  0  0  0  0
  188.8230  178.2910  140.4470 C   0  0  0  0  0  2  0  0  0  0  0  0
  190.6620  176.9250  144.5720 C   0  0  0  0  0  2  0  0  0  0  0  0
  184.0240  178.7470  141.7750 C   0  0  0  0  0  2  0  0  0  0  0  0
  186.3220  178.1310  141.0390 C   0  0  1  0  0  3  0  0  0  0  0  0
  186.2080  178.3980  144.8840 C   0  0  0  0  0  3  0  0  0  0  0  0
  191.0370  176.6920  143.1090 C   0  0  0  0  0  2  0  0  0  0  0  0
  184.4930  178.6720  143.1970 C   0  0  0  0  0  0  0  0  0  0  0  0
  183.5450  178.8570  144.2080 C   0  0  0  0  0  3  0  0  0  0  0  0
  187.3880  178.1770  139.9270 C   0  0  0  0  0  2  0  0  0  0  0  0
  189.1440  177.3020  141.5750 C   0  0  1  0  0  3  0  0  0  0  0  0
  190.4570  177.7650  142.2040 C   0  0  0  0  0  2  0  0  0  0  0  0
  184.6350  179.0880  139.3640 C   0  0  0  0  0  2  0  0  0  0  0  0
  182.8640  180.5930  138.7470 O   0  0  0  0  0  1  0  0  0  0  0  0
  183.1240  179.3190  139.2540 C   0  0  1  0  0  3  0  0  0  0  0  0
  181.4650  178.9040  137.4140 C   0  0  0  0  0  1  0  0  0  0  0  0
  182.4300  178.2570  138.3960 C   0  0  2  0  0  3  0  0  0  0  0  0
  182.5260  176.2830  139.6940 O   0  0  0  0  0  0  0  0  0  0  0  0
  181.8060  177.1390  139.2040 C   0  0  0  0  0  0  0  0  0  0  0  0
  180.3240  177.0450  139.4200 C   0  0  0  0  0  2  0  0  0  0  0  0
  179.9820  177.2900  140.8490 C   0  0  0  0  0  0  0  0  0  0  0  0
  179.3310  176.4320  141.5000 O   0  0  0  0  0  0  0  0  0  0  0  0
  180.4110  178.4870  141.4860 N   0  0  0  0  0  1  0  0  0  0  0  0
  1  9  1  0  0  0  0
  2  3  1  0  0  0  0
  2  5  1  1  0  0  0
  3  7  1  1  0  0  0
  5 14  1  0  0  0  0
  6  1  1  0  0  0  0
  7  4  1  0  0  0  0
  8 21  1  6  0  0  0
  8 13  1  0  0  0  0
  8 12  1  0  0  0  0
 11  4  1  0  0  0  0
 12 16  1  0  0  0  0
 13 18  1  6  0  0  0
 13  2  1  0  0  0  0
 14  1  2  0  0  0  0
 15 11  1  0  0  0  0
 16  5  2  0  0  0  0
 16 17  1  0  0  0  0
 17  6  2  0  0  0  0
 18 10  1  0  0  0  0
 19 10  1  6  0  0  0
 19 20  1  0  0  0  0
 19  3  1  0  0  0  0
 20 15  1  0  0  0  0
 23 22  1  6  0  0  0
 23 21  1  0  0  0  0
 25 24  1  1  0  0  0
 25 27  1  0  0  0  0
 25 23  1  0  0  0  0
 27 28  1  0  0  0  0
 27 26  2  0  0  0  0
 28 29  1  0  0  0  0
 29 31  1  0  0  0  0
 29 30  2  0  0  0  0
M  END
>  <MODEL>
4

>  <REMARK>
 VINA RESULT:      -8.9      1.778      4.590
  Name = 
  6 active torsions:
  status: ('A' for Active; 'I' for Inactive)
    1  A    between atoms: C_1  and  C_24
    2  A    between atoms: C_9  and  C_22
    3  A    between atoms: C_9  and  C_23
    4  A    between atoms: C_15  and  C_23
    5  A    between atoms: C_19  and  C_22
    6  A    between atoms: C_19  and  C_24
                            x       y       z     vdW  Elec       q    Type
                         _______ _______ _______ _____ _____    ______ ____

>  <TORSDO>
F 6

$$$$
=
 OpenBabel11052412553D

 31 34  0  0  1  0  0  0  0  0999 V2000
  189.3840  177.3480  140.7650 C   0  0  0  0  0  0  0  0  0  0  0  0
  187.5370  177.8330  144.0800 C   0  0  2  0  0  3  0  0  0  0  0  0
  188.6090  178.2420  145.1140 C   0  0  2  0  0  3  0  0  0  0  0  0
  190.7100  176.8610  144.8130 C   0  0  0  0  0  2  0  0  0  0  0  0
  187.8980  177.9420  142.6040 C   0  0  0  0  0  0  0  0  0  0  0  0
  188.4830  177.8870  139.8490 C   0  0  0  0  0  3  0  0  0  0  0  0
  190.0960  178.2510  144.7300 C   0  0  0  0  0  2  0  0  0  0  0  0
  185.1680  178.4680  143.4170 C   0  0  1  0  0  3  0  0  0  0  0  0
  190.6610  176.7540  140.2940 C   0  0  0  0  0  1  0  0  0  0  0  0
  186.7440  177.5240  146.7150 C   0  0  0  0  0  2  0  0  0  0  0  0
  191.3400  176.5990  146.1810 C   0  0  0  0  0  2  0  0  0  0  0  0
  185.6370  178.9990  142.0670 C   0  0  0  0  0  2  0  0  0  0  0  0
  186.2860  178.6540  144.4470 C   0  0  1  0  0  3  0  0  0  0  0  0
  189.0830  177.3610  142.1280 C   0  0  0  0  0  3  0  0  0  0  0  0
  190.4730  177.0460  147.3580 C   0  0  0  0  0  2  0  0  0  0  0  0
  186.9600  178.4270  141.6570 C   0  0  0  0  0  0  0  0  0  0  0  0
  187.2740  178.4210  140.2940 C   0  0  0  0  0  3  0  0  0  0  0  0
  185.8270  178.4420  145.9030 C   0  0  0  0  0  2  0  0  0  0  0  0
  188.2320  177.8690  146.5770 C   0  0  1  0  0  3  0  0  0  0  0  0
  189.0120  176.6860  147.1460 C   0  0  0  0  0  2  0  0  0  0  0  0
  183.8470  179.1330  143.8230 C   0  0  0  0  0  2  0  0  0  0  0  0
  181.6480  178.3090  144.3430 O   0  0  0  0  0  1  0  0  0  0  0  0
  182.6070  178.3800  143.3310 C   0  0  1  0  0  3  0  0  0  0  0  0
  180.6510  179.6400  142.3820 C   0  0  0  0  0  1  0  0  0  0  0  0
  182.0000  179.0090  142.0720 C   0  0  2  0  0  3  0  0  0  0  0  0
  182.9920  177.5020  140.5450 O   0  0  0  0  0  0  0  0  0  0  0  0
  181.9670  178.0740  140.8830 C   0  0  0  0  0  0  0  0  0  0  0  0
  180.7110  177.8270  140.0990 C   0  0  0  0  0  2  0  0  0  0  0  0
  180.0580  176.5600  140.5330 C   0  0  0  0  0  0  0  0  0  0  0  0
  179.1700  176.5800  141.4260 O   0  0  0  0  0  0  0  0  0  0  0  0
  180.4220  175.3280  139.9230 N   0  0  0  0  0  1  0  0  0  0  0  0
  1 14  1  0  0  0  0
  2  5  1  6  0  0  0
  2 13  1  0  0  0  0
  2  3  1  0  0  0  0
  3  7  1  6  0  0  0
  3 19  1  0  0  0  0
  4 11  1  0  0  0  0
  6 17  1  0  0  0  0
  6  1  2  0  0  0  0
  7  4  1  0  0  0  0
  8 21  1  1  0  0  0
  8 13  1  0  0  0  0
  9  1  1  0  0  0  0
 11 15  1  0  0  0  0
 12  8  1  0  0  0  0
 13 18  1  1  0  0  0
 14  5  2  0  0  0  0
 16 12  1  0  0  0  0
 16  5  1  0  0  0  0
 17 16  2  0  0  0  0
 18 10  1  0  0  0  0
 19 10  1  6  0  0  0
 19 20  1  0  0  0  0
 20 15  1  0  0  0  0
 23 21  1  0  0  0  0
 23 22  1  1  0  0  0
 25 24  1  1  0  0  0
 25 23  1  0  0  0  0
 26 27  2  0  0  0  0
 27 25  1  0  0  0  0
 28 29  1  0  0  0  0
 28 27  1  0  0  0  0
 29 30  2  0  0  0  0
 31 29  1  0  0  0  0
M  END
>  <MODEL>
5

>  <REMARK>
 VINA RESULT:      -8.9      1.292      1.840
  Name = 
  6 active torsions:
  status: ('A' for Active; 'I' for Inactive)
    1  A    between atoms: C_1  and  C_24
    2  A    between atoms: C_9  and  C_22
    3  A    between atoms: C_9  and  C_23
    4  A    between atoms: C_15  and  C_23
    5  A    between atoms: C_19  and  C_22
    6  A    between atoms: C_19  and  C_24
                            x       y       z     vdW  Elec       q    Type
                         _______ _______ _______ _____ _____    ______ ____

>  <TORSDO>
F 6

$$$$
=
 OpenBabel11052412553D

 31 34  0  0  1  0  0  0  0  0999 V2000
  188.0660  177.5030  146.0100 C   0  0  0  0  0  0  0  0  0  0  0  0
  186.4840  178.1680  142.5900 C   0  0  2  0  0  3  0  0  0  0  0  0
  185.3050  179.1320  142.8420 C   0  0  2  0  0  3  0  0  0  0  0  0
  184.0300  178.4560  144.9240 C   0  0  0  0  0  2  0  0  0  0  0  0
  187.5300  178.0240  143.6890 C   0  0  0  0  0  0  0  0  0  0  0  0
  189.4260  177.4900  145.7030 C   0  0  0  0  0  3  0  0  0  0  0  0
  184.9080  179.5170  144.2750 C   0  0  0  0  0  2  0  0  0  0  0  0
  188.3750  177.8400  140.9250 C   0  0  1  0  0  3  0  0  0  0  0  0
  187.6130  177.2470  147.4010 C   0  0  0  0  0  1  0  0  0  0  0  0
  184.6470  178.2720  140.5220 C   0  0  0  0  0  2  0  0  0  0  0  0
  182.5440  178.7470  144.7190 C   0  0  0  0  0  2  0  0  0  0  0  0
  189.4270  178.1490  141.9860 C   0  0  0  0  0  2  0  0  0  0  0  0
  187.0940  178.6140  141.2480 C   0  0  1  0  0  3  0  0  0  0  0  0
  187.1290  177.7500  145.0060 C   0  0  0  0  0  3  0  0  0  0  0  0
  182.1850  179.1680  143.2940 C   0  0  0  0  0  2  0  0  0  0  0  0
  188.9110  177.9430  143.3780 C   0  0  0  0  0  0  0  0  0  0  0  0
  189.8460  177.7050  144.3910 C   0  0  0  0  0  3  0  0  0  0  0  0
  186.0730  178.6280  140.0930 C   0  0  0  0  0  2  0  0  0  0  0  0
  184.1790  179.0260  141.7740 C   0  0  1  0  0  3  0  0  0  0  0  0
  182.9130  178.3250  142.2610 C   0  0  0  0  0  2  0  0  0  0  0  0
  188.9280  178.1320  139.5240 C   0  0  0  0  0  2  0  0  0  0  0  0
  187.8390  176.6240  138.0000 O   0  0  0  0  0  1  0  0  0  0  0  0
  189.0500  176.8830  138.6440 C   0  0  1  0  0  3  0  0  0  0  0  0
  189.6180  177.1760  136.2140 C   0  0  0  0  0  1  0  0  0  0  0  0
  190.1800  176.9990  137.6170 C   0  0  2  0  0  3  0  0  0  0  0  0
  190.9310  174.8780  138.3430 O   0  0  0  0  0  0  0  0  0  0  0  0
  191.2060  175.8900  137.7180 C   0  0  0  0  0  0  0  0  0  0  0  0
  192.5580  175.9960  137.0740 C   0  0  0  0  0  2  0  0  0  0  0  0
  193.6220  176.1600  138.1050 C   0  0  0  0  0  0  0  0  0  0  0  0
  193.5490  177.0930  138.9460 O   0  0  0  0  0  0  0  0  0  0  0  0
  194.7110  175.2470  138.1510 N   0  0  0  0  0  1  0  0  0  0  0  0
  1  9  1  0  0  0  0
  2  3  1  0  0  0  0
  2  5  1  1  0  0  0
  3  7  1  1  0  0  0
  5 14  1  0  0  0  0
  6  1  1  0  0  0  0
  7  4  1  0  0  0  0
  8 21  1  6  0  0  0
  8 13  1  0  0  0  0
  8 12  1  0  0  0  0
 11  4  1  0  0  0  0
 12 16  1  0  0  0  0
 13 18  1  6  0  0  0
 13  2  1  0  0  0  0
 14  1  2  0  0  0  0
 15 11  1  0  0  0  0
 16  5  2  0  0  0  0
 16 17  1  0  0  0  0
 17  6  2  0  0  0  0
 18 10  1  0  0  0  0
 19 10  1  6  0  0  0
 19 20  1  0  0  0  0
 19  3  1  0  0  0  0
 20 15  1  0  0  0  0
 23 22  1  6  0  0  0
 23 21  1  0  0  0  0
 25 24  1  6  0  0  0
 25 27  1  0  0  0  0
 25 23  1  0  0  0  0
 27 26  2  0  0  0  0
 28 27  1  0  0  0  0
 28 29  1  0  0  0  0
 29 31  1  0  0  0  0
 29 30  2  0  0  0  0
M  END
>  <MODEL>
6

>  <REMARK>
 VINA RESULT:      -8.8      3.848      7.556
  Name = 
  6 active torsions:
  status: ('A' for Active; 'I' for Inactive)
    1  A    between atoms: C_1  and  C_24
    2  A    between atoms: C_9  and  C_22
    3  A    between atoms: C_9  and  C_23
    4  A    between atoms: C_15  and  C_23
    5  A    between atoms: C_19  and  C_22
    6  A    between atoms: C_19  and  C_24
                            x       y       z     vdW  Elec       q    Type
                         _______ _______ _______ _____ _____    ______ ____

>  <TORSDO>
F 6

$$$$
=
 OpenBabel11052412553D

 31 34  0  0  1  0  0  0  0  0999 V2000
  190.2370  177.4110  140.6590 C   0  0  0  0  0  0  0  0  0  0  0  0
  187.9400  177.6630  143.7090 C   0  0  2  0  0  3  0  0  0  0  0  0
  188.8260  178.1530  144.8750 C   0  0  2  0  0  3  0  0  0  0  0  0
  191.0720  176.9820  144.8420 C   0  0  0  0  0  2  0  0  0  0  0  0
  188.4760  177.8300  142.2920 C   0  0  0  0  0  0  0  0  0  0  0  0
  189.4140  177.8780  139.6360 C   0  0  0  0  0  3  0  0  0  0  0  0
  190.3430  178.3090  144.6870 C   0  0  0  0  0  2  0  0  0  0  0  0
  185.6270  178.0810  142.7460 C   0  0  1  0  0  3  0  0  0  0  0  0
  191.6150  176.9480  140.3550 C   0  0  0  0  0  1  0  0  0  0  0  0
  186.8480  177.2340  146.2170 C   0  0  0  0  0  2  0  0  0  0  0  0
  191.5410  176.7570  146.2800 C   0  0  0  0  0  2  0  0  0  0  0  0
  186.2130  178.6780  141.4710 C   0  0  0  0  0  2  0  0  0  0  0  0
  186.5800  178.3540  143.9130 C   0  0  1  0  0  3  0  0  0  0  0  0
  189.7630  177.3720  141.9720 C   0  0  0  0  0  3  0  0  0  0  0  0
  190.4910  177.1000  147.3360 C   0  0  0  0  0  2  0  0  0  0  0  0
  187.6260  178.2410  141.2340 C   0  0  0  0  0  0  0  0  0  0  0  0
  188.1120  178.2870  139.9230 C   0  0  0  0  0  3  0  0  0  0  0  0
  185.9590  178.0760  145.2970 C   0  0  0  0  0  2  0  0  0  0  0  0
  188.3020  177.7210  146.2750 C   0  0  1  0  0  3  0  0  0  0  0  0
  189.1110  176.6070  146.9340 C   0  0  0  0  0  2  0  0  0  0  0  0
  184.2070  178.6120  142.9810 C   0  0  0  0  0  2  0  0  0  0  0  0
  183.3560  177.4400  141.0610 O   0  0  0  0  0  1  0  0  0  0  0  0
  183.3610  178.6780  141.7050 C   0  0  1  0  0  3  0  0  0  0  0  0
  181.5750  178.9680  143.4480 C   0  0  0  0  0  1  0  0  0  0  0  0
  181.9250  179.1380  141.9770 C   0  0  2  0  0  3  0  0  0  0  0  0
  180.4340  177.4300  141.3080 O   0  0  0  0  0  0  0  0  0  0  0  0
  180.9050  178.5250  141.0420 C   0  0  0  0  0  0  0  0  0  0  0  0
  180.4540  179.2200  139.7900 C   0  0  0  0  0  2  0  0  0  0  0  0
  180.3410  180.6890  140.0130 C   0  0  0  0  0  0  0  0  0  0  0  0
  179.7280  181.1300  141.0190 O   0  0  0  0  0  0  0  0  0  0  0  0
  180.9450  181.5940  139.0970 N   0  0  0  0  0  1  0  0  0  0  0  0
  1 14  1  0  0  0  0
  2  5  1  6  0  0  0
  2 13  1  0  0  0  0
  2  3  1  0  0  0  0
  3  7  1  6  0  0  0
  3 19  1  0  0  0  0
  4 11  1  0  0  0  0
  6 17  1  0  0  0  0
  6  1  2  0  0  0  0
  7  4  1  0  0  0  0
  8 21  1  1  0  0  0
  8 13  1  0  0  0  0
  9  1  1  0  0  0  0
 11 15  1  0  0  0  0
 12  8  1  0  0  0  0
 13 18  1  1  0  0  0
 14  5  2  0  0  0  0
 16 12  1  0  0  0  0
 16  5  1  0  0  0  0
 17 16  2  0  0  0  0
 18 10  1  0  0  0  0
 19 10  1  6  0  0  0
 19 20  1  0  0  0  0
 20 15  1  0  0  0  0
 23 22  1  1  0  0  0
 23 25  1  0  0  0  0
 23 21  1  0  0  0  0
 25 24  1  1  0  0  0
 27 26  2  0  0  0  0
 27 25  1  0  0  0  0
 28 29  1  0  0  0  0
 28 27  1  0  0  0  0
 29 30  2  0  0  0  0
 31 29  1  0  0  0  0
M  END
>  <MODEL>
7

>  <REMARK>
 VINA RESULT:      -8.6      1.324      1.634
  Name = 
  6 active torsions:
  status: ('A' for Active; 'I' for Inactive)
    1  A    between atoms: C_1  and  C_24
    2  A    between atoms: C_9  and  C_22
    3  A    between atoms: C_9  and  C_23
    4  A    between atoms: C_15  and  C_23
    5  A    between atoms: C_19  and  C_22
    6  A    between atoms: C_19  and  C_24
                            x       y       z     vdW  Elec       q    Type
                         _______ _______ _______ _____ _____    ______ ____

>  <TORSDO>
F 6

$$$$
=
 OpenBabel11052412553D

 31 34  0  0  1  0  0  0  0  0999 V2000
  185.1940  178.6140  145.8580 C   0  0  0  0  0  0  0  0  0  0  0  0
  187.0740  178.2860  142.5420 C   0  0  2  0  0  3  0  0  0  0  0  0
  188.1480  177.1980  142.7620 C   0  0  2  0  0  3  0  0  0  0  0  0
  189.2420  177.4730  145.0300 C   0  0  0  0  0  2  0  0  0  0  0  0
  185.9320  178.3690  143.5480 C   0  0  0  0  0  0  0  0  0  0  0  0
  183.8790  178.7860  145.4310 C   0  0  0  0  0  3  0  0  0  0  0  0
  188.3630  176.5900  144.1560 C   0  0  0  0  0  2  0  0  0  0  0  0
  185.3970  178.9990  140.7720 C   0  0  1  0  0  3  0  0  0  0  0  0
  185.5160  178.6390  147.3080 C   0  0  0  0  0  1  0  0  0  0  0  0
  189.1060  178.3050  140.6620 C   0  0  0  0  0  2  0  0  0  0  0  0
  190.7180  177.0850  144.9250 C   0  0  0  0  0  2  0  0  0  0  0  0
  184.2210  178.6410  141.6730 C   0  0  0  0  0  2  0  0  0  0  0  0
  186.5780  178.0810  141.0980 C   0  0  1  0  0  3  0  0  0  0  0  0
  186.2120  178.4260  144.9210 C   0  0  0  0  0  3  0  0  0  0  0  0
  191.1920  176.8320  143.4940 C   0  0  0  0  0  2  0  0  0  0  0  0
  184.6010  178.6110  143.1230 C   0  0  0  0  0  0  0  0  0  0  0  0
  183.5850  178.7880  144.0680 C   0  0  0  0  0  3  0  0  0  0  0  0
  187.7110  178.1360  140.0540 C   0  0  0  0  0  2  0  0  0  0  0  0
  189.3840  177.3510  141.8300 C   0  0  1  0  0  3  0  0  0  0  0  0
  190.6400  177.8680  142.5290 C   0  0  0  0  0  2  0  0  0  0  0  0
  184.9750  178.9490  139.2980 C   0  0  0  0  0  2  0  0  0  0  0  0
  183.3030  180.5840  138.7340 O   0  0  0  0  0  1  0  0  0  0  0  0
  183.4870  179.2430  139.0780 C   0  0  1  0  0  3  0  0  0  0  0  0
  181.3840  178.6560  137.8350 C   0  0  0  0  0  1  0  0  0  0  0  0
  182.8600  178.3340  138.0170 C   0  0  2  0  0  3  0  0  0  0  0  0
  182.9490  176.3860  139.3540 O   0  0  0  0  0  0  0  0  0  0  0  0
  183.1310  176.8630  138.2440 C   0  0  0  0  0  0  0  0  0  0  0  0
  183.6220  175.9650  137.1450 C   0  0  0  0  0  2  0  0  0  0  0  0
  184.8210  176.5500  136.4810 C   0  0  0  0  0  0  0  0  0  0  0  0
  184.7120  177.1100  135.3590 O   0  0  0  0  0  0  0  0  0  0  0  0
  186.0870  176.4950  137.1260 N   0  0  0  0  0  1  0  0  0  0  0  0
  1  9  1  0  0  0  0
  2  3  1  0  0  0  0
  2  5  1  1  0  0  0
  3  7  1  1  0  0  0
  5 14  1  0  0  0  0
  6  1  1  0  0  0  0
  7  4  1  0  0  0  0
  8 21  1  6  0  0  0
  8 13  1  0  0  0  0
  8 12  1  0  0  0  0
 11  4  1  0  0  0  0
 12 16  1  0  0  0  0
 13 18  1  6  0  0  0
 13  2  1  0  0  0  0
 14  1  2  0  0  0  0
 15 11  1  0  0  0  0
 16  5  2  0  0  0  0
 16 17  1  0  0  0  0
 17  6  2  0  0  0  0
 18 10  1  0  0  0  0
 19 10  1  6  0  0  0
 19 20  1  0  0  0  0
 19  3  1  0  0  0  0
 20 15  1  0  0  0  0
 23 22  1  6  0  0  0
 23 21  1  0  0  0  0
 25 24  1  1  0  0  0
 25 27  1  0  0  0  0
 25 23  1  0  0  0  0
 27 26  2  0  0  0  0
 28 27  1  0  0  0  0
 29 31  1  0  0  0  0
 29 28  1  0  0  0  0
 30 29  2  0  0  0  0
M  END
>  <MODEL>
8

>  <REMARK>
 VINA RESULT:      -8.5      2.060      4.568
  Name = 
  6 active torsions:
  status: ('A' for Active; 'I' for Inactive)
    1  A    between atoms: C_1  and  C_24
    2  A    between atoms: C_9  and  C_22
    3  A    between atoms: C_9  and  C_23
    4  A    between atoms: C_15  and  C_23
    5  A    between atoms: C_19  and  C_22
    6  A    between atoms: C_19  and  C_24
                            x       y       z     vdW  Elec       q    Type
                         _______ _______ _______ _____ _____    ______ ____

>  <TORSDO>
F 6

$$$$
=
 OpenBabel11052412553D

 31 34  0  0  1  0  0  0  0  0999 V2000
  188.9700  177.2800  147.1920 C   0  0  0  0  0  0  0  0  0  0  0  0
  187.3710  178.2020  143.8410 C   0  0  2  0  0  3  0  0  0  0  0  0
  187.8880  177.1670  142.8180 C   0  0  2  0  0  3  0  0  0  0  0  0
  190.3550  176.7170  143.1740 C   0  0  0  0  0  2  0  0  0  0  0  0
  187.5250  177.8750  145.3210 C   0  0  0  0  0  0  0  0  0  0  0  0
  187.9270  177.5130  148.0860 C   0  0  0  0  0  3  0  0  0  0  0  0
  188.9500  176.1340  143.2260 C   0  0  0  0  0  2  0  0  0  0  0  0
  185.2050  179.3780  144.4570 C   0  0  1  0  0  3  0  0  0  0  0  0
  190.2940  176.8300  147.6920 C   0  0  0  0  0  1  0  0  0  0  0  0
  187.0680  178.9720  141.1980 C   0  0  0  0  0  2  0  0  0  0  0  0
  191.0200  176.4710  141.8190 C   0  0  0  0  0  2  0  0  0  0  0  0
  185.1480  178.6700  145.8060 C   0  0  0  0  0  2  0  0  0  0  0  0
  185.9080  178.4710  143.4420 C   0  0  1  0  0  3  0  0  0  0  0  0
  188.7730  177.4780  145.8240 C   0  0  0  0  0  3  0  0  0  0  0  0
  190.1100  176.7450  140.6230 C   0  0  0  0  0  2  0  0  0  0  0  0
  186.4920  178.1710  146.2460 C   0  0  0  0  0  0  0  0  0  0  0  0
  186.6930  177.9600  147.6140 C   0  0  0  0  0  3  0  0  0  0  0  0
  185.7530  178.9410  141.9820 C   0  0  0  0  0  2  0  0  0  0  0  0
  187.9040  177.6950  141.3550 C   0  0  1  0  0  3  0  0  0  0  0  0
  189.2970  178.0140  140.8160 C   0  0  0  0  0  2  0  0  0  0  0  0
  183.7990  179.8070  144.0190 C   0  0  0  0  0  2  0  0  0  0  0  0
  182.2880  178.0750  144.7270 O   0  0  0  0  0  1  0  0  0  0  0  0
  182.9030  178.6350  143.6060 C   0  0  1  0  0  3  0  0  0  0  0  0
  180.4600  179.0530  143.1950 C   0  0  0  0  0  1  0  0  0  0  0  0
  181.8480  179.0400  142.5710 C   0  0  2  0  0  3  0  0  0  0  0  0
  180.9790  177.5350  140.9680 O   0  0  0  0  0  0  0  0  0  0  0  0
  181.9220  178.2420  141.2870 C   0  0  0  0  0  0  0  0  0  0  0  0
  183.1240  178.2890  140.3890 C   0  0  0  0  0  2  0  0  0  0  0  0
  183.0660  179.4760  139.4890 C   0  0  0  0  0  0  0  0  0  0  0  0
  181.9550  179.9160  139.0950 O   0  0  0  0  0  0  0  0  0  0  0  0
  184.2680  180.1250  139.0930 N   0  0  0  0  0  1  0  0  0  0  0  0
  1  9  1  0  0  0  0
  1  6  1  0  0  0  0
  2  5  1  1  0  0  0
  3  7  1  1  0  0  0
  3  2  1  0  0  0  0
  4  7  1  0  0  0  0
  5 14  1  0  0  0  0
  5 16  2  0  0  0  0
  8 21  1  6  0  0  0
  8 12  1  0  0  0  0
 10 19  1  0  0  0  0
 10 18  1  0  0  0  0
 11  4  1  0  0  0  0
 12 16  1  0  0  0  0
 13 18  1  6  0  0  0
 13  2  1  0  0  0  0
 13  8  1  0  0  0  0
 14  1  2  0  0  0  0
 15 20  1  0  0  0  0
 15 11  1  0  0  0  0
 16 17  1  0  0  0  0
 17  6  2  0  0  0  0
 19 20  1  1  0  0  0
 19  3  1  0  0  0  0
 23 21  1  0  0  0  0
 23 22  1  1  0  0  0
 25 24  1  1  0  0  0
 25 23  1  0  0  0  0
 26 27  2  0  0  0  0
 27 25  1  0  0  0  0
 28 27  1  0  0  0  0
 29 28  1  0  0  0  0
 30 29  2  0  0  0  0
 31 29  1  0  0  0  0
M  END
>  <MODEL>
9

>  <REMARK>
 VINA RESULT:      -8.4      1.088      3.990
  Name = 
  6 active torsions:
  status: ('A' for Active; 'I' for Inactive)
    1  A    between atoms: C_1  and  C_24
    2  A    between atoms: C_9  and  C_22
    3  A    between atoms: C_9  and  C_23
    4  A    between atoms: C_15  and  C_23
    5  A    between atoms: C_19  and  C_22
    6  A    between atoms: C_19  and  C_24
                            x       y       z     vdW  Elec       q    Type
                         _______ _______ _______ _____ _____    ______ ____

>  <TORSDO>
F 6

$$$$
