=
 OpenBabel11052413553D

 27 31  0  0  1  0  0  0  0  0999 V2000
  189.7340  176.7560  142.8030 C   0  0  0  0  0  2  0  0  0  0  0  0
  187.9790  177.7360  144.2040 N   0  0  0  0  0  0  0  0  0  0  0  0
  187.1600  178.2010  141.8900 N   0  0  0  0  0  0  0  0  0  0  0  0
  187.4080  177.7090  145.4020 N   0  0  0  0  0  0  0  0  0  0  0  0
  189.3920  177.8500  139.3630 C   0  0  0  0  0  0  0  0  0  0  0  0
  189.4250  177.6560  143.9810 C   0  0  1  0  0  3  0  0  0  0  0  0
  185.8190  178.0970  144.0020 C   0  0  0  0  0  0  0  0  0  0  0  0
  189.4480  177.4670  141.5730 N   0  0  0  0  0  0  0  0  0  0  0  0
  187.0060  177.9900  143.3030 C   0  0  0  0  0  0  0  0  0  0  0  0
  188.2140  178.2420  139.7460 N   0  0  0  0  0  0  0  0  0  0  0  0
  186.1010  177.9140  145.3090 N   0  0  0  0  0  0  0  0  0  0  0  0
  190.2090  177.3270  140.4140 N   0  0  0  0  0  2  0  0  0  0  0  0
  188.2080  178.0040  141.1470 C   0  0  0  0  0  0  0  0  0  0  0  0
  183.4350  178.7170  144.3690 C   0  0  0  0  0  3  0  0  0  0  0  0
  181.8810  178.9090  142.5230 C   0  0  0  0  0  3  0  0  0  0  0  0
  182.9010  178.5700  141.6310 C   0  0  0  0  0  3  0  0  0  0  0  0
  184.1870  178.3040  142.1080 C   0  0  0  0  0  3  0  0  0  0  0  0
  184.4660  178.3760  143.4810 C   0  0  0  0  0  0  0  0  0  0  0  0
  182.1480  178.9830  143.8920 C   0  0  0  0  0  3  0  0  0  0  0  0
  191.5880  176.3140  147.4500 C   0  0  0  0  0  3  0  0  0  0  0  0
  190.1640  177.1900  145.2020 C   0  0  0  0  0  0  0  0  0  0  0  0
  191.3150  176.4110  145.0450 C   0  0  0  0  0  3  0  0  0  0  0  0
  192.0260  175.9730  146.1670 C   0  0  0  0  0  3  0  0  0  0  0  0
  190.4390  177.0930  147.6120 C   0  0  0  0  0  3  0  0  0  0  0  0
  189.7280  177.5320  146.4920 C   0  0  0  0  0  3  0  0  0  0  0  0
  189.0640  178.9550  137.1920 C   0  0  0  0  0  1  0  0  0  0  0  0
  189.8210  177.8750  137.9400 C   0  0  0  0  0  2  0  0  0  0  0  0
  1  6  1  0  0  0  0
  2  4  1  0  0  0  0
  3  9  1  0  0  0  0
  5 10  2  0  0  0  0
  5 12  1  0  0  0  0
  6  2  1  0  0  0  0
  6 21  1  1  0  0  0
  7 11  1  0  0  0  0
  8  1  1  0  0  0  0
  9  7  2  0  0  0  0
  9  2  1  0  0  0  0
 10 13  1  0  0  0  0
 11  4  2  0  0  0  0
 12  8  1  0  0  0  0
 13  8  1  0  0  0  0
 13  3  2  0  0  0  0
 15 19  2  0  0  0  0
 16 17  2  0  0  0  0
 16 15  1  0  0  0  0
 17 18  1  0  0  0  0
 18  7  1  0  0  0  0
 18 14  2  0  0  0  0
 19 14  1  0  0  0  0
 20 24  1  0  0  0  0
 21 25  1  0  0  0  0
 22 21  2  0  0  0  0
 22 23  1  0  0  0  0
 23 20  2  0  0  0  0
 25 24  2  0  0  0  0
 26 27  1  0  0  0  0
 27  5  1  0  0  0  0
M  END
>  <MODEL>
1

>  <REMARK>
 VINA RESULT:     -10.4      0.000      0.000
  Name = 
  3 active torsions:
  status: ('A' for Active; 'I' for Inactive)
    1  A    between atoms: C_9  and  C_15
    2  A    between atoms: C_13  and  C_22
    3  A    between atoms: C_14  and  C_17
                            x       y       z     vdW  Elec       q    Type
                         _______ _______ _______ _____ _____    ______ ____

>  <TORSDO>
F 3

$$$$
=
 OpenBabel11052413553D

 27 31  0  0  1  0  0  0  0  0999 V2000
  186.0930  178.9940  141.3850 C   0  0  0  0  0  2  0  0  0  0  0  0
  186.2930  177.8690  143.5530 N   0  0  0  0  0  0  0  0  0  0  0  0
  188.5500  177.5200  142.5410 N   0  0  0  0  0  0  0  0  0  0  0  0
  185.8090  177.8020  144.7860 N   0  0  0  0  0  0  0  0  0  0  0  0
  188.8590  178.1050  139.2170 C   0  0  0  0  0  0  0  0  0  0  0  0
  185.4650  178.0120  142.3520 C   0  0  1  0  0  3  0  0  0  0  0  0
  187.9240  177.4470  144.9650 C   0  0  0  0  0  0  0  0  0  0  0  0
  187.2000  178.3520  140.7070 N   0  0  0  0  0  0  0  0  0  0  0  0
  187.6200  177.6380  143.6310 C   0  0  0  0  0  0  0  0  0  0  0  0
  189.3940  177.6500  140.3090 N   0  0  0  0  0  0  0  0  0  0  0  0
  186.7750  177.5580  145.6610 N   0  0  0  0  0  0  0  0  0  0  0  0
  187.5230  178.5900  139.3720 N   0  0  0  0  0  2  0  0  0  0  0  0
  188.3710  177.8000  141.2840 C   0  0  0  0  0  0  0  0  0  0  0  0
  189.3540  177.0950  146.9730 C   0  0  0  0  0  3  0  0  0  0  0  0
  191.7160  176.6030  146.7730 C   0  0  0  0  0  3  0  0  0  0  0  0
  191.6090  176.6610  145.3820 C   0  0  0  0  0  3  0  0  0  0  0  0
  190.3740  176.9350  144.7870 C   0  0  0  0  0  3  0  0  0  0  0  0
  189.2360  177.1540  145.5770 C   0  0  0  0  0  0  0  0  0  0  0  0
  190.5890  176.8210  147.5690 C   0  0  0  0  0  3  0  0  0  0  0  0
  181.4170  179.1740  143.2380 C   0  0  0  0  0  3  0  0  0  0  0  0
  184.0590  178.4270  142.6770 C   0  0  0  0  0  0  0  0  0  0  0  0
  183.1050  178.4600  141.6540 C   0  0  0  0  0  3  0  0  0  0  0  0
  181.7870  178.8340  141.9330 C   0  0  0  0  0  3  0  0  0  0  0  0
  182.3660  179.1420  144.2630 C   0  0  0  0  0  3  0  0  0  0  0  0
  183.6840  178.7680  143.9860 C   0  0  0  0  0  3  0  0  0  0  0  0
  188.8020  178.9720  136.9180 C   0  0  0  0  0  1  0  0  0  0  0  0
  189.6050  178.1830  137.9320 C   0  0  0  0  0  2  0  0  0  0  0  0
  1  6  1  0  0  0  0
  2  9  1  0  0  0  0
  2  4  1  0  0  0  0
  3  9  1  0  0  0  0
  4 11  2  0  0  0  0
  5 12  1  0  0  0  0
  5 10  2  0  0  0  0
  6 21  1  1  0  0  0
  6  2  1  0  0  0  0
  7 18  1  0  0  0  0
  7 11  1  0  0  0  0
  8 13  1  0  0  0  0
  8  1  1  0  0  0  0
  9  7  2  0  0  0  0
 10 13  1  0  0  0  0
 12  8  1  0  0  0  0
 13  3  2  0  0  0  0
 14 19  1  0  0  0  0
 15 19  2  0  0  0  0
 16 15  1  0  0  0  0
 17 16  2  0  0  0  0
 17 18  1  0  0  0  0
 18 14  2  0  0  0  0
 20 24  1  0  0  0  0
 21 25  1  0  0  0  0
 22 23  1  0  0  0  0
 22 21  2  0  0  0  0
 23 20  2  0  0  0  0
 25 24  2  0  0  0  0
 26 27  1  0  0  0  0
 27  5  1  0  0  0  0
M  END
>  <MODEL>
2

>  <REMARK>
 VINA RESULT:     -10.1      0.952      6.120
  Name = 
  3 active torsions:
  status: ('A' for Active; 'I' for Inactive)
    1  A    between atoms: C_9  and  C_15
    2  A    between atoms: C_13  and  C_22
    3  A    between atoms: C_14  and  C_17
                            x       y       z     vdW  Elec       q    Type
                         _______ _______ _______ _____ _____    ______ ____

>  <TORSDO>
F 3

$$$$
=
 OpenBabel11052413553D

 27 31  0  0  1  0  0  0  0  0999 V2000
  185.3600  179.1540  141.2760 C   0  0  0  0  0  2  0  0  0  0  0  0
  185.0600  178.2810  143.5460 N   0  0  0  0  0  0  0  0  0  0  0  0
  187.4950  177.9060  143.1280 N   0  0  0  0  0  0  0  0  0  0  0  0
  184.3040  178.3320  144.6350 N   0  0  0  0  0  0  0  0  0  0  0  0
  188.5630  178.1340  139.9200 C   0  0  0  0  0  0  0  0  0  0  0  0
  184.5330  178.2620  142.1790 C   0  0  1  0  0  3  0  0  0  0  0  0
  186.3230  178.0760  145.3350 C   0  0  0  0  0  0  0  0  0  0  0  0
  186.6010  178.4820  140.9500 N   0  0  0  0  0  0  0  0  0  0  0  0
  186.3360  178.1090  143.9540 C   0  0  0  0  0  0  0  0  0  0  0  0
  188.8330  177.8210  141.1510 N   0  0  0  0  0  0  0  0  0  0  0  0
  185.0410  178.2210  145.7310 N   0  0  0  0  0  0  0  0  0  0  0  0
  187.2220  178.5840  139.7070 N   0  0  0  0  0  2  0  0  0  0  0  0
  187.6100  178.0400  141.8410 C   0  0  0  0  0  0  0  0  0  0  0  0
  187.3280  178.2870  147.6040 C   0  0  0  0  0  3  0  0  0  0  0  0
  189.6000  177.5830  148.0500 C   0  0  0  0  0  3  0  0  0  0  0  0
  189.7410  177.1950  146.7160 C   0  0  0  0  0  3  0  0  0  0  0  0
  188.6740  177.3530  145.8260 C   0  0  0  0  0  3  0  0  0  0  0  0
  187.4590  177.9000  146.2620 C   0  0  0  0  0  0  0  0  0  0  0  0
  188.3940  178.1290  148.4950 C   0  0  0  0  0  3  0  0  0  0  0  0
  180.3800  179.3690  141.9680 C   0  0  0  0  0  3  0  0  0  0  0  0
  183.0860  178.6580  142.1220 C   0  0  0  0  0  0  0  0  0  0  0  0
  182.4180  178.6230  140.8930 C   0  0  0  0  0  3  0  0  0  0  0  0
  181.0680  178.9780  140.8160 C   0  0  0  0  0  3  0  0  0  0  0  0
  181.0420  179.4060  143.1980 C   0  0  0  0  0  3  0  0  0  0  0  0
  182.3920  179.0500  143.2770 C   0  0  0  0  0  3  0  0  0  0  0  0
  189.0610  178.8060  137.6090 C   0  0  0  0  0  1  0  0  0  0  0  0
  189.5860  178.0980  138.8410 C   0  0  0  0  0  2  0  0  0  0  0  0
  1  6  1  0  0  0  0
  2  9  1  0  0  0  0
  2  4  1  0  0  0  0
  3  9  1  0  0  0  0
  4 11  2  0  0  0  0
  5 10  2  0  0  0  0
  6 21  1  1  0  0  0
  6  2  1  0  0  0  0
  7 11  1  0  0  0  0
  7 18  1  0  0  0  0
  8  1  1  0  0  0  0
  8 13  1  0  0  0  0
  9  7  2  0  0  0  0
 10 13  1  0  0  0  0
 12  5  1  0  0  0  0
 12  8  1  0  0  0  0
 13  3  2  0  0  0  0
 14 19  1  0  0  0  0
 15 19  2  0  0  0  0
 16 15  1  0  0  0  0
 17 18  1  0  0  0  0
 17 16  2  0  0  0  0
 18 14  2  0  0  0  0
 20 24  1  0  0  0  0
 21 25  1  0  0  0  0
 22 21  2  0  0  0  0
 23 22  1  0  0  0  0
 23 20  2  0  0  0  0
 24 25  2  0  0  0  0
 26 27  1  0  0  0  0
 27  5  1  0  0  0  0
M  END
>  <MODEL>
3

>  <REMARK>
 VINA RESULT:      -9.8      1.435      6.316
  Name = 
  3 active torsions:
  status: ('A' for Active; 'I' for Inactive)
    1  A    between atoms: C_9  and  C_15
    2  A    between atoms: C_13  and  C_22
    3  A    between atoms: C_14  and  C_17
                            x       y       z     vdW  Elec       q    Type
                         _______ _______ _______ _____ _____    ______ ____

>  <TORSDO>
F 3

$$$$
=
 OpenBabel11052413553D

 27 31  0  0  1  0  0  0  0  0999 V2000
  185.5260  178.8900  144.8030 C   0  0  0  0  0  2  0  0  0  0  0  0
  187.2910  177.9510  143.3850 N   0  0  0  0  0  0  0  0  0  0  0  0
  185.4210  178.3170  141.7690 N   0  0  0  0  0  0  0  0  0  0  0  0
  188.5990  177.7690  143.2630 N   0  0  0  0  0  0  0  0  0  0  0  0
  182.3420  178.8730  143.0710 C   0  0  0  0  0  0  0  0  0  0  0  0
  186.5510  177.7860  144.6390 C   0  0  1  0  0  3  0  0  0  0  0  0
  187.8670  178.1170  141.2690 C   0  0  0  0  0  0  0  0  0  0  0  0
  184.3930  178.6170  143.9430 N   0  0  0  0  0  0  0  0  0  0  0  0
  186.7990  178.1620  142.1450 C   0  0  0  0  0  0  0  0  0  0  0  0
  183.0680  178.6460  142.0180 N   0  0  0  0  0  0  0  0  0  0  0  0
  188.9760  177.8740  141.9960 N   0  0  0  0  0  0  0  0  0  0  0  0
  183.0760  178.9070  144.2970 N   0  0  0  0  0  2  0  0  0  0  0  0
  184.3830  178.4880  142.5320 C   0  0  0  0  0  0  0  0  0  0  0  0
  189.0440  178.6270  139.1340 C   0  0  0  0  0  3  0  0  0  0  0  0
  187.8820  178.5990  137.0120 C   0  0  0  0  0  3  0  0  0  0  0  0
  186.6970  178.2530  137.6660 C   0  0  0  0  0  3  0  0  0  0  0  0
  186.6870  178.0940  139.0550 C   0  0  0  0  0  3  0  0  0  0  0  0
  187.8600  178.2790  139.8010 C   0  0  0  0  0  0  0  0  0  0  0  0
  189.0550  178.7860  137.7460 C   0  0  0  0  0  3  0  0  0  0  0  0
  189.1130  177.6500  148.0940 C   0  0  0  0  0  3  0  0  0  0  0  0
  187.4600  177.7370  145.8320 C   0  0  0  0  0  0  0  0  0  0  0  0
  187.0270  178.2900  147.0420 C   0  0  0  0  0  3  0  0  0  0  0  0
  187.8510  178.2480  148.1710 C   0  0  0  0  0  3  0  0  0  0  0  0
  189.5500  177.0940  146.8880 C   0  0  0  0  0  3  0  0  0  0  0  0
  188.7260  177.1360  145.7590 C   0  0  0  0  0  3  0  0  0  0  0  0
  180.1360  178.2560  143.9630 C   0  0  0  0  0  1  0  0  0  0  0  0
  180.8820  179.1490  142.9930 C   0  0  0  0  0  2  0  0  0  0  0  0
  2  6  1  0  0  0  0
  3  9  1  0  0  0  0
  3 13  2  0  0  0  0
  4  2  1  0  0  0  0
  5 12  1  0  0  0  0
  6  1  1  0  0  0  0
  6 21  1  1  0  0  0
  7 11  1  0  0  0  0
  7  9  2  0  0  0  0
  8 12  1  0  0  0  0
  8  1  1  0  0  0  0
  9  2  1  0  0  0  0
 10 13  1  0  0  0  0
 10  5  2  0  0  0  0
 11  4  2  0  0  0  0
 13  8  1  0  0  0  0
 14 18  1  0  0  0  0
 15 16  2  0  0  0  0
 15 19  1  0  0  0  0
 16 17  1  0  0  0  0
 17 18  2  0  0  0  0
 18  7  1  0  0  0  0
 19 14  2  0  0  0  0
 20 23  1  0  0  0  0
 21 22  1  0  0  0  0
 22 23  2  0  0  0  0
 24 20  2  0  0  0  0
 25 21  2  0  0  0  0
 25 24  1  0  0  0  0
 27  5  1  0  0  0  0
 27 26  1  0  0  0  0
M  END
>  <MODEL>
4

>  <REMARK>
 VINA RESULT:      -9.8      1.854      5.704
  Name = 
  3 active torsions:
  status: ('A' for Active; 'I' for Inactive)
    1  A    between atoms: C_9  and  C_15
    2  A    between atoms: C_13  and  C_22
    3  A    between atoms: C_14  and  C_17
                            x       y       z     vdW  Elec       q    Type
                         _______ _______ _______ _____ _____    ______ ____

>  <TORSDO>
F 3

$$$$
=
 OpenBabel11052413553D

 27 31  0  0  1  0  0  0  0  0999 V2000
  187.6570  177.1540  144.8420 C   0  0  0  0  0  2  0  0  0  0  0  0
  187.9630  177.9600  142.5480 N   0  0  0  0  0  0  0  0  0  0  0  0
  190.2920  177.3790  143.2430 N   0  0  0  0  0  0  0  0  0  0  0  0
  187.3650  178.1540  141.3800 N   0  0  0  0  0  0  0  0  0  0  0  0
  190.8430  176.9140  146.5550 C   0  0  0  0  0  0  0  0  0  0  0  0
  187.3460  178.2510  143.8450 C   0  0  1  0  0  3  0  0  0  0  0  0
  189.3840  177.5690  140.9170 C   0  0  0  0  0  0  0  0  0  0  0  0
  189.0210  177.3060  145.3060 N   0  0  0  0  0  0  0  0  0  0  0  0
  189.2390  177.6020  142.2900 C   0  0  0  0  0  0  0  0  0  0  0  0
  191.3420  177.0350  145.3610 N   0  0  0  0  0  0  0  0  0  0  0  0
  188.1980  177.9140  140.3760 N   0  0  0  0  0  0  0  0  0  0  0  0
  189.4190  177.0330  146.6140 N   0  0  0  0  0  2  0  0  0  0  0  0
  190.2100  177.2760  144.5360 C   0  0  0  0  0  0  0  0  0  0  0  0
  190.4550  176.5830  138.8950 C   0  0  0  0  0  3  0  0  0  0  0  0
  192.8570  176.6040  138.6000 C   0  0  0  0  0  3  0  0  0  0  0  0
  193.0010  177.2590  139.8250 C   0  0  0  0  0  3  0  0  0  0  0  0
  191.8710  177.5770  140.5850 C   0  0  0  0  0  3  0  0  0  0  0  0
  190.5880  177.2420  140.1270 C   0  0  0  0  0  0  0  0  0  0  0  0
  191.5840  176.2650  138.1350 C   0  0  0  0  0  3  0  0  0  0  0  0
  183.0950  178.8600  143.5800 C   0  0  0  0  0  3  0  0  0  0  0  0
  185.8630  178.4530  143.7360 C   0  0  0  0  0  0  0  0  0  0  0  0
  185.1380  178.8100  144.8790 C   0  0  0  0  0  3  0  0  0  0  0  0
  183.7570  179.0120  144.8010 C   0  0  0  0  0  3  0  0  0  0  0  0
  183.8130  178.5040  142.4350 C   0  0  0  0  0  3  0  0  0  0  0  0
  185.1950  178.3020  142.5110 C   0  0  0  0  0  3  0  0  0  0  0  0
  192.5440  175.3900  147.4640 C   0  0  0  0  0  1  0  0  0  0  0  0
  191.6800  176.6030  147.7440 C   0  0  0  0  0  2  0  0  0  0  0  0
  1  8  1  0  0  0  0
  2  6  1  0  0  0  0
  3 13  2  0  0  0  0
  4  2  1  0  0  0  0
  5 12  1  0  0  0  0
  5 27  1  0  0  0  0
  6 21  1  6  0  0  0
  6  1  1  0  0  0  0
  7  9  2  0  0  0  0
  8 12  1  0  0  0  0
  9  2  1  0  0  0  0
  9  3  1  0  0  0  0
 10  5  2  0  0  0  0
 11  7  1  0  0  0  0
 11  4  2  0  0  0  0
 13  8  1  0  0  0  0
 13 10  1  0  0  0  0
 14 18  1  0  0  0  0
 15 16  2  0  0  0  0
 16 17  1  0  0  0  0
 18 17  2  0  0  0  0
 18  7  1  0  0  0  0
 19 15  1  0  0  0  0
 19 14  2  0  0  0  0
 20 23  1  0  0  0  0
 21 22  1  0  0  0  0
 23 22  2  0  0  0  0
 24 25  1  0  0  0  0
 24 20  2  0  0  0  0
 25 21  2  0  0  0  0
 26 27  1  0  0  0  0
M  END
>  <MODEL>
5

>  <REMARK>
 VINA RESULT:      -9.6      1.782      7.260
  Name = 
  3 active torsions:
  status: ('A' for Active; 'I' for Inactive)
    1  A    between atoms: C_9  and  C_15
    2  A    between atoms: C_13  and  C_22
    3  A    between atoms: C_14  and  C_17
                            x       y       z     vdW  Elec       q    Type
                         _______ _______ _______ _____ _____    ______ ____

>  <TORSDO>
F 3

$$$$
=
 OpenBabel11052413553D

 27 31  0  0  1  0  0  0  0  0999 V2000
  188.1690  177.1300  139.1930 C   0  0  0  0  0  2  0  0  0  0  0  0
  189.5450  177.2540  141.2160 N   0  0  0  0  0  0  0  0  0  0  0  0
  187.3920  178.2870  141.9500 N   0  0  0  0  0  0  0  0  0  0  0  0
  190.5860  176.7310  141.8510 N   0  0  0  0  0  0  0  0  0  0  0  0
  185.2120  179.2020  139.5210 C   0  0  0  0  0  0  0  0  0  0  0  0
  189.5100  177.5220  139.7760 C   0  0  1  0  0  3  0  0  0  0  0  0
  189.1660  177.2510  143.3820 C   0  0  0  0  0  0  0  0  0  0  0  0
  187.1870  178.1360  139.5390 N   0  0  0  0  0  0  0  0  0  0  0  0
  188.6380  177.6010  142.1540 C   0  0  0  0  0  0  0  0  0  0  0  0
  185.5290  179.2200  140.7810 N   0  0  0  0  0  0  0  0  0  0  0  0
  190.3800  176.7080  143.1610 N   0  0  0  0  0  0  0  0  0  0  0  0
  186.1560  178.5260  138.6850 N   0  0  0  0  0  2  0  0  0  0  0  0
  186.7770  178.5410  140.8340 C   0  0  0  0  0  0  0  0  0  0  0  0
  187.1770  177.4170  144.8730 C   0  0  0  0  0  3  0  0  0  0  0  0
  187.4100  177.7630  147.2570 C   0  0  0  0  0  3  0  0  0  0  0  0
  188.8010  177.7750  147.1180 C   0  0  0  0  0  3  0  0  0  0  0  0
  189.3780  177.6080  145.8560 C   0  0  0  0  0  3  0  0  0  0  0  0
  188.5720  177.4270  144.7230 C   0  0  0  0  0  0  0  0  0  0  0  0
  186.5990  177.5840  146.1350 C   0  0  0  0  0  3  0  0  0  0  0  0
  192.6590  175.5190  137.6340 C   0  0  0  0  0  3  0  0  0  0  0  0
  190.6210  176.8300  139.0420 C   0  0  0  0  0  0  0  0  0  0  0  0
  190.3140  175.7640  138.1880 C   0  0  0  0  0  3  0  0  0  0  0  0
  191.3310  175.1100  137.4860 C   0  0  0  0  0  3  0  0  0  0  0  0
  192.9720  176.5830  138.4840 C   0  0  0  0  0  3  0  0  0  0  0  0
  191.9560  177.2390  139.1870 C   0  0  0  0  0  3  0  0  0  0  0  0
  182.7630  179.0010  139.5800 C   0  0  0  0  0  1  0  0  0  0  0  0
  183.9370  179.7690  139.0080 C   0  0  0  0  0  2  0  0  0  0  0  0
  1  8  1  0  0  0  0
  1  6  1  0  0  0  0
  2  4  1  0  0  0  0
  2  9  1  0  0  0  0
  3  9  1  0  0  0  0
  4 11  2  0  0  0  0
  5 10  2  0  0  0  0
  6 21  1  6  0  0  0
  6  2  1  0  0  0  0
  7 18  1  0  0  0  0
  8 13  1  0  0  0  0
  9  7  2  0  0  0  0
 10 13  1  0  0  0  0
 11  7  1  0  0  0  0
 12  5  1  0  0  0  0
 12  8  1  0  0  0  0
 13  3  2  0  0  0  0
 14 19  1  0  0  0  0
 16 15  1  0  0  0  0
 17 16  2  0  0  0  0
 18 14  2  0  0  0  0
 18 17  1  0  0  0  0
 19 15  2  0  0  0  0
 20 24  1  0  0  0  0
 21 25  1  0  0  0  0
 22 21  2  0  0  0  0
 23 20  2  0  0  0  0
 23 22  1  0  0  0  0
 24 25  2  0  0  0  0
 27  5  1  0  0  0  0
 27 26  1  0  0  0  0
M  END
>  <MODEL>
6

>  <REMARK>
 VINA RESULT:      -9.6      2.352      5.738
  Name = 
  3 active torsions:
  status: ('A' for Active; 'I' for Inactive)
    1  A    between atoms: C_9  and  C_15
    2  A    between atoms: C_13  and  C_22
    3  A    between atoms: C_14  and  C_17
                            x       y       z     vdW  Elec       q    Type
                         _______ _______ _______ _____ _____    ______ ____

>  <TORSDO>
F 3

$$$$
=
 OpenBabel11052413553D

 27 31  0  0  1  0  0  0  0  0999 V2000
  187.6530  177.1740  144.8290 C   0  0  0  0  0  2  0  0  0  0  0  0
  187.9590  177.9710  142.5320 N   0  0  0  0  0  0  0  0  0  0  0  0
  190.2860  177.3860  143.2280 N   0  0  0  0  0  0  0  0  0  0  0  0
  187.3610  178.1610  141.3630 N   0  0  0  0  0  0  0  0  0  0  0  0
  190.8390  176.9330  146.5410 C   0  0  0  0  0  0  0  0  0  0  0  0
  187.3440  178.2680  143.8280 C   0  0  1  0  0  3  0  0  0  0  0  0
  189.3780  177.5700  140.9010 C   0  0  0  0  0  0  0  0  0  0  0  0
  189.0170  177.3250  145.2920 N   0  0  0  0  0  0  0  0  0  0  0  0
  189.2340  177.6090  142.2750 C   0  0  0  0  0  0  0  0  0  0  0  0
  191.3370  177.0480  145.3470 N   0  0  0  0  0  0  0  0  0  0  0  0
  188.1920  177.9160  140.3600 N   0  0  0  0  0  0  0  0  0  0  0  0
  189.4150  177.0550  146.6000 N   0  0  0  0  0  2  0  0  0  0  0  0
  190.2050  177.2880  144.5210 C   0  0  0  0  0  0  0  0  0  0  0  0
  191.8510  177.5780  140.6000 C   0  0  0  0  0  3  0  0  0  0  0  0
  192.8880  176.6220  138.6340 C   0  0  0  0  0  3  0  0  0  0  0  0
  191.6280  176.2790  138.1380 C   0  0  0  0  0  3  0  0  0  0  0  0
  190.4800  176.5850  138.8740 C   0  0  0  0  0  3  0  0  0  0  0  0
  190.5810  177.2370  140.1120 C   0  0  0  0  0  0  0  0  0  0  0  0
  193.0000  177.2720  139.8650 C   0  0  0  0  0  3  0  0  0  0  0  0
  183.0920  178.8230  143.4720 C   0  0  0  0  0  3  0  0  0  0  0  0
  185.8610  178.4730  143.7200 C   0  0  0  0  0  0  0  0  0  0  0  0
  185.2330  178.2700  142.4850 C   0  0  0  0  0  3  0  0  0  0  0  0
  183.8520  178.4460  142.3620 C   0  0  0  0  0  3  0  0  0  0  0  0
  183.7130  179.0260  144.7080 C   0  0  0  0  0  3  0  0  0  0  0  0
  185.0940  178.8510  144.8330 C   0  0  0  0  0  3  0  0  0  0  0  0
  192.5030  175.3810  147.4720 C   0  0  0  0  0  1  0  0  0  0  0  0
  191.6760  176.6240  147.7310 C   0  0  0  0  0  2  0  0  0  0  0  0
  1  8  1  0  0  0  0
  2  6  1  0  0  0  0
  3 13  2  0  0  0  0
  4  2  1  0  0  0  0
  5 12  1  0  0  0  0
  5 27  1  0  0  0  0
  6 21  1  6  0  0  0
  6  1  1  0  0  0  0
  7  9  2  0  0  0  0
  8 12  1  0  0  0  0
  9  2  1  0  0  0  0
  9  3  1  0  0  0  0
 10  5  2  0  0  0  0
 11  7  1  0  0  0  0
 11  4  2  0  0  0  0
 13  8  1  0  0  0  0
 13 10  1  0  0  0  0
 15 19  1  0  0  0  0
 16 15  2  0  0  0  0
 16 17  1  0  0  0  0
 17 18  2  0  0  0  0
 18 14  1  0  0  0  0
 18  7  1  0  0  0  0
 19 14  2  0  0  0  0
 20 24  1  0  0  0  0
 21 25  1  0  0  0  0
 22 21  2  0  0  0  0
 23 22  1  0  0  0  0
 23 20  2  0  0  0  0
 24 25  2  0  0  0  0
 26 27  1  0  0  0  0
M  END
>  <MODEL>
7

>  <REMARK>
 VINA RESULT:      -9.5      1.782      7.189
  Name = 
  3 active torsions:
  status: ('A' for Active; 'I' for Inactive)
    1  A    between atoms: C_9  and  C_15
    2  A    between atoms: C_13  and  C_22
    3  A    between atoms: C_14  and  C_17
                            x       y       z     vdW  Elec       q    Type
                         _______ _______ _______ _____ _____    ______ ____

>  <TORSDO>
F 3

$$$$
=
 OpenBabel11052413553D

 27 31  0  0  1  0  0  0  0  0999 V2000
  191.1800  177.5450  143.2520 C   0  0  0  0  0  2  0  0  0  0  0  0
  188.9460  177.3680  142.2600 N   0  0  0  0  0  0  0  0  0  0  0  0
  188.4620  177.3820  144.7110 N   0  0  0  0  0  0  0  0  0  0  0  0
  188.2240  177.5960  141.1710 N   0  0  0  0  0  0  0  0  0  0  0  0
  191.0690  176.8270  146.8040 C   0  0  0  0  0  0  0  0  0  0  0  0
  190.3070  176.8250  142.2450 C   0  0  1  0  0  3  0  0  0  0  0  0
  186.9140  177.9800  142.8350 C   0  0  0  0  0  0  0  0  0  0  0  0
  190.8620  177.0700  144.5830 N   0  0  0  0  0  0  0  0  0  0  0  0
  188.1450  177.5900  143.3240 C   0  0  0  0  0  0  0  0  0  0  0  0
  189.7860  176.9680  146.6550 N   0  0  0  0  0  0  0  0  0  0  0  0
  186.9940  177.9780  141.4890 N   0  0  0  0  0  0  0  0  0  0  0  0
  191.8160  176.9100  145.5860 N   0  0  0  0  0  2  0  0  0  0  0  0
  189.6160  177.1350  145.2540 C   0  0  0  0  0  0  0  0  0  0  0  0
  184.5210  178.6690  142.8970 C   0  0  0  0  0  3  0  0  0  0  0  0
  183.3550  179.0030  144.9910 C   0  0  0  0  0  3  0  0  0  0  0  0
  184.5170  178.6670  145.6900 C   0  0  0  0  0  3  0  0  0  0  0  0
  185.6810  178.3320  144.9920 C   0  0  0  0  0  3  0  0  0  0  0  0
  185.6930  178.3300  143.5890 C   0  0  0  0  0  0  0  0  0  0  0  0
  183.3570  179.0040  143.5950 C   0  0  0  0  0  3  0  0  0  0  0  0
  192.1350  176.9990  138.3540 C   0  0  0  0  0  3  0  0  0  0  0  0
  190.9270  176.8840  140.8790 C   0  0  0  0  0  0  0  0  0  0  0  0
  192.2010  177.4450  140.7330 C   0  0  0  0  0  3  0  0  0  0  0  0
  192.8040  177.5030  139.4730 C   0  0  0  0  0  3  0  0  0  0  0  0
  190.8630  176.4360  138.4940 C   0  0  0  0  0  3  0  0  0  0  0  0
  190.2600  176.3780  139.7530 C   0  0  0  0  0  3  0  0  0  0  0  0
  192.8070  175.6270  148.0620 C   0  0  0  0  0  1  0  0  0  0  0  0
  191.7090  176.6690  148.1370 C   0  0  0  0  0  2  0  0  0  0  0  0
  1  8  1  0  0  0  0
  2  9  1  0  0  0  0
  3 13  2  0  0  0  0
  4 11  2  0  0  0  0
  4  2  1  0  0  0  0
  5 27  1  0  0  0  0
  6 21  1  6  0  0  0
  6  2  1  0  0  0  0
  6  1  1  0  0  0  0
  7  9  2  0  0  0  0
  7 18  1  0  0  0  0
  8 13  1  0  0  0  0
  8 12  1  0  0  0  0
  9  3  1  0  0  0  0
 10  5  2  0  0  0  0
 11  7  1  0  0  0  0
 12  5  1  0  0  0  0
 13 10  1  0  0  0  0
 14 18  2  0  0  0  0
 14 19  1  0  0  0  0
 15 16  1  0  0  0  0
 17 16  2  0  0  0  0
 18 17  1  0  0  0  0
 19 15  2  0  0  0  0
 20 24  2  0  0  0  0
 20 23  1  0  0  0  0
 22 21  1  0  0  0  0
 23 22  2  0  0  0  0
 24 25  1  0  0  0  0
 25 21  2  0  0  0  0
 26 27  1  0  0  0  0
M  END
>  <MODEL>
8

>  <REMARK>
 VINA RESULT:      -9.3      1.844      5.546
  Name = 
  3 active torsions:
  status: ('A' for Active; 'I' for Inactive)
    1  A    between atoms: C_9  and  C_15
    2  A    between atoms: C_13  and  C_22
    3  A    between atoms: C_14  and  C_17
                            x       y       z     vdW  Elec       q    Type
                         _______ _______ _______ _____ _____    ______ ____

>  <TORSDO>
F 3

$$$$
=
 OpenBabel11052413553D

 27 31  0  0  1  0  0  0  0  0999 V2000
  188.2200  177.3170  143.1580 C   0  0  0  0  0  2  0  0  0  0  0  0
  186.2010  178.2910  144.1470 N   0  0  0  0  0  0  0  0  0  0  0  0
  185.8380  178.6360  141.6990 N   0  0  0  0  0  0  0  0  0  0  0  0
  185.4090  178.2910  145.2110 N   0  0  0  0  0  0  0  0  0  0  0  0
  188.5270  178.2620  139.6710 C   0  0  0  0  0  0  0  0  0  0  0  0
  187.6640  178.2510  144.2120 C   0  0  1  0  0  3  0  0  0  0  0  0
  184.1140  178.5690  143.5140 C   0  0  0  0  0  0  0  0  0  0  0  0
  188.1620  177.9680  141.8660 N   0  0  0  0  0  0  0  0  0  0  0  0
  185.4160  178.4750  143.0640 C   0  0  0  0  0  0  0  0  0  0  0  0
  187.2880  178.6280  139.8010 N   0  0  0  0  0  0  0  0  0  0  0  0
  184.1400  178.4470  144.8570 N   0  0  0  0  0  0  0  0  0  0  0  0
  189.1380  177.8090  140.8830 N   0  0  0  0  0  2  0  0  0  0  0  0
  187.0150  178.4450  141.1840 C   0  0  0  0  0  0  0  0  0  0  0  0
  181.6930  179.1410  143.3820 C   0  0  0  0  0  3  0  0  0  0  0  0
  180.5200  179.1880  141.2650 C   0  0  0  0  0  3  0  0  0  0  0  0
  181.6980  178.8290  140.6060 C   0  0  0  0  0  3  0  0  0  0  0  0
  182.8730  178.6270  141.3350 C   0  0  0  0  0  3  0  0  0  0  0  0
  182.8810  178.7810  142.7290 C   0  0  0  0  0  0  0  0  0  0  0  0
  180.5170  179.3440  142.6530 C   0  0  0  0  0  3  0  0  0  0  0  0
  189.1440  177.1250  148.0920 C   0  0  0  0  0  3  0  0  0  0  0  0
  188.1630  177.8600  145.5730 C   0  0  0  0  0  0  0  0  0  0  0  0
  189.3820  177.1820  145.6820 C   0  0  0  0  0  3  0  0  0  0  0  0
  189.8720  176.8140  146.9390 C   0  0  0  0  0  3  0  0  0  0  0  0
  187.9270  177.8030  147.9890 C   0  0  0  0  0  3  0  0  0  0  0  0
  187.4360  178.1710  146.7320 C   0  0  0  0  0  3  0  0  0  0  0  0
  188.2310  178.5050  137.2430 C   0  0  0  0  0  1  0  0  0  0  0  0
  189.2250  178.2460  138.3580 C   0  0  0  0  0  2  0  0  0  0  0  0
  1  6  1  0  0  0  0
  2  6  1  0  0  0  0
  2  4  1  0  0  0  0
  3  9  1  0  0  0  0
  5 10  2  0  0  0  0
  5 12  1  0  0  0  0
  6 21  1  1  0  0  0
  7 11  1  0  0  0  0
  8  1  1  0  0  0  0
  9  7  2  0  0  0  0
  9  2  1  0  0  0  0
 10 13  1  0  0  0  0
 11  4  2  0  0  0  0
 12  8  1  0  0  0  0
 13  3  2  0  0  0  0
 13  8  1  0  0  0  0
 15 19  1  0  0  0  0
 16 15  2  0  0  0  0
 16 17  1  0  0  0  0
 17 18  2  0  0  0  0
 18 14  1  0  0  0  0
 18  7  1  0  0  0  0
 19 14  2  0  0  0  0
 21 22  2  0  0  0  0
 21 25  1  0  0  0  0
 22 23  1  0  0  0  0
 23 20  2  0  0  0  0
 24 20  1  0  0  0  0
 25 24  2  0  0  0  0
 26 27  1  0  0  0  0
 27  5  1  0  0  0  0
M  END
>  <MODEL>
9

>  <REMARK>
 VINA RESULT:      -9.2      1.332      1.832
  Name = 
  3 active torsions:
  status: ('A' for Active; 'I' for Inactive)
    1  A    between atoms: C_9  and  C_15
    2  A    between atoms: C_13  and  C_22
    3  A    between atoms: C_14  and  C_17
                            x       y       z     vdW  Elec       q    Type
                         _______ _______ _______ _____ _____    ______ ____

>  <TORSDO>
F 3

$$$$
