=
 OpenBabel11052412483D

 25 27  0  0  1  0  0  0  0  0999 V2000
  187.6070  178.2280  141.2060 C   0  0  0  0  0  0  0  0  0  0  0  0
  187.4830  178.6280  138.8060 O   0  0  0  0  0  1  0  0  0  0  0  0
  185.4670  178.6800  140.1350 C   0  0  0  0  0  0  0  0  0  0  0  0
  184.5060  179.0330  138.7100 Cl  0  0  0  0  0  0  0  0  0  0  0  0
  186.9510  178.1160  142.4360 C   0  0  0  0  0  3  0  0  0  0  0  0
  184.8280  178.5660  141.3710 C   0  0  0  0  0  3  0  0  0  0  0  0
  185.5670  178.2830  142.5280 C   0  0  0  0  0  0  0  0  0  0  0  0
  186.8560  178.5120  140.0430 C   0  0  0  0  0  0  0  0  0  0  0  0
  189.0990  178.0290  141.1940 C   0  0  1  0  0  3  0  0  0  0  0  0
  190.0700  177.0750  139.1750 N   0  0  0  0  0  1  0  0  0  0  0  0
  189.6610  177.8360  142.5440 C   0  0  0  0  0  0  0  0  0  0  0  0
  191.3160  177.2220  144.7850 C   0  0  0  0  0  2  0  0  0  0  0  0
  190.3050  176.5060  142.6550 C   0  0  2  0  0  3  0  0  0  0  0  0
  191.6200  176.6160  143.4140 C   0  0  0  0  0  2  0  0  0  0  0  0
  190.6960  178.6270  144.6670 C   0  0  0  0  0  2  0  0  0  0  0  0
  189.5070  176.7500  140.4720 C   0  0  1  0  0  3  0  0  0  0  0  0
  190.5090  176.0510  141.2850 N   0  0  0  0  0  2  0  0  0  0  0  0
  189.8290  178.8150  143.4430 C   0  0  0  0  0  3  0  0  0  0  0  0
  184.9250  178.1570  143.8440 C   0  0  0  0  0  3  0  0  0  0  0  0
  184.7450  179.1910  144.6570 C   0  0  0  0  0  3  0  0  0  0  0  0
  184.1160  179.0020  145.9220 N   0  0  0  0  0  2  0  0  0  0  0  0
  184.7880  178.3510  146.9640 N   0  0  0  0  0  2  0  0  0  0  0  0
  186.0590  179.0330  147.1580 C   0  0  0  0  0  2  0  0  0  0  0  0
  187.1570  178.0220  147.4330 C   0  0  0  0  0  2  0  0  0  0  0  0
  187.7290  177.5010  146.1290 C   0  0  0  0  0  1  0  0  0  0  0  0
  1  5  1  0  0  0  0
  2  8  1  0  0  0  0
  3  6  2  0  0  0  0
  4  3  1  0  0  0  0
  5  7  2  0  0  0  0
  6  7  1  0  0  0  0
  7 19  1  0  0  0  0
  8  3  1  0  0  0  0
  8  1  2  0  0  0  0
  9  1  1  1  0  0  0
  9 11  1  0  0  0  0
 11 13  1  0  0  0  0
 11 18  2  0  0  0  0
 13 14  1  6  0  0  0
 14 12  1  0  0  0  0
 15 12  1  0  0  0  0
 16 10  1  6  0  0  0
 16  9  1  0  0  0  0
 16 17  1  0  0  0  0
 17 13  1  0  0  0  0
 18 15  1  0  0  0  0
 19 20  2  0  0  0  0
 20 21  1  0  0  0  0
 21 22  1  0  0  0  0
 22 23  1  0  0  0  0
 23 24  1  0  0  0  0
 25 24  1  0  0  0  0
M  END
>  <MODEL>
1

>  <REMARK>
 VINA RESULT:      -7.9      0.000      0.000
  Name = 
  6 active torsions:
  status: ('A' for Active; 'I' for Inactive)
    1  A    between atoms: C_1  and  C_3
    2  A    between atoms: C_2  and  C_12
    3  A    between atoms: C_6  and  C_23
    4  A    between atoms: C_12  and  N_25
    5  A    between atoms: C_15  and  N_21
    6  A    between atoms: N_21  and  N_25
                            x       y       z     vdW  Elec       q    Type
                         _______ _______ _______ _____ _____    ______ ____

>  <TORSDO>
F 6

$$$$
=
 OpenBabel11052412483D

 25 27  0  0  1  0  0  0  0  0999 V2000
  186.5270  177.8080  144.3260 C   0  0  0  0  0  0  0  0  0  0  0  0
  185.0640  177.8710  146.2720 O   0  0  0  0  0  1  0  0  0  0  0  0
  184.2830  178.7390  144.1580 C   0  0  0  0  0  0  0  0  0  0  0  0
  182.7370  179.1620  144.8720 Cl  0  0  0  0  0  0  0  0  0  0  0  0
  186.7290  178.0870  142.9700 C   0  0  0  0  0  3  0  0  0  0  0  0
  184.5010  179.0110  142.8060 C   0  0  0  0  0  3  0  0  0  0  0  0
  185.7250  178.6860  142.2050 C   0  0  0  0  0  0  0  0  0  0  0  0
  185.2910  178.1380  144.9250 C   0  0  0  0  0  0  0  0  0  0  0  0
  187.6610  177.1660  145.0780 C   0  0  1  0  0  3  0  0  0  0  0  0
  187.6920  177.4660  147.4950 N   0  0  0  0  0  1  0  0  0  0  0  0
  188.8760  177.0070  144.2570 C   0  0  0  0  0  0  0  0  0  0  0  0
  191.5350  176.5980  143.3080 C   0  0  0  0  0  2  0  0  0  0  0  0
  190.0020  177.7740  144.8380 C   0  0  2  0  0  3  0  0  0  0  0  0
  191.2870  176.9590  144.7740 C   0  0  0  0  0  2  0  0  0  0  0  0
  190.3870  175.7550  142.7220 C   0  0  0  0  0  2  0  0  0  0  0  0
  188.1490  178.0280  146.2380 C   0  0  1  0  0  3  0  0  0  0  0  0
  189.6160  178.0620  146.2140 N   0  0  0  0  0  2  0  0  0  0  0  0
  189.0280  176.0820  143.2990 C   0  0  0  0  0  3  0  0  0  0  0  0
  185.9850  178.9590  140.7850 C   0  0  0  0  0  3  0  0  0  0  0  0
  185.1830  178.5380  139.8150 C   0  0  0  0  0  3  0  0  0  0  0  0
  185.4920  178.8350  138.4550 N   0  0  0  0  0  2  0  0  0  0  0  0
  186.7960  178.6750  137.9670 N   0  0  0  0  0  2  0  0  0  0  0  0
  186.9700  177.2670  137.6410 C   0  0  0  0  0  2  0  0  0  0  0  0
  188.4010  176.8420  137.9160 C   0  0  0  0  0  2  0  0  0  0  0  0
  188.8380  177.3240  139.2860 C   0  0  0  0  0  1  0  0  0  0  0  0
  1  8  1  0  0  0  0
  3  4  1  0  0  0  0
  3  8  2  0  0  0  0
  5  1  2  0  0  0  0
  6  3  1  0  0  0  0
  7  6  2  0  0  0  0
  7  5  1  0  0  0  0
  8  2  1  0  0  0  0
  9  1  1  6  0  0  0
  9 16  1  0  0  0  0
 11 13  1  0  0  0  0
 11  9  1  0  0  0  0
 12 14  1  0  0  0  0
 13 14  1  1  0  0  0
 13 17  1  0  0  0  0
 15 18  1  0  0  0  0
 15 12  1  0  0  0  0
 16 10  1  1  0  0  0
 17 16  1  0  0  0  0
 18 11  2  0  0  0  0
 19  7  1  0  0  0  0
 20 19  2  0  0  0  0
 21 20  1  0  0  0  0
 22 21  1  0  0  0  0
 23 24  1  0  0  0  0
 23 22  1  0  0  0  0
 24 25  1  0  0  0  0
M  END
>  <MODEL>
2

>  <REMARK>
 VINA RESULT:      -7.6      2.909      5.549
  Name = 
  6 active torsions:
  status: ('A' for Active; 'I' for Inactive)
    1  A    between atoms: C_1  and  C_3
    2  A    between atoms: C_2  and  C_12
    3  A    between atoms: C_6  and  C_23
    4  A    between atoms: C_12  and  N_25
    5  A    between atoms: C_15  and  N_21
    6  A    between atoms: N_21  and  N_25
                            x       y       z     vdW  Elec       q    Type
                         _______ _______ _______ _____ _____    ______ ____

>  <TORSDO>
F 6

$$$$
=
 OpenBabel11052412483D

 25 27  0  0  1  0  0  0  0  0999 V2000
  188.4560  177.6160  141.9260 C   0  0  0  0  0  0  0  0  0  0  0  0
  188.3430  177.3040  139.5120 O   0  0  0  0  0  1  0  0  0  0  0  0
  190.4830  177.2370  140.6300 C   0  0  0  0  0  0  0  0  0  0  0  0
  191.3010  176.9520  139.1040 Cl  0  0  0  0  0  0  0  0  0  0  0  0
  189.2300  177.6930  143.0870 C   0  0  0  0  0  3  0  0  0  0  0  0
  191.2410  177.3180  141.8000 C   0  0  0  0  0  3  0  0  0  0  0  0
  190.6180  177.5460  143.0350 C   0  0  0  0  0  0  0  0  0  0  0  0
  189.0900  177.3860  140.6840 C   0  0  0  0  0  0  0  0  0  0  0  0
  186.9680  177.7900  142.0700 C   0  0  1  0  0  3  0  0  0  0  0  0
  185.7600  178.6200  140.1250 N   0  0  0  0  0  1  0  0  0  0  0  0
  186.5540  178.0460  143.4620 C   0  0  0  0  0  0  0  0  0  0  0  0
  185.1440  178.7520  145.8390 C   0  0  0  0  0  2  0  0  0  0  0  0
  185.8980  179.3690  143.5760 C   0  0  2  0  0  3  0  0  0  0  0  0
  184.6770  179.2800  144.4810 C   0  0  0  0  0  2  0  0  0  0  0  0
  185.7770  177.3530  145.7250 C   0  0  0  0  0  2  0  0  0  0  0  0
  186.4550  179.0230  141.3330 C   0  0  1  0  0  3  0  0  0  0  0  0
  185.5340  179.7490  142.2160 N   0  0  0  0  0  2  0  0  0  0  0  0
  186.5070  177.1130  144.4230 C   0  0  0  0  0  3  0  0  0  0  0  0
  191.3870  177.6350  144.2830 C   0  0  0  0  0  3  0  0  0  0  0  0
  191.2610  176.7540  145.2680 C   0  0  0  0  0  3  0  0  0  0  0  0
  192.0360  176.8970  146.4560 N   0  0  0  0  0  2  0  0  0  0  0  0
  191.4150  176.9780  147.7100 N   0  0  0  0  0  2  0  0  0  0  0  0
  189.9770  176.9580  147.4870 C   0  0  0  0  0  2  0  0  0  0  0  0
  189.3250  178.1380  148.1820 C   0  0  0  0  0  2  0  0  0  0  0  0
  187.9350  177.7640  148.6610 C   0  0  0  0  0  1  0  0  0  0  0  0
  1  5  1  0  0  0  0
  2  8  1  0  0  0  0
  3  8  1  0  0  0  0
  3  6  2  0  0  0  0
  4  3  1  0  0  0  0
  6  7  1  0  0  0  0
  7  5  2  0  0  0  0
  7 19  1  0  0  0  0
  8  1  2  0  0  0  0
  9  1  1  1  0  0  0
  9 11  1  0  0  0  0
 11 13  1  0  0  0  0
 11 18  2  0  0  0  0
 13 14  1  1  0  0  0
 14 12  1  0  0  0  0
 15 12  1  0  0  0  0
 16 10  1  6  0  0  0
 16  9  1  0  0  0  0
 16 17  1  0  0  0  0
 17 13  1  0  0  0  0
 18 15  1  0  0  0  0
 19 20  2  0  0  0  0
 20 21  1  0  0  0  0
 21 22  1  0  0  0  0
 23 22  1  0  0  0  0
 23 24  1  0  0  0  0
 24 25  1  0  0  0  0
M  END
>  <MODEL>
3

>  <REMARK>
 VINA RESULT:      -7.5      2.847      5.143
  Name = 
  6 active torsions:
  status: ('A' for Active; 'I' for Inactive)
    1  A    between atoms: C_1  and  C_3
    2  A    between atoms: C_2  and  C_12
    3  A    between atoms: C_6  and  C_23
    4  A    between atoms: C_12  and  N_25
    5  A    between atoms: C_15  and  N_21
    6  A    between atoms: N_21  and  N_25
                            x       y       z     vdW  Elec       q    Type
                         _______ _______ _______ _____ _____    ______ ____

>  <TORSDO>
F 6

$$$$
=
 OpenBabel11052412483D

 25 27  0  0  1  0  0  0  0  0999 V2000
  187.6750  177.5980  144.4830 C   0  0  0  0  0  0  0  0  0  0  0  0
  187.5690  177.2500  146.8920 O   0  0  0  0  0  1  0  0  0  0  0  0
  185.6580  178.1590  145.7280 C   0  0  0  0  0  0  0  0  0  0  0  0
  184.7570  178.2590  147.2310 Cl  0  0  0  0  0  0  0  0  0  0  0  0
  187.0490  178.0230  143.3070 C   0  0  0  0  0  3  0  0  0  0  0  0
  185.0490  178.5800  144.5440 C   0  0  0  0  0  3  0  0  0  0  0  0
  185.7420  178.5140  143.3280 C   0  0  0  0  0  0  0  0  0  0  0  0
  186.9710  177.6670  145.7070 C   0  0  0  0  0  0  0  0  0  0  0  0
  189.0860  177.0870  144.3740 C   0  0  1  0  0  3  0  0  0  0  0  0
  190.4140  177.0650  146.4160 N   0  0  0  0  0  1  0  0  0  0  0  0
  189.6580  177.2700  143.0270 C   0  0  0  0  0  0  0  0  0  0  0  0
  191.3820  177.4990  140.7660 C   0  0  0  0  0  2  0  0  0  0  0  0
  190.8470  178.1520  143.0800 C   0  0  2  0  0  3  0  0  0  0  0  0
  191.9500  177.6090  142.1820 C   0  0  0  0  0  2  0  0  0  0  0  0
  190.1780  176.5400  140.7030 C   0  0  0  0  0  2  0  0  0  0  0  0
  190.0530  177.8650  145.2600 C   0  0  1  0  0  3  0  0  0  0  0  0
  191.2570  178.1780  144.4800 N   0  0  0  0  0  2  0  0  0  0  0  0
  189.3380  176.5250  141.9600 C   0  0  0  0  0  3  0  0  0  0  0  0
  185.1290  178.9480  142.0650 C   0  0  0  0  0  3  0  0  0  0  0  0
  185.7590  178.8740  140.8990 C   0  0  0  0  0  3  0  0  0  0  0  0
  185.1090  179.3140  139.7090 N   0  0  0  0  0  2  0  0  0  0  0  0
  185.6180  178.9720  138.4490 N   0  0  0  0  0  2  0  0  0  0  0  0
  186.8340  178.2030  138.6630 C   0  0  0  0  0  2  0  0  0  0  0  0
  187.6520  178.1520  137.3850 C   0  0  0  0  0  2  0  0  0  0  0  0
  189.0670  178.6300  137.6480 C   0  0  0  0  0  1  0  0  0  0  0  0
  1  8  1  0  0  0  0
  3  4  1  0  0  0  0
  5  7  1  0  0  0  0
  5  1  2  0  0  0  0
  6  3  1  0  0  0  0
  7  6  2  0  0  0  0
  8  3  2  0  0  0  0
  8  2  1  0  0  0  0
  9  1  1  6  0  0  0
  9 16  1  0  0  0  0
 11 13  1  0  0  0  0
 11  9  1  0  0  0  0
 12 14  1  0  0  0  0
 13 14  1  6  0  0  0
 13 17  1  0  0  0  0
 15 12  1  0  0  0  0
 15 18  1  0  0  0  0
 16 10  1  1  0  0  0
 17 16  1  0  0  0  0
 18 11  2  0  0  0  0
 19  7  1  0  0  0  0
 20 19  2  0  0  0  0
 21 20  1  0  0  0  0
 22 23  1  0  0  0  0
 22 21  1  0  0  0  0
 24 25  1  0  0  0  0
 24 23  1  0  0  0  0
M  END
>  <MODEL>
4

>  <REMARK>
 VINA RESULT:      -7.4      3.370      5.527
  Name = 
  6 active torsions:
  status: ('A' for Active; 'I' for Inactive)
    1  A    between atoms: C_1  and  C_3
    2  A    between atoms: C_2  and  C_12
    3  A    between atoms: C_6  and  C_23
    4  A    between atoms: C_12  and  N_25
    5  A    between atoms: C_15  and  N_21
    6  A    between atoms: N_21  and  N_25
                            x       y       z     vdW  Elec       q    Type
                         _______ _______ _______ _____ _____    ______ ____

>  <TORSDO>
F 6

$$$$
=
 OpenBabel11052412483D

 25 27  0  0  1  0  0  0  0  0999 V2000
  185.8270  178.1770  143.4990 C   0  0  0  0  0  0  0  0  0  0  0  0
  183.4550  178.5930  143.1340 O   0  0  0  0  0  1  0  0  0  0  0  0
  184.9930  178.7240  141.2770 C   0  0  0  0  0  0  0  0  0  0  0  0
  183.6800  179.1250  140.1840 Cl  0  0  0  0  0  0  0  0  0  0  0  0
  187.1210  178.0890  142.9750 C   0  0  0  0  0  3  0  0  0  0  0  0
  186.2910  178.6310  140.7710 C   0  0  0  0  0  3  0  0  0  0  0  0
  187.3610  178.3130  141.6180 C   0  0  0  0  0  0  0  0  0  0  0  0
  184.7520  178.4990  142.6400 C   0  0  0  0  0  0  0  0  0  0  0  0
  185.6550  177.9250  144.9720 C   0  0  1  0  0  3  0  0  0  0  0  0
  183.5500  178.6280  145.9750 N   0  0  0  0  0  1  0  0  0  0  0  0
  186.9380  177.8900  145.7000 C   0  0  0  0  0  0  0  0  0  0  0  0
  188.9910  177.8970  147.6800 C   0  0  0  0  0  2  0  0  0  0  0  0
  186.9890  178.9630  146.7190 C   0  0  2  0  0  3  0  0  0  0  0  0
  187.6000  178.4390  148.0110 C   0  0  0  0  0  2  0  0  0  0  0  0
  188.9310  176.7440  146.6600 C   0  0  0  0  0  2  0  0  0  0  0  0
  184.9030  179.0540  145.6690 C   0  0  1  0  0  3  0  0  0  0  0  0
  185.6080  179.3920  146.9110 N   0  0  0  0  0  2  0  0  0  0  0  0
  187.8060  176.8700  145.6570 C   0  0  0  0  0  3  0  0  0  0  0  0
  188.7380  178.2080  141.1160 C   0  0  0  0  0  3  0  0  0  0  0  0
  189.4320  177.0760  141.1560 C   0  0  0  0  0  3  0  0  0  0  0  0
  190.7660  177.0400  140.6540 N   0  0  0  0  0  2  0  0  0  0  0  0
  191.8270  177.5630  141.4050 N   0  0  0  0  0  2  0  0  0  0  0  0
  191.6510  177.1180  142.7790 C   0  0  0  0  0  2  0  0  0  0  0  0
  191.8890  178.2710  143.7350 C   0  0  0  0  0  2  0  0  0  0  0  0
  190.5730  178.9280  144.1040 C   0  0  0  0  0  1  0  0  0  0  0  0
  3  8  1  0  0  0  0
  4  3  1  0  0  0  0
  5  1  1  0  0  0  0
  6  3  2  0  0  0  0
  6  7  1  0  0  0  0
  7  5  2  0  0  0  0
  8  2  1  0  0  0  0
  8  1  2  0  0  0  0
  9  1  1  6  0  0  0
  9 16  1  0  0  0  0
  9 11  1  0  0  0  0
 11 13  1  0  0  0  0
 12 14  1  0  0  0  0
 13 17  1  0  0  0  0
 13 14  1  1  0  0  0
 15 12  1  0  0  0  0
 16 10  1  1  0  0  0
 16 17  1  0  0  0  0
 18 11  2  0  0  0  0
 18 15  1  0  0  0  0
 19 20  2  0  0  0  0
 19  7  1  0  0  0  0
 21 20  1  0  0  0  0
 21 22  1  0  0  0  0
 22 23  1  0  0  0  0
 23 24  1  0  0  0  0
 24 25  1  0  0  0  0
M  END
>  <MODEL>
5

>  <REMARK>
 VINA RESULT:      -7.4      1.612      5.495
  Name = 
  6 active torsions:
  status: ('A' for Active; 'I' for Inactive)
    1  A    between atoms: C_1  and  C_3
    2  A    between atoms: C_2  and  C_12
    3  A    between atoms: C_6  and  C_23
    4  A    between atoms: C_12  and  N_25
    5  A    between atoms: C_15  and  N_21
    6  A    between atoms: N_21  and  N_25
                            x       y       z     vdW  Elec       q    Type
                         _______ _______ _______ _____ _____    ______ ____

>  <TORSDO>
F 6

$$$$
=
 OpenBabel11052412483D

 25 27  0  0  1  0  0  0  0  0999 V2000
  188.7080  177.2990  145.4570 C   0  0  0  0  0  0  0  0  0  0  0  0
  189.7920  176.8230  147.5860 O   0  0  0  0  0  1  0  0  0  0  0  0
  187.6010  177.8390  147.5590 C   0  0  0  0  0  0  0  0  0  0  0  0
  187.5680  177.8780  149.3120 Cl  0  0  0  0  0  0  0  0  0  0  0  0
  187.6030  177.8030  144.7630 C   0  0  0  0  0  3  0  0  0  0  0  0
  186.5070  178.3390  146.8490 C   0  0  0  0  0  3  0  0  0  0  0  0
  186.5030  178.3230  145.4480 C   0  0  0  0  0  0  0  0  0  0  0  0
  188.7060  177.3180  146.8700 C   0  0  0  0  0  0  0  0  0  0  0  0
  189.8530  176.7620  144.6430 C   0  0  1  0  0  3  0  0  0  0  0  0
  191.9540  176.3770  145.8130 N   0  0  0  0  0  1  0  0  0  0  0  0
  189.7650  177.1300  143.2180 C   0  0  0  0  0  0  0  0  0  0  0  0
  190.2840  177.6440  140.4600 C   0  0  0  0  0  2  0  0  0  0  0  0
  190.9320  177.9500  142.8180 C   0  0  2  0  0  3  0  0  0  0  0  0
  191.4420  177.5140  141.4510 C   0  0  0  0  0  2  0  0  0  0  0  0
  189.0920  176.7500  140.8490 C   0  0  0  0  0  2  0  0  0  0  0  0
  191.1920  177.3580  145.0630 C   0  0  1  0  0  3  0  0  0  0  0  0
  191.9340  177.7450  143.8570 N   0  0  0  0  0  2  0  0  0  0  0  0
  188.9200  176.5710  142.3410 C   0  0  0  0  0  3  0  0  0  0  0  0
  185.3670  178.8410  144.6730 C   0  0  0  0  0  3  0  0  0  0  0  0
  184.1250  178.8570  145.1420 C   0  0  0  0  0  3  0  0  0  0  0  0
  183.0660  179.3720  144.3400 N   0  0  0  0  0  2  0  0  0  0  0  0
  182.7240  178.7580  143.1270 N   0  0  0  0  0  2  0  0  0  0  0  0
  181.3090  179.0040  142.8960 C   0  0  0  0  0  2  0  0  0  0  0  0
  180.4790  178.3250  143.9690 C   0  0  0  0  0  2  0  0  0  0  0  0
  179.2160  179.1200  144.2380 C   0  0  0  0  0  1  0  0  0  0  0  0
  1  8  1  0  0  0  0
  3  4  1  0  0  0  0
  5  7  1  0  0  0  0
  5  1  2  0  0  0  0
  6  3  1  0  0  0  0
  7  6  2  0  0  0  0
  8  3  2  0  0  0  0
  8  2  1  0  0  0  0
  9 16  1  0  0  0  0
  9  1  1  1  0  0  0
 11  9  1  0  0  0  0
 12 15  1  0  0  0  0
 12 14  1  0  0  0  0
 13 14  1  6  0  0  0
 13 11  1  0  0  0  0
 13 17  1  0  0  0  0
 15 18  1  0  0  0  0
 16 10  1  6  0  0  0
 17 16  1  0  0  0  0
 18 11  2  0  0  0  0
 19 20  2  0  0  0  0
 19  7  1  0  0  0  0
 21 20  1  0  0  0  0
 22 21  1  0  0  0  0
 23 22  1  0  0  0  0
 23 24  1  0  0  0  0
 24 25  1  0  0  0  0
M  END
>  <MODEL>
6

>  <REMARK>
 VINA RESULT:      -7.1      3.709      5.455
  Name = 
  6 active torsions:
  status: ('A' for Active; 'I' for Inactive)
    1  A    between atoms: C_1  and  C_3
    2  A    between atoms: C_2  and  C_12
    3  A    between atoms: C_6  and  C_23
    4  A    between atoms: C_12  and  N_25
    5  A    between atoms: C_15  and  N_21
    6  A    between atoms: N_21  and  N_25
                            x       y       z     vdW  Elec       q    Type
                         _______ _______ _______ _____ _____    ______ ____

>  <TORSDO>
F 6

$$$$
=
 OpenBabel11052412483D

 25 27  0  0  1  0  0  0  0  0999 V2000
  187.7610  177.5030  144.5720 C   0  0  0  0  0  0  0  0  0  0  0  0
  187.7180  177.2950  146.9990 O   0  0  0  0  0  1  0  0  0  0  0  0
  185.7590  178.0870  145.8300 C   0  0  0  0  0  0  0  0  0  0  0  0
  184.8900  178.2530  147.3450 Cl  0  0  0  0  0  0  0  0  0  0  0  0
  187.0980  177.8440  143.3880 C   0  0  0  0  0  3  0  0  0  0  0  0
  185.1120  178.4230  144.6380 C   0  0  0  0  0  3  0  0  0  0  0  0
  185.7790  178.3030  143.4120 C   0  0  0  0  0  0  0  0  0  0  0  0
  187.0830  177.6270  145.8060 C   0  0  0  0  0  0  0  0  0  0  0  0
  189.1820  177.0220  144.4590 C   0  0  1  0  0  3  0  0  0  0  0  0
  190.5100  177.0120  146.5000 N   0  0  0  0  0  1  0  0  0  0  0  0
  189.7490  177.2250  143.1130 C   0  0  0  0  0  0  0  0  0  0  0  0
  191.4680  177.5030  140.8520 C   0  0  0  0  0  2  0  0  0  0  0  0
  190.9210  178.1290  143.1720 C   0  0  2  0  0  3  0  0  0  0  0  0
  192.0340  177.6150  142.2690 C   0  0  0  0  0  2  0  0  0  0  0  0
  190.2830  176.5210  140.7830 C   0  0  0  0  0  2  0  0  0  0  0  0
  190.1340  177.8130  145.3490 C   0  0  1  0  0  3  0  0  0  0  0  0
  191.3310  178.1540  144.5710 N   0  0  0  0  0  2  0  0  0  0  0  0
  189.4440  176.4810  142.0410 C   0  0  0  0  0  3  0  0  0  0  0  0
  185.1270  178.6480  142.1410 C   0  0  0  0  0  3  0  0  0  0  0  0
  185.8050  179.0450  141.0710 C   0  0  0  0  0  3  0  0  0  0  0  0
  185.1130  179.3660  139.8670 N   0  0  0  0  0  2  0  0  0  0  0  0
  185.2940  178.5950  138.7110 N   0  0  0  0  0  2  0  0  0  0  0  0
  183.9740  178.2510  138.2040 C   0  0  0  0  0  2  0  0  0  0  0  0
  182.9850  178.1530  139.3500 C   0  0  0  0  0  2  0  0  0  0  0  0
  182.6790  176.7000  139.6590 C   0  0  0  0  0  1  0  0  0  0  0  0
  1  8  1  0  0  0  0
  3  4  1  0  0  0  0
  5  7  1  0  0  0  0
  5  1  2  0  0  0  0
  6  3  1  0  0  0  0
  7  6  2  0  0  0  0
  8  3  2  0  0  0  0
  8  2  1  0  0  0  0
  9  1  1  6  0  0  0
  9 16  1  0  0  0  0
 11 13  1  0  0  0  0
 11  9  1  0  0  0  0
 12 14  1  0  0  0  0
 13 14  1  6  0  0  0
 13 17  1  0  0  0  0
 15 12  1  0  0  0  0
 15 18  1  0  0  0  0
 16 10  1  1  0  0  0
 17 16  1  0  0  0  0
 18 11  2  0  0  0  0
 19  7  1  0  0  0  0
 20 19  2  0  0  0  0
 21 20  1  0  0  0  0
 22 21  1  0  0  0  0
 23 22  1  0  0  0  0
 23 24  1  0  0  0  0
 24 25  1  0  0  0  0
M  END
>  <MODEL>
7

>  <REMARK>
 VINA RESULT:      -7.0      3.437      5.481
  Name = 
  6 active torsions:
  status: ('A' for Active; 'I' for Inactive)
    1  A    between atoms: C_1  and  C_3
    2  A    between atoms: C_2  and  C_12
    3  A    between atoms: C_6  and  C_23
    4  A    between atoms: C_12  and  N_25
    5  A    between atoms: C_15  and  N_21
    6  A    between atoms: N_21  and  N_25
                            x       y       z     vdW  Elec       q    Type
                         _______ _______ _______ _____ _____    ______ ____

>  <TORSDO>
F 6

$$$$
=
 OpenBabel11052412483D

 25 27  0  0  1  0  0  0  0  0999 V2000
  189.6700  177.6840  140.2070 C   0  0  0  0  0  0  0  0  0  0  0  0
  192.0710  177.4610  140.5500 O   0  0  0  0  0  1  0  0  0  0  0  0
  190.5910  177.5400  142.4570 C   0  0  0  0  0  0  0  0  0  0  0  0
  191.9530  177.3900  143.5530 Cl  0  0  0  0  0  0  0  0  0  0  0  0
  188.3870  177.7840  140.7540 C   0  0  0  0  0  3  0  0  0  0  0  0
  189.3030  177.6410  142.9870 C   0  0  0  0  0  3  0  0  0  0  0  0
  188.1950  177.7630  142.1380 C   0  0  0  0  0  0  0  0  0  0  0  0
  190.7830  177.5610  141.0680 C   0  0  0  0  0  0  0  0  0  0  0  0
  189.7890  177.7190  138.7070 C   0  0  1  0  0  3  0  0  0  0  0  0
  189.0550  179.7530  137.5880 N   0  0  0  0  0  1  0  0  0  0  0  0
  189.7230  176.3780  138.0970 C   0  0  0  0  0  0  0  0  0  0  0  0
  189.4780  174.1630  136.3160 C   0  0  0  0  0  2  0  0  0  0  0  0
  188.5590  176.2770  137.1860 C   0  0  2  0  0  3  0  0  0  0  0  0
  188.9450  175.5390  135.9120 C   0  0  0  0  0  2  0  0  0  0  0  0
  190.7200  174.2710  137.2190 C   0  0  0  0  0  2  0  0  0  0  0  0
  188.6220  178.4480  138.0500 C   0  0  1  0  0  3  0  0  0  0  0  0
  188.1520  177.6500  136.9110 N   0  0  0  0  0  2  0  0  0  0  0  0
  190.7190  175.4820  138.1250 C   0  0  0  0  0  3  0  0  0  0  0  0
  186.8270  177.8710  142.6640 C   0  0  0  0  0  3  0  0  0  0  0  0
  185.9940  178.8400  142.3040 C   0  0  0  0  0  3  0  0  0  0  0  0
  184.6790  178.8890  142.8520 N   0  0  0  0  0  2  0  0  0  0  0  0
  184.3840  179.7360  143.9290 N   0  0  0  0  0  2  0  0  0  0  0  0
  184.1480  178.8960  145.0930 C   0  0  0  0  0  2  0  0  0  0  0  0
  185.3120  179.0070  146.0610 C   0  0  0  0  0  2  0  0  0  0  0  0
  186.1300  177.7300  146.0470 C   0  0  0  0  0  1  0  0  0  0  0  0
  1  5  2  0  0  0  0
  1  8  1  0  0  0  0
  2  8  1  0  0  0  0
  3  6  1  0  0  0  0
  3  4  1  0  0  0  0
  5  7  1  0  0  0  0
  7 19  1  0  0  0  0
  7  6  2  0  0  0  0
  8  3  2  0  0  0  0
  9  1  1  1  0  0  0
 11 18  2  0  0  0  0
 11  9  1  0  0  0  0
 12 15  1  0  0  0  0
 13 14  1  6  0  0  0
 13 11  1  0  0  0  0
 14 12  1  0  0  0  0
 15 18  1  0  0  0  0
 16 10  1  6  0  0  0
 16  9  1  0  0  0  0
 17 13  1  0  0  0  0
 17 16  1  0  0  0  0
 20 19  2  0  0  0  0
 20 21  1  0  0  0  0
 21 22  1  0  0  0  0
 22 23  1  0  0  0  0
 23 24  1  0  0  0  0
 25 24  1  0  0  0  0
M  END
>  <MODEL>
8

>  <REMARK>
 VINA RESULT:      -6.9      3.202      4.987
  Name = 
  6 active torsions:
  status: ('A' for Active; 'I' for Inactive)
    1  A    between atoms: C_1  and  C_3
    2  A    between atoms: C_2  and  C_12
    3  A    between atoms: C_6  and  C_23
    4  A    between atoms: C_12  and  N_25
    5  A    between atoms: C_15  and  N_21
    6  A    between atoms: N_21  and  N_25
                            x       y       z     vdW  Elec       q    Type
                         _______ _______ _______ _____ _____    ______ ____

>  <TORSDO>
F 6

$$$$
=
 OpenBabel11052412483D

 25 27  0  0  1  0  0  0  0  0999 V2000
  189.3320  176.9560  145.2010 C   0  0  0  0  0  0  0  0  0  0  0  0
  191.4570  177.0700  146.3870 O   0  0  0  0  0  1  0  0  0  0  0  0
  189.4380  177.8350  147.4700 C   0  0  0  0  0  0  0  0  0  0  0  0
  190.3410  178.2560  148.9140 Cl  0  0  0  0  0  0  0  0  0  0  0  0
  187.9520  177.1830  145.1940 C   0  0  0  0  0  3  0  0  0  0  0  0
  188.0600  178.0550  147.4450 C   0  0  0  0  0  3  0  0  0  0  0  0
  187.3100  177.7300  146.3070 C   0  0  0  0  0  0  0  0  0  0  0  0
  190.0820  177.2850  146.3520 C   0  0  0  0  0  0  0  0  0  0  0  0
  189.9460  176.3670  143.9600 C   0  0  1  0  0  3  0  0  0  0  0  0
  191.9970  175.0860  144.2430 N   0  0  0  0  0  1  0  0  0  0  0  0
  189.6200  177.1330  142.7420 C   0  0  0  0  0  0  0  0  0  0  0  0
  189.5340  178.2360  140.1120 C   0  0  0  0  0  2  0  0  0  0  0  0
  190.8520  177.6650  142.1150 C   0  0  2  0  0  3  0  0  0  0  0  0
  190.7870  177.5070  140.6020 C   0  0  0  0  0  2  0  0  0  0  0  0
  188.2500  177.6460  140.7250 C   0  0  0  0  0  2  0  0  0  0  0  0
  191.4700  176.4140  143.9900 C   0  0  1  0  0  3  0  0  0  0  0  0
  191.9510  176.8980  142.6900 N   0  0  0  0  0  2  0  0  0  0  0  0
  188.4290  177.1100  142.1280 C   0  0  0  0  0  3  0  0  0  0  0  0
  185.8580  177.9500  146.2490 C   0  0  0  0  0  3  0  0  0  0  0  0
  185.3000  178.8560  145.4560 C   0  0  0  0  0  3  0  0  0  0  0  0
  183.8840  179.0210  145.4470 N   0  0  0  0  0  2  0  0  0  0  0  0
  183.1530  178.8600  144.2630 N   0  0  0  0  0  2  0  0  0  0  0  0
  184.0030  179.2910  143.1630 C   0  0  0  0  0  2  0  0  0  0  0  0
  183.8360  178.3570  141.9780 C   0  0  0  0  0  2  0  0  0  0  0  0
  184.7530  178.7760  140.8460 C   0  0  0  0  0  1  0  0  0  0  0  0
  1  8  1  0  0  0  0
  3  4  1  0  0  0  0
  5  1  2  0  0  0  0
  5  7  1  0  0  0  0
  6  3  1  0  0  0  0
  7  6  2  0  0  0  0
  8  2  1  0  0  0  0
  8  3  2  0  0  0  0
  9 16  1  0  0  0  0
  9  1  1  1  0  0  0
 11  9  1  0  0  0  0
 12 14  1  0  0  0  0
 12 15  1  0  0  0  0
 13 14  1  6  0  0  0
 13 17  1  0  0  0  0
 13 11  1  0  0  0  0
 15 18  1  0  0  0  0
 16 10  1  6  0  0  0
 17 16  1  0  0  0  0
 18 11  2  0  0  0  0
 19  7  1  0  0  0  0
 20 19  2  0  0  0  0
 21 20  1  0  0  0  0
 22 21  1  0  0  0  0
 23 22  1  0  0  0  0
 24 23  1  0  0  0  0
 25 24  1  0  0  0  0
M  END
>  <MODEL>
9

>  <REMARK>
 VINA RESULT:      -6.9      3.302      5.224
  Name = 
  6 active torsions:
  status: ('A' for Active; 'I' for Inactive)
    1  A    between atoms: C_1  and  C_3
    2  A    between atoms: C_2  and  C_12
    3  A    between atoms: C_6  and  C_23
    4  A    between atoms: C_12  and  N_25
    5  A    between atoms: C_15  and  N_21
    6  A    between atoms: N_21  and  N_25
                            x       y       z     vdW  Elec       q    Type
                         _______ _______ _______ _____ _____    ______ ____

>  <TORSDO>
F 6

$$$$
