=
 OpenBabel11052412463D

 25 28  0  0  1  0  0  0  0  0999 V2000
  187.1600  177.8670  145.3650 C   0  0  0  0  0  0  0  0  0  0  0  0
  188.4330  177.4320  144.9600 C   0  0  0  0  0  0  0  0  0  0  0  0
  187.8480  177.8320  147.7070 C   0  0  0  0  0  3  0  0  0  0  0  0
  186.0450  178.1580  144.5610 C   0  0  0  0  0  0  0  0  0  0  0  0
  183.6410  178.8220  143.3030 C   0  0  0  0  0  3  0  0  0  0  0  0
  189.1200  177.3990  147.3110 C   0  0  0  0  0  3  0  0  0  0  0  0
  184.9380  178.5670  145.3020 C   0  0  0  0  0  0  0  0  0  0  0  0
  183.7270  178.9030  144.7000 C   0  0  0  0  0  3  0  0  0  0  0  0
  190.6970  176.7610  145.5400 C   0  0  0  0  0  0  0  0  0  0  0  0
  191.7900  176.4920  146.5200 C   0  0  0  0  0  1  0  0  0  0  0  0
  188.7290  177.2360  143.6470 N   0  0  0  0  0  0  0  0  0  0  0  0
  184.7500  178.4110  142.5410 C   0  0  0  0  0  3  0  0  0  0  0  0
  186.8920  178.0580  146.7210 C   0  0  0  0  0  0  0  0  0  0  0  0
  185.3030  178.5790  146.9460 S   0  0  0  0  0  0  0  0  0  0  0  0
  190.9580  176.5720  144.1820 C   0  0  0  0  0  3  0  0  0  0  0  0
  185.9600  178.0760  143.1670 C   0  0  0  0  0  3  0  0  0  0  0  0
  189.9580  176.8150  143.2380 C   0  0  0  0  0  0  0  0  0  0  0  0
  189.4250  177.1960  145.9490 C   0  0  0  0  0  0  0  0  0  0  0  0
  190.2410  176.6180  141.8510 N   0  0  0  0  0  0  0  0  0  0  0  0
  189.5400  177.1740  140.9140 C   0  0  0  0  0  3  0  0  0  0  0  0
  189.8590  176.9530  139.4690 C   0  0  2  0  0  3  0  0  0  0  0  0
  191.3530  176.7700  139.2580 C   0  0  0  0  0  1  0  0  0  0  0  0
  189.3180  178.0510  138.6030 C   0  0  0  0  0  0  0  0  0  0  0  0
  188.7550  179.0180  139.0960 O   0  0  0  0  0  0  0  0  0  0  0  0
  189.4660  177.9600  137.1240 C   0  0  0  0  0  1  0  0  0  0  0  0
  1 13  1  0  0  0  0
  2  1  2  0  0  0  0
  2 18  1  0  0  0  0
  4  7  1  0  0  0  0
  4  1  1  0  0  0  0
  5  8  1  0  0  0  0
  6  3  1  0  0  0  0
  7 14  1  0  0  0  0
  8  7  2  0  0  0  0
  9 18  1  0  0  0  0
  9 10  1  0  0  0  0
 11  2  1  0  0  0  0
 12 16  1  0  0  0  0
 12  5  2  0  0  0  0
 13 14  1  0  0  0  0
 13  3  2  0  0  0  0
 15  9  2  0  0  0  0
 16  4  2  0  0  0  0
 17 11  2  0  0  0  0
 17 15  1  0  0  0  0
 18  6  2  0  0  0  0
 19 17  1  0  0  0  0
 20 19  2  0  0  0  0
 21 22  1  1  0  0  0
 21 20  1  0  0  0  0
 23 24  2  0  0  0  0
 23 21  1  0  0  0  0
 25 23  1  0  0  0  0
M  END
>  <MODEL>
1

>  <REMARK>
 VINA RESULT:     -10.7      0.000      0.000
  Name = 
  3 active torsions:
  status: ('A' for Active; 'I' for Inactive)
    1  A    between atoms: C_2  and  C_21
    2  A    between atoms: N_6  and  C_23
    3  A    between atoms: C_15  and  C_21
                            x       y       z     vdW  Elec       q    Type
                         _______ _______ _______ _____ _____    ______ ____

>  <TORSDO>
F 3

$$$$
=
 OpenBabel11052412463D

 25 28  0  0  1  0  0  0  0  0999 V2000
  187.6240  177.7980  145.6670 C   0  0  0  0  0  0  0  0  0  0  0  0
  186.8210  178.0960  144.5530 C   0  0  0  0  0  0  0  0  0  0  0  0
  185.7680  178.2690  147.1810 C   0  0  0  0  0  3  0  0  0  0  0  0
  188.9700  177.3960  145.6850 C   0  0  0  0  0  0  0  0  0  0  0  0
  191.6090  176.5890  146.1170 C   0  0  0  0  0  3  0  0  0  0  0  0
  184.9610  178.5670  146.0750 C   0  0  0  0  0  3  0  0  0  0  0  0
  189.4520  177.1840  146.9750 C   0  0  0  0  0  0  0  0  0  0  0  0
  190.7630  176.7820  147.2190 C   0  0  0  0  0  3  0  0  0  0  0  0
  184.6720  178.7820  143.6460 C   0  0  0  0  0  0  0  0  0  0  0  0
  183.2460  179.1980  143.7860 C   0  0  0  0  0  1  0  0  0  0  0  0
  187.3120  178.0170  143.2860 N   0  0  0  0  0  0  0  0  0  0  0  0
  191.1380  176.7980  144.8090 C   0  0  0  0  0  3  0  0  0  0  0  0
  187.0870  177.8890  146.9520 C   0  0  0  0  0  0  0  0  0  0  0  0
  188.2440  177.4840  148.1100 S   0  0  0  0  0  0  0  0  0  0  0  0
  185.2170  178.6890  142.3640 C   0  0  0  0  0  3  0  0  0  0  0  0
  189.8130  177.2040  144.5850 C   0  0  0  0  0  3  0  0  0  0  0  0
  186.5470  178.3020  142.1970 C   0  0  0  0  0  0  0  0  0  0  0  0
  185.4720  178.4850  144.7630 C   0  0  0  0  0  0  0  0  0  0  0  0
  187.0890  178.2110  140.8770 N   0  0  0  0  0  0  0  0  0  0  0  0
  188.3270  178.4930  140.6140 C   0  0  0  0  0  3  0  0  0  0  0  0
  188.8700  178.3870  139.2240 C   0  0  2  0  0  3  0  0  0  0  0  0
  187.8020  177.9150  138.2510 C   0  0  0  0  0  1  0  0  0  0  0  0
  190.0850  177.5100  139.1650 C   0  0  0  0  0  0  0  0  0  0  0  0
  190.5530  177.1600  138.0910 O   0  0  0  0  0  0  0  0  0  0  0  0
  190.7250  177.0570  140.4310 C   0  0  0  0  0  1  0  0  0  0  0  0
  1  4  1  0  0  0  0
  1 13  2  0  0  0  0
  2 18  2  0  0  0  0
  2  1  1  0  0  0  0
  4  7  1  0  0  0  0
  5  8  1  0  0  0  0
  6  3  2  0  0  0  0
  7  8  2  0  0  0  0
  7 14  1  0  0  0  0
  9 10  1  0  0  0  0
  9 18  1  0  0  0  0
 11  2  1  0  0  0  0
 12  5  2  0  0  0  0
 13  3  1  0  0  0  0
 13 14  1  0  0  0  0
 15  9  2  0  0  0  0
 16 12  1  0  0  0  0
 16  4  2  0  0  0  0
 17 15  1  0  0  0  0
 17 11  2  0  0  0  0
 18  6  1  0  0  0  0
 19 17  1  0  0  0  0
 20 19  2  0  0  0  0
 21 22  1  6  0  0  0
 21 20  1  0  0  0  0
 23 21  1  0  0  0  0
 23 25  1  0  0  0  0
 24 23  2  0  0  0  0
M  END
>  <MODEL>
2

>  <REMARK>
 VINA RESULT:     -10.6      1.466      4.665
  Name = 
  3 active torsions:
  status: ('A' for Active; 'I' for Inactive)
    1  A    between atoms: C_2  and  C_21
    2  A    between atoms: N_6  and  C_23
    3  A    between atoms: C_15  and  C_21
                            x       y       z     vdW  Elec       q    Type
                         _______ _______ _______ _____ _____    ______ ____

>  <TORSDO>
F 3

$$$$
=
 OpenBabel11052412463D

 25 28  0  0  1  0  0  0  0  0999 V2000
  187.0890  177.8640  145.1290 C   0  0  0  0  0  0  0  0  0  0  0  0
  188.3240  177.4190  144.6300 C   0  0  0  0  0  0  0  0  0  0  0  0
  187.9490  177.8170  147.4130 C   0  0  0  0  0  3  0  0  0  0  0  0
  185.9190  178.1660  144.4110 C   0  0  0  0  0  0  0  0  0  0  0  0
  183.4340  178.8530  143.3360 C   0  0  0  0  0  3  0  0  0  0  0  0
  189.1840  177.3750  146.9230 C   0  0  0  0  0  3  0  0  0  0  0  0
  184.8740  178.5830  145.2330 C   0  0  0  0  0  0  0  0  0  0  0  0
  183.6250  178.9300  144.7240 C   0  0  0  0  0  3  0  0  0  0  0  0
  190.6190  176.7280  145.0380 C   0  0  0  0  0  0  0  0  0  0  0  0
  191.7800  176.4470  145.9330 C   0  0  0  0  0  1  0  0  0  0  0  0
  188.5190  177.2240  143.2980 N   0  0  0  0  0  0  0  0  0  0  0  0
  184.4790  178.4350  142.4930 C   0  0  0  0  0  3  0  0  0  0  0  0
  186.9240  178.0540  146.5020 C   0  0  0  0  0  0  0  0  0  0  0  0
  185.3610  178.5870  146.8460 S   0  0  0  0  0  0  0  0  0  0  0  0
  190.7760  176.5400  143.6640 C   0  0  0  0  0  3  0  0  0  0  0  0
  185.7300  178.0890  143.0270 C   0  0  0  0  0  3  0  0  0  0  0  0
  189.7110  176.7940  142.7980 C   0  0  0  0  0  0  0  0  0  0  0  0
  189.3850  177.1720  145.5410 C   0  0  0  0  0  0  0  0  0  0  0  0
  189.8890  176.5980  141.3930 N   0  0  0  0  0  0  0  0  0  0  0  0
  189.8020  177.5700  140.5410 C   0  0  0  0  0  3  0  0  0  0  0  0
  189.9950  177.3380  139.0750 C   0  0  2  0  0  3  0  0  0  0  0  0
  188.6960  176.9150  138.4100 C   0  0  0  0  0  1  0  0  0  0  0  0
  191.0910  176.3510  138.8050 C   0  0  0  0  0  0  0  0  0  0  0  0
  190.8330  175.1930  138.5140 O   0  0  0  0  0  0  0  0  0  0  0  0
  192.5120  176.7880  138.8990 C   0  0  0  0  0  1  0  0  0  0  0  0
  1 13  1  0  0  0  0
  2  1  2  0  0  0  0
  2 18  1  0  0  0  0
  4  1  1  0  0  0  0
  4  7  1  0  0  0  0
  5  8  1  0  0  0  0
  6  3  1  0  0  0  0
  7 14  1  0  0  0  0
  8  7  2  0  0  0  0
  9 18  1  0  0  0  0
  9 10  1  0  0  0  0
 11  2  1  0  0  0  0
 12 16  1  0  0  0  0
 12  5  2  0  0  0  0
 13 14  1  0  0  0  0
 13  3  2  0  0  0  0
 15  9  2  0  0  0  0
 16  4  2  0  0  0  0
 17 11  2  0  0  0  0
 17 15  1  0  0  0  0
 18  6  2  0  0  0  0
 19 17  1  0  0  0  0
 20 19  2  0  0  0  0
 21 22  1  1  0  0  0
 21 20  1  0  0  0  0
 23 25  1  0  0  0  0
 23 21  1  0  0  0  0
 24 23  2  0  0  0  0
M  END
>  <MODEL>
3

>  <REMARK>
 VINA RESULT:     -10.4      1.049      1.417
  Name = 
  3 active torsions:
  status: ('A' for Active; 'I' for Inactive)
    1  A    between atoms: C_2  and  C_21
    2  A    between atoms: N_6  and  C_23
    3  A    between atoms: C_15  and  C_21
                            x       y       z     vdW  Elec       q    Type
                         _______ _______ _______ _____ _____    ______ ____

>  <TORSDO>
F 3

$$$$
=
 OpenBabel11052412463D

 25 28  0  0  1  0  0  0  0  0999 V2000
  187.7580  177.7710  145.6770 C   0  0  0  0  0  0  0  0  0  0  0  0
  187.0220  178.0330  144.5100 C   0  0  0  0  0  0  0  0  0  0  0  0
  185.8430  178.3650  147.0690 C   0  0  0  0  0  3  0  0  0  0  0  0
  189.0900  177.3360  145.7840 C   0  0  0  0  0  0  0  0  0  0  0  0
  191.6810  176.4830  146.3900 C   0  0  0  0  0  3  0  0  0  0  0  0
  185.1010  178.6280  145.9100 C   0  0  0  0  0  3  0  0  0  0  0  0
  189.5010  177.1760  147.1060 C   0  0  0  0  0  0  0  0  0  0  0  0
  190.7860  176.7530  147.4360 C   0  0  0  0  0  3  0  0  0  0  0  0
  184.9410  178.7290  143.4620 C   0  0  0  0  0  0  0  0  0  0  0  0
  183.5220  179.1870  143.5080 C   0  0  0  0  0  1  0  0  0  0  0  0
  187.5730  177.8780  143.2760 N   0  0  0  0  0  0  0  0  0  0  0  0
  191.2810  176.6380  145.0510 C   0  0  0  0  0  3  0  0  0  0  0  0
  187.1610  177.9400  146.9270 C   0  0  0  0  0  0  0  0  0  0  0  0
  188.2460  177.5630  148.1620 S   0  0  0  0  0  0  0  0  0  0  0  0
  185.5460  178.5570  142.2150 C   0  0  0  0  0  3  0  0  0  0  0  0
  189.9810  177.0670  144.7390 C   0  0  0  0  0  3  0  0  0  0  0  0
  186.8720  178.1280  142.1360 C   0  0  0  0  0  0  0  0  0  0  0  0
  185.6750  178.4670  144.6310 C   0  0  0  0  0  0  0  0  0  0  0  0
  187.4760  177.9570  140.8510 N   0  0  0  0  0  0  0  0  0  0  0  0
  188.6800  177.5000  140.7070 C   0  0  0  0  0  3  0  0  0  0  0  0
  189.2890  177.3280  139.3510 C   0  0  2  0  0  3  0  0  0  0  0  0
  190.8030  177.4380  139.4100 C   0  0  0  0  0  1  0  0  0  0  0  0
  188.7120  178.2880  138.3540 C   0  0  0  0  0  0  0  0  0  0  0  0
  189.0560  179.4600  138.3410 O   0  0  0  0  0  0  0  0  0  0  0  0
  187.7050  177.8050  137.3690 C   0  0  0  0  0  1  0  0  0  0  0  0
  1  4  1  0  0  0  0
  1 13  2  0  0  0  0
  2 18  2  0  0  0  0
  2  1  1  0  0  0  0
  4  7  1  0  0  0  0
  5  8  1  0  0  0  0
  6  3  2  0  0  0  0
  7  8  2  0  0  0  0
  7 14  1  0  0  0  0
  9 10  1  0  0  0  0
  9 18  1  0  0  0  0
 11  2  1  0  0  0  0
 12  5  2  0  0  0  0
 13  3  1  0  0  0  0
 13 14  1  0  0  0  0
 15  9  2  0  0  0  0
 16 12  1  0  0  0  0
 16  4  2  0  0  0  0
 17 15  1  0  0  0  0
 17 11  2  0  0  0  0
 18  6  1  0  0  0  0
 19 17  1  0  0  0  0
 20 19  2  0  0  0  0
 21 22  1  1  0  0  0
 21 20  1  0  0  0  0
 23 21  1  0  0  0  0
 24 23  2  0  0  0  0
 25 23  1  0  0  0  0
M  END
>  <MODEL>
4

>  <REMARK>
 VINA RESULT:     -10.3      1.280      4.479
  Name = 
  3 active torsions:
  status: ('A' for Active; 'I' for Inactive)
    1  A    between atoms: C_2  and  C_21
    2  A    between atoms: N_6  and  C_23
    3  A    between atoms: C_15  and  C_21
                            x       y       z     vdW  Elec       q    Type
                         _______ _______ _______ _____ _____    ______ ____

>  <TORSDO>
F 3

$$$$
=
 OpenBabel11052412463D

 25 28  0  0  1  0  0  0  0  0999 V2000
  187.3060  177.9030  145.2790 C   0  0  0  0  0  0  0  0  0  0  0  0
  186.4220  178.2370  144.2390 C   0  0  0  0  0  0  0  0  0  0  0  0
  185.5280  178.1650  146.9300 C   0  0  0  0  0  3  0  0  0  0  0  0
  188.6690  177.5740  145.1870 C   0  0  0  0  0  0  0  0  0  0  0  0
  191.3670  176.8800  145.4020 C   0  0  0  0  0  3  0  0  0  0  0  0
  184.6400  178.4980  145.8990 C   0  0  0  0  0  3  0  0  0  0  0  0
  189.2410  177.2960  146.4270 C   0  0  0  0  0  0  0  0  0  0  0  0
  190.5830  176.9490  146.5630 C   0  0  0  0  0  3  0  0  0  0  0  0
  184.1890  178.8710  143.5140 C   0  0  0  0  0  0  0  0  0  0  0  0
  182.7550  179.1980  143.7690 C   0  0  0  0  0  1  0  0  0  0  0  0
  186.8350  178.2750  142.9440 N   0  0  0  0  0  0  0  0  0  0  0  0
  190.8040  177.1570  144.1430 C   0  0  0  0  0  3  0  0  0  0  0  0
  186.8470  177.8740  146.5960 C   0  0  0  0  0  0  0  0  0  0  0  0
  188.0930  177.4490  147.6510 S   0  0  0  0  0  0  0  0  0  0  0  0
  184.6550  178.8980  142.1990 C   0  0  0  0  0  3  0  0  0  0  0  0
  189.4500  177.5060  144.0280 C   0  0  0  0  0  3  0  0  0  0  0  0
  185.9900  178.5960  141.9250 C   0  0  0  0  0  0  0  0  0  0  0  0
  185.0710  178.5380  144.5570 C   0  0  0  0  0  0  0  0  0  0  0  0
  186.4520  178.6280  140.5720 N   0  0  0  0  0  0  0  0  0  0  0  0
  185.6730  178.3720  139.5680 C   0  0  0  0  0  3  0  0  0  0  0  0
  186.1800  178.4150  138.1610 C   0  0  2  0  0  3  0  0  0  0  0  0
  185.3630  177.5100  137.2540 C   0  0  0  0  0  1  0  0  0  0  0  0
  187.6420  178.0870  138.0830 C   0  0  0  0  0  0  0  0  0  0  0  0
  188.4820  178.9730  138.0510 O   0  0  0  0  0  0  0  0  0  0  0  0
  188.0710  176.6610  138.0410 C   0  0  0  0  0  1  0  0  0  0  0  0
  1 13  2  0  0  0  0
  2 18  2  0  0  0  0
  2  1  1  0  0  0  0
  4  1  1  0  0  0  0
  4  7  1  0  0  0  0
  5  8  1  0  0  0  0
  6  3  2  0  0  0  0
  7  8  2  0  0  0  0
  7 14  1  0  0  0  0
  9 10  1  0  0  0  0
  9 18  1  0  0  0  0
 11  2  1  0  0  0  0
 12  5  2  0  0  0  0
 13  3  1  0  0  0  0
 13 14  1  0  0  0  0
 15  9  2  0  0  0  0
 16 12  1  0  0  0  0
 16  4  2  0  0  0  0
 17 15  1  0  0  0  0
 17 11  2  0  0  0  0
 18  6  1  0  0  0  0
 19 17  1  0  0  0  0
 20 19  2  0  0  0  0
 21 22  1  6  0  0  0
 21 20  1  0  0  0  0
 23 21  1  0  0  0  0
 24 23  2  0  0  0  0
 25 23  1  0  0  0  0
M  END
>  <MODEL>
5

>  <REMARK>
 VINA RESULT:      -9.8      1.864      4.896
  Name = 
  3 active torsions:
  status: ('A' for Active; 'I' for Inactive)
    1  A    between atoms: C_2  and  C_21
    2  A    between atoms: N_6  and  C_23
    3  A    between atoms: C_15  and  C_21
                            x       y       z     vdW  Elec       q    Type
                         _______ _______ _______ _____ _____    ______ ____

>  <TORSDO>
F 3

$$$$
=
 OpenBabel11052412463D

 25 28  0  0  1  0  0  0  0  0999 V2000
  189.4190  177.4560  144.0050 C   0  0  0  0  0  0  0  0  0  0  0  0
  188.4120  177.7310  144.9460 C   0  0  0  0  0  0  0  0  0  0  0  0
  190.9880  176.8930  145.7880 C   0  0  0  0  0  3  0  0  0  0  0  0
  189.3440  177.5370  142.6040 C   0  0  0  0  0  0  0  0  0  0  0  0
  189.5760  177.5800  139.8210 C   0  0  0  0  0  3  0  0  0  0  0  0
  189.9890  177.1640  146.7330 C   0  0  0  0  0  3  0  0  0  0  0  0
  190.5400  177.1900  141.9800 C   0  0  0  0  0  0  0  0  0  0  0  0
  190.6830  177.2040  140.5950 C   0  0  0  0  0  3  0  0  0  0  0  0
  187.6940  177.8570  147.2660 C   0  0  0  0  0  0  0  0  0  0  0  0
  187.9250  177.7230  148.7340 C   0  0  0  0  0  1  0  0  0  0  0  0
  187.1720  178.1320  144.5570 N   0  0  0  0  0  0  0  0  0  0  0  0
  188.3610  177.9330  140.4370 C   0  0  0  0  0  3  0  0  0  0  0  0
  190.6800  177.0450  144.4400 C   0  0  0  0  0  0  0  0  0  0  0  0
  191.7050  176.7810  143.1270 S   0  0  0  0  0  0  0  0  0  0  0  0
  186.4350  178.2670  146.8240 C   0  0  0  0  0  3  0  0  0  0  0  0
  188.2380  177.9130  141.8340 C   0  0  0  0  0  3  0  0  0  0  0  0
  186.1850  178.4020  145.4570 C   0  0  0  0  0  0  0  0  0  0  0  0
  188.7040  177.5810  146.3280 C   0  0  0  0  0  0  0  0  0  0  0  0
  184.8910  178.8230  145.0210 N   0  0  0  0  0  0  0  0  0  0  0  0
  184.4720  178.6350  143.8080 C   0  0  0  0  0  3  0  0  0  0  0  0
  183.1110  179.0830  143.3780 C   0  0  2  0  0  3  0  0  0  0  0  0
  182.0380  178.5630  144.3190 C   0  0  0  0  0  1  0  0  0  0  0  0
  182.8210  178.6990  141.9570 C   0  0  0  0  0  0  0  0  0  0  0  0
  181.6750  178.4960  141.5850 O   0  0  0  0  0  0  0  0  0  0  0  0
  183.9450  178.5600  140.9900 C   0  0  0  0  0  1  0  0  0  0  0  0
  1 13  1  0  0  0  0
  1  2  2  0  0  0  0
  2 18  1  0  0  0  0
  3  6  1  0  0  0  0
  4  1  1  0  0  0  0
  5 12  2  0  0  0  0
  5  8  1  0  0  0  0
  7  4  1  0  0  0  0
  7 14  1  0  0  0  0
  8  7  2  0  0  0  0
  9 10  1  0  0  0  0
 11  2  1  0  0  0  0
 11 17  2  0  0  0  0
 12 16  1  0  0  0  0
 13  3  2  0  0  0  0
 14 13  1  0  0  0  0
 15  9  2  0  0  0  0
 16  4  2  0  0  0  0
 17 15  1  0  0  0  0
 18  6  2  0  0  0  0
 18  9  1  0  0  0  0
 19 17  1  0  0  0  0
 20 19  2  0  0  0  0
 21 20  1  0  0  0  0
 21 22  1  1  0  0  0
 23 21  1  0  0  0  0
 24 23  2  0  0  0  0
 25 23  1  0  0  0  0
M  END
>  <MODEL>
6

>  <REMARK>
 VINA RESULT:      -9.7      2.592      5.698
  Name = 
  3 active torsions:
  status: ('A' for Active; 'I' for Inactive)
    1  A    between atoms: C_2  and  C_21
    2  A    between atoms: N_6  and  C_23
    3  A    between atoms: C_15  and  C_21
                            x       y       z     vdW  Elec       q    Type
                         _______ _______ _______ _____ _____    ______ ____

>  <TORSDO>
F 3

$$$$
=
 OpenBabel11052412463D

 25 28  0  0  1  0  0  0  0  0999 V2000
  187.2190  178.1430  141.4320 C   0  0  0  0  0  0  0  0  0  0  0  0
  186.6380  178.2000  142.7100 C   0  0  0  0  0  0  0  0  0  0  0  0
  185.1050  178.7840  140.3960 C   0  0  0  0  0  3  0  0  0  0  0  0
  188.5440  177.8160  141.0950 C   0  0  0  0  0  0  0  0  0  0  0  0
  191.0650  177.2250  140.0460 C   0  0  0  0  0  3  0  0  0  0  0  0
  184.5170  178.8450  141.6670 C   0  0  0  0  0  3  0  0  0  0  0  0
  188.7770  177.8590  139.7210 C   0  0  0  0  0  0  0  0  0  0  0  0
  190.0230  177.5680  139.1720 C   0  0  0  0  0  3  0  0  0  0  0  0
  184.6900  178.6130  144.1050 C   0  0  0  0  0  0  0  0  0  0  0  0
  183.2570  178.9800  144.3070 C   0  0  0  0  0  1  0  0  0  0  0  0
  187.3600  177.9230  143.8290 N   0  0  0  0  0  0  0  0  0  0  0  0
  190.8460  177.1780  141.4350 C   0  0  0  0  0  3  0  0  0  0  0  0
  186.4480  178.4340  140.3060 C   0  0  0  0  0  0  0  0  0  0  0  0
  187.3710  178.2950  138.9010 S   0  0  0  0  0  0  0  0  0  0  0  0
  185.4670  178.3200  145.2270 C   0  0  0  0  0  3  0  0  0  0  0  0
  189.5820  177.4730  141.9680 C   0  0  0  0  0  3  0  0  0  0  0  0
  186.8110  177.9740  145.0740 C   0  0  0  0  0  0  0  0  0  0  0  0
  185.2680  178.5560  142.8260 C   0  0  0  0  0  0  0  0  0  0  0  0
  187.5940  177.6780  146.2330 N   0  0  0  0  0  0  0  0  0  0  0  0
  188.8290  177.2940  146.1560 C   0  0  0  0  0  3  0  0  0  0  0  0
  189.6280  176.9930  147.3850 C   0  0  2  0  0  3  0  0  0  0  0  0
  189.3810  178.0290  148.4690 C   0  0  0  0  0  1  0  0  0  0  0  0
  191.0910  176.8610  147.0820 C   0  0  0  0  0  0  0  0  0  0  0  0
  191.9190  176.8550  147.9810 O   0  0  0  0  0  0  0  0  0  0  0  0
  191.5390  176.7390  145.6670 C   0  0  0  0  0  1  0  0  0  0  0  0
  1  2  2  0  0  0  0
  2 18  1  0  0  0  0
  2 11  1  0  0  0  0
  3  6  1  0  0  0  0
  4  1  1  0  0  0  0
  4 16  1  0  0  0  0
  5 12  1  0  0  0  0
  6 18  2  0  0  0  0
  7  4  2  0  0  0  0
  8  7  1  0  0  0  0
  8  5  2  0  0  0  0
  9 10  1  0  0  0  0
  9 15  2  0  0  0  0
 11 17  2  0  0  0  0
 12 16  2  0  0  0  0
 13  3  2  0  0  0  0
 13  1  1  0  0  0  0
 14  7  1  0  0  0  0
 14 13  1  0  0  0  0
 17 15  1  0  0  0  0
 17 19  1  0  0  0  0
 18  9  1  0  0  0  0
 20 19  2  0  0  0  0
 20 21  1  0  0  0  0
 21 22  1  1  0  0  0
 23 21  1  0  0  0  0
 23 24  2  0  0  0  0
 25 23  1  0  0  0  0
M  END
>  <MODEL>
7

>  <REMARK>
 VINA RESULT:      -9.7      2.877      6.855
  Name = 
  3 active torsions:
  status: ('A' for Active; 'I' for Inactive)
    1  A    between atoms: C_2  and  C_21
    2  A    between atoms: N_6  and  C_23
    3  A    between atoms: C_15  and  C_21
                            x       y       z     vdW  Elec       q    Type
                         _______ _______ _______ _____ _____    ______ ____

>  <TORSDO>
F 3

$$$$
=
 OpenBabel11052412463D

 25 28  0  0  1  0  0  0  0  0999 V2000
  184.8160  178.3380  143.7660 C   0  0  0  0  0  0  0  0  0  0  0  0
  186.1670  177.9790  143.9150 C   0  0  0  0  0  0  0  0  0  0  0  0
  184.5860  178.6340  146.1770 C   0  0  0  0  0  3  0  0  0  0  0  0
  184.0680  178.4300  142.5800 C   0  0  0  0  0  0  0  0  0  0  0  0
  182.2760  178.7200  140.4560 C   0  0  0  0  0  3  0  0  0  0  0  0
  185.9320  178.2790  146.3350 C   0  0  0  0  0  3  0  0  0  0  0  0
  182.7480  178.8160  142.8030 C   0  0  0  0  0  0  0  0  0  0  0  0
  181.8340  178.9670  141.7640 C   0  0  0  0  0  3  0  0  0  0  0  0
  188.0800  177.5920  145.3640 C   0  0  0  0  0  0  0  0  0  0  0  0
  188.7420  177.5390  146.7000 C   0  0  0  0  0  1  0  0  0  0  0  0
  186.9370  177.6630  142.8390 N   0  0  0  0  0  0  0  0  0  0  0  0
  183.6060  178.3290  140.2130 C   0  0  0  0  0  3  0  0  0  0  0  0
  184.0550  178.6570  144.8910 C   0  0  0  0  0  0  0  0  0  0  0  0
  182.4760  179.0500  144.4500 S   0  0  0  0  0  0  0  0  0  0  0  0
  188.8350  177.2740  144.2330 C   0  0  0  0  0  3  0  0  0  0  0  0
  184.5110  178.1820  141.2760 C   0  0  0  0  0  3  0  0  0  0  0  0
  188.2470  177.3140  142.9670 C   0  0  0  0  0  0  0  0  0  0  0  0
  186.7290  177.9500  145.2180 C   0  0  0  0  0  0  0  0  0  0  0  0
  189.0340  176.9870  141.8200 N   0  0  0  0  0  0  0  0  0  0  0  0
  188.8460  177.5480  140.6670 C   0  0  0  0  0  3  0  0  0  0  0  0
  189.6860  177.1900  139.4820 C   0  0  2  0  0  3  0  0  0  0  0  0
  191.1640  177.1870  139.8350 C   0  0  0  0  0  1  0  0  0  0  0  0
  189.4090  178.0840  138.3100 C   0  0  0  0  0  0  0  0  0  0  0  0
  189.0110  179.2280  138.4750 O   0  0  0  0  0  0  0  0  0  0  0  0
  189.6200  177.5700  136.9280 C   0  0  0  0  0  1  0  0  0  0  0  0
  1  2  2  0  0  0  0
  1 13  1  0  0  0  0
  2 18  1  0  0  0  0
  3  6  1  0  0  0  0
  4  7  1  0  0  0  0
  4  1  1  0  0  0  0
  5  8  1  0  0  0  0
  7 14  1  0  0  0  0
  8  7  2  0  0  0  0
  9 10  1  0  0  0  0
 11 17  2  0  0  0  0
 11  2  1  0  0  0  0
 12  5  2  0  0  0  0
 12 16  1  0  0  0  0
 13  3  2  0  0  0  0
 14 13  1  0  0  0  0
 15  9  2  0  0  0  0
 16  4  2  0  0  0  0
 17 15  1  0  0  0  0
 18  9  1  0  0  0  0
 18  6  2  0  0  0  0
 19 17  1  0  0  0  0
 20 19  2  0  0  0  0
 21 22  1  1  0  0  0
 21 20  1  0  0  0  0
 23 24  2  0  0  0  0
 23 21  1  0  0  0  0
 25 23  1  0  0  0  0
M  END
>  <MODEL>
8

>  <REMARK>
 VINA RESULT:      -9.4      1.510      2.550
  Name = 
  3 active torsions:
  status: ('A' for Active; 'I' for Inactive)
    1  A    between atoms: C_2  and  C_21
    2  A    between atoms: N_6  and  C_23
    3  A    between atoms: C_15  and  C_21
                            x       y       z     vdW  Elec       q    Type
                         _______ _______ _______ _____ _____    ______ ____

>  <TORSDO>
F 3

$$$$
=
 OpenBabel11052412463D

 25 28  0  0  1  0  0  0  0  0999 V2000
  188.6460  177.6710  143.3750 C   0  0  0  0  0  0  0  0  0  0  0  0
  187.3240  177.9340  143.7750 C   0  0  0  0  0  0  0  0  0  0  0  0
  189.3550  177.4810  145.7030 C   0  0  0  0  0  3  0  0  0  0  0  0
  189.1590  177.5910  142.0690 C   0  0  0  0  0  0  0  0  0  0  0  0
  190.5290  177.3570  139.6460 C   0  0  0  0  0  3  0  0  0  0  0  0
  188.0400  177.7410  146.1100 C   0  0  0  0  0  3  0  0  0  0  0  0
  190.5240  177.3120  142.0420 C   0  0  0  0  0  0  0  0  0  0  0  0
  191.2310  177.1910  140.8490 C   0  0  0  0  0  3  0  0  0  0  0  0
  185.6980  178.2320  145.5570 C   0  0  0  0  0  0  0  0  0  0  0  0
  185.3010  178.2840  146.9950 C   0  0  0  0  0  1  0  0  0  0  0  0
  186.3400  178.1520  142.8610 N   0  0  0  0  0  0  0  0  0  0  0  0
  189.1510  177.6380  139.6570 C   0  0  0  0  0  3  0  0  0  0  0  0
  189.6310  177.4510  144.3390 C   0  0  0  0  0  0  0  0  0  0  0  0
  191.1230  177.1600  143.6100 S   0  0  0  0  0  0  0  0  0  0  0  0
  184.7180  178.4510  144.5870 C   0  0  0  0  0  3  0  0  0  0  0  0
  188.4570  177.7580  140.8710 C   0  0  0  0  0  3  0  0  0  0  0  0
  185.0550  178.4080  143.2330 C   0  0  0  0  0  0  0  0  0  0  0  0
  187.0200  177.9690  145.1610 C   0  0  0  0  0  0  0  0  0  0  0  0
  184.0400  178.6340  142.2520 N   0  0  0  0  0  0  0  0  0  0  0  0
  184.1710  178.2570  141.0190 C   0  0  0  0  0  3  0  0  0  0  0  0
  183.0920  178.5030  140.0120 C   0  0  2  0  0  3  0  0  0  0  0  0
  182.8940  177.2950  139.1120 C   0  0  0  0  0  1  0  0  0  0  0  0
  183.3500  179.7430  139.2080 C   0  0  0  0  0  0  0  0  0  0  0  0
  184.4830  180.1840  139.0830 O   0  0  0  0  0  0  0  0  0  0  0  0
  182.2100  180.4470  138.5590 C   0  0  0  0  0  1  0  0  0  0  0  0
  1  2  2  0  0  0  0
  1 13  1  0  0  0  0
  2 18  1  0  0  0  0
  3  6  1  0  0  0  0
  4  1  1  0  0  0  0
  5 12  2  0  0  0  0
  5  8  1  0  0  0  0
  7  4  1  0  0  0  0
  7 14  1  0  0  0  0
  8  7  2  0  0  0  0
  9 10  1  0  0  0  0
 11 17  2  0  0  0  0
 11  2  1  0  0  0  0
 12 16  1  0  0  0  0
 13  3  2  0  0  0  0
 14 13  1  0  0  0  0
 15  9  2  0  0  0  0
 16  4  2  0  0  0  0
 17 15  1  0  0  0  0
 18  9  1  0  0  0  0
 18  6  2  0  0  0  0
 19 17  1  0  0  0  0
 20 19  2  0  0  0  0
 21 22  1  6  0  0  0
 21 20  1  0  0  0  0
 23 21  1  0  0  0  0
 24 23  2  0  0  0  0
 25 23  1  0  0  0  0
M  END
>  <MODEL>
9

>  <REMARK>
 VINA RESULT:      -9.4      2.767      5.599
  Name = 
  3 active torsions:
  status: ('A' for Active; 'I' for Inactive)
    1  A    between atoms: C_2  and  C_21
    2  A    between atoms: N_6  and  C_23
    3  A    between atoms: C_15  and  C_21
                            x       y       z     vdW  Elec       q    Type
                         _______ _______ _______ _____ _____    ______ ____

>  <TORSDO>
F 3

$$$$
