=
 OpenBabel11052413403D

 27 31  0  0  1  0  0  0  0  0999 V2000
  186.7980  177.2150  144.2490 C   0  0  0  0  0  2  0  0  0  0  0  0
  188.8940  177.1480  142.9010 C   0  0  0  0  0  0  0  0  0  0  0  0
  187.3460  178.7610  141.5760 C   0  0  0  0  0  2  0  0  0  0  0  0
  190.5780  176.0790  139.3580 N   0  0  0  0  0  0  0  0  0  0  0  0
  189.9850  176.7430  137.1760 O   0  0  0  0  0  0  0  0  0  0  0  0
  189.9110  176.3180  142.9300 N   0  0  0  0  0  0  0  0  0  0  0  0
  188.7520  177.6930  139.0540 C   0  0  2  0  0  3  0  0  0  0  0  0
  183.5510  178.8520  141.9760 C   0  0  0  0  0  2  0  0  0  0  0  0
  189.1020  179.1550  138.8300 C   0  0  0  0  0  1  0  0  0  0  0  0
  183.5300  179.0420  143.4820 C   0  0  1  0  0  3  0  0  0  0  0  0
  189.0010  177.3120  140.4740 C   0  0  0  0  0  0  0  0  0  0  0  0
  188.2210  177.4920  144.1220 N   0  0  0  0  0  0  0  0  0  0  0  0
  189.8010  176.8240  138.4190 C   0  0  0  0  0  0  0  0  0  0  0  0
  190.0930  176.3810  140.5120 C   0  0  0  0  0  0  0  0  0  0  0  0
  185.9390  178.3050  143.6180 C   0  0  2  0  0  3  0  0  0  0  0  0
  188.3990  177.7010  141.6040 C   0  0  0  0  0  0  0  0  0  0  0  0
  184.9430  179.1710  141.4510 C   0  0  0  0  0  2  0  0  0  0  0  0
  190.5710  175.8920  141.7580 N   0  0  0  0  0  2  0  0  0  0  0  0
  182.2470  178.7870  143.9660 O   0  0  0  0  0  1  0  0  0  0  0  0
  184.5130  178.0740  144.1230 C   0  0  0  0  0  2  0  0  0  0  0  0
  186.0000  178.2570  142.0760 C   0  0  1  0  0  3  0  0  0  0  0  0
  190.0080  177.4040  148.0140 C   0  0  0  0  0  2  0  0  0  0  0  0
  188.9460  177.8900  145.3280 C   0  0  0  0  0  3  0  0  0  0  0  0
  188.0320  177.8910  146.5560 C   0  0  0  0  0  2  0  0  0  0  0  0
  188.8110  178.3250  147.7930 C   0  0  0  0  0  2  0  0  0  0  0  0
  190.9260  177.4350  146.7960 C   0  0  0  0  0  2  0  0  0  0  0  0
  190.1650  176.9920  145.5490 C   0  0  0  0  0  2  0  0  0  0  0  0
  2  6  2  0  0  0  0
  2 12  1  0  0  0  0
  3 16  1  0  0  0  0
  3 21  1  0  0  0  0
  4 14  2  0  0  0  0
  5 13  2  0  0  0  0
  7  9  1  1  0  0  0
  7 11  1  0  0  0  0
  8 10  1  0  0  0  0
 10 19  1  1  0  0  0
 10 20  1  0  0  0  0
 11 14  1  0  0  0  0
 11 16  2  0  0  0  0
 12  1  1  0  0  0  0
 12 23  1  0  0  0  0
 13  7  1  0  0  0  0
 13  4  1  0  0  0  0
 14 18  1  0  0  0  0
 15 20  1  6  0  0  0
 15  1  1  0  0  0  0
 16  2  1  0  0  0  0
 17  8  1  0  0  0  0
 18  6  1  0  0  0  0
 21 17  1  6  0  0  0
 21 15  1  0  0  0  0
 23 27  1  0  0  0  0
 23 24  1  0  0  0  0
 24 25  1  0  0  0  0
 25 22  1  0  0  0  0
 26 22  1  0  0  0  0
 27 26  1  0  0  0  0
M  END
>  <MODEL>
1

>  <REMARK>
 VINA RESULT:      -9.1      0.000      0.000
  Name = 
  1 active torsions:
  status: ('A' for Active; 'I' for Inactive)
    1  A    between atoms: C_9  and  N_15
                            x       y       z     vdW  Elec       q    Type
                         _______ _______ _______ _____ _____    ______ ____

>  <TORSDO>
F 1

$$$$
=
 OpenBabel11052413403D

 27 31  0  0  1  0  0  0  0  0999 V2000
  186.0180  179.0710  145.0070 C   0  0  0  0  0  2  0  0  0  0  0  0
  186.6010  178.4040  142.6760 C   0  0  0  0  0  0  0  0  0  0  0  0
  188.1160  176.9000  144.1580 C   0  0  0  0  0  2  0  0  0  0  0  0
  189.5110  178.3010  139.8390 N   0  0  0  0  0  0  0  0  0  0  0  0
  191.6500  177.3160  139.9460 O   0  0  0  0  0  0  0  0  0  0  0  0
  186.3590  178.9900  141.5270 N   0  0  0  0  0  0  0  0  0  0  0  0
  190.1640  177.0760  141.8650 C   0  0  2  0  0  3  0  0  0  0  0  0
  188.9720  177.6920  147.7920 C   0  0  0  0  0  2  0  0  0  0  0  0
  190.0510  175.5600  141.8680 C   0  0  0  0  0  1  0  0  0  0  0  0
  187.5450  177.8420  148.2880 C   0  0  1  0  0  3  0  0  0  0  0  0
  188.8100  177.6970  141.9350 C   0  0  0  0  0  0  0  0  0  0  0  0
  185.6320  178.4830  143.7330 N   0  0  0  0  0  0  0  0  0  0  0  0
  190.5380  177.5470  140.4880 C   0  0  0  0  0  0  0  0  0  0  0  0
  188.5490  178.3650  140.6920 C   0  0  0  0  0  0  0  0  0  0  0  0
  186.7340  178.0730  145.9100 C   0  0  2  0  0  3  0  0  0  0  0  0
  187.8960  177.6980  142.9130 C   0  0  0  0  0  0  0  0  0  0  0  0
  188.9620  176.9830  146.4470 C   0  0  0  0  0  2  0  0  0  0  0  0
  187.2980  179.0030  140.4730 N   0  0  0  0  0  2  0  0  0  0  0  0
  187.5500  178.4590  149.5390 O   0  0  0  0  0  1  0  0  0  0  0  0
  186.7620  178.7000  147.3060 C   0  0  0  0  0  2  0  0  0  0  0  0
  188.1620  177.7700  145.4050 C   0  0  1  0  0  3  0  0  0  0  0  0
  181.4620  179.0360  142.9250 C   0  0  0  0  0  2  0  0  0  0  0  0
  184.2110  178.2150  143.5120 C   0  0  0  0  0  3  0  0  0  0  0  0
  183.3420  178.8940  144.5730 C   0  0  0  0  0  2  0  0  0  0  0  0
  181.8690  178.5830  144.3250 C   0  0  0  0  0  2  0  0  0  0  0  0
  182.3150  178.3300  141.8760 C   0  0  0  0  0  2  0  0  0  0  0  0
  183.7930  178.6390  142.1020 C   0  0  0  0  0  2  0  0  0  0  0  0
  2 16  1  0  0  0  0
  2 12  1  0  0  0  0
  4 13  1  0  0  0  0
  4 14  2  0  0  0  0
  5 13  2  0  0  0  0
  6  2  2  0  0  0  0
  7  9  1  6  0  0  0
  7 11  1  0  0  0  0
  8 10  1  0  0  0  0
 10 19  1  1  0  0  0
 11 16  2  0  0  0  0
 12  1  1  0  0  0  0
 13  7  1  0  0  0  0
 14 11  1  0  0  0  0
 15  1  1  6  0  0  0
 15 20  1  0  0  0  0
 16  3  1  0  0  0  0
 17  8  1  0  0  0  0
 18 14  1  0  0  0  0
 18  6  1  0  0  0  0
 20 10  1  0  0  0  0
 21  3  1  6  0  0  0
 21 15  1  0  0  0  0
 21 17  1  0  0  0  0
 22 25  1  0  0  0  0
 23 12  1  0  0  0  0
 23 24  1  0  0  0  0
 25 24  1  0  0  0  0
 26 27  1  0  0  0  0
 26 22  1  0  0  0  0
 27 23  1  0  0  0  0
M  END
>  <MODEL>
2

>  <REMARK>
 VINA RESULT:      -8.4      2.351      5.295
  Name = 
  1 active torsions:
  status: ('A' for Active; 'I' for Inactive)
    1  A    between atoms: C_9  and  N_15
                            x       y       z     vdW  Elec       q    Type
                         _______ _______ _______ _____ _____    ______ ____

>  <TORSDO>
F 1

$$$$
=
 OpenBabel11052413403D

 27 31  0  0  1  0  0  0  0  0999 V2000
  191.3480  177.5350  139.3340 C   0  0  0  0  0  2  0  0  0  0  0  0
  188.8550  177.5150  139.3600 C   0  0  0  0  0  0  0  0  0  0  0  0
  189.4860  175.4130  137.9690 C   0  0  0  0  0  2  0  0  0  0  0  0
  185.4680  177.8040  137.1310 N   0  0  0  0  0  0  0  0  0  0  0  0
  184.7950  176.5030  135.2840 O   0  0  0  0  0  0  0  0  0  0  0  0
  187.9890  178.4490  139.6770 N   0  0  0  0  0  0  0  0  0  0  0  0
  186.8890  175.9390  136.3990 C   0  0  2  0  0  3  0  0  0  0  0  0
  192.8810  174.9290  136.2940 C   0  0  0  0  0  2  0  0  0  0  0  0
  186.5300  174.5310  136.8440 C   0  0  0  0  0  1  0  0  0  0  0  0
  193.7300  175.1510  137.5330 C   0  0  1  0  0  3  0  0  0  0  0  0
  187.4440  176.7180  137.5440 C   0  0  0  0  0  0  0  0  0  0  0  0
  190.0990  177.4260  140.0730 N   0  0  0  0  0  0  0  0  0  0  0  0
  185.6320  176.7360  136.1950 C   0  0  0  0  0  0  0  0  0  0  0  0
  186.5160  177.7620  137.8770 C   0  0  0  0  0  0  0  0  0  0  0  0
  191.7620  176.2110  138.7020 C   0  0  2  0  0  3  0  0  0  0  0  0
  188.5800  176.5720  138.2350 C   0  0  0  0  0  0  0  0  0  0  0  0
  191.4430  174.6690  136.7130 C   0  0  0  0  0  2  0  0  0  0  0  0
  186.7800  178.6280  138.9730 N   0  0  0  0  0  2  0  0  0  0  0  0
  195.0570  175.3540  137.1570 O   0  0  0  0  0  1  0  0  0  0  0  0
  193.2220  176.3780  138.2750 C   0  0  0  0  0  2  0  0  0  0  0  0
  190.8650  175.8490  137.4980 C   0  0  1  0  0  3  0  0  0  0  0  0
  190.9440  176.3840  144.1400 C   0  0  0  0  0  2  0  0  0  0  0  0
  190.1680  177.4680  141.5330 C   0  0  0  0  0  3  0  0  0  0  0  0
  189.4110  176.2970  142.1630 C   0  0  0  0  0  2  0  0  0  0  0  0
  189.4880  176.3780  143.6850 C   0  0  0  0  0  2  0  0  0  0  0  0
  191.6800  177.5720  143.5300 C   0  0  0  0  0  2  0  0  0  0  0  0
  191.6230  177.5030  142.0060 C   0  0  0  0  0  2  0  0  0  0  0  0
  1 12  1  0  0  0  0
  2  6  2  0  0  0  0
  2 12  1  0  0  0  0
  3 16  1  0  0  0  0
  4 14  2  0  0  0  0
  5 13  2  0  0  0  0
  7  9  1  1  0  0  0
  7 11  1  0  0  0  0
  8 17  1  0  0  0  0
  8 10  1  0  0  0  0
 10 19  1  6  0  0  0
 10 20  1  0  0  0  0
 11 14  1  0  0  0  0
 11 16  2  0  0  0  0
 12 23  1  0  0  0  0
 13  7  1  0  0  0  0
 13  4  1  0  0  0  0
 14 18  1  0  0  0  0
 15 20  1  6  0  0  0
 15  1  1  0  0  0  0
 16  2  1  0  0  0  0
 18  6  1  0  0  0  0
 21 17  1  1  0  0  0
 21  3  1  0  0  0  0
 21 15  1  0  0  0  0
 23 27  1  0  0  0  0
 23 24  1  0  0  0  0
 24 25  1  0  0  0  0
 25 22  1  0  0  0  0
 26 22  1  0  0  0  0
 27 26  1  0  0  0  0
M  END
>  <MODEL>
3

>  <REMARK>
 VINA RESULT:      -8.3      3.824      6.829
  Name = 
  1 active torsions:
  status: ('A' for Active; 'I' for Inactive)
    1  A    between atoms: C_9  and  N_15
                            x       y       z     vdW  Elec       q    Type
                         _______ _______ _______ _____ _____    ______ ____

>  <TORSDO>
F 1

$$$$
=
 OpenBabel11052413403D

 27 31  0  0  1  0  0  0  0  0999 V2000
  185.2840  179.1910  143.1930 C   0  0  0  0  0  2  0  0  0  0  0  0
  186.5740  178.2820  141.2630 C   0  0  0  0  0  0  0  0  0  0  0  0
  187.6430  177.1290  143.3330 C   0  0  0  0  0  2  0  0  0  0  0  0
  190.2050  178.0750  139.4470 N   0  0  0  0  0  0  0  0  0  0  0  0
  192.2570  177.3120  140.3200 O   0  0  0  0  0  0  0  0  0  0  0  0
  186.6620  178.6870  140.0180 N   0  0  0  0  0  0  0  0  0  0  0  0
  190.2750  177.1900  141.7370 C   0  0  2  0  0  3  0  0  0  0  0  0
  187.3240  178.4630  146.8940 C   0  0  0  0  0  2  0  0  0  0  0  0
  190.2400  175.6840  141.9370 C   0  0  0  0  0  1  0  0  0  0  0  0
  185.8080  178.5470  146.9240 C   0  0  1  0  0  3  0  0  0  0  0  0
  188.9340  177.6880  141.3140 C   0  0  0  0  0  0  0  0  0  0  0  0
  185.3280  178.4090  141.9670 N   0  0  0  0  0  0  0  0  0  0  0  0
  191.0230  177.5090  140.4730 C   0  0  0  0  0  0  0  0  0  0  0  0
  189.0290  178.1620  139.9630 C   0  0  0  0  0  0  0  0  0  0  0  0
  185.7410  178.3890  144.4070 C   0  0  2  0  0  3  0  0  0  0  0  0
  187.7700  177.7330  141.9720 C   0  0  0  0  0  0  0  0  0  0  0  0
  187.7540  177.5870  145.7280 C   0  0  0  0  0  2  0  0  0  0  0  0
  187.8720  178.6490  139.2950 N   0  0  0  0  0  2  0  0  0  0  0  0
  185.4060  179.3190  148.0130 O   0  0  0  0  0  1  0  0  0  0  0  0
  185.3170  179.1930  145.6370 C   0  0  0  0  0  2  0  0  0  0  0  0
  187.2680  178.1550  144.3920 C   0  0  1  0  0  3  0  0  0  0  0  0
  181.5450  178.4810  139.9600 C   0  0  0  0  0  2  0  0  0  0  0  0
  184.0550  177.9860  141.3850 C   0  0  0  0  0  3  0  0  0  0  0  0
  182.8710  178.6650  142.0760 C   0  0  0  0  0  2  0  0  0  0  0  0
  181.5580  178.1920  141.4580 C   0  0  0  0  0  2  0  0  0  0  0  0
  182.7130  177.7740  139.2790 C   0  0  0  0  0  2  0  0  0  0  0  0
  184.0360  178.2440  139.8770 C   0  0  0  0  0  2  0  0  0  0  0  0
  2 12  1  0  0  0  0
  2 16  1  0  0  0  0
  4 14  2  0  0  0  0
  4 13  1  0  0  0  0
  5 13  2  0  0  0  0
  6  2  2  0  0  0  0
  7  9  1  6  0  0  0
  8 10  1  0  0  0  0
 10 19  1  1  0  0  0
 11  7  1  0  0  0  0
 11 16  2  0  0  0  0
 12  1  1  0  0  0  0
 13  7  1  0  0  0  0
 14 11  1  0  0  0  0
 15  1  1  6  0  0  0
 15 20  1  0  0  0  0
 16  3  1  0  0  0  0
 17  8  1  0  0  0  0
 18 14  1  0  0  0  0
 18  6  1  0  0  0  0
 20 10  1  0  0  0  0
 21  3  1  6  0  0  0
 21 15  1  0  0  0  0
 21 17  1  0  0  0  0
 22 25  1  0  0  0  0
 23 12  1  0  0  0  0
 23 24  1  0  0  0  0
 25 24  1  0  0  0  0
 26 27  1  0  0  0  0
 26 22  1  0  0  0  0
 27 23  1  0  0  0  0
M  END
>  <MODEL>
4

>  <REMARK>
 VINA RESULT:      -7.9      2.346      5.382
  Name = 
  1 active torsions:
  status: ('A' for Active; 'I' for Inactive)
    1  A    between atoms: C_9  and  N_15
                            x       y       z     vdW  Elec       q    Type
                         _______ _______ _______ _____ _____    ______ ____

>  <TORSDO>
F 1

$$$$
=
 OpenBabel11052413403D

 27 31  0  0  1  0  0  0  0  0999 V2000
  186.6480  178.8740  141.4630 C   0  0  0  0  0  2  0  0  0  0  0  0
  184.4140  178.5590  142.5220 C   0  0  0  0  0  0  0  0  0  0  0  0
  184.1370  177.5290  140.1520 C   0  0  0  0  0  2  0  0  0  0  0  0
  180.4710  179.5400  142.4050 N   0  0  0  0  0  0  0  0  0  0  0  0
  178.9310  179.2770  140.6400 O   0  0  0  0  0  0  0  0  0  0  0  0
  183.8840  179.1010  143.5930 N   0  0  0  0  0  0  0  0  0  0  0  0
  181.2100  178.4720  140.3210 C   0  0  2  0  0  3  0  0  0  0  0  0
  186.4310  178.3430  137.2130 C   0  0  0  0  0  2  0  0  0  0  0  0
  180.8970  177.0000  140.1050 C   0  0  0  0  0  1  0  0  0  0  0  0
  187.7410  178.0070  137.9040 C   0  0  1  0  0  3  0  0  0  0  0  0
  182.2850  178.6280  141.3430 C   0  0  0  0  0  0  0  0  0  0  0  0
  185.8200  178.2660  142.4940 N   0  0  0  0  0  0  0  0  0  0  0  0
  180.0930  179.1140  141.0940 C   0  0  0  0  0  0  0  0  0  0  0  0
  181.7210  179.2490  142.5070 C   0  0  0  0  0  0  0  0  0  0  0  0
  186.5920  178.1040  140.1480 C   0  0  2  0  0  3  0  0  0  0  0  0
  183.5780  178.2850  141.3140 C   0  0  0  0  0  0  0  0  0  0  0  0
  185.2800  177.7450  138.0060 C   0  0  0  0  0  2  0  0  0  0  0  0
  182.5240  179.4700  143.6590 N   0  0  0  0  0  2  0  0  0  0  0  0
  188.8040  178.5220  137.1630 O   0  0  0  0  0  1  0  0  0  0  0  0
  187.7480  178.6280  139.2930 C   0  0  0  0  0  2  0  0  0  0  0  0
  185.2360  178.2970  139.4330 C   0  0  1  0  0  3  0  0  0  0  0  0
  188.3870  177.4550  145.8250 C   0  0  0  0  0  2  0  0  0  0  0  0
  186.4980  177.5770  143.5900 C   0  0  0  0  0  3  0  0  0  0  0  0
  188.0060  177.4910  143.3500 C   0  0  0  0  0  2  0  0  0  0  0  0
  188.6820  176.7530  144.5020 C   0  0  0  0  0  2  0  0  0  0  0  0
  186.8820  177.5070  146.0670 C   0  0  0  0  0  2  0  0  0  0  0  0
  186.1890  178.2520  144.9290 C   0  0  0  0  0  2  0  0  0  0  0  0
  1 12  1  0  0  0  0
  2  6  2  0  0  0  0
  3 16  1  0  0  0  0
  4 14  2  0  0  0  0
  5 13  2  0  0  0  0
  6 18  1  0  0  0  0
  7  9  1  1  0  0  0
  7 13  1  0  0  0  0
  7 11  1  0  0  0  0
  8 10  1  0  0  0  0
  8 17  1  0  0  0  0
 10 19  1  6  0  0  0
 10 20  1  0  0  0  0
 11 14  1  0  0  0  0
 12  2  1  0  0  0  0
 12 23  1  0  0  0  0
 13  4  1  0  0  0  0
 14 18  1  0  0  0  0
 15 20  1  6  0  0  0
 15  1  1  0  0  0  0
 16 11  2  0  0  0  0
 16  2  1  0  0  0  0
 21 17  1  6  0  0  0
 21 15  1  0  0  0  0
 21  3  1  0  0  0  0
 22 26  1  0  0  0  0
 23 27  1  0  0  0  0
 24 23  1  0  0  0  0
 24 25  1  0  0  0  0
 25 22  1  0  0  0  0
 27 26  1  0  0  0  0
M  END
>  <MODEL>
5

>  <REMARK>
 VINA RESULT:      -7.6      3.058      6.532
  Name = 
  1 active torsions:
  status: ('A' for Active; 'I' for Inactive)
    1  A    between atoms: C_9  and  N_15
                            x       y       z     vdW  Elec       q    Type
                         _______ _______ _______ _____ _____    ______ ____

>  <TORSDO>
F 1

$$$$
=
 OpenBabel11052413403D

 27 31  0  0  1  0  0  0  0  0999 V2000
  187.7080  178.6940  140.9200 C   0  0  0  0  0  2  0  0  0  0  0  0
  189.2090  177.8580  142.7260 C   0  0  0  0  0  0  0  0  0  0  0  0
  186.8200  177.2980  143.5840 C   0  0  0  0  0  2  0  0  0  0  0  0
  190.3540  178.2740  146.6040 N   0  0  0  0  0  0  0  0  0  0  0  0
  189.0410  178.1570  148.5580 O   0  0  0  0  0  0  0  0  0  0  0  0
  190.4770  178.0930  142.9700 N   0  0  0  0  0  0  0  0  0  0  0  0
  187.9600  177.7630  146.4070 C   0  0  2  0  0  3  0  0  0  0  0  0
  183.6590  179.0050  142.2980 C   0  0  0  0  0  2  0  0  0  0  0  0
  187.4970  176.3370  146.6500 C   0  0  0  0  0  1  0  0  0  0  0  0
  183.8870  178.7260  140.8230 C   0  0  1  0  0  3  0  0  0  0  0  0
  188.6750  177.8610  145.1010 C   0  0  0  0  0  0  0  0  0  0  0  0
  188.7480  177.7800  141.3680 N   0  0  0  0  0  0  0  0  0  0  0  0
  189.1250  178.0720  147.3050 C   0  0  0  0  0  0  0  0  0  0  0  0
  190.0570  178.1490  145.3580 C   0  0  0  0  0  0  0  0  0  0  0  0
  186.3110  178.2040  141.2870 C   0  0  2  0  0  3  0  0  0  0  0  0
  188.2310  177.7180  143.8470 C   0  0  0  0  0  0  0  0  0  0  0  0
  184.5630  178.1020  143.1230 C   0  0  0  0  0  2  0  0  0  0  0  0
  190.9790  178.2440  144.2800 N   0  0  0  0  0  2  0  0  0  0  0  0
  183.0350  179.5240  140.0610 O   0  0  0  0  0  1  0  0  0  0  0  0
  185.3310  179.0480  140.4700 C   0  0  0  0  0  2  0  0  0  0  0  0
  186.0400  178.3430  142.8020 C   0  0  1  0  0  3  0  0  0  0  0  0
  190.8670  176.6680  137.8160 C   0  0  0  0  0  2  0  0  0  0  0  0
  189.4380  176.9860  140.3530 C   0  0  0  0  0  3  0  0  0  0  0  0
  188.6980  177.0230  139.0140 C   0  0  0  0  0  2  0  0  0  0  0  0
  189.4330  176.1740  137.9810 C   0  0  0  0  0  2  0  0  0  0  0  0
  191.6040  176.5990  139.1500 C   0  0  0  0  0  2  0  0  0  0  0  0
  190.8880  177.4520  140.1940 C   0  0  0  0  0  2  0  0  0  0  0  0
  1 15  1  0  0  0  0
  1 12  1  0  0  0  0
  2  6  2  0  0  0  0
  2 16  1  0  0  0  0
  3 16  1  0  0  0  0
  4 13  1  0  0  0  0
  6 18  1  0  0  0  0
  7  9  1  1  0  0  0
  7 13  1  0  0  0  0
  8 17  1  0  0  0  0
 10 19  1  6  0  0  0
 10  8  1  0  0  0  0
 11 14  1  0  0  0  0
 11  7  1  0  0  0  0
 12  2  1  0  0  0  0
 13  5  2  0  0  0  0
 14  4  2  0  0  0  0
 15 20  1  6  0  0  0
 15 21  1  0  0  0  0
 16 11  2  0  0  0  0
 18 14  1  0  0  0  0
 20 10  1  0  0  0  0
 21 17  1  6  0  0  0
 21  3  1  0  0  0  0
 22 25  1  0  0  0  0
 22 26  1  0  0  0  0
 23 12  1  0  0  0  0
 24 23  1  0  0  0  0
 25 24  1  0  0  0  0
 26 27  1  0  0  0  0
 27 23  1  0  0  0  0
M  END
>  <MODEL>
6

>  <REMARK>
 VINA RESULT:      -7.5      2.220      5.849
  Name = 
  1 active torsions:
  status: ('A' for Active; 'I' for Inactive)
    1  A    between atoms: C_9  and  N_15
                            x       y       z     vdW  Elec       q    Type
                         _______ _______ _______ _____ _____    ______ ____

>  <TORSDO>
F 1

$$$$
=
 OpenBabel11052413403D

 27 31  0  0  1  0  0  0  0  0999 V2000
  188.0350  178.9650  142.1550 C   0  0  0  0  0  2  0  0  0  0  0  0
  187.1240  178.2570  139.9460 C   0  0  0  0  0  0  0  0  0  0  0  0
  189.2090  176.7420  140.2810 C   0  0  0  0  0  2  0  0  0  0  0  0
  187.7950  178.0570  135.9410 N   0  0  0  0  0  0  0  0  0  0  0  0
  189.5760  177.0310  134.7870 O   0  0  0  0  0  0  0  0  0  0  0  0
  186.2540  178.8310  139.1480 N   0  0  0  0  0  0  0  0  0  0  0  0
  189.5080  176.8460  137.2180 C   0  0  2  0  0  3  0  0  0  0  0  0
  192.0520  177.5640  142.6900 C   0  0  0  0  0  2  0  0  0  0  0  0
  189.4060  175.3330  137.3210 C   0  0  0  0  0  1  0  0  0  0  0  0
  191.1940  177.7500  143.9300 C   0  0  1  0  0  3  0  0  0  0  0  0
  188.4620  177.4950  138.0600 C   0  0  0  0  0  0  0  0  0  0  0  0
  186.9660  178.3680  141.3690 N   0  0  0  0  0  0  0  0  0  0  0  0
  189.0000  177.2920  135.8760 C   0  0  0  0  0  0  0  0  0  0  0  0
  187.5240  178.1520  137.1960 C   0  0  0  0  0  0  0  0  0  0  0  0
  189.1380  177.9650  142.4840 C   0  0  2  0  0  3  0  0  0  0  0  0
  188.3030  177.5270  139.3890 C   0  0  0  0  0  0  0  0  0  0  0  0
  191.2430  176.8380  141.6270 C   0  0  0  0  0  2  0  0  0  0  0  0
  186.3900  178.8120  137.7440 N   0  0  0  0  0  2  0  0  0  0  0  0
  191.9420  178.3820  144.9220 O   0  0  0  0  0  1  0  0  0  0  0  0
  189.9890  178.6100  143.5800 C   0  0  0  0  0  2  0  0  0  0  0  0
  189.9890  177.6270  141.2410 C   0  0  1  0  0  3  0  0  0  0  0  0
  183.2890  178.9950  143.4730 C   0  0  0  0  0  2  0  0  0  0  0  0
  185.6870  178.1260  142.0350 C   0  0  0  0  0  3  0  0  0  0  0  0
  185.7450  178.5120  143.5150 C   0  0  0  0  0  2  0  0  0  0  0  0
  184.4020  178.2330  144.1850 C   0  0  0  0  0  2  0  0  0  0  0  0
  183.2220  178.5810  142.0070 C   0  0  0  0  0  2  0  0  0  0  0  0
  184.5540  178.8630  141.3170 C   0  0  0  0  0  2  0  0  0  0  0  0
  2 12  1  0  0  0  0
  4 14  2  0  0  0  0
  5 13  2  0  0  0  0
  6  2  2  0  0  0  0
  7  9  1  6  0  0  0
  7 11  1  0  0  0  0
  8 10  1  0  0  0  0
 10 19  1  1  0  0  0
 11 16  2  0  0  0  0
 12 23  1  0  0  0  0
 12  1  1  0  0  0  0
 13  4  1  0  0  0  0
 13  7  1  0  0  0  0
 14 18  1  0  0  0  0
 14 11  1  0  0  0  0
 15  1  1  6  0  0  0
 15 20  1  0  0  0  0
 16  2  1  0  0  0  0
 16  3  1  0  0  0  0
 17  8  1  0  0  0  0
 18  6  1  0  0  0  0
 20 10  1  0  0  0  0
 21  3  1  6  0  0  0
 21 17  1  0  0  0  0
 21 15  1  0  0  0  0
 22 25  1  0  0  0  0
 23 24  1  0  0  0  0
 24 25  1  0  0  0  0
 26 22  1  0  0  0  0
 27 26  1  0  0  0  0
 27 23  1  0  0  0  0
M  END
>  <MODEL>
7

>  <REMARK>
 VINA RESULT:      -7.4      3.042      5.496
  Name = 
  1 active torsions:
  status: ('A' for Active; 'I' for Inactive)
    1  A    between atoms: C_9  and  N_15
                            x       y       z     vdW  Elec       q    Type
                         _______ _______ _______ _____ _____    ______ ____

>  <TORSDO>
F 1

$$$$
=
 OpenBabel11052413403D

 27 31  0  0  1  0  0  0  0  0999 V2000
  187.3470  178.8490  142.1750 C   0  0  0  0  0  2  0  0  0  0  0  0
  189.3890  177.7250  143.0590 C   0  0  0  0  0  0  0  0  0  0  0  0
  187.5290  177.0730  144.7530 C   0  0  0  0  0  2  0  0  0  0  0  0
  192.0560  177.5250  146.1210 N   0  0  0  0  0  0  0  0  0  0  0  0
  191.6570  177.1260  148.4090 O   0  0  0  0  0  0  0  0  0  0  0  0
  190.6590  177.9030  142.7800 N   0  0  0  0  0  0  0  0  0  0  0  0
  189.7610  177.0830  146.8760 C   0  0  2  0  0  3  0  0  0  0  0  0
  184.2590  179.0010  145.1470 C   0  0  0  0  0  2  0  0  0  0  0  0
  189.3310  175.6420  147.0970 C   0  0  0  0  0  1  0  0  0  0  0  0
  183.8390  178.9480  143.6890 C   0  0  1  0  0  3  0  0  0  0  0  0
  189.8810  177.3700  145.4170 C   0  0  0  0  0  0  0  0  0  0  0  0
  188.4060  177.8630  142.0210 N   0  0  0  0  0  0  0  0  0  0  0  0
  191.2120  177.2340  147.2370 C   0  0  0  0  0  0  0  0  0  0  0  0
  191.2640  177.5960  145.1080 C   0  0  0  0  0  0  0  0  0  0  0  0
  186.1920  178.3280  143.0240 C   0  0  2  0  0  3  0  0  0  0  0  0
  188.9510  177.4280  144.4560 C   0  0  0  0  0  0  0  0  0  0  0  0
  185.3500  177.9690  145.3900 C   0  0  0  0  0  2  0  0  0  0  0  0
  191.6650  177.8440  143.7670 N   0  0  0  0  0  2  0  0  0  0  0  0
  182.8130  179.8660  143.4670 O   0  0  0  0  0  1  0  0  0  0  0  0
  185.0300  179.3010  142.8110 C   0  0  0  0  0  2  0  0  0  0  0  0
  186.5790  178.2360  144.5160 C   0  0  1  0  0  3  0  0  0  0  0  0
  189.4430  177.1720  137.9230 C   0  0  0  0  0  2  0  0  0  0  0  0
  188.5550  177.2260  140.7140 C   0  0  0  0  0  3  0  0  0  0  0  0
  187.8030  177.9970  139.6260 C   0  0  0  0  0  2  0  0  0  0  0  0
  187.9640  177.2990  138.2790 C   0  0  0  0  0  2  0  0  0  0  0  0
  190.1750  176.3770  138.9990 C   0  0  0  0  0  2  0  0  0  0  0  0
  190.0340  177.0660  140.3540 C   0  0  0  0  0  2  0  0  0  0  0  0
  2 16  1  0  0  0  0
  4 13  1  0  0  0  0
  6  2  2  0  0  0  0
  6 18  1  0  0  0  0
  7  9  1  6  0  0  0
  7 13  1  0  0  0  0
  8 17  1  0  0  0  0
 10 19  1  1  0  0  0
 10  8  1  0  0  0  0
 11  7  1  0  0  0  0
 12  1  1  0  0  0  0
 12  2  1  0  0  0  0
 13  5  2  0  0  0  0
 14 11  1  0  0  0  0
 14  4  2  0  0  0  0
 15  1  1  6  0  0  0
 15 21  1  0  0  0  0
 16  3  1  0  0  0  0
 16 11  2  0  0  0  0
 18 14  1  0  0  0  0
 20 15  1  0  0  0  0
 20 10  1  0  0  0  0
 21  3  1  6  0  0  0
 21 17  1  0  0  0  0
 22 25  1  0  0  0  0
 22 26  1  0  0  0  0
 23 12  1  0  0  0  0
 24 23  1  0  0  0  0
 25 24  1  0  0  0  0
 26 27  1  0  0  0  0
 27 23  1  0  0  0  0
M  END
>  <MODEL>
8

>  <REMARK>
 VINA RESULT:      -7.4      2.482      5.746
  Name = 
  1 active torsions:
  status: ('A' for Active; 'I' for Inactive)
    1  A    between atoms: C_9  and  N_15
                            x       y       z     vdW  Elec       q    Type
                         _______ _______ _______ _____ _____    ______ ____

>  <TORSDO>
F 1

$$$$
=
 OpenBabel11052413403D

 27 31  0  0  1  0  0  0  0  0999 V2000
  190.0940  176.1800  143.5860 C   0  0  0  0  0  2  0  0  0  0  0  0
  188.0640  177.5290  143.0650 C   0  0  0  0  0  0  0  0  0  0  0  0
  188.7130  178.2730  145.4690 C   0  0  0  0  0  2  0  0  0  0  0  0
  184.1860  178.2750  144.0300 N   0  0  0  0  0  0  0  0  0  0  0  0
  183.2750  178.9320  146.1020 O   0  0  0  0  0  0  0  0  0  0  0  0
  187.1600  177.3970  142.1220 N   0  0  0  0  0  0  0  0  0  0  0  0
  185.6930  178.6660  145.9290 C   0  0  2  0  0  3  0  0  0  0  0  0
  190.9320  176.2120  147.7910 C   0  0  0  0  0  2  0  0  0  0  0  0
  186.0960  180.0940  146.2580 C   0  0  0  0  0  1  0  0  0  0  0  0
  192.1020  176.0560  146.8360 C   0  0  1  0  0  3  0  0  0  0  0  0
  186.3800  178.2060  144.6870 C   0  0  0  0  0  0  0  0  0  0  0  0
  189.4350  177.2020  142.7870 N   0  0  0  0  0  0  0  0  0  0  0  0
  184.2850  178.6510  145.4050 C   0  0  0  0  0  0  0  0  0  0  0  0
  185.3940  178.0290  143.6590 C   0  0  0  0  0  0  0  0  0  0  0  0
  190.6260  176.7310  144.9050 C   0  0  2  0  0  3  0  0  0  0  0  0
  187.6740  177.9720  144.4380 C   0  0  0  0  0  0  0  0  0  0  0  0
  190.0280  177.3310  147.2970 C   0  0  0  0  0  2  0  0  0  0  0  0
  185.7900  177.6400  142.3500 N   0  0  0  0  0  2  0  0  0  0  0  0
  192.9540  175.0560  147.3040 O   0  0  0  0  0  1  0  0  0  0  0  0
  191.5770  175.6700  145.4610 C   0  0  0  0  0  2  0  0  0  0  0  0
  189.4820  177.0330  145.8980 C   0  0  1  0  0  3  0  0  0  0  0  0
  191.5120  177.2740  139.0430 C   0  0  0  0  0  2  0  0  0  0  0  0
  190.1250  177.6790  141.5900 C   0  0  0  0  0  3  0  0  0  0  0  0
  191.5720  177.1840  141.5440 C   0  0  0  0  0  2  0  0  0  0  0  0
  192.2700  177.7100  140.2930 C   0  0  0  0  0  2  0  0  0  0  0  0
  190.0810  177.7990  139.0860 C   0  0  0  0  0  2  0  0  0  0  0  0
  189.3630  177.2730  140.3270 C   0  0  0  0  0  2  0  0  0  0  0  0
  2 16  1  0  0  0  0
  4 13  1  0  0  0  0
  6 18  1  0  0  0  0
  6  2  2  0  0  0  0
  7  9  1  6  0  0  0
 10 19  1  1  0  0  0
 10  8  1  0  0  0  0
 11  7  1  0  0  0  0
 12  2  1  0  0  0  0
 12  1  1  0  0  0  0
 13  7  1  0  0  0  0
 13  5  2  0  0  0  0
 14  4  2  0  0  0  0
 14 11  1  0  0  0  0
 15  1  1  6  0  0  0
 15 20  1  0  0  0  0
 15 21  1  0  0  0  0
 16 11  2  0  0  0  0
 16  3  1  0  0  0  0
 17  8  1  0  0  0  0
 18 14  1  0  0  0  0
 20 10  1  0  0  0  0
 21  3  1  6  0  0  0
 21 17  1  0  0  0  0
 22 26  1  0  0  0  0
 22 25  1  0  0  0  0
 23 12  1  0  0  0  0
 24 23  1  0  0  0  0
 25 24  1  0  0  0  0
 26 27  1  0  0  0  0
 27 23  1  0  0  0  0
M  END
>  <MODEL>
9

>  <REMARK>
 VINA RESULT:      -7.2      2.750      7.038
  Name = 
  1 active torsions:
  status: ('A' for Active; 'I' for Inactive)
    1  A    between atoms: C_9  and  N_15
                            x       y       z     vdW  Elec       q    Type
                         _______ _______ _______ _____ _____    ______ ____

>  <TORSDO>
F 1

$$$$
