=
 OpenBabel11052416313D

 43 48  0  0  1  0  0  0  0  0999 V2000
  187.9280  178.1350  144.3140 O   0  0  0  0  0  0  0  0  0  0  0  0
  191.6820  176.2120  147.0410 C   0  0  0  0  0  0  0  0  0  0  0  0
  189.6340  177.4390  142.6480 C   0  0  0  0  0  0  0  0  0  0  0  0
  191.2590  176.5650  144.7330 C   0  0  0  0  0  0  0  0  0  0  0  0
  190.4380  176.7520  147.3750 C   0  0  0  0  0  3  0  0  0  0  0  0
  192.5910  175.7260  148.1130 C   0  0  0  0  0  1  0  0  0  0  0  0
  189.9950  177.1150  145.0220 C   0  0  0  0  0  0  0  0  0  0  0  0
  192.0650  176.1310  145.7390 N   0  0  0  0  0  0  0  0  0  0  0  0
  189.5940  177.2050  146.3600 C   0  0  0  0  0  3  0  0  0  0  0  0
  189.1720  177.5750  143.9820 C   0  0  0  0  0  0  0  0  0  0  0  0
  190.8610  176.8960  142.4100 N   0  0  0  0  0  0  0  0  0  0  0  0
  191.6750  176.4690  143.4090 C   0  0  0  0  0  3  0  0  0  0  0  0
  188.7840  177.7860  141.4670 C   0  0  0  0  0  2  0  0  0  0  0  0
  189.5440  177.5560  140.1690 C   0  0  0  0  0  2  0  0  0  0  0  0
  188.8600  178.2670  139.0110 C   0  0  0  0  0  2  0  0  0  0  0  0
  188.0630  175.2550  136.6870 C   0  0  0  0  0  2  0  0  0  0  0  0
  185.6610  177.1520  136.9680 C   0  0  0  0  0  2  0  0  0  0  0  0
  185.9410  175.7960  136.3270 C   0  0  0  0  0  2  0  0  0  0  0  0
  188.8350  176.1570  137.6490 C   0  0  0  0  0  2  0  0  0  0  0  0
  187.9920  177.3050  138.2160 C   0  0  2  0  0  3  0  0  0  0  0  0
  186.7660  175.0230  137.1540 O   0  0  0  0  0  0  0  0  0  0  0  0
  187.1350  178.2260  136.8960 S   0  0  0  0  0  0  0  0  0  0  0  0
  186.7030  177.4170  144.3060 C   0  0  0  0  0  2  0  0  0  0  0  0
  185.6430  178.1900  145.0720 C   0  0  0  0  0  2  0  0  0  0  0  0
  184.7730  179.0090  144.1280 C   0  0  1  0  0  3  0  0  0  0  0  0
  182.6710  179.8180  140.8060 F   0  0  0  0  0  0  0  0  0  0  0  0
  182.9470  178.4670  140.9870 C   0  0  2  0  0  0  0  0  0  0  0  0
  184.7470  178.4030  142.7980 N   0  0  2  0  0  0  0  0  0  0  0  0
  183.3560  179.0660  144.6650 C   0  0  0  0  0  2  0  0  0  0  0  0
  185.3810  179.3640  141.8900 C   0  0  0  0  0  2  0  0  0  0  0  0
  183.3230  178.2010  142.4620 C   0  0  1  0  0  3  0  0  0  0  0  0
  184.1280  178.0640  140.0970 C   0  0  0  0  0  2  0  0  0  0  0  0
  182.4800  178.9780  143.4480 C   0  0  0  0  0  2  0  0  0  0  0  0
  185.4140  178.8150  140.4630 C   0  0  0  0  0  2  0  0  0  0  0  0
  181.7700  177.6590  140.6580 N   0  0  0  0  0  2  0  0  0  0  0  0
  181.9300  177.0180  139.3540 C   0  0  1  0  0  3  0  0  0  0  0  0
  181.5460  175.5540  139.4550 C   0  0  0  0  0  1  0  0  0  0  0  0
  181.0850  177.7060  138.3320 C   0  0  0  0  0  0  0  0  0  0  0  0
  178.9310  177.9730  137.2560 N   0  0  0  0  0  0  0  0  0  0  0  0
  180.2070  180.0400  137.4860 C   0  0  0  0  0  2  0  0  0  0  0  0
  179.0840  179.2230  136.9260 C   0  0  0  0  0  3  0  0  0  0  0  0
  181.7470  179.0820  137.3700 S   0  0  0  0  0  0  0  0  0  0  0  0
  179.8390  177.2730  138.1210 C   0  0  0  0  0  3  0  0  0  0  0  0
  2  5  1  0  0  0  0
  2  6  1  0  0  0  0
  3 10  1  0  0  0  0
  4  7  1  0  0  0  0
  4  8  1  0  0  0  0
  7  9  1  0  0  0  0
  8  2  2  0  0  0  0
  9  5  2  0  0  0  0
 10  1  1  0  0  0  0
 10  7  2  0  0  0  0
 11  3  2  0  0  0  0
 11 12  1  0  0  0  0
 12  4  2  0  0  0  0
 13  3  1  0  0  0  0
 14 13  1  0  0  0  0
 15 14  1  0  0  0  0
 16 21  1  0  0  0  0
 16 19  1  0  0  0  0
 18 17  1  0  0  0  0
 18 21  1  0  0  0  0
 19 20  1  0  0  0  0
 20 15  1  6  0  0  0
 22 17  1  0  0  0  0
 22 20  1  0  0  0  0
 23  1  1  0  0  0  0
 23 24  1  0  0  0  0
 25 29  1  0  0  0  0
 25 24  1  1  0  0  0
 27 26  1  6  0  0  0
 27 31  1  0  0  0  0
 28 30  1  6  0  0  0
 28 25  1  0  0  0  0
 31 28  1  0  0  0  0
 31 33  1  1  0  0  0
 32 34  1  0  0  0  0
 32 27  1  0  0  0  0
 33 29  1  0  0  0  0
 34 30  1  0  0  0  0
 35 27  1  0  0  0  0
 36 37  1  1  0  0  0
 36 35  1  0  0  0  0
 38 36  1  0  0  0  0
 39 43  1  0  0  0  0
 41 39  2  0  0  0  0
 41 40  1  0  0  0  0
 42 40  1  0  0  0  0
 42 38  1  0  0  0  0
 43 38  2  0  0  0  0
M  END
>  <MODEL>
1

>  <REMARK>
 VINA RESULT:      -8.4      0.000      0.000
  Name = 
  11 active torsions:
  status: ('A' for Active; 'I' for Inactive)
    1  A    between atoms: C_1  and  C_28
    2  A    between atoms: C_1  and  C_34
    3  A    between atoms: C_2  and  C_13
    4  A    between atoms: C_4  and  N_22
    5  A    between atoms: C_8  and  C_34
    6  A    between atoms: C_11  and  C_14
    7  A    between atoms: C_13  and  C_38
    8  A    between atoms: C_14  and  N_22
    9  A    between atoms: O_27  and  C_30
   10  A    between atoms: O_27  and  C_38
   11  A    between atoms: C_28  and  C_35
                            x       y       z     vdW  Elec       q    Type
                         _______ _______ _______ _____ _____    ______ ____

>  <TORSDO>
F 11

$$$$
=
 OpenBabel11052416313D

 43 48  0  0  1  0  0  0  0  0999 V2000
  184.8540  177.9400  142.1630 O   0  0  0  0  0  0  0  0  0  0  0  0
  188.3790  177.3930  145.7000 C   0  0  0  0  0  0  0  0  0  0  0  0
  183.8070  178.8020  144.2440 C   0  0  0  0  0  0  0  0  0  0  0  0
  186.1510  178.2080  145.6240 C   0  0  0  0  0  0  0  0  0  0  0  0
  188.3490  177.1200  144.3300 C   0  0  0  0  0  3  0  0  0  0  0  0
  189.6040  177.0990  146.4870 C   0  0  0  0  0  1  0  0  0  0  0  0
  186.0760  177.9510  144.2410 C   0  0  0  0  0  0  0  0  0  0  0  0
  187.2890  177.9260  146.3140 N   0  0  0  0  0  0  0  0  0  0  0  0
  187.1920  177.4000  143.6020 C   0  0  0  0  0  3  0  0  0  0  0  0
  184.8940  178.2300  143.5360 C   0  0  0  0  0  0  0  0  0  0  0  0
  183.9220  179.0410  145.5810 N   0  0  0  0  0  0  0  0  0  0  0  0
  185.0510  178.7540  146.2780 C   0  0  0  0  0  3  0  0  0  0  0  0
  182.5530  179.2470  143.5610 C   0  0  0  0  0  2  0  0  0  0  0  0
  181.3410  178.5340  144.1430 C   0  0  0  0  0  2  0  0  0  0  0  0
  180.0630  179.0030  143.4650 C   0  0  0  0  0  2  0  0  0  0  0  0
  179.5480  180.9880  140.1630 C   0  0  0  0  0  2  0  0  0  0  0  0
  181.3110  178.5050  139.7440 C   0  0  0  0  0  2  0  0  0  0  0  0
  180.8560  179.7010  138.9140 C   0  0  0  0  0  2  0  0  0  0  0  0
  179.4700  180.6300  141.6460 C   0  0  0  0  0  2  0  0  0  0  0  0
  180.3290  179.4200  142.0270 C   0  0  2  0  0  3  0  0  0  0  0  0
  180.8580  180.8670  139.6900 O   0  0  0  0  0  0  0  0  0  0  0  0
  180.0170  177.9990  140.9270 S   0  0  0  0  0  0  0  0  0  0  0  0
  185.0990  178.8940  141.1390 C   0  0  0  0  0  2  0  0  0  0  0  0
  185.1570  178.2010  139.7880 C   0  0  0  0  0  2  0  0  0  0  0  0
  186.4100  178.5990  139.0210 C   0  0  1  0  0  3  0  0  0  0  0  0
  190.0860  178.1690  137.4710 F   0  0  0  0  0  0  0  0  0  0  0  0
  189.4850  176.9720  137.8430 C   0  0  2  0  0  0  0  0  0  0  0  0
  187.4980  177.6610  139.2920 N   0  0  2  0  0  0  0  0  0  0  0  0
  186.1190  178.5920  137.5330 C   0  0  0  0  0  2  0  0  0  0  0  0
  188.5450  178.4240  139.9770 C   0  0  0  0  0  2  0  0  0  0  0  0
  187.9590  177.1710  137.9770 C   0  0  1  0  0  3  0  0  0  0  0  0
  190.0440  176.5210  139.1980 C   0  0  0  0  0  2  0  0  0  0  0  0
  187.3690  178.0520  136.8990 C   0  0  0  0  0  2  0  0  0  0  0  0
  189.7330  177.5220  140.3170 C   0  0  0  0  0  2  0  0  0  0  0  0
  189.7290  175.9420  136.8300 N   0  0  0  0  0  2  0  0  0  0  0  0
  190.8250  175.0650  137.2370 C   0  0  1  0  0  3  0  0  0  0  0  0
  190.4600  173.6230  136.9390 C   0  0  0  0  0  1  0  0  0  0  0  0
  192.0820  175.4410  136.5230 C   0  0  0  0  0  0  0  0  0  0  0  0
  194.2350  176.5510  136.5540 N   0  0  0  0  0  0  0  0  0  0  0  0
  194.1690  174.5140  135.2110 C   0  0  0  0  0  2  0  0  0  0  0  0
  194.8060  175.7920  135.6630 C   0  0  0  0  0  3  0  0  0  0  0  0
  192.4120  174.8240  134.8600 S   0  0  0  0  0  0  0  0  0  0  0  0
  192.9490  176.2610  137.1230 C   0  0  0  0  0  3  0  0  0  0  0  0
  1 10  1  0  0  0  0
  2  8  1  0  0  0  0
  2  6  1  0  0  0  0
  3 11  1  0  0  0  0
  4 12  1  0  0  0  0
  4  8  2  0  0  0  0
  5  2  2  0  0  0  0
  7  4  1  0  0  0  0
  9  7  2  0  0  0  0
  9  5  1  0  0  0  0
 10  7  1  0  0  0  0
 10  3  2  0  0  0  0
 11 12  2  0  0  0  0
 13 14  1  0  0  0  0
 13  3  1  0  0  0  0
 15 14  1  0  0  0  0
 16 19  1  0  0  0  0
 17 22  1  0  0  0  0
 18 21  1  0  0  0  0
 18 17  1  0  0  0  0
 19 20  1  0  0  0  0
 20 15  1  1  0  0  0
 21 16  1  0  0  0  0
 22 20  1  0  0  0  0
 23  1  1  0  0  0  0
 24 23  1  0  0  0  0
 25 28  1  0  0  0  0
 25 24  1  1  0  0  0
 27 26  1  6  0  0  0
 27 31  1  0  0  0  0
 27 32  1  0  0  0  0
 28 30  1  6  0  0  0
 29 25  1  0  0  0  0
 30 34  1  0  0  0  0
 31 33  1  6  0  0  0
 31 28  1  0  0  0  0
 32 34  1  0  0  0  0
 33 29  1  0  0  0  0
 35 36  1  0  0  0  0
 35 27  1  0  0  0  0
 36 37  1  6  0  0  0
 38 43  2  0  0  0  0
 38 36  1  0  0  0  0
 39 43  1  0  0  0  0
 40 41  1  0  0  0  0
 41 39  2  0  0  0  0
 42 40  1  0  0  0  0
 42 38  1  0  0  0  0
M  END
>  <MODEL>
2

>  <REMARK>
 VINA RESULT:      -8.1      3.520      8.309
  Name = 
  11 active torsions:
  status: ('A' for Active; 'I' for Inactive)
    1  A    between atoms: C_1  and  C_28
    2  A    between atoms: C_1  and  C_34
    3  A    between atoms: C_2  and  C_13
    4  A    between atoms: C_4  and  N_22
    5  A    between atoms: C_8  and  C_34
    6  A    between atoms: C_11  and  C_14
    7  A    between atoms: C_13  and  C_38
    8  A    between atoms: C_14  and  N_22
    9  A    between atoms: O_27  and  C_30
   10  A    between atoms: O_27  and  C_38
   11  A    between atoms: C_28  and  C_35
                            x       y       z     vdW  Elec       q    Type
                         _______ _______ _______ _____ _____    ______ ____

>  <TORSDO>
F 11

$$$$
=
 OpenBabel11052416313D

 43 48  0  0  1  0  0  0  0  0999 V2000
  187.4880  178.2340  143.7010 O   0  0  0  0  0  0  0  0  0  0  0  0
  191.2030  176.5410  146.6280 C   0  0  0  0  0  0  0  0  0  0  0  0
  189.3830  177.8200  142.1500 C   0  0  0  0  0  0  0  0  0  0  0  0
  190.9250  176.9900  144.3140 C   0  0  0  0  0  0  0  0  0  0  0  0
  189.8850  176.9290  146.8840 C   0  0  0  0  0  3  0  0  0  0  0  0
  192.0720  176.0860  147.7440 C   0  0  0  0  0  1  0  0  0  0  0  0
  189.5900  177.3890  144.5250 C   0  0  0  0  0  0  0  0  0  0  0  0
  191.6920  176.5800  145.3590 N   0  0  0  0  0  0  0  0  0  0  0  0
  189.0800  177.3550  145.8280 C   0  0  0  0  0  3  0  0  0  0  0  0
  188.8060  177.8260  143.4450 C   0  0  0  0  0  0  0  0  0  0  0  0
  190.6760  177.4220  141.9870 N   0  0  0  0  0  0  0  0  0  0  0  0
  191.4510  177.0190  143.0260 C   0  0  0  0  0  3  0  0  0  0  0  0
  188.5940  178.1500  140.9220 C   0  0  0  0  0  2  0  0  0  0  0  0
  189.3470  177.7270  139.6690 C   0  0  0  0  0  2  0  0  0  0  0  0
  189.1270  178.7280  138.5440 C   0  0  0  0  0  2  0  0  0  0  0  0
  187.0380  177.8400  135.3890 C   0  0  0  0  0  2  0  0  0  0  0  0
  189.2440  175.7680  135.9220 C   0  0  0  0  0  2  0  0  0  0  0  0
  188.2160  176.0440  134.8300 C   0  0  0  0  0  2  0  0  0  0  0  0
  187.5370  178.6220  136.6030 C   0  0  0  0  0  2  0  0  0  0  0  0
  188.7940  178.0200  137.2410 C   0  0  2  0  0  3  0  0  0  0  0  0
  188.1090  177.4200  134.5940 O   0  0  0  0  0  0  0  0  0  0  0  0
  188.5980  176.2360  137.5630 S   0  0  0  0  0  0  0  0  0  0  0  0
  186.3360  177.5440  143.2370 C   0  0  0  0  0  2  0  0  0  0  0  0
  185.0900  178.1180  143.8910 C   0  0  0  0  0  2  0  0  0  0  0  0
  184.2570  178.9040  142.8880 C   0  0  1  0  0  3  0  0  0  0  0  0
  182.3710  179.6420  139.4230 F   0  0  0  0  0  0  0  0  0  0  0  0
  182.6890  178.3020  139.6210 C   0  0  2  0  0  0  0  0  0  0  0  0
  184.3530  178.3050  141.5580 N   0  0  2  0  0  0  0  0  0  0  0  0
  182.8030  178.8990  143.3200 C   0  0  0  0  0  2  0  0  0  0  0  0
  185.0110  179.2950  140.7010 C   0  0  0  0  0  2  0  0  0  0  0  0
  182.9670  178.0450  141.1190 C   0  0  1  0  0  3  0  0  0  0  0  0
  183.9480  177.9530  138.8190 C   0  0  0  0  0  2  0  0  0  0  0  0
  182.0230  178.7810  142.0430 C   0  0  0  0  0  2  0  0  0  0  0  0
  185.1710  178.7550  139.2790 C   0  0  0  0  0  2  0  0  0  0  0  0
  181.5730  177.4470  139.2060 N   0  0  0  0  0  2  0  0  0  0  0  0
  181.8770  176.0410  139.4590 C   0  0  1  0  0  3  0  0  0  0  0  0
  180.7280  175.4000  140.2140 C   0  0  0  0  0  1  0  0  0  0  0  0
  182.1160  175.3220  138.1710 C   0  0  0  0  0  0  0  0  0  0  0  0
  183.4950  173.8310  136.8500 N   0  0  0  0  0  0  0  0  0  0  0  0
  181.0990  173.6230  136.4360 C   0  0  0  0  0  2  0  0  0  0  0  0
  182.5370  173.3680  136.1010 C   0  0  0  0  0  3  0  0  0  0  0  0
  180.8930  175.3820  136.8460 S   0  0  0  0  0  0  0  0  0  0  0  0
  183.2610  174.6540  138.0040 C   0  0  0  0  0  3  0  0  0  0  0  0
  2  5  1  0  0  0  0
  2  6  1  0  0  0  0
  3 10  1  0  0  0  0
  4  7  1  0  0  0  0
  4  8  1  0  0  0  0
  7  9  1  0  0  0  0
  8  2  2  0  0  0  0
  9  5  2  0  0  0  0
 10  1  1  0  0  0  0
 10  7  2  0  0  0  0
 11  3  2  0  0  0  0
 11 12  1  0  0  0  0
 12  4  2  0  0  0  0
 13  3  1  0  0  0  0
 14 13  1  0  0  0  0
 15 14  1  0  0  0  0
 16 19  1  0  0  0  0
 17 22  1  0  0  0  0
 18 17  1  0  0  0  0
 19 20  1  0  0  0  0
 20 22  1  0  0  0  0
 20 15  1  1  0  0  0
 21 18  1  0  0  0  0
 21 16  1  0  0  0  0
 23  1  1  0  0  0  0
 23 24  1  0  0  0  0
 25 29  1  0  0  0  0
 25 24  1  1  0  0  0
 27 26  1  6  0  0  0
 27 31  1  0  0  0  0
 28 30  1  6  0  0  0
 28 25  1  0  0  0  0
 31 28  1  0  0  0  0
 31 33  1  1  0  0  0
 32 34  1  0  0  0  0
 32 27  1  0  0  0  0
 33 29  1  0  0  0  0
 34 30  1  0  0  0  0
 35 36  1  0  0  0  0
 35 27  1  0  0  0  0
 36 37  1  6  0  0  0
 38 36  1  0  0  0  0
 39 43  1  0  0  0  0
 40 42  1  0  0  0  0
 41 40  1  0  0  0  0
 41 39  2  0  0  0  0
 42 38  1  0  0  0  0
 43 38  2  0  0  0  0
M  END
>  <MODEL>
3

>  <REMARK>
 VINA RESULT:      -8.0      1.867      2.487
  Name = 
  11 active torsions:
  status: ('A' for Active; 'I' for Inactive)
    1  A    between atoms: C_1  and  C_28
    2  A    between atoms: C_1  and  C_34
    3  A    between atoms: C_2  and  C_13
    4  A    between atoms: C_4  and  N_22
    5  A    between atoms: C_8  and  C_34
    6  A    between atoms: C_11  and  C_14
    7  A    between atoms: C_13  and  C_38
    8  A    between atoms: C_14  and  N_22
    9  A    between atoms: O_27  and  C_30
   10  A    between atoms: O_27  and  C_38
   11  A    between atoms: C_28  and  C_35
                            x       y       z     vdW  Elec       q    Type
                         _______ _______ _______ _____ _____    ______ ____

>  <TORSDO>
F 11

$$$$
=
 OpenBabel11052416313D

 43 48  0  0  1  0  0  0  0  0999 V2000
  182.6490  177.1540  138.6870 O   0  0  0  0  0  0  0  0  0  0  0  0
  180.3540  172.8900  137.3530 C   0  0  0  0  0  0  0  0  0  0  0  0
  183.9410  176.3180  136.7370 C   0  0  0  0  0  0  0  0  0  0  0  0
  182.2290  174.1280  136.5890 C   0  0  0  0  0  0  0  0  0  0  0  0
  180.1070  173.8360  138.3510 C   0  0  0  0  0  3  0  0  0  0  0  0
  179.4720  171.7010  137.2250 C   0  0  0  0  0  1  0  0  0  0  0  0
  182.0180  175.1090  137.5780 C   0  0  0  0  0  0  0  0  0  0  0  0
  181.4020  173.0520  136.5010 N   0  0  0  0  0  0  0  0  0  0  0  0
  180.9440  174.9470  138.4610 C   0  0  0  0  0  3  0  0  0  0  0  0
  182.8830  176.2100  137.6750 C   0  0  0  0  0  0  0  0  0  0  0  0
  184.1090  175.3510  135.7920 N   0  0  0  0  0  0  0  0  0  0  0  0
  183.2920  174.2700  135.7030 C   0  0  0  0  0  3  0  0  0  0  0  0
  184.8410  177.5130  136.6810 C   0  0  0  0  0  2  0  0  0  0  0  0
  186.2980  177.0960  136.8180 C   0  0  0  0  0  2  0  0  0  0  0  0
  186.9360  177.7570  138.0300 C   0  0  0  0  0  2  0  0  0  0  0  0
  190.4590  177.4940  139.6500 C   0  0  0  0  0  2  0  0  0  0  0  0
  190.1290  175.5350  137.3050 C   0  0  0  0  0  2  0  0  0  0  0  0
  191.1760  175.8240  138.3740 C   0  0  0  0  0  2  0  0  0  0  0  0
  189.0170  177.9420  139.4240 C   0  0  0  0  0  2  0  0  0  0  0  0
  188.2940  177.1440  138.3350 C   0  0  2  0  0  3  0  0  0  0  0  0
  190.5610  176.1000  139.6020 O   0  0  0  0  0  0  0  0  0  0  0  0
  189.2720  177.0640  136.7970 S   0  0  0  0  0  0  0  0  0  0  0  0
  183.4080  177.2430  139.8850 C   0  0  0  0  0  2  0  0  0  0  0  0
  182.7900  178.2730  140.8150 C   0  0  0  0  0  2  0  0  0  0  0  0
  183.8550  178.9620  141.6560 C   0  0  1  0  0  3  0  0  0  0  0  0
  186.3420  179.4930  144.7600 F   0  0  0  0  0  0  0  0  0  0  0  0
  185.8490  178.1970  144.6440 C   0  0  2  0  0  0  0  0  0  0  0  0
  183.9070  178.3830  142.9970 N   0  0  2  0  0  0  0  0  0  0  0  0
  185.2110  178.7910  140.9990 C   0  0  0  0  0  2  0  0  0  0  0  0
  183.5100  179.4450  143.9250 C   0  0  0  0  0  2  0  0  0  0  0  0
  185.3070  177.9680  143.2160 C   0  0  1  0  0  3  0  0  0  0  0  0
  184.7040  177.9970  145.6440 C   0  0  0  0  0  2  0  0  0  0  0  0
  186.1680  178.5880  142.1380 C   0  0  0  0  0  2  0  0  0  0  0  0
  183.5200  178.9320  145.3660 C   0  0  0  0  0  2  0  0  0  0  0  0
  186.9130  177.2220  144.8960 N   0  0  0  0  0  2  0  0  0  0  0  0
  188.1310  177.8910  145.3480 C   0  0  1  0  0  3  0  0  0  0  0  0
  188.5300  177.3570  146.7110 C   0  0  0  0  0  1  0  0  0  0  0  0
  189.2350  177.6770  144.3650 C   0  0  0  0  0  0  0  0  0  0  0  0
  191.4580  178.2390  143.5830 N   0  0  0  0  0  0  0  0  0  0  0  0
  190.8540  175.8910  143.3040 C   0  0  0  0  0  2  0  0  0  0  0  0
  191.7230  177.0840  143.0450 C   0  0  0  0  0  3  0  0  0  0  0  0
  189.1130  176.3790  143.1160 S   0  0  0  0  0  0  0  0  0  0  0  0
  190.3050  178.4760  144.4050 C   0  0  0  0  0  3  0  0  0  0  0  0
  1 23  1  0  0  0  0
  2  5  1  0  0  0  0
  3 10  1  0  0  0  0
  4  7  1  0  0  0  0
  5  9  2  0  0  0  0
  6  2  1  0  0  0  0
  7 10  2  0  0  0  0
  7  9  1  0  0  0  0
  8  4  1  0  0  0  0
  8  2  2  0  0  0  0
 10  1  1  0  0  0  0
 11  3  2  0  0  0  0
 12 11  1  0  0  0  0
 12  4  2  0  0  0  0
 13  3  1  0  0  0  0
 13 14  1  0  0  0  0
 14 15  1  0  0  0  0
 17 18  1  0  0  0  0
 18 21  1  0  0  0  0
 19 16  1  0  0  0  0
 20 15  1  6  0  0  0
 20 19  1  0  0  0  0
 21 16  1  0  0  0  0
 22 17  1  0  0  0  0
 22 20  1  0  0  0  0
 23 24  1  0  0  0  0
 25 24  1  6  0  0  0
 25 28  1  0  0  0  0
 27 26  1  1  0  0  0
 27 35  1  0  0  0  0
 27 32  1  0  0  0  0
 28 31  1  0  0  0  0
 28 30  1  1  0  0  0
 29 25  1  0  0  0  0
 29 33  1  0  0  0  0
 30 34  1  0  0  0  0
 31 33  1  6  0  0  0
 31 27  1  0  0  0  0
 34 32  1  0  0  0  0
 35 36  1  0  0  0  0
 36 37  1  1  0  0  0
 38 43  2  0  0  0  0
 38 36  1  0  0  0  0
 39 43  1  0  0  0  0
 41 40  1  0  0  0  0
 41 39  2  0  0  0  0
 42 40  1  0  0  0  0
 42 38  1  0  0  0  0
M  END
>  <MODEL>
4

>  <REMARK>
 VINA RESULT:      -7.9      2.806      8.798
  Name = 
  11 active torsions:
  status: ('A' for Active; 'I' for Inactive)
    1  A    between atoms: C_1  and  C_28
    2  A    between atoms: C_1  and  C_34
    3  A    between atoms: C_2  and  C_13
    4  A    between atoms: C_4  and  N_22
    5  A    between atoms: C_8  and  C_34
    6  A    between atoms: C_11  and  C_14
    7  A    between atoms: C_13  and  C_38
    8  A    between atoms: C_14  and  N_22
    9  A    between atoms: O_27  and  C_30
   10  A    between atoms: O_27  and  C_38
   11  A    between atoms: C_28  and  C_35
                            x       y       z     vdW  Elec       q    Type
                         _______ _______ _______ _____ _____    ______ ____

>  <TORSDO>
F 11

$$$$
=
 OpenBabel11052416313D

 43 48  0  0  1  0  0  0  0  0999 V2000
  186.1280  179.5100  141.8860 O   0  0  0  0  0  0  0  0  0  0  0  0
  182.4020  178.0430  138.8530 C   0  0  0  0  0  0  0  0  0  0  0  0
  184.1480  179.2890  143.3690 C   0  0  0  0  0  0  0  0  0  0  0  0
  182.6280  178.5280  141.1650 C   0  0  0  0  0  0  0  0  0  0  0  0
  183.7560  178.3180  138.6400 C   0  0  0  0  0  3  0  0  0  0  0  0
  181.5420  177.6300  137.7140 C   0  0  0  0  0  1  0  0  0  0  0  0
  183.9970  178.8140  140.9990 C   0  0  0  0  0  0  0  0  0  0  0  0
  181.8700  178.1540  140.1000 N   0  0  0  0  0  0  0  0  0  0  0  0
  184.5520  178.7060  139.7180 C   0  0  0  0  0  3  0  0  0  0  0  0
  184.7730  179.2150  142.0980 C   0  0  0  0  0  0  0  0  0  0  0  0
  182.8230  178.9990  143.4900 N   0  0  0  0  0  0  0  0  0  0  0  0
  182.0580  178.6330  142.4300 C   0  0  0  0  0  3  0  0  0  0  0  0
  184.9140  179.5880  144.6200 C   0  0  0  0  0  2  0  0  0  0  0  0
  185.1510  178.3170  145.4220 C   0  0  0  0  0  2  0  0  0  0  0  0
  185.8930  178.6260  146.7140 C   0  0  0  0  0  2  0  0  0  0  0  0
  189.0320  176.8860  145.2220 C   0  0  0  0  0  2  0  0  0  0  0  0
  189.5290  177.8830  148.0870 C   0  0  0  0  0  2  0  0  0  0  0  0
  190.3530  177.2570  146.9670 C   0  0  0  0  0  2  0  0  0  0  0  0
  187.6230  177.4710  145.3070 C   0  0  0  0  0  2  0  0  0  0  0  0
  187.3580  178.2340  146.6100 C   0  0  2  0  0  3  0  0  0  0  0  0
  189.9760  177.7850  145.7250 O   0  0  0  0  0  0  0  0  0  0  0  0
  187.8180  177.2470  148.0730 S   0  0  0  0  0  0  0  0  0  0  0  0
  187.1820  178.5690  142.0350 C   0  0  0  0  0  2  0  0  0  0  0  0
  188.2420  178.8040  140.9720 C   0  0  0  0  0  2  0  0  0  0  0  0
  188.6270  177.5020  140.2840 C   0  0  1  0  0  3  0  0  0  0  0  0
  190.0130  175.1430  137.3470 F   0  0  0  0  0  0  0  0  0  0  0  0
  190.3590  176.4840  137.2090 C   0  0  2  0  0  0  0  0  0  0  0  0
  188.8510  177.7220  138.8560 N   0  0  2  0  0  0  0  0  0  0  0  0
  189.9020  176.9590  140.8990 C   0  0  0  0  0  2  0  0  0  0  0  0
  187.8220  176.9540  138.1490 C   0  0  0  0  0  2  0  0  0  0  0  0
  190.2040  177.2080  138.5650 C   0  0  1  0  0  3  0  0  0  0  0  0
  189.4290  177.1470  136.1870 C   0  0  0  0  0  2  0  0  0  0  0  0
  190.6720  176.3850  139.7450 C   0  0  0  0  0  2  0  0  0  0  0  0
  187.9630  177.1290  136.6370 C   0  0  0  0  0  2  0  0  0  0  0  0
  191.7540  176.6070  136.7760 N   0  0  0  0  0  2  0  0  0  0  0  0
  192.2520  175.3320  136.2660 C   0  0  1  0  0  3  0  0  0  0  0  0
  192.4440  175.4230  134.7640 C   0  0  0  0  0  1  0  0  0  0  0  0
  193.5410  174.9750  136.9330 C   0  0  0  0  0  0  0  0  0  0  0  0
  195.0570  175.2480  138.8020 N   0  0  0  0  0  0  0  0  0  0  0  0
  195.0010  172.9930  137.8690 C   0  0  0  0  0  2  0  0  0  0  0  0
  195.5960  174.0650  138.7290 C   0  0  0  0  0  3  0  0  0  0  0  0
  194.6090  173.6960  136.2390 S   0  0  0  0  0  0  0  0  0  0  0  0
  193.9050  175.6320  138.0370 C   0  0  0  0  0  3  0  0  0  0  0  0
  1 23  1  0  0  0  0
  1 10  1  0  0  0  0
  2  8  1  0  0  0  0
  3 11  1  0  0  0  0
  3 13  1  0  0  0  0
  4 12  1  0  0  0  0
  5  2  2  0  0  0  0
  5  9  1  0  0  0  0
  6  2  1  0  0  0  0
  7  4  1  0  0  0  0
  7 10  1  0  0  0  0
  8  4  2  0  0  0  0
  9  7  2  0  0  0  0
 10  3  2  0  0  0  0
 12 11  2  0  0  0  0
 13 14  1  0  0  0  0
 14 15  1  0  0  0  0
 16 19  1  0  0  0  0
 16 21  1  0  0  0  0
 18 17  1  0  0  0  0
 19 20  1  0  0  0  0
 20 15  1  1  0  0  0
 20 22  1  0  0  0  0
 21 18  1  0  0  0  0
 22 17  1  0  0  0  0
 24 23  1  0  0  0  0
 25 29  1  0  0  0  0
 25 24  1  1  0  0  0
 27 26  1  1  0  0  0
 27 31  1  0  0  0  0
 28 30  1  6  0  0  0
 28 25  1  0  0  0  0
 31 28  1  0  0  0  0
 31 33  1  1  0  0  0
 32 34  1  0  0  0  0
 32 27  1  0  0  0  0
 33 29  1  0  0  0  0
 34 30  1  0  0  0  0
 35 27  1  0  0  0  0
 36 37  1  6  0  0  0
 36 35  1  0  0  0  0
 36 38  1  0  0  0  0
 38 43  2  0  0  0  0
 40 41  1  0  0  0  0
 41 39  2  0  0  0  0
 42 38  1  0  0  0  0
 42 40  1  0  0  0  0
 43 39  1  0  0  0  0
M  END
>  <MODEL>
5

>  <REMARK>
 VINA RESULT:      -7.8      3.798      9.996
  Name = 
  11 active torsions:
  status: ('A' for Active; 'I' for Inactive)
    1  A    between atoms: C_1  and  C_28
    2  A    between atoms: C_1  and  C_34
    3  A    between atoms: C_2  and  C_13
    4  A    between atoms: C_4  and  N_22
    5  A    between atoms: C_8  and  C_34
    6  A    between atoms: C_11  and  C_14
    7  A    between atoms: C_13  and  C_38
    8  A    between atoms: C_14  and  N_22
    9  A    between atoms: O_27  and  C_30
   10  A    between atoms: O_27  and  C_38
   11  A    between atoms: C_28  and  C_35
                            x       y       z     vdW  Elec       q    Type
                         _______ _______ _______ _____ _____    ______ ____

>  <TORSDO>
F 11

$$$$
=
 OpenBabel11052416313D

 43 48  0  0  1  0  0  0  0  0999 V2000
  185.8810  177.8720  142.4850 O   0  0  0  0  0  0  0  0  0  0  0  0
  188.0310  177.5930  147.0160 C   0  0  0  0  0  0  0  0  0  0  0  0
  188.3140  178.1240  142.0530 C   0  0  0  0  0  0  0  0  0  0  0  0
  188.7860  177.8970  144.7870 C   0  0  0  0  0  0  0  0  0  0  0  0
  186.7070  177.5050  146.5800 C   0  0  0  0  0  3  0  0  0  0  0  0
  188.3430  177.4770  148.4650 C   0  0  0  0  0  1  0  0  0  0  0  0
  187.4660  177.8130  144.3010 C   0  0  0  0  0  0  0  0  0  0  0  0
  189.0350  177.7870  146.1200 N   0  0  0  0  0  0  0  0  0  0  0  0
  186.4270  177.6170  145.2170 C   0  0  0  0  0  3  0  0  0  0  0  0
  187.2120  177.9420  142.9260 C   0  0  0  0  0  0  0  0  0  0  0  0
  189.5760  178.1950  142.5620 N   0  0  0  0  0  0  0  0  0  0  0  0
  189.8320  178.0940  143.8920 C   0  0  0  0  0  3  0  0  0  0  0  0
  188.1600  178.1510  140.5650 C   0  0  0  0  0  2  0  0  0  0  0  0
  189.4870  177.8600  139.8800 C   0  0  0  0  0  2  0  0  0  0  0  0
  189.3090  177.7780  138.3720 C   0  0  0  0  0  2  0  0  0  0  0  0
  191.7260  174.8130  137.6820 C   0  0  0  0  0  2  0  0  0  0  0  0
  189.1940  174.6530  135.9470 C   0  0  0  0  0  2  0  0  0  0  0  0
  190.4100  173.7770  136.2240 C   0  0  0  0  0  2  0  0  0  0  0  0
  191.1560  176.0760  138.3240 C   0  0  0  0  0  2  0  0  0  0  0  0
  189.7410  176.4190  137.8440 C   0  0  2  0  0  3  0  0  0  0  0  0
  190.7470  173.8190  137.5830 O   0  0  0  0  0  0  0  0  0  0  0  0
  189.6310  176.4230  136.0230 S   0  0  0  0  0  0  0  0  0  0  0  0
  185.0860  179.0060  142.1690 C   0  0  0  0  0  2  0  0  0  0  0  0
  183.6670  178.5700  141.8460 C   0  0  0  0  0  2  0  0  0  0  0  0
  183.3170  178.8720  140.3960 C   0  0  1  0  0  3  0  0  0  0  0  0
  183.0960  178.2390  136.4390 F   0  0  0  0  0  0  0  0  0  0  0  0
  183.3590  177.0930  137.1820 C   0  0  2  0  0  0  0  0  0  0  0  0
  184.0120  177.9510  139.4970 N   0  0  2  0  0  0  0  0  0  0  0  0
  181.8230  178.7180  140.1900 C   0  0  0  0  0  2  0  0  0  0  0  0
  184.9290  178.7640  138.6940 C   0  0  0  0  0  2  0  0  0  0  0  0
  182.9700  177.3250  138.6590 C   0  0  1  0  0  3  0  0  0  0  0  0
  184.8570  176.7730  137.1120 C   0  0  0  0  0  2  0  0  0  0  0  0
  181.6830  178.1010  138.8280 C   0  0  0  0  0  2  0  0  0  0  0  0
  185.7180  177.8860  137.7220 C   0  0  0  0  0  2  0  0  0  0  0  0
  182.5790  175.9630  136.6700 N   0  0  0  0  0  2  0  0  0  0  0  0
  182.6070  174.8460  137.6110 C   0  0  1  0  0  3  0  0  0  0  0  0
  181.1910  174.4850  138.0160 C   0  0  0  0  0  1  0  0  0  0  0  0
  183.2870  173.6660  136.9940 C   0  0  0  0  0  0  0  0  0  0  0  0
  183.3290  171.9560  135.2790 N   0  0  0  0  0  0  0  0  0  0  0  0
  185.5280  172.7930  135.9240 C   0  0  0  0  0  2  0  0  0  0  0  0
  184.6220  171.8140  135.2430 C   0  0  0  0  0  3  0  0  0  0  0  0
  184.8960  173.1160  137.5970 S   0  0  0  0  0  0  0  0  0  0  0  0
  182.6750  173.0080  136.0060 C   0  0  0  0  0  3  0  0  0  0  0  0
  1 10  1  0  0  0  0
  2  6  1  0  0  0  0
  3 11  2  0  0  0  0
  3 10  1  0  0  0  0
  4  8  1  0  0  0  0
  5  2  1  0  0  0  0
  7  4  1  0  0  0  0
  7  9  1  0  0  0  0
  8  2  2  0  0  0  0
  9  5  2  0  0  0  0
 10  7  2  0  0  0  0
 11 12  1  0  0  0  0
 12  4  2  0  0  0  0
 13  3  1  0  0  0  0
 14 13  1  0  0  0  0
 15 14  1  0  0  0  0
 16 19  1  0  0  0  0
 17 22  1  0  0  0  0
 17 18  1  0  0  0  0
 18 21  1  0  0  0  0
 20 19  1  0  0  0  0
 20 15  1  6  0  0  0
 21 16  1  0  0  0  0
 22 20  1  0  0  0  0
 23  1  1  0  0  0  0
 24 23  1  0  0  0  0
 25 24  1  1  0  0  0
 27 26  1  6  0  0  0
 27 31  1  0  0  0  0
 28 30  1  6  0  0  0
 28 25  1  0  0  0  0
 29 25  1  0  0  0  0
 31 33  1  6  0  0  0
 31 28  1  0  0  0  0
 32 27  1  0  0  0  0
 32 34  1  0  0  0  0
 33 29  1  0  0  0  0
 34 30  1  0  0  0  0
 35 27  1  0  0  0  0
 35 36  1  0  0  0  0
 36 37  1  6  0  0  0
 38 42  1  0  0  0  0
 38 36  1  0  0  0  0
 39 43  1  0  0  0  0
 40 42  1  0  0  0  0
 41 39  2  0  0  0  0
 41 40  1  0  0  0  0
 43 38  2  0  0  0  0
M  END
>  <MODEL>
6

>  <REMARK>
 VINA RESULT:      -7.7      2.728      4.193
  Name = 
  11 active torsions:
  status: ('A' for Active; 'I' for Inactive)
    1  A    between atoms: C_1  and  C_28
    2  A    between atoms: C_1  and  C_34
    3  A    between atoms: C_2  and  C_13
    4  A    between atoms: C_4  and  N_22
    5  A    between atoms: C_8  and  C_34
    6  A    between atoms: C_11  and  C_14
    7  A    between atoms: C_13  and  C_38
    8  A    between atoms: C_14  and  N_22
    9  A    between atoms: O_27  and  C_30
   10  A    between atoms: O_27  and  C_38
   11  A    between atoms: C_28  and  C_35
                            x       y       z     vdW  Elec       q    Type
                         _______ _______ _______ _____ _____    ______ ____

>  <TORSDO>
F 11

$$$$
=
 OpenBabel11052416313D

 43 48  0  0  1  0  0  0  0  0999 V2000
  185.9060  177.8550  142.5480 O   0  0  0  0  0  0  0  0  0  0  0  0
  188.1300  177.7690  147.0510 C   0  0  0  0  0  0  0  0  0  0  0  0
  184.1840  178.7020  144.1260 C   0  0  0  0  0  0  0  0  0  0  0  0
  185.9930  178.3770  146.2170 C   0  0  0  0  0  0  0  0  0  0  0  0
  188.5640  177.4400  145.7650 C   0  0  0  0  0  3  0  0  0  0  0  0
  189.0540  177.6190  148.2060 C   0  0  0  0  0  1  0  0  0  0  0  0
  186.3870  178.0590  144.9020 C   0  0  0  0  0  0  0  0  0  0  0  0
  186.8650  178.2260  147.2500 N   0  0  0  0  0  0  0  0  0  0  0  0
  187.6870  177.5850  144.6890 C   0  0  0  0  0  3  0  0  0  0  0  0
  185.4800  178.2020  143.8400 C   0  0  0  0  0  0  0  0  0  0  0  0
  183.8430  179.0030  145.4100 N   0  0  0  0  0  0  0  0  0  0  0  0
  184.7050  178.8470  146.4480 C   0  0  0  0  0  3  0  0  0  0  0  0
  183.1890  179.0040  143.0500 C   0  0  0  0  0  2  0  0  0  0  0  0
  181.7700  178.7700  143.5490 C   0  0  0  0  0  2  0  0  0  0  0  0
  180.7530  179.2250  142.5130 C   0  0  0  0  0  2  0  0  0  0  0  0
  181.0970  179.6120  138.6610 C   0  0  0  0  0  2  0  0  0  0  0  0
  181.9260  176.8080  139.6080 C   0  0  0  0  0  2  0  0  0  0  0  0
  181.9440  177.5920  138.3000 C   0  0  0  0  0  2  0  0  0  0  0  0
  180.8340  179.9820  140.1200 C   0  0  0  0  0  2  0  0  0  0  0  0
  181.2110  178.8720  141.1070 C   0  0  2  0  0  3  0  0  0  0  0  0
  182.3070  178.9250  138.5310 O   0  0  0  0  0  0  0  0  0  0  0  0
  180.4840  177.2690  140.6270 S   0  0  0  0  0  0  0  0  0  0  0  0
  186.6170  178.7280  141.6820 C   0  0  0  0  0  2  0  0  0  0  0  0
  188.0260  178.2040  141.4610 C   0  0  0  0  0  2  0  0  0  0  0  0
  188.4280  178.3140  139.9970 C   0  0  1  0  0  3  0  0  0  0  0  0
  189.8040  177.0670  136.4390 F   0  0  0  0  0  0  0  0  0  0  0  0
  189.4290  176.0360  137.2940 C   0  0  2  0  0  0  0  0  0  0  0  0
  189.1960  177.1400  139.5850 N   0  0  2  0  0  0  0  0  0  0  0  0
  187.1850  178.4090  139.1340 C   0  0  0  0  0  2  0  0  0  0  0  0
  190.5390  177.6180  139.2460 C   0  0  0  0  0  2  0  0  0  0  0  0
  188.5050  176.5860  138.4040 C   0  0  1  0  0  3  0  0  0  0  0  0
  190.6800  175.4350  137.9470 C   0  0  0  0  0  2  0  0  0  0  0  0
  187.5060  177.6060  137.9060 C   0  0  0  0  0  2  0  0  0  0  0  0
  191.4310  176.4550  138.8110 C   0  0  0  0  0  2  0  0  0  0  0  0
  188.7000  175.0020  136.5560 N   0  0  0  0  0  2  0  0  0  0  0  0
  187.4480  175.5330  136.0220 C   0  0  1  0  0  3  0  0  0  0  0  0
  187.6630  176.0090  134.5980 C   0  0  0  0  0  1  0  0  0  0  0  0
  186.3820  174.4870  136.0630 C   0  0  0  0  0  0  0  0  0  0  0  0
  185.6130  172.2780  135.4300 N   0  0  0  0  0  0  0  0  0  0  0  0
  184.8840  173.0040  137.6420 C   0  0  0  0  0  2  0  0  0  0  0  0
  184.8330  172.0930  136.4550 C   0  0  0  0  0  3  0  0  0  0  0  0
  184.8980  174.7270  137.0630 S   0  0  0  0  0  0  0  0  0  0  0  0
  186.5290  173.3800  135.3300 C   0  0  0  0  0  3  0  0  0  0  0  0
  1 10  1  0  0  0  0
  2  8  1  0  0  0  0
  2  6  1  0  0  0  0
  3 11  1  0  0  0  0
  4 12  1  0  0  0  0
  4  8  2  0  0  0  0
  5  2  2  0  0  0  0
  7  4  1  0  0  0  0
  9  7  2  0  0  0  0
  9  5  1  0  0  0  0
 10  3  2  0  0  0  0
 10  7  1  0  0  0  0
 11 12  2  0  0  0  0
 13 14  1  0  0  0  0
 13  3  1  0  0  0  0
 15 14  1  0  0  0  0
 16 19  1  0  0  0  0
 17 22  1  0  0  0  0
 18 21  1  0  0  0  0
 18 17  1  0  0  0  0
 19 20  1  0  0  0  0
 20 15  1  1  0  0  0
 21 16  1  0  0  0  0
 22 20  1  0  0  0  0
 23  1  1  0  0  0  0
 24 23  1  0  0  0  0
 25 24  1  1  0  0  0
 27 26  1  6  0  0  0
 27 32  1  0  0  0  0
 27 31  1  0  0  0  0
 28 30  1  6  0  0  0
 28 25  1  0  0  0  0
 29 25  1  0  0  0  0
 31 33  1  6  0  0  0
 31 28  1  0  0  0  0
 32 34  1  0  0  0  0
 33 29  1  0  0  0  0
 34 30  1  0  0  0  0
 35 27  1  0  0  0  0
 36 37  1  6  0  0  0
 36 38  1  0  0  0  0
 36 35  1  0  0  0  0
 38 42  1  0  0  0  0
 39 41  2  0  0  0  0
 41 40  1  0  0  0  0
 42 40  1  0  0  0  0
 43 39  1  0  0  0  0
 43 38  2  0  0  0  0
M  END
>  <MODEL>
7

>  <REMARK>
 VINA RESULT:      -7.6      3.165      6.672
  Name = 
  11 active torsions:
  status: ('A' for Active; 'I' for Inactive)
    1  A    between atoms: C_1  and  C_28
    2  A    between atoms: C_1  and  C_34
    3  A    between atoms: C_2  and  C_13
    4  A    between atoms: C_4  and  N_22
    5  A    between atoms: C_8  and  C_34
    6  A    between atoms: C_11  and  C_14
    7  A    between atoms: C_13  and  C_38
    8  A    between atoms: C_14  and  N_22
    9  A    between atoms: O_27  and  C_30
   10  A    between atoms: O_27  and  C_38
   11  A    between atoms: C_28  and  C_35
                            x       y       z     vdW  Elec       q    Type
                         _______ _______ _______ _____ _____    ______ ____

>  <TORSDO>
F 11

$$$$
=
 OpenBabel11052416313D

 43 48  0  0  1  0  0  0  0  0999 V2000
  185.7600  177.8980  142.5340 O   0  0  0  0  0  0  0  0  0  0  0  0
  188.1650  177.5870  146.9330 C   0  0  0  0  0  0  0  0  0  0  0  0
  188.1660  178.1430  141.9640 C   0  0  0  0  0  0  0  0  0  0  0  0
  188.7920  177.9010  144.6660 C   0  0  0  0  0  0  0  0  0  0  0  0
  186.8180  177.5060  146.5730 C   0  0  0  0  0  3  0  0  0  0  0  0
  188.5590  177.4620  148.3600 C   0  0  0  0  0  1  0  0  0  0  0  0
  187.4470  177.8230  144.2550 C   0  0  0  0  0  0  0  0  0  0  0  0
  189.1170  177.7830  145.9810 N   0  0  0  0  0  0  0  0  0  0  0  0
  186.4610  177.6260  145.2290 C   0  0  0  0  0  3  0  0  0  0  0  0
  187.1140  177.9610  142.8980 C   0  0  0  0  0  0  0  0  0  0  0  0
  189.4550  178.2070  142.4000 N   0  0  0  0  0  0  0  0  0  0  0  0
  189.7860  178.0990  143.7120 C   0  0  0  0  0  3  0  0  0  0  0  0
  187.9260  178.1790  140.4880 C   0  0  0  0  0  2  0  0  0  0  0  0
  189.2160  177.9130  139.7260 C   0  0  0  0  0  2  0  0  0  0  0  0
  189.0460  178.2340  138.2490 C   0  0  0  0  0  2  0  0  0  0  0  0
  190.1190  175.9230  135.3140 C   0  0  0  0  0  2  0  0  0  0  0  0
  192.2370  176.0040  137.5400 C   0  0  0  0  0  2  0  0  0  0  0  0
  192.1150  175.4110  136.1410 C   0  0  0  0  0  2  0  0  0  0  0  0
  189.2890  176.9160  136.1250 C   0  0  0  0  0  2  0  0  0  0  0  0
  189.9910  177.4020  137.3970 C   0  0  2  0  0  3  0  0  0  0  0  0
  191.4640  176.3060  135.2830 O   0  0  0  0  0  0  0  0  0  0  0  0
  190.6220  176.0090  138.3920 S   0  0  0  0  0  0  0  0  0  0  0  0
  184.9360  179.0370  142.3300 C   0  0  0  0  0  2  0  0  0  0  0  0
  183.4750  178.6220  142.3110 C   0  0  0  0  0  2  0  0  0  0  0  0
  182.9220  178.6260  140.8920 C   0  0  1  0  0  3  0  0  0  0  0  0
  182.6480  177.5710  137.0300 F   0  0  0  0  0  0  0  0  0  0  0  0
  183.3900  176.6870  137.8080 C   0  0  2  0  0  0  0  0  0  0  0  0
  183.8430  177.9510  139.9800 N   0  0  2  0  0  0  0  0  0  0  0  0
  181.5900  177.9020  140.8640 C   0  0  0  0  0  2  0  0  0  0  0  0
  184.3110  178.9670  139.0320 C   0  0  0  0  0  2  0  0  0  0  0  0
  183.0590  176.9000  139.3020 C   0  0  1  0  0  3  0  0  0  0  0  0
  184.8850  176.9490  137.5910 C   0  0  0  0  0  2  0  0  0  0  0  0
  181.5910  177.1470  139.5650 C   0  0  0  0  0  2  0  0  0  0  0  0
  185.2970  178.3590  138.0340 C   0  0  0  0  0  2  0  0  0  0  0  0
  183.0650  175.3020  137.4550 N   0  0  0  0  0  2  0  0  0  0  0  0
  182.1700  175.2580  136.3010 C   0  0  1  0  0  3  0  0  0  0  0  0
  182.9830  175.0800  135.0330 C   0  0  0  0  0  1  0  0  0  0  0  0
  181.1880  174.1420  136.4490 C   0  0  0  0  0  0  0  0  0  0  0  0
  180.1640  172.1420  135.5430 N   0  0  0  0  0  0  0  0  0  0  0  0
  180.4380  172.1250  137.9680 C   0  0  0  0  0  2  0  0  0  0  0  0
  179.8740  171.5930  136.6860 C   0  0  0  0  0  3  0  0  0  0  0  0
  180.2600  173.9350  137.9830 S   0  0  0  0  0  0  0  0  0  0  0  0
  180.9870  173.3130  135.4220 C   0  0  0  0  0  3  0  0  0  0  0  0
  1 10  1  0  0  0  0
  2  6  1  0  0  0  0
  3 11  2  0  0  0  0
  3 10  1  0  0  0  0
  4  8  1  0  0  0  0
  5  2  1  0  0  0  0
  7  4  1  0  0  0  0
  7  9  1  0  0  0  0
  8  2  2  0  0  0  0
  9  5  2  0  0  0  0
 10  7  2  0  0  0  0
 11 12  1  0  0  0  0
 12  4  2  0  0  0  0
 13  3  1  0  0  0  0
 14 13  1  0  0  0  0
 15 14  1  0  0  0  0
 16 19  1  0  0  0  0
 17 22  1  0  0  0  0
 18 17  1  0  0  0  0
 19 20  1  0  0  0  0
 20 15  1  1  0  0  0
 20 22  1  0  0  0  0
 21 16  1  0  0  0  0
 21 18  1  0  0  0  0
 23  1  1  0  0  0  0
 24 23  1  0  0  0  0
 25 24  1  1  0  0  0
 27 26  1  6  0  0  0
 27 31  1  0  0  0  0
 28 30  1  6  0  0  0
 28 25  1  0  0  0  0
 29 25  1  0  0  0  0
 31 33  1  6  0  0  0
 31 28  1  0  0  0  0
 32 27  1  0  0  0  0
 32 34  1  0  0  0  0
 33 29  1  0  0  0  0
 34 30  1  0  0  0  0
 35 27  1  0  0  0  0
 36 37  1  6  0  0  0
 36 38  1  0  0  0  0
 36 35  1  0  0  0  0
 38 42  1  0  0  0  0
 39 41  2  0  0  0  0
 40 42  1  0  0  0  0
 41 40  1  0  0  0  0
 43 39  1  0  0  0  0
 43 38  2  0  0  0  0
M  END
>  <MODEL>
8

>  <REMARK>
 VINA RESULT:      -7.5      2.844      4.014
  Name = 
  11 active torsions:
  status: ('A' for Active; 'I' for Inactive)
    1  A    between atoms: C_1  and  C_28
    2  A    between atoms: C_1  and  C_34
    3  A    between atoms: C_2  and  C_13
    4  A    between atoms: C_4  and  N_22
    5  A    between atoms: C_8  and  C_34
    6  A    between atoms: C_11  and  C_14
    7  A    between atoms: C_13  and  C_38
    8  A    between atoms: C_14  and  N_22
    9  A    between atoms: O_27  and  C_30
   10  A    between atoms: O_27  and  C_38
   11  A    between atoms: C_28  and  C_35
                            x       y       z     vdW  Elec       q    Type
                         _______ _______ _______ _____ _____    ______ ____

>  <TORSDO>
F 11

$$$$
=
 OpenBabel11052416313D

 43 48  0  0  1  0  0  0  0  0999 V2000
  186.6580  178.6390  139.3770 O   0  0  0  0  0  0  0  0  0  0  0  0
  181.6340  178.6460  139.3550 C   0  0  0  0  0  0  0  0  0  0  0  0
  186.0100  178.6070  141.7740 C   0  0  0  0  0  0  0  0  0  0  0  0
  183.3320  178.6330  141.0130 C   0  0  0  0  0  0  0  0  0  0  0  0
  182.5940  178.6380  138.3400 C   0  0  0  0  0  3  0  0  0  0  0  0
  180.1890  178.6570  139.0070 C   0  0  0  0  0  1  0  0  0  0  0  0
  184.3350  178.6240  140.0240 C   0  0  0  0  0  0  0  0  0  0  0  0
  182.0190  178.6440  140.6590 N   0  0  0  0  0  0  0  0  0  0  0  0
  183.9480  178.6290  138.6790 C   0  0  0  0  0  3  0  0  0  0  0  0
  185.6900  178.6280  140.3930 C   0  0  0  0  0  0  0  0  0  0  0  0
  185.0100  178.6110  142.7000 N   0  0  0  0  0  0  0  0  0  0  0  0
  183.6970  178.6310  142.3550 C   0  0  0  0  0  3  0  0  0  0  0  0
  187.4170  178.4880  142.2670 C   0  0  0  0  0  2  0  0  0  0  0  0
  187.5970  177.2150  143.0820 C   0  0  0  0  0  2  0  0  0  0  0  0
  189.0660  176.8330  143.1680 C   0  0  0  0  0  2  0  0  0  0  0  0
  189.0060  177.5720  146.9830 C   0  0  0  0  0  2  0  0  0  0  0  0
  191.6920  176.3730  146.0920 C   0  0  0  0  0  2  0  0  0  0  0  0
  191.0250  176.7520  147.4090 C   0  0  0  0  0  2  0  0  0  0  0  0
  188.5190  177.4470  145.5410 C   0  0  0  0  0  2  0  0  0  0  0  0
  189.5270  176.7580  144.6150 C   0  0  2  0  0  3  0  0  0  0  0  0
  189.6670  176.4090  147.3890 O   0  0  0  0  0  0  0  0  0  0  0  0
  191.1860  177.5040  144.7520 S   0  0  0  0  0  0  0  0  0  0  0  0
  187.9910  178.1790  139.5410 C   0  0  0  0  0  2  0  0  0  0  0  0
  188.4390  177.4300  138.2970 C   0  0  0  0  0  2  0  0  0  0  0  0
  189.6000  176.4970  138.6070 C   0  0  1  0  0  3  0  0  0  0  0  0
  193.0480  174.5460  137.9620 F   0  0  0  0  0  0  0  0  0  0  0  0
  192.8340  175.6200  137.1030 C   0  0  2  0  0  0  0  0  0  0  0  0
  190.3680  176.2110  137.3960 N   0  0  2  0  0  0  0  0  0  0  0  0
  190.5190  177.1480  139.6230 C   0  0  0  0  0  2  0  0  0  0  0  0
  190.2210  174.7750  137.1390 C   0  0  0  0  0  2  0  0  0  0  0  0
  191.7680  176.5650  137.7000 C   0  0  1  0  0  3  0  0  0  0  0  0
  192.3300  175.0980  135.7520 C   0  0  0  0  0  2  0  0  0  0  0  0
  191.9040  176.7600  139.1930 C   0  0  0  0  0  2  0  0  0  0  0  0
  190.9830  174.3740  135.8760 C   0  0  0  0  0  2  0  0  0  0  0  0
  194.0740  176.3790  136.9180 N   0  0  0  0  0  2  0  0  0  0  0  0
  194.7780  175.9360  135.7170 C   0  0  1  0  0  3  0  0  0  0  0  0
  195.0640  177.1290  134.8250 C   0  0  0  0  0  1  0  0  0  0  0  0
  196.0510  175.2470  136.0860 C   0  0  0  0  0  0  0  0  0  0  0  0
  198.4730  175.2510  136.1460 N   0  0  0  0  0  0  0  0  0  0  0  0
  197.4180  174.1700  138.0630 C   0  0  0  0  0  2  0  0  0  0  0  0
  198.5960  174.4920  137.1970 C   0  0  0  0  0  3  0  0  0  0  0  0
  196.0210  173.6920  137.0020 S   0  0  0  0  0  0  0  0  0  0  0  0
  197.2140  175.7850  135.7080 C   0  0  0  0  0  3  0  0  0  0  0  0
  1 23  1  0  0  0  0
  1 10  1  0  0  0  0
  2  8  1  0  0  0  0
  3 13  1  0  0  0  0
  3 11  1  0  0  0  0
  4 12  1  0  0  0  0
  5  9  1  0  0  0  0
  5  2  2  0  0  0  0
  6  2  1  0  0  0  0
  7 10  1  0  0  0  0
  7  4  1  0  0  0  0
  8  4  2  0  0  0  0
  9  7  2  0  0  0  0
 10  3  2  0  0  0  0
 12 11  2  0  0  0  0
 13 14  1  0  0  0  0
 14 15  1  0  0  0  0
 16 21  1  0  0  0  0
 17 18  1  0  0  0  0
 19 16  1  0  0  0  0
 20 15  1  6  0  0  0
 20 22  1  0  0  0  0
 20 19  1  0  0  0  0
 21 18  1  0  0  0  0
 22 17  1  0  0  0  0
 24 23  1  0  0  0  0
 25 24  1  6  0  0  0
 25 29  1  0  0  0  0
 27 31  1  0  0  0  0
 27 26  1  1  0  0  0
 28 30  1  1  0  0  0
 28 31  1  0  0  0  0
 28 25  1  0  0  0  0
 31 33  1  1  0  0  0
 32 34  1  0  0  0  0
 32 27  1  0  0  0  0
 33 29  1  0  0  0  0
 34 30  1  0  0  0  0
 35 27  1  0  0  0  0
 36 37  1  6  0  0  0
 36 38  1  0  0  0  0
 36 35  1  0  0  0  0
 38 42  1  0  0  0  0
 39 41  2  0  0  0  0
 41 40  1  0  0  0  0
 42 40  1  0  0  0  0
 43 38  2  0  0  0  0
 43 39  1  0  0  0  0
M  END
>  <MODEL>
9

>  <REMARK>
 VINA RESULT:      -7.4      4.791     11.065
  Name = 
  11 active torsions:
  status: ('A' for Active; 'I' for Inactive)
    1  A    between atoms: C_1  and  C_28
    2  A    between atoms: C_1  and  C_34
    3  A    between atoms: C_2  and  C_13
    4  A    between atoms: C_4  and  N_22
    5  A    between atoms: C_8  and  C_34
    6  A    between atoms: C_11  and  C_14
    7  A    between atoms: C_13  and  C_38
    8  A    between atoms: C_14  and  N_22
    9  A    between atoms: O_27  and  C_30
   10  A    between atoms: O_27  and  C_38
   11  A    between atoms: C_28  and  C_35
                            x       y       z     vdW  Elec       q    Type
                         _______ _______ _______ _____ _____    ______ ____

>  <TORSDO>
F 11

$$$$
