=
 OpenBabel11052415533D

 34 39  0  0  1  0  0  0  0  0999 V2000
  188.5970  177.4740  144.0380 C   0  0  0  0  0  0  0  0  0  0  0  0
  189.7950  177.4350  147.5560 C   0  0  0  0  0  3  0  0  0  0  0  0
  187.6430  178.0140  146.6240 C   0  0  0  0  0  3  0  0  0  0  0  0
  186.9880  178.2640  141.6910 C   0  0  0  0  0  2  0  0  0  0  0  0
  189.0780  177.2240  142.6390 C   0  0  0  0  0  2  0  0  0  0  0  0
  186.3230  177.9290  143.0370 C   0  0  2  0  0  3  0  0  0  0  0  0
  184.4590  178.4290  144.5960 C   0  0  0  0  0  2  0  0  0  0  0  0
  185.1150  178.8250  143.2810 C   0  0  0  0  0  2  0  0  0  0  0  0
  188.5290  178.3190  141.7220 C   0  0  1  0  0  3  0  0  0  0  0  0
  186.7880  178.1530  145.5280 C   0  0  0  0  0  0  0  0  0  0  0  0
  187.2650  177.8880  144.2270 C   0  0  0  0  0  0  0  0  0  0  0  0
  185.4090  178.7080  145.7600 C   0  0  0  0  0  2  0  0  0  0  0  0
  191.1150  177.0080  147.3930 C   0  0  0  0  0  0  0  0  0  0  0  0
  191.6040  176.7350  146.1070 C   0  0  0  0  0  3  0  0  0  0  0  0
  188.9590  177.5860  146.4470 C   0  0  0  0  0  0  0  0  0  0  0  0
  190.7760  176.8880  144.9920 C   0  0  0  0  0  3  0  0  0  0  0  0
  189.4480  177.3120  145.1480 C   0  0  0  0  0  0  0  0  0  0  0  0
  188.1650  176.4810  138.6400 C   0  0  0  0  0  3  0  0  0  0  0  0
  190.3450  177.2640  140.3040 C   0  0  0  0  0  2  0  0  0  0  0  0
  190.8070  174.9390  136.6340 C   0  0  2  0  0  3  0  0  0  0  0  0
  189.4070  174.8700  137.2260 C   0  0  0  0  0  2  0  0  0  0  0  0
  189.2430  176.1720  137.9110 C   0  0  0  0  0  0  0  0  0  0  0  0
  190.3920  177.1000  137.7200 C   0  0  1  0  0  3  0  0  0  0  0  0
  191.1750  177.3580  139.0170 C   0  0  0  0  0  2  0  0  0  0  0  0
  191.2800  176.3910  136.7140 C   0  0  0  0  0  2  0  0  0  0  0  0
  189.1280  178.2060  140.3160 C   0  0  1  0  0  3  0  0  0  0  0  0
  188.0260  177.8330  139.2940 C   0  0  0  0  0  2  0  0  0  0  0  0
  190.8120  174.4610  135.2210 C   0  0  0  0  0  0  0  0  0  0  0  0
  189.7270  174.3540  134.5940 O   0  0  0  0  0  1  0  0  0  0  0  0
  192.0080  174.1330  134.5940 O   0  0  0  0  0  0  0  0  0  0  0  0
  191.9280  176.8580  148.5140 O   0  0  0  0  0  0  0  0  0  0  0  0
  193.0530  176.1310  148.4620 O   0  0  0  0  0  0  0  0  0  0  0  0
  194.1480  177.0750  150.3430 C   0  0  0  0  0  1  0  0  0  0  0  0
  193.3800  175.8920  149.7950 C   0  0  0  0  0  2  0  0  0  0  0  0
  1 11  2  0  0  0  0
  1 17  1  0  0  0  0
  5  1  1  0  0  0  0
  6  4  1  6  0  0  0
  6  8  1  0  0  0  0
  6 11  1  0  0  0  0
  7 12  1  0  0  0  0
  8  7  1  0  0  0  0
  9  4  1  6  0  0  0
  9  5  1  0  0  0  0
 10 12  1  0  0  0  0
 10  3  2  0  0  0  0
 11 10  1  0  0  0  0
 13  2  1  0  0  0  0
 13 31  1  0  0  0  0
 14 13  2  0  0  0  0
 15  3  1  0  0  0  0
 15  2  2  0  0  0  0
 16 17  2  0  0  0  0
 16 14  1  0  0  0  0
 17 15  1  0  0  0  0
 18 27  1  0  0  0  0
 19 26  1  0  0  0  0
 20 28  1  6  0  0  0
 20 25  1  0  0  0  0
 20 21  1  0  0  0  0
 21 22  1  0  0  0  0
 22 18  2  0  0  0  0
 23 25  1  6  0  0  0
 23 22  1  0  0  0  0
 23 24  1  0  0  0  0
 24 19  1  0  0  0  0
 26 27  1  6  0  0  0
 26  9  1  0  0  0  0
 29 28  1  0  0  0  0
 30 28  2  0  0  0  0
 32 31  1  0  0  0  0
 32 34  1  0  0  0  0
 34 33  1  0  0  0  0
M  END
>  <MODEL>
1

>  <REMARK>
 VINA RESULT:      -9.6      0.000      0.000
  Name = 
  5 active torsions:
  status: ('A' for Active; 'I' for Inactive)
    1  A    between atoms: O_3  and  C_24
    2  A    between atoms: O_3  and  O_25
    3  A    between atoms: C_7  and  C_11
    4  A    between atoms: C_18  and  C_30
    5  A    between atoms: C_23  and  O_25
                            x       y       z     vdW  Elec       q    Type
                         _______ _______ _______ _____ _____    ______ ____

>  <TORSDO>
F 5

$$$$
=
 OpenBabel11052415533D

 34 39  0  0  1  0  0  0  0  0999 V2000
  183.7680  178.6910  141.6440 C   0  0  0  0  0  0  0  0  0  0  0  0
  183.1440  177.6660  138.1260 C   0  0  0  0  0  3  0  0  0  0  0  0
  181.6360  177.8920  139.9980 C   0  0  0  0  0  3  0  0  0  0  0  0
  183.3730  178.8730  144.5650 C   0  0  0  0  0  2  0  0  0  0  0  0
  184.8840  179.0930  142.5610 C   0  0  0  0  0  2  0  0  0  0  0  0
  182.2020  179.0810  143.5870 C   0  0  2  0  0  3  0  0  0  0  0  0
  179.7730  178.7790  143.1870 C   0  0  0  0  0  2  0  0  0  0  0  0
  180.9120  178.5090  144.1600 C   0  0  0  0  0  2  0  0  0  0  0  0
  184.6890  178.4040  143.9130 C   0  0  1  0  0  3  0  0  0  0  0  0
  181.3930  178.2200  141.3340 C   0  0  0  0  0  0  0  0  0  0  0  0
  182.4620  178.6180  142.1650 C   0  0  0  0  0  0  0  0  0  0  0  0
  180.0070  178.0180  141.8830 C   0  0  0  0  0  2  0  0  0  0  0  0
  184.4290  177.7500  137.5830 C   0  0  0  0  0  0  0  0  0  0  0  0
  185.5020  178.1470  138.3930 C   0  0  0  0  0  3  0  0  0  0  0  0
  182.9230  177.9810  139.4680 C   0  0  0  0  0  0  0  0  0  0  0  0
  185.2910  178.4600  139.7390 C   0  0  0  0  0  3  0  0  0  0  0  0
  184.0030  178.3820  140.2910 C   0  0  0  0  0  0  0  0  0  0  0  0
  188.2160  177.6990  144.1830 C   0  0  0  0  0  3  0  0  0  0  0  0
  185.9710  177.5830  145.9390 C   0  0  0  0  0  2  0  0  0  0  0  0
  190.0310  176.4790  147.1160 C   0  0  2  0  0  3  0  0  0  0  0  0
  189.8020  176.4420  145.6120 C   0  0  0  0  0  2  0  0  0  0  0  0
  188.7650  177.4730  145.3820 C   0  0  0  0  0  0  0  0  0  0  0  0
  188.3870  178.2290  146.6090 C   0  0  1  0  0  3  0  0  0  0  0  0
  186.9460  177.9470  147.0650 C   0  0  0  0  0  2  0  0  0  0  0  0
  189.3660  177.7430  147.6620 C   0  0  0  0  0  2  0  0  0  0  0  0
  185.8930  178.6470  144.8300 C   0  0  1  0  0  3  0  0  0  0  0  0
  187.1860  178.7830  143.9890 C   0  0  0  0  0  2  0  0  0  0  0  0
  191.4880  176.4720  147.4330 C   0  0  0  0  0  0  0  0  0  0  0  0
  191.9520  177.2970  148.2620 O   0  0  0  0  0  1  0  0  0  0  0  0
  192.3370  175.5600  146.8180 O   0  0  0  0  0  0  0  0  0  0  0  0
  184.6250  177.4380  136.2390 O   0  0  0  0  0  0  0  0  0  0  0  0
  185.5910  176.5910  135.8580 O   0  0  0  0  0  0  0  0  0  0  0  0
  187.5130  177.8440  135.2530 C   0  0  0  0  0  1  0  0  0  0  0  0
  186.2140  177.2260  134.7850 C   0  0  0  0  0  2  0  0  0  0  0  0
  1 11  1  0  0  0  0
  1  5  1  0  0  0  0
  2 15  1  0  0  0  0
  3 10  1  0  0  0  0
  6  8  1  1  0  0  0
  6  4  1  0  0  0  0
  7  8  1  0  0  0  0
  9  5  1  6  0  0  0
  9  4  1  0  0  0  0
  9 26  1  0  0  0  0
 10 12  1  0  0  0  0
 10 11  2  0  0  0  0
 11  6  1  0  0  0  0
 12  7  1  0  0  0  0
 13  2  2  0  0  0  0
 13 14  1  0  0  0  0
 14 16  2  0  0  0  0
 15  3  2  0  0  0  0
 15 17  1  0  0  0  0
 16 17  1  0  0  0  0
 17  1  2  0  0  0  0
 18 22  2  0  0  0  0
 19 24  1  0  0  0  0
 20 28  1  6  0  0  0
 20 25  1  0  0  0  0
 21 20  1  0  0  0  0
 22 21  1  0  0  0  0
 22 23  1  0  0  0  0
 23 24  1  1  0  0  0
 23 25  1  0  0  0  0
 26 27  1  6  0  0  0
 26 19  1  0  0  0  0
 27 18  1  0  0  0  0
 28 29  1  0  0  0  0
 30 28  2  0  0  0  0
 31 13  1  0  0  0  0
 32 31  1  0  0  0  0
 34 33  1  0  0  0  0
 34 32  1  0  0  0  0
M  END
>  <MODEL>
2

>  <REMARK>
 VINA RESULT:      -9.3      3.065      9.512
  Name = 
  5 active torsions:
  status: ('A' for Active; 'I' for Inactive)
    1  A    between atoms: O_3  and  C_24
    2  A    between atoms: O_3  and  O_25
    3  A    between atoms: C_7  and  C_11
    4  A    between atoms: C_18  and  C_30
    5  A    between atoms: C_23  and  O_25
                            x       y       z     vdW  Elec       q    Type
                         _______ _______ _______ _____ _____    ______ ____

>  <TORSDO>
F 5

$$$$
=
 OpenBabel11052415533D

 34 39  0  0  1  0  0  0  0  0999 V2000
  187.4270  178.3320  142.4750 C   0  0  0  0  0  0  0  0  0  0  0  0
  183.7950  178.4000  143.2640 C   0  0  0  0  0  3  0  0  0  0  0  0
  185.7070  177.9120  144.6570 C   0  0  0  0  0  3  0  0  0  0  0  0
  190.2710  177.5660  142.6870 C   0  0  0  0  0  2  0  0  0  0  0  0
  188.3750  178.5180  141.3280 C   0  0  0  0  0  2  0  0  0  0  0  0
  189.4600  177.9720  143.9310 C   0  0  2  0  0  3  0  0  0  0  0  0
  189.0900  177.6140  146.3570 C   0  0  0  0  0  2  0  0  0  0  0  0
  189.8790  177.1480  145.1420 C   0  0  0  0  0  2  0  0  0  0  0  0
  189.4490  177.4300  141.3900 C   0  0  1  0  0  3  0  0  0  0  0  0
  187.0880  177.7890  144.8300 C   0  0  0  0  0  0  0  0  0  0  0  0
  187.9550  177.9950  143.7360 C   0  0  0  0  0  0  0  0  0  0  0  0
  187.6040  177.3160  146.1620 C   0  0  0  0  0  2  0  0  0  0  0  0
  183.2510  178.7520  142.0250 C   0  0  0  0  0  0  0  0  0  0  0  0
  184.0990  178.9640  140.9290 C   0  0  0  0  0  3  0  0  0  0  0  0
  185.1770  178.2650  143.4150 C   0  0  0  0  0  0  0  0  0  0  0  0
  185.4820  178.8260  141.0700 C   0  0  0  0  0  3  0  0  0  0  0  0
  186.0370  178.4770  142.3110 C   0  0  0  0  0  0  0  0  0  0  0  0
  190.1200  175.6340  138.3340 C   0  0  0  0  0  3  0  0  0  0  0  0
  191.6970  176.7910  140.4100 C   0  0  0  0  0  2  0  0  0  0  0  0
  193.3790  174.6950  136.9660 C   0  0  2  0  0  3  0  0  0  0  0  0
  191.9280  174.3360  137.2470 C   0  0  0  0  0  2  0  0  0  0  0  0
  191.3680  175.5620  137.8580 C   0  0  0  0  0  0  0  0  0  0  0  0
  192.3230  176.7040  137.8990 C   0  0  1  0  0  3  0  0  0  0  0  0
  192.7460  177.0790  139.3290 C   0  0  0  0  0  2  0  0  0  0  0  0
  193.5280  176.2090  137.1190 C   0  0  0  0  0  2  0  0  0  0  0  0
  190.3440  177.4730  140.1460 C   0  0  1  0  0  3  0  0  0  0  0  0
  189.5800  176.9150  138.9200 C   0  0  0  0  0  2  0  0  0  0  0  0
  193.7790  174.2630  135.5950 C   0  0  0  0  0  0  0  0  0  0  0  0
  193.3770  174.9100  134.5940 O   0  0  0  0  0  0  0  0  0  0  0  0
  194.5920  173.1490  135.4170 O   0  0  0  0  0  1  0  0  0  0  0  0
  181.8700  178.8890  141.9000 O   0  0  0  0  0  0  0  0  0  0  0  0
  181.1970  179.8040  142.6100 O   0  0  0  0  0  0  0  0  0  0  0  0
  180.0660  178.2900  144.0440 C   0  0  0  0  0  1  0  0  0  0  0  0
  179.9570  179.2180  142.8540 C   0  0  0  0  0  2  0  0  0  0  0  0
  1 11  1  0  0  0  0
  2 15  1  0  0  0  0
  3 10  1  0  0  0  0
  5  1  1  0  0  0  0
  6  4  1  6  0  0  0
  6  8  1  0  0  0  0
  8  7  1  0  0  0  0
  9  5  1  6  0  0  0
  9  4  1  0  0  0  0
 10 12  1  0  0  0  0
 11  6  1  0  0  0  0
 11 10  2  0  0  0  0
 12  7  1  0  0  0  0
 13  2  2  0  0  0  0
 14 16  2  0  0  0  0
 14 13  1  0  0  0  0
 15  3  2  0  0  0  0
 16 17  1  0  0  0  0
 17  1  2  0  0  0  0
 17 15  1  0  0  0  0
 18 27  1  0  0  0  0
 20 28  1  6  0  0  0
 20 25  1  0  0  0  0
 20 21  1  0  0  0  0
 21 22  1  0  0  0  0
 22 23  1  0  0  0  0
 22 18  2  0  0  0  0
 23 25  1  6  0  0  0
 23 24  1  0  0  0  0
 24 19  1  0  0  0  0
 26 27  1  6  0  0  0
 26 19  1  0  0  0  0
 26  9  1  0  0  0  0
 29 28  2  0  0  0  0
 30 28  1  0  0  0  0
 31 13  1  0  0  0  0
 31 32  1  0  0  0  0
 32 34  1  0  0  0  0
 34 33  1  0  0  0  0
M  END
>  <MODEL>
3

>  <REMARK>
 VINA RESULT:      -9.2      3.691      6.236
  Name = 
  5 active torsions:
  status: ('A' for Active; 'I' for Inactive)
    1  A    between atoms: O_3  and  C_24
    2  A    between atoms: O_3  and  O_25
    3  A    between atoms: C_7  and  C_11
    4  A    between atoms: C_18  and  C_30
    5  A    between atoms: C_23  and  O_25
                            x       y       z     vdW  Elec       q    Type
                         _______ _______ _______ _____ _____    ______ ____

>  <TORSDO>
F 5

$$$$
=
 OpenBabel11052415533D

 34 39  0  0  1  0  0  0  0  0999 V2000
  188.0600  177.7080  142.3960 C   0  0  0  0  0  0  0  0  0  0  0  0
  191.7350  177.3760  141.9520 C   0  0  0  0  0  3  0  0  0  0  0  0
  190.3900  177.5140  143.9530 C   0  0  0  0  0  3  0  0  0  0  0  0
  185.5010  178.4380  143.6770 C   0  0  0  0  0  2  0  0  0  0  0  0
  186.7960  177.8430  141.5990 C   0  0  0  0  0  2  0  0  0  0  0  0
  186.6060  177.7080  144.4610 C   0  0  2  0  0  3  0  0  0  0  0  0
  187.7240  177.4130  146.6560 C   0  0  0  0  0  2  0  0  0  0  0  0
  186.6540  178.1930  145.9050 C   0  0  0  0  0  2  0  0  0  0  0  0
  185.9020  178.8950  142.2600 C   0  0  1  0  0  3  0  0  0  0  0  0
  189.1450  177.6100  144.5790 C   0  0  0  0  0  0  0  0  0  0  0  0
  187.9720  177.7120  143.8010 C   0  0  0  0  0  0  0  0  0  0  0  0
  189.1030  177.7270  146.0790 C   0  0  0  0  0  2  0  0  0  0  0  0
  191.8430  177.3510  140.5580 C   0  0  0  0  0  0  0  0  0  0  0  0
  190.6880  177.4480  139.7700 C   0  0  0  0  0  3  0  0  0  0  0  0
  190.4840  177.4900  142.5610 C   0  0  0  0  0  0  0  0  0  0  0  0
  189.4320  177.5660  140.3710 C   0  0  0  0  0  3  0  0  0  0  0  0
  189.3140  177.5880  141.7690 C   0  0  0  0  0  0  0  0  0  0  0  0
  183.0200  177.2880  140.8040 C   0  0  0  0  0  3  0  0  0  0  0  0
  185.0180  179.1090  139.8950 C   0  0  0  0  0  2  0  0  0  0  0  0
  181.7910  177.5910  137.3720 C   0  0  2  0  0  3  0  0  0  0  0  0
  182.0760  176.7190  138.5860 C   0  0  0  0  0  2  0  0  0  0  0  0
  182.5730  177.6720  139.6030 C   0  0  0  0  0  0  0  0  0  0  0  0
  182.5350  179.0940  139.1630 C   0  0  1  0  0  3  0  0  0  0  0  0
  183.9350  179.7040  138.9870 C   0  0  0  0  0  2  0  0  0  0  0  0
  181.8190  179.0510  137.8250 C   0  0  0  0  0  2  0  0  0  0  0  0
  184.6740  179.1930  141.3920 C   0  0  1  0  0  3  0  0  0  0  0  0
  183.4860  178.2980  141.8220 C   0  0  0  0  0  2  0  0  0  0  0  0
  180.4680  177.2520  136.7720 C   0  0  0  0  0  0  0  0  0  0  0  0
  179.7930  178.1470  136.2000 O   0  0  0  0  0  0  0  0  0  0  0  0
  179.9770  175.9530  136.8400 O   0  0  0  0  0  1  0  0  0  0  0  0
  193.1010  177.2300  139.9730 O   0  0  0  0  0  0  0  0  0  0  0  0
  193.2400  177.1280  138.6440 O   0  0  0  0  0  0  0  0  0  0  0  0
  192.6060  175.0670  137.6540 C   0  0  0  0  0  1  0  0  0  0  0  0
  193.6630  175.8170  138.4330 C   0  0  0  0  0  2  0  0  0  0  0  0
  1 11  1  0  0  0  0
  2 15  1  0  0  0  0
  3 10  1  0  0  0  0
  5  1  1  0  0  0  0
  6  4  1  6  0  0  0
  6  8  1  0  0  0  0
  8  7  1  0  0  0  0
  9  5  1  6  0  0  0
  9  4  1  0  0  0  0
 10 12  1  0  0  0  0
 11  6  1  0  0  0  0
 11 10  2  0  0  0  0
 12  7  1  0  0  0  0
 13  2  2  0  0  0  0
 14 16  2  0  0  0  0
 14 13  1  0  0  0  0
 15  3  2  0  0  0  0
 16 17  1  0  0  0  0
 17  1  2  0  0  0  0
 17 15  1  0  0  0  0
 18 27  1  0  0  0  0
 20 28  1  1  0  0  0
 20 25  1  0  0  0  0
 20 21  1  0  0  0  0
 21 22  1  0  0  0  0
 22 18  2  0  0  0  0
 23 25  1  6  0  0  0
 23 22  1  0  0  0  0
 24 23  1  0  0  0  0
 24 19  1  0  0  0  0
 26 19  1  6  0  0  0
 26 27  1  0  0  0  0
 26  9  1  0  0  0  0
 28 30  1  0  0  0  0
 29 28  2  0  0  0  0
 31 13  1  0  0  0  0
 32 31  1  0  0  0  0
 33 34  1  0  0  0  0
 34 32  1  0  0  0  0
M  END
>  <MODEL>
4

>  <REMARK>
 VINA RESULT:      -9.1      4.173      6.973
  Name = 
  5 active torsions:
  status: ('A' for Active; 'I' for Inactive)
    1  A    between atoms: O_3  and  C_24
    2  A    between atoms: O_3  and  O_25
    3  A    between atoms: C_7  and  C_11
    4  A    between atoms: C_18  and  C_30
    5  A    between atoms: C_23  and  O_25
                            x       y       z     vdW  Elec       q    Type
                         _______ _______ _______ _____ _____    ______ ____

>  <TORSDO>
F 5

$$$$
=
 OpenBabel11052415533D

 34 39  0  0  1  0  0  0  0  0999 V2000
  187.5070  178.2180  139.6590 C   0  0  0  0  0  0  0  0  0  0  0  0
  188.3790  176.9320  136.2830 C   0  0  0  0  0  3  0  0  0  0  0  0
  186.2470  177.5400  137.2420 C   0  0  0  0  0  3  0  0  0  0  0  0
  185.8740  178.7440  142.0630 C   0  0  0  0  0  2  0  0  0  0  0  0
  188.1390  178.5630  140.9750 C   0  0  0  0  0  2  0  0  0  0  0  0
  185.3200  179.0030  140.6500 C   0  0  2  0  0  3  0  0  0  0  0  0
  183.3180  178.9790  139.1850 C   0  0  0  0  0  2  0  0  0  0  0  0
  183.8360  178.6640  140.5810 C   0  0  0  0  0  2  0  0  0  0  0  0
  187.2470  178.0450  142.1050 C   0  0  1  0  0  3  0  0  0  0  0  0
  185.4850  178.0300  138.3050 C   0  0  0  0  0  0  0  0  0  0  0  0
  186.1130  178.3680  139.5230 C   0  0  0  0  0  0  0  0  0  0  0  0
  183.9880  178.0660  138.1590 C   0  0  0  0  0  2  0  0  0  0  0  0
  189.7650  176.7930  136.3910 C   0  0  0  0  0  0  0  0  0  0  0  0
  190.4060  177.1280  137.5920 C   0  0  0  0  0  3  0  0  0  0  0  0
  187.6310  177.4070  137.3620 C   0  0  0  0  0  0  0  0  0  0  0  0
  189.6650  177.6000  138.6780 C   0  0  0  0  0  3  0  0  0  0  0  0
  188.2730  177.7460  138.5770 C   0  0  0  0  0  0  0  0  0  0  0  0
  190.4410  177.6380  143.7320 C   0  0  0  0  0  3  0  0  0  0  0  0
  187.7350  176.9780  144.3510 C   0  0  0  0  0  2  0  0  0  0  0  0
  191.1160  176.0590  146.9620 C   0  0  2  0  0  3  0  0  0  0  0  0
  191.5120  176.2870  145.5110 C   0  0  0  0  0  2  0  0  0  0  0  0
  190.4980  177.2410  145.0080 C   0  0  0  0  0  0  0  0  0  0  0  0
  189.5450  177.7110  146.0520 C   0  0  1  0  0  3  0  0  0  0  0  0
  188.1100  177.2120  145.8210 C   0  0  0  0  0  2  0  0  0  0  0  0
  190.0910  177.1280  147.3430 C   0  0  0  0  0  2  0  0  0  0  0  0
  187.9300  178.2220  143.4660 C   0  0  1  0  0  3  0  0  0  0  0  0
  189.4090  178.6370  143.2710 C   0  0  0  0  0  2  0  0  0  0  0  0
  192.3070  176.1290  147.8570 C   0  0  0  0  0  0  0  0  0  0  0  0
  193.2050  175.2530  147.7710 O   0  0  0  0  0  0  0  0  0  0  0  0
  192.4300  177.1570  148.7850 O   0  0  0  0  0  1  0  0  0  0  0  0
  190.4920  176.3240  135.2980 O   0  0  0  0  0  0  0  0  0  0  0  0
  190.4470  175.0330  134.9390 O   0  0  0  0  0  0  0  0  0  0  0  0
  191.8470  173.7500  136.3600 C   0  0  0  0  0  1  0  0  0  0  0  0
  191.7540  174.5780  135.0980 C   0  0  0  0  0  2  0  0  0  0  0  0
  1  5  1  0  0  0  0
  2 13  2  0  0  0  0
  2 15  1  0  0  0  0
  3 15  2  0  0  0  0
  3 10  1  0  0  0  0
  4  9  1  0  0  0  0
  6  8  1  1  0  0  0
  6  4  1  0  0  0  0
  7  8  1  0  0  0  0
  9  5  1  6  0  0  0
  9 26  1  0  0  0  0
 10 11  2  0  0  0  0
 11  1  1  0  0  0  0
 11  6  1  0  0  0  0
 12 10  1  0  0  0  0
 12  7  1  0  0  0  0
 13 14  1  0  0  0  0
 14 16  2  0  0  0  0
 15 17  1  0  0  0  0
 17 16  1  0  0  0  0
 17  1  2  0  0  0  0
 18 22  2  0  0  0  0
 19 24  1  0  0  0  0
 20 25  1  0  0  0  0
 20 28  1  1  0  0  0
 21 20  1  0  0  0  0
 22 21  1  0  0  0  0
 22 23  1  0  0  0  0
 23 24  1  6  0  0  0
 23 25  1  0  0  0  0
 26 27  1  6  0  0  0
 26 19  1  0  0  0  0
 27 18  1  0  0  0  0
 28 30  1  0  0  0  0
 29 28  2  0  0  0  0
 31 13  1  0  0  0  0
 32 34  1  0  0  0  0
 32 31  1  0  0  0  0
 34 33  1  0  0  0  0
M  END
>  <MODEL>
5

>  <REMARK>
 VINA RESULT:      -9.0      1.784      8.957
  Name = 
  5 active torsions:
  status: ('A' for Active; 'I' for Inactive)
    1  A    between atoms: O_3  and  C_24
    2  A    between atoms: O_3  and  O_25
    3  A    between atoms: C_7  and  C_11
    4  A    between atoms: C_18  and  C_30
    5  A    between atoms: C_23  and  O_25
                            x       y       z     vdW  Elec       q    Type
                         _______ _______ _______ _____ _____    ______ ____

>  <TORSDO>
F 5

$$$$
=
 OpenBabel11052415533D

 34 39  0  0  1  0  0  0  0  0999 V2000
  187.0970  178.4280  143.4540 C   0  0  0  0  0  0  0  0  0  0  0  0
  183.5920  178.4940  144.6880 C   0  0  0  0  0  3  0  0  0  0  0  0
  185.6600  177.9860  145.8270 C   0  0  0  0  0  3  0  0  0  0  0  0
  189.9440  177.6550  143.3010 C   0  0  0  0  0  2  0  0  0  0  0  0
  187.8960  178.6260  142.2000 C   0  0  0  0  0  2  0  0  0  0  0  0
  189.2940  178.0480  144.6400 C   0  0  2  0  0  3  0  0  0  0  0  0
  189.2270  177.6620  147.0900 C   0  0  0  0  0  2  0  0  0  0  0  0
  189.8580  177.2090  145.7800 C   0  0  0  0  0  2  0  0  0  0  0  0
  188.9660  177.5350  142.1150 C   0  0  1  0  0  3  0  0  0  0  0  0
  187.0520  177.8590  145.8260 C   0  0  0  0  0  0  0  0  0  0  0  0
  187.7770  178.0750  144.6350 C   0  0  0  0  0  0  0  0  0  0  0  0
  187.7280  177.3690  147.0780 C   0  0  0  0  0  2  0  0  0  0  0  0
  182.9000  178.8610  143.5310 C   0  0  0  0  0  0  0  0  0  0  0  0
  183.6050  179.0840  142.3400 C   0  0  0  0  0  3  0  0  0  0  0  0
  184.9810  178.3540  144.6650 C   0  0  0  0  0  0  0  0  0  0  0  0
  184.9940  178.9420  142.3060 C   0  0  0  0  0  3  0  0  0  0  0  0
  185.6980  178.5780  143.4650 C   0  0  0  0  0  0  0  0  0  0  0  0
  188.7730  176.2690  138.7430 C   0  0  0  0  0  3  0  0  0  0  0  0
  190.8250  176.5440  140.7060 C   0  0  0  0  0  2  0  0  0  0  0  0
  191.4700  174.8100  136.7480 C   0  0  2  0  0  3  0  0  0  0  0  0
  190.0150  174.7900  137.1910 C   0  0  0  0  0  2  0  0  0  0  0  0
  189.8920  175.9730  138.0720 C   0  0  0  0  0  0  0  0  0  0  0  0
  191.1310  176.7970  138.1470 C   0  0  1  0  0  3  0  0  0  0  0  0
  191.7920  176.7600  139.5350 C   0  0  0  0  0  2  0  0  0  0  0  0
  192.0560  176.1720  137.1190 C   0  0  0  0  0  2  0  0  0  0  0  0
  189.6990  177.5910  140.7700 C   0  0  1  0  0  3  0  0  0  0  0  0
  188.6830  177.5040  139.6040 C   0  0  0  0  0  2  0  0  0  0  0  0
  191.5830  174.5700  135.2810 C   0  0  0  0  0  0  0  0  0  0  0  0
  190.5440  174.3920  134.5940 O   0  0  0  0  0  0  0  0  0  0  0  0
  192.8300  174.5400  134.6660 O   0  0  0  0  0  1  0  0  0  0  0  0
  181.5140  179.0020  143.5790 O   0  0  0  0  0  0  0  0  0  0  0  0
  180.8930  179.9790  142.9050 O   0  0  0  0  0  0  0  0  0  0  0  0
  179.2780  179.0100  144.3470 C   0  0  0  0  0  1  0  0  0  0  0  0
  179.5370  179.6750  143.0140 C   0  0  0  0  0  2  0  0  0  0  0  0
  1 17  2  0  0  0  0
  1 11  1  0  0  0  0
  5  1  1  0  0  0  0
  6  4  1  6  0  0  0
  6  8  1  0  0  0  0
  8  7  1  0  0  0  0
  9  5  1  6  0  0  0
  9  4  1  0  0  0  0
 10  3  1  0  0  0  0
 10 12  1  0  0  0  0
 11  6  1  0  0  0  0
 11 10  2  0  0  0  0
 12  7  1  0  0  0  0
 13 31  1  0  0  0  0
 13  2  2  0  0  0  0
 14 13  1  0  0  0  0
 15  2  1  0  0  0  0
 15  3  2  0  0  0  0
 16 14  2  0  0  0  0
 16 17  1  0  0  0  0
 17 15  1  0  0  0  0
 18 27  1  0  0  0  0
 19 26  1  0  0  0  0
 20 28  1  6  0  0  0
 20 25  1  0  0  0  0
 20 21  1  0  0  0  0
 21 22  1  0  0  0  0
 22 23  1  0  0  0  0
 22 18  2  0  0  0  0
 23 25  1  6  0  0  0
 23 24  1  0  0  0  0
 24 19  1  0  0  0  0
 26 27  1  6  0  0  0
 26  9  1  0  0  0  0
 29 28  2  0  0  0  0
 30 28  1  0  0  0  0
 32 34  1  0  0  0  0
 32 31  1  0  0  0  0
 34 33  1  0  0  0  0
M  END
>  <MODEL>
6

>  <REMARK>
 VINA RESULT:      -9.0      3.396      6.086
  Name = 
  5 active torsions:
  status: ('A' for Active; 'I' for Inactive)
    1  A    between atoms: O_3  and  C_24
    2  A    between atoms: O_3  and  O_25
    3  A    between atoms: C_7  and  C_11
    4  A    between atoms: C_18  and  C_30
    5  A    between atoms: C_23  and  O_25
                            x       y       z     vdW  Elec       q    Type
                         _______ _______ _______ _____ _____    ______ ____

>  <TORSDO>
F 5

$$$$
=
 OpenBabel11052415533D

 34 39  0  0  1  0  0  0  0  0999 V2000
  187.9060  177.3660  144.2010 C   0  0  0  0  0  0  0  0  0  0  0  0
  191.4950  177.4950  143.2440 C   0  0  0  0  0  3  0  0  0  0  0  0
  190.4130  177.8400  145.3760 C   0  0  0  0  0  3  0  0  0  0  0  0
  185.4430  177.9570  145.7200 C   0  0  0  0  0  2  0  0  0  0  0  0
  186.5470  177.1480  143.6050 C   0  0  0  0  0  2  0  0  0  0  0  0
  186.7500  177.5740  146.4370 C   0  0  2  0  0  3  0  0  0  0  0  0
  188.1730  177.9030  148.4420 C   0  0  0  0  0  2  0  0  0  0  0  0
  186.8960  178.3460  147.7420 C   0  0  0  0  0  2  0  0  0  0  0  0
  185.5740  178.1690  144.1980 C   0  0  1  0  0  3  0  0  0  0  0  0
  189.2610  177.8780  146.1650 C   0  0  0  0  0  0  0  0  0  0  0  0
  187.9990  177.6440  145.5780 C   0  0  0  0  0  0  0  0  0  0  0  0
  189.3910  178.2920  147.6060 C   0  0  0  0  0  2  0  0  0  0  0  0
  191.4270  177.2020  141.8800 C   0  0  0  0  0  0  0  0  0  0  0  0
  190.1820  176.9640  141.2810 C   0  0  0  0  0  3  0  0  0  0  0  0
  190.3310  177.5460  144.0150 C   0  0  0  0  0  0  0  0  0  0  0  0
  189.0120  177.0160  142.0430 C   0  0  0  0  0  3  0  0  0  0  0  0
  189.0720  177.3060  143.4150 C   0  0  0  0  0  0  0  0  0  0  0  0
  184.0630  178.4550  140.9360 C   0  0  0  0  0  3  0  0  0  0  0  0
  183.4930  179.4590  143.5440 C   0  0  0  0  0  2  0  0  0  0  0  0
  181.0760  180.3560  140.0170 C   0  0  2  0  0  3  0  0  0  0  0  0
  182.4910  179.9060  139.6860 C   0  0  0  0  0  2  0  0  0  0  0  0
  182.8500  179.0030  140.8030 C   0  0  0  0  0  0  0  0  0  0  0  0
  181.7400  178.7700  141.7680 C   0  0  1  0  0  3  0  0  0  0  0  0
  182.0120  179.3780  143.1530 C   0  0  0  0  0  2  0  0  0  0  0  0
  180.5440  179.4540  141.1310 C   0  0  0  0  0  2  0  0  0  0  0  0
  184.2120  178.0990  143.4980 C   0  0  1  0  0  3  0  0  0  0  0  0
  184.3750  177.5150  142.0730 C   0  0  0  0  0  2  0  0  0  0  0  0
  180.1980  180.2800  138.8140 C   0  0  0  0  0  0  0  0  0  0  0  0
  179.5210  179.2420  138.5980 O   0  0  0  0  0  1  0  0  0  0  0  0
  180.1240  181.3500  137.9280 O   0  0  0  0  0  0  0  0  0  0  0  0
  192.6020  177.1500  141.1320 O   0  0  0  0  0  0  0  0  0  0  0  0
  192.6870  177.7420  139.9330 O   0  0  0  0  0  0  0  0  0  0  0  0
  192.0950  176.3320  138.1200 C   0  0  0  0  0  1  0  0  0  0  0  0
  193.1810  176.7520  139.0860 C   0  0  0  0  0  2  0  0  0  0  0  0
  1 11  1  0  0  0  0
  2 15  1  0  0  0  0
  3 10  1  0  0  0  0
  5  1  1  0  0  0  0
  6  4  1  6  0  0  0
  6  8  1  0  0  0  0
  8  7  1  0  0  0  0
  9  5  1  6  0  0  0
  9  4  1  0  0  0  0
 10 12  1  0  0  0  0
 11 10  2  0  0  0  0
 11  6  1  0  0  0  0
 12  7  1  0  0  0  0
 13  2  2  0  0  0  0
 14 13  1  0  0  0  0
 14 16  2  0  0  0  0
 15  3  2  0  0  0  0
 16 17  1  0  0  0  0
 17 15  1  0  0  0  0
 17  1  2  0  0  0  0
 18 27  1  0  0  0  0
 20 28  1  6  0  0  0
 20 25  1  0  0  0  0
 21 20  1  0  0  0  0
 21 22  1  0  0  0  0
 22 18  2  0  0  0  0
 22 23  1  0  0  0  0
 23 25  1  6  0  0  0
 23 24  1  0  0  0  0
 24 19  1  0  0  0  0
 26 27  1  6  0  0  0
 26 19  1  0  0  0  0
 26  9  1  0  0  0  0
 29 28  1  0  0  0  0
 30 28  2  0  0  0  0
 31 13  1  0  0  0  0
 32 31  1  0  0  0  0
 33 34  1  0  0  0  0
 34 32  1  0  0  0  0
M  END
>  <MODEL>
7

>  <REMARK>
 VINA RESULT:      -9.0      4.180      7.496
  Name = 
  5 active torsions:
  status: ('A' for Active; 'I' for Inactive)
    1  A    between atoms: O_3  and  C_24
    2  A    between atoms: O_3  and  O_25
    3  A    between atoms: C_7  and  C_11
    4  A    between atoms: C_18  and  C_30
    5  A    between atoms: C_23  and  O_25
                            x       y       z     vdW  Elec       q    Type
                         _______ _______ _______ _____ _____    ______ ____

>  <TORSDO>
F 5

$$$$
=
 OpenBabel11052415533D

 34 39  0  0  1  0  0  0  0  0999 V2000
  184.6610  178.3090  142.4510 C   0  0  0  0  0  0  0  0  0  0  0  0
  184.9290  178.6490  146.1430 C   0  0  0  0  0  3  0  0  0  0  0  0
  183.0490  178.9580  144.6580 C   0  0  0  0  0  3  0  0  0  0  0  0
  183.6490  178.7680  139.7150 C   0  0  0  0  0  2  0  0  0  0  0  0
  185.4970  177.9980  141.2450 C   0  0  0  0  0  2  0  0  0  0  0  0
  182.6880  178.4780  140.8820 C   0  0  2  0  0  3  0  0  0  0  0  0
  180.4610  178.9250  141.8790 C   0  0  0  0  0  2  0  0  0  0  0  0
  181.4000  179.2770  140.7330 C   0  0  0  0  0  2  0  0  0  0  0  0
  185.1230  178.9640  140.1190 C   0  0  1  0  0  3  0  0  0  0  0  0
  182.4920  178.9350  143.3770 C   0  0  0  0  0  0  0  0  0  0  0  0
  183.2990  178.6140  142.2650 C   0  0  0  0  0  0  0  0  0  0  0  0
  181.0640  179.3780  143.2080 C   0  0  0  0  0  2  0  0  0  0  0  0
  186.2740  178.3320  146.3510 C   0  0  0  0  0  0  0  0  0  0  0  0
  187.0900  178.0070  145.2580 C   0  0  0  0  0  3  0  0  0  0  0  0
  184.3930  178.6380  144.8530 C   0  0  0  0  0  0  0  0  0  0  0  0
  186.5630  177.9980  143.9640 C   0  0  0  0  0  3  0  0  0  0  0  0
  185.2120  178.3110  143.7460 C   0  0  0  0  0  0  0  0  0  0  0  0
  185.9570  176.6440  137.4860 C   0  0  0  0  0  3  0  0  0  0  0  0
  187.4230  178.2210  139.3570 C   0  0  0  0  0  2  0  0  0  0  0  0
  189.2900  175.5640  136.4340 C   0  0  2  0  0  3  0  0  0  0  0  0
  187.8370  175.2200  136.7280 C   0  0  0  0  0  2  0  0  0  0  0  0
  187.2240  176.5220  137.0750 C   0  0  0  0  0  0  0  0  0  0  0  0
  188.1500  177.6800  136.9320 C   0  0  1  0  0  3  0  0  0  0  0  0
  188.5070  178.3310  138.2770 C   0  0  0  0  0  2  0  0  0  0  0  0
  189.3960  177.0830  136.3020 C   0  0  0  0  0  2  0  0  0  0  0  0
  186.0660  178.7990  138.9210 C   0  0  1  0  0  3  0  0  0  0  0  0
  185.3640  177.9960  137.7980 C   0  0  0  0  0  2  0  0  0  0  0  0
  189.7530  174.8930  135.1850 C   0  0  0  0  0  0  0  0  0  0  0  0
  189.0500  173.9900  134.6630 O   0  0  0  0  0  1  0  0  0  0  0  0
  190.9580  175.2590  134.5950 O   0  0  0  0  0  0  0  0  0  0  0  0
  186.7850  178.3430  147.6470 O   0  0  0  0  0  0  0  0  0  0  0  0
  187.5480  177.3380  148.1000 O   0  0  0  0  0  0  0  0  0  0  0  0
  189.8570  177.5350  147.5930 C   0  0  0  0  0  1  0  0  0  0  0  0
  188.7300  177.9500  148.5120 C   0  0  0  0  0  2  0  0  0  0  0  0
  1 17  1  0  0  0  0
  2 13  1  0  0  0  0
  3 15  1  0  0  0  0
  5  1  1  0  0  0  0
  6  4  1  6  0  0  0
  6 11  1  0  0  0  0
  7 12  1  0  0  0  0
  8  6  1  0  0  0  0
  8  7  1  0  0  0  0
  9  4  1  6  0  0  0
  9  5  1  0  0  0  0
 10  3  2  0  0  0  0
 11  1  2  0  0  0  0
 11 10  1  0  0  0  0
 12 10  1  0  0  0  0
 13 31  1  0  0  0  0
 14 13  2  0  0  0  0
 15  2  2  0  0  0  0
 16 14  1  0  0  0  0
 17 16  2  0  0  0  0
 17 15  1  0  0  0  0
 18 27  1  0  0  0  0
 20 28  1  6  0  0  0
 20 21  1  0  0  0  0
 21 22  1  0  0  0  0
 22 18  2  0  0  0  0
 23 25  1  1  0  0  0
 23 22  1  0  0  0  0
 23 24  1  0  0  0  0
 24 19  1  0  0  0  0
 25 20  1  0  0  0  0
 26 27  1  6  0  0  0
 26 19  1  0  0  0  0
 26  9  1  0  0  0  0
 29 28  1  0  0  0  0
 30 28  2  0  0  0  0
 31 32  1  0  0  0  0
 32 34  1  0  0  0  0
 33 34  1  0  0  0  0
M  END
>  <MODEL>
8

>  <REMARK>
 VINA RESULT:      -8.9      2.443      4.020
  Name = 
  5 active torsions:
  status: ('A' for Active; 'I' for Inactive)
    1  A    between atoms: O_3  and  C_24
    2  A    between atoms: O_3  and  O_25
    3  A    between atoms: C_7  and  C_11
    4  A    between atoms: C_18  and  C_30
    5  A    between atoms: C_23  and  O_25
                            x       y       z     vdW  Elec       q    Type
                         _______ _______ _______ _____ _____    ______ ____

>  <TORSDO>
F 5

$$$$
=
 OpenBabel11052415533D

 34 39  0  0  1  0  0  0  0  0999 V2000
  190.1690  177.1820  138.6200 C   0  0  0  0  0  0  0  0  0  0  0  0
  191.9920  175.3450  135.9520 C   0  0  0  0  0  3  0  0  0  0  0  0
  189.7350  176.2020  136.0230 C   0  0  0  0  0  3  0  0  0  0  0  0
  187.8840  178.1560  140.2170 C   0  0  0  0  0  2  0  0  0  0  0  0
  190.3530  177.6930  140.0180 C   0  0  0  0  0  2  0  0  0  0  0  0
  187.8680  178.2210  138.6790 C   0  0  2  0  0  3  0  0  0  0  0  0
  186.4850  178.0720  136.6250 C   0  0  0  0  0  2  0  0  0  0  0  0
  186.4680  177.9510  138.1420 C   0  0  0  0  0  2  0  0  0  0  0  0
  189.0850  177.4030  140.8240 C   0  0  1  0  0  3  0  0  0  0  0  0
  188.7140  176.8890  136.6840 C   0  0  0  0  0  0  0  0  0  0  0  0
  188.9260  177.3790  137.9900 C   0  0  0  0  0  0  0  0  0  0  0  0
  187.3650  176.9780  136.0220 C   0  0  0  0  0  2  0  0  0  0  0  0
  193.2400  175.1540  136.5530 C   0  0  0  0  0  0  0  0  0  0  0  0
  193.4690  175.6380  137.8480 C   0  0  0  0  0  3  0  0  0  0  0  0
  190.9770  176.0190  136.6340 C   0  0  0  0  0  0  0  0  0  0  0  0
  192.4580  176.3100  138.5390 C   0  0  0  0  0  3  0  0  0  0  0  0
  191.2030  176.5090  137.9420 C   0  0  0  0  0  0  0  0  0  0  0  0
  191.5860  177.3510  143.4220 C   0  0  0  0  0  3  0  0  0  0  0  0
  188.8440  176.5930  143.2130 C   0  0  0  0  0  2  0  0  0  0  0  0
  191.2150  176.1410  146.8550 C   0  0  2  0  0  3  0  0  0  0  0  0
  192.0550  176.2490  145.5910 C   0  0  0  0  0  2  0  0  0  0  0  0
  191.2360  177.0860  144.6860 C   0  0  0  0  0  0  0  0  0  0  0  0
  189.9840  177.5970  145.3100 C   0  0  1  0  0  3  0  0  0  0  0  0
  188.7140  176.9920  144.6890 C   0  0  0  0  0  2  0  0  0  0  0  0
  190.0950  177.1780  146.7650 C   0  0  0  0  0  2  0  0  0  0  0  0
  189.2840  177.7540  142.3030 C   0  0  1  0  0  3  0  0  0  0  0  0
  190.7350  178.2360  142.5460 C   0  0  0  0  0  2  0  0  0  0  0  0
  192.0490  176.3710  148.0700 C   0  0  0  0  0  0  0  0  0  0  0  0
  192.0560  177.5030  148.6180 O   0  0  0  0  0  1  0  0  0  0  0  0
  192.8180  175.3410  148.6000 O   0  0  0  0  0  0  0  0  0  0  0  0
  194.2400  174.4850  135.8510 O   0  0  0  0  0  0  0  0  0  0  0  0
  195.4340  174.2410  136.4090 O   0  0  0  0  0  0  0  0  0  0  0  0
  197.5430  175.2520  136.0140 C   0  0  0  0  0  1  0  0  0  0  0  0
  196.3580  174.5340  135.4080 C   0  0  0  0  0  2  0  0  0  0  0  0
  1  5  1  0  0  0  0
  2 13  2  0  0  0  0
  2 15  1  0  0  0  0
  3 15  2  0  0  0  0
  3 10  1  0  0  0  0
  4  9  1  0  0  0  0
  6  8  1  6  0  0  0
  6  4  1  0  0  0  0
  7  8  1  0  0  0  0
  9  5  1  6  0  0  0
  9 26  1  0  0  0  0
 10 11  2  0  0  0  0
 11  1  1  0  0  0  0
 11  6  1  0  0  0  0
 12  7  1  0  0  0  0
 12 10  1  0  0  0  0
 13 14  1  0  0  0  0
 14 16  2  0  0  0  0
 15 17  1  0  0  0  0
 17 16  1  0  0  0  0
 17  1  2  0  0  0  0
 18 22  2  0  0  0  0
 19 24  1  0  0  0  0
 20 28  1  1  0  0  0
 21 20  1  0  0  0  0
 22 23  1  0  0  0  0
 22 21  1  0  0  0  0
 23 24  1  6  0  0  0
 23 25  1  0  0  0  0
 25 20  1  0  0  0  0
 26 27  1  6  0  0  0
 26 19  1  0  0  0  0
 27 18  1  0  0  0  0
 28 30  2  0  0  0  0
 28 29  1  0  0  0  0
 31 32  1  0  0  0  0
 31 13  1  0  0  0  0
 34 33  1  0  0  0  0
 34 32  1  0  0  0  0
M  END
>  <MODEL>
9

>  <REMARK>
 VINA RESULT:      -8.4      2.158      9.243
  Name = 
  5 active torsions:
  status: ('A' for Active; 'I' for Inactive)
    1  A    between atoms: O_3  and  C_24
    2  A    between atoms: O_3  and  O_25
    3  A    between atoms: C_7  and  C_11
    4  A    between atoms: C_18  and  C_30
    5  A    between atoms: C_23  and  O_25
                            x       y       z     vdW  Elec       q    Type
                         _______ _______ _______ _____ _____    ______ ____

>  <TORSDO>
F 5

$$$$
