=
 OpenBabel11052413033D

 31 36  0  0  1  0  0  0  0  0999 V2000
  188.9360  177.1070  136.9490 C   0  0  0  0  0  0  0  0  0  0  0  0
  185.6470  178.3430  138.2720 C   0  0  2  0  0  3  0  0  0  0  0  0
  184.6830  177.1480  138.1110 C   0  0  2  0  0  3  0  0  0  0  0  0
  184.4670  174.9100  137.0190 C   0  0  0  0  0  3  0  0  0  0  0  0
  187.1040  177.9470  138.2180 C   0  0  0  0  0  0  0  0  0  0  0  0
  189.7710  177.1700  138.0660 C   0  0  0  0  0  3  0  0  0  0  0  0
  184.9690  176.3140  136.8770 C   0  0  0  0  0  2  0  0  0  0  0  0
  185.9620  178.5570  140.7410 N   0  0  0  0  0  0  0  0  0  0  0  0
  189.4440  176.6370  135.7070 N   0  0  0  0  0  1  0  0  0  0  0  0
  182.9700  179.0240  138.5100 C   0  0  0  0  0  2  0  0  0  0  0  0
  183.3340  174.5080  137.6110 C   0  0  0  0  0  3  0  0  0  0  0  0
  187.4180  178.6580  140.6170 C   0  0  0  0  0  2  0  0  0  0  0  0
  185.3010  179.1490  139.5580 C   0  0  2  0  0  3  0  0  0  0  0  0
  187.6370  177.4990  137.0470 N   0  0  0  0  0  0  0  0  0  0  0  0
  182.3120  175.3120  138.3230 C   0  0  0  0  0  3  0  0  0  0  0  0
  187.9170  178.0250  139.3590 C   0  0  0  0  0  0  0  0  0  0  0  0
  189.2570  177.6420  139.2730 C   0  0  0  0  0  3  0  0  0  0  0  0
  183.7740  179.2580  139.7820 C   0  0  0  0  0  2  0  0  0  0  0  0
  183.2380  177.6260  137.9460 C   0  0  2  0  0  3  0  0  0  0  0  0
  182.2660  176.6370  138.5010 C   0  0  0  0  0  3  0  0  0  0  0  0
  185.5710  179.2300  141.9930 C   0  0  0  0  0  2  0  0  0  0  0  0
  187.8860  177.6310  146.2770 C   0  0  0  0  0  0  0  0  0  0  0  0
  187.2770  177.1660  143.8280 C   0  0  0  0  0  2  0  0  0  0  0  0
  184.4070  178.6970  145.3790 C   0  0  0  0  0  2  0  0  0  0  0  0
  184.0150  178.7630  143.9120 C   0  0  0  0  0  2  0  0  0  0  0  0
  188.8580  177.7330  147.4010 C   0  0  0  0  0  1  0  0  0  0  0  0
  185.2390  178.2650  143.1370 C   0  0  2  0  0  3  0  0  0  0  0  0
  188.3850  177.1890  144.9050 C   0  0  0  0  0  2  0  0  0  0  0  0
  185.6650  177.8800  145.3270 C   0  0  1  0  0  3  0  0  0  0  0  0
  186.3310  178.2440  144.0950 N   0  0  1  0  0  0  0  0  0  0  0  0
  186.6140  178.0240  146.4720 C   0  0  0  0  0  3  0  0  0  0  0  0
  1 14  2  0  0  0  0
  1  6  1  0  0  0  0
  2  5  1  1  0  0  0
  2 13  1  0  0  0  0
  3  7  1  6  0  0  0
  3  2  1  0  0  0  0
  4 11  2  0  0  0  0
  5 16  2  0  0  0  0
  6 17  2  0  0  0  0
  7  4  1  0  0  0  0
  8 21  1  0  0  0  0
  9  1  1  0  0  0  0
 10 18  1  0  0  0  0
 11 15  1  0  0  0  0
 12  8  1  0  0  0  0
 13 18  1  1  0  0  0
 13  8  1  0  0  0  0
 14  5  1  0  0  0  0
 15 20  2  0  0  0  0
 16 12  1  0  0  0  0
 17 16  1  0  0  0  0
 19  3  1  0  0  0  0
 19 20  1  1  0  0  0
 19 10  1  0  0  0  0
 22 31  2  0  0  0  0
 22 26  1  0  0  0  0
 23 28  1  0  0  0  0
 25 24  1  0  0  0  0
 27 21  1  6  0  0  0
 27 25  1  0  0  0  0
 27 30  1  0  0  0  0
 28 22  1  0  0  0  0
 29 24  1  1  0  0  0
 29 31  1  0  0  0  0
 30 23  1  6  0  0  0
 30 29  1  0  0  0  0
M  END
>  <MODEL>
1

>  <REMARK>
 VINA RESULT:      -9.3      0.000      0.000
  Name = 
  2 active torsions:
  status: ('A' for Active; 'I' for Inactive)
    1  A    between atoms: C_9  and  C_23
    2  A    between atoms: N_15  and  C_23
                            x       y       z     vdW  Elec       q    Type
                         _______ _______ _______ _____ _____    ______ ____

>  <TORSDO>
F 2

$$$$
=
 OpenBabel11052413033D

 31 36  0  0  1  0  0  0  0  0999 V2000
  192.2180  176.3460  137.5890 C   0  0  0  0  0  0  0  0  0  0  0  0
  188.6000  177.3310  137.7610 C   0  0  2  0  0  3  0  0  0  0  0  0
  187.8220  176.0240  137.4990 C   0  0  2  0  0  3  0  0  0  0  0  0
  188.1110  173.6730  136.6990 C   0  0  0  0  0  3  0  0  0  0  0  0
  190.0350  177.1000  138.1710 C   0  0  0  0  0  0  0  0  0  0  0  0
  192.6830  176.6210  138.8770 C   0  0  0  0  0  3  0  0  0  0  0  0
  188.5200  175.1030  136.5170 C   0  0  0  0  0  2  0  0  0  0  0  0
  188.1630  177.8380  140.1690 N   0  0  0  0  0  0  0  0  0  0  0  0
  193.1020  175.8080  136.6140 N   0  0  0  0  0  1  0  0  0  0  0  0
  185.9250  177.7240  137.1470 C   0  0  0  0  0  2  0  0  0  0  0  0
  186.8900  173.2090  136.9980 C   0  0  0  0  0  3  0  0  0  0  0  0
  189.5790  178.0910  140.4440 C   0  0  0  0  0  2  0  0  0  0  0  0
  187.8310  178.2240  138.7790 C   0  0  2  0  0  3  0  0  0  0  0  0
  190.9200  176.5950  137.2670 N   0  0  0  0  0  0  0  0  0  0  0  0
  185.6450  173.9620  137.2820 C   0  0  0  0  0  3  0  0  0  0  0  0
  190.4720  177.3900  139.4730 C   0  0  0  0  0  0  0  0  0  0  0  0
  191.8040  177.1560  139.8170 C   0  0  0  0  0  3  0  0  0  0  0  0
  186.3010  178.1810  138.5500 C   0  0  0  0  0  2  0  0  0  0  0  0
  186.4550  176.3140  136.8730 C   0  0  2  0  0  3  0  0  0  0  0  0
  185.4440  175.2840  137.2600 C   0  0  0  0  0  3  0  0  0  0  0  0
  187.3720  178.5910  141.1590 C   0  0  0  0  0  2  0  0  0  0  0  0
  188.3210  177.5460  146.0860 C   0  0  0  0  0  0  0  0  0  0  0  0
  188.5110  176.8230  143.6310 C   0  0  0  0  0  2  0  0  0  0  0  0
  185.2460  178.2830  144.0730 C   0  0  0  0  0  2  0  0  0  0  0  0
  185.3210  178.1900  142.5580 C   0  0  0  0  0  2  0  0  0  0  0  0
  188.8960  177.8150  147.4330 C   0  0  0  0  0  1  0  0  0  0  0  0
  186.7430  177.7110  142.2460 C   0  0  2  0  0  3  0  0  0  0  0  0
  189.2330  177.0180  144.9830 C   0  0  0  0  0  2  0  0  0  0  0  0
  186.4910  177.5540  144.4900 C   0  0  1  0  0  3  0  0  0  0  0  0
  187.4880  177.8520  143.4850 N   0  0  1  0  0  0  0  0  0  0  0  0
  187.0360  177.8650  145.8460 C   0  0  0  0  0  3  0  0  0  0  0  0
  1  6  1  0  0  0  0
  2  5  1  1  0  0  0
  2 13  1  0  0  0  0
  3  7  1  6  0  0  0
  3  2  1  0  0  0  0
  4 11  2  0  0  0  0
  5 16  2  0  0  0  0
  6 17  2  0  0  0  0
  7  4  1  0  0  0  0
  8 12  1  0  0  0  0
  8 21  1  0  0  0  0
  9  1  1  0  0  0  0
 10 18  1  0  0  0  0
 11 15  1  0  0  0  0
 13 18  1  6  0  0  0
 13  8  1  0  0  0  0
 14  1  2  0  0  0  0
 14  5  1  0  0  0  0
 16 17  1  0  0  0  0
 16 12  1  0  0  0  0
 19 10  1  1  0  0  0
 19 20  1  0  0  0  0
 19  3  1  0  0  0  0
 20 15  2  0  0  0  0
 22 26  1  0  0  0  0
 23 28  1  0  0  0  0
 25 24  1  0  0  0  0
 27 21  1  6  0  0  0
 27 25  1  0  0  0  0
 27 30  1  0  0  0  0
 28 22  1  0  0  0  0
 29 24  1  6  0  0  0
 29 31  1  0  0  0  0
 30 23  1  6  0  0  0
 30 29  1  0  0  0  0
 31 22  2  0  0  0  0
M  END
>  <MODEL>
2

>  <REMARK>
 VINA RESULT:      -9.3      1.831      2.769
  Name = 
  2 active torsions:
  status: ('A' for Active; 'I' for Inactive)
    1  A    between atoms: C_9  and  C_23
    2  A    between atoms: N_15  and  C_23
                            x       y       z     vdW  Elec       q    Type
                         _______ _______ _______ _____ _____    ______ ____

>  <TORSDO>
F 2

$$$$
=
 OpenBabel11052413033D

 31 36  0  0  1  0  0  0  0  0999 V2000
  190.7720  176.2090  137.8330 C   0  0  0  0  0  0  0  0  0  0  0  0
  187.1710  177.2640  137.7540 C   0  0  2  0  0  3  0  0  0  0  0  0
  186.3760  175.9460  137.6270 C   0  0  2  0  0  3  0  0  0  0  0  0
  186.6450  173.5100  137.1350 C   0  0  0  0  0  3  0  0  0  0  0  0
  188.5870  177.0630  138.2390 C   0  0  0  0  0  0  0  0  0  0  0  0
  191.2000  176.6340  139.0930 C   0  0  0  0  0  3  0  0  0  0  0  0
  187.0880  174.8990  136.7930 C   0  0  0  0  0  2  0  0  0  0  0  0
  186.6640  178.0730  140.0630 N   0  0  0  0  0  0  0  0  0  0  0  0
  191.6780  175.5400  136.9640 N   0  0  0  0  0  1  0  0  0  0  0  0
  184.5260  177.6180  137.0010 C   0  0  0  0  0  2  0  0  0  0  0  0
  185.4060  173.1060  137.4460 C   0  0  0  0  0  3  0  0  0  0  0  0
  188.0750  178.3360  140.3550 C   0  0  0  0  0  2  0  0  0  0  0  0
  186.3860  178.2870  138.6260 C   0  0  2  0  0  3  0  0  0  0  0  0
  189.4910  176.4360  137.4370 N   0  0  0  0  0  0  0  0  0  0  0  0
  184.1670  173.9070  137.5900 C   0  0  0  0  0  3  0  0  0  0  0  0
  188.9850  177.5060  139.5100 C   0  0  0  0  0  0  0  0  0  0  0  0
  190.3000  177.2960  139.9280 C   0  0  0  0  0  3  0  0  0  0  0  0
  184.8640  178.2400  138.3500 C   0  0  0  0  0  2  0  0  0  0  0  0
  185.0370  176.1770  136.9230 C   0  0  2  0  0  3  0  0  0  0  0  0
  183.9940  175.2190  137.3980 C   0  0  0  0  0  3  0  0  0  0  0  0
  185.8550  178.9550  140.9240 C   0  0  0  0  0  2  0  0  0  0  0  0
  186.3160  178.2800  145.9840 C   0  0  0  0  0  0  0  0  0  0  0  0
  186.6620  177.3390  143.6220 C   0  0  0  0  0  2  0  0  0  0  0  0
  183.4770  179.0240  143.6530 C   0  0  0  0  0  2  0  0  0  0  0  0
  183.6720  178.7980  142.1620 C   0  0  0  0  0  2  0  0  0  0  0  0
  186.7930  178.6270  147.3500 C   0  0  0  0  0  1  0  0  0  0  0  0
  185.0800  178.2100  142.0170 C   0  0  2  0  0  3  0  0  0  0  0  0
  187.2800  177.6060  145.0120 C   0  0  0  0  0  2  0  0  0  0  0  0
  184.6300  178.2600  144.2350 C   0  0  1  0  0  3  0  0  0  0  0  0
  185.7260  178.4110  143.3020 N   0  0  1  0  0  0  0  0  0  0  0  0
  185.0800  178.6530  145.6050 C   0  0  0  0  0  3  0  0  0  0  0  0
  1  6  1  0  0  0  0
  2  5  1  1  0  0  0
  2 13  1  0  0  0  0
  3  7  1  6  0  0  0
  3  2  1  0  0  0  0
  4 11  2  0  0  0  0
  5 16  2  0  0  0  0
  6 17  2  0  0  0  0
  7  4  1  0  0  0  0
  8 12  1  0  0  0  0
  8 21  1  0  0  0  0
  9  1  1  0  0  0  0
 10 18  1  0  0  0  0
 11 15  1  0  0  0  0
 13 18  1  1  0  0  0
 13  8  1  0  0  0  0
 14  1  2  0  0  0  0
 14  5  1  0  0  0  0
 16 17  1  0  0  0  0
 16 12  1  0  0  0  0
 19 10  1  1  0  0  0
 19 20  1  0  0  0  0
 19  3  1  0  0  0  0
 20 15  2  0  0  0  0
 22 26  1  0  0  0  0
 23 28  1  0  0  0  0
 25 24  1  0  0  0  0
 27 21  1  6  0  0  0
 27 25  1  0  0  0  0
 27 30  1  0  0  0  0
 28 22  1  0  0  0  0
 29 24  1  6  0  0  0
 29 31  1  0  0  0  0
 30 23  1  1  0  0  0
 30 29  1  0  0  0  0
 31 22  2  0  0  0  0
M  END
>  <MODEL>
3

>  <REMARK>
 VINA RESULT:      -8.8      1.371      1.929
  Name = 
  2 active torsions:
  status: ('A' for Active; 'I' for Inactive)
    1  A    between atoms: C_9  and  C_23
    2  A    between atoms: N_15  and  C_23
                            x       y       z     vdW  Elec       q    Type
                         _______ _______ _______ _____ _____    ______ ____

>  <TORSDO>
F 2

$$$$
=
 OpenBabel11052413033D

 31 36  0  0  1  0  0  0  0  0999 V2000
  192.0710  174.4560  135.7600 C   0  0  0  0  0  0  0  0  0  0  0  0
  189.1310  176.5200  136.8490 C   0  0  2  0  0  3  0  0  0  0  0  0
  187.9290  175.5520  136.7990 C   0  0  2  0  0  3  0  0  0  0  0  0
  187.2300  173.3030  135.9610 C   0  0  0  0  0  3  0  0  0  0  0  0
  190.4660  175.8140  136.8780 C   0  0  0  0  0  0  0  0  0  0  0  0
  192.8990  174.4650  136.8850 C   0  0  0  0  0  3  0  0  0  0  0  0
  188.0270  174.5380  135.6750 C   0  0  0  0  0  2  0  0  0  0  0  0
  189.4830  176.9450  139.2860 N   0  0  0  0  0  0  0  0  0  0  0  0
  192.4660  173.7460  134.5940 N   0  0  0  0  0  1  0  0  0  0  0  0
  186.6660  177.7880  136.9390 C   0  0  0  0  0  2  0  0  0  0  0  0
  186.0360  173.2270  136.5650 C   0  0  0  0  0  3  0  0  0  0  0  0
  190.9250  176.7130  139.1890 C   0  0  0  0  0  2  0  0  0  0  0  0
  188.9680  177.5250  138.0260 C   0  0  2  0  0  3  0  0  0  0  0  0
  190.8890  175.1280  135.7800 N   0  0  0  0  0  0  0  0  0  0  0  0
  185.2140  174.3100  137.1550 C   0  0  0  0  0  3  0  0  0  0  0  0
  191.2760  175.8460  138.0240 C   0  0  0  0  0  0  0  0  0  0  0  0
  192.4990  175.1740  138.0170 C   0  0  0  0  0  3  0  0  0  0  0  0
  187.5010  177.9880  138.1970 C   0  0  0  0  0  2  0  0  0  0  0  0
  186.6230  176.3090  136.5440 C   0  0  2  0  0  3  0  0  0  0  0  0
  185.4580  175.6250  137.1810 C   0  0  0  0  0  3  0  0  0  0  0  0
  189.2470  177.8270  140.4430 C   0  0  0  0  0  2  0  0  0  0  0  0
  190.8400  176.6280  145.1640 C   0  0  0  0  0  0  0  0  0  0  0  0
  190.4250  175.8690  142.7490 C   0  0  0  0  0  2  0  0  0  0  0  0
  187.6710  177.9910  143.6980 C   0  0  0  0  0  2  0  0  0  0  0  0
  187.4480  177.8770  142.1990 C   0  0  0  0  0  2  0  0  0  0  0  0
  191.6940  176.7750  146.3750 C   0  0  0  0  0  1  0  0  0  0  0  0
  188.6580  177.1060  141.6610 C   0  0  2  0  0  3  0  0  0  0  0  0
  191.4060  175.9130  143.9410 C   0  0  0  0  0  2  0  0  0  0  0  0
  188.7920  177.0170  143.9190 C   0  0  1  0  0  3  0  0  0  0  0  0
  189.6290  177.0910  142.7410 N   0  0  1  0  0  0  0  0  0  0  0  0
  189.6280  177.2110  145.1420 C   0  0  0  0  0  3  0  0  0  0  0  0
  1 14  2  0  0  0  0
  1  6  1  0  0  0  0
  2  5  1  1  0  0  0
  2 13  1  0  0  0  0
  3  7  1  6  0  0  0
  3  2  1  0  0  0  0
  4 11  2  0  0  0  0
  5 16  2  0  0  0  0
  6 17  2  0  0  0  0
  7  4  1  0  0  0  0
  8 21  1  0  0  0  0
  9  1  1  0  0  0  0
 10 18  1  0  0  0  0
 11 15  1  0  0  0  0
 12  8  1  0  0  0  0
 13 18  1  1  0  0  0
 13  8  1  0  0  0  0
 14  5  1  0  0  0  0
 15 20  2  0  0  0  0
 16 12  1  0  0  0  0
 17 16  1  0  0  0  0
 19  3  1  0  0  0  0
 19 10  1  1  0  0  0
 19 20  1  0  0  0  0
 22 26  1  0  0  0  0
 23 28  1  0  0  0  0
 25 24  1  0  0  0  0
 27 21  1  6  0  0  0
 27 25  1  0  0  0  0
 27 30  1  0  0  0  0
 28 22  1  0  0  0  0
 29 24  1  6  0  0  0
 29 31  1  0  0  0  0
 30 23  1  6  0  0  0
 30 29  1  0  0  0  0
 31 22  2  0  0  0  0
M  END
>  <MODEL>
4

>  <REMARK>
 VINA RESULT:      -8.0      2.592      3.889
  Name = 
  2 active torsions:
  status: ('A' for Active; 'I' for Inactive)
    1  A    between atoms: C_9  and  C_23
    2  A    between atoms: N_15  and  C_23
                            x       y       z     vdW  Elec       q    Type
                         _______ _______ _______ _____ _____    ______ ____

>  <TORSDO>
F 2

$$$$
=
 OpenBabel11052413033D

 31 36  0  0  1  0  0  0  0  0999 V2000
  189.3620  178.1820  137.3300 C   0  0  0  0  0  0  0  0  0  0  0  0
  187.3170  178.6060  140.4490 C   0  0  2  0  0  3  0  0  0  0  0  0
  185.8920  178.1670  140.0500 C   0  0  2  0  0  3  0  0  0  0  0  0
  184.4680  177.6290  138.0670 C   0  0  0  0  0  3  0  0  0  0  0  0
  188.3830  178.1120  139.5000 C   0  0  0  0  0  0  0  0  0  0  0  0
  190.3010  177.2150  137.6950 C   0  0  0  0  0  3  0  0  0  0  0  0
  185.5410  178.5170  138.6170 C   0  0  0  0  0  2  0  0  0  0  0  0
  188.1020  176.8170  142.0070 N   0  0  0  0  0  0  0  0  0  0  0  0
  189.3740  178.7220  136.0150 N   0  0  0  0  0  1  0  0  0  0  0  0
  185.3590  179.3800  142.2540 C   0  0  0  0  0  2  0  0  0  0  0  0
  183.3960  177.1530  138.7150 C   0  0  0  0  0  3  0  0  0  0  0  0
  189.3900  176.6880  141.3210 C   0  0  0  0  0  2  0  0  0  0  0  0
  187.6120  178.2100  141.9260 C   0  0  2  0  0  3  0  0  0  0  0  0
  188.4380  178.6080  138.2330 N   0  0  0  0  0  0  0  0  0  0  0  0
  183.0090  177.3210  140.1360 C   0  0  0  0  0  3  0  0  0  0  0  0
  189.3140  177.1410  139.9000 C   0  0  0  0  0  0  0  0  0  0  0  0
  190.2800  176.7020  138.9920 C   0  0  0  0  0  3  0  0  0  0  0  0
  186.3780  178.4100  142.8380 C   0  0  0  0  0  2  0  0  0  0  0  0
  184.8380  178.8750  140.9050 C   0  0  2  0  0  3  0  0  0  0  0  0
  183.6220  178.0280  141.0920 C   0  0  0  0  0  3  0  0  0  0  0  0
  188.2890  176.3730  143.4000 C   0  0  0  0  0  2  0  0  0  0  0  0
  187.9270  177.9230  148.2720 C   0  0  0  0  0  0  0  0  0  0  0  0
  187.3650  178.3480  145.8050 C   0  0  0  0  0  2  0  0  0  0  0  0
  190.7540  177.1310  145.9410 C   0  0  0  0  0  2  0  0  0  0  0  0
  190.4740  177.0450  144.4500 C   0  0  0  0  0  2  0  0  0  0  0  0
  187.5550  177.7790  149.7060 C   0  0  0  0  0  1  0  0  0  0  0  0
  188.9930  177.4050  144.2890 C   0  0  2  0  0  3  0  0  0  0  0  0
  186.8430  178.2690  147.2570 C   0  0  0  0  0  2  0  0  0  0  0  0
  189.5270  177.8330  146.4460 C   0  0  1  0  0  3  0  0  0  0  0  0
  188.4300  177.3670  145.6270 N   0  0  1  0  0  0  0  0  0  0  0  0
  189.1890  177.6500  147.8910 C   0  0  0  0  0  3  0  0  0  0  0  0
  1  6  2  0  0  0  0
  1 14  1  0  0  0  0
  2  5  1  6  0  0  0
  2 13  1  0  0  0  0
  3  7  1  6  0  0  0
  3  2  1  0  0  0  0
  3 19  1  0  0  0  0
  4  7  1  0  0  0  0
  4 11  2  0  0  0  0
  5 16  1  0  0  0  0
  6 17  1  0  0  0  0
  8 21  1  0  0  0  0
  9  1  1  0  0  0  0
 10 18  1  0  0  0  0
 11 15  1  0  0  0  0
 12  8  1  0  0  0  0
 13  8  1  0  0  0  0
 13 18  1  1  0  0  0
 14  5  2  0  0  0  0
 15 20  2  0  0  0  0
 16 12  1  0  0  0  0
 17 16  2  0  0  0  0
 19 20  1  1  0  0  0
 19 10  1  0  0  0  0
 22 26  1  0  0  0  0
 23 28  1  0  0  0  0
 25 24  1  0  0  0  0
 27 21  1  6  0  0  0
 27 25  1  0  0  0  0
 27 30  1  0  0  0  0
 28 22  1  0  0  0  0
 29 24  1  6  0  0  0
 29 31  1  0  0  0  0
 30 23  1  6  0  0  0
 30 29  1  0  0  0  0
 31 22  2  0  0  0  0
M  END
>  <MODEL>
5

>  <REMARK>
 VINA RESULT:      -8.0      1.695      3.280
  Name = 
  2 active torsions:
  status: ('A' for Active; 'I' for Inactive)
    1  A    between atoms: C_9  and  C_23
    2  A    between atoms: N_15  and  C_23
                            x       y       z     vdW  Elec       q    Type
                         _______ _______ _______ _____ _____    ______ ____

>  <TORSDO>
F 2

$$$$
=
 OpenBabel11052413033D

 31 36  0  0  1  0  0  0  0  0999 V2000
  190.6430  176.5690  138.6470 C   0  0  0  0  0  0  0  0  0  0  0  0
  188.5910  176.9240  141.7700 C   0  0  2  0  0  3  0  0  0  0  0  0
  189.5660  177.4980  142.8200 C   0  0  2  0  0  3  0  0  0  0  0  0
  191.9920  177.9280  143.2450 C   0  0  0  0  0  3  0  0  0  0  0  0
  189.0670  177.1090  140.3480 C   0  0  0  0  0  0  0  0  0  0  0  0
  190.0110  177.4350  137.7520 C   0  0  0  0  0  3  0  0  0  0  0  0
  190.9850  176.9880  142.6560 C   0  0  0  0  0  2  0  0  0  0  0  0
  187.0020  178.7970  141.3120 N   0  0  0  0  0  0  0  0  0  0  0  0
  191.7920  175.8390  138.2370 N   0  0  0  0  0  1  0  0  0  0  0  0
  187.6730  176.7240  144.3790 C   0  0  0  0  0  2  0  0  0  0  0  0
  191.8740  178.6460  144.3700 C   0  0  0  0  0  3  0  0  0  0  0  0
  187.1180  178.6330  139.8620 C   0  0  0  0  0  2  0  0  0  0  0  0
  187.1590  177.4930  141.9930 C   0  0  2  0  0  3  0  0  0  0  0  0
  190.1580  176.4230  139.9090 N   0  0  0  0  0  0  0  0  0  0  0  0
  190.7210  178.7530  145.2960 C   0  0  0  0  0  3  0  0  0  0  0  0
  188.4070  177.9850  139.4730 C   0  0  0  0  0  0  0  0  0  0  0  0
  188.8800  178.1360  138.1690 C   0  0  0  0  0  3  0  0  0  0  0  0
  186.8090  177.6150  143.4950 C   0  0  0  0  0  2  0  0  0  0  0  0
  189.1540  177.0870  144.2360 C   0  0  2  0  0  3  0  0  0  0  0  0
  189.5440  178.1190  145.2430 C   0  0  0  0  0  3  0  0  0  0  0  0
  185.6940  179.4160  141.5910 C   0  0  0  0  0  2  0  0  0  0  0  0
  180.7800  179.2140  143.0360 C   0  0  0  0  0  0  0  0  0  0  0  0
  183.1810  178.3650  143.3570 C   0  0  0  0  0  2  0  0  0  0  0  0
  182.6230  178.6990  139.8120 C   0  0  0  0  0  2  0  0  0  0  0  0
  184.1280  178.4940  139.8520 C   0  0  0  0  0  2  0  0  0  0  0  0
  179.5010  179.7830  143.5420 C   0  0  0  0  0  1  0  0  0  0  0  0
  184.5020  178.4850  141.3380 C   0  0  2  0  0  3  0  0  0  0  0  0
  181.9020  178.9150  144.0260 C   0  0  0  0  0  2  0  0  0  0  0  0
  182.2410  178.4650  141.2450 C   0  0  1  0  0  3  0  0  0  0  0  0
  183.3330  178.9800  142.0430 N   0  0  1  0  0  0  0  0  0  0  0  0
  180.9530  179.0660  141.7100 C   0  0  0  0  0  3  0  0  0  0  0  0
  1 14  1  0  0  0  0
  2  5  1  6  0  0  0
  2 13  1  0  0  0  0
  2  3  1  0  0  0  0
  3  7  1  6  0  0  0
  3 19  1  0  0  0  0
  4 11  2  0  0  0  0
  6 17  1  0  0  0  0
  6  1  2  0  0  0  0
  7  4  1  0  0  0  0
  8 21  1  0  0  0  0
  8 13  1  0  0  0  0
  9  1  1  0  0  0  0
 11 15  1  0  0  0  0
 12  8  1  0  0  0  0
 13 18  1  1  0  0  0
 14  5  2  0  0  0  0
 16 12  1  0  0  0  0
 16  5  1  0  0  0  0
 17 16  2  0  0  0  0
 18 10  1  0  0  0  0
 19 10  1  6  0  0  0
 19 20  1  0  0  0  0
 20 15  2  0  0  0  0
 22 26  1  0  0  0  0
 22 28  1  0  0  0  0
 23 28  1  0  0  0  0
 24 25  1  0  0  0  0
 25 27  1  0  0  0  0
 27 21  1  6  0  0  0
 27 30  1  0  0  0  0
 29 24  1  6  0  0  0
 29 31  1  0  0  0  0
 29 30  1  0  0  0  0
 30 23  1  1  0  0  0
 31 22  2  0  0  0  0
M  END
>  <MODEL>
6

>  <REMARK>
 VINA RESULT:      -7.7      2.373      6.275
  Name = 
  2 active torsions:
  status: ('A' for Active; 'I' for Inactive)
    1  A    between atoms: C_9  and  C_23
    2  A    between atoms: N_15  and  C_23
                            x       y       z     vdW  Elec       q    Type
                         _______ _______ _______ _____ _____    ______ ____

>  <TORSDO>
F 2

$$$$
=
 OpenBabel11052413033D

 31 36  0  0  1  0  0  0  0  0999 V2000
  184.6100  179.0770  142.0390 C   0  0  0  0  0  0  0  0  0  0  0  0
  186.5300  178.7440  138.8300 C   0  0  2  0  0  3  0  0  0  0  0  0
  187.8640  178.0820  139.2350 C   0  0  2  0  0  3  0  0  0  0  0  0
  189.2630  177.4980  141.2230 C   0  0  0  0  0  3  0  0  0  0  0  0
  185.4410  178.5770  139.8640 C   0  0  0  0  0  0  0  0  0  0  0  0
  183.4860  178.2780  141.8210 C   0  0  0  0  0  3  0  0  0  0  0  0
  188.3510  178.5130  140.6050 C   0  0  0  0  0  2  0  0  0  0  0  0
  185.3360  176.9820  137.5210 N   0  0  0  0  0  0  0  0  0  0  0  0
  184.7720  179.7510  143.2800 N   0  0  0  0  0  1  0  0  0  0  0  0
  188.5000  178.9160  136.8870 C   0  0  0  0  0  2  0  0  0  0  0  0
  190.1880  176.7530  140.6030 C   0  0  0  0  0  3  0  0  0  0  0  0
  184.0860  177.1850  138.2570 C   0  0  0  0  0  2  0  0  0  0  0  0
  186.0870  178.2530  137.4210 C   0  0  2  0  0  3  0  0  0  0  0  0
  185.5490  179.2110  141.0640 N   0  0  0  0  0  0  0  0  0  0  0  0
  190.5240  176.6840  139.1610 C   0  0  0  0  0  3  0  0  0  0  0  0
  184.3220  177.7690  139.6110 C   0  0  0  0  0  0  0  0  0  0  0  0
  183.3400  177.6310  140.5940 C   0  0  0  0  0  3  0  0  0  0  0  0
  187.2860  178.1050  136.4540 C   0  0  0  0  0  2  0  0  0  0  0  0
  188.9860  178.4710  138.2690 C   0  0  2  0  0  3  0  0  0  0  0  0
  190.0060  177.3870  138.1480 C   0  0  0  0  0  3  0  0  0  0  0  0
  184.9930  176.4320  136.1970 C   0  0  0  0  0  2  0  0  0  0  0  0
  189.4710  173.9480  136.4140 C   0  0  0  0  0  0  0  0  0  0  0  0
  187.6630  175.0540  134.9680 C   0  0  0  0  0  2  0  0  0  0  0  0
  185.9830  173.2400  137.5890 C   0  0  0  0  0  2  0  0  0  0  0  0
  184.8370  174.0620  137.0230 C   0  0  0  0  0  2  0  0  0  0  0  0
  190.8830  173.7530  136.8440 C   0  0  0  0  0  1  0  0  0  0  0  0
  185.4720  174.9910  135.9840 C   0  0  2  0  0  3  0  0  0  0  0  0
  189.1700  174.9240  135.2810 C   0  0  0  0  0  2  0  0  0  0  0  0
  187.0860  173.5350  136.6150 C   0  0  1  0  0  3  0  0  0  0  0  0
  186.9050  174.9110  136.2060 N   0  0  1  0  0  0  0  0  0  0  0  0
  188.4870  173.3340  137.0960 C   0  0  0  0  0  3  0  0  0  0  0  0
  1  9  1  0  0  0  0
  2  3  1  0  0  0  0
  2  5  1  1  0  0  0
  3  7  1  1  0  0  0
  5 14  1  0  0  0  0
  6  1  1  0  0  0  0
  7  4  1  0  0  0  0
  8 12  1  0  0  0  0
 11  4  2  0  0  0  0
 12 16  1  0  0  0  0
 13 18  1  6  0  0  0
 13  8  1  0  0  0  0
 13  2  1  0  0  0  0
 14  1  2  0  0  0  0
 15 11  1  0  0  0  0
 16  5  2  0  0  0  0
 16 17  1  0  0  0  0
 17  6  2  0  0  0  0
 18 10  1  0  0  0  0
 19 10  1  6  0  0  0
 19  3  1  0  0  0  0
 20 19  1  0  0  0  0
 20 15  2  0  0  0  0
 21  8  1  0  0  0  0
 22 26  1  0  0  0  0
 22 31  2  0  0  0  0
 23 28  1  0  0  0  0
 25 24  1  0  0  0  0
 27 21  1  1  0  0  0
 27 30  1  0  0  0  0
 27 25  1  0  0  0  0
 28 22  1  0  0  0  0
 29 31  1  1  0  0  0
 29 24  1  0  0  0  0
 30 23  1  6  0  0  0
 30 29  1  0  0  0  0
M  END
>  <MODEL>
7

>  <REMARK>
 VINA RESULT:      -7.4      2.543      7.320
  Name = 
  2 active torsions:
  status: ('A' for Active; 'I' for Inactive)
    1  A    between atoms: C_9  and  C_23
    2  A    between atoms: N_15  and  C_23
                            x       y       z     vdW  Elec       q    Type
                         _______ _______ _______ _____ _____    ______ ____

>  <TORSDO>
F 2

$$$$
=
 OpenBabel11052413033D

 31 36  0  0  1  0  0  0  0  0999 V2000
  191.0640  175.9820  143.3850 C   0  0  0  0  0  0  0  0  0  0  0  0
  187.5230  176.9720  144.1410 C   0  0  2  0  0  3  0  0  0  0  0  0
  187.5960  177.6880  145.5060 C   0  0  2  0  0  3  0  0  0  0  0  0
  189.1130  178.0950  147.4510 C   0  0  0  0  0  3  0  0  0  0  0  0
  188.8590  176.8790  143.4420 C   0  0  0  0  0  0  0  0  0  0  0  0
  191.3510  176.6950  142.2190 C   0  0  0  0  0  3  0  0  0  0  0  0
  188.6470  177.1040  146.4300 C   0  0  0  0  0  2  0  0  0  0  0  0
  186.9800  178.7910  142.5160 N   0  0  0  0  0  0  0  0  0  0  0  0
  192.0560  175.1470  143.9680 N   0  0  0  0  0  1  0  0  0  0  0  0
  185.0600  177.2810  145.3770 C   0  0  0  0  0  2  0  0  0  0  0  0
  188.3730  179.0090  148.0940 C   0  0  0  0  0  3  0  0  0  0  0  0
  188.0240  178.3630  141.5820 C   0  0  0  0  0  2  0  0  0  0  0  0
  186.4310  177.6260  143.2440 C   0  0  2  0  0  3  0  0  0  0  0  0
  189.8360  176.0840  143.9600 N   0  0  0  0  0  0  0  0  0  0  0  0
  186.9330  179.3250  147.9390 C   0  0  0  0  0  3  0  0  0  0  0  0
  189.1140  177.6070  142.2690 C   0  0  0  0  0  0  0  0  0  0  0  0
  190.3630  177.5030  141.6560 C   0  0  0  0  0  3  0  0  0  0  0  0
  185.1770  178.0290  144.0560 C   0  0  0  0  0  2  0  0  0  0  0  0
  186.2750  177.5560  146.2680 C   0  0  2  0  0  3  0  0  0  0  0  0
  186.0280  178.7370  147.1480 C   0  0  0  0  0  3  0  0  0  0  0  0
  185.9460  179.4990  141.7390 C   0  0  0  0  0  2  0  0  0  0  0  0
  181.1390  179.3330  139.9700 C   0  0  0  0  0  0  0  0  0  0  0  0
  182.8760  178.4490  141.6380 C   0  0  0  0  0  2  0  0  0  0  0  0
  184.5390  178.8530  138.4660 C   0  0  0  0  0  2  0  0  0  0  0  0
  185.7250  178.6280  139.3900 C   0  0  0  0  0  2  0  0  0  0  0  0
  179.8100  179.9090  139.6280 C   0  0  0  0  0  1  0  0  0  0  0  0
  185.1400  178.5870  140.8060 C   0  0  2  0  0  3  0  0  0  0  0  0
  181.4500  179.0030  141.4260 C   0  0  0  0  0  2  0  0  0  0  0  0
  183.3790  178.5980  139.3850 C   0  0  1  0  0  3  0  0  0  0  0  0
  183.7810  179.0850  140.6870 N   0  0  1  0  0  0  0  0  0  0  0  0
  182.0680  179.2070  139.0050 C   0  0  0  0  0  3  0  0  0  0  0  0
  1 14  1  0  0  0  0
  1  9  1  0  0  0  0
  2  5  1  6  0  0  0
  2  3  1  0  0  0  0
  3 19  1  0  0  0  0
  3  7  1  1  0  0  0
  4 11  2  0  0  0  0
  5 14  2  0  0  0  0
  6  1  2  0  0  0  0
  7  4  1  0  0  0  0
  8 13  1  0  0  0  0
 12 16  1  0  0  0  0
 12  8  1  0  0  0  0
 13 18  1  1  0  0  0
 13  2  1  0  0  0  0
 15 11  1  0  0  0  0
 16  5  1  0  0  0  0
 17  6  1  0  0  0  0
 17 16  2  0  0  0  0
 18 10  1  0  0  0  0
 19 10  1  6  0  0  0
 19 20  1  0  0  0  0
 20 15  2  0  0  0  0
 21  8  1  0  0  0  0
 22 28  1  0  0  0  0
 24 25  1  0  0  0  0
 25 27  1  0  0  0  0
 26 22  1  0  0  0  0
 27 21  1  1  0  0  0
 28 23  1  0  0  0  0
 29 24  1  6  0  0  0
 29 30  1  0  0  0  0
 30 27  1  0  0  0  0
 30 23  1  1  0  0  0
 31 29  1  0  0  0  0
 31 22  2  0  0  0  0
M  END
>  <MODEL>
8

>  <REMARK>
 VINA RESULT:      -7.1      2.715      7.389
  Name = 
  2 active torsions:
  status: ('A' for Active; 'I' for Inactive)
    1  A    between atoms: C_9  and  C_23
    2  A    between atoms: N_15  and  C_23
                            x       y       z     vdW  Elec       q    Type
                         _______ _______ _______ _____ _____    ______ ____

>  <TORSDO>
F 2

$$$$
=
 OpenBabel11052413033D

 31 36  0  0  1  0  0  0  0  0999 V2000
  184.1250  179.1130  139.0650 C   0  0  0  0  0  0  0  0  0  0  0  0
  187.7210  178.1050  138.6930 C   0  0  2  0  0  3  0  0  0  0  0  0
  188.1360  177.5970  140.0900 C   0  0  2  0  0  3  0  0  0  0  0  0
  187.3920  177.5350  142.4760 C   0  0  0  0  0  3  0  0  0  0  0  0
  186.2250  178.1480  138.4920 C   0  0  0  0  0  0  0  0  0  0  0  0
  183.4610  178.2510  138.1910 C   0  0  0  0  0  3  0  0  0  0  0  0
  187.4620  178.3500  141.2210 C   0  0  0  0  0  2  0  0  0  0  0  0
  187.6920  176.0500  137.2710 N   0  0  0  0  0  0  0  0  0  0  0  0
  183.3860  180.0630  139.8230 N   0  0  0  0  0  1  0  0  0  0  0  0
  190.4640  177.8810  139.0360 C   0  0  0  0  0  2  0  0  0  0  0  0
  188.3220  176.6960  142.9530 C   0  0  0  0  0  3  0  0  0  0  0  0
  186.3830  176.3790  136.7020 C   0  0  0  0  0  2  0  0  0  0  0  0
  188.4430  177.2860  137.5830 C   0  0  2  0  0  3  0  0  0  0  0  0
  185.4780  179.0470  139.1900 N   0  0  0  0  0  0  0  0  0  0  0  0
  189.6230  176.3040  142.3610 C   0  0  0  0  0  3  0  0  0  0  0  0
  185.5890  177.2690  137.6020 C   0  0  0  0  0  0  0  0  0  0  0  0
  184.2030  177.3320  137.4490 C   0  0  0  0  0  3  0  0  0  0  0  0
  189.9060  176.9550  137.9630 C   0  0  0  0  0  2  0  0  0  0  0  0
  189.6370  177.7860  140.3210 C   0  0  2  0  0  3  0  0  0  0  0  0
  190.1900  176.7350  141.2290 C   0  0  0  0  0  3  0  0  0  0  0  0
  188.4010  175.1970  136.3010 C   0  0  0  0  0  2  0  0  0  0  0  0
  185.2420  171.2030  135.7170 C   0  0  0  0  0  0  0  0  0  0  0  0
  186.1620  173.0450  137.2480 C   0  0  0  0  0  2  0  0  0  0  0  0
  188.9320  171.7460  135.3440 C   0  0  0  0  0  2  0  0  0  0  0  0
  189.5570  172.9900  135.9540 C   0  0  0  0  0  2  0  0  0  0  0  0
  184.1290  170.4500  135.0780 C   0  0  0  0  0  1  0  0  0  0  0  0
  188.4130  173.7110  136.6770 C   0  0  2  0  0  3  0  0  0  0  0  0
  184.9120  172.3280  136.6920 C   0  0  0  0  0  2  0  0  0  0  0  0
  187.5990  171.7000  136.0320 C   0  0  1  0  0  3  0  0  0  0  0  0
  187.1920  173.0760  136.2150 N   0  0  1  0  0  0  0  0  0  0  0  0
  186.5090  170.9400  135.3470 C   0  0  0  0  0  3  0  0  0  0  0  0
  1 14  1  0  0  0  0
  1  9  1  0  0  0  0
  2  5  1  6  0  0  0
  2  3  1  0  0  0  0
  3 19  1  0  0  0  0
  3  7  1  1  0  0  0
  4 11  2  0  0  0  0
  5 14  2  0  0  0  0
  6  1  2  0  0  0  0
  7  4  1  0  0  0  0
  8 13  1  0  0  0  0
 12  8  1  0  0  0  0
 12 16  1  0  0  0  0
 13 18  1  1  0  0  0
 13  2  1  0  0  0  0
 15 11  1  0  0  0  0
 16  5  1  0  0  0  0
 17 16  2  0  0  0  0
 17  6  1  0  0  0  0
 18 10  1  0  0  0  0
 19 10  1  6  0  0  0
 19 20  1  0  0  0  0
 20 15  2  0  0  0  0
 21  8  1  0  0  0  0
 22 28  1  0  0  0  0
 24 25  1  0  0  0  0
 25 27  1  0  0  0  0
 26 22  1  0  0  0  0
 27 21  1  6  0  0  0
 28 23  1  0  0  0  0
 29 24  1  6  0  0  0
 29 30  1  0  0  0  0
 30 27  1  0  0  0  0
 30 23  1  1  0  0  0
 31 22  2  0  0  0  0
 31 29  1  0  0  0  0
M  END
>  <MODEL>
9

>  <REMARK>
 VINA RESULT:      -6.8      2.689      8.158
  Name = 
  2 active torsions:
  status: ('A' for Active; 'I' for Inactive)
    1  A    between atoms: C_9  and  C_23
    2  A    between atoms: N_15  and  C_23
                            x       y       z     vdW  Elec       q    Type
                         _______ _______ _______ _____ _____    ______ ____

>  <TORSDO>
F 2

$$$$
