=
 OpenBabel11052413433D

 27 30  0  0  1  0  0  0  0  0999 V2000
  180.6790  176.8990  140.5330 C   0  0  2  0  0  3  0  0  0  0  0  0
  180.3400  179.3600  140.0520 C   0  0  1  0  0  3  0  0  0  0  0  0
  182.5510  179.4010  138.7520 C   0  0  0  0  0  2  0  0  0  0  0  0
  179.4290  182.8290  137.7480 C   0  0  0  0  0  3  0  0  0  0  0  0
  179.2620  183.9660  135.6280 O   0  0  0  0  0  1  0  0  0  0  0  0
  180.1830  180.6990  140.7800 C   0  0  0  0  0  2  0  0  0  0  0  0
  180.8360  180.7500  136.5150 C   0  0  0  0  0  3  0  0  0  0  0  0
  184.4070  178.1720  137.9270 O   0  0  0  0  0  1  0  0  0  0  0  0
  180.4010  181.8440  135.7620 C   0  0  0  0  0  3  0  0  0  0  0  0
  183.4860  175.7840  138.7120 F   0  0  0  0  0  0  0  0  0  0  0  0
  181.0320  179.4900  138.6770 C   0  0  2  0  0  3  0  0  0  0  0  0
  180.9330  178.2990  140.8930 N   0  0  0  0  0  0  0  0  0  0  0  0
  179.6980  182.8820  136.3780 C   0  0  0  0  0  0  0  0  0  0  0  0
  179.8730  181.7430  138.5090 C   0  0  0  0  0  0  0  0  0  0  0  0
  180.5780  180.6910  137.8900 C   0  0  0  0  0  0  0  0  0  0  0  0
  183.0400  178.0700  138.1840 C   0  0  1  0  0  3  0  0  0  0  0  0
  179.5650  181.6850  139.9040 N   0  0  0  0  0  2  0  0  0  0  0  0
  182.7820  176.8960  139.1370 C   0  0  1  0  0  3  0  0  0  0  0  0
  181.2990  176.5430  139.1800 C   0  0  0  0  0  2  0  0  0  0  0  0
  183.7930  178.9990  143.9740 C   0  0  0  0  0  3  0  0  0  0  0  0
  181.9110  178.5530  141.9290 C   0  0  0  0  0  0  0  0  0  0  0  0
  183.2890  178.5730  141.6460 C   0  0  0  0  0  3  0  0  0  0  0  0
  184.2230  178.7970  142.6600 C   0  0  0  0  0  3  0  0  0  0  0  0
  182.4300  178.9750  144.2730 C   0  0  0  0  0  3  0  0  0  0  0  0
  181.4950  178.7510  143.2570 C   0  0  0  0  0  3  0  0  0  0  0  0
  179.1880  176.5990  140.5440 C   0  0  0  0  0  2  0  0  0  0  0  0
  178.9310  175.4920  141.3540 O   0  0  0  0  0  1  0  0  0  0  0  0
  1 26  1  6  0  0  0
  1 12  1  0  0  0  0
  2  6  1  1  0  0  0
  2 12  1  0  0  0  0
  4 14  1  0  0  0  0
  5 13  1  0  0  0  0
  7 15  1  0  0  0  0
  9 13  1  0  0  0  0
  9  7  2  0  0  0  0
 11  3  1  1  0  0  0
 11  2  1  0  0  0  0
 12 21  1  0  0  0  0
 13  4  2  0  0  0  0
 14 17  1  0  0  0  0
 15 14  2  0  0  0  0
 15 11  1  0  0  0  0
 16  8  1  1  0  0  0
 16  3  1  0  0  0  0
 16 18  1  0  0  0  0
 17  6  1  0  0  0  0
 18 10  1  6  0  0  0
 18 19  1  0  0  0  0
 19  1  1  0  0  0  0
 20 24  1  0  0  0  0
 21 25  1  0  0  0  0
 22 21  2  0  0  0  0
 22 23  1  0  0  0  0
 23 20  2  0  0  0  0
 25 24  2  0  0  0  0
 26 27  1  0  0  0  0
M  END
>  <MODEL>
1

>  <REMARK>
 VINA RESULT:      -6.4      0.000      0.000
  Name = 
  2 active torsions:
  status: ('A' for Active; 'I' for Inactive)
    1  A    between atoms: C_1  and  C_18
    2  A    between atoms: C_9  and  N_15
                            x       y       z     vdW  Elec       q    Type
                         _______ _______ _______ _____ _____    ______ ____

>  <TORSDO>
F 2

$$$$
=
 OpenBabel11052413433D

 27 30  0  0  1  0  0  0  0  0999 V2000
  181.1330  177.2010  138.8200 C   0  0  2  0  0  3  0  0  0  0  0  0
  183.4280  178.1130  139.3730 C   0  0  1  0  0  3  0  0  0  0  0  0
  182.4430  179.3360  141.4010 C   0  0  0  0  0  2  0  0  0  0  0  0
  187.1080  178.4800  141.4930 C   0  0  0  0  0  3  0  0  0  0  0  0
  188.4220  178.2050  143.4970 O   0  0  0  0  0  1  0  0  0  0  0  0
  184.5330  178.9870  138.7720 C   0  0  0  0  0  2  0  0  0  0  0  0
  184.7810  177.9640  142.9560 C   0  0  0  0  0  3  0  0  0  0  0  0
  180.5290  179.7710  142.7380 O   0  0  0  0  0  1  0  0  0  0  0  0
  186.0250  177.9580  143.5940 C   0  0  0  0  0  3  0  0  0  0  0  0
  178.9320  178.0580  141.4400 F   0  0  0  0  0  0  0  0  0  0  0  0
  183.3440  178.2080  140.9120 C   0  0  2  0  0  3  0  0  0  0  0  0
  182.1160  178.2870  138.7160 N   0  0  0  0  0  0  0  0  0  0  0  0
  187.1870  178.2150  142.8630 C   0  0  0  0  0  0  0  0  0  0  0  0
  185.8660  178.4990  140.8520 C   0  0  0  0  0  0  0  0  0  0  0  0
  184.6910  178.2340  141.5850 C   0  0  0  0  0  0  0  0  0  0  0  0
  181.1460  178.7750  141.9800 C   0  0  1  0  0  3  0  0  0  0  0  0
  185.8010  178.7400  139.4450 N   0  0  0  0  0  2  0  0  0  0  0  0
  180.1820  178.2850  140.8920 C   0  0  1  0  0  3  0  0  0  0  0  0
  180.6800  176.9870  140.2660 C   0  0  0  0  0  2  0  0  0  0  0  0
  180.7350  181.9550  137.0430 C   0  0  0  0  0  3  0  0  0  0  0  0
  181.6660  179.5410  138.1490 C   0  0  0  0  0  0  0  0  0  0  0  0
  181.8040  180.7520  138.8500 C   0  0  0  0  0  3  0  0  0  0  0  0
  181.3440  181.9510  138.3000 C   0  0  0  0  0  3  0  0  0  0  0  0
  180.5840  180.7600  136.3380 C   0  0  0  0  0  3  0  0  0  0  0  0
  181.0440  179.5600  136.8890 C   0  0  0  0  0  3  0  0  0  0  0  0
  181.6830  175.9140  138.2250 C   0  0  0  0  0  2  0  0  0  0  0  0
  180.9640  174.8210  138.7100 O   0  0  0  0  0  1  0  0  0  0  0  0
  1 26  1  1  0  0  0
  1 19  1  0  0  0  0
  2  6  1  6  0  0  0
  2 11  1  0  0  0  0
  3 16  1  0  0  0  0
  4 13  1  0  0  0  0
  6 17  1  0  0  0  0
  7  9  1  0  0  0  0
 11  3  1  6  0  0  0
 11 15  1  0  0  0  0
 12  1  1  0  0  0  0
 12  2  1  0  0  0  0
 13  5  1  0  0  0  0
 13  9  2  0  0  0  0
 14  4  2  0  0  0  0
 14 15  1  0  0  0  0
 15  7  2  0  0  0  0
 16  8  1  6  0  0  0
 17 14  1  0  0  0  0
 18 10  1  1  0  0  0
 18 16  1  0  0  0  0
 19 18  1  0  0  0  0
 20 23  1  0  0  0  0
 21 12  1  0  0  0  0
 21 22  1  0  0  0  0
 23 22  2  0  0  0  0
 24 25  1  0  0  0  0
 24 20  2  0  0  0  0
 25 21  2  0  0  0  0
 26 27  1  0  0  0  0
M  END
>  <MODEL>
2

>  <REMARK>
 VINA RESULT:      -6.3      2.762      6.498
  Name = 
  2 active torsions:
  status: ('A' for Active; 'I' for Inactive)
    1  A    between atoms: C_1  and  C_18
    2  A    between atoms: C_9  and  N_15
                            x       y       z     vdW  Elec       q    Type
                         _______ _______ _______ _____ _____    ______ ____

>  <TORSDO>
F 2

$$$$
=
 OpenBabel11052413433D

 27 30  0  0  1  0  0  0  0  0999 V2000
  180.9810  179.5820  139.8990 C   0  0  2  0  0  3  0  0  0  0  0  0
  183.3020  178.8330  139.2220 C   0  0  1  0  0  3  0  0  0  0  0  0
  182.6020  176.3890  139.5630 C   0  0  0  0  0  2  0  0  0  0  0  0
  186.3230  177.1620  136.7230 C   0  0  0  0  0  3  0  0  0  0  0  0
  187.0000  175.7210  134.9110 O   0  0  0  0  0  1  0  0  0  0  0  0
  184.7660  178.9800  139.6490 C   0  0  0  0  0  2  0  0  0  0  0  0
  183.7830  175.9910  136.6960 C   0  0  0  0  0  3  0  0  0  0  0  0
  180.8650  174.8640  140.1030 O   0  0  0  0  0  1  0  0  0  0  0  0
  184.7620  175.5610  135.7960 C   0  0  0  0  0  3  0  0  0  0  0  0
  178.9430  176.7240  140.2390 F   0  0  0  0  0  0  0  0  0  0  0  0
  182.9920  177.4720  138.5630 C   0  0  2  0  0  3  0  0  0  0  0  0
  182.3400  179.1860  140.2880 N   0  0  0  0  0  0  0  0  0  0  0  0
  186.0290  176.1460  135.8090 C   0  0  0  0  0  0  0  0  0  0  0  0
  185.3520  177.5880  137.6340 C   0  0  0  0  0  0  0  0  0  0  0  0
  184.0690  177.0040  137.6210 C   0  0  0  0  0  0  0  0  0  0  0  0
  181.1100  176.0810  139.4660 C   0  0  1  0  0  3  0  0  0  0  0  0
  185.6540  178.6490  138.5430 N   0  0  0  0  0  2  0  0  0  0  0  0
  180.2430  177.1760  140.0980 C   0  0  1  0  0  3  0  0  0  0  0  0
  180.2270  178.4300  139.2300 C   0  0  0  0  0  2  0  0  0  0  0  0
  183.1280  178.5980  144.4350 C   0  0  0  0  0  3  0  0  0  0  0  0
  182.5930  178.9710  141.6970 C   0  0  0  0  0  0  0  0  0  0  0  0
  181.5660  179.0800  142.6500 C   0  0  0  0  0  3  0  0  0  0  0  0
  181.8300  178.8920  144.0090 C   0  0  0  0  0  3  0  0  0  0  0  0
  184.1600  178.4930  143.5010 C   0  0  0  0  0  3  0  0  0  0  0  0
  183.8950  178.6810  142.1410 C   0  0  0  0  0  3  0  0  0  0  0  0
  181.0110  180.8080  138.9980 C   0  0  0  0  0  2  0  0  0  0  0  0
  180.0590  181.7340  139.4250 O   0  0  0  0  0  1  0  0  0  0  0  0
  1 26  1  6  0  0  0
  1 12  1  0  0  0  0
  2  6  1  1  0  0  0
  2 12  1  0  0  0  0
  4 14  1  0  0  0  0
  5 13  1  0  0  0  0
  7 15  1  0  0  0  0
  9 13  1  0  0  0  0
  9  7  2  0  0  0  0
 11  2  1  0  0  0  0
 11  3  1  1  0  0  0
 12 21  1  0  0  0  0
 13  4  2  0  0  0  0
 14 17  1  0  0  0  0
 15 14  2  0  0  0  0
 15 11  1  0  0  0  0
 16  3  1  0  0  0  0
 16 18  1  0  0  0  0
 16  8  1  1  0  0  0
 17  6  1  0  0  0  0
 18 10  1  6  0  0  0
 19  1  1  0  0  0  0
 19 18  1  0  0  0  0
 21 25  2  0  0  0  0
 21 22  1  0  0  0  0
 22 23  2  0  0  0  0
 23 20  1  0  0  0  0
 24 20  2  0  0  0  0
 25 24  1  0  0  0  0
 26 27  1  0  0  0  0
M  END
>  <MODEL>
3

>  <REMARK>
 VINA RESULT:      -6.3      2.585      5.219
  Name = 
  2 active torsions:
  status: ('A' for Active; 'I' for Inactive)
    1  A    between atoms: C_1  and  C_18
    2  A    between atoms: C_9  and  N_15
                            x       y       z     vdW  Elec       q    Type
                         _______ _______ _______ _____ _____    ______ ____

>  <TORSDO>
F 2

$$$$
=
 OpenBabel11052413433D

 27 30  0  0  1  0  0  0  0  0999 V2000
  180.8790  179.5520  138.8430 C   0  0  2  0  0  3  0  0  0  0  0  0
  181.3400  178.9060  141.2460 C   0  0  1  0  0  3  0  0  0  0  0  0
  183.3280  177.4830  140.4710 C   0  0  0  0  0  2  0  0  0  0  0  0
  183.3600  178.8990  144.9990 C   0  0  0  0  0  3  0  0  0  0  0  0
  185.3460  179.2440  146.3240 O   0  0  0  0  0  1  0  0  0  0  0  0
  180.6740  178.2000  142.4320 C   0  0  0  0  0  2  0  0  0  0  0  0
  184.8960  179.0610  142.6670 C   0  0  0  0  0  3  0  0  0  0  0  0
  184.6840  176.7580  138.6610 O   0  0  0  0  0  1  0  0  0  0  0  0
  185.5060  179.1910  143.9170 C   0  0  0  0  0  3  0  0  0  0  0  0
  183.5020  178.3190  136.8340 F   0  0  0  0  0  0  0  0  0  0  0  0
  182.8740  178.7330  141.2150 C   0  0  2  0  0  3  0  0  0  0  0  0
  180.7030  178.6010  139.9470 N   0  0  0  0  0  0  0  0  0  0  0  0
  184.7390  179.1110  145.0820 C   0  0  0  0  0  0  0  0  0  0  0  0
  182.7460  178.7560  143.7510 C   0  0  0  0  0  0  0  0  0  0  0  0
  183.5160  178.8420  142.5730 C   0  0  0  0  0  0  0  0  0  0  0  0
  183.9610  177.8550  139.1320 C   0  0  1  0  0  3  0  0  0  0  0  0
  181.3310  178.5710  143.6780 N   0  0  0  0  0  2  0  0  0  0  0  0
  182.9180  178.2710  138.0870 C   0  0  1  0  0  3  0  0  0  0  0  0
  182.3430  179.6470  138.4070 C   0  0  0  0  0  2  0  0  0  0  0  0
  178.9310  174.8450  138.9890 C   0  0  0  0  0  3  0  0  0  0  0  0
  180.0880  177.3280  139.6370 C   0  0  0  0  0  0  0  0  0  0  0  0
  180.0380  176.2890  140.5840 C   0  0  0  0  0  3  0  0  0  0  0  0
  179.4610  175.0580  140.2640 C   0  0  0  0  0  3  0  0  0  0  0  0
  178.9790  175.8640  138.0360 C   0  0  0  0  0  3  0  0  0  0  0  0
  179.5570  177.0960  138.3570 C   0  0  0  0  0  3  0  0  0  0  0  0
  180.3340  180.9220  139.2170 C   0  0  0  0  0  2  0  0  0  0  0  0
  181.1340  181.9210  138.6610 O   0  0  0  0  0  1  0  0  0  0  0  0
  1 26  1  1  0  0  0
  1 12  1  0  0  0  0
  2  6  1  1  0  0  0
  4 13  1  0  0  0  0
  6 17  1  0  0  0  0
  7  9  1  0  0  0  0
  9 13  2  0  0  0  0
 11  3  1  1  0  0  0
 11  2  1  0  0  0  0
 11 15  1  0  0  0  0
 12  2  1  0  0  0  0
 13  5  1  0  0  0  0
 14  4  2  0  0  0  0
 15  7  2  0  0  0  0
 15 14  1  0  0  0  0
 16  8  1  6  0  0  0
 16  3  1  0  0  0  0
 17 14  1  0  0  0  0
 18 10  1  6  0  0  0
 18 19  1  0  0  0  0
 18 16  1  0  0  0  0
 19  1  1  0  0  0  0
 20 23  1  0  0  0  0
 21 12  1  0  0  0  0
 21 22  1  0  0  0  0
 23 22  2  0  0  0  0
 24 25  1  0  0  0  0
 24 20  2  0  0  0  0
 25 21  2  0  0  0  0
 27 26  1  0  0  0  0
M  END
>  <MODEL>
4

>  <REMARK>
 VINA RESULT:      -5.8      2.348      6.103
  Name = 
  2 active torsions:
  status: ('A' for Active; 'I' for Inactive)
    1  A    between atoms: C_1  and  C_18
    2  A    between atoms: C_9  and  N_15
                            x       y       z     vdW  Elec       q    Type
                         _______ _______ _______ _____ _____    ______ ____

>  <TORSDO>
F 2

$$$$
=
 OpenBabel11052413433D

 27 30  0  0  1  0  0  0  0  0999 V2000
  180.6640  179.4130  138.6510 C   0  0  2  0  0  3  0  0  0  0  0  0
  183.1450  178.9290  138.7760 C   0  0  1  0  0  3  0  0  0  0  0  0
  182.6330  176.4340  139.0810 C   0  0  0  0  0  2  0  0  0  0  0  0
  186.9510  177.5360  137.4570 C   0  0  0  0  0  3  0  0  0  0  0  0
  188.3050  176.1110  136.0590 O   0  0  0  0  0  1  0  0  0  0  0  0
  184.3790  179.2740  139.6150 C   0  0  0  0  0  2  0  0  0  0  0  0
  184.6830  176.0600  136.7520 C   0  0  0  0  0  3  0  0  0  0  0  0
  180.9820  174.7310  139.1870 O   0  0  0  0  0  1  0  0  0  0  0  0
  185.9320  175.7150  136.2300 C   0  0  0  0  0  3  0  0  0  0  0  0
  178.9310  176.3430  138.5830 F   0  0  0  0  0  0  0  0  0  0  0  0
  183.1990  177.5120  138.1650 C   0  0  2  0  0  3  0  0  0  0  0  0
  181.8680  179.2060  139.4660 N   0  0  0  0  0  0  0  0  0  0  0  0
  187.0650  176.4530  136.5810 C   0  0  0  0  0  0  0  0  0  0  0  0
  185.7060  177.8780  137.9920 C   0  0  0  0  0  0  0  0  0  0  0  0
  184.5590  177.1400  137.6360 C   0  0  0  0  0  0  0  0  0  0  0  0
  181.2850  175.9400  138.5590 C   0  0  1  0  0  3  0  0  0  0  0  0
  185.5970  179.0070  138.8620 N   0  0  0  0  0  2  0  0  0  0  0  0
  180.1550  176.9460  138.8080 C   0  0  1  0  0  3  0  0  0  0  0  0
  180.2810  178.1490  137.8790 C   0  0  0  0  0  2  0  0  0  0  0  0
  181.3890  178.8940  143.6890 C   0  0  0  0  0  3  0  0  0  0  0  0
  181.6900  179.0860  140.8980 C   0  0  0  0  0  0  0  0  0  0  0  0
  180.4500  179.3510  141.5060 C   0  0  0  0  0  3  0  0  0  0  0  0
  180.3000  179.2530  142.8920 C   0  0  0  0  0  3  0  0  0  0  0  0
  182.6280  178.6340  143.1010 C   0  0  0  0  0  3  0  0  0  0  0  0
  182.7780  178.7330  141.7140 C   0  0  0  0  0  3  0  0  0  0  0  0
  180.8450  180.5930  137.7080 C   0  0  0  0  0  2  0  0  0  0  0  0
  180.4500  181.7720  138.3390 O   0  0  0  0  0  1  0  0  0  0  0  0
  1 26  1  6  0  0  0
  1 12  1  0  0  0  0
  2 12  1  0  0  0  0
  2  6  1  1  0  0  0
  4 14  1  0  0  0  0
  5 13  1  0  0  0  0
  7 15  1  0  0  0  0
  9 13  1  0  0  0  0
  9  7  2  0  0  0  0
 11  2  1  0  0  0  0
 11  3  1  1  0  0  0
 12 21  1  0  0  0  0
 13  4  2  0  0  0  0
 14 17  1  0  0  0  0
 15 14  2  0  0  0  0
 15 11  1  0  0  0  0
 16 18  1  0  0  0  0
 16  3  1  0  0  0  0
 16  8  1  1  0  0  0
 17  6  1  0  0  0  0
 18 10  1  6  0  0  0
 19  1  1  0  0  0  0
 19 18  1  0  0  0  0
 21 22  2  0  0  0  0
 21 25  1  0  0  0  0
 22 23  1  0  0  0  0
 23 20  2  0  0  0  0
 24 20  1  0  0  0  0
 25 24  2  0  0  0  0
 26 27  1  0  0  0  0
M  END
>  <MODEL>
5

>  <REMARK>
 VINA RESULT:      -5.6      2.652      5.425
  Name = 
  2 active torsions:
  status: ('A' for Active; 'I' for Inactive)
    1  A    between atoms: C_1  and  C_18
    2  A    between atoms: C_9  and  N_15
                            x       y       z     vdW  Elec       q    Type
                         _______ _______ _______ _____ _____    ______ ____

>  <TORSDO>
F 2

$$$$
=
 OpenBabel11052413433D

 27 30  0  0  1  0  0  0  0  0999 V2000
  183.4160  177.6760  139.1970 C   0  0  2  0  0  3  0  0  0  0  0  0
  182.0040  178.8560  137.4590 C   0  0  1  0  0  3  0  0  0  0  0  0
  180.4510  179.7100  139.3130 C   0  0  0  0  0  2  0  0  0  0  0  0
  180.4300  182.1350  135.2360 C   0  0  0  0  0  3  0  0  0  0  0  0
  179.9020  184.4790  135.0270 O   0  0  0  0  0  1  0  0  0  0  0  0
  181.1570  178.5570  136.2190 C   0  0  0  0  0  2  0  0  0  0  0  0
  180.9080  182.4930  137.9680 C   0  0  0  0  0  3  0  0  0  0  0  0
  179.9960  179.8330  141.6400 O   0  0  0  0  0  1  0  0  0  0  0  0
  180.5210  183.5780  137.1770 C   0  0  0  0  0  3  0  0  0  0  0  0
  182.2530  178.6060  142.3950 F   0  0  0  0  0  0  0  0  0  0  0  0
  181.4980  180.0710  138.2660 C   0  0  2  0  0  3  0  0  0  0  0  0
  182.2500  177.6690  138.3050 N   0  0  0  0  0  0  0  0  0  0  0  0
  180.2830  183.3990  135.8130 C   0  0  0  0  0  0  0  0  0  0  0  0
  180.8050  181.0430  136.0250 C   0  0  0  0  0  0  0  0  0  0  0  0
  181.0520  181.2210  137.4020 C   0  0  0  0  0  0  0  0  0  0  0  0
  181.0430  179.8020  140.7180 C   0  0  1  0  0  3  0  0  0  0  0  0
  180.9830  179.7610  135.4180 N   0  0  0  0  0  2  0  0  0  0  0  0
  181.9760  178.6280  141.0400 C   0  0  1  0  0  3  0  0  0  0  0  0
  183.2920  178.7520  140.2780 C   0  0  0  0  0  2  0  0  0  0  0  0
  179.5020  174.4460  138.7790 C   0  0  0  0  0  3  0  0  0  0  0  0
  181.3020  176.5850  138.4560 C   0  0  0  0  0  0  0  0  0  0  0  0
  180.0810  176.7690  139.1300 C   0  0  0  0  0  3  0  0  0  0  0  0
  179.1860  175.7080  139.2880 C   0  0  0  0  0  3  0  0  0  0  0  0
  180.7130  174.2460  138.1140 C   0  0  0  0  0  3  0  0  0  0  0  0
  181.6080  175.3080  137.9560 C   0  0  0  0  0  3  0  0  0  0  0  0
  184.7030  177.8470  138.4050 C   0  0  0  0  0  2  0  0  0  0  0  0
  185.3380  179.0320  138.7790 O   0  0  0  0  0  1  0  0  0  0  0  0
  1 26  1  6  0  0  0
  1 19  1  0  0  0  0
  2  6  1  6  0  0  0
  2 11  1  0  0  0  0
  2 12  1  0  0  0  0
  3 16  1  0  0  0  0
  4 13  2  0  0  0  0
  4 14  1  0  0  0  0
  5 13  1  0  0  0  0
  9  7  2  0  0  0  0
 11  3  1  6  0  0  0
 12 21  1  0  0  0  0
 12  1  1  0  0  0  0
 13  9  1  0  0  0  0
 14 15  2  0  0  0  0
 15  7  1  0  0  0  0
 15 11  1  0  0  0  0
 16 18  1  0  0  0  0
 16  8  1  1  0  0  0
 17 14  1  0  0  0  0
 17  6  1  0  0  0  0
 18 10  1  1  0  0  0
 19 18  1  0  0  0  0
 20 23  1  0  0  0  0
 21 22  1  0  0  0  0
 22 23  2  0  0  0  0
 24 20  2  0  0  0  0
 25 24  1  0  0  0  0
 25 21  2  0  0  0  0
 26 27  1  0  0  0  0
M  END
>  <MODEL>
6

>  <REMARK>
 VINA RESULT:      -5.5      2.253      4.525
  Name = 
  2 active torsions:
  status: ('A' for Active; 'I' for Inactive)
    1  A    between atoms: C_1  and  C_18
    2  A    between atoms: C_9  and  N_15
                            x       y       z     vdW  Elec       q    Type
                         _______ _______ _______ _____ _____    ______ ____

>  <TORSDO>
F 2

$$$$
=
 OpenBabel11052413433D

 27 30  0  0  1  0  0  0  0  0999 V2000
  181.6600  177.0500  139.1450 C   0  0  2  0  0  3  0  0  0  0  0  0
  183.2130  177.1950  137.1520 C   0  0  1  0  0  3  0  0  0  0  0  0
  184.8160  178.6580  138.5200 C   0  0  0  0  0  2  0  0  0  0  0  0
  186.6670  176.3840  134.7910 C   0  0  0  0  0  3  0  0  0  0  0  0
  188.9730  175.7030  134.5940 O   0  0  0  0  0  1  0  0  0  0  0  0
  183.2350  177.6820  135.7000 C   0  0  0  0  0  2  0  0  0  0  0  0
  186.9790  176.6160  137.5600 C   0  0  0  0  0  3  0  0  0  0  0  0
  185.3100  179.6640  140.6120 O   0  0  0  0  0  1  0  0  0  0  0  0
  188.0580  176.2190  136.7650 C   0  0  0  0  0  3  0  0  0  0  0  0
  183.2570  178.5420  141.9140 F   0  0  0  0  0  0  0  0  0  0  0  0
  184.5830  177.3060  137.8540 C   0  0  2  0  0  3  0  0  0  0  0  0
  182.1120  177.7740  137.9510 N   0  0  0  0  0  0  0  0  0  0  0  0
  187.9010  176.1020  135.3820 C   0  0  0  0  0  0  0  0  0  0  0  0
  185.5880  176.7930  135.5800 C   0  0  0  0  0  0  0  0  0  0  0  0
  185.7400  176.9070  136.9770 C   0  0  0  0  0  0  0  0  0  0  0  0
  184.7380  178.5280  140.0400 C   0  0  1  0  0  3  0  0  0  0  0  0
  184.3220  177.0480  134.9670 N   0  0  0  0  0  2  0  0  0  0  0  0
  183.2980  178.3690  140.5420 C   0  0  1  0  0  3  0  0  0  0  0  0
  182.7550  176.9820  140.2120 C   0  0  0  0  0  2  0  0  0  0  0  0
  180.5170  181.6800  137.3510 C   0  0  0  0  0  3  0  0  0  0  0  0
  181.5890  179.1080  137.7430 C   0  0  0  0  0  0  0  0  0  0  0  0
  182.0610  180.2030  138.4870 C   0  0  0  0  0  3  0  0  0  0  0  0
  181.5310  181.4810  138.2910 C   0  0  0  0  0  3  0  0  0  0  0  0
  180.0330  180.6010  136.6090 C   0  0  0  0  0  3  0  0  0  0  0  0
  180.5640  179.3230  136.8060 C   0  0  0  0  0  3  0  0  0  0  0  0
  181.1680  175.6570  138.7810 C   0  0  0  0  0  2  0  0  0  0  0  0
  180.5100  175.0850  139.8700 O   0  0  0  0  0  1  0  0  0  0  0  0
  1 26  1  6  0  0  0
  1 19  1  0  0  0  0
  2  6  1  6  0  0  0
  2 11  1  0  0  0  0
  2 12  1  0  0  0  0
  3 16  1  0  0  0  0
  4 13  2  0  0  0  0
  4 14  1  0  0  0  0
  5 13  1  0  0  0  0
  9  7  2  0  0  0  0
 11  3  1  6  0  0  0
 12  1  1  0  0  0  0
 13  9  1  0  0  0  0
 14 15  2  0  0  0  0
 15  7  1  0  0  0  0
 15 11  1  0  0  0  0
 16 18  1  0  0  0  0
 16  8  1  1  0  0  0
 17 14  1  0  0  0  0
 17  6  1  0  0  0  0
 18 10  1  1  0  0  0
 19 18  1  0  0  0  0
 20 23  1  0  0  0  0
 21 12  1  0  0  0  0
 21 22  1  0  0  0  0
 23 22  2  0  0  0  0
 24 25  1  0  0  0  0
 24 20  2  0  0  0  0
 25 21  2  0  0  0  0
 26 27  1  0  0  0  0
M  END
>  <MODEL>
7

>  <REMARK>
 VINA RESULT:      -5.3      3.320      6.380
  Name = 
  2 active torsions:
  status: ('A' for Active; 'I' for Inactive)
    1  A    between atoms: C_1  and  C_18
    2  A    between atoms: C_9  and  N_15
                            x       y       z     vdW  Elec       q    Type
                         _______ _______ _______ _____ _____    ______ ____

>  <TORSDO>
F 2

$$$$
=
 OpenBabel11052413433D

 27 30  0  0  1  0  0  0  0  0999 V2000
  181.5640  178.6880  140.7080 C   0  0  2  0  0  3  0  0  0  0  0  0
  181.2420  177.1030  138.7610 C   0  0  1  0  0  3  0  0  0  0  0  0
  183.6180  177.6310  137.9510 C   0  0  0  0  0  2  0  0  0  0  0  0
  181.7220  173.5430  136.4670 C   0  0  0  0  0  3  0  0  0  0  0  0
  182.9800  171.5730  135.8720 O   0  0  0  0  0  1  0  0  0  0  0  0
  180.3470  176.9000  137.5340 C   0  0  0  0  0  2  0  0  0  0  0  0
  183.9320  174.5220  137.8730 C   0  0  0  0  0  3  0  0  0  0  0  0
  185.6520  178.7900  138.3430 O   0  0  0  0  0  1  0  0  0  0  0  0
  184.0080  173.2890  137.2190 C   0  0  0  0  0  3  0  0  0  0  0  0
  184.9270  179.7500  140.7360 F   0  0  0  0  0  0  0  0  0  0  0  0
  182.6840  176.5900  138.5570 C   0  0  2  0  0  3  0  0  0  0  0  0
  181.1950  178.4780  139.3020 N   0  0  0  0  0  0  0  0  0  0  0  0
  182.9040  172.8000  136.5180 C   0  0  0  0  0  0  0  0  0  0  0  0
  181.6440  174.7830  137.1090 C   0  0  0  0  0  0  0  0  0  0  0  0
  182.7540  175.2770  137.8230 C   0  0  0  0  0  0  0  0  0  0  0  0
  184.6040  178.1420  138.9980 C   0  0  1  0  0  3  0  0  0  0  0  0
  180.4190  175.5190  137.0760 N   0  0  0  0  0  2  0  0  0  0  0  0
  183.9510  179.1040  139.9980 C   0  0  1  0  0  3  0  0  0  0  0  0
  183.0360  178.3530  140.9600 C   0  0  0  0  0  2  0  0  0  0  0  0
  180.6770  181.9670  136.9100 C   0  0  0  0  0  3  0  0  0  0  0  0
  181.0020  179.6540  138.4810 C   0  0  0  0  0  0  0  0  0  0  0  0
  180.9700  179.5700  137.0780 C   0  0  0  0  0  3  0  0  0  0  0  0
  180.8060  180.7180  136.2970 C   0  0  0  0  0  3  0  0  0  0  0  0
  180.7130  182.0670  138.3020 C   0  0  0  0  0  3  0  0  0  0  0  0
  180.8770  180.9190  139.0820 C   0  0  0  0  0  3  0  0  0  0  0  0
  180.6580  177.8890  141.6310 C   0  0  0  0  0  2  0  0  0  0  0  0
  179.3650  178.4120  141.5990 O   0  0  0  0  0  1  0  0  0  0  0  0
  1 19  1  0  0  0  0
  1 26  1  1  0  0  0
  2  6  1  6  0  0  0
  2 12  1  0  0  0  0
  3 16  1  0  0  0  0
  4 13  2  0  0  0  0
  4 14  1  0  0  0  0
  5 13  1  0  0  0  0
  9  7  2  0  0  0  0
 11  3  1  6  0  0  0
 11  2  1  0  0  0  0
 12  1  1  0  0  0  0
 13  9  1  0  0  0  0
 14 15  2  0  0  0  0
 15  7  1  0  0  0  0
 15 11  1  0  0  0  0
 16  8  1  6  0  0  0
 16 18  1  0  0  0  0
 17 14  1  0  0  0  0
 17  6  1  0  0  0  0
 18 10  1  1  0  0  0
 18 19  1  0  0  0  0
 20 24  1  0  0  0  0
 21 25  1  0  0  0  0
 21 12  1  0  0  0  0
 22 21  2  0  0  0  0
 23 20  2  0  0  0  0
 23 22  1  0  0  0  0
 24 25  2  0  0  0  0
 27 26  1  0  0  0  0
M  END
>  <MODEL>
8

>  <REMARK>
 VINA RESULT:      -5.2      2.778      6.068
  Name = 
  2 active torsions:
  status: ('A' for Active; 'I' for Inactive)
    1  A    between atoms: C_1  and  C_18
    2  A    between atoms: C_9  and  N_15
                            x       y       z     vdW  Elec       q    Type
                         _______ _______ _______ _____ _____    ______ ____

>  <TORSDO>
F 2

$$$$
=
 OpenBabel11052413433D

 27 30  0  0  1  0  0  0  0  0999 V2000
  183.5510  179.6260  139.3620 C   0  0  2  0  0  3  0  0  0  0  0  0
  182.4600  177.3580  139.0990 C   0  0  1  0  0  3  0  0  0  0  0  0
  180.1600  178.4880  138.9810 C   0  0  0  0  0  2  0  0  0  0  0  0
  180.4960  174.1460  137.1010 C   0  0  0  0  0  3  0  0  0  0  0  0
  179.1190  173.3080  135.3070 O   0  0  0  0  0  1  0  0  0  0  0  0
  182.3050  176.0250  139.8380 C   0  0  0  0  0  2  0  0  0  0  0  0
  179.8070  176.7640  136.3980 C   0  0  0  0  0  3  0  0  0  0  0  0
  178.9310  180.5190  138.9520 O   0  0  0  0  0  1  0  0  0  0  0  0
  179.2870  175.6850  135.6770 C   0  0  0  0  0  3  0  0  0  0  0  0
  181.0860  182.1080  138.9120 F   0  0  0  0  0  0  0  0  0  0  0  0
  181.2380  177.7180  138.2270 C   0  0  2  0  0  3  0  0  0  0  0  0
  182.8860  178.4700  139.9750 N   0  0  0  0  0  0  0  0  0  0  0  0
  179.6330  174.3780  136.0270 C   0  0  0  0  0  0  0  0  0  0  0  0
  181.0090  175.2200  137.8340 C   0  0  0  0  0  0  0  0  0  0  0  0
  180.6680  176.5410  137.4800 C   0  0  0  0  0  0  0  0  0  0  0  0
  180.1340  179.9490  138.5360 C   0  0  1  0  0  3  0  0  0  0  0  0
  181.9160  174.9710  138.9100 N   0  0  0  0  0  2  0  0  0  0  0  0
  181.3080  180.7560  139.1030 C   0  0  1  0  0  3  0  0  0  0  0  0
  182.6150  180.3780  138.4130 C   0  0  0  0  0  2  0  0  0  0  0  0
  181.8050  178.8470  144.0810 C   0  0  0  0  0  3  0  0  0  0  0  0
  182.5080  178.5800  141.3680 C   0  0  0  0  0  0  0  0  0  0  0  0
  181.1580  178.6280  141.7590 C   0  0  0  0  0  3  0  0  0  0  0  0
  180.8090  178.7570  143.1060 C   0  0  0  0  0  3  0  0  0  0  0  0
  183.1500  178.8080  143.7080 C   0  0  0  0  0  3  0  0  0  0  0  0
  183.4980  178.6790  142.3600 C   0  0  0  0  0  3  0  0  0  0  0  0
  184.8250  179.2020  138.6470 C   0  0  0  0  0  2  0  0  0  0  0  0
  185.8050  178.8640  139.5810 O   0  0  0  0  0  1  0  0  0  0  0  0
  1 26  1  6  0  0  0
  1 12  1  0  0  0  0
  2  6  1  1  0  0  0
  2 12  1  0  0  0  0
  4 14  1  0  0  0  0
  5 13  1  0  0  0  0
  7 15  1  0  0  0  0
  9 13  1  0  0  0  0
  9  7  2  0  0  0  0
 11  3  1  1  0  0  0
 11  2  1  0  0  0  0
 12 21  1  0  0  0  0
 13  4  2  0  0  0  0
 14 17  1  0  0  0  0
 15 14  2  0  0  0  0
 15 11  1  0  0  0  0
 16  8  1  1  0  0  0
 16  3  1  0  0  0  0
 16 18  1  0  0  0  0
 17  6  1  0  0  0  0
 18 10  1  6  0  0  0
 19 18  1  0  0  0  0
 19  1  1  0  0  0  0
 21 22  2  0  0  0  0
 21 25  1  0  0  0  0
 22 23  1  0  0  0  0
 23 20  2  0  0  0  0
 24 20  1  0  0  0  0
 25 24  2  0  0  0  0
 26 27  1  0  0  0  0
M  END
>  <MODEL>
9

>  <REMARK>
 VINA RESULT:      -5.2      2.838      5.306
  Name = 
  2 active torsions:
  status: ('A' for Active; 'I' for Inactive)
    1  A    between atoms: C_1  and  C_18
    2  A    between atoms: C_9  and  N_15
                            x       y       z     vdW  Elec       q    Type
                         _______ _______ _______ _____ _____    ______ ____

>  <TORSDO>
F 2

$$$$
