=
 OpenBabel11052413223D

 28 31  0  0  1  0  0  0  0  0999 V2000
  188.8370  177.4100  145.1980 C   0  0  0  0  0  0  0  0  0  0  0  0
  187.4590  177.7350  149.5550 Cl  0  0  0  0  0  0  0  0  0  0  0  0
  185.3050  178.5600  144.7060 C   0  0  0  0  0  0  0  0  0  0  0  0
  187.0760  177.9490  146.8180 C   0  0  0  0  0  0  0  0  0  0  0  0
  186.6150  178.1400  144.4390 C   0  0  0  0  0  3  0  0  0  0  0  0
  189.2420  177.1830  147.5860 C   0  0  0  0  0  3  0  0  0  0  0  0
  185.7650  178.3660  147.0850 C   0  0  0  0  0  3  0  0  0  0  0  0
  187.9500  177.6220  147.8690 C   0  0  0  0  0  0  0  0  0  0  0  0
  184.8900  178.6670  146.0410 C   0  0  0  0  0  3  0  0  0  0  0  0
  189.6800  177.0760  146.2670 C   0  0  0  0  0  3  0  0  0  0  0  0
  187.5160  177.8430  145.4730 C   0  0  0  0  0  0  0  0  0  0  0  0
  183.1070  179.2030  143.9000 C   0  0  0  0  0  3  0  0  0  0  0  0
  184.0900  178.2350  141.1720 C   0  0  0  0  0  3  0  0  0  0  0  0
  181.7630  178.3320  142.0450 C   0  0  0  0  0  0  0  0  0  0  0  0
  184.3640  178.8520  143.5900 C   0  0  0  0  0  0  0  0  0  0  0  0
  186.2100  179.1780  141.8220 C   0  0  0  0  0  1  0  0  0  0  0  0
  182.6850  177.7910  141.2500 C   0  0  0  0  0  3  0  0  0  0  0  0
  184.8250  178.7500  142.1700 C   0  0  0  0  0  0  0  0  0  0  0  0
  180.4820  177.7960  142.0620 O   0  0  0  0  0  1  0  0  0  0  0  0
  182.0610  179.5280  142.8880 C   0  0  0  0  0  2  0  0  0  0  0  0
  189.3730  177.2940  143.8170 C   0  0  0  0  0  0  0  0  0  0  0  0
  189.2040  176.1390  143.1600 C   0  0  0  0  0  3  0  0  0  0  0  0
  190.5450  178.1730  141.7190 C   0  0  1  0  0  3  0  0  0  0  0  0
  189.7040  175.9490  141.7580 C   0  0  0  0  0  2  0  0  0  0  0  0
  191.0300  179.1800  143.9810 C   0  0  0  0  0  1  0  0  0  0  0  0
  189.9830  178.4940  143.1150 C   0  0  2  0  0  3  0  0  0  0  0  0
  191.8450  177.6890  141.7840 F   0  0  0  0  0  0  0  0  0  0  0  0
  189.6810  177.2150  141.0260 N   0  0  0  0  0  2  0  0  0  0  0  0
  1 11  2  0  0  0  0
  1 10  1  0  0  0  0
  3  9  1  0  0  0  0
  4  7  1  0  0  0  0
  4  8  2  0  0  0  0
  5  3  2  0  0  0  0
  5 11  1  0  0  0  0
  6  8  1  0  0  0  0
  8  2  1  0  0  0  0
  9  7  2  0  0  0  0
 10  6  2  0  0  0  0
 11  4  1  0  0  0  0
 13 17  1  0  0  0  0
 13 18  2  0  0  0  0
 14 19  1  0  0  0  0
 14 20  1  0  0  0  0
 15 12  2  0  0  0  0
 15  3  1  0  0  0  0
 16 18  1  0  0  0  0
 17 14  2  0  0  0  0
 18 15  1  0  0  0  0
 20 12  1  0  0  0  0
 21  1  1  0  0  0  0
 22 21  2  0  0  0  0
 23 27  1  1  0  0  0
 23 26  1  0  0  0  0
 24 22  1  0  0  0  0
 26 21  1  0  0  0  0
 26 25  1  1  0  0  0
 28 23  1  0  0  0  0
 28 24  1  0  0  0  0
M  END
>  <MODEL>
1

>  <REMARK>
 VINA RESULT:     -10.0      0.000      0.000
  Name = 
  2 active torsions:
  status: ('A' for Active; 'I' for Inactive)
    1  A    between atoms: C_1  and  C_2
    2  A    between atoms: C_10  and  C_13
                            x       y       z     vdW  Elec       q    Type
                         _______ _______ _______ _____ _____    ______ ____

>  <TORSDO>
F 2

$$$$
=
 OpenBabel11052413223D

 28 31  0  0  1  0  0  0  0  0999 V2000
  187.7730  177.6280  145.3350 C   0  0  0  0  0  0  0  0  0  0  0  0
  191.6310  176.2510  147.3880 Cl  0  0  0  0  0  0  0  0  0  0  0  0
  189.9970  177.1660  142.3550 C   0  0  0  0  0  0  0  0  0  0  0  0
  190.1070  176.8920  145.1630 C   0  0  0  0  0  0  0  0  0  0  0  0
  188.8780  177.4610  143.1450 C   0  0  0  0  0  3  0  0  0  0  0  0
  189.0540  177.0970  147.3350 C   0  0  0  0  0  3  0  0  0  0  0  0
  191.2270  176.6000  144.3750 C   0  0  0  0  0  3  0  0  0  0  0  0
  190.1690  176.7770  146.5630 C   0  0  0  0  0  0  0  0  0  0  0  0
  191.1740  176.7360  142.9870 C   0  0  0  0  0  3  0  0  0  0  0  0
  187.8720  177.5190  146.7290 C   0  0  0  0  0  3  0  0  0  0  0  0
  188.9060  177.3200  144.5400 C   0  0  0  0  0  0  0  0  0  0  0  0
  188.7740  177.6870  140.3240 C   0  0  0  0  0  3  0  0  0  0  0  0
  191.1890  176.5220  138.8580 C   0  0  0  0  0  3  0  0  0  0  0  0
  188.8190  176.6350  138.1120 C   0  0  0  0  0  0  0  0  0  0  0  0
  189.9460  177.3420  140.8780 C   0  0  0  0  0  0  0  0  0  0  0  0
  192.4960  177.5650  140.5910 C   0  0  0  0  0  1  0  0  0  0  0  0
  190.0170  176.0520  138.0940 C   0  0  0  0  0  3  0  0  0  0  0  0
  191.1750  177.1340  140.0520 C   0  0  0  0  0  0  0  0  0  0  0  0
  187.7790  176.0710  137.3840 O   0  0  0  0  0  1  0  0  0  0  0  0
  188.5760  177.9020  138.8620 C   0  0  0  0  0  2  0  0  0  0  0  0
  186.4780  178.0630  144.7540 C   0  0  0  0  0  0  0  0  0  0  0  0
  186.3160  177.9940  143.4260 C   0  0  0  0  0  3  0  0  0  0  0  0
  184.0760  178.9390  144.8750 C   0  0  1  0  0  3  0  0  0  0  0  0
  185.0320  178.4010  142.7650 C   0  0  0  0  0  2  0  0  0  0  0  0
  185.7330  179.4680  146.7040 C   0  0  0  0  0  1  0  0  0  0  0  0
  185.3150  178.4540  145.6490 C   0  0  2  0  0  3  0  0  0  0  0  0
  184.1540  180.2920  144.5720 F   0  0  0  0  0  0  0  0  0  0  0  0
  183.8950  178.1550  143.6520 N   0  0  0  0  0  2  0  0  0  0  0  0
  1 10  1  0  0  0  0
  3  9  1  0  0  0  0
  3  5  2  0  0  0  0
  4  8  2  0  0  0  0
  5 11  1  0  0  0  0
  7  4  1  0  0  0  0
  8  6  1  0  0  0  0
  8  2  1  0  0  0  0
  9  7  2  0  0  0  0
 10  6  2  0  0  0  0
 11  4  1  0  0  0  0
 11  1  2  0  0  0  0
 12 15  2  0  0  0  0
 13 18  2  0  0  0  0
 14 20  1  0  0  0  0
 15  3  1  0  0  0  0
 17 14  2  0  0  0  0
 17 13  1  0  0  0  0
 18 16  1  0  0  0  0
 18 15  1  0  0  0  0
 19 14  1  0  0  0  0
 20 12  1  0  0  0  0
 21  1  1  0  0  0  0
 21 26  1  0  0  0  0
 22 21  2  0  0  0  0
 23 27  1  6  0  0  0
 23 26  1  0  0  0  0
 24 22  1  0  0  0  0
 24 28  1  0  0  0  0
 26 25  1  1  0  0  0
 28 23  1  0  0  0  0
M  END
>  <MODEL>
2

>  <REMARK>
 VINA RESULT:      -9.8      3.298      5.904
  Name = 
  2 active torsions:
  status: ('A' for Active; 'I' for Inactive)
    1  A    between atoms: C_1  and  C_2
    2  A    between atoms: C_10  and  C_13
                            x       y       z     vdW  Elec       q    Type
                         _______ _______ _______ _____ _____    ______ ____

>  <TORSDO>
F 2

$$$$
=
 OpenBabel11052413223D

 28 31  0  0  1  0  0  0  0  0999 V2000
  187.6290  177.6700  145.1450 C   0  0  0  0  0  0  0  0  0  0  0  0
  183.3330  179.0250  144.3110 Cl  0  0  0  0  0  0  0  0  0  0  0  0
  187.7860  178.1660  141.4350 C   0  0  0  0  0  0  0  0  0  0  0  0
  185.9250  178.4090  143.5440 C   0  0  0  0  0  0  0  0  0  0  0  0
  188.1570  177.8620  142.7510 C   0  0  0  0  0  3  0  0  0  0  0  0
  185.3700  178.1780  145.8900 C   0  0  0  0  0  3  0  0  0  0  0  0
  185.5520  178.7100  142.2270 C   0  0  0  0  0  3  0  0  0  0  0  0
  184.9910  178.5070  144.5900 C   0  0  0  0  0  0  0  0  0  0  0  0
  186.4720  178.5900  141.1850 C   0  0  0  0  0  3  0  0  0  0  0  0
  186.6720  177.7630  146.1650 C   0  0  0  0  0  3  0  0  0  0  0  0
  187.2520  177.9870  143.8160 C   0  0  0  0  0  0  0  0  0  0  0  0
  188.3590  178.3270  139.0810 C   0  0  0  0  0  3  0  0  0  0  0  0
  190.8010  176.6390  139.8090 C   0  0  0  0  0  3  0  0  0  0  0  0
  189.6120  176.8020  137.6300 C   0  0  0  0  0  0  0  0  0  0  0  0
  188.7600  178.0070  140.3210 C   0  0  0  0  0  0  0  0  0  0  0  0
  190.8330  177.9200  141.8480 C   0  0  0  0  0  1  0  0  0  0  0  0
  190.3560  176.1200  138.5010 C   0  0  0  0  0  3  0  0  0  0  0  0
  190.1420  177.5040  140.5950 C   0  0  0  0  0  0  0  0  0  0  0  0
  189.2180  176.1880  136.4480 O   0  0  0  0  0  1  0  0  0  0  0  0
  189.2270  178.2230  137.8730 C   0  0  0  0  0  2  0  0  0  0  0  0
  189.0040  177.2410  145.5100 C   0  0  0  0  0  0  0  0  0  0  0  0
  189.7570  176.6420  144.5770 C   0  0  0  0  0  3  0  0  0  0  0  0
  191.0010  177.0070  147.0930 C   0  0  1  0  0  3  0  0  0  0  0  0
  191.1590  176.1940  144.8630 C   0  0  0  0  0  2  0  0  0  0  0  0
  188.6560  177.2080  148.0010 C   0  0  0  0  0  1  0  0  0  0  0  0
  189.5940  177.5870  146.8650 C   0  0  2  0  0  3  0  0  0  0  0  0
  190.9510  175.7040  147.5710 F   0  0  0  0  0  0  0  0  0  0  0  0
  191.7860  177.0640  145.8580 N   0  0  0  0  0  2  0  0  0  0  0  0
  1 21  1  0  0  0  0
  1 10  1  0  0  0  0
  2  8  1  0  0  0  0
  3  5  2  0  0  0  0
  4 11  1  0  0  0  0
  4  8  2  0  0  0  0
  5 11  1  0  0  0  0
  6 10  2  0  0  0  0
  7  4  1  0  0  0  0
  8  6  1  0  0  0  0
  9  3  1  0  0  0  0
  9  7  2  0  0  0  0
 11  1  2  0  0  0  0
 12 15  2  0  0  0  0
 13 18  2  0  0  0  0
 14 20  1  0  0  0  0
 14 17  2  0  0  0  0
 15 18  1  0  0  0  0
 15  3  1  0  0  0  0
 17 13  1  0  0  0  0
 18 16  1  0  0  0  0
 19 14  1  0  0  0  0
 20 12  1  0  0  0  0
 21 26  1  0  0  0  0
 22 24  1  0  0  0  0
 22 21  2  0  0  0  0
 23 27  1  6  0  0  0
 24 28  1  0  0  0  0
 26 23  1  0  0  0  0
 26 25  1  1  0  0  0
 28 23  1  0  0  0  0
M  END
>  <MODEL>
3

>  <REMARK>
 VINA RESULT:      -9.4      3.348      5.563
  Name = 
  2 active torsions:
  status: ('A' for Active; 'I' for Inactive)
    1  A    between atoms: C_1  and  C_2
    2  A    between atoms: C_10  and  C_13
                            x       y       z     vdW  Elec       q    Type
                         _______ _______ _______ _____ _____    ______ ____

>  <TORSDO>
F 2

$$$$
=
 OpenBabel11052413223D

 28 31  0  0  1  0  0  0  0  0999 V2000
  181.8880  177.8680  140.5810 C   0  0  0  0  0  0  0  0  0  0  0  0
  179.5990  179.5010  144.1980 Cl  0  0  0  0  0  0  0  0  0  0  0  0
  184.7080  178.3650  142.9980 C   0  0  0  0  0  0  0  0  0  0  0  0
  181.9060  178.6930  142.8910 C   0  0  0  0  0  0  0  0  0  0  0  0
  183.9970  178.0430  141.8340 C   0  0  0  0  0  3  0  0  0  0  0  0
  179.8240  178.5750  141.6580 C   0  0  0  0  0  3  0  0  0  0  0  0
  182.6170  179.0180  144.0540 C   0  0  0  0  0  3  0  0  0  0  0  0
  180.5140  178.8780  142.8310 C   0  0  0  0  0  0  0  0  0  0  0  0
  184.0020  178.8560  144.1060 C   0  0  0  0  0  3  0  0  0  0  0  0
  180.5030  178.0780  140.5470 C   0  0  0  0  0  3  0  0  0  0  0  0
  182.6020  178.1870  141.7630 C   0  0  0  0  0  0  0  0  0  0  0  0
  186.8960  178.6650  141.9910 C   0  0  0  0  0  3  0  0  0  0  0  0
  187.8880  176.7470  144.1530 C   0  0  0  0  0  3  0  0  0  0  0  0
  188.8330  177.1690  141.8920 C   0  0  0  0  0  0  0  0  0  0  0  0
  186.1890  178.2210  143.0410 C   0  0  0  0  0  0  0  0  0  0  0  0
  186.3050  177.8590  145.5880 C   0  0  0  0  0  1  0  0  0  0  0  0
  188.6330  176.3670  142.9370 C   0  0  0  0  0  3  0  0  0  0  0  0
  186.8510  177.5950  144.2270 C   0  0  0  0  0  0  0  0  0  0  0  0
  189.5130  176.6810  140.7830 O   0  0  0  0  0  1  0  0  0  0  0  0
  188.3830  178.5910  141.8980 C   0  0  0  0  0  2  0  0  0  0  0  0
  182.5460  177.3160  139.3690 C   0  0  0  0  0  0  0  0  0  0  0  0
  182.6860  175.9870  139.2650 C   0  0  0  0  0  3  0  0  0  0  0  0
  183.6610  177.4880  137.0720 C   0  0  1  0  0  3  0  0  0  0  0  0
  183.3260  175.3540  138.0660 C   0  0  0  0  0  2  0  0  0  0  0  0
  183.7320  179.4270  138.6860 C   0  0  0  0  0  1  0  0  0  0  0  0
  182.9330  178.2210  138.2130 C   0  0  2  0  0  3  0  0  0  0  0  0
  185.0260  177.3910  137.3080 F   0  0  0  0  0  0  0  0  0  0  0  0
  183.0850  176.1580  136.8670 N   0  0  0  0  0  2  0  0  0  0  0  0
  1 11  1  0  0  0  0
  3 15  1  0  0  0  0
  3  9  1  0  0  0  0
  4  7  1  0  0  0  0
  5  3  2  0  0  0  0
  6  8  2  0  0  0  0
  7  9  2  0  0  0  0
  8  4  1  0  0  0  0
  8  2  1  0  0  0  0
 10  1  2  0  0  0  0
 10  6  1  0  0  0  0
 11  5  1  0  0  0  0
 11  4  2  0  0  0  0
 12 15  2  0  0  0  0
 13 18  2  0  0  0  0
 14 20  1  0  0  0  0
 14 17  2  0  0  0  0
 15 18  1  0  0  0  0
 17 13  1  0  0  0  0
 18 16  1  0  0  0  0
 19 14  1  0  0  0  0
 20 12  1  0  0  0  0
 21  1  1  0  0  0  0
 22 21  2  0  0  0  0
 23 27  1  1  0  0  0
 23 26  1  0  0  0  0
 24 22  1  0  0  0  0
 26 25  1  1  0  0  0
 26 21  1  0  0  0  0
 28 23  1  0  0  0  0
 28 24  1  0  0  0  0
M  END
>  <MODEL>
4

>  <REMARK>
 VINA RESULT:      -9.2      3.767      7.157
  Name = 
  2 active torsions:
  status: ('A' for Active; 'I' for Inactive)
    1  A    between atoms: C_1  and  C_2
    2  A    between atoms: C_10  and  C_13
                            x       y       z     vdW  Elec       q    Type
                         _______ _______ _______ _____ _____    ______ ____

>  <TORSDO>
F 2

$$$$
=
 OpenBabel11052413223D

 28 31  0  0  1  0  0  0  0  0999 V2000
  187.4580  177.6270  144.2770 C   0  0  0  0  0  0  0  0  0  0  0  0
  183.1760  179.1960  144.7180 Cl  0  0  0  0  0  0  0  0  0  0  0  0
  186.6010  178.2730  140.6870 C   0  0  0  0  0  0  0  0  0  0  0  0
  185.4160  178.5040  143.2390 C   0  0  0  0  0  0  0  0  0  0  0  0
  187.3080  177.8980  141.8380 C   0  0  0  0  0  3  0  0  0  0  0  0
  185.5250  178.1980  145.6390 C   0  0  0  0  0  3  0  0  0  0  0  0
  184.7080  178.8760  142.0880 C   0  0  0  0  0  3  0  0  0  0  0  0
  184.8170  178.5980  144.5070 C   0  0  0  0  0  0  0  0  0  0  0  0
  185.2940  178.7610  140.8270 C   0  0  0  0  0  3  0  0  0  0  0  0
  186.8280  177.7170  145.5260 C   0  0  0  0  0  3  0  0  0  0  0  0
  186.7430  178.0160  143.1170 C   0  0  0  0  0  0  0  0  0  0  0  0
  186.4530  178.3620  138.2660 C   0  0  0  0  0  3  0  0  0  0  0  0
  189.1070  176.8470  138.2880 C   0  0  0  0  0  3  0  0  0  0  0  0
  187.3270  176.8480  136.5500 C   0  0  0  0  0  0  0  0  0  0  0  0
  187.2180  178.1200  139.3410 C   0  0  0  0  0  0  0  0  0  0  0  0
  189.6460  178.2160  140.1950 C   0  0  0  0  0  1  0  0  0  0  0  0
  188.3360  176.2480  137.1810 C   0  0  0  0  0  3  0  0  0  0  0  0
  188.6490  177.7070  139.2100 C   0  0  0  0  0  0  0  0  0  0  0  0
  186.6480  176.1620  135.5510 O   0  0  0  0  0  1  0  0  0  0  0  0
  186.9360  178.2550  136.8590 C   0  0  0  0  0  2  0  0  0  0  0  0
  188.8550  177.1260  144.2290 C   0  0  0  0  0  0  0  0  0  0  0  0
  189.1650  176.1750  143.3370 C   0  0  0  0  0  3  0  0  0  0  0  0
  191.3110  177.0740  144.9490 C   0  0  1  0  0  3  0  0  0  0  0  0
  190.5560  175.6290  143.2180 C   0  0  0  0  0  2  0  0  0  0  0  0
  189.5210  177.8780  146.5360 C   0  0  0  0  0  1  0  0  0  0  0  0
  189.9410  177.7640  145.0780 C   0  0  2  0  0  3  0  0  0  0  0  0
  191.4270  175.9920  145.8110 F   0  0  0  0  0  0  0  0  0  0  0  0
  191.5440  176.6500  143.5670 N   0  0  0  0  0  2  0  0  0  0  0  0
  1 10  1  0  0  0  0
  3  9  1  0  0  0  0
  3  5  2  0  0  0  0
  4  8  2  0  0  0  0
  5 11  1  0  0  0  0
  7  4  1  0  0  0  0
  8  2  1  0  0  0  0
  8  6  1  0  0  0  0
  9  7  2  0  0  0  0
 10  6  2  0  0  0  0
 11  4  1  0  0  0  0
 11  1  2  0  0  0  0
 12 15  2  0  0  0  0
 13 18  2  0  0  0  0
 14 20  1  0  0  0  0
 14 17  2  0  0  0  0
 15  3  1  0  0  0  0
 17 13  1  0  0  0  0
 18 15  1  0  0  0  0
 18 16  1  0  0  0  0
 19 14  1  0  0  0  0
 20 12  1  0  0  0  0
 21  1  1  0  0  0  0
 21 26  1  0  0  0  0
 22 21  2  0  0  0  0
 23 26  1  0  0  0  0
 23 27  1  1  0  0  0
 24 22  1  0  0  0  0
 24 28  1  0  0  0  0
 26 25  1  1  0  0  0
 28 23  1  0  0  0  0
M  END
>  <MODEL>
5

>  <REMARK>
 VINA RESULT:      -9.1      3.321      4.863
  Name = 
  2 active torsions:
  status: ('A' for Active; 'I' for Inactive)
    1  A    between atoms: C_1  and  C_2
    2  A    between atoms: C_10  and  C_13
                            x       y       z     vdW  Elec       q    Type
                         _______ _______ _______ _____ _____    ______ ____

>  <TORSDO>
F 2

$$$$
=
 OpenBabel11052413223D

 28 31  0  0  1  0  0  0  0  0999 V2000
  188.2350  177.8100  143.7490 C   0  0  0  0  0  0  0  0  0  0  0  0
  187.5230  177.8840  148.2740 Cl  0  0  0  0  0  0  0  0  0  0  0  0
  184.5660  178.5630  143.8440 C   0  0  0  0  0  0  0  0  0  0  0  0
  186.6990  178.1110  145.6370 C   0  0  0  0  0  0  0  0  0  0  0  0
  185.8560  178.2990  143.3650 C   0  0  0  0  0  3  0  0  0  0  0  0
  189.0280  177.5800  146.0380 C   0  0  0  0  0  3  0  0  0  0  0  0
  185.4080  178.3710  146.1170 C   0  0  0  0  0  3  0  0  0  0  0  0
  187.7560  177.8630  146.5310 C   0  0  0  0  0  0  0  0  0  0  0  0
  184.3540  178.5930  145.2300 C   0  0  0  0  0  3  0  0  0  0  0  0
  189.2650  177.5510  144.6650 C   0  0  0  0  0  3  0  0  0  0  0  0
  186.9330  178.0840  144.2380 C   0  0  0  0  0  0  0  0  0  0  0  0
  182.2220  179.0160  143.4060 C   0  0  0  0  0  3  0  0  0  0  0  0
  182.8310  178.1210  140.5480 C   0  0  0  0  0  3  0  0  0  0  0  0
  180.6750  178.0280  141.7840 C   0  0  0  0  0  0  0  0  0  0  0  0
  183.4370  178.7700  142.8960 C   0  0  0  0  0  0  0  0  0  0  0  0
  184.9420  179.2410  140.8580 C   0  0  0  0  0  1  0  0  0  0  0  0
  181.4980  177.5610  140.8460 C   0  0  0  0  0  3  0  0  0  0  0  0
  183.6710  178.7000  141.4200 C   0  0  0  0  0  0  0  0  0  0  0  0
  179.4620  177.3860  142.0010 O   0  0  0  0  0  1  0  0  0  0  0  0
  181.0030  179.2470  142.5780 C   0  0  0  0  0  2  0  0  0  0  0  0
  188.5610  177.7850  142.3000 C   0  0  0  0  0  0  0  0  0  0  0  0
  187.6690  178.2870  141.4350 C   0  0  0  0  0  3  0  0  0  0  0  0
  190.0600  177.3010  140.2830 C   0  0  1  0  0  3  0  0  0  0  0  0
  187.9310  178.3110  139.9580 C   0  0  0  0  0  2  0  0  0  0  0  0
  190.3080  175.9790  142.4180 C   0  0  0  0  0  1  0  0  0  0  0  0
  189.9240  177.3220  141.8160 C   0  0  2  0  0  3  0  0  0  0  0  0
  189.5870  176.1140  139.7390 F   0  0  0  0  0  0  0  0  0  0  0  0
  189.3640  178.4440  139.6900 N   0  0  0  0  0  2  0  0  0  0  0  0
  1 11  2  0  0  0  0
  1 10  1  0  0  0  0
  3  9  1  0  0  0  0
  4  7  1  0  0  0  0
  4  8  2  0  0  0  0
  5  3  2  0  0  0  0
  5 11  1  0  0  0  0
  6  8  1  0  0  0  0
  8  2  1  0  0  0  0
  9  7  2  0  0  0  0
 10  6  2  0  0  0  0
 11  4  1  0  0  0  0
 13 17  1  0  0  0  0
 13 18  2  0  0  0  0
 14 19  1  0  0  0  0
 14 20  1  0  0  0  0
 15 12  2  0  0  0  0
 15  3  1  0  0  0  0
 16 18  1  0  0  0  0
 17 14  2  0  0  0  0
 18 15  1  0  0  0  0
 20 12  1  0  0  0  0
 21  1  1  0  0  0  0
 22 21  2  0  0  0  0
 23 27  1  6  0  0  0
 23 26  1  0  0  0  0
 24 22  1  0  0  0  0
 26 21  1  0  0  0  0
 26 25  1  6  0  0  0
 28 24  1  0  0  0  0
 28 23  1  0  0  0  0
M  END
>  <MODEL>
6

>  <REMARK>
 VINA RESULT:      -8.9      1.376      1.834
  Name = 
  2 active torsions:
  status: ('A' for Active; 'I' for Inactive)
    1  A    between atoms: C_1  and  C_2
    2  A    between atoms: C_10  and  C_13
                            x       y       z     vdW  Elec       q    Type
                         _______ _______ _______ _____ _____    ______ ____

>  <TORSDO>
F 2

$$$$
=
 OpenBabel11052413223D

 28 31  0  0  1  0  0  0  0  0999 V2000
  188.0370  177.5290  144.4600 C   0  0  0  0  0  0  0  0  0  0  0  0
  184.5950  178.3340  147.3760 Cl  0  0  0  0  0  0  0  0  0  0  0  0
  185.3640  178.6140  142.0690 C   0  0  0  0  0  0  0  0  0  0  0  0
  185.7210  178.2430  144.8440 C   0  0  0  0  0  0  0  0  0  0  0  0
  186.5920  178.1680  142.5760 C   0  0  0  0  0  3  0  0  0  0  0  0
  187.1120  177.5690  146.7100 C   0  0  0  0  0  3  0  0  0  0  0  0
  184.4930  178.6850  144.3380 C   0  0  0  0  0  3  0  0  0  0  0  0
  185.8910  178.0360  146.2250 C   0  0  0  0  0  0  0  0  0  0  0  0
  184.3160  178.8680  142.9650 C   0  0  0  0  0  3  0  0  0  0  0  0
  188.1700  177.3170  145.8400 C   0  0  0  0  0  3  0  0  0  0  0  0
  186.7950  177.9880  143.9530 C   0  0  0  0  0  0  0  0  0  0  0  0
  184.0200  179.3240  140.1760 C   0  0  0  0  0  3  0  0  0  0  0  0
  185.9970  177.7240  138.4810 C   0  0  0  0  0  3  0  0  0  0  0  0
  183.6130  178.2550  138.0100 C   0  0  0  0  0  0  0  0  0  0  0  0
  185.1690  178.7790  140.6020 C   0  0  0  0  0  0  0  0  0  0  0  0
  187.6660  178.5340  140.0170 C   0  0  0  0  0  1  0  0  0  0  0  0
  184.6770  177.4650  137.8730 C   0  0  0  0  0  3  0  0  0  0  0  0
  186.2350  178.3430  139.6470 C   0  0  0  0  0  0  0  0  0  0  0  0
  182.4100  177.8800  137.4250 O   0  0  0  0  0  1  0  0  0  0  0  0
  183.6910  179.5540  138.7400 C   0  0  0  0  0  2  0  0  0  0  0  0
  189.2110  177.2610  143.5910 C   0  0  0  0  0  0  0  0  0  0  0  0
  189.3830  176.0210  143.1120 C   0  0  0  0  0  3  0  0  0  0  0  0
  191.3240  177.9180  142.3050 C   0  0  1  0  0  3  0  0  0  0  0  0
  190.5350  175.6760  142.2160 C   0  0  0  0  0  2  0  0  0  0  0  0
  190.5820  179.2400  144.3220 C   0  0  0  0  0  1  0  0  0  0  0  0
  190.1240  178.3890  143.1460 C   0  0  2  0  0  3  0  0  0  0  0  0
  192.3880  177.5190  143.1020 F   0  0  0  0  0  0  0  0  0  0  0  0
  190.9260  176.8310  141.4080 N   0  0  0  0  0  2  0  0  0  0  0  0
  1 10  1  0  0  0  0
  3  5  2  0  0  0  0
  3  9  1  0  0  0  0
  4  8  2  0  0  0  0
  5 11  1  0  0  0  0
  7  4  1  0  0  0  0
  8  6  1  0  0  0  0
  8  2  1  0  0  0  0
  9  7  2  0  0  0  0
 10  6  2  0  0  0  0
 11  1  2  0  0  0  0
 11  4  1  0  0  0  0
 12 15  2  0  0  0  0
 13 18  2  0  0  0  0
 14 20  1  0  0  0  0
 15  3  1  0  0  0  0
 17 14  2  0  0  0  0
 17 13  1  0  0  0  0
 18 16  1  0  0  0  0
 18 15  1  0  0  0  0
 19 14  1  0  0  0  0
 20 12  1  0  0  0  0
 21  1  1  0  0  0  0
 22 21  2  0  0  0  0
 23 27  1  1  0  0  0
 23 26  1  0  0  0  0
 24 22  1  0  0  0  0
 26 21  1  0  0  0  0
 26 25  1  1  0  0  0
 28 24  1  0  0  0  0
 28 23  1  0  0  0  0
M  END
>  <MODEL>
7

>  <REMARK>
 VINA RESULT:      -8.7      1.962      2.701
  Name = 
  2 active torsions:
  status: ('A' for Active; 'I' for Inactive)
    1  A    between atoms: C_1  and  C_2
    2  A    between atoms: C_10  and  C_13
                            x       y       z     vdW  Elec       q    Type
                         _______ _______ _______ _____ _____    ______ ____

>  <TORSDO>
F 2

$$$$
=
 OpenBabel11052413223D

 28 31  0  0  1  0  0  0  0  0999 V2000
  185.1770  178.4200  143.8230 C   0  0  0  0  0  0  0  0  0  0  0  0
  187.6750  177.7950  147.6130 Cl  0  0  0  0  0  0  0  0  0  0  0  0
  188.5630  177.8600  142.3170 C   0  0  0  0  0  0  0  0  0  0  0  0
  187.3500  177.9580  144.8650 C   0  0  0  0  0  0  0  0  0  0  0  0
  187.1900  178.1140  142.4440 C   0  0  0  0  0  3  0  0  0  0  0  0
  185.3890  178.3070  146.2440 C   0  0  0  0  0  3  0  0  0  0  0  0
  188.7220  177.7080  144.7390 C   0  0  0  0  0  3  0  0  0  0  0  0
  186.7500  178.0310  146.1350 C   0  0  0  0  0  0  0  0  0  0  0  0
  189.3220  177.6600  143.4800 C   0  0  0  0  0  3  0  0  0  0  0  0
  184.6120  178.5020  145.1030 C   0  0  0  0  0  3  0  0  0  0  0  0
  186.5640  178.1550  143.7000 C   0  0  0  0  0  0  0  0  0  0  0  0
  188.5310  178.3740  139.9450 C   0  0  0  0  0  3  0  0  0  0  0  0
  190.9210  176.4800  139.7490 C   0  0  0  0  0  3  0  0  0  0  0  0
  189.2380  177.0500  138.0090 C   0  0  0  0  0  0  0  0  0  0  0  0
  189.2050  177.8390  140.9750 C   0  0  0  0  0  0  0  0  0  0  0  0
  191.5810  177.4090  141.8710 C   0  0  0  0  0  1  0  0  0  0  0  0
  190.1160  176.2020  138.5440 C   0  0  0  0  0  3  0  0  0  0  0  0
  190.5620  177.2350  140.7980 C   0  0  0  0  0  0  0  0  0  0  0  0
  188.5050  176.6550  136.8970 O   0  0  0  0  0  1  0  0  0  0  0  0
  189.0520  178.4280  138.5490 C   0  0  0  0  0  2  0  0  0  0  0  0
  184.2890  178.6170  142.6490 C   0  0  0  0  0  0  0  0  0  0  0  0
  184.8360  179.0120  141.4910 C   0  0  0  0  0  3  0  0  0  0  0  0
  182.0380  178.5840  141.4310 C   0  0  1  0  0  3  0  0  0  0  0  0
  184.0070  179.2180  140.2580 C   0  0  0  0  0  2  0  0  0  0  0  0
  182.1420  178.8640  143.9370 C   0  0  0  0  0  1  0  0  0  0  0  0
  182.8160  178.2530  142.7170 C   0  0  2  0  0  3  0  0  0  0  0  0
  181.5990  179.9020  141.4190 F   0  0  0  0  0  0  0  0  0  0  0  0
  182.8590  178.3120  140.2500 N   0  0  0  0  0  2  0  0  0  0  0  0
  1 10  1  0  0  0  0
  3  5  2  0  0  0  0
  3  9  1  0  0  0  0
  4  8  2  0  0  0  0
  5 11  1  0  0  0  0
  7  4  1  0  0  0  0
  8  6  1  0  0  0  0
  8  2  1  0  0  0  0
  9  7  2  0  0  0  0
 10  6  2  0  0  0  0
 11  1  2  0  0  0  0
 11  4  1  0  0  0  0
 12 15  2  0  0  0  0
 13 18  2  0  0  0  0
 14 17  2  0  0  0  0
 14 20  1  0  0  0  0
 15  3  1  0  0  0  0
 17 13  1  0  0  0  0
 18 15  1  0  0  0  0
 18 16  1  0  0  0  0
 19 14  1  0  0  0  0
 20 12  1  0  0  0  0
 21 26  1  0  0  0  0
 21  1  1  0  0  0  0
 22 21  2  0  0  0  0
 23 27  1  1  0  0  0
 23 26  1  0  0  0  0
 24 22  1  0  0  0  0
 26 25  1  1  0  0  0
 28 24  1  0  0  0  0
 28 23  1  0  0  0  0
M  END
>  <MODEL>
8

>  <REMARK>
 VINA RESULT:      -8.5      3.419      6.288
  Name = 
  2 active torsions:
  status: ('A' for Active; 'I' for Inactive)
    1  A    between atoms: C_1  and  C_2
    2  A    between atoms: C_10  and  C_13
                            x       y       z     vdW  Elec       q    Type
                         _______ _______ _______ _____ _____    ______ ____

>  <TORSDO>
F 2

$$$$
=
 OpenBabel11052413223D

 28 31  0  0  1  0  0  0  0  0999 V2000
  185.7250  178.2630  144.7580 C   0  0  0  0  0  0  0  0  0  0  0  0
  181.8430  179.2370  142.5290 Cl  0  0  0  0  0  0  0  0  0  0  0  0
  186.9920  178.4280  141.2360 C   0  0  0  0  0  0  0  0  0  0  0  0
  184.5660  178.7330  142.6480 C   0  0  0  0  0  0  0  0  0  0  0  0
  186.9520  178.2710  142.6280 C   0  0  0  0  0  3  0  0  0  0  0  0
  183.3280  178.6800  144.7300 C   0  0  0  0  0  3  0  0  0  0  0  0
  184.6040  178.8860  141.2560 C   0  0  0  0  0  3  0  0  0  0  0  0
  183.3540  178.8620  143.3480 C   0  0  0  0  0  0  0  0  0  0  0  0
  185.8020  178.7350  140.5580 C   0  0  0  0  0  3  0  0  0  0  0  0
  184.4980  178.3820  145.4260 C   0  0  0  0  0  3  0  0  0  0  0  0
  185.7610  178.4300  143.3510 C   0  0  0  0  0  0  0  0  0  0  0  0
  188.2590  178.4450  139.1660 C   0  0  0  0  0  3  0  0  0  0  0  0
  190.3950  176.9310  140.7430 C   0  0  0  0  0  3  0  0  0  0  0  0
  189.9340  176.8810  138.3000 C   0  0  0  0  0  0  0  0  0  0  0  0
  188.2660  178.2350  140.4910 C   0  0  0  0  0  0  0  0  0  0  0  0
  189.7660  178.3560  142.5810 C   0  0  0  0  0  1  0  0  0  0  0  0
  190.3880  176.2990  139.4090 C   0  0  0  0  0  3  0  0  0  0  0  0
  189.5060  177.8190  141.2150 C   0  0  0  0  0  0  0  0  0  0  0  0
  189.9380  176.1660  137.1090 O   0  0  0  0  0  1  0  0  0  0  0  0
  189.4600  178.2960  138.2940 C   0  0  0  0  0  2  0  0  0  0  0  0
  186.9370  177.9650  145.5630 C   0  0  0  0  0  0  0  0  0  0  0  0
  187.8360  177.1010  145.0720 C   0  0  0  0  0  3  0  0  0  0  0  0
  188.4830  178.2320  147.5850 C   0  0  1  0  0  3  0  0  0  0  0  0
  189.0910  176.7600  145.8190 C   0  0  0  0  0  2  0  0  0  0  0  0
  186.0140  178.7160  147.7810 C   0  0  0  0  0  1  0  0  0  0  0  0
  187.2200  178.7170  146.8520 C   0  0  2  0  0  3  0  0  0  0  0  0
  188.2180  177.1450  148.4080 F   0  0  0  0  0  0  0  0  0  0  0  0
  189.5370  177.8960  146.6260 N   0  0  0  0  0  2  0  0  0  0  0  0
  1 10  1  0  0  0  0
  1 21  1  0  0  0  0
  2  8  1  0  0  0  0
  3  5  2  0  0  0  0
  4  8  2  0  0  0  0
  4 11  1  0  0  0  0
  5 11  1  0  0  0  0
  6 10  2  0  0  0  0
  7  4  1  0  0  0  0
  8  6  1  0  0  0  0
  9  3  1  0  0  0  0
  9  7  2  0  0  0  0
 11  1  2  0  0  0  0
 12 15  2  0  0  0  0
 13 18  2  0  0  0  0
 14 17  2  0  0  0  0
 15 18  1  0  0  0  0
 15  3  1  0  0  0  0
 17 13  1  0  0  0  0
 18 16  1  0  0  0  0
 19 14  1  0  0  0  0
 20 14  1  0  0  0  0
 20 12  1  0  0  0  0
 21 26  1  0  0  0  0
 22 21  2  0  0  0  0
 22 24  1  0  0  0  0
 23 27  1  6  0  0  0
 24 28  1  0  0  0  0
 26 23  1  0  0  0  0
 26 25  1  1  0  0  0
 28 23  1  0  0  0  0
M  END
>  <MODEL>
9

>  <REMARK>
 VINA RESULT:      -8.5      3.577      6.115
  Name = 
  2 active torsions:
  status: ('A' for Active; 'I' for Inactive)
    1  A    between atoms: C_1  and  C_2
    2  A    between atoms: C_10  and  C_13
                            x       y       z     vdW  Elec       q    Type
                         _______ _______ _______ _____ _____    ______ ____

>  <TORSDO>
F 2

$$$$
