=
 OpenBabel11052414123D

 34 38  0  0  0  0  0  0  0  0999 V2000
  182.3070  178.6290  141.5230 C   0  0  0  0  0  0  0  0  0  0  0  0
  181.4180  179.0820  143.7300 C   0  0  0  0  0  3  0  0  0  0  0  0
  183.8410  178.6250  143.4320 C   0  0  0  0  0  0  0  0  0  0  0  0
  185.4660  178.5480  145.2430 C   0  0  0  0  0  0  0  0  0  0  0  0
  179.9430  179.0730  141.8140 C   0  0  0  0  0  3  0  0  0  0  0  0
  178.9890  179.5450  144.0700 C   0  0  0  0  0  1  0  0  0  0  0  0
  183.1670  179.0060  145.7630 O   0  0  0  0  0  1  0  0  0  0  0  0
  182.5240  178.7810  142.9140 C   0  0  0  0  0  0  0  0  0  0  0  0
  181.0250  178.7730  140.9850 C   0  0  0  0  0  3  0  0  0  0  0  0
  184.8980  178.3360  142.5240 C   0  0  0  0  0  0  0  0  0  0  0  0
  183.3400  178.3350  140.6980 N   0  0  0  0  0  0  0  0  0  0  0  0
  180.1400  179.2270  143.1860 C   0  0  0  0  0  0  0  0  0  0  0  0
  186.4440  178.2710  144.3480 N   0  0  0  0  0  0  0  0  0  0  0  0
  186.2200  178.1720  143.0110 C   0  0  0  0  0  0  0  0  0  0  0  0
  184.1480  178.7310  144.8130 C   0  0  0  0  0  0  0  0  0  0  0  0
  184.6030  178.1870  141.1630 C   0  0  0  0  0  3  0  0  0  0  0  0
  189.4270  176.6080  141.7410 C   0  0  0  0  0  0  0  0  0  0  0  0
  189.6690  177.3460  140.5800 C   0  0  0  0  0  3  0  0  0  0  0  0
  187.3910  177.8820  142.1400 C   0  0  0  0  0  0  0  0  0  0  0  0
  188.7830  178.3550  140.1990 C   0  0  0  0  0  3  0  0  0  0  0  0
  188.2990  176.8800  142.5190 C   0  0  0  0  0  3  0  0  0  0  0  0
  187.6540  178.6240  140.9780 C   0  0  0  0  0  3  0  0  0  0  0  0
  190.2900  175.6330  142.1160 F   0  0  0  0  0  0  0  0  0  0  0  0
  185.8110  178.6160  146.6920 C   0  0  0  0  0  2  0  0  0  0  0  0
  186.6990  177.5200  147.0360 N   0  0  0  0  0  2  0  0  0  0  0  0
  187.8210  178.1010  147.7480 C   0  0  0  0  0  2  0  0  0  0  0  0
  188.9840  177.1280  147.7370 C   0  0  0  0  0  2  0  0  0  0  0  0
  191.5350  175.6560  147.3440 C   0  0  0  0  0  1  0  0  0  0  0  0
  189.8740  177.4020  146.5690 C   0  0  0  0  0  0  0  0  0  0  0  0
  191.0780  176.6960  146.3780 C   0  0  0  0  0  0  0  0  0  0  0  0
  191.4780  177.9390  144.3340 C   0  0  0  0  0  3  0  0  0  0  0  0
  190.2820  178.6350  144.5190 C   0  0  0  0  0  3  0  0  0  0  0  0
  189.4820  178.3660  145.6330 C   0  0  0  0  0  3  0  0  0  0  0  0
  191.8750  176.9710  145.2610 C   0  0  0  0  0  3  0  0  0  0  0  0
  1  8  1  0  0  0  0
  3 15  1  0  0  0  0
  4 24  1  0  0  0  0
  5 12  2  0  0  0  0
  8  3  1  0  0  0  0
  8  2  2  0  0  0  0
  9  1  2  0  0  0  0
  9  5  1  0  0  0  0
 10 14  1  0  0  0  0
 10  3  2  0  0  0  0
 11 16  2  0  0  0  0
 11  1  1  0  0  0  0
 12  2  1  0  0  0  0
 12  6  1  0  0  0  0
 13  4  1  0  0  0  0
 14 13  2  0  0  0  0
 15  4  2  0  0  0  0
 15  7  1  0  0  0  0
 16 10  1  0  0  0  0
 17 23  1  0  0  0  0
 17 21  1  0  0  0  0
 18 17  2  0  0  0  0
 19 21  2  0  0  0  0
 19 14  1  0  0  0  0
 20 18  1  0  0  0  0
 20 22  2  0  0  0  0
 22 19  1  0  0  0  0
 24 25  1  0  0  0  0
 25 26  1  0  0  0  0
 27 26  1  0  0  0  0
 29 27  1  0  0  0  0
 30 29  1  0  0  0  0
 30 28  1  0  0  0  0
 31 32  2  0  0  0  0
 31 34  1  0  0  0  0
 32 33  1  0  0  0  0
 33 29  2  0  0  0  0
 34 30  2  0  0  0  0
M  END
>  <MODEL>
1

>  <REMARK>
 VINA RESULT:     -10.4      0.000      0.000
  Name = 
  6 active torsions:
  status: ('A' for Active; 'I' for Inactive)
    1  A    between atoms: C_3  and  C_13
    2  A    between atoms: C_3  and  C_17
    3  A    between atoms: C_5  and  C_18
    4  A    between atoms: C_12  and  C_28
    5  A    between atoms: C_17  and  N_29
    6  A    between atoms: C_18  and  N_29
                            x       y       z     vdW  Elec       q    Type
                         _______ _______ _______ _____ _____    ______ ____

>  <TORSDO>
F 6

$$$$
=
 OpenBabel11052414123D

 34 38  0  0  0  0  0  0  0  0999 V2000
  182.7630  178.8130  143.0460 C   0  0  0  0  0  0  0  0  0  0  0  0
  183.3680  178.8480  140.7000 C   0  0  0  0  0  3  0  0  0  0  0  0
  185.1170  178.5270  142.4340 C   0  0  0  0  0  0  0  0  0  0  0  0
  187.4940  178.2760  141.9690 C   0  0  0  0  0  0  0  0  0  0  0  0
  181.0570  179.1280  141.3540 C   0  0  0  0  0  3  0  0  0  0  0  0
  181.6390  179.1700  138.9280 C   0  0  0  0  0  1  0  0  0  0  0  0
  185.9760  178.5790  140.1330 O   0  0  0  0  0  1  0  0  0  0  0  0
  183.7630  178.7280  142.0450 C   0  0  0  0  0  0  0  0  0  0  0  0
  181.4240  179.0120  142.6960 C   0  0  0  0  0  3  0  0  0  0  0  0
  185.4160  178.4020  143.8200 C   0  0  0  0  0  0  0  0  0  0  0  0
  183.0950  178.7070  144.3540 N   0  0  0  0  0  0  0  0  0  0  0  0
  182.0290  179.0460  140.3570 C   0  0  0  0  0  0  0  0  0  0  0  0
  187.7370  178.1630  143.2970 N   0  0  0  0  0  0  0  0  0  0  0  0
  186.7560  178.2050  144.2370 C   0  0  0  0  0  0  0  0  0  0  0  0
  186.1870  178.4590  141.5060 C   0  0  0  0  0  0  0  0  0  0  0  0
  184.3740  178.5100  144.7510 C   0  0  0  0  0  3  0  0  0  0  0  0
  188.5560  176.9380  147.3200 C   0  0  0  0  0  0  0  0  0  0  0  0
  187.9190  177.6490  148.3390 C   0  0  0  0  0  3  0  0  0  0  0  0
  187.1640  178.0490  145.6600 C   0  0  0  0  0  0  0  0  0  0  0  0
  186.9010  178.5530  148.0280 C   0  0  0  0  0  3  0  0  0  0  0  0
  188.1760  177.1330  145.9890 C   0  0  0  0  0  3  0  0  0  0  0  0
  186.5230  178.7470  146.6960 C   0  0  0  0  0  3  0  0  0  0  0  0
  189.5400  176.0560  147.6210 F   0  0  0  0  0  0  0  0  0  0  0  0
  188.6420  178.2380  141.0190 C   0  0  0  0  0  2  0  0  0  0  0  0
  189.0410  176.8610  140.7890 N   0  0  0  0  0  2  0  0  0  0  0  0
  190.4900  176.8520  140.7270 C   0  0  0  0  0  2  0  0  0  0  0  0
  191.0410  177.9110  141.6620 C   0  0  0  0  0  2  0  0  0  0  0  0
  191.1000  179.5740  144.1240 C   0  0  0  0  0  1  0  0  0  0  0  0
  191.3280  177.3160  143.0020 C   0  0  0  0  0  0  0  0  0  0  0  0
  191.3450  178.1040  144.1700 C   0  0  0  0  0  0  0  0  0  0  0  0
  191.8340  176.1290  145.4900 C   0  0  0  0  0  3  0  0  0  0  0  0
  191.8120  175.3460  144.3340 C   0  0  0  0  0  3  0  0  0  0  0  0
  191.5580  175.9380  143.0930 C   0  0  0  0  0  3  0  0  0  0  0  0
  191.6000  177.5050  145.4080 C   0  0  0  0  0  3  0  0  0  0  0  0
  1 11  1  0  0  0  0
  2  8  1  0  0  0  0
  3 10  1  0  0  0  0
  4 13  2  0  0  0  0
  5  9  2  0  0  0  0
  6 12  1  0  0  0  0
  7 15  1  0  0  0  0
  8  3  1  0  0  0  0
  8  1  2  0  0  0  0
  9  1  1  0  0  0  0
 10 14  2  0  0  0  0
 10 16  1  0  0  0  0
 11 16  2  0  0  0  0
 12  2  2  0  0  0  0
 12  5  1  0  0  0  0
 13 14  1  0  0  0  0
 14 19  1  0  0  0  0
 15  4  1  0  0  0  0
 15  3  2  0  0  0  0
 17 23  1  0  0  0  0
 17 18  1  0  0  0  0
 19 21  1  0  0  0  0
 19 22  2  0  0  0  0
 20 18  2  0  0  0  0
 21 17  2  0  0  0  0
 22 20  1  0  0  0  0
 24  4  1  0  0  0  0
 25 24  1  0  0  0  0
 26 25  1  0  0  0  0
 26 27  1  0  0  0  0
 27 29  1  0  0  0  0
 28 30  1  0  0  0  0
 29 33  2  0  0  0  0
 29 30  1  0  0  0  0
 30 34  2  0  0  0  0
 32 31  2  0  0  0  0
 33 32  1  0  0  0  0
 34 31  1  0  0  0  0
M  END
>  <MODEL>
2

>  <REMARK>
 VINA RESULT:      -9.8      2.112      4.508
  Name = 
  6 active torsions:
  status: ('A' for Active; 'I' for Inactive)
    1  A    between atoms: C_3  and  C_13
    2  A    between atoms: C_3  and  C_17
    3  A    between atoms: C_5  and  C_18
    4  A    between atoms: C_12  and  C_28
    5  A    between atoms: C_17  and  N_29
    6  A    between atoms: C_18  and  N_29
                            x       y       z     vdW  Elec       q    Type
                         _______ _______ _______ _____ _____    ______ ____

>  <TORSDO>
F 6

$$$$
=
 OpenBabel11052414123D

 34 38  0  0  0  0  0  0  0  0999 V2000
  189.4500  177.1920  137.4260 C   0  0  0  0  0  0  0  0  0  0  0  0
  187.2050  177.9580  136.9320 C   0  0  0  0  0  3  0  0  0  0  0  0
  188.0390  177.9690  139.2710 C   0  0  0  0  0  0  0  0  0  0  0  0
  186.7320  178.6720  141.2010 C   0  0  0  0  0  0  0  0  0  0  0  0
  188.6350  177.1800  135.1440 C   0  0  0  0  0  3  0  0  0  0  0  0
  186.3310  177.9600  134.5940 C   0  0  0  0  0  1  0  0  0  0  0  0
  185.7200  178.7410  139.0240 O   0  0  0  0  0  1  0  0  0  0  0  0
  188.2140  177.7140  137.8820 C   0  0  0  0  0  0  0  0  0  0  0  0
  189.6510  176.9290  136.0680 C   0  0  0  0  0  3  0  0  0  0  0  0
  189.1240  177.7040  140.1530 C   0  0  0  0  0  0  0  0  0  0  0  0
  190.4490  176.9370  138.3040 N   0  0  0  0  0  0  0  0  0  0  0  0
  187.4140  177.6940  135.5760 C   0  0  0  0  0  0  0  0  0  0  0  0
  187.7870  178.4050  142.0080 N   0  0  0  0  0  0  0  0  0  0  0  0
  188.9790  177.9450  141.5430 C   0  0  0  0  0  0  0  0  0  0  0  0
  186.8290  178.4630  139.8220 C   0  0  0  0  0  0  0  0  0  0  0  0
  190.3120  177.1760  139.6290 C   0  0  0  0  0  3  0  0  0  0  0  0
  191.4650  176.1450  143.7610 C   0  0  0  0  0  0  0  0  0  0  0  0
  192.0350  177.2020  144.4740 C   0  0  0  0  0  3  0  0  0  0  0  0
  190.0580  177.7130  142.5390 C   0  0  0  0  0  0  0  0  0  0  0  0
  191.6180  178.5120  144.2310 C   0  0  0  0  0  3  0  0  0  0  0  0
  190.4780  176.3990  142.8040 C   0  0  0  0  0  3  0  0  0  0  0  0
  190.6310  178.7640  143.2730 C   0  0  0  0  0  3  0  0  0  0  0  0
  191.8650  174.8730  144.0000 F   0  0  0  0  0  0  0  0  0  0  0  0
  185.4600  179.1550  141.8110 C   0  0  0  0  0  2  0  0  0  0  0  0
  184.9920  178.1920  142.7930 N   0  0  0  0  0  2  0  0  0  0  0  0
  185.6590  178.5130  144.0400 C   0  0  0  0  0  2  0  0  0  0  0  0
  186.2550  177.2510  144.6330 C   0  0  0  0  0  2  0  0  0  0  0  0
  185.0910  178.5150  147.0580 C   0  0  0  0  0  1  0  0  0  0  0  0
  187.0960  177.5860  145.8220 C   0  0  0  0  0  0  0  0  0  0  0  0
  186.5410  178.1760  146.9750 C   0  0  0  0  0  0  0  0  0  0  0  0
  188.7240  178.1550  148.0310 C   0  0  0  0  0  3  0  0  0  0  0  0
  189.2740  177.5650  146.8910 C   0  0  0  0  0  3  0  0  0  0  0  0
  188.4610  177.2800  145.7900 C   0  0  0  0  0  3  0  0  0  0  0  0
  187.3600  178.4580  148.0730 C   0  0  0  0  0  3  0  0  0  0  0  0
  1  8  2  0  0  0  0
  1 11  1  0  0  0  0
  2  8  1  0  0  0  0
  3 15  2  0  0  0  0
  3 10  1  0  0  0  0
  4 24  1  0  0  0  0
  4 13  2  0  0  0  0
  5 12  1  0  0  0  0
  5  9  2  0  0  0  0
  6 12  1  0  0  0  0
  7 15  1  0  0  0  0
  8  3  1  0  0  0  0
  9  1  1  0  0  0  0
 10 14  2  0  0  0  0
 11 16  2  0  0  0  0
 12  2  2  0  0  0  0
 14 13  1  0  0  0  0
 14 19  1  0  0  0  0
 15  4  1  0  0  0  0
 16 10  1  0  0  0  0
 17 23  1  0  0  0  0
 17 18  1  0  0  0  0
 19 21  1  0  0  0  0
 19 22  2  0  0  0  0
 20 18  2  0  0  0  0
 21 17  2  0  0  0  0
 22 20  1  0  0  0  0
 24 25  1  0  0  0  0
 25 26  1  0  0  0  0
 26 27  1  0  0  0  0
 27 29  1  0  0  0  0
 29 30  1  0  0  0  0
 30 28  1  0  0  0  0
 30 34  2  0  0  0  0
 31 34  1  0  0  0  0
 32 31  2  0  0  0  0
 33 29  2  0  0  0  0
 33 32  1  0  0  0  0
M  END
>  <MODEL>
3

>  <REMARK>
 VINA RESULT:      -9.8      2.969      6.132
  Name = 
  6 active torsions:
  status: ('A' for Active; 'I' for Inactive)
    1  A    between atoms: C_3  and  C_13
    2  A    between atoms: C_3  and  C_17
    3  A    between atoms: C_5  and  C_18
    4  A    between atoms: C_12  and  C_28
    5  A    between atoms: C_17  and  N_29
    6  A    between atoms: C_18  and  N_29
                            x       y       z     vdW  Elec       q    Type
                         _______ _______ _______ _____ _____    ______ ____

>  <TORSDO>
F 6

$$$$
=
 OpenBabel11052414123D

 34 38  0  0  0  0  0  0  0  0999 V2000
  187.4450  177.4470  146.2510 C   0  0  0  0  0  0  0  0  0  0  0  0
  189.5880  177.3320  145.1280 C   0  0  0  0  0  3  0  0  0  0  0  0
  187.5280  177.8350  143.8350 C   0  0  0  0  0  0  0  0  0  0  0  0
  187.4610  178.1960  141.4280 C   0  0  0  0  0  0  0  0  0  0  0  0
  189.4550  176.9550  147.5120 C   0  0  0  0  0  3  0  0  0  0  0  0
  191.6810  176.8280  146.3920 C   0  0  0  0  0  1  0  0  0  0  0  0
  189.5690  177.7200  142.4730 O   0  0  0  0  0  1  0  0  0  0  0  0
  188.1980  177.5390  145.0550 C   0  0  0  0  0  0  0  0  0  0  0  0
  188.0740  177.1560  147.4650 C   0  0  0  0  0  3  0  0  0  0  0  0
  186.1200  178.0430  143.8650 C   0  0  0  0  0  0  0  0  0  0  0  0
  186.1040  177.6350  146.2310 N   0  0  0  0  0  0  0  0  0  0  0  0
  190.2110  177.0430  146.3440 C   0  0  0  0  0  0  0  0  0  0  0  0
  186.1210  178.3870  141.4980 N   0  0  0  0  0  0  0  0  0  0  0  0
  185.4250  178.3360  142.6650 C   0  0  0  0  0  0  0  0  0  0  0  0
  188.1940  177.9170  142.5850 C   0  0  0  0  0  0  0  0  0  0  0  0
  185.4420  177.9230  145.0850 C   0  0  0  0  0  3  0  0  0  0  0  0
  181.9100  178.6280  141.2840 C   0  0  0  0  0  0  0  0  0  0  0  0
  181.2050  179.1130  142.3870 C   0  0  0  0  0  3  0  0  0  0  0  0
  183.9590  178.5830  142.5980 C   0  0  0  0  0  0  0  0  0  0  0  0
  181.8700  179.3430  143.5930 C   0  0  0  0  0  3  0  0  0  0  0  0
  183.2800  178.3710  141.3880 C   0  0  0  0  0  3  0  0  0  0  0  0
  183.2400  179.0840  143.6960 C   0  0  0  0  0  3  0  0  0  0  0  0
  181.2670  178.4110  140.1110 F   0  0  0  0  0  0  0  0  0  0  0  0
  188.1290  178.2530  140.0960 C   0  0  0  0  0  2  0  0  0  0  0  0
  187.1490  178.5560  139.0690 N   0  0  0  0  0  2  0  0  0  0  0  0
  187.5810  177.8720  137.8660 C   0  0  0  0  0  2  0  0  0  0  0  0
  186.4200  177.7740  136.8960 C   0  0  0  0  0  2  0  0  0  0  0  0
  183.5670  177.8780  137.7210 C   0  0  0  0  0  1  0  0  0  0  0  0
  185.6340  176.5300  137.1570 C   0  0  0  0  0  0  0  0  0  0  0  0
  184.2790  176.5800  137.5370 C   0  0  0  0  0  0  0  0  0  0  0  0
  184.2090  174.1560  137.5940 C   0  0  0  0  0  3  0  0  0  0  0  0
  185.5510  174.1050  137.2100 C   0  0  0  0  0  3  0  0  0  0  0  0
  186.2610  175.2890  136.9910 C   0  0  0  0  0  3  0  0  0  0  0  0
  183.5740  175.3910  137.7560 C   0  0  0  0  0  3  0  0  0  0  0  0
  1  9  2  0  0  0  0
  2 12  1  0  0  0  0
  3 10  1  0  0  0  0
  3  8  1  0  0  0  0
  4 13  2  0  0  0  0
  4 15  1  0  0  0  0
  7 15  1  0  0  0  0
  8  2  2  0  0  0  0
  8  1  1  0  0  0  0
  9  5  1  0  0  0  0
 10 16  1  0  0  0  0
 11  1  1  0  0  0  0
 12  6  1  0  0  0  0
 12  5  2  0  0  0  0
 13 14  1  0  0  0  0
 14 10  2  0  0  0  0
 15  3  2  0  0  0  0
 16 11  2  0  0  0  0
 17 21  2  0  0  0  0
 17 18  1  0  0  0  0
 18 20  2  0  0  0  0
 19 14  1  0  0  0  0
 19 22  2  0  0  0  0
 20 22  1  0  0  0  0
 21 19  1  0  0  0  0
 23 17  1  0  0  0  0
 24  4  1  0  0  0  0
 25 24  1  0  0  0  0
 26 25  1  0  0  0  0
 27 29  1  0  0  0  0
 27 26  1  0  0  0  0
 29 30  1  0  0  0  0
 30 28  1  0  0  0  0
 30 34  2  0  0  0  0
 31 34  1  0  0  0  0
 32 31  2  0  0  0  0
 33 29  2  0  0  0  0
 33 32  1  0  0  0  0
M  END
>  <MODEL>
4

>  <REMARK>
 VINA RESULT:      -9.5      3.315      8.346
  Name = 
  6 active torsions:
  status: ('A' for Active; 'I' for Inactive)
    1  A    between atoms: C_3  and  C_13
    2  A    between atoms: C_3  and  C_17
    3  A    between atoms: C_5  and  C_18
    4  A    between atoms: C_12  and  C_28
    5  A    between atoms: C_17  and  N_29
    6  A    between atoms: C_18  and  N_29
                            x       y       z     vdW  Elec       q    Type
                         _______ _______ _______ _____ _____    ______ ____

>  <TORSDO>
F 6

$$$$
=
 OpenBabel11052414123D

 34 38  0  0  0  0  0  0  0  0999 V2000
  190.6790  176.8550  144.7610 C   0  0  0  0  0  0  0  0  0  0  0  0
  188.6970  177.5530  145.9650 C   0  0  0  0  0  3  0  0  0  0  0  0
  188.7350  177.6170  143.4830 C   0  0  0  0  0  0  0  0  0  0  0  0
  186.8920  178.3910  142.0920 C   0  0  0  0  0  0  0  0  0  0  0  0
  190.6430  176.7950  147.1830 C   0  0  0  0  0  3  0  0  0  0  0  0
  188.6210  177.5060  148.4600 C   0  0  0  0  0  1  0  0  0  0  0  0
  186.6380  178.4190  144.4800 O   0  0  0  0  0  1  0  0  0  0  0  0
  189.3520  177.3480  144.7370 C   0  0  0  0  0  0  0  0  0  0  0  0
  191.3140  176.5840  145.9770 C   0  0  0  0  0  3  0  0  0  0  0  0
  189.4730  177.3620  142.2930 C   0  0  0  0  0  0  0  0  0  0  0  0
  191.3520  176.6450  143.6040 N   0  0  0  0  0  0  0  0  0  0  0  0
  189.3360  177.2790  147.1770 C   0  0  0  0  0  0  0  0  0  0  0  0
  187.6280  178.1380  140.9830 N   0  0  0  0  0  0  0  0  0  0  0  0
  188.8860  177.6230  141.0290 C   0  0  0  0  0  0  0  0  0  0  0  0
  187.4220  178.1390  143.3620 C   0  0  0  0  0  0  0  0  0  0  0  0
  190.7860  176.8860  142.3980 C   0  0  0  0  0  3  0  0  0  0  0  0
  189.7940  177.8850  137.3610 C   0  0  0  0  0  0  0  0  0  0  0  0
  190.7740  176.8980  137.2350 C   0  0  0  0  0  3  0  0  0  0  0  0
  189.5720  177.3770  139.7330 C   0  0  0  0  0  0  0  0  0  0  0  0
  191.1510  176.1430  138.3480 C   0  0  0  0  0  3  0  0  0  0  0  0
  189.1930  178.1180  138.6020 C   0  0  0  0  0  3  0  0  0  0  0  0
  190.5490  176.3780  139.5870 C   0  0  0  0  0  3  0  0  0  0  0  0
  189.4230  178.6140  136.2810 F   0  0  0  0  0  0  0  0  0  0  0  0
  185.5290  178.9750  141.9360 C   0  0  0  0  0  2  0  0  0  0  0  0
  185.3210  179.3690  140.5540 N   0  0  0  0  0  2  0  0  0  0  0  0
  183.9590  179.0030  140.2180 C   0  0  0  0  0  2  0  0  0  0  0  0
  183.3660  178.1770  141.3430 C   0  0  0  0  0  2  0  0  0  0  0  0
  182.5370  178.9210  144.0980 C   0  0  0  0  0  1  0  0  0  0  0  0
  181.9780  178.6400  141.6450 C   0  0  0  0  0  0  0  0  0  0  0  0
  181.5890  179.0030  142.9490 C   0  0  0  0  0  0  0  0  0  0  0  0
  179.3680  179.5370  142.1340 C   0  0  0  0  0  3  0  0  0  0  0  0
  179.7540  179.1840  140.8400 C   0  0  0  0  0  3  0  0  0  0  0  0
  181.0560  178.7380  140.5960 C   0  0  0  0  0  3  0  0  0  0  0  0
  180.2840  179.4480  143.1870 C   0  0  0  0  0  3  0  0  0  0  0  0
  1  9  2  0  0  0  0
  2 12  1  0  0  0  0
  3  8  1  0  0  0  0
  4 15  2  0  0  0  0
  8  1  1  0  0  0  0
  8  2  2  0  0  0  0
  9  5  1  0  0  0  0
 10 16  1  0  0  0  0
 10  3  2  0  0  0  0
 11  1  1  0  0  0  0
 12  5  2  0  0  0  0
 12  6  1  0  0  0  0
 13 14  2  0  0  0  0
 13  4  1  0  0  0  0
 14 10  1  0  0  0  0
 15  3  1  0  0  0  0
 15  7  1  0  0  0  0
 16 11  2  0  0  0  0
 17 21  1  0  0  0  0
 18 17  2  0  0  0  0
 18 20  1  0  0  0  0
 19 14  1  0  0  0  0
 20 22  2  0  0  0  0
 21 19  2  0  0  0  0
 22 19  1  0  0  0  0
 23 17  1  0  0  0  0
 24  4  1  0  0  0  0
 25 24  1  0  0  0  0
 26 25  1  0  0  0  0
 26 27  1  0  0  0  0
 27 29  1  0  0  0  0
 29 30  1  0  0  0  0
 30 34  2  0  0  0  0
 30 28  1  0  0  0  0
 31 34  1  0  0  0  0
 32 31  2  0  0  0  0
 33 32  1  0  0  0  0
 33 29  2  0  0  0  0
M  END
>  <MODEL>
5

>  <REMARK>
 VINA RESULT:      -9.4      2.191      7.852
  Name = 
  6 active torsions:
  status: ('A' for Active; 'I' for Inactive)
    1  A    between atoms: C_3  and  C_13
    2  A    between atoms: C_3  and  C_17
    3  A    between atoms: C_5  and  C_18
    4  A    between atoms: C_12  and  C_28
    5  A    between atoms: C_17  and  N_29
    6  A    between atoms: C_18  and  N_29
                            x       y       z     vdW  Elec       q    Type
                         _______ _______ _______ _____ _____    ______ ____

>  <TORSDO>
F 6

$$$$
=
 OpenBabel11052414123D

 34 38  0  0  0  0  0  0  0  0999 V2000
  187.4960  177.4650  146.3820 C   0  0  0  0  0  0  0  0  0  0  0  0
  189.5930  177.3120  145.1790 C   0  0  0  0  0  3  0  0  0  0  0  0
  187.4950  177.8460  143.9630 C   0  0  0  0  0  0  0  0  0  0  0  0
  187.3430  178.2040  141.5600 C   0  0  0  0  0  0  0  0  0  0  0  0
  189.5440  176.9410  147.5680 C   0  0  0  0  0  3  0  0  0  0  0  0
  191.7230  176.7750  146.3660 C   0  0  0  0  0  1  0  0  0  0  0  0
  189.4810  177.6950  142.5270 O   0  0  0  0  0  1  0  0  0  0  0  0
  188.2060  177.5420  145.1580 C   0  0  0  0  0  0  0  0  0  0  0  0
  188.1660  177.1650  147.5730 C   0  0  0  0  0  3  0  0  0  0  0  0
  186.0930  178.0780  144.0460 C   0  0  0  0  0  0  0  0  0  0  0  0
  186.1590  177.6740  146.4120 N   0  0  0  0  0  0  0  0  0  0  0  0
  190.2570  177.0150  146.3720 C   0  0  0  0  0  0  0  0  0  0  0  0
  186.0110  178.4170  141.6800 N   0  0  0  0  0  0  0  0  0  0  0  0
  185.3580  178.3800  142.8720 C   0  0  0  0  0  0  0  0  0  0  0  0
  188.1150  177.9150  142.6900 C   0  0  0  0  0  0  0  0  0  0  0  0
  185.4600  177.9710  145.2910 C   0  0  0  0  0  3  0  0  0  0  0  0
  181.8300  178.8920  141.5930 C   0  0  0  0  0  0  0  0  0  0  0  0
  181.1460  179.2380  142.7610 C   0  0  0  0  0  3  0  0  0  0  0  0
  183.8950  178.6510  142.8600 C   0  0  0  0  0  0  0  0  0  0  0  0
  181.8300  179.2990  143.9770 C   0  0  0  0  0  3  0  0  0  0  0  0
  183.1970  178.6070  141.6420 C   0  0  0  0  0  3  0  0  0  0  0  0
  183.1970  179.0130  144.0240 C   0  0  0  0  0  3  0  0  0  0  0  0
  181.1680  178.8380  140.4120 F   0  0  0  0  0  0  0  0  0  0  0  0
  187.9620  178.2470  140.2040 C   0  0  0  0  0  2  0  0  0  0  0  0
  186.9300  178.4430  139.2020 N   0  0  0  0  0  2  0  0  0  0  0  0
  187.5630  178.2520  137.9100 C   0  0  0  0  0  2  0  0  0  0  0  0
  189.0560  178.4840  138.0410 C   0  0  0  0  0  2  0  0  0  0  0  0
  191.2680  176.8440  139.1570 C   0  0  0  0  0  1  0  0  0  0  0  0
  189.8050  177.5030  137.1990 C   0  0  0  0  0  0  0  0  0  0  0  0
  190.8460  176.7180  137.7320 C   0  0  0  0  0  0  0  0  0  0  0  0
  191.1430  175.6530  135.5740 C   0  0  0  0  0  3  0  0  0  0  0  0
  190.1070  176.4260  135.0460 C   0  0  0  0  0  3  0  0  0  0  0  0
  189.4390  177.3470  135.8570 C   0  0  0  0  0  3  0  0  0  0  0  0
  191.5110  175.7980  136.9150 C   0  0  0  0  0  3  0  0  0  0  0  0
  1 11  1  0  0  0  0
  1  9  2  0  0  0  0
  2 12  1  0  0  0  0
  3 10  1  0  0  0  0
  3  8  1  0  0  0  0
  4 13  2  0  0  0  0
  4 15  1  0  0  0  0
  5  9  1  0  0  0  0
  6 12  1  0  0  0  0
  7 15  1  0  0  0  0
  8  2  2  0  0  0  0
  8  1  1  0  0  0  0
 10 16  1  0  0  0  0
 12  5  2  0  0  0  0
 13 14  1  0  0  0  0
 14 10  2  0  0  0  0
 15  3  2  0  0  0  0
 16 11  2  0  0  0  0
 17 21  2  0  0  0  0
 17 18  1  0  0  0  0
 18 20  2  0  0  0  0
 19 14  1  0  0  0  0
 19 22  2  0  0  0  0
 20 22  1  0  0  0  0
 21 19  1  0  0  0  0
 23 17  1  0  0  0  0
 24  4  1  0  0  0  0
 25 24  1  0  0  0  0
 26 27  1  0  0  0  0
 26 25  1  0  0  0  0
 29 30  1  0  0  0  0
 29 27  1  0  0  0  0
 30 28  1  0  0  0  0
 31 34  1  0  0  0  0
 32 31  2  0  0  0  0
 32 33  1  0  0  0  0
 33 29  2  0  0  0  0
 34 30  2  0  0  0  0
M  END
>  <MODEL>
6

>  <REMARK>
 VINA RESULT:      -9.4      3.106      7.880
  Name = 
  6 active torsions:
  status: ('A' for Active; 'I' for Inactive)
    1  A    between atoms: C_3  and  C_13
    2  A    between atoms: C_3  and  C_17
    3  A    between atoms: C_5  and  C_18
    4  A    between atoms: C_12  and  C_28
    5  A    between atoms: C_17  and  N_29
    6  A    between atoms: C_18  and  N_29
                            x       y       z     vdW  Elec       q    Type
                         _______ _______ _______ _____ _____    ______ ____

>  <TORSDO>
F 6

$$$$
=
 OpenBabel11052414123D

 34 38  0  0  0  0  0  0  0  0999 V2000
  186.4100  178.0430  137.2100 C   0  0  0  0  0  0  0  0  0  0  0  0
  188.7910  177.6190  137.0780 C   0  0  0  0  0  3  0  0  0  0  0  0
  187.7120  177.9920  139.2840 C   0  0  0  0  0  0  0  0  0  0  0  0
  188.8910  178.0120  141.4140 C   0  0  0  0  0  0  0  0  0  0  0  0
  187.4640  177.6810  135.0590 C   0  0  0  0  0  3  0  0  0  0  0  0
  189.9130  177.2400  134.8810 C   0  0  0  0  0  1  0  0  0  0  0  0
  190.1390  177.6320  139.3980 O   0  0  0  0  0  1  0  0  0  0  0  0
  187.6560  177.8820  137.8660 C   0  0  0  0  0  0  0  0  0  0  0  0
  186.3230  177.9430  135.8180 C   0  0  0  0  0  3  0  0  0  0  0  0
  186.5050  178.2450  139.9950 C   0  0  0  0  0  0  0  0  0  0  0  0
  185.2900  178.3020  137.9250 N   0  0  0  0  0  0  0  0  0  0  0  0
  188.6970  177.5180  135.6890 C   0  0  0  0  0  0  0  0  0  0  0  0
  187.7220  178.2550  142.0540 N   0  0  0  0  0  0  0  0  0  0  0  0
  186.5310  178.3630  141.4080 C   0  0  0  0  0  0  0  0  0  0  0  0
  188.9170  177.8750  140.0220 C   0  0  0  0  0  0  0  0  0  0  0  0
  185.3140  178.4060  139.2750 C   0  0  0  0  0  3  0  0  0  0  0  0
  184.3470  179.0240  144.4310 C   0  0  0  0  0  0  0  0  0  0  0  0
  183.0670  179.0060  143.8730 C   0  0  0  0  0  3  0  0  0  0  0  0
  185.3220  178.6130  142.2370 C   0  0  0  0  0  0  0  0  0  0  0  0
  182.9070  178.7840  142.5030 C   0  0  0  0  0  3  0  0  0  0  0  0
  185.4660  178.8220  143.6180 C   0  0  0  0  0  3  0  0  0  0  0  0
  184.0280  178.5840  141.6920 C   0  0  0  0  0  3  0  0  0  0  0  0
  184.5030  179.2330  145.7600 F   0  0  0  0  0  0  0  0  0  0  0  0
  190.1470  177.9300  142.2120 C   0  0  0  0  0  2  0  0  0  0  0  0
  190.5400  176.5400  142.3660 N   0  0  0  0  0  2  0  0  0  0  0  0
  189.9620  176.0800  143.6140 C   0  0  0  0  0  2  0  0  0  0  0  0
  190.6570  176.7660  144.7740 C   0  0  0  0  0  2  0  0  0  0  0  0
  191.3670  176.7520  147.6600 C   0  0  0  0  0  1  0  0  0  0  0  0
  189.6620  177.1310  145.8280 C   0  0  0  0  0  0  0  0  0  0  0  0
  190.0030  177.1350  147.1940 C   0  0  0  0  0  0  0  0  0  0  0  0
  187.7570  177.8650  147.7480 C   0  0  0  0  0  3  0  0  0  0  0  0
  187.4200  177.8680  146.3930 C   0  0  0  0  0  3  0  0  0  0  0  0
  188.3710  177.5030  145.4350 C   0  0  0  0  0  3  0  0  0  0  0  0
  189.0460  177.5010  148.1480 C   0  0  0  0  0  3  0  0  0  0  0  0
  1  8  2  0  0  0  0
  1 11  1  0  0  0  0
  2  8  1  0  0  0  0
  3 10  2  0  0  0  0
  3 15  1  0  0  0  0
  4 13  1  0  0  0  0
  4 24  1  0  0  0  0
  5 12  1  0  0  0  0
  5  9  2  0  0  0  0
  6 12  1  0  0  0  0
  7 15  1  0  0  0  0
  8  3  1  0  0  0  0
  9  1  1  0  0  0  0
 10 14  1  0  0  0  0
 11 16  2  0  0  0  0
 12  2  2  0  0  0  0
 14 13  2  0  0  0  0
 14 19  1  0  0  0  0
 15  4  2  0  0  0  0
 16 10  1  0  0  0  0
 17 23  1  0  0  0  0
 18 17  1  0  0  0  0
 19 21  1  0  0  0  0
 20 18  2  0  0  0  0
 21 17  2  0  0  0  0
 22 19  2  0  0  0  0
 22 20  1  0  0  0  0
 24 25  1  0  0  0  0
 25 26  1  0  0  0  0
 26 27  1  0  0  0  0
 27 29  1  0  0  0  0
 29 30  1  0  0  0  0
 30 28  1  0  0  0  0
 30 34  2  0  0  0  0
 31 34  1  0  0  0  0
 32 31  2  0  0  0  0
 33 29  2  0  0  0  0
 33 32  1  0  0  0  0
M  END
>  <MODEL>
7

>  <REMARK>
 VINA RESULT:      -9.3      3.262      6.238
  Name = 
  6 active torsions:
  status: ('A' for Active; 'I' for Inactive)
    1  A    between atoms: C_3  and  C_13
    2  A    between atoms: C_3  and  C_17
    3  A    between atoms: C_5  and  C_18
    4  A    between atoms: C_12  and  C_28
    5  A    between atoms: C_17  and  N_29
    6  A    between atoms: C_18  and  N_29
                            x       y       z     vdW  Elec       q    Type
                         _______ _______ _______ _____ _____    ______ ____

>  <TORSDO>
F 6

$$$$
=
 OpenBabel11052414123D

 34 38  0  0  0  0  0  0  0  0999 V2000
  190.4030  177.0100  144.9100 C   0  0  0  0  0  0  0  0  0  0  0  0
  188.3890  177.6300  146.1050 C   0  0  0  0  0  3  0  0  0  0  0  0
  188.4410  177.7120  143.6230 C   0  0  0  0  0  0  0  0  0  0  0  0
  186.5820  178.4300  142.2250 C   0  0  0  0  0  0  0  0  0  0  0  0
  190.3520  176.9310  147.3310 C   0  0  0  0  0  3  0  0  0  0  0  0
  188.2980  177.5620  148.5990 C   0  0  0  0  0  1  0  0  0  0  0  0
  186.3110  178.4330  144.6110 O   0  0  0  0  0  1  0  0  0  0  0  0
  189.0590  177.4560  144.8800 C   0  0  0  0  0  0  0  0  0  0  0  0
  191.0380  176.7530  146.1280 C   0  0  0  0  0  3  0  0  0  0  0  0
  189.1960  177.4920  142.4370 C   0  0  0  0  0  0  0  0  0  0  0  0
  191.0900  176.8320  143.7560 N   0  0  0  0  0  0  0  0  0  0  0  0
  189.0290  177.3700  147.3190 C   0  0  0  0  0  0  0  0  0  0  0  0
  187.3330  178.2110  141.1200 N   0  0  0  0  0  0  0  0  0  0  0  0
  188.6080  177.7410  141.1710 C   0  0  0  0  0  0  0  0  0  0  0  0
  187.1110  178.1890  143.4970 C   0  0  0  0  0  0  0  0  0  0  0  0
  190.5240  177.0620  142.5480 C   0  0  0  0  0  3  0  0  0  0  0  0
  189.6750  178.2040  137.5660 C   0  0  0  0  0  0  0  0  0  0  0  0
  190.5450  177.1280  137.3820 C   0  0  0  0  0  3  0  0  0  0  0  0
  189.3110  177.5280  139.8780 C   0  0  0  0  0  0  0  0  0  0  0  0
  190.7970  176.2460  138.4350 C   0  0  0  0  0  3  0  0  0  0  0  0
  189.0570  178.3980  138.8050 C   0  0  0  0  0  3  0  0  0  0  0  0
  190.1790  176.4430  139.6730 C   0  0  0  0  0  3  0  0  0  0  0  0
  189.4250  179.0560  136.5430 F   0  0  0  0  0  0  0  0  0  0  0  0
  185.2000  178.9670  142.0640 C   0  0  0  0  0  2  0  0  0  0  0  0
  184.9920  179.3780  140.6870 N   0  0  0  0  0  2  0  0  0  0  0  0
  183.7920  178.7050  140.2280 C   0  0  0  0  0  2  0  0  0  0  0  0
  183.6890  178.8290  138.7200 C   0  0  0  0  0  2  0  0  0  0  0  0
  182.2890  176.2400  138.3080 C   0  0  0  0  0  1  0  0  0  0  0  0
  184.3640  177.6690  138.0610 C   0  0  0  0  0  0  0  0  0  0  0  0
  183.6950  176.4460  137.8560 C   0  0  0  0  0  0  0  0  0  0  0  0
  185.6760  175.5480  136.7830 C   0  0  0  0  0  3  0  0  0  0  0  0
  186.3370  176.7620  136.9800 C   0  0  0  0  0  3  0  0  0  0  0  0
  185.6820  177.8200  137.6160 C   0  0  0  0  0  3  0  0  0  0  0  0
  184.3570  175.3910  137.2190 C   0  0  0  0  0  3  0  0  0  0  0  0
  1  9  2  0  0  0  0
  2 12  1  0  0  0  0
  3  8  1  0  0  0  0
  4 15  2  0  0  0  0
  8  1  1  0  0  0  0
  8  2  2  0  0  0  0
  9  5  1  0  0  0  0
 10 16  1  0  0  0  0
 10  3  2  0  0  0  0
 11  1  1  0  0  0  0
 12  5  2  0  0  0  0
 12  6  1  0  0  0  0
 13 14  2  0  0  0  0
 13  4  1  0  0  0  0
 14 10  1  0  0  0  0
 15  3  1  0  0  0  0
 15  7  1  0  0  0  0
 16 11  2  0  0  0  0
 17 21  1  0  0  0  0
 18 17  2  0  0  0  0
 18 20  1  0  0  0  0
 19 14  1  0  0  0  0
 20 22  2  0  0  0  0
 21 19  2  0  0  0  0
 22 19  1  0  0  0  0
 23 17  1  0  0  0  0
 24  4  1  0  0  0  0
 25 24  1  0  0  0  0
 26 25  1  0  0  0  0
 27 26  1  0  0  0  0
 29 27  1  0  0  0  0
 30 29  1  0  0  0  0
 30 28  1  0  0  0  0
 31 32  2  0  0  0  0
 31 34  1  0  0  0  0
 32 33  1  0  0  0  0
 33 29  2  0  0  0  0
 34 30  2  0  0  0  0
M  END
>  <MODEL>
8

>  <REMARK>
 VINA RESULT:      -9.2      2.841      7.717
  Name = 
  6 active torsions:
  status: ('A' for Active; 'I' for Inactive)
    1  A    between atoms: C_3  and  C_13
    2  A    between atoms: C_3  and  C_17
    3  A    between atoms: C_5  and  C_18
    4  A    between atoms: C_12  and  C_28
    5  A    between atoms: C_17  and  N_29
    6  A    between atoms: C_18  and  N_29
                            x       y       z     vdW  Elec       q    Type
                         _______ _______ _______ _____ _____    ______ ____

>  <TORSDO>
F 6

$$$$
=
 OpenBabel11052414123D

 34 38  0  0  0  0  0  0  0  0999 V2000
  184.3040  178.5070  144.0450 C   0  0  0  0  0  0  0  0  0  0  0  0
  183.1760  178.8420  141.9270 C   0  0  0  0  0  3  0  0  0  0  0  0
  185.6140  178.3710  141.9800 C   0  0  0  0  0  0  0  0  0  0  0  0
  187.0420  178.2530  140.0120 C   0  0  0  0  0  0  0  0  0  0  0  0
  181.9250  178.9670  143.9930 C   0  0  0  0  0  3  0  0  0  0  0  0
  180.7270  179.3180  141.8330 C   0  0  0  0  0  1  0  0  0  0  0  0
  184.7040  178.7240  139.7260 O   0  0  0  0  0  1  0  0  0  0  0  0
  184.3640  178.5740  142.6310 C   0  0  0  0  0  0  0  0  0  0  0  0
  183.0910  178.7040  144.7130 C   0  0  0  0  0  3  0  0  0  0  0  0
  186.7580  178.0910  142.7780 C   0  0  0  0  0  0  0  0  0  0  0  0
  185.4220  178.2560  144.7660 N   0  0  0  0  0  0  0  0  0  0  0  0
  181.9680  179.0360  142.6010 C   0  0  0  0  0  0  0  0  0  0  0  0
  188.1070  177.9900  140.8060 N   0  0  0  0  0  0  0  0  0  0  0  0
  188.0170  177.8880  142.1580 C   0  0  0  0  0  0  0  0  0  0  0  0
  185.7760  178.4490  140.5740 C   0  0  0  0  0  0  0  0  0  0  0  0
  186.6220  178.0530  144.1720 C   0  0  0  0  0  3  0  0  0  0  0  0
  191.3110  178.3640  143.9670 C   0  0  0  0  0  0  0  0  0  0  0  0
  191.6810  177.0460  144.2460 C   0  0  0  0  0  3  0  0  0  0  0  0
  189.2650  177.5770  142.9060 C   0  0  0  0  0  0  0  0  0  0  0  0
  190.8540  175.9920  143.8520 C   0  0  0  0  0  3  0  0  0  0  0  0
  190.1130  178.6260  143.2960 C   0  0  0  0  0  3  0  0  0  0  0  0
  189.6570  176.2560  143.1810 C   0  0  0  0  0  3  0  0  0  0  0  0
  192.1150  179.3870  144.3430 F   0  0  0  0  0  0  0  0  0  0  0  0
  187.2480  178.3650  138.5390 C   0  0  0  0  0  2  0  0  0  0  0  0
  187.4860  177.0480  137.9770 N   0  0  0  0  0  2  0  0  0  0  0  0
  188.7630  177.1120  137.2920 C   0  0  0  0  0  2  0  0  0  0  0  0
  189.5870  175.8900  137.6470 C   0  0  0  0  0  2  0  0  0  0  0  0
  192.2400  175.6110  136.3370 C   0  0  0  0  0  1  0  0  0  0  0  0
  190.8480  176.3010  138.3350 C   0  0  0  0  0  0  0  0  0  0  0  0
  192.1040  176.1790  137.7090 C   0  0  0  0  0  0  0  0  0  0  0  0
  193.1700  177.1280  139.6700 C   0  0  0  0  0  3  0  0  0  0  0  0
  191.9250  177.2560  140.2890 C   0  0  0  0  0  3  0  0  0  0  0  0
  190.7670  176.8450  139.6230 C   0  0  0  0  0  3  0  0  0  0  0  0
  193.2590  176.5920  138.3820 C   0  0  0  0  0  3  0  0  0  0  0  0
  1  9  1  0  0  0  0
  1 11  1  0  0  0  0
  2 12  2  0  0  0  0
  2  8  1  0  0  0  0
  3  8  1  0  0  0  0
  3 10  1  0  0  0  0
  4 15  1  0  0  0  0
  4 13  2  0  0  0  0
  5  9  2  0  0  0  0
  6 12  1  0  0  0  0
  7 15  1  0  0  0  0
  8  1  2  0  0  0  0
 10 16  1  0  0  0  0
 12  5  1  0  0  0  0
 13 14  1  0  0  0  0
 14 10  2  0  0  0  0
 14 19  1  0  0  0  0
 15  3  2  0  0  0  0
 16 11  2  0  0  0  0
 17 18  1  0  0  0  0
 17 23  1  0  0  0  0
 19 22  2  0  0  0  0
 19 21  1  0  0  0  0
 20 18  2  0  0  0  0
 21 17  2  0  0  0  0
 22 20  1  0  0  0  0
 24  4  1  0  0  0  0
 25 24  1  0  0  0  0
 26 27  1  0  0  0  0
 26 25  1  0  0  0  0
 27 29  1  0  0  0  0
 28 30  1  0  0  0  0
 29 33  1  0  0  0  0
 30 29  2  0  0  0  0
 30 34  1  0  0  0  0
 31 32  1  0  0  0  0
 33 32  2  0  0  0  0
 34 31  2  0  0  0  0
M  END
>  <MODEL>
9

>  <REMARK>
 VINA RESULT:      -9.2      2.662      5.644
  Name = 
  6 active torsions:
  status: ('A' for Active; 'I' for Inactive)
    1  A    between atoms: C_3  and  C_13
    2  A    between atoms: C_3  and  C_17
    3  A    between atoms: C_5  and  C_18
    4  A    between atoms: C_12  and  C_28
    5  A    between atoms: C_17  and  N_29
    6  A    between atoms: C_18  and  N_29
                            x       y       z     vdW  Elec       q    Type
                         _______ _______ _______ _____ _____    ______ ____

>  <TORSDO>
F 6

$$$$
