=
 OpenBabel11052412243D

 30 32  0  0  1  0  0  0  0  0999 V2000
  188.1310  177.6350  140.5230 C   0  0  0  0  0  2  0  0  0  0  0  0
  188.4850  178.2480  139.2350 C   0  0  2  0  0  3  0  0  0  0  0  0
  187.4000  178.5030  141.3650 C   0  0  0  0  0  2  0  0  0  0  0  0
  187.1010  178.2210  136.1040 O   0  0  0  0  0  0  0  0  0  0  0  0
  182.3590  178.0860  139.1420 O   0  0  0  0  0  0  0  0  0  0  0  0
  187.3040  178.2860  138.2130 C   0  0  2  0  0  3  0  0  0  0  0  0
  186.3340  177.1390  136.6560 C   0  0  2  0  0  0  0  0  0  0  0  0
  187.0060  176.9620  137.8790 O   0  0  0  0  0  0  0  0  0  0  0  0
  187.2660  179.0620  137.0850 O   0  0  0  0  0  0  0  0  0  0  0  0
  183.3970  177.4580  139.3770 C   0  0  0  0  0  0  0  0  0  0  0  0
  183.9170  177.6000  140.6850 N   0  0  0  0  0  2  0  0  0  0  0  0
  186.4830  176.0730  135.8750 O   0  0  0  0  0  1  0  0  0  0  0  0
  185.4530  178.0720  142.7420 C   0  0  2  0  0  3  0  0  0  0  0  0
  184.8590  177.5530  136.9570 C   0  0  0  0  0  2  0  0  0  0  0  0
  186.9360  178.2280  142.7570 C   0  0  1  0  0  3  0  0  0  0  0  0
  183.1900  178.1710  141.8920 C   0  0  1  0  0  3  0  0  0  0  0  0
  185.1440  179.5980  142.6810 C   0  0  0  0  0  2  0  0  0  0  0  0
  184.1630  176.3330  138.1360 S   0  0  0  0  0  0  0  0  0  0  0  0
  184.0900  178.6500  143.0370 C   0  0  2  0  0  3  0  0  0  0  0  0
  187.4110  177.0730  143.6480 C   0  0  0  0  0  0  0  0  0  0  0  0
  188.2430  176.2770  143.0970 C   0  0  0  0  0  2  0  0  0  0  0  0
  186.2970  177.4330  146.0290 O   0  0  0  0  0  1  0  0  0  0  0  0
  187.4370  177.3190  145.1560 C   0  0  0  0  0  0  0  0  0  0  0  0
  188.5080  177.7760  145.6230 O   0  0  0  0  0  0  0  0  0  0  0  0
  189.7960  177.7270  138.7870 C   0  0  0  0  0  2  0  0  0  0  0  0
  190.0610  176.7150  139.7560 O   0  0  0  0  0  1  0  0  0  0  0  0
  182.1370  179.0700  141.6820 O   0  0  0  0  0  0  0  0  0  0  0  0
  181.3250  179.0180  142.8250 C   0  0  0  0  0  2  0  0  0  0  0  0
  180.0580  179.6600  142.5460 C   0  0  0  0  0  3  0  0  0  0  0  0
  179.9730  180.8410  142.7650 O   0  0  0  0  0  0  0  0  0  0  0  0
  1  3  1  0  0  0  0
  2 25  1  6  0  0  0
  2  1  1  0  0  0  0
  3 15  1  0  0  0  0
  4  7  1  0  0  0  0
  4  9  1  0  0  0  0
  5 10  2  0  0  0  0
  6  9  1  6  0  0  0
  6  2  1  0  0  0  0
  7 12  1  6  0  0  0
  7 14  1  0  0  0  0
  7  8  1  0  0  0  0
  8  6  1  0  0  0  0
 10 11  1  0  0  0  0
 11 16  1  0  0  0  0
 13 17  1  6  0  0  0
 13 15  1  0  0  0  0
 13 19  1  0  0  0  0
 14 18  1  0  0  0  0
 15 20  1  6  0  0  0
 16 27  1  6  0  0  0
 16 19  1  0  0  0  0
 18 10  1  0  0  0  0
 19 17  1  6  0  0  0
 20 23  1  0  0  0  0
 21 20  2  0  0  0  0
 23 24  2  0  0  0  0
 23 22  1  0  0  0  0
 25 26  1  0  0  0  0
 27 28  1  0  0  0  0
 29 30  2  0  0  0  0
 29 28  1  0  0  0  0
M  END
>  <MODEL>
1

>  <REMARK>
 VINA RESULT:      -7.0      0.000      0.000
  Name = 
  6 active torsions:
  status: ('A' for Active; 'I' for Inactive)
    1  A    between atoms: C_2  and  C_20
    2  A    between atoms: C_2  and  C_22
    3  A    between atoms: C_3  and  C_10
    4  A    between atoms: C_4  and  C_27
    5  A    between atoms: C_10  and  O_25
    6  A    between atoms: C_23  and  O_25
                            x       y       z     vdW  Elec       q    Type
                         _______ _______ _______ _____ _____    ______ ____

>  <TORSDO>
F 6

$$$$
=
 OpenBabel11052412243D

 30 32  0  0  1  0  0  0  0  0999 V2000
  184.8070  178.7650  141.1290 C   0  0  0  0  0  2  0  0  0  0  0  0
  184.3810  178.1940  139.8430 C   0  0  2  0  0  3  0  0  0  0  0  0
  185.1900  177.7810  142.0690 C   0  0  0  0  0  2  0  0  0  0  0  0
  185.9310  177.6140  136.8460 O   0  0  0  0  0  0  0  0  0  0  0  0
  190.2780  176.5820  140.2780 O   0  0  0  0  0  0  0  0  0  0  0  0
  185.5690  177.7510  138.9300 C   0  0  2  0  0  3  0  0  0  0  0  0
  186.9400  178.4640  137.4160 C   0  0  2  0  0  0  0  0  0  0  0  0
  186.2640  178.9070  138.5660 O   0  0  0  0  0  0  0  0  0  0  0  0
  185.4590  176.9230  137.8440 O   0  0  0  0  0  0  0  0  0  0  0  0
  189.4550  177.4960  140.3940 C   0  0  0  0  0  0  0  0  0  0  0  0
  188.8250  177.5970  141.6560 N   0  0  0  0  0  2  0  0  0  0  0  0
  187.1640  179.4730  136.5790 O   0  0  0  0  0  1  0  0  0  0  0  0
  187.0760  177.7250  143.5900 C   0  0  2  0  0  3  0  0  0  0  0  0
  188.2040  177.6640  137.8620 C   0  0  0  0  0  2  0  0  0  0  0  0
  185.6150  178.0030  143.4820 C   0  0  1  0  0  3  0  0  0  0  0  0
  189.2650  176.9230  142.9460 C   0  0  1  0  0  3  0  0  0  0  0  0
  186.9290  176.1750  143.6220 C   0  0  0  0  0  2  0  0  0  0  0  0
  189.1400  178.7080  139.0430 S   0  0  0  0  0  0  0  0  0  0  0  0
  188.1860  176.8010  144.0270 C   0  0  2  0  0  3  0  0  0  0  0  0
  185.4360  179.3030  144.2770 C   0  0  0  0  0  0  0  0  0  0  0  0
  184.8150  180.2310  143.6570 C   0  0  0  0  0  2  0  0  0  0  0  0
  186.4550  178.9230  146.6980 O   0  0  0  0  0  1  0  0  0  0  0  0
  185.3600  179.1860  145.7990 C   0  0  0  0  0  0  0  0  0  0  0  0
  184.2200  178.9830  146.2820 O   0  0  0  0  0  0  0  0  0  0  0  0
  183.3150  179.0400  139.2600 C   0  0  0  0  0  2  0  0  0  0  0  0
  183.9580  180.3090  139.1690 O   0  0  0  0  0  1  0  0  0  0  0  0
  190.0230  175.7470  142.8670 O   0  0  0  0  0  0  0  0  0  0  0  0
  191.1370  175.9260  143.7010 C   0  0  0  0  0  2  0  0  0  0  0  0
  191.6830  177.2510  143.4970 C   0  0  0  0  0  3  0  0  0  0  0  0
  191.8890  177.9230  144.4750 O   0  0  0  0  0  0  0  0  0  0  0  0
  1  3  1  0  0  0  0
  2 25  1  6  0  0  0
  2  1  1  0  0  0  0
  3 15  1  0  0  0  0
  4  7  1  0  0  0  0
  4  9  1  0  0  0  0
  5 10  2  0  0  0  0
  6  9  1  6  0  0  0
  6  2  1  0  0  0  0
  7 12  1  6  0  0  0
  7 14  1  0  0  0  0
  7  8  1  0  0  0  0
  8  6  1  0  0  0  0
 10 11  1  0  0  0  0
 11 16  1  0  0  0  0
 13 17  1  6  0  0  0
 13 19  1  0  0  0  0
 14 18  1  0  0  0  0
 15 13  1  0  0  0  0
 15 20  1  6  0  0  0
 16 27  1  6  0  0  0
 16 19  1  0  0  0  0
 18 10  1  0  0  0  0
 19 17  1  6  0  0  0
 20 23  1  0  0  0  0
 21 20  2  0  0  0  0
 23 24  2  0  0  0  0
 23 22  1  0  0  0  0
 26 25  1  0  0  0  0
 27 28  1  0  0  0  0
 29 28  1  0  0  0  0
 29 30  2  0  0  0  0
M  END
>  <MODEL>
2

>  <REMARK>
 VINA RESULT:      -6.5      2.540      5.669
  Name = 
  6 active torsions:
  status: ('A' for Active; 'I' for Inactive)
    1  A    between atoms: C_2  and  C_20
    2  A    between atoms: C_2  and  C_22
    3  A    between atoms: C_3  and  C_10
    4  A    between atoms: C_4  and  C_27
    5  A    between atoms: C_10  and  O_25
    6  A    between atoms: C_23  and  O_25
                            x       y       z     vdW  Elec       q    Type
                         _______ _______ _______ _____ _____    ______ ____

>  <TORSDO>
F 6

$$$$
=
 OpenBabel11052412243D

 30 32  0  0  1  0  0  0  0  0999 V2000
  184.4060  177.5240  137.1060 C   0  0  0  0  0  2  0  0  0  0  0  0
  185.1180  176.3340  136.6190 C   0  0  2  0  0  3  0  0  0  0  0  0
  183.8410  177.3420  138.3890 C   0  0  0  0  0  2  0  0  0  0  0  0
  188.3900  175.3260  136.6310 O   0  0  0  0  0  0  0  0  0  0  0  0
  188.3030  178.0210  141.5770 O   0  0  0  0  0  0  0  0  0  0  0  0
  186.5380  176.1540  137.2460 C   0  0  2  0  0  3  0  0  0  0  0  0
  188.6170  176.6980  136.9920 C   0  0  2  0  0  0  0  0  0  0  0  0
  187.3250  177.2180  136.7970 O   0  0  0  0  0  0  0  0  0  0  0  0
  187.2710  174.9970  137.2110 O   0  0  0  0  0  0  0  0  0  0  0  0
  187.7630  178.3940  140.5300 C   0  0  0  0  0  0  0  0  0  0  0  0
  186.3890  178.7190  140.6310 N   0  0  0  0  0  2  0  0  0  0  0  0
  189.4760  177.2260  136.1250 O   0  0  0  0  0  1  0  0  0  0  0  0
  183.8020  178.8290  140.3030 C   0  0  2  0  0  3  0  0  0  0  0  0
  188.9930  176.8590  138.4980 C   0  0  0  0  0  2  0  0  0  0  0  0
  183.0050  178.3170  139.1510 C   0  0  1  0  0  3  0  0  0  0  0  0
  185.6040  178.9530  141.9110 C   0  0  1  0  0  3  0  0  0  0  0  0
  183.5880  177.5730  141.2000 C   0  0  0  0  0  2  0  0  0  0  0  0
  188.7070  178.6090  138.9640 S   0  0  0  0  0  0  0  0  0  0  0  0
  184.0830  178.8170  141.7850 C   0  0  2  0  0  3  0  0  0  0  0  0
  182.3530  179.5800  138.5740 C   0  0  0  0  0  0  0  0  0  0  0  0
  183.0510  180.6430  138.6860 C   0  0  0  0  0  2  0  0  0  0  0  0
  181.0130  180.3860  136.4300 O   0  0  0  0  0  0  0  0  0  0  0  0
  181.3810  179.3950  137.4090 C   0  0  0  0  0  0  0  0  0  0  0  0
  180.5980  178.4170  137.4920 O   0  0  0  0  0  1  0  0  0  0  0  0
  184.9740  176.2420  135.1490 C   0  0  0  0  0  2  0  0  0  0  0  0
  184.7890  174.8420  134.9550 O   0  0  0  0  0  1  0  0  0  0  0  0
  186.0570  178.3620  143.0980 O   0  0  0  0  0  0  0  0  0  0  0  0
  185.1380  178.7080  144.1000 C   0  0  0  0  0  2  0  0  0  0  0  0
  185.7710  178.5870  145.3960 C   0  0  0  0  0  3  0  0  0  0  0  0
  185.3550  179.2850  146.2840 O   0  0  0  0  0  0  0  0  0  0  0  0
  1  3  1  0  0  0  0
  2 25  1  6  0  0  0
  2  1  1  0  0  0  0
  2  6  1  0  0  0  0
  3 15  1  0  0  0  0
  4  7  1  0  0  0  0
  4  9  1  0  0  0  0
  6  8  1  6  0  0  0
  7 12  1  6  0  0  0
  7 14  1  0  0  0  0
  8  7  1  0  0  0  0
  9  6  1  0  0  0  0
 10 11  1  0  0  0  0
 10  5  2  0  0  0  0
 11 16  1  0  0  0  0
 13 17  1  6  0  0  0
 13 19  1  0  0  0  0
 14 18  1  0  0  0  0
 15 20  1  6  0  0  0
 15 13  1  0  0  0  0
 16 27  1  1  0  0  0
 18 10  1  0  0  0  0
 19 17  1  6  0  0  0
 19 16  1  0  0  0  0
 20 21  2  0  0  0  0
 22 23  2  0  0  0  0
 23 24  1  0  0  0  0
 23 20  1  0  0  0  0
 26 25  1  0  0  0  0
 27 28  1  0  0  0  0
 28 29  1  0  0  0  0
 29 30  2  0  0  0  0
M  END
>  <MODEL>
3

>  <REMARK>
 VINA RESULT:      -6.2      2.564      5.733
  Name = 
  6 active torsions:
  status: ('A' for Active; 'I' for Inactive)
    1  A    between atoms: C_2  and  C_20
    2  A    between atoms: C_2  and  C_22
    3  A    between atoms: C_3  and  C_10
    4  A    between atoms: C_4  and  C_27
    5  A    between atoms: C_10  and  O_25
    6  A    between atoms: C_23  and  O_25
                            x       y       z     vdW  Elec       q    Type
                         _______ _______ _______ _____ _____    ______ ____

>  <TORSDO>
F 6

$$$$
=
 OpenBabel11052412243D

 30 32  0  0  1  0  0  0  0  0999 V2000
  186.5470  177.5920  137.7040 C   0  0  0  0  0  2  0  0  0  0  0  0
  187.7080  177.5420  136.8050 C   0  0  2  0  0  3  0  0  0  0  0  0
  185.3140  177.5970  137.0140 C   0  0  0  0  0  2  0  0  0  0  0  0
  189.7070  175.0340  135.6070 O   0  0  0  0  0  0  0  0  0  0  0  0
  184.8190  172.2380  135.7620 O   0  0  0  0  0  0  0  0  0  0  0  0
  187.9960  176.1180  136.2310 C   0  0  2  0  0  3  0  0  0  0  0  0
  189.0560  174.2760  136.6390 C   0  0  2  0  0  0  0  0  0  0  0  0
  188.3740  175.3090  137.3070 O   0  0  0  0  0  0  0  0  0  0  0  0
  188.7990  175.8510  135.1550 O   0  0  0  0  0  0  0  0  0  0  0  0
  185.2400  173.0240  136.6180 C   0  0  0  0  0  0  0  0  0  0  0  0
  184.3530  174.0630  136.9850 N   0  0  0  0  0  2  0  0  0  0  0  0
  189.9890  173.7410  137.4220 O   0  0  0  0  0  1  0  0  0  0  0  0
  183.2640  176.3860  137.4690 C   0  0  2  0  0  3  0  0  0  0  0  0
  188.0030  173.2770  136.0650 C   0  0  0  0  0  2  0  0  0  0  0  0
  183.9490  177.7040  137.6090 C   0  0  1  0  0  3  0  0  0  0  0  0
  182.8640  174.1330  136.6850 C   0  0  1  0  0  3  0  0  0  0  0  0
  182.8900  176.5740  135.9680 C   0  0  0  0  0  2  0  0  0  0  0  0
  186.8770  172.8020  137.4320 S   0  0  0  0  0  0  0  0  0  0  0  0
  182.2420  175.5310  136.7600 C   0  0  2  0  0  3  0  0  0  0  0  0
  183.6310  178.1230  139.0500 C   0  0  0  0  0  0  0  0  0  0  0  0
  183.4510  177.1550  139.8630 C   0  0  0  0  0  2  0  0  0  0  0  0
  184.0750  180.7330  138.8660 O   0  0  0  0  0  0  0  0  0  0  0  0
  184.1950  179.4590  139.5300 C   0  0  0  0  0  0  0  0  0  0  0  0
  185.1020  179.3980  140.3950 O   0  0  0  0  0  1  0  0  0  0  0  0
  188.8260  178.3050  137.4030 C   0  0  0  0  0  2  0  0  0  0  0  0
  188.2850  178.6860  138.6650 O   0  0  0  0  0  1  0  0  0  0  0  0
  182.3650  173.4280  135.5810 O   0  0  0  0  0  0  0  0  0  0  0  0
  181.1430  172.8660  135.9780 C   0  0  0  0  0  2  0  0  0  0  0  0
  181.3810  171.8640  136.9950 C   0  0  0  0  0  3  0  0  0  0  0  0
  180.5740  171.7700  137.8830 O   0  0  0  0  0  0  0  0  0  0  0  0
  2 25  1  1  0  0  0
  2  1  1  0  0  0  0
  3 15  1  0  0  0  0
  3  1  1  0  0  0  0
  4  7  1  0  0  0  0
  5 10  2  0  0  0  0
  6  9  1  6  0  0  0
  6  2  1  0  0  0  0
  6  8  1  0  0  0  0
  7  8  1  0  0  0  0
  7 12  1  1  0  0  0
  9  4  1  0  0  0  0
 10 11  1  0  0  0  0
 10 18  1  0  0  0  0
 13 17  1  6  0  0  0
 13 15  1  0  0  0  0
 14  7  1  0  0  0  0
 14 18  1  0  0  0  0
 15 20  1  1  0  0  0
 16 27  1  6  0  0  0
 16 19  1  0  0  0  0
 16 11  1  0  0  0  0
 19 17  1  6  0  0  0
 19 13  1  0  0  0  0
 20 23  1  0  0  0  0
 20 21  2  0  0  0  0
 22 23  2  0  0  0  0
 23 24  1  0  0  0  0
 25 26  1  0  0  0  0
 27 28  1  0  0  0  0
 28 29  1  0  0  0  0
 29 30  2  0  0  0  0
M  END
>  <MODEL>
4

>  <REMARK>
 VINA RESULT:      -5.9      3.892      6.057
  Name = 
  6 active torsions:
  status: ('A' for Active; 'I' for Inactive)
    1  A    between atoms: C_2  and  C_20
    2  A    between atoms: C_2  and  C_22
    3  A    between atoms: C_3  and  C_10
    4  A    between atoms: C_4  and  C_27
    5  A    between atoms: C_10  and  O_25
    6  A    between atoms: C_23  and  O_25
                            x       y       z     vdW  Elec       q    Type
                         _______ _______ _______ _____ _____    ______ ____

>  <TORSDO>
F 6

$$$$
=
 OpenBabel11052412243D

 30 32  0  0  1  0  0  0  0  0999 V2000
  186.3490  178.3930  143.5080 C   0  0  0  0  0  2  0  0  0  0  0  0
  184.9950  178.0600  143.0430 C   0  0  2  0  0  3  0  0  0  0  0  0
  187.2250  177.2840  143.4940 C   0  0  0  0  0  2  0  0  0  0  0  0
  183.3640  178.2970  140.0420 O   0  0  0  0  0  0  0  0  0  0  0  0
  188.5160  177.0620  138.1260 O   0  0  0  0  0  0  0  0  0  0  0  0
  184.8740  177.9530  141.4890 C   0  0  2  0  0  3  0  0  0  0  0  0
  184.4950  179.1160  139.7040 C   0  0  2  0  0  0  0  0  0  0  0  0
  185.0990  179.2310  140.9680 O   0  0  0  0  0  0  0  0  0  0  0  0
  183.8340  177.3640  140.8200 O   0  0  0  0  0  0  0  0  0  0  0  0
  188.2450  177.8340  139.0520 C   0  0  0  0  0  0  0  0  0  0  0  0
  188.9290  177.5970  140.2680 N   0  0  0  0  0  2  0  0  0  0  0  0
  184.0500  180.2960  139.2820 O   0  0  0  0  0  1  0  0  0  0  0  0
  189.5300  177.1220  142.7640 C   0  0  2  0  0  3  0  0  0  0  0  0
  185.4880  178.3870  138.7450 C   0  0  0  0  0  2  0  0  0  0  0  0
  188.6440  177.2510  143.9560 C   0  0  1  0  0  3  0  0  0  0  0  0
  190.1570  176.7220  140.4610 C   0  0  1  0  0  3  0  0  0  0  0  0
  189.3010  175.5920  142.5750 C   0  0  0  0  0  2  0  0  0  0  0  0
  187.0980  179.2580  138.8360 S   0  0  0  0  0  0  0  0  0  0  0  0
  190.4140  176.2560  141.8990 C   0  0  2  0  0  3  0  0  0  0  0  0
  189.3350  178.3270  144.8030 C   0  0  0  0  0  0  0  0  0  0  0  0
  188.9930  178.3440  146.0330 C   0  0  0  0  0  2  0  0  0  0  0  0
  191.9750  178.1000  144.6610 O   0  0  0  0  0  1  0  0  0  0  0  0
  190.7320  178.7670  144.3680 C   0  0  0  0  0  0  0  0  0  0  0  0
  190.8480  179.9630  144.0060 O   0  0  0  0  0  0  0  0  0  0  0  0
  184.0080  178.8850  143.7760 C   0  0  0  0  0  2  0  0  0  0  0  0
  184.5420  178.8830  145.0980 O   0  0  0  0  0  1  0  0  0  0  0  0
  190.3920  175.6800  139.5540 O   0  0  0  0  0  0  0  0  0  0  0  0
  191.5120  176.0500  138.7940 C   0  0  0  0  0  2  0  0  0  0  0  0
  191.6790  175.1190  137.6980 C   0  0  0  0  0  3  0  0  0  0  0  0
  190.9910  174.1310  137.7000 O   0  0  0  0  0  0  0  0  0  0  0  0
  2  1  1  0  0  0  0
  2 25  1  6  0  0  0
  3  1  1  0  0  0  0
  3 15  1  0  0  0  0
  4  9  1  0  0  0  0
  5 10  2  0  0  0  0
  6  9  1  1  0  0  0
  6  2  1  0  0  0  0
  7 12  1  6  0  0  0
  7  4  1  0  0  0  0
  7  8  1  0  0  0  0
  8  6  1  0  0  0  0
 10 11  1  0  0  0  0
 11 16  1  0  0  0  0
 13 17  1  6  0  0  0
 13 15  1  0  0  0  0
 14 18  1  0  0  0  0
 14  7  1  0  0  0  0
 15 20  1  6  0  0  0
 16 27  1  6  0  0  0
 16 19  1  0  0  0  0
 18 10  1  0  0  0  0
 19 17  1  6  0  0  0
 19 13  1  0  0  0  0
 20 21  2  0  0  0  0
 23 22  1  0  0  0  0
 23 20  1  0  0  0  0
 24 23  2  0  0  0  0
 25 26  1  0  0  0  0
 28 27  1  0  0  0  0
 29 30  2  0  0  0  0
 29 28  1  0  0  0  0
M  END
>  <MODEL>
5

>  <REMARK>
 VINA RESULT:      -5.9      2.498      6.445
  Name = 
  6 active torsions:
  status: ('A' for Active; 'I' for Inactive)
    1  A    between atoms: C_2  and  C_20
    2  A    between atoms: C_2  and  C_22
    3  A    between atoms: C_3  and  C_10
    4  A    between atoms: C_4  and  C_27
    5  A    between atoms: C_10  and  O_25
    6  A    between atoms: C_23  and  O_25
                            x       y       z     vdW  Elec       q    Type
                         _______ _______ _______ _____ _____    ______ ____

>  <TORSDO>
F 6

$$$$
=
 OpenBabel11052412243D

 30 32  0  0  1  0  0  0  0  0999 V2000
  181.4590  175.0680  137.8740 C   0  0  0  0  0  2  0  0  0  0  0  0
  180.2670  175.9200  137.9930 C   0  0  2  0  0  3  0  0  0  0  0  0
  182.3330  175.4840  136.8440 C   0  0  0  0  0  2  0  0  0  0  0  0
  179.4180  178.5940  139.9540 O   0  0  0  0  0  0  0  0  0  0  0  0
  184.9060  179.7000  139.3230 O   0  0  0  0  0  0  0  0  0  0  0  0
  180.5340  177.2710  138.7310 C   0  0  2  0  0  3  0  0  0  0  0  0
  180.5810  178.1850  140.6920 C   0  0  2  0  0  0  0  0  0  0  0  0
  180.8540  176.9610  140.0560 O   0  0  0  0  0  0  0  0  0  0  0  0
  179.7010  178.3580  138.7060 O   0  0  0  0  0  0  0  0  0  0  0  0
  184.4000  178.5890  139.5200 C   0  0  0  0  0  0  0  0  0  0  0  0
  184.7710  177.5760  138.6040 N   0  0  0  0  0  2  0  0  0  0  0  0
  180.2300  177.9920  141.9600 O   0  0  0  0  0  1  0  0  0  0  0  0
  184.7500  175.6660  136.8250 C   0  0  2  0  0  3  0  0  0  0  0  0
  181.7930  179.1430  140.4660 C   0  0  0  0  0  2  0  0  0  0  0  0
  183.5960  174.8170  136.4100 C   0  0  1  0  0  3  0  0  0  0  0  0
  185.9300  177.6210  137.6220 C   0  0  1  0  0  3  0  0  0  0  0  0
  184.6050  176.6900  135.6600 C   0  0  0  0  0  2  0  0  0  0  0  0
  183.3140  178.2500  140.9670 S   0  0  0  0  0  0  0  0  0  0  0  0
  185.8360  176.6430  136.4460 C   0  0  2  0  0  3  0  0  0  0  0  0
  184.0370  173.3990  136.7950 C   0  0  0  0  0  0  0  0  0  0  0  0
  184.7880  173.3300  137.8250 C   0  0  0  0  0  2  0  0  0  0  0  0
  181.9780  172.3100  135.5230 O   0  0  0  0  0  0  0  0  0  0  0  0
  183.0960  172.2510  136.4300 C   0  0  0  0  0  0  0  0  0  0  0  0
  183.0880  171.2710  137.2140 O   0  0  0  0  0  1  0  0  0  0  0  0
  179.1140  175.0950  138.4180 C   0  0  0  0  0  2  0  0  0  0  0  0
  179.7300  173.8370  138.6820 O   0  0  0  0  0  1  0  0  0  0  0  0
  186.4020  178.8680  137.1920 O   0  0  0  0  0  0  0  0  0  0  0  0
  187.7460  178.6920  136.8320 C   0  0  0  0  0  2  0  0  0  0  0  0
  188.5180  178.3430  138.0070 C   0  0  0  0  0  3  0  0  0  0  0  0
  189.0140  179.2440  138.6320 O   0  0  0  0  0  0  0  0  0  0  0  0
  1  2  1  0  0  0  0
  2 25  1  1  0  0  0
  2  6  1  0  0  0  0
  3  1  1  0  0  0  0
  4  7  1  0  0  0  0
  5 10  2  0  0  0  0
  6  9  1  1  0  0  0
  6  8  1  0  0  0  0
  7 12  1  1  0  0  0
  8  7  1  0  0  0  0
  9  4  1  0  0  0  0
 10 18  1  0  0  0  0
 11 10  1  0  0  0  0
 13 17  1  1  0  0  0
 14  7  1  0  0  0  0
 14 18  1  0  0  0  0
 15 20  1  1  0  0  0
 15 13  1  0  0  0  0
 15  3  1  0  0  0  0
 16 27  1  6  0  0  0
 16 11  1  0  0  0  0
 19 17  1  6  0  0  0
 19 13  1  0  0  0  0
 19 16  1  0  0  0  0
 20 21  2  0  0  0  0
 22 23  2  0  0  0  0
 23 20  1  0  0  0  0
 23 24  1  0  0  0  0
 25 26  1  0  0  0  0
 28 27  1  0  0  0  0
 28 29  1  0  0  0  0
 29 30  2  0  0  0  0
M  END
>  <MODEL>
6

>  <REMARK>
 VINA RESULT:      -5.6      3.485      8.002
  Name = 
  6 active torsions:
  status: ('A' for Active; 'I' for Inactive)
    1  A    between atoms: C_2  and  C_20
    2  A    between atoms: C_2  and  C_22
    3  A    between atoms: C_3  and  C_10
    4  A    between atoms: C_4  and  C_27
    5  A    between atoms: C_10  and  O_25
    6  A    between atoms: C_23  and  O_25
                            x       y       z     vdW  Elec       q    Type
                         _______ _______ _______ _____ _____    ______ ____

>  <TORSDO>
F 6

$$$$
=
 OpenBabel11052412243D

 30 32  0  0  1  0  0  0  0  0999 V2000
  186.6410  178.1200  139.6590 C   0  0  0  0  0  2  0  0  0  0  0  0
  187.2500  178.3000  138.3340 C   0  0  2  0  0  3  0  0  0  0  0  0
  185.3750  178.7380  139.7730 C   0  0  0  0  0  2  0  0  0  0  0  0
  187.3780  176.4160  135.4780 O   0  0  0  0  0  0  0  0  0  0  0  0
  182.1910  175.0340  137.1880 O   0  0  0  0  0  0  0  0  0  0  0  0
  186.6630  177.3520  137.2400 C   0  0  2  0  0  3  0  0  0  0  0  0
  186.8880  175.3900  136.3550 C   0  0  2  0  0  0  0  0  0  0  0  0
  187.0150  176.0460  137.5920 O   0  0  0  0  0  0  0  0  0  0  0  0
  186.8190  177.5180  135.8890 O   0  0  0  0  0  0  0  0  0  0  0  0
  183.1900  175.1590  137.9050 C   0  0  0  0  0  0  0  0  0  0  0  0
  183.0410  176.0180  139.0190 N   0  0  0  0  0  2  0  0  0  0  0  0
  187.7100  174.3460  136.2860 O   0  0  0  0  0  1  0  0  0  0  0  0
  183.3250  177.9260  140.7780 C   0  0  2  0  0  3  0  0  0  0  0  0
  185.3780  175.0770  136.1140 C   0  0  0  0  0  2  0  0  0  0  0  0
  184.5120  178.8050  140.9880 C   0  0  1  0  0  3  0  0  0  0  0  0
  181.7350  176.5420  139.5920 C   0  0  1  0  0  3  0  0  0  0  0  0
  182.5520  178.9340  139.8770 C   0  0  0  0  0  2  0  0  0  0  0  0
  184.7400  174.2120  137.5990 S   0  0  0  0  0  0  0  0  0  0  0  0
  181.8540  177.7950  140.4670 C   0  0  2  0  0  3  0  0  0  0  0  0
  184.9540  178.4760  142.4200 C   0  0  0  0  0  0  0  0  0  0  0  0
  186.2050  178.2670  142.5610 C   0  0  0  0  0  2  0  0  0  0  0  0
  182.7470  178.7490  143.8700 O   0  0  0  0  0  0  0  0  0  0  0  0
  184.1200  179.0600  143.5600 C   0  0  0  0  0  0  0  0  0  0  0  0
  184.5480  180.1230  144.0700 O   0  0  0  0  0  1  0  0  0  0  0  0
  188.7210  178.3910  138.4770 C   0  0  0  0  0  2  0  0  0  0  0  0
  189.0500  179.4060  137.5310 O   0  0  0  0  0  1  0  0  0  0  0  0
  180.6170  176.6300  138.7520 O   0  0  0  0  0  0  0  0  0  0  0  0
  179.5190  176.1590  139.4870 C   0  0  0  0  0  2  0  0  0  0  0  0
  179.6920  174.7490  139.7630 C   0  0  0  0  0  3  0  0  0  0  0  0
  178.9440  173.9800  139.2170 O   0  0  0  0  0  0  0  0  0  0  0  0
  1  3  1  0  0  0  0
  2 25  1  1  0  0  0
  2  1  1  0  0  0  0
  3 15  1  0  0  0  0
  4  9  1  0  0  0  0
  4  7  1  0  0  0  0
  5 10  2  0  0  0  0
  6  9  1  6  0  0  0
  6  8  1  0  0  0  0
  6  2  1  0  0  0  0
  7 12  1  6  0  0  0
  7  8  1  0  0  0  0
 10 11  1  0  0  0  0
 11 16  1  0  0  0  0
 13 17  1  6  0  0  0
 13 15  1  0  0  0  0
 14  7  1  0  0  0  0
 14 18  1  0  0  0  0
 15 20  1  1  0  0  0
 16 27  1  6  0  0  0
 16 19  1  0  0  0  0
 18 10  1  0  0  0  0
 19 17  1  6  0  0  0
 19 13  1  0  0  0  0
 20 21  2  0  0  0  0
 20 23  1  0  0  0  0
 23 22  2  0  0  0  0
 23 24  1  0  0  0  0
 26 25  1  0  0  0  0
 27 28  1  0  0  0  0
 28 29  1  0  0  0  0
 30 29  2  0  0  0  0
M  END
>  <MODEL>
7

>  <REMARK>
 VINA RESULT:      -5.6      2.359      3.413
  Name = 
  6 active torsions:
  status: ('A' for Active; 'I' for Inactive)
    1  A    between atoms: C_2  and  C_20
    2  A    between atoms: C_2  and  C_22
    3  A    between atoms: C_3  and  C_10
    4  A    between atoms: C_4  and  C_27
    5  A    between atoms: C_10  and  O_25
    6  A    between atoms: C_23  and  O_25
                            x       y       z     vdW  Elec       q    Type
                         _______ _______ _______ _____ _____    ______ ____

>  <TORSDO>
F 6

$$$$
=
 OpenBabel11052412243D

 30 32  0  0  1  0  0  0  0  0999 V2000
  184.9110  177.9290  139.3840 C   0  0  0  0  0  2  0  0  0  0  0  0
  184.4840  178.9660  140.3340 C   0  0  2  0  0  3  0  0  0  0  0  0
  185.9870  178.3410  138.5650 C   0  0  0  0  0  2  0  0  0  0  0  0
  185.1860  179.6480  143.6150 O   0  0  0  0  0  0  0  0  0  0  0  0
  190.2310  177.6920  142.0440 O   0  0  0  0  0  0  0  0  0  0  0  0
  185.4160  179.0950  141.5820 C   0  0  2  0  0  3  0  0  0  0  0  0
  185.7440  178.3250  143.5770 C   0  0  2  0  0  0  0  0  0  0  0  0
  185.2970  177.9080  142.3100 O   0  0  0  0  0  0  0  0  0  0  0  0
  185.4330  180.1600  142.4430 O   0  0  0  0  0  0  0  0  0  0  0  0
  189.1320  177.2290  141.7190 C   0  0  0  0  0  0  0  0  0  0  0  0
  188.9270  177.0550  140.3300 N   0  0  0  0  0  2  0  0  0  0  0  0
  185.1810  177.6010  144.5400 O   0  0  0  0  0  1  0  0  0  0  0  0
  187.9870  177.1470  137.8960 C   0  0  2  0  0  3  0  0  0  0  0  0
  187.3050  178.3410  143.5710 C   0  0  0  0  0  2  0  0  0  0  0  0
  186.6240  177.5670  137.4600 C   0  0  1  0  0  3  0  0  0  0  0  0
  189.9930  177.0780  139.2460 C   0  0  1  0  0  3  0  0  0  0  0  0
  188.6570  178.5300  137.6410 C   0  0  0  0  0  2  0  0  0  0  0  0
  187.8800  176.7080  142.9650 S   0  0  0  0  0  0  0  0  0  0  0  0
  189.4820  177.3390  137.8250 C   0  0  2  0  0  3  0  0  0  0  0  0
  186.0510  176.3040  136.8040 C   0  0  0  0  0  0  0  0  0  0  0  0
  185.0840  176.5090  135.9970 C   0  0  0  0  0  2  0  0  0  0  0  0
  187.9390  174.9470  135.5240 O   0  0  0  0  0  0  0  0  0  0  0  0
  187.0040  175.1260  136.6060 C   0  0  0  0  0  0  0  0  0  0  0  0
  186.7350  174.0820  137.2490 O   0  0  0  0  0  1  0  0  0  0  0  0
  183.0230  178.8640  140.5480 C   0  0  0  0  0  2  0  0  0  0  0  0
  182.7620  177.5110  140.1820 O   0  0  0  0  0  1  0  0  0  0  0  0
  191.1800  177.7830  139.4830 O   0  0  0  0  0  0  0  0  0  0  0  0
  192.2080  176.8310  139.5620 C   0  0  0  0  0  2  0  0  0  0  0  0
  192.8870  176.7500  138.2860 C   0  0  0  0  0  3  0  0  0  0  0  0
  193.8710  176.0570  138.2230 O   0  0  0  0  0  0  0  0  0  0  0  0
  1  2  1  0  0  0  0
  2 25  1  1  0  0  0
  2  6  1  0  0  0  0
  3  1  1  0  0  0  0
  6  8  1  1  0  0  0
  6  9  1  0  0  0  0
  7  4  1  0  0  0  0
  7 12  1  1  0  0  0
  8  7  1  0  0  0  0
  9  4  1  0  0  0  0
 10  5  2  0  0  0  0
 10 18  1  0  0  0  0
 11 10  1  0  0  0  0
 13 17  1  1  0  0  0
 14  7  1  0  0  0  0
 15 20  1  1  0  0  0
 15 13  1  0  0  0  0
 15  3  1  0  0  0  0
 16 27  1  1  0  0  0
 16 11  1  0  0  0  0
 18 14  1  0  0  0  0
 19 17  1  1  0  0  0
 19 13  1  0  0  0  0
 19 16  1  0  0  0  0
 21 20  2  0  0  0  0
 22 23  2  0  0  0  0
 23 20  1  0  0  0  0
 23 24  1  0  0  0  0
 26 25  1  0  0  0  0
 27 28  1  0  0  0  0
 29 28  1  0  0  0  0
 30 29  2  0  0  0  0
M  END
>  <MODEL>
8

>  <REMARK>
 VINA RESULT:      -5.4      2.666      7.924
  Name = 
  6 active torsions:
  status: ('A' for Active; 'I' for Inactive)
    1  A    between atoms: C_2  and  C_20
    2  A    between atoms: C_2  and  C_22
    3  A    between atoms: C_3  and  C_10
    4  A    between atoms: C_4  and  C_27
    5  A    between atoms: C_10  and  O_25
    6  A    between atoms: C_23  and  O_25
                            x       y       z     vdW  Elec       q    Type
                         _______ _______ _______ _____ _____    ______ ____

>  <TORSDO>
F 6

$$$$
=
 OpenBabel11052412243D

 30 32  0  0  1  0  0  0  0  0999 V2000
  187.8300  177.9400  140.4430 C   0  0  0  0  0  2  0  0  0  0  0  0
  188.9250  178.1650  139.4890 C   0  0  2  0  0  3  0  0  0  0  0  0
  186.7560  178.8430  140.2730 C   0  0  0  0  0  2  0  0  0  0  0  0
  189.7950  176.8030  136.4710 O   0  0  0  0  0  0  0  0  0  0  0  0
  184.1920  176.5810  135.9320 O   0  0  0  0  0  0  0  0  0  0  0  0
  188.6410  177.5960  138.0620 C   0  0  2  0  0  3  0  0  0  0  0  0
  188.8230  175.8150  136.8480 C   0  0  2  0  0  0  0  0  0  0  0  0
  188.5820  176.2040  138.1770 O   0  0  0  0  0  0  0  0  0  0  0  0
  189.3350  177.9320  136.9300 O   0  0  0  0  0  0  0  0  0  0  0  0
  184.8400  176.3190  136.9510 C   0  0  0  0  0  0  0  0  0  0  0  0
  184.4350  176.9950  138.1260 N   0  0  0  0  0  2  0  0  0  0  0  0
  189.4000  174.6170  136.8020 O   0  0  0  0  0  1  0  0  0  0  0  0
  184.3650  178.4490  140.2930 C   0  0  2  0  0  3  0  0  0  0  0  0
  187.4940  175.9550  136.0410 C   0  0  0  0  0  2  0  0  0  0  0  0
  185.5190  178.9380  141.1020 C   0  0  1  0  0  3  0  0  0  0  0  0
  183.1290  177.7450  138.3360 C   0  0  1  0  0  3  0  0  0  0  0  0
  184.2010  179.7580  139.4640 C   0  0  0  0  0  2  0  0  0  0  0  0
  186.1840  175.0600  136.9600 S   0  0  0  0  0  0  0  0  0  0  0  0
  183.1310  178.7630  139.4820 C   0  0  2  0  0  3  0  0  0  0  0  0
  185.3040  178.2760  142.4690 C   0  0  0  0  0  0  0  0  0  0  0  0
  186.3370  177.7070  142.9580 C   0  0  0  0  0  2  0  0  0  0  0  0
  182.8230  178.5950  143.3560 O   0  0  0  0  0  0  0  0  0  0  0  0
  184.2350  178.8820  143.3780 C   0  0  0  0  0  0  0  0  0  0  0  0
  184.5500  179.9420  143.9720 O   0  0  0  0  0  1  0  0  0  0  0  0
  190.2150  177.8410  140.1380 C   0  0  0  0  0  2  0  0  0  0  0  0
  189.7970  177.3860  141.4230 O   0  0  0  0  0  1  0  0  0  0  0  0
  182.4600  178.2600  137.2180 O   0  0  0  0  0  0  0  0  0  0  0  0
  181.1120  177.8960  137.3490 C   0  0  0  0  0  2  0  0  0  0  0  0
  181.0010  176.4530  137.3660 C   0  0  0  0  0  3  0  0  0  0  0  0
  180.8900  175.8920  136.3060 O   0  0  0  0  0  0  0  0  0  0  0  0
  2 25  1  1  0  0  0
  2  1  1  0  0  0  0
  3  1  1  0  0  0  0
  3 15  1  0  0  0  0
  4  7  1  0  0  0  0
  4  9  1  0  0  0  0
  5 10  2  0  0  0  0
  6  9  1  6  0  0  0
  6  8  1  0  0  0  0
  6  2  1  0  0  0  0
  7 12  1  6  0  0  0
  7  8  1  0  0  0  0
 10 18  1  0  0  0  0
 10 11  1  0  0  0  0
 11 16  1  0  0  0  0
 13 17  1  6  0  0  0
 13 15  1  0  0  0  0
 14  7  1  0  0  0  0
 14 18  1  0  0  0  0
 15 20  1  1  0  0  0
 16 27  1  6  0  0  0
 16 19  1  0  0  0  0
 19 17  1  6  0  0  0
 19 13  1  0  0  0  0
 20 21  2  0  0  0  0
 20 23  1  0  0  0  0
 22 23  2  0  0  0  0
 23 24  1  0  0  0  0
 25 26  1  0  0  0  0
 27 28  1  0  0  0  0
 28 29  1  0  0  0  0
 30 29  2  0  0  0  0
M  END
>  <MODEL>
9

>  <REMARK>
 VINA RESULT:      -5.3      2.241      3.545
  Name = 
  6 active torsions:
  status: ('A' for Active; 'I' for Inactive)
    1  A    between atoms: C_2  and  C_20
    2  A    between atoms: C_2  and  C_22
    3  A    between atoms: C_3  and  C_10
    4  A    between atoms: C_4  and  C_27
    5  A    between atoms: C_10  and  O_25
    6  A    between atoms: C_23  and  O_25
                            x       y       z     vdW  Elec       q    Type
                         _______ _______ _______ _____ _____    ______ ____

>  <TORSDO>
F 6

$$$$
