=
 OpenBabel11052416423D

 43 47  0  0  1  0  0  0  0  0999 V2000
  184.4260  176.1750  137.3440 C   0  0  0  0  0  2  0  0  0  0  0  0
  186.8640  175.3750  136.0320 N   0  0  0  0  0  2  0  0  0  0  0  0
  185.4400  177.1710  136.9860 N   0  0  0  0  0  0  0  0  0  0  0  0
  183.3400  176.7770  138.2390 C   0  0  0  0  0  2  0  0  0  0  0  0
  186.6410  176.7590  136.3190 C   0  0  0  0  0  0  0  0  0  0  0  0
  185.2380  178.5820  137.3190 C   0  0  0  0  0  2  0  0  0  0  0  0
  187.5110  177.6160  135.9990 O   0  0  0  0  0  0  0  0  0  0  0  0
  184.8840  178.7440  138.8000 C   0  0  0  0  0  2  0  0  0  0  0  0
  184.0000  177.6060  139.3400 C   0  0  1  0  0  3  0  0  0  0  0  0
  183.0220  178.0960  140.3110 N   0  0  0  0  0  0  0  0  0  0  0  0
  185.7080  179.1000  146.1370 C   0  0  2  0  0  3  0  0  0  0  0  0
  183.3420  178.3220  141.7030 C   0  0  0  0  0  0  0  0  0  0  0  0
  183.9930  178.8130  144.3940 C   0  0  0  0  0  0  0  0  0  0  0  0
  186.4910  177.9620  145.4780 C   0  0  0  0  0  2  0  0  0  0  0  0
  185.7870  178.9790  147.6430 C   0  0  0  0  0  1  0  0  0  0  0  0
  184.9520  178.2780  143.5270 C   0  0  0  0  0  0  0  0  0  0  0  0
  184.3420  179.0790  145.7220 O   0  0  0  0  0  0  0  0  0  0  0  0
  186.2480  177.9600  144.0370 N   0  0  0  0  0  2  0  0  0  0  0  0
  184.6350  178.0470  142.1860 C   0  0  0  0  0  3  0  0  0  0  0  0
  182.3790  178.8300  142.5950 C   0  0  0  0  0  3  0  0  0  0  0  0
  182.7010  179.0750  143.9320 C   0  0  0  0  0  3  0  0  0  0  0  0
  181.6560  178.2560  139.8180 C   0  0  0  0  0  2  0  0  0  0  0  0
  180.2690  180.7770  137.3810 C   0  0  0  0  0  2  0  0  0  0  0  0
  180.1200  181.9650  138.2350 N   0  0  0  0  0  0  0  0  0  0  0  0
  180.0750  180.1660  140.0190 C   0  0  0  0  0  2  0  0  0  0  0  0
  181.3670  179.8310  137.8850 C   0  0  0  0  0  2  0  0  0  0  0  0
  181.3860  179.6970  139.4110 C   0  0  0  0  0  3  0  0  0  0  0  0
  179.8210  181.6320  139.6420 C   0  0  0  0  0  2  0  0  0  0  0  0
  181.1580  183.5490  137.1490 C   0  0  0  0  0  1  0  0  0  0  0  0
  181.2890  182.6550  138.2140 O   0  0  0  0  0  0  0  0  0  0  0  0
  188.0970  174.8840  135.4340 C   0  0  0  0  0  2  0  0  0  0  0  0
  189.4410  172.9440  136.1550 C   0  0  0  0  0  1  0  0  0  0  0  0
  189.0420  174.3640  136.5050 C   0  0  1  0  0  3  0  0  0  0  0  0
  190.2280  175.2090  136.5670 N   0  0  0  0  0  2  0  0  0  0  0  0
  189.3840  176.4570  138.5380 N   0  0  0  0  0  2  0  0  0  0  0  0
  190.4050  176.2160  137.5620 C   0  0  0  0  0  0  0  0  0  0  0  0
  191.4720  176.8830  137.5770 O   0  0  0  0  0  0  0  0  0  0  0  0
  189.5490  177.3140  139.7080 C   0  0  0  0  0  3  0  0  0  0  0  0
  189.8700  177.2560  142.2230 C   0  0  0  0  0  2  0  0  0  0  0  0
  188.2740  178.6400  141.4630 C   0  0  0  0  0  2  0  0  0  0  0  0
  189.5710  178.6130  142.0080 O   0  0  0  0  0  0  0  0  0  0  0  0
  188.2380  178.0310  140.0520 C   0  0  0  0  0  2  0  0  0  0  0  0
  190.1440  176.5400  140.8930 C   0  0  0  0  0  2  0  0  0  0  0  0
  1  4  1  0  0  0  0
  2  5  1  0  0  0  0
  3  6  1  0  0  0  0
  3  1  1  0  0  0  0
  4  9  1  0  0  0  0
  5  3  1  0  0  0  0
  6  8  1  0  0  0  0
  7  5  2  0  0  0  0
  8  9  1  0  0  0  0
  9 10  1  1  0  0  0
 10 12  1  0  0  0  0
 11 15  1  1  0  0  0
 12 19  2  0  0  0  0
 12 20  1  0  0  0  0
 13 17  1  0  0  0  0
 14 11  1  0  0  0  0
 16 18  1  0  0  0  0
 16 13  2  0  0  0  0
 17 11  1  0  0  0  0
 18 14  1  0  0  0  0
 19 16  1  0  0  0  0
 20 21  2  0  0  0  0
 21 13  1  0  0  0  0
 22 10  1  0  0  0  0
 23 26  1  0  0  0  0
 23 24  1  0  0  0  0
 24 28  1  0  0  0  0
 26 27  1  0  0  0  0
 27 22  1  0  0  0  0
 27 25  1  0  0  0  0
 28 25  1  0  0  0  0
 29 30  1  0  0  0  0
 30 24  1  0  0  0  0
 31  2  1  0  0  0  0
 31 33  1  0  0  0  0
 33 32  1  6  0  0  0
 33 34  1  0  0  0  0
 34 36  1  0  0  0  0
 35 38  1  0  0  0  0
 36 37  2  0  0  0  0
 36 35  1  0  0  0  0
 38 42  1  0  0  0  0
 38 43  1  0  0  0  0
 40 41  1  0  0  0  0
 41 39  1  0  0  0  0
 42 40  1  0  0  0  0
 43 39  1  0  0  0  0
M  END
>  <MODEL>
1

>  <REMARK>
 VINA RESULT:      -7.3      0.000      0.000
  Name = 
  9 active torsions:
  status: ('A' for Active; 'I' for Inactive)
    1  A    between atoms: C_1  and  N_34
    2  A    between atoms: C_1  and  C_35
    3  A    between atoms: N_3  and  C_42
    4  A    between atoms: N_4  and  C_15
    5  A    between atoms: C_8  and  N_34
    6  A    between atoms: C_11  and  N_14
    7  A    between atoms: C_15  and  C_42
    8  A    between atoms: N_19  and  O_37
    9  A    between atoms: N_34  and  C_38
                            x       y       z     vdW  Elec       q    Type
                         _______ _______ _______ _____ _____    ______ ____

>  <TORSDO>
F 9

$$$$
=
 OpenBabel11052416423D

 43 47  0  0  1  0  0  0  0  0999 V2000
  185.2370  178.7580  141.8400 C   0  0  0  0  0  2  0  0  0  0  0  0
  186.6070  177.8930  144.2240 N   0  0  0  0  0  2  0  0  0  0  0  0
  184.5910  178.8660  143.1510 N   0  0  0  0  0  0  0  0  0  0  0  0
  184.2520  179.0410  140.7040 C   0  0  0  0  0  2  0  0  0  0  0  0
  185.2910  178.4460  144.3300 C   0  0  0  0  0  0  0  0  0  0  0  0
  183.2280  179.3880  143.2590 C   0  0  0  0  0  2  0  0  0  0  0  0
  184.7410  178.5490  145.4620 O   0  0  0  0  0  0  0  0  0  0  0  0
  182.2870  178.6520  142.3010 C   0  0  0  0  0  2  0  0  0  0  0  0
  182.9540  178.2810  140.9650 C   0  0  1  0  0  3  0  0  0  0  0  0
  182.0200  178.4000  139.8450 N   0  0  0  0  0  0  0  0  0  0  0  0
  179.5870  183.9410  137.4900 C   0  0  2  0  0  3  0  0  0  0  0  0
  181.2960  179.6170  139.5510 C   0  0  0  0  0  0  0  0  0  0  0  0
  179.8730  181.9590  138.9230 C   0  0  0  0  0  0  0  0  0  0  0  0
  181.1100  184.0850  137.4780 C   0  0  0  0  0  2  0  0  0  0  0  0
  178.9380  185.3030  137.6010 C   0  0  0  0  0  1  0  0  0  0  0  0
  181.1550  181.7560  138.4010 C   0  0  0  0  0  0  0  0  0  0  0  0
  179.1670  183.1150  138.5780 O   0  0  0  0  0  0  0  0  0  0  0  0
  181.7350  182.7670  137.5750 N   0  0  0  0  0  2  0  0  0  0  0  0
  181.8580  180.5870  138.7000 C   0  0  0  0  0  3  0  0  0  0  0  0
  180.0180  179.8480  140.0930 C   0  0  0  0  0  3  0  0  0  0  0  0
  179.3100  181.0120  139.7820 C   0  0  0  0  0  3  0  0  0  0  0  0
  181.7750  177.1770  139.0840 C   0  0  0  0  0  2  0  0  0  0  0  0
  183.5610  174.7670  136.7990 C   0  0  0  0  0  2  0  0  0  0  0  0
  184.6820  175.5880  136.3190 N   0  0  0  0  0  0  0  0  0  0  0  0
  183.0730  177.4320  136.9770 C   0  0  0  0  0  2  0  0  0  0  0  0
  183.0560  175.2180  138.1760 C   0  0  0  0  0  2  0  0  0  0  0  0
  183.0230  176.7420  138.3300 C   0  0  0  0  0  3  0  0  0  0  0  0
  184.3520  177.0240  136.2320 C   0  0  0  0  0  2  0  0  0  0  0  0
  186.1990  174.1620  136.9800 C   0  0  0  0  0  1  0  0  0  0  0  0
  185.7140  175.4540  137.1920 O   0  0  0  0  0  0  0  0  0  0  0  0
  187.3360  177.3720  145.3710 C   0  0  0  0  0  2  0  0  0  0  0  0
  189.4020  177.9410  146.5950 C   0  0  0  0  0  1  0  0  0  0  0  0
  188.8250  177.6370  145.2260 C   0  0  1  0  0  3  0  0  0  0  0  0
  189.4820  176.4630  144.6640 N   0  0  0  0  0  2  0  0  0  0  0  0
  189.0250  177.1750  142.3310 N   0  0  0  0  0  2  0  0  0  0  0  0
  189.5950  176.2430  143.2590 C   0  0  0  0  0  0  0  0  0  0  0  0
  190.2070  175.2250  142.8440 O   0  0  0  0  0  0  0  0  0  0  0  0
  189.2560  177.1500  140.8910 C   0  0  0  0  0  3  0  0  0  0  0  0
  191.0390  177.5200  139.1250 C   0  0  0  0  0  2  0  0  0  0  0  0
  189.0710  178.5390  138.7690 C   0  0  0  0  0  2  0  0  0  0  0  0
  189.8740  177.4650  138.3420 O   0  0  0  0  0  0  0  0  0  0  0  0
  188.5560  178.3280  140.2020 C   0  0  0  0  0  2  0  0  0  0  0  0
  190.7530  177.0600  140.5620 C   0  0  0  0  0  2  0  0  0  0  0  0
  1  3  1  0  0  0  0
  2  5  1  0  0  0  0
  2 31  1  0  0  0  0
  3  6  1  0  0  0  0
  3  5  1  0  0  0  0
  4  9  1  0  0  0  0
  4  1  1  0  0  0  0
  5  7  2  0  0  0  0
  8  6  1  0  0  0  0
  9 10  1  6  0  0  0
  9  8  1  0  0  0  0
 11 15  1  1  0  0  0
 11 17  1  0  0  0  0
 12 10  1  0  0  0  0
 12 20  1  0  0  0  0
 13 21  1  0  0  0  0
 14 11  1  0  0  0  0
 14 18  1  0  0  0  0
 16 19  1  0  0  0  0
 16 13  2  0  0  0  0
 17 13  1  0  0  0  0
 18 16  1  0  0  0  0
 19 12  2  0  0  0  0
 21 20  2  0  0  0  0
 22 10  1  0  0  0  0
 23 26  1  0  0  0  0
 24 23  1  0  0  0  0
 24 30  1  0  0  0  0
 25 27  1  0  0  0  0
 26 27  1  0  0  0  0
 27 22  1  0  0  0  0
 28 24  1  0  0  0  0
 28 25  1  0  0  0  0
 29 30  1  0  0  0  0
 33 31  1  0  0  0  0
 33 32  1  1  0  0  0
 34 33  1  0  0  0  0
 35 36  1  0  0  0  0
 36 34  1  0  0  0  0
 37 36  2  0  0  0  0
 38 35  1  0  0  0  0
 39 43  1  0  0  0  0
 40 42  1  0  0  0  0
 41 40  1  0  0  0  0
 41 39  1  0  0  0  0
 42 38  1  0  0  0  0
 43 38  1  0  0  0  0
M  END
>  <MODEL>
2

>  <REMARK>
 VINA RESULT:      -7.2      2.017      7.051
  Name = 
  9 active torsions:
  status: ('A' for Active; 'I' for Inactive)
    1  A    between atoms: C_1  and  N_34
    2  A    between atoms: C_1  and  C_35
    3  A    between atoms: N_3  and  C_42
    4  A    between atoms: N_4  and  C_15
    5  A    between atoms: C_8  and  N_34
    6  A    between atoms: C_11  and  N_14
    7  A    between atoms: C_15  and  C_42
    8  A    between atoms: N_19  and  O_37
    9  A    between atoms: N_34  and  C_38
                            x       y       z     vdW  Elec       q    Type
                         _______ _______ _______ _____ _____    ______ ____

>  <TORSDO>
F 9

$$$$
=
 OpenBabel11052416423D

 43 47  0  0  1  0  0  0  0  0999 V2000
  184.4690  179.2390  140.2680 C   0  0  0  0  0  2  0  0  0  0  0  0
  184.1360  179.4320  143.1240 N   0  0  0  0  0  2  0  0  0  0  0  0
  183.2450  178.7500  140.9100 N   0  0  0  0  0  0  0  0  0  0  0  0
  184.5380  178.8190  138.7980 C   0  0  0  0  0  2  0  0  0  0  0  0
  183.0880  178.8670  142.3300 C   0  0  0  0  0  0  0  0  0  0  0  0
  182.1900  178.1290  140.1080 C   0  0  0  0  0  2  0  0  0  0  0  0
  182.0300  178.4580  142.8850 O   0  0  0  0  0  0  0  0  0  0  0  0
  182.7640  177.0200  139.2220 C   0  0  0  0  0  2  0  0  0  0  0  0
  184.1670  177.3420  138.6800 C   0  0  1  0  0  3  0  0  0  0  0  0
  184.3470  176.8440  137.3160 N   0  0  0  0  0  0  0  0  0  0  0  0
  181.8080  170.9890  136.1160 C   0  0  2  0  0  3  0  0  0  0  0  0
  183.6670  175.6710  136.8120 C   0  0  0  0  0  0  0  0  0  0  0  0
  182.3130  173.3880  135.8860 C   0  0  0  0  0  0  0  0  0  0  0  0
  183.2780  170.7690  136.4770 C   0  0  0  0  0  2  0  0  0  0  0  0
  181.3200  169.8690  135.2230 C   0  0  0  0  0  1  0  0  0  0  0  0
  183.3890  173.2550  136.7700 C   0  0  0  0  0  0  0  0  0  0  0  0
  181.6330  172.2440  135.4570 O   0  0  0  0  0  0  0  0  0  0  0  0
  183.8030  171.9460  137.1670 N   0  0  0  0  0  2  0  0  0  0  0  0
  184.0530  174.3880  137.2440 C   0  0  0  0  0  3  0  0  0  0  0  0
  182.6030  175.7870  135.8980 C   0  0  0  0  0  3  0  0  0  0  0  0
  181.9300  174.6540  135.4360 C   0  0  0  0  0  3  0  0  0  0  0  0
  185.3390  177.5440  136.5050 C   0  0  0  0  0  2  0  0  0  0  0  0
  188.8860  177.1590  135.2830 C   0  0  0  0  0  2  0  0  0  0  0  0
  189.3730  176.0590  136.1280 N   0  0  0  0  0  0  0  0  0  0  0  0
  187.4810  176.8950  137.5910 C   0  0  0  0  0  2  0  0  0  0  0  0
  187.3650  177.1120  135.0860 C   0  0  0  0  0  2  0  0  0  0  0  0
  186.6090  176.7190  136.3600 C   0  0  0  0  0  3  0  0  0  0  0  0
  188.7440  176.0330  137.4640 C   0  0  0  0  0  2  0  0  0  0  0  0
  189.1530  173.9220  136.5210 C   0  0  0  0  0  1  0  0  0  0  0  0
  189.0810  174.8840  135.5120 O   0  0  0  0  0  0  0  0  0  0  0  0
  184.0730  179.5020  144.5770 C   0  0  0  0  0  2  0  0  0  0  0  0
  184.9370  178.2700  146.5330 C   0  0  0  0  0  1  0  0  0  0  0  0
  185.3140  178.8830  145.1980 C   0  0  1  0  0  3  0  0  0  0  0  0
  185.8450  177.8520  144.3150 N   0  0  0  0  0  2  0  0  0  0  0  0
  187.9720  177.6920  145.5830 N   0  0  0  0  0  2  0  0  0  0  0  0
  187.1290  177.2600  144.5070 C   0  0  0  0  0  0  0  0  0  0  0  0
  187.5080  176.3490  143.7260 O   0  0  0  0  0  0  0  0  0  0  0  0
  189.2030  177.0200  145.9850 C   0  0  0  0  0  3  0  0  0  0  0  0
  191.0570  177.0690  147.7160 C   0  0  0  0  0  2  0  0  0  0  0  0
  191.7100  176.9330  145.5720 C   0  0  0  0  0  2  0  0  0  0  0  0
  191.5880  176.1860  146.7580 O   0  0  0  0  0  0  0  0  0  0  0  0
  190.3370  177.3130  144.9950 C   0  0  0  0  0  2  0  0  0  0  0  0
  189.5720  177.3430  147.4400 C   0  0  0  0  0  2  0  0  0  0  0  0
  1  3  1  0  0  0  0
  2 31  1  0  0  0  0
  3  5  1  0  0  0  0
  4  1  1  0  0  0  0
  5  7  2  0  0  0  0
  5  2  1  0  0  0  0
  6  3  1  0  0  0  0
  8  6  1  0  0  0  0
  9 10  1  6  0  0  0
  9  4  1  0  0  0  0
  9  8  1  0  0  0  0
 11 15  1  6  0  0  0
 11 14  1  0  0  0  0
 12 19  1  0  0  0  0
 12 10  1  0  0  0  0
 13 16  1  0  0  0  0
 14 18  1  0  0  0  0
 16 18  1  0  0  0  0
 16 19  2  0  0  0  0
 17 13  1  0  0  0  0
 17 11  1  0  0  0  0
 20 12  2  0  0  0  0
 21 13  2  0  0  0  0
 21 20  1  0  0  0  0
 22 10  1  0  0  0  0
 23 24  1  0  0  0  0
 24 28  1  0  0  0  0
 26 23  1  0  0  0  0
 26 27  1  0  0  0  0
 27 22  1  0  0  0  0
 27 25  1  0  0  0  0
 28 25  1  0  0  0  0
 30 24  1  0  0  0  0
 30 29  1  0  0  0  0
 31 33  1  0  0  0  0
 33 32  1  1  0  0  0
 34 36  1  0  0  0  0
 34 33  1  0  0  0  0
 35 38  1  0  0  0  0
 36 35  1  0  0  0  0
 37 36  2  0  0  0  0
 38 43  1  0  0  0  0
 40 41  1  0  0  0  0
 41 39  1  0  0  0  0
 42 40  1  0  0  0  0
 42 38  1  0  0  0  0
 43 39  1  0  0  0  0
M  END
>  <MODEL>
3

>  <REMARK>
 VINA RESULT:      -7.0      3.184      8.592
  Name = 
  9 active torsions:
  status: ('A' for Active; 'I' for Inactive)
    1  A    between atoms: C_1  and  N_34
    2  A    between atoms: C_1  and  C_35
    3  A    between atoms: N_3  and  C_42
    4  A    between atoms: N_4  and  C_15
    5  A    between atoms: C_8  and  N_34
    6  A    between atoms: C_11  and  N_14
    7  A    between atoms: C_15  and  C_42
    8  A    between atoms: N_19  and  O_37
    9  A    between atoms: N_34  and  C_38
                            x       y       z     vdW  Elec       q    Type
                         _______ _______ _______ _____ _____    ______ ____

>  <TORSDO>
F 9

$$$$
=
 OpenBabel11052416423D

 43 47  0  0  1  0  0  0  0  0999 V2000
  184.4260  175.9120  137.8210 C   0  0  0  0  0  2  0  0  0  0  0  0
  186.5410  176.0100  135.8660 N   0  0  0  0  0  2  0  0  0  0  0  0
  184.3750  176.8740  136.7160 N   0  0  0  0  0  0  0  0  0  0  0  0
  183.3410  176.1960  138.8620 C   0  0  0  0  0  2  0  0  0  0  0  0
  185.4280  176.9000  135.7430 C   0  0  0  0  0  0  0  0  0  0  0  0
  183.2610  177.8180  136.6120 C   0  0  0  0  0  2  0  0  0  0  0  0
  185.3810  177.7200  134.7840 O   0  0  0  0  0  0  0  0  0  0  0  0
  183.0590  178.5670  137.9330 C   0  0  0  0  0  2  0  0  0  0  0  0
  183.3210  177.6920  139.1700 C   0  0  1  0  0  3  0  0  0  0  0  0
  182.3980  178.0090  140.2610 N   0  0  0  0  0  0  0  0  0  0  0  0
  185.5770  179.1840  145.8000 C   0  0  2  0  0  3  0  0  0  0  0  0
  182.8390  178.2590  141.6150 C   0  0  0  0  0  0  0  0  0  0  0  0
  183.7190  178.7990  144.2310 C   0  0  0  0  0  0  0  0  0  0  0  0
  186.3500  178.0850  145.0700 C   0  0  0  0  0  2  0  0  0  0  0  0
  185.8060  179.0750  147.2920 C   0  0  0  0  0  1  0  0  0  0  0  0
  184.6170  178.3100  143.2750 C   0  0  0  0  0  0  0  0  0  0  0  0
  184.1790  179.0890  145.5190 O   0  0  0  0  0  0  0  0  0  0  0  0
  185.9710  178.0630  143.6580 N   0  0  0  0  0  2  0  0  0  0  0  0
  184.1850  178.0550  141.9720 C   0  0  0  0  0  3  0  0  0  0  0  0
  181.9410  178.7220  142.5950 C   0  0  0  0  0  3  0  0  0  0  0  0
  182.3760  178.9900  143.8950 C   0  0  0  0  0  3  0  0  0  0  0  0
  180.9760  177.9650  139.9290 C   0  0  0  0  0  2  0  0  0  0  0  0
  179.0170  174.8210  140.6330 C   0  0  0  0  0  2  0  0  0  0  0  0
  178.9500  174.2080  139.2980 N   0  0  0  0  0  0  0  0  0  0  0  0
  179.3410  176.6190  138.6240 C   0  0  0  0  0  2  0  0  0  0  0  0
  180.2450  175.7260  140.7970 C   0  0  0  0  0  2  0  0  0  0  0  0
  180.5470  176.5570  139.5460 C   0  0  0  0  0  3  0  0  0  0  0  0
  178.9310  175.2010  138.2050 C   0  0  0  0  0  2  0  0  0  0  0  0
  180.1230  173.2060  137.7530 C   0  0  0  0  0  1  0  0  0  0  0  0
  180.0500  173.4300  139.1300 O   0  0  0  0  0  0  0  0  0  0  0  0
  187.6800  176.0440  134.9600 C   0  0  0  0  0  2  0  0  0  0  0  0
  190.1230  176.3390  134.7700 C   0  0  0  0  0  1  0  0  0  0  0  0
  188.9280  176.5210  135.6850 C   0  0  1  0  0  3  0  0  0  0  0  0
  188.7860  177.9290  136.0360 N   0  0  0  0  0  2  0  0  0  0  0  0
  189.3320  177.5130  138.4210 N   0  0  0  0  0  2  0  0  0  0  0  0
  188.9960  178.4170  137.3600 C   0  0  0  0  0  0  0  0  0  0  0  0
  188.8910  179.6510  137.5840 O   0  0  0  0  0  0  0  0  0  0  0  0
  189.7610  177.9290  139.7520 C   0  0  0  0  0  3  0  0  0  0  0  0
  191.4840  177.4640  141.5550 C   0  0  0  0  0  2  0  0  0  0  0  0
  189.3480  177.5700  142.2350 C   0  0  0  0  0  2  0  0  0  0  0  0
  190.5660  178.2740  142.2450 O   0  0  0  0  0  0  0  0  0  0  0  0
  188.7570  177.4750  140.8190 C   0  0  0  0  0  2  0  0  0  0  0  0
  191.2000  177.4790  140.0460 C   0  0  0  0  0  2  0  0  0  0  0  0
  1  4  1  0  0  0  0
  3  1  1  0  0  0  0
  4  9  1  0  0  0  0
  5  2  1  0  0  0  0
  5  3  1  0  0  0  0
  6  3  1  0  0  0  0
  6  8  1  0  0  0  0
  7  5  2  0  0  0  0
  8  9  1  0  0  0  0
  9 10  1  1  0  0  0
 10 12  1  0  0  0  0
 11 15  1  1  0  0  0
 12 19  2  0  0  0  0
 12 20  1  0  0  0  0
 13 17  1  0  0  0  0
 14 11  1  0  0  0  0
 16 18  1  0  0  0  0
 16 13  2  0  0  0  0
 17 11  1  0  0  0  0
 18 14  1  0  0  0  0
 19 16  1  0  0  0  0
 20 21  2  0  0  0  0
 21 13  1  0  0  0  0
 22 10  1  0  0  0  0
 23 26  1  0  0  0  0
 24 23  1  0  0  0  0
 25 27  1  0  0  0  0
 27 22  1  0  0  0  0
 27 26  1  0  0  0  0
 28 25  1  0  0  0  0
 28 24  1  0  0  0  0
 29 30  1  0  0  0  0
 30 24  1  0  0  0  0
 31 33  1  0  0  0  0
 31  2  1  0  0  0  0
 33 32  1  6  0  0  0
 33 34  1  0  0  0  0
 34 36  1  0  0  0  0
 35 38  1  0  0  0  0
 36 37  2  0  0  0  0
 36 35  1  0  0  0  0
 38 43  1  0  0  0  0
 38 42  1  0  0  0  0
 39 41  1  0  0  0  0
 40 41  1  0  0  0  0
 42 40  1  0  0  0  0
 43 39  1  0  0  0  0
M  END
>  <MODEL>
4

>  <REMARK>
 VINA RESULT:      -7.0      2.497      3.377
  Name = 
  9 active torsions:
  status: ('A' for Active; 'I' for Inactive)
    1  A    between atoms: C_1  and  N_34
    2  A    between atoms: C_1  and  C_35
    3  A    between atoms: N_3  and  C_42
    4  A    between atoms: N_4  and  C_15
    5  A    between atoms: C_8  and  N_34
    6  A    between atoms: C_11  and  N_14
    7  A    between atoms: C_15  and  C_42
    8  A    between atoms: N_19  and  O_37
    9  A    between atoms: N_34  and  C_38
                            x       y       z     vdW  Elec       q    Type
                         _______ _______ _______ _____ _____    ______ ____

>  <TORSDO>
F 9

$$$$
=
 OpenBabel11052416423D

 43 47  0  0  1  0  0  0  0  0999 V2000
  187.4150  178.1010  136.7120 C   0  0  0  0  0  2  0  0  0  0  0  0
  184.6930  177.5350  135.9510 N   0  0  0  0  0  2  0  0  0  0  0  0
  186.9820  176.7220  136.4660 N   0  0  0  0  0  0  0  0  0  0  0  0
  188.8120  178.1470  137.3340 C   0  0  0  0  0  2  0  0  0  0  0  0
  185.6280  176.4580  136.0730 C   0  0  0  0  0  0  0  0  0  0  0  0
  187.9230  175.6140  136.6330 C   0  0  0  0  0  2  0  0  0  0  0  0
  185.2560  175.2730  135.8490 O   0  0  0  0  0  0  0  0  0  0  0  0
  188.6050  175.6830  138.0030 C   0  0  0  0  0  2  0  0  0  0  0  0
  188.8940  177.1220  138.4630 C   0  0  1  0  0  3  0  0  0  0  0  0
  190.1610  177.2120  139.1890 N   0  0  0  0  0  0  0  0  0  0  0  0
  189.2690  176.9990  145.6170 C   0  0  2  0  0  3  0  0  0  0  0  0
  190.2380  177.2660  140.6320 C   0  0  0  0  0  0  0  0  0  0  0  0
  190.3760  177.3100  143.4400 C   0  0  0  0  0  0  0  0  0  0  0  0
  188.0260  177.6600  145.0190 C   0  0  0  0  0  2  0  0  0  0  0  0
  189.4730  177.4710  147.0410 C   0  0  0  0  0  1  0  0  0  0  0  0
  189.1320  177.3110  142.7980 C   0  0  0  0  0  0  0  0  0  0  0  0
  190.4260  177.3030  144.8370 O   0  0  0  0  0  0  0  0  0  0  0  0
  187.9440  177.3640  143.5900 N   0  0  0  0  0  2  0  0  0  0  0  0
  189.0610  177.2740  141.4040 C   0  0  0  0  0  3  0  0  0  0  0  0
  191.4810  177.2980  141.2900 C   0  0  0  0  0  3  0  0  0  0  0  0
  191.5510  177.3190  142.6850 C   0  0  0  0  0  3  0  0  0  0  0  0
  191.3610  177.3470  138.3670 C   0  0  0  0  0  2  0  0  0  0  0  0
  192.7940  175.1790  135.6340 C   0  0  0  0  0  2  0  0  0  0  0  0
  193.3000  174.0310  136.4000 N   0  0  0  0  0  0  0  0  0  0  0  0
  193.2870  175.7780  138.2360 C   0  0  0  0  0  2  0  0  0  0  0  0
  191.6310  175.8860  136.3430 C   0  0  0  0  0  2  0  0  0  0  0  0
  191.8310  175.9920  137.8580 C   0  0  0  0  0  3  0  0  0  0  0  0
  193.7510  174.3950  137.7590 C   0  0  0  0  0  2  0  0  0  0  0  0
  192.3820  172.3300  135.3850 C   0  0  0  0  0  1  0  0  0  0  0  0
  192.2950  173.1270  136.5280 O   0  0  0  0  0  0  0  0  0  0  0  0
  183.2870  177.3240  135.6390 C   0  0  0  0  0  2  0  0  0  0  0  0
  181.1100  178.3250  136.2340 C   0  0  0  0  0  1  0  0  0  0  0  0
  182.4080  177.7750  136.7940 C   0  0  1  0  0  3  0  0  0  0  0  0
  182.1270  176.6430  137.6700 N   0  0  0  0  0  2  0  0  0  0  0  0
  183.2610  177.7050  139.6050 N   0  0  0  0  0  2  0  0  0  0  0  0
  182.5260  176.6130  139.0390 C   0  0  0  0  0  0  0  0  0  0  0  0
  182.2170  175.6180  139.7460 O   0  0  0  0  0  0  0  0  0  0  0  0
  183.5380  177.8620  141.0290 C   0  0  0  0  0  3  0  0  0  0  0  0
  182.7540  179.0710  143.1160 C   0  0  0  0  0  2  0  0  0  0  0  0
  184.9590  179.1430  142.7030 C   0  0  0  0  0  2  0  0  0  0  0  0
  183.9920  178.5540  143.5380 O   0  0  0  0  0  0  0  0  0  0  0  0
  184.8340  178.6500  141.2520 C   0  0  0  0  0  2  0  0  0  0  0  0
  182.3330  178.4550  141.7740 C   0  0  0  0  0  2  0  0  0  0  0  0
  1  4  1  0  0  0  0
  2  5  1  0  0  0  0
  3  6  1  0  0  0  0
  3  1  1  0  0  0  0
  4  9  1  0  0  0  0
  5  3  1  0  0  0  0
  6  8  1  0  0  0  0
  7  5  2  0  0  0  0
  8  9  1  0  0  0  0
  9 10  1  6  0  0  0
 10 12  1  0  0  0  0
 11 15  1  1  0  0  0
 12 20  2  0  0  0  0
 12 19  1  0  0  0  0
 13 17  1  0  0  0  0
 14 11  1  0  0  0  0
 16 13  1  0  0  0  0
 16 18  1  0  0  0  0
 17 11  1  0  0  0  0
 18 14  1  0  0  0  0
 19 16  2  0  0  0  0
 20 21  1  0  0  0  0
 21 13  2  0  0  0  0
 22 10  1  0  0  0  0
 23 26  1  0  0  0  0
 23 24  1  0  0  0  0
 24 30  1  0  0  0  0
 24 28  1  0  0  0  0
 26 27  1  0  0  0  0
 27 25  1  0  0  0  0
 27 22  1  0  0  0  0
 28 25  1  0  0  0  0
 29 30  1  0  0  0  0
 31  2  1  0  0  0  0
 31 33  1  0  0  0  0
 33 32  1  6  0  0  0
 33 34  1  0  0  0  0
 34 36  1  0  0  0  0
 35 38  1  0  0  0  0
 36 35  1  0  0  0  0
 36 37  2  0  0  0  0
 38 42  1  0  0  0  0
 38 43  1  0  0  0  0
 39 41  1  0  0  0  0
 40 41  1  0  0  0  0
 42 40  1  0  0  0  0
 43 39  1  0  0  0  0
M  END
>  <MODEL>
5

>  <REMARK>
 VINA RESULT:      -6.9      2.677      8.258
  Name = 
  9 active torsions:
  status: ('A' for Active; 'I' for Inactive)
    1  A    between atoms: C_1  and  N_34
    2  A    between atoms: C_1  and  C_35
    3  A    between atoms: N_3  and  C_42
    4  A    between atoms: N_4  and  C_15
    5  A    between atoms: C_8  and  N_34
    6  A    between atoms: C_11  and  N_14
    7  A    between atoms: C_15  and  C_42
    8  A    between atoms: N_19  and  O_37
    9  A    between atoms: N_34  and  C_38
                            x       y       z     vdW  Elec       q    Type
                         _______ _______ _______ _____ _____    ______ ____

>  <TORSDO>
F 9

$$$$
=
 OpenBabel11052416423D

 43 47  0  0  1  0  0  0  0  0999 V2000
  184.6680  178.6440  142.2390 C   0  0  0  0  0  2  0  0  0  0  0  0
  185.1300  178.3790  145.0720 N   0  0  0  0  0  2  0  0  0  0  0  0
  183.5920  178.9130  143.1980 N   0  0  0  0  0  0  0  0  0  0  0  0
  184.1430  178.6070  140.8030 C   0  0  0  0  0  2  0  0  0  0  0  0
  183.8420  178.7920  144.6050 C   0  0  0  0  0  0  0  0  0  0  0  0
  182.2600  179.2910  142.7230 C   0  0  0  0  0  2  0  0  0  0  0  0
  182.9200  179.0350  145.4330 O   0  0  0  0  0  0  0  0  0  0  0  0
  181.7540  178.2950  141.6760 C   0  0  0  0  0  2  0  0  0  0  0  0
  182.8690  177.7660  140.7560 C   0  0  1  0  0  3  0  0  0  0  0  0
  182.3920  177.5780  139.3850 N   0  0  0  0  0  0  0  0  0  0  0  0
  180.6260  171.7360  137.1660 C   0  0  2  0  0  3  0  0  0  0  0  0
  181.7260  176.3720  138.9440 C   0  0  0  0  0  0  0  0  0  0  0  0
  180.4620  173.9970  138.1290 C   0  0  0  0  0  0  0  0  0  0  0  0
  181.6640  172.2870  136.1870 C   0  0  0  0  0  2  0  0  0  0  0  0
  179.7070  170.7660  136.4560 C   0  0  0  0  0  1  0  0  0  0  0  0
  181.7620  174.2830  137.6970 C   0  0  0  0  0  0  0  0  0  0  0  0
  179.8590  172.7970  137.7380 O   0  0  0  0  0  0  0  0  0  0  0  0
  182.4180  173.3690  136.8170 N   0  0  0  0  0  2  0  0  0  0  0  0
  182.3970  175.4560  138.1130 C   0  0  0  0  0  3  0  0  0  0  0  0
  180.4080  176.0850  139.3450 C   0  0  0  0  0  3  0  0  0  0  0  0
  179.7780  174.9050  138.9400 C   0  0  0  0  0  3  0  0  0  0  0  0
  182.7160  178.6460  138.4430 C   0  0  0  0  0  2  0  0  0  0  0  0
  181.3680  182.1110  137.8180 C   0  0  0  0  0  2  0  0  0  0  0  0
  179.9940  181.8220  137.3820 N   0  0  0  0  0  0  0  0  0  0  0  0
  181.0800  179.5990  136.8300 C   0  0  0  0  0  2  0  0  0  0  0  0
  181.9340  181.0140  138.7290 C   0  0  0  0  0  2  0  0  0  0  0  0
  181.5450  179.6030  138.2760 C   0  0  0  0  0  3  0  0  0  0  0  0
  179.8730  180.5340  136.6680 C   0  0  0  0  0  2  0  0  0  0  0  0
  178.9640  183.0920  138.8280 C   0  0  0  0  0  1  0  0  0  0  0  0
  179.2000  181.7600  138.4810 O   0  0  0  0  0  0  0  0  0  0  0  0
  185.4220  178.1560  146.4800 C   0  0  0  0  0  2  0  0  0  0  0  0
  186.4120  179.8490  147.9790 C   0  0  0  0  0  1  0  0  0  0  0  0
  186.7140  178.8510  146.8770 C   0  0  1  0  0  3  0  0  0  0  0  0
  187.6770  177.8660  147.3540 N   0  0  0  0  0  2  0  0  0  0  0  0
  188.6280  177.5220  145.0880 N   0  0  0  0  0  2  0  0  0  0  0  0
  188.6180  177.2300  146.4920 C   0  0  0  0  0  0  0  0  0  0  0  0
  189.4450  176.4160  146.9790 O   0  0  0  0  0  0  0  0  0  0  0  0
  189.6680  177.0850  144.1630 C   0  0  0  0  0  3  0  0  0  0  0  0
  191.6700  177.9080  142.8410 C   0  0  0  0  0  2  0  0  0  0  0  0
  190.1750  176.6770  141.7050 C   0  0  0  0  0  2  0  0  0  0  0  0
  191.4610  176.6380  142.2750 O   0  0  0  0  0  0  0  0  0  0  0  0
  189.0800  176.7820  142.7800 C   0  0  0  0  0  2  0  0  0  0  0  0
  190.8370  178.0790  144.1190 C   0  0  0  0  0  2  0  0  0  0  0  0
  1  3  1  0  0  0  0
  2 31  1  0  0  0  0
  3  5  1  0  0  0  0
  4  1  1  0  0  0  0
  5  2  1  0  0  0  0
  5  7  2  0  0  0  0
  6  3  1  0  0  0  0
  8  6  1  0  0  0  0
  9 10  1  6  0  0  0
  9  4  1  0  0  0  0
  9  8  1  0  0  0  0
 11 15  1  6  0  0  0
 11 17  1  0  0  0  0
 12 20  1  0  0  0  0
 12 10  1  0  0  0  0
 13 21  1  0  0  0  0
 14 18  1  0  0  0  0
 14 11  1  0  0  0  0
 16 19  1  0  0  0  0
 16 13  2  0  0  0  0
 17 13  1  0  0  0  0
 18 16  1  0  0  0  0
 19 12  2  0  0  0  0
 21 20  2  0  0  0  0
 22 10  1  0  0  0  0
 23 26  1  0  0  0  0
 24 23  1  0  0  0  0
 24 30  1  0  0  0  0
 25 27  1  0  0  0  0
 27 22  1  0  0  0  0
 27 26  1  0  0  0  0
 28 25  1  0  0  0  0
 28 24  1  0  0  0  0
 30 29  1  0  0  0  0
 31 33  1  0  0  0  0
 33 34  1  0  0  0  0
 33 32  1  1  0  0  0
 35 36  1  0  0  0  0
 36 37  2  0  0  0  0
 36 34  1  0  0  0  0
 38 35  1  0  0  0  0
 39 43  1  0  0  0  0
 40 41  1  0  0  0  0
 40 42  1  0  0  0  0
 41 39  1  0  0  0  0
 42 38  1  0  0  0  0
 43 38  1  0  0  0  0
M  END
>  <MODEL>
6

>  <REMARK>
 VINA RESULT:      -6.7      3.327      7.401
  Name = 
  9 active torsions:
  status: ('A' for Active; 'I' for Inactive)
    1  A    between atoms: C_1  and  N_34
    2  A    between atoms: C_1  and  C_35
    3  A    between atoms: N_3  and  C_42
    4  A    between atoms: N_4  and  C_15
    5  A    between atoms: C_8  and  N_34
    6  A    between atoms: C_11  and  N_14
    7  A    between atoms: C_15  and  C_42
    8  A    between atoms: N_19  and  O_37
    9  A    between atoms: N_34  and  C_38
                            x       y       z     vdW  Elec       q    Type
                         _______ _______ _______ _____ _____    ______ ____

>  <TORSDO>
F 9

$$$$
=
 OpenBabel11052416423D

 43 47  0  0  1  0  0  0  0  0999 V2000
  184.7830  179.2190  142.2520 C   0  0  0  0  0  2  0  0  0  0  0  0
  184.9770  178.7230  145.0840 N   0  0  0  0  0  2  0  0  0  0  0  0
  183.5750  179.0220  143.0580 N   0  0  0  0  0  0  0  0  0  0  0  0
  184.4660  179.2220  140.7550 C   0  0  0  0  0  2  0  0  0  0  0  0
  183.6870  178.7910  144.4680 C   0  0  0  0  0  0  0  0  0  0  0  0
  182.2560  179.0450  142.4240 C   0  0  0  0  0  2  0  0  0  0  0  0
  182.6470  178.6330  145.1670 O   0  0  0  0  0  0  0  0  0  0  0  0
  182.2130  178.0950  141.2240 C   0  0  0  0  0  2  0  0  0  0  0  0
  183.5350  178.0530  140.4380 C   0  0  1  0  0  3  0  0  0  0  0  0
  183.3030  177.9180  138.9990 N   0  0  0  0  0  0  0  0  0  0  0  0
  188.8840  177.1620  135.7680 C   0  0  2  0  0  3  0  0  0  0  0  0
  184.3750  177.7660  138.0410 C   0  0  0  0  0  0  0  0  0  0  0  0
  186.4730  177.4140  136.2030 C   0  0  0  0  0  0  0  0  0  0  0  0
  189.1340  178.2210  136.8430 C   0  0  0  0  0  2  0  0  0  0  0  0
  189.8270  177.3720  134.6030 C   0  0  0  0  0  1  0  0  0  0  0  0
  186.7460  177.8520  137.5040 C   0  0  0  0  0  0  0  0  0  0  0  0
  187.5310  177.2170  135.3110 O   0  0  0  0  0  0  0  0  0  0  0  0
  188.0960  178.1440  137.8690 N   0  0  0  0  0  2  0  0  0  0  0  0
  185.7070  178.0130  138.4230 C   0  0  0  0  0  3  0  0  0  0  0  0
  184.1130  177.3560  136.7200 C   0  0  0  0  0  3  0  0  0  0  0  0
  185.1550  177.1810  135.8060 C   0  0  0  0  0  3  0  0  0  0  0  0
  181.9150  178.0460  138.5610 C   0  0  0  0  0  2  0  0  0  0  0  0
  180.0480  180.6480  136.5690 C   0  0  0  0  0  2  0  0  0  0  0  0
  180.0720  181.7960  137.4860 N   0  0  0  0  0  0  0  0  0  0  0  0
  180.3990  179.9250  139.1620 C   0  0  0  0  0  2  0  0  0  0  0  0
  181.2310  179.6960  136.7970 C   0  0  0  0  0  2  0  0  0  0  0  0
  181.5600  179.4990  138.2800 C   0  0  0  0  0  3  0  0  0  0  0  0
  180.0670  181.4020  138.9090 C   0  0  0  0  0  2  0  0  0  0  0  0
  180.7830  183.6730  136.6250 C   0  0  0  0  0  1  0  0  0  0  0  0
  181.2080  182.5030  137.2580 O   0  0  0  0  0  0  0  0  0  0  0  0
  185.1600  178.4090  146.4940 C   0  0  0  0  0  2  0  0  0  0  0  0
  186.0670  180.0920  148.0540 C   0  0  0  0  0  1  0  0  0  0  0  0
  186.4360  179.0430  147.0230 C   0  0  1  0  0  3  0  0  0  0  0  0
  187.2750  178.0220  147.6380 N   0  0  0  0  0  2  0  0  0  0  0  0
  188.4980  177.5850  145.5240 N   0  0  0  0  0  2  0  0  0  0  0  0
  188.2890  177.3230  146.9170 C   0  0  0  0  0  0  0  0  0  0  0  0
  189.0000  176.4790  147.5210 O   0  0  0  0  0  0  0  0  0  0  0  0
  189.6280  177.0780  144.7510 C   0  0  0  0  0  3  0  0  0  0  0  0
  191.6060  177.8160  143.3460 C   0  0  0  0  0  2  0  0  0  0  0  0
  190.3100  176.2120  142.4600 C   0  0  0  0  0  2  0  0  0  0  0  0
  191.5590  176.4390  143.0660 O   0  0  0  0  0  0  0  0  0  0  0  0
  189.1520  176.4210  143.4490 C   0  0  0  0  0  2  0  0  0  0  0  0
  190.6900  178.1640  144.5280 C   0  0  0  0  0  2  0  0  0  0  0  0
  1  3  1  0  0  0  0
  2 31  1  0  0  0  0
  3  5  1  0  0  0  0
  4  1  1  0  0  0  0
  5  2  1  0  0  0  0
  5  7  2  0  0  0  0
  6  3  1  0  0  0  0
  8  6  1  0  0  0  0
  9 10  1  6  0  0  0
  9  4  1  0  0  0  0
  9  8  1  0  0  0  0
 11 15  1  6  0  0  0
 11 14  1  0  0  0  0
 12 19  1  0  0  0  0
 12 10  1  0  0  0  0
 13 16  1  0  0  0  0
 14 18  1  0  0  0  0
 16 18  1  0  0  0  0
 16 19  2  0  0  0  0
 17 11  1  0  0  0  0
 17 13  1  0  0  0  0
 20 12  2  0  0  0  0
 21 13  2  0  0  0  0
 21 20  1  0  0  0  0
 22 10  1  0  0  0  0
 23 26  1  0  0  0  0
 23 24  1  0  0  0  0
 24 28  1  0  0  0  0
 26 27  1  0  0  0  0
 27 22  1  0  0  0  0
 27 25  1  0  0  0  0
 28 25  1  0  0  0  0
 29 30  1  0  0  0  0
 30 24  1  0  0  0  0
 31 33  1  0  0  0  0
 33 34  1  0  0  0  0
 33 32  1  1  0  0  0
 35 36  1  0  0  0  0
 36 37  2  0  0  0  0
 36 34  1  0  0  0  0
 38 35  1  0  0  0  0
 39 43  1  0  0  0  0
 40 41  1  0  0  0  0
 40 42  1  0  0  0  0
 41 39  1  0  0  0  0
 42 38  1  0  0  0  0
 43 38  1  0  0  0  0
M  END
>  <MODEL>
7

>  <REMARK>
 VINA RESULT:      -6.7      2.042      7.168
  Name = 
  9 active torsions:
  status: ('A' for Active; 'I' for Inactive)
    1  A    between atoms: C_1  and  N_34
    2  A    between atoms: C_1  and  C_35
    3  A    between atoms: N_3  and  C_42
    4  A    between atoms: N_4  and  C_15
    5  A    between atoms: C_8  and  N_34
    6  A    between atoms: C_11  and  N_14
    7  A    between atoms: C_15  and  C_42
    8  A    between atoms: N_19  and  O_37
    9  A    between atoms: N_34  and  C_38
                            x       y       z     vdW  Elec       q    Type
                         _______ _______ _______ _____ _____    ______ ____

>  <TORSDO>
F 9

$$$$
=
 OpenBabel11052416423D

 43 47  0  0  1  0  0  0  0  0999 V2000
  185.3210  178.9990  141.8400 C   0  0  0  0  0  2  0  0  0  0  0  0
  185.2020  178.6420  144.6980 N   0  0  0  0  0  2  0  0  0  0  0  0
  184.0320  178.8180  142.5160 N   0  0  0  0  0  0  0  0  0  0  0  0
  185.1720  178.9240  140.3190 C   0  0  0  0  0  2  0  0  0  0  0  0
  183.9890  178.6570  143.9400 C   0  0  0  0  0  0  0  0  0  0  0  0
  182.7920  178.7870  141.7390 C   0  0  0  0  0  2  0  0  0  0  0  0
  182.8790  178.5130  144.5250 O   0  0  0  0  0  0  0  0  0  0  0  0
  182.8950  177.7800  140.5900 C   0  0  0  0  0  2  0  0  0  0  0  0
  184.2970  177.7250  139.9590 C   0  0  1  0  0  3  0  0  0  0  0  0
  184.2290  177.5170  138.5120 N   0  0  0  0  0  0  0  0  0  0  0  0
  181.3760  172.0380  136.5120 C   0  0  2  0  0  3  0  0  0  0  0  0
  183.4280  176.4780  137.9040 C   0  0  0  0  0  0  0  0  0  0  0  0
  181.8530  174.4390  136.7790 C   0  0  0  0  0  0  0  0  0  0  0  0
  182.8860  171.8000  136.4490 C   0  0  0  0  0  2  0  0  0  0  0  0
  180.6700  171.1540  135.5070 C   0  0  0  0  0  1  0  0  0  0  0  0
  183.1070  174.1370  137.3230 C   0  0  0  0  0  0  0  0  0  0  0  0
  181.0700  173.4080  136.2500 O   0  0  0  0  0  0  0  0  0  0  0  0
  183.5810  172.7910  137.2690 N   0  0  0  0  0  2  0  0  0  0  0  0
  183.8840  175.1460  137.8960 C   0  0  0  0  0  3  0  0  0  0  0  0
  182.1790  176.7700  137.3260 C   0  0  0  0  0  3  0  0  0  0  0  0
  181.3960  175.7580  136.7660 C   0  0  0  0  0  3  0  0  0  0  0  0
  185.1020  178.3640  137.7020 C   0  0  0  0  0  2  0  0  0  0  0  0
  187.5020  177.4410  134.9440 C   0  0  0  0  0  2  0  0  0  0  0  0
  188.6430  176.9150  135.7070 N   0  0  0  0  0  0  0  0  0  0  0  0
  187.5810  178.3600  137.4980 C   0  0  0  0  0  2  0  0  0  0  0  0
  186.1760  177.2930  135.7020 C   0  0  0  0  0  2  0  0  0  0  0  0
  186.3090  177.5850  137.2000 C   0  0  0  0  0  3  0  0  0  0  0  0
  188.8020  177.5570  137.0270 C   0  0  0  0  0  2  0  0  0  0  0  0
  189.4100  174.9530  135.1330 C   0  0  0  0  0  1  0  0  0  0  0  0
  188.4430  175.5880  135.9150 O   0  0  0  0  0  0  0  0  0  0  0  0
  185.2310  178.3990  146.1330 C   0  0  0  0  0  2  0  0  0  0  0  0
  185.9380  180.0500  147.8250 C   0  0  0  0  0  1  0  0  0  0  0  0
  186.4310  179.0800  146.7680 C   0  0  1  0  0  3  0  0  0  0  0  0
  187.2970  178.0810  147.3820 N   0  0  0  0  0  2  0  0  0  0  0  0
  188.5610  177.7100  145.2790 N   0  0  0  0  0  2  0  0  0  0  0  0
  188.3430  177.4250  146.6670 C   0  0  0  0  0  0  0  0  0  0  0  0
  189.0750  176.5990  147.2710 O   0  0  0  0  0  0  0  0  0  0  0  0
  189.7160  177.2500  144.5160 C   0  0  0  0  0  3  0  0  0  0  0  0
  191.6660  178.0690  143.1150 C   0  0  0  0  0  2  0  0  0  0  0  0
  190.4490  176.4010  142.2340 C   0  0  0  0  0  2  0  0  0  0  0  0
  191.6830  176.6900  142.8440 O   0  0  0  0  0  0  0  0  0  0  0  0
  189.2770  176.5640  143.2160 C   0  0  0  0  0  2  0  0  0  0  0  0
  190.7290  178.3820  144.2900 C   0  0  0  0  0  2  0  0  0  0  0  0
  1  3  1  0  0  0  0
  2 31  1  0  0  0  0
  3  5  1  0  0  0  0
  4  1  1  0  0  0  0
  5  7  2  0  0  0  0
  5  2  1  0  0  0  0
  6  3  1  0  0  0  0
  8  6  1  0  0  0  0
  9 10  1  6  0  0  0
  9  4  1  0  0  0  0
  9  8  1  0  0  0  0
 11 15  1  6  0  0  0
 12 10  1  0  0  0  0
 13 16  1  0  0  0  0
 14 11  1  0  0  0  0
 14 18  1  0  0  0  0
 16 19  2  0  0  0  0
 17 11  1  0  0  0  0
 17 13  1  0  0  0  0
 18 16  1  0  0  0  0
 19 12  1  0  0  0  0
 20 12  2  0  0  0  0
 21 13  2  0  0  0  0
 21 20  1  0  0  0  0
 22 10  1  0  0  0  0
 23 26  1  0  0  0  0
 23 24  1  0  0  0  0
 24 30  1  0  0  0  0
 24 28  1  0  0  0  0
 26 27  1  0  0  0  0
 27 25  1  0  0  0  0
 27 22  1  0  0  0  0
 28 25  1  0  0  0  0
 29 30  1  0  0  0  0
 31 33  1  0  0  0  0
 33 34  1  0  0  0  0
 33 32  1  1  0  0  0
 35 36  1  0  0  0  0
 36 37  2  0  0  0  0
 36 34  1  0  0  0  0
 38 35  1  0  0  0  0
 39 43  1  0  0  0  0
 40 41  1  0  0  0  0
 40 42  1  0  0  0  0
 41 39  1  0  0  0  0
 42 38  1  0  0  0  0
 43 38  1  0  0  0  0
M  END
>  <MODEL>
8

>  <REMARK>
 VINA RESULT:      -6.7      2.787      8.332
  Name = 
  9 active torsions:
  status: ('A' for Active; 'I' for Inactive)
    1  A    between atoms: C_1  and  N_34
    2  A    between atoms: C_1  and  C_35
    3  A    between atoms: N_3  and  C_42
    4  A    between atoms: N_4  and  C_15
    5  A    between atoms: C_8  and  N_34
    6  A    between atoms: C_11  and  N_14
    7  A    between atoms: C_15  and  C_42
    8  A    between atoms: N_19  and  O_37
    9  A    between atoms: N_34  and  C_38
                            x       y       z     vdW  Elec       q    Type
                         _______ _______ _______ _____ _____    ______ ____

>  <TORSDO>
F 9

$$$$
=
 OpenBabel11052416423D

 43 47  0  0  1  0  0  0  0  0999 V2000
  189.2110  176.2360  141.8930 C   0  0  0  0  0  2  0  0  0  0  0  0
  191.3220  176.6080  139.9670 N   0  0  0  0  0  2  0  0  0  0  0  0
  189.0790  177.2340  140.8280 N   0  0  0  0  0  0  0  0  0  0  0  0
  188.0970  176.3760  142.9340 C   0  0  0  0  0  2  0  0  0  0  0  0
  190.1310  177.3960  139.8680 C   0  0  0  0  0  0  0  0  0  0  0  0
  187.8830  178.0740  140.7500 C   0  0  0  0  0  2  0  0  0  0  0  0
  190.0150  178.2470  138.9420 O   0  0  0  0  0  0  0  0  0  0  0  0
  187.6030  178.7460  142.0970 C   0  0  0  0  0  2  0  0  0  0  0  0
  187.9370  177.8490  143.3010 C   0  0  1  0  0  3  0  0  0  0  0  0
  186.9810  178.0360  144.3940 N   0  0  0  0  0  0  0  0  0  0  0  0
  180.8740  178.7130  142.2950 C   0  0  2  0  0  3  0  0  0  0  0  0
  185.5850  178.3420  144.1730 C   0  0  0  0  0  0  0  0  0  0  0  0
  182.8590  178.8760  143.7430 C   0  0  0  0  0  0  0  0  0  0  0  0
  181.7870  179.0010  141.1020 C   0  0  0  0  0  2  0  0  0  0  0  0
  179.5590  179.4450  142.1300 C   0  0  0  0  0  1  0  0  0  0  0  0
  183.6820  178.5200  142.6690 C   0  0  0  0  0  0  0  0  0  0  0  0
  181.4990  179.1110  143.5160 O   0  0  0  0  0  0  0  0  0  0  0  0
  183.1220  178.4630  141.3550 N   0  0  0  0  0  2  0  0  0  0  0  0
  185.0330  178.2400  142.8830 C   0  0  0  0  0  3  0  0  0  0  0  0
  184.7520  178.7320  145.2380 C   0  0  0  0  0  3  0  0  0  0  0  0
  183.3970  178.9980  145.0260 C   0  0  0  0  0  3  0  0  0  0  0  0
  187.5370  177.9940  145.7440 C   0  0  0  0  0  2  0  0  0  0  0  0
  191.2990  178.2550  145.7430 C   0  0  0  0  0  2  0  0  0  0  0  0
  191.6890  176.9300  146.2470 N   0  0  0  0  0  0  0  0  0  0  0  0
  189.3360  177.0500  147.1800 C   0  0  0  0  0  2  0  0  0  0  0  0
  189.9350  178.2330  145.0400 C   0  0  0  0  0  2  0  0  0  0  0  0
  188.9110  177.3410  145.7510 C   0  0  0  0  0  3  0  0  0  0  0  0
  190.7040  176.3560  147.1860 C   0  0  0  0  0  2  0  0  0  0  0  0
  192.1680  174.8590  145.7470 C   0  0  0  0  0  1  0  0  0  0  0  0
  191.7920  176.0840  145.1900 O   0  0  0  0  0  0  0  0  0  0  0  0
  192.4590  176.7840  139.0750 C   0  0  0  0  0  2  0  0  0  0  0  0
  193.4120  176.2400  136.8640 C   0  0  0  0  0  1  0  0  0  0  0  0
  192.1360  176.2660  137.6840 C   0  0  1  0  0  3  0  0  0  0  0  0
  191.5820  174.9200  137.7760 N   0  0  0  0  0  2  0  0  0  0  0  0
  189.4150  175.6150  136.7870 N   0  0  0  0  0  2  0  0  0  0  0  0
  190.2670  174.5970  137.3270 C   0  0  0  0  0  0  0  0  0  0  0  0
  189.8680  173.4060  137.4050 O   0  0  0  0  0  0  0  0  0  0  0  0
  188.1430  175.3560  136.1210 C   0  0  0  0  0  3  0  0  0  0  0  0
  186.4110  176.4100  134.5960 C   0  0  0  0  0  2  0  0  0  0  0  0
  185.6210  175.4090  136.4450 C   0  0  0  0  0  2  0  0  0  0  0  0
  185.7300  175.2660  135.0490 O   0  0  0  0  0  0  0  0  0  0  0  0
  186.9920  175.3130  137.1340 C   0  0  0  0  0  2  0  0  0  0  0  0
  187.8990  176.3420  134.9700 C   0  0  0  0  0  2  0  0  0  0  0  0
  1  4  1  0  0  0  0
  3  1  1  0  0  0  0
  4  9  1  0  0  0  0
  5  2  1  0  0  0  0
  5  3  1  0  0  0  0
  6  3  1  0  0  0  0
  6  8  1  0  0  0  0
  7  5  2  0  0  0  0
  8  9  1  0  0  0  0
  9 10  1  1  0  0  0
 10 22  1  0  0  0  0
 11 15  1  6  0  0  0
 11 17  1  0  0  0  0
 12 10  1  0  0  0  0
 12 20  1  0  0  0  0
 13 21  1  0  0  0  0
 14 18  1  0  0  0  0
 14 11  1  0  0  0  0
 16 19  1  0  0  0  0
 16 13  2  0  0  0  0
 17 13  1  0  0  0  0
 18 16  1  0  0  0  0
 19 12  2  0  0  0  0
 21 20  2  0  0  0  0
 22 27  1  0  0  0  0
 23 24  1  0  0  0  0
 24 28  1  0  0  0  0
 25 28  1  0  0  0  0
 26 23  1  0  0  0  0
 26 27  1  0  0  0  0
 27 25  1  0  0  0  0
 30 29  1  0  0  0  0
 30 24  1  0  0  0  0
 31  2  1  0  0  0  0
 33 32  1  6  0  0  0
 33 34  1  0  0  0  0
 33 31  1  0  0  0  0
 35 36  1  0  0  0  0
 36 37  2  0  0  0  0
 36 34  1  0  0  0  0
 38 35  1  0  0  0  0
 38 42  1  0  0  0  0
 39 43  1  0  0  0  0
 39 41  1  0  0  0  0
 40 42  1  0  0  0  0
 41 40  1  0  0  0  0
 43 38  1  0  0  0  0
M  END
>  <MODEL>
9

>  <REMARK>
 VINA RESULT:      -6.7      2.690      7.494
  Name = 
  9 active torsions:
  status: ('A' for Active; 'I' for Inactive)
    1  A    between atoms: C_1  and  N_34
    2  A    between atoms: C_1  and  C_35
    3  A    between atoms: N_3  and  C_42
    4  A    between atoms: N_4  and  C_15
    5  A    between atoms: C_8  and  N_34
    6  A    between atoms: C_11  and  N_14
    7  A    between atoms: C_15  and  C_42
    8  A    between atoms: N_19  and  O_37
    9  A    between atoms: N_34  and  C_38
                            x       y       z     vdW  Elec       q    Type
                         _______ _______ _______ _____ _____    ______ ____

>  <TORSDO>
F 9

$$$$
