=
 OpenBabel11052413353D

 28 29  0  0  1  0  0  0  0  0999 V2000
  190.5050  175.4980  142.5240 O   0  0  0  0  0  1  0  0  0  0  0  0
  188.8720  177.4730  140.9580 C   0  0  0  0  0  2  0  0  0  0  0  0
  190.5580  177.7480  143.3780 C   0  0  2  0  0  3  0  0  0  0  0  0
  188.5620  178.5770  141.9590 C   0  0  0  0  0  2  0  0  0  0  0  0
  190.9320  176.7960  142.2320 C   0  0  2  0  0  3  0  0  0  0  0  0
  190.3800  177.2720  140.8830 C   0  0  1  0  0  3  0  0  0  0  0  0
  189.0900  178.2390  143.3650 C   0  0  1  0  0  3  0  0  0  0  0  0
  188.1040  177.4290  144.2530 C   0  0  1  0  0  0  0  0  0  0  0  0
  187.6640  176.1620  143.5400 C   0  0  0  0  0  1  0  0  0  0  0  0
  189.0510  177.8500  146.5320 C   0  0  0  0  0  3  0  0  0  0  0  0
  188.7500  176.9990  145.5490 C   0  0  0  0  0  3  0  0  0  0  0  0
  189.6880  177.3490  147.7800 C   0  0  0  0  0  1  0  0  0  0  0  0
  186.8280  178.2330  144.5410 C   0  0  0  0  0  2  0  0  0  0  0  0
  185.8270  177.4960  145.4310 C   0  0  0  0  0  2  0  0  0  0  0  0
  185.1940  178.4350  146.4470 C   0  0  1  0  0  3  0  0  0  0  0  0
  186.0820  179.4360  146.8000 F   0  0  0  0  0  0  0  0  0  0  0  0
  184.0270  178.9980  145.9280 O   0  0  0  0  0  1  0  0  0  0  0  0
  190.7440  176.3210  139.7800 C   0  0  0  0  0  3  0  0  0  0  0  0
  190.0990  176.2760  138.6060 C   0  0  0  0  0  3  0  0  0  0  0  0
  188.2310  179.1080  136.8830 C   0  0  0  0  0  3  0  0  0  0  0  0
  188.9550  177.1760  138.2580 C   0  0  1  0  0  3  0  0  0  0  0  0
  187.1870  176.9480  136.3760 C   0  0  1  0  0  3  0  0  0  0  0  0
  189.4210  178.3260  137.3540 C   0  0  0  0  0  2  0  0  0  0  0  0
  187.8040  176.3460  137.6500 C   0  0  0  0  0  2  0  0  0  0  0  0
  185.7880  176.4090  136.1710 C   0  0  0  0  0  1  0  0  0  0  0  0
  187.1620  178.4500  136.4230 C   0  0  0  0  0  3  0  0  0  0  0  0
  190.9710  179.9840  144.1850 O   0  0  0  0  0  1  0  0  0  0  0  0
  191.5380  178.9130  143.4900 C   0  0  0  0  0  2  0  0  0  0  0  0
  2  4  1  0  0  0  0
  3 28  1  6  0  0  0
  4  7  1  0  0  0  0
  5  1  1  1  0  0  0
  5  3  1  0  0  0  0
  6 18  1  6  0  0  0
  6  2  1  0  0  0  0
  6  5  1  0  0  0  0
  7  3  1  0  0  0  0
  7  8  1  6  0  0  0
  8  9  1  6  0  0  0
  8 13  1  0  0  0  0
  8 11  1  0  0  0  0
 10 12  1  0  0  0  0
 11 10  2  0  0  0  0
 13 14  1  0  0  0  0
 14 15  1  0  0  0  0
 15 17  1  6  0  0  0
 15 16  1  0  0  0  0
 19 18  2  0  0  0  0
 20 23  1  0  0  0  0
 21 19  1  6  0  0  0
 22 25  1  1  0  0  0
 22 26  1  0  0  0  0
 22 24  1  0  0  0  0
 23 21  1  0  0  0  0
 24 21  1  0  0  0  0
 26 20  2  0  0  0  0
 28 27  1  0  0  0  0
M  END
>  <MODEL>
1

>  <REMARK>
 VINA RESULT:      -7.7      0.000      0.000
  Name = 
  8 active torsions:
  status: ('A' for Active; 'I' for Inactive)
    1  A    between atoms: C_1  and  C_3
    2  A    between atoms: C_1  and  C_11
    3  A    between atoms: C_1  and  C_27
    4  A    between atoms: C_6  and  C_8
    5  A    between atoms: C_8  and  C_11
    6  A    between atoms: C_9  and  C_18
    7  A    between atoms: C_14  and  C_25
    8  A    between atoms: C_16  and  C_21
                            x       y       z     vdW  Elec       q    Type
                         _______ _______ _______ _____ _____    ______ ____

>  <TORSDO>
F 8

$$$$
=
 OpenBabel11052413353D

 28 29  0  0  1  0  0  0  0  0999 V2000
  189.2170  179.4900  143.0290 O   0  0  0  0  0  1  0  0  0  0  0  0
  188.5930  176.6980  142.1160 C   0  0  0  0  0  2  0  0  0  0  0  0
  188.7950  177.9220  144.8060 C   0  0  2  0  0  3  0  0  0  0  0  0
  188.9700  175.8250  143.3050 C   0  0  0  0  0  2  0  0  0  0  0  0
  188.2260  178.6920  143.6050 C   0  0  2  0  0  3  0  0  0  0  0  0
  187.5950  177.7560  142.5670 C   0  0  1  0  0  3  0  0  0  0  0  0
  189.5970  176.6480  144.4440 C   0  0  1  0  0  3  0  0  0  0  0  0
  191.1370  176.8310  144.3440 C   0  0  1  0  0  0  0  0  0  0  0  0
  191.5110  178.2940  144.5110 C   0  0  0  0  0  1  0  0  0  0  0  0
  191.7540  176.3700  146.7250 C   0  0  0  0  0  3  0  0  0  0  0  0
  191.8590  176.0690  145.4290 C   0  0  0  0  0  3  0  0  0  0  0  0
  192.4980  175.5700  147.7370 C   0  0  0  0  0  1  0  0  0  0  0  0
  191.6580  176.4030  142.9640 C   0  0  0  0  0  2  0  0  0  0  0  0
  191.9710  177.5770  142.0350 C   0  0  0  0  0  2  0  0  0  0  0  0
  191.9070  177.1580  140.5740 C   0  0  1  0  0  3  0  0  0  0  0  0
  190.8960  177.8390  139.9190 F   0  0  0  0  0  0  0  0  0  0  0  0
  193.1280  177.4030  139.9440 O   0  0  0  0  0  1  0  0  0  0  0  0
  187.0580  178.5260  141.3960 C   0  0  0  0  0  3  0  0  0  0  0  0
  185.7610  178.8300  141.2490 C   0  0  0  0  0  3  0  0  0  0  0  0
  183.5070  179.1360  144.3000 C   0  0  0  0  0  3  0  0  0  0  0  0
  184.7060  178.4490  142.2420 C   0  0  1  0  0  3  0  0  0  0  0  0
  182.1720  178.9910  142.2490 C   0  0  1  0  0  3  0  0  0  0  0  0
  184.6790  179.4390  143.4140 C   0  0  0  0  0  2  0  0  0  0  0  0
  183.3450  178.3050  141.5280 C   0  0  0  0  0  2  0  0  0  0  0  0
  180.8620  178.3700  141.8150 C   0  0  0  0  0  1  0  0  0  0  0  0
  182.3110  178.9150  143.7430 C   0  0  0  0  0  3  0  0  0  0  0  0
  188.2930  177.1860  147.0480 O   0  0  0  0  0  1  0  0  0  0  0  0
  187.7230  177.6310  145.8530 C   0  0  0  0  0  2  0  0  0  0  0  0
  2  6  1  0  0  0  0
  2  4  1  0  0  0  0
  3 28  1  1  0  0  0
  4  7  1  0  0  0  0
  5  1  1  6  0  0  0
  5  3  1  0  0  0  0
  6 18  1  6  0  0  0
  6  5  1  0  0  0  0
  7  8  1  6  0  0  0
  7  3  1  0  0  0  0
  8  9  1  1  0  0  0
  8 11  1  0  0  0  0
 10 12  1  0  0  0  0
 11 10  2  0  0  0  0
 13  8  1  0  0  0  0
 14 13  1  0  0  0  0
 15 16  1  6  0  0  0
 15 14  1  0  0  0  0
 17 15  1  0  0  0  0
 19 18  2  0  0  0  0
 21 19  1  6  0  0  0
 21 23  1  0  0  0  0
 22 25  1  1  0  0  0
 22 26  1  0  0  0  0
 23 20  1  0  0  0  0
 24 21  1  0  0  0  0
 24 22  1  0  0  0  0
 26 20  2  0  0  0  0
 28 27  1  0  0  0  0
M  END
>  <MODEL>
2

>  <REMARK>
 VINA RESULT:      -7.5      3.407      5.942
  Name = 
  8 active torsions:
  status: ('A' for Active; 'I' for Inactive)
    1  A    between atoms: C_1  and  C_3
    2  A    between atoms: C_1  and  C_11
    3  A    between atoms: C_1  and  C_27
    4  A    between atoms: C_6  and  C_8
    5  A    between atoms: C_8  and  C_11
    6  A    between atoms: C_9  and  C_18
    7  A    between atoms: C_14  and  C_25
    8  A    between atoms: C_16  and  C_21
                            x       y       z     vdW  Elec       q    Type
                         _______ _______ _______ _____ _____    ______ ____

>  <TORSDO>
F 8

$$$$
=
 OpenBabel11052413353D

 28 29  0  0  1  0  0  0  0  0999 V2000
  189.8390  179.0840  143.1510 O   0  0  0  0  0  1  0  0  0  0  0  0
  189.4880  176.1060  142.9900 C   0  0  0  0  0  2  0  0  0  0  0  0
  187.5790  178.3580  142.7530 C   0  0  2  0  0  3  0  0  0  0  0  0
  188.0260  175.8830  143.3510 C   0  0  0  0  0  2  0  0  0  0  0  0
  189.0150  178.4520  142.2160 C   0  0  2  0  0  3  0  0  0  0  0  0
  189.5740  177.0800  141.8220 C   0  0  1  0  0  3  0  0  0  0  0  0
  187.3280  177.1970  143.7450 C   0  0  1  0  0  3  0  0  0  0  0  0
  187.4380  177.5670  145.2510 C   0  0  1  0  0  0  0  0  0  0  0  0
  186.7450  176.5210  146.1070 C   0  0  0  0  0  1  0  0  0  0  0  0
  189.3440  176.9140  146.7360 C   0  0  0  0  0  3  0  0  0  0  0  0
  188.8770  177.6220  145.7060 C   0  0  0  0  0  3  0  0  0  0  0  0
  190.7770  177.0230  147.1240 C   0  0  0  0  0  1  0  0  0  0  0  0
  186.7400  178.9030  145.5460 C   0  0  0  0  0  2  0  0  0  0  0  0
  185.2930  178.7500  146.0120 C   0  0  0  0  0  2  0  0  0  0  0  0
  184.3140  179.0680  144.8930 C   0  0  1  0  0  3  0  0  0  0  0  0
  184.3000  178.0500  143.9560 F   0  0  0  0  0  0  0  0  0  0  0  0
  183.0300  179.2560  145.4070 O   0  0  0  0  0  1  0  0  0  0  0  0
  190.9830  177.1920  141.3140 C   0  0  0  0  0  3  0  0  0  0  0  0
  191.3090  177.0660  140.0210 C   0  0  0  0  0  3  0  0  0  0  0  0
  188.8910  177.8640  137.1920 C   0  0  0  0  0  3  0  0  0  0  0  0
  190.3060  176.8150  138.9370 C   0  0  1  0  0  3  0  0  0  0  0  0
  190.6800  176.3820  136.4090 C   0  0  1  0  0  3  0  0  0  0  0  0
  189.7570  178.1380  138.3860 C   0  0  0  0  0  2  0  0  0  0  0  0
  190.9260  175.9090  137.8520 C   0  0  0  0  0  2  0  0  0  0  0  0
  190.8240  175.2200  135.4500 C   0  0  0  0  0  1  0  0  0  0  0  0
  189.3290  177.0200  136.2520 C   0  0  0  0  0  3  0  0  0  0  0  0
  185.8100  179.5480  141.6230 O   0  0  0  0  0  1  0  0  0  0  0  0
  186.5510  178.3640  141.6240 C   0  0  0  0  0  2  0  0  0  0  0  0
  2  4  1  0  0  0  0
  3 28  1  6  0  0  0
  3  7  1  0  0  0  0
  4  7  1  0  0  0  0
  5  3  1  0  0  0  0
  5  1  1  1  0  0  0
  6 18  1  1  0  0  0
  6  5  1  0  0  0  0
  6  2  1  0  0  0  0
  7  8  1  1  0  0  0
  8 13  1  0  0  0  0
  8 11  1  0  0  0  0
  8  9  1  1  0  0  0
 10 12  1  0  0  0  0
 11 10  2  0  0  0  0
 13 14  1  0  0  0  0
 15 16  1  6  0  0  0
 15 17  1  0  0  0  0
 15 14  1  0  0  0  0
 19 18  2  0  0  0  0
 20 23  1  0  0  0  0
 21 19  1  1  0  0  0
 22 25  1  6  0  0  0
 22 24  1  0  0  0  0
 23 21  1  0  0  0  0
 24 21  1  0  0  0  0
 26 22  1  0  0  0  0
 26 20  2  0  0  0  0
 27 28  1  0  0  0  0
M  END
>  <MODEL>
3

>  <REMARK>
 VINA RESULT:      -7.5      1.776      2.784
  Name = 
  8 active torsions:
  status: ('A' for Active; 'I' for Inactive)
    1  A    between atoms: C_1  and  C_3
    2  A    between atoms: C_1  and  C_11
    3  A    between atoms: C_1  and  C_27
    4  A    between atoms: C_6  and  C_8
    5  A    between atoms: C_8  and  C_11
    6  A    between atoms: C_9  and  C_18
    7  A    between atoms: C_14  and  C_25
    8  A    between atoms: C_16  and  C_21
                            x       y       z     vdW  Elec       q    Type
                         _______ _______ _______ _____ _____    ______ ____

>  <TORSDO>
F 8

$$$$
=
 OpenBabel11052413353D

 28 29  0  0  1  0  0  0  0  0999 V2000
  190.3630  178.9940  142.5410 O   0  0  0  0  0  1  0  0  0  0  0  0
  190.0030  176.0130  142.6080 C   0  0  0  0  0  2  0  0  0  0  0  0
  188.0960  178.2630  142.8840 C   0  0  2  0  0  3  0  0  0  0  0  0
  188.7240  175.8110  143.4090 C   0  0  0  0  0  2  0  0  0  0  0  0
  189.2970  178.3300  141.9290 C   0  0  2  0  0  3  0  0  0  0  0  0
  189.7190  176.9410  141.4350 C   0  0  1  0  0  3  0  0  0  0  0  0
  188.1700  177.1410  143.9490 C   0  0  1  0  0  3  0  0  0  0  0  0
  188.7340  177.5680  145.3330 C   0  0  1  0  0  0  0  0  0  0  0  0
  189.8260  178.6110  145.1640 C   0  0  0  0  0  1  0  0  0  0  0  0
  186.3660  177.9170  146.0660 C   0  0  0  0  0  3  0  0  0  0  0  0
  187.6650  178.1900  146.1990 C   0  0  0  0  0  3  0  0  0  0  0  0
  185.3730  178.5730  146.9600 C   0  0  0  0  0  1  0  0  0  0  0  0
  189.3760  176.3780  146.0600 C   0  0  0  0  0  2  0  0  0  0  0  0
  190.1930  176.7780  147.2890 C   0  0  0  0  0  2  0  0  0  0  0  0
  191.5420  176.0760  147.3100 C   0  0  1  0  0  3  0  0  0  0  0  0
  192.0670  175.9960  146.0320 F   0  0  0  0  0  0  0  0  0  0  0  0
  192.4300  176.7530  148.1460 O   0  0  0  0  0  1  0  0  0  0  0  0
  190.9020  177.0280  140.5150 C   0  0  0  0  0  3  0  0  0  0  0  0
  190.7920  177.1270  139.1830 C   0  0  0  0  0  3  0  0  0  0  0  0
  187.8930  178.6280  137.2270 C   0  0  0  0  0  3  0  0  0  0  0  0
  189.4790  177.1790  138.4650 C   0  0  1  0  0  3  0  0  0  0  0  0
  188.9550  176.8220  135.9520 C   0  0  1  0  0  3  0  0  0  0  0  0
  189.1190  178.6230  138.0910 C   0  0  0  0  0  2  0  0  0  0  0  0
  189.5070  176.2200  137.2560 C   0  0  0  0  0  2  0  0  0  0  0  0
  188.5210  175.7180  135.0130 C   0  0  0  0  0  1  0  0  0  0  0  0
  187.8120  177.7620  136.2100 C   0  0  0  0  0  3  0  0  0  0  0  0
  186.8920  178.8360  140.8730 O   0  0  0  0  0  1  0  0  0  0  0  0
  186.7710  178.2300  142.1260 C   0  0  0  0  0  2  0  0  0  0  0  0
  2  4  1  0  0  0  0
  3 28  1  6  0  0  0
  3  7  1  0  0  0  0
  4  7  1  0  0  0  0
  5  1  1  1  0  0  0
  5  3  1  0  0  0  0
  6 18  1  6  0  0  0
  6  5  1  0  0  0  0
  6  2  1  0  0  0  0
  7  8  1  1  0  0  0
  8  9  1  6  0  0  0
  8 13  1  0  0  0  0
  8 11  1  0  0  0  0
 10 11  2  0  0  0  0
 10 12  1  0  0  0  0
 13 14  1  0  0  0  0
 14 15  1  0  0  0  0
 15 16  1  6  0  0  0
 15 17  1  0  0  0  0
 19 18  2  0  0  0  0
 20 23  1  0  0  0  0
 21 19  1  6  0  0  0
 22 25  1  6  0  0  0
 22 26  1  0  0  0  0
 22 24  1  0  0  0  0
 23 21  1  0  0  0  0
 24 21  1  0  0  0  0
 26 20  2  0  0  0  0
 27 28  1  0  0  0  0
M  END
>  <MODEL>
4

>  <REMARK>
 VINA RESULT:      -7.4      2.275      3.658
  Name = 
  8 active torsions:
  status: ('A' for Active; 'I' for Inactive)
    1  A    between atoms: C_1  and  C_3
    2  A    between atoms: C_1  and  C_11
    3  A    between atoms: C_1  and  C_27
    4  A    between atoms: C_6  and  C_8
    5  A    between atoms: C_8  and  C_11
    6  A    between atoms: C_9  and  C_18
    7  A    between atoms: C_14  and  C_25
    8  A    between atoms: C_16  and  C_21
                            x       y       z     vdW  Elec       q    Type
                         _______ _______ _______ _____ _____    ______ ____

>  <TORSDO>
F 8

$$$$
=
 OpenBabel11052413353D

 28 29  0  0  1  0  0  0  0  0999 V2000
  187.8770  175.8170  143.5820 O   0  0  0  0  0  1  0  0  0  0  0  0
  188.7950  178.2410  145.1000 C   0  0  0  0  0  2  0  0  0  0  0  0
  188.6870  177.6180  142.2060 C   0  0  2  0  0  3  0  0  0  0  0  0
  189.7740  178.9230  144.1550 C   0  0  0  0  0  2  0  0  0  0  0  0
  187.6070  177.1280  143.1820 C   0  0  2  0  0  3  0  0  0  0  0  0
  187.4590  178.0580  144.3920 C   0  0  1  0  0  3  0  0  0  0  0  0
  189.9980  178.1020  142.8730 C   0  0  1  0  0  3  0  0  0  0  0  0
  191.1320  177.0430  142.9660 C   0  0  1  0  0  0  0  0  0  0  0  0
  190.5550  175.6390  142.9180 C   0  0  0  0  0  1  0  0  0  0  0  0
  191.7050  177.2000  140.5340 C   0  0  0  0  0  3  0  0  0  0  0  0
  192.0960  177.1590  141.8090 C   0  0  0  0  0  3  0  0  0  0  0  0
  192.7170  177.3150  139.4490 C   0  0  0  0  0  1  0  0  0  0  0  0
  191.8890  177.1590  144.2970 C   0  0  0  0  0  2  0  0  0  0  0  0
  191.7050  175.9500  145.2140 C   0  0  0  0  0  2  0  0  0  0  0  0
  191.7090  176.3600  146.6790 C   0  0  1  0  0  3  0  0  0  0  0  0
  190.4390  176.2470  147.2170 F   0  0  0  0  0  0  0  0  0  0  0  0
  192.6030  175.5710  147.4030 O   0  0  0  0  0  1  0  0  0  0  0  0
  186.4090  177.5540  145.3400 C   0  0  0  0  0  3  0  0  0  0  0  0
  185.1020  177.8130  145.1940 C   0  0  0  0  0  3  0  0  0  0  0  0
  184.0460  178.6450  141.6330 C   0  0  0  0  0  3  0  0  0  0  0  0
  184.5420  178.6190  144.0630 C   0  0  1  0  0  3  0  0  0  0  0  0
  182.1190  178.7190  143.1480 C   0  0  1  0  0  3  0  0  0  0  0  0
  184.7640  177.9050  142.7220 C   0  0  0  0  0  2  0  0  0  0  0  0
  183.0600  178.9510  144.3420 C   0  0  0  0  0  2  0  0  0  0  0  0
  180.8610  179.5450  143.3100 C   0  0  0  0  0  1  0  0  0  0  0  0
  182.7850  179.0400  141.8400 C   0  0  0  0  0  3  0  0  0  0  0  0
  188.4180  178.2970  139.9060 O   0  0  0  0  0  1  0  0  0  0  0  0
  188.1390  178.6550  141.2280 C   0  0  0  0  0  2  0  0  0  0  0  0
  3 28  1  1  0  0  0
  3  7  1  0  0  0  0
  3  5  1  0  0  0  0
  4  2  1  0  0  0  0
  5  1  1  1  0  0  0
  5  6  1  0  0  0  0
  6  2  1  0  0  0  0
  6 18  1  1  0  0  0
  7  8  1  1  0  0  0
  7  4  1  0  0  0  0
  8  9  1  6  0  0  0
  8 13  1  0  0  0  0
 10 11  2  0  0  0  0
 11  8  1  0  0  0  0
 12 10  1  0  0  0  0
 13 14  1  0  0  0  0
 14 15  1  0  0  0  0
 15 16  1  1  0  0  0
 15 17  1  0  0  0  0
 19 18  2  0  0  0  0
 20 26  2  0  0  0  0
 20 23  1  0  0  0  0
 21 24  1  0  0  0  0
 21 19  1  1  0  0  0
 22 25  1  1  0  0  0
 22 24  1  0  0  0  0
 23 21  1  0  0  0  0
 26 22  1  0  0  0  0
 27 28  1  0  0  0  0
M  END
>  <MODEL>
5

>  <REMARK>
 VINA RESULT:      -7.1      3.176      6.158
  Name = 
  8 active torsions:
  status: ('A' for Active; 'I' for Inactive)
    1  A    between atoms: C_1  and  C_3
    2  A    between atoms: C_1  and  C_11
    3  A    between atoms: C_1  and  C_27
    4  A    between atoms: C_6  and  C_8
    5  A    between atoms: C_8  and  C_11
    6  A    between atoms: C_9  and  C_18
    7  A    between atoms: C_14  and  C_25
    8  A    between atoms: C_16  and  C_21
                            x       y       z     vdW  Elec       q    Type
                         _______ _______ _______ _____ _____    ______ ____

>  <TORSDO>
F 8

$$$$
=
 OpenBabel11052413353D

 28 29  0  0  1  0  0  0  0  0999 V2000
  187.2740  176.6440  143.2120 O   0  0  0  0  0  1  0  0  0  0  0  0
  189.1380  178.9780  142.9040 C   0  0  0  0  0  2  0  0  0  0  0  0
  189.5840  176.1550  143.6790 C   0  0  2  0  0  3  0  0  0  0  0  0
  190.3220  178.6290  143.7940 C   0  0  0  0  0  2  0  0  0  0  0  0
  188.5380  176.5520  142.6250 C   0  0  2  0  0  3  0  0  0  0  0  0
  188.9120  177.8520  141.9040 C   0  0  1  0  0  3  0  0  0  0  0  0
  190.0910  177.3180  144.5650 C   0  0  1  0  0  3  0  0  0  0  0  0
  189.3670  177.4840  145.9310 C   0  0  1  0  0  0  0  0  0  0  0  0
  189.5750  178.8860  146.4760 C   0  0  0  0  0  1  0  0  0  0  0  0
  186.9800  178.1900  146.1940 C   0  0  0  0  0  3  0  0  0  0  0  0
  187.8760  177.2850  145.7970 C   0  0  0  0  0  3  0  0  0  0  0  0
  185.5260  177.9190  146.0280 C   0  0  0  0  0  1  0  0  0  0  0  0
  189.9360  176.5190  146.9810 C   0  0  0  0  0  2  0  0  0  0  0  0
  191.3470  176.8800  147.4460 C   0  0  0  0  0  2  0  0  0  0  0  0
  192.1500  175.6360  147.7950 C   0  0  1  0  0  3  0  0  0  0  0  0
  192.5920  175.0060  146.6450 F   0  0  0  0  0  0  0  0  0  0  0  0
  193.2390  175.9710  148.6000 O   0  0  0  0  0  1  0  0  0  0  0  0
  187.8710  178.2290  140.8900 C   0  0  0  0  0  3  0  0  0  0  0  0
  188.1170  178.2920  139.5740 C   0  0  0  0  0  3  0  0  0  0  0  0
  191.2970  176.3290  138.8550 C   0  0  0  0  0  3  0  0  0  0  0  0
  189.4500  177.9790  138.9670 C   0  0  1  0  0  3  0  0  0  0  0  0
  190.0110  176.6780  136.7970 C   0  0  1  0  0  3  0  0  0  0  0  0
  190.0510  176.7150  139.5970 C   0  0  0  0  0  2  0  0  0  0  0  0
  189.3170  177.8960  137.4310 C   0  0  0  0  0  2  0  0  0  0  0  0
  190.3010  176.9490  135.3360 C   0  0  0  0  0  1  0  0  0  0  0  0
  191.2800  176.3180  137.5180 C   0  0  0  0  0  3  0  0  0  0  0  0
  191.8790  175.4350  143.8710 O   0  0  0  0  0  1  0  0  0  0  0  0
  190.7420  175.3730  143.0620 C   0  0  0  0  0  2  0  0  0  0  0  0
  2  4  1  0  0  0  0
  3 28  1  6  0  0  0
  3  7  1  0  0  0  0
  4  7  1  0  0  0  0
  5  1  1  1  0  0  0
  5  3  1  0  0  0  0
  6 18  1  6  0  0  0
  6  5  1  0  0  0  0
  6  2  1  0  0  0  0
  7  8  1  1  0  0  0
  8  9  1  1  0  0  0
  8 13  1  0  0  0  0
 11  8  1  0  0  0  0
 11 10  2  0  0  0  0
 12 10  1  0  0  0  0
 13 14  1  0  0  0  0
 14 15  1  0  0  0  0
 15 16  1  6  0  0  0
 15 17  1  0  0  0  0
 19 18  2  0  0  0  0
 20 23  1  0  0  0  0
 21 19  1  1  0  0  0
 21 23  1  0  0  0  0
 22 25  1  6  0  0  0
 22 24  1  0  0  0  0
 22 26  1  0  0  0  0
 24 21  1  0  0  0  0
 26 20  2  0  0  0  0
 28 27  1  0  0  0  0
M  END
>  <MODEL>
6

>  <REMARK>
 VINA RESULT:      -6.6      2.475      4.270
  Name = 
  8 active torsions:
  status: ('A' for Active; 'I' for Inactive)
    1  A    between atoms: C_1  and  C_3
    2  A    between atoms: C_1  and  C_11
    3  A    between atoms: C_1  and  C_27
    4  A    between atoms: C_6  and  C_8
    5  A    between atoms: C_8  and  C_11
    6  A    between atoms: C_9  and  C_18
    7  A    between atoms: C_14  and  C_25
    8  A    between atoms: C_16  and  C_21
                            x       y       z     vdW  Elec       q    Type
                         _______ _______ _______ _____ _____    ______ ____

>  <TORSDO>
F 8

$$$$
=
 OpenBabel11052413353D

 28 29  0  0  1  0  0  0  0  0999 V2000
  181.2970  180.0740  139.4280 O   0  0  0  0  0  1  0  0  0  0  0  0
  181.2730  177.3010  140.5790 C   0  0  0  0  0  2  0  0  0  0  0  0
  183.0420  178.6310  138.6110 C   0  0  2  0  0  3  0  0  0  0  0  0
  181.9900  176.4580  139.5350 C   0  0  0  0  0  2  0  0  0  0  0  0
  182.4510  179.3860  139.8110 C   0  0  2  0  0  3  0  0  0  0  0  0
  182.1730  178.4560  140.9980 C   0  0  1  0  0  3  0  0  0  0  0  0
  182.3560  177.2810  138.2870 C   0  0  1  0  0  3  0  0  0  0  0  0
  181.2510  177.3360  137.1960 C   0  0  1  0  0  0  0  0  0  0  0  0
  179.8760  177.4320  137.8350 C   0  0  0  0  0  1  0  0  0  0  0  0
  180.4060  179.3920  136.0450 C   0  0  0  0  0  3  0  0  0  0  0  0
  181.4050  178.5490  136.3090 C   0  0  0  0  0  3  0  0  0  0  0  0
  180.6380  180.5660  135.1600 C   0  0  0  0  0  1  0  0  0  0  0  0
  181.2480  176.0570  136.3450 C   0  0  0  0  0  2  0  0  0  0  0  0
  180.1160  175.0900  136.6950 C   0  0  0  0  0  2  0  0  0  0  0  0
  180.6590  173.7700  137.2200 C   0  0  1  0  0  3  0  0  0  0  0  0
  182.0220  173.8600  137.4420 F   0  0  0  0  0  0  0  0  0  0  0  0
  180.0090  173.4130  138.4030 O   0  0  0  0  0  1  0  0  0  0  0  0
  181.5840  179.2100  142.1540 C   0  0  0  0  0  3  0  0  0  0  0  0
  182.1210  179.2110  143.3810 C   0  0  0  0  0  3  0  0  0  0  0  0
  185.8090  178.2710  143.2970 C   0  0  0  0  0  3  0  0  0  0  0  0
  183.3760  178.4720  143.7330 C   0  0  1  0  0  3  0  0  0  0  0  0
  185.1540  179.0050  145.5430 C   0  0  1  0  0  3  0  0  0  0  0  0
  184.5320  178.8930  142.8140 C   0  0  0  0  0  2  0  0  0  0  0  0
  183.6870  178.6580  145.2340 C   0  0  0  0  0  2  0  0  0  0  0  0
  185.4830  178.6400  146.9740 C   0  0  0  0  0  1  0  0  0  0  0  0
  186.1020  178.3190  144.6010 C   0  0  0  0  0  3  0  0  0  0  0  0
  185.1210  179.5540  139.4140 O   0  0  0  0  0  1  0  0  0  0  0  0
  184.5560  178.4770  138.7280 C   0  0  0  0  0  2  0  0  0  0  0  0
  2  6  1  0  0  0  0
  3 28  1  1  0  0  0
  3  5  1  0  0  0  0
  4  2  1  0  0  0  0
  5  1  1  6  0  0  0
  5  6  1  0  0  0  0
  6 18  1  1  0  0  0
  7  8  1  1  0  0  0
  7  3  1  0  0  0  0
  7  4  1  0  0  0  0
  8  9  1  1  0  0  0
 10 11  2  0  0  0  0
 11  8  1  0  0  0  0
 12 10  1  0  0  0  0
 13 14  1  0  0  0  0
 13  8  1  0  0  0  0
 14 15  1  0  0  0  0
 15 16  1  1  0  0  0
 15 17  1  0  0  0  0
 18 19  2  0  0  0  0
 20 26  2  0  0  0  0
 21 19  1  6  0  0  0
 21 24  1  0  0  0  0
 22 25  1  1  0  0  0
 23 20  1  0  0  0  0
 23 21  1  0  0  0  0
 24 22  1  0  0  0  0
 26 22  1  0  0  0  0
 28 27  1  0  0  0  0
M  END
>  <MODEL>
7

>  <REMARK>
 VINA RESULT:      -6.5      5.510      9.886
  Name = 
  8 active torsions:
  status: ('A' for Active; 'I' for Inactive)
    1  A    between atoms: C_1  and  C_3
    2  A    between atoms: C_1  and  C_11
    3  A    between atoms: C_1  and  C_27
    4  A    between atoms: C_6  and  C_8
    5  A    between atoms: C_8  and  C_11
    6  A    between atoms: C_9  and  C_18
    7  A    between atoms: C_14  and  C_25
    8  A    between atoms: C_16  and  C_21
                            x       y       z     vdW  Elec       q    Type
                         _______ _______ _______ _____ _____    ______ ____

>  <TORSDO>
F 8

$$$$
=
 OpenBabel11052413353D

 28 29  0  0  1  0  0  0  0  0999 V2000
  183.6010  180.1430  139.4710 O   0  0  0  0  0  1  0  0  0  0  0  0
  182.8890  177.4680  140.6370 C   0  0  0  0  0  2  0  0  0  0  0  0
  184.5650  178.2580  138.3260 C   0  0  2  0  0  3  0  0  0  0  0  0
  183.0600  176.4990  139.4760 C   0  0  0  0  0  2  0  0  0  0  0  0
  184.5130  179.0940  139.6140 C   0  0  2  0  0  3  0  0  0  0  0  0
  184.1860  178.2380  140.8430 C   0  0  1  0  0  3  0  0  0  0  0  0
  183.4200  177.2280  138.1690 C   0  0  1  0  0  3  0  0  0  0  0  0
  182.2000  177.7050  137.3320 C   0  0  1  0  0  0  0  0  0  0  0  0
  182.4900  177.5750  135.8470 C   0  0  0  0  0  1  0  0  0  0  0  0
  180.6150  175.8250  136.8640 C   0  0  0  0  0  3  0  0  0  0  0  0
  180.9740  176.8690  137.6130 C   0  0  0  0  0  3  0  0  0  0  0  0
  179.3910  175.0500  137.2050 C   0  0  0  0  0  1  0  0  0  0  0  0
  181.8970  179.1890  137.5890 C   0  0  0  0  0  2  0  0  0  0  0  0
  180.4040  179.5000  137.6950 C   0  0  0  0  0  2  0  0  0  0  0  0
  180.0940  180.3020  138.9500 C   0  0  1  0  0  3  0  0  0  0  0  0
  180.5710  179.6490  140.0730 F   0  0  0  0  0  0  0  0  0  0  0  0
  180.6600  181.5750  138.8670 O   0  0  0  0  0  1  0  0  0  0  0  0
  184.1260  179.0760  142.0880 C   0  0  0  0  0  3  0  0  0  0  0  0
  184.9680  178.9210  143.1190 C   0  0  0  0  0  3  0  0  0  0  0  0
  188.3110  177.3210  142.2500 C   0  0  0  0  0  3  0  0  0  0  0  0
  186.0710  177.9080  143.1390 C   0  0  1  0  0  3  0  0  0  0  0  0
  188.1700  177.7820  144.6540 C   0  0  1  0  0  3  0  0  0  0  0  0
  187.1410  178.2470  142.0910 C   0  0  0  0  0  2  0  0  0  0  0  0
  186.6340  177.7780  144.5700 C   0  0  0  0  0  2  0  0  0  0  0  0
  188.6220  177.1270  145.9410 C   0  0  0  0  0  1  0  0  0  0  0  0
  188.7970  177.0930  143.4750 C   0  0  0  0  0  3  0  0  0  0  0  0
  186.9520  178.4160  138.6380 O   0  0  0  0  0  1  0  0  0  0  0  0
  185.9330  177.6100  138.1250 C   0  0  0  0  0  2  0  0  0  0  0  0
  2  6  1  0  0  0  0
  3 28  1  1  0  0  0
  3  5  1  0  0  0  0
  4  2  1  0  0  0  0
  5  1  1  6  0  0  0
  5  6  1  0  0  0  0
  6 18  1  1  0  0  0
  7  8  1  1  0  0  0
  7  3  1  0  0  0  0
  7  4  1  0  0  0  0
  8  9  1  6  0  0  0
  8 13  1  0  0  0  0
  8 11  1  0  0  0  0
 10 12  1  0  0  0  0
 10 11  2  0  0  0  0
 13 14  1  0  0  0  0
 14 15  1  0  0  0  0
 15 17  1  6  0  0  0
 15 16  1  0  0  0  0
 18 19  2  0  0  0  0
 20 26  2  0  0  0  0
 21 19  1  1  0  0  0
 21 24  1  0  0  0  0
 22 25  1  1  0  0  0
 23 20  1  0  0  0  0
 23 21  1  0  0  0  0
 24 22  1  0  0  0  0
 26 22  1  0  0  0  0
 28 27  1  0  0  0  0
M  END
>  <MODEL>
8

>  <REMARK>
 VINA RESULT:      -6.4      4.661      8.547
  Name = 
  8 active torsions:
  status: ('A' for Active; 'I' for Inactive)
    1  A    between atoms: C_1  and  C_3
    2  A    between atoms: C_1  and  C_11
    3  A    between atoms: C_1  and  C_27
    4  A    between atoms: C_6  and  C_8
    5  A    between atoms: C_8  and  C_11
    6  A    between atoms: C_9  and  C_18
    7  A    between atoms: C_14  and  C_25
    8  A    between atoms: C_16  and  C_21
                            x       y       z     vdW  Elec       q    Type
                         _______ _______ _______ _____ _____    ______ ____

>  <TORSDO>
F 8

$$$$
=
 OpenBabel11052413353D

 28 29  0  0  1  0  0  0  0  0999 V2000
  187.7270  175.9560  143.3190 O   0  0  0  0  0  1  0  0  0  0  0  0
  189.2200  178.0690  144.8420 C   0  0  0  0  0  2  0  0  0  0  0  0
  188.4170  177.8480  142.0000 C   0  0  2  0  0  3  0  0  0  0  0  0
  190.0420  178.7840  143.7790 C   0  0  0  0  0  2  0  0  0  0  0  0
  187.5260  177.3270  143.1380 C   0  0  2  0  0  3  0  0  0  0  0  0
  187.7500  178.0970  144.4450 C   0  0  1  0  0  3  0  0  0  0  0  0
  189.8870  178.1250  142.3970 C   0  0  1  0  0  3  0  0  0  0  0  0
  190.8870  176.9700  142.1110 C   0  0  1  0  0  0  0  0  0  0  0  0
  192.2900  177.5190  141.9130 C   0  0  0  0  0  1  0  0  0  0  0  0
  192.0410  175.8470  144.0280 C   0  0  0  0  0  3  0  0  0  0  0  0
  190.9570  175.9970  143.2640 C   0  0  0  0  0  3  0  0  0  0  0  0
  192.0320  174.8650  145.1460 C   0  0  0  0  0  1  0  0  0  0  0  0
  190.5220  176.2290  140.8160 C   0  0  0  0  0  2  0  0  0  0  0  0
  190.5510  177.1170  139.5720 C   0  0  0  0  0  2  0  0  0  0  0  0
  191.3130  176.4520  138.4350 C   0  0  1  0  0  3  0  0  0  0  0  0
  192.6770  176.5880  138.6220 F   0  0  0  0  0  0  0  0  0  0  0  0
  190.9790  175.1000  138.3510 O   0  0  0  0  0  1  0  0  0  0  0  0
  186.8820  177.5640  145.5470 C   0  0  0  0  0  3  0  0  0  0  0  0
  185.5640  177.7970  145.6220 C   0  0  0  0  0  3  0  0  0  0  0  0
  183.9800  178.6720  142.2740 C   0  0  0  0  0  3  0  0  0  0  0  0
  184.8100  178.6020  144.6100 C   0  0  1  0  0  3  0  0  0  0  0  0
  182.2810  178.5870  144.0400 C   0  0  1  0  0  3  0  0  0  0  0  0
  184.8820  177.9430  143.2250 C   0  0  0  0  0  2  0  0  0  0  0  0
  183.3660  178.8380  145.1020 C   0  0  0  0  0  2  0  0  0  0  0  0
  181.0160  179.3330  144.4030 C   0  0  0  0  0  1  0  0  0  0  0  0
  182.7410  178.9860  142.6650 C   0  0  0  0  0  3  0  0  0  0  0  0
  186.9940  178.6420  140.2210 O   0  0  0  0  0  1  0  0  0  0  0  0
  187.7900  179.0480  141.2940 C   0  0  0  0  0  2  0  0  0  0  0  0
  3 28  1  1  0  0  0
  3  7  1  0  0  0  0
  3  5  1  0  0  0  0
  4  2  1  0  0  0  0
  5  1  1  1  0  0  0
  5  6  1  0  0  0  0
  6  2  1  0  0  0  0
  6 18  1  1  0  0  0
  7  8  1  1  0  0  0
  7  4  1  0  0  0  0
  8  9  1  6  0  0  0
  8 11  1  0  0  0  0
 10 12  1  0  0  0  0
 11 10  2  0  0  0  0
 13  8  1  0  0  0  0
 14 13  1  0  0  0  0
 15 17  1  1  0  0  0
 15 16  1  0  0  0  0
 15 14  1  0  0  0  0
 18 19  2  0  0  0  0
 20 26  2  0  0  0  0
 20 23  1  0  0  0  0
 21 24  1  0  0  0  0
 21 19  1  1  0  0  0
 22 25  1  1  0  0  0
 22 24  1  0  0  0  0
 23 21  1  0  0  0  0
 26 22  1  0  0  0  0
 27 28  1  0  0  0  0
M  END
>  <MODEL>
9

>  <REMARK>
 VINA RESULT:      -6.4      3.450      6.688
  Name = 
  8 active torsions:
  status: ('A' for Active; 'I' for Inactive)
    1  A    between atoms: C_1  and  C_3
    2  A    between atoms: C_1  and  C_11
    3  A    between atoms: C_1  and  C_27
    4  A    between atoms: C_6  and  C_8
    5  A    between atoms: C_8  and  C_11
    6  A    between atoms: C_9  and  C_18
    7  A    between atoms: C_14  and  C_25
    8  A    between atoms: C_16  and  C_21
                            x       y       z     vdW  Elec       q    Type
                         _______ _______ _______ _____ _____    ______ ____

>  <TORSDO>
F 8

$$$$
