=
 OpenBabel11052415573D

 34 39  0  0  1  0  0  0  0  0999 V2000
  186.0990  177.7800  138.1880 N   0  0  0  0  0  0  0  0  0  0  0  0
  182.3260  178.6530  138.0070 C   0  0  0  0  0  2  0  0  0  0  0  0
  183.7450  177.2440  136.4970 C   0  0  0  0  0  2  0  0  0  0  0  0
  188.3660  177.0270  138.8730 C   0  0  1  0  0  3  0  0  0  0  0  0
  187.3860  178.2130  138.7450 C   0  0  0  0  0  2  0  0  0  0  0  0
  187.2390  176.0220  136.9010 C   0  0  0  0  0  0  0  0  0  0  0  0
  186.8720  175.0010  135.6220 S   0  0  0  0  0  0  0  0  0  0  0  0
  188.5610  176.2580  137.5530 C   0  0  0  0  0  2  0  0  0  0  0  0
  185.0170  176.4680  136.3760 C   0  0  0  0  0  0  0  0  0  0  0  0
  186.1200  176.7730  137.1700 C   0  0  0  0  0  0  0  0  0  0  0  0
  185.2580  175.4850  135.4180 C   0  0  0  0  0  3  0  0  0  0  0  0
  182.0250  179.1870  139.4120 C   0  0  0  0  0  2  0  0  0  0  0  0
  182.5440  178.2740  140.5310 C   0  0  1  0  0  3  0  0  0  0  0  0
  184.0690  178.3400  140.7440 C   0  0  0  0  0  2  0  0  0  0  0  0
  183.6200  177.8410  137.9030 C   0  0  1  0  0  3  0  0  0  0  0  0
  184.8070  179.2280  139.7350 C   0  0  0  0  0  2  0  0  0  0  0  0
  184.8980  178.6220  138.3240 C   0  0  1  0  0  3  0  0  0  0  0  0
  181.8340  178.5630  141.8110 C   0  0  0  0  0  0  0  0  0  0  0  0
  182.5650  178.9320  142.9320 O   0  0  0  0  0  1  0  0  0  0  0  0
  180.5790  178.4770  141.8830 O   0  0  0  0  0  0  0  0  0  0  0  0
  189.6180  177.4410  139.4240 O   0  0  0  0  0  0  0  0  0  0  0  0
  191.6790  177.3030  142.4930 C   0  0  0  0  0  3  0  0  0  0  0  0
  188.9680  177.3910  141.7920 C   0  0  0  0  0  3  0  0  0  0  0  0
  190.0910  177.2410  145.8410 C   0  0  0  0  0  0  0  0  0  0  0  0
  191.0710  177.2480  144.8380 C   0  0  0  0  0  3  0  0  0  0  0  0
  190.7020  177.2980  143.4920 C   0  0  0  0  0  0  0  0  0  0  0  0
  188.3590  177.3350  144.1350 C   0  0  0  0  0  3  0  0  0  0  0  0
  189.3360  177.3430  143.1380 C   0  0  0  0  0  0  0  0  0  0  0  0
  188.7360  177.2850  145.4810 C   0  0  0  0  0  3  0  0  0  0  0  0
  189.9500  177.3950  140.7870 C   0  0  0  0  0  0  0  0  0  0  0  0
  191.3010  177.3520  141.1470 C   0  0  0  0  0  3  0  0  0  0  0  0
  190.4810  177.1890  147.2610 C   0  0  0  0  0  0  0  0  0  0  0  0
  189.6770  177.5590  148.1570 O   0  0  0  0  0  0  0  0  0  0  0  0
  191.7740  176.7180  147.6380 N   0  0  0  0  0  1  0  0  0  0  0  0
  1 17  1  0  0  0  0
  1  5  1  0  0  0  0
  2 12  1  0  0  0  0
  4 21  1  6  0  0  0
  5  4  1  0  0  0  0
  6 10  2  0  0  0  0
  6  8  1  0  0  0  0
  7  6  1  0  0  0  0
  8  4  1  0  0  0  0
  9  3  1  0  0  0  0
  9 10  1  0  0  0  0
 10  1  1  0  0  0  0
 11  7  1  0  0  0  0
 11  9  2  0  0  0  0
 12 13  1  0  0  0  0
 13 14  1  0  0  0  0
 13 18  1  1  0  0  0
 15  3  1  6  0  0  0
 15  2  1  0  0  0  0
 15 17  1  0  0  0  0
 16 14  1  0  0  0  0
 17 16  1  1  0  0  0
 18 20  2  0  0  0  0
 18 19  1  0  0  0  0
 21 30  1  0  0  0  0
 22 26  1  0  0  0  0
 23 28  1  0  0  0  0
 24 32  1  0  0  0  0
 25 24  2  0  0  0  0
 26 25  1  0  0  0  0
 27 29  2  0  0  0  0
 28 26  2  0  0  0  0
 28 27  1  0  0  0  0
 29 24  1  0  0  0  0
 30 31  1  0  0  0  0
 30 23  2  0  0  0  0
 31 22  2  0  0  0  0
 32 34  1  0  0  0  0
 32 33  2  0  0  0  0
M  END
>  <MODEL>
1

>  <REMARK>
 VINA RESULT:      -9.2      0.000      0.000
  Name = 
  4 active torsions:
  status: ('A' for Active; 'I' for Inactive)
    1  A    between atoms: C_3  and  C_25
    2  A    between atoms: C_7  and  C_11
    3  A    between atoms: C_8  and  O_18
    4  A    between atoms: O_18  and  C_30
                            x       y       z     vdW  Elec       q    Type
                         _______ _______ _______ _____ _____    ______ ____

>  <TORSDO>
F 4

$$$$
=
 OpenBabel11052415573D

 34 39  0  0  1  0  0  0  0  0999 V2000
  184.1460  178.8420  141.2200 N   0  0  0  0  0  0  0  0  0  0  0  0
  184.1080  179.2780  145.0710 C   0  0  0  0  0  2  0  0  0  0  0  0
  182.2240  178.9590  143.4510 C   0  0  0  0  0  2  0  0  0  0  0  0
  184.5580  178.0970  138.8850 C   0  0  1  0  0  3  0  0  0  0  0  0
  184.9450  179.0790  140.0120 C   0  0  0  0  0  2  0  0  0  0  0  0
  182.2630  178.0810  139.8330 C   0  0  0  0  0  0  0  0  0  0  0  0
  180.6240  177.7910  140.0380 S   0  0  0  0  0  0  0  0  0  0  0  0
  183.0510  178.1050  138.5660 C   0  0  0  0  0  2  0  0  0  0  0  0
  181.8440  178.4860  142.0850 C   0  0  0  0  0  0  0  0  0  0  0  0
  182.7720  178.4760  141.0470 C   0  0  0  0  0  0  0  0  0  0  0  0
  180.5510  178.1350  141.6990 C   0  0  0  0  0  3  0  0  0  0  0  0
  185.5660  179.0140  145.4660 C   0  0  0  0  0  2  0  0  0  0  0  0
  186.1360  177.7300  144.8490 C   0  0  1  0  0  3  0  0  0  0  0  0
  186.4770  177.8460  143.3500 C   0  0  0  0  0  2  0  0  0  0  0  0
  183.7270  178.7680  143.6800 C   0  0  1  0  0  3  0  0  0  0  0  0
  186.0920  179.1890  142.7210 C   0  0  0  0  0  2  0  0  0  0  0  0
  184.5760  179.3710  142.5250 C   0  0  1  0  0  3  0  0  0  0  0  0
  187.3330  177.2710  145.6130 C   0  0  0  0  0  0  0  0  0  0  0  0
  188.4580  176.8340  144.9280 O   0  0  0  0  0  0  0  0  0  0  0  0
  187.3320  177.2800  146.8730 O   0  0  0  0  0  1  0  0  0  0  0  0
  185.3400  178.3180  137.7090 O   0  0  0  0  0  0  0  0  0  0  0  0
  188.3950  177.0930  136.0190 C   0  0  0  0  0  3  0  0  0  0  0  0
  187.5650  177.7870  138.6040 C   0  0  0  0  0  3  0  0  0  0  0  0
  191.4990  176.4590  137.9410 C   0  0  0  0  0  0  0  0  0  0  0  0
  190.5990  176.5560  136.8700 C   0  0  0  0  0  3  0  0  0  0  0  0
  189.2910  176.9980  137.0860 C   0  0  0  0  0  0  0  0  0  0  0  0
  189.7680  177.2510  139.4560 C   0  0  0  0  0  3  0  0  0  0  0  0
  188.8730  177.3480  138.3880 C   0  0  0  0  0  0  0  0  0  0  0  0
  191.0750  176.8080  139.2320 C   0  0  0  0  0  3  0  0  0  0  0  0
  186.6620  177.8820  137.5310 C   0  0  0  0  0  0  0  0  0  0  0  0
  187.0860  177.5340  136.2440 C   0  0  0  0  0  3  0  0  0  0  0  0
  192.8780  175.9940  137.7120 C   0  0  0  0  0  0  0  0  0  0  0  0
  193.8110  176.8240  137.5440 O   0  0  0  0  0  0  0  0  0  0  0  0
  193.1740  174.5990  137.6770 N   0  0  0  0  0  1  0  0  0  0  0  0
  1 17  1  0  0  0  0
  2 12  1  0  0  0  0
  4 21  1  6  0  0  0
  4  5  1  0  0  0  0
  5  1  1  0  0  0  0
  6  7  1  0  0  0  0
  6 10  2  0  0  0  0
  7 11  1  0  0  0  0
  8  4  1  0  0  0  0
  8  6  1  0  0  0  0
  9  3  1  0  0  0  0
 10  1  1  0  0  0  0
 10  9  1  0  0  0  0
 11  9  2  0  0  0  0
 13 12  1  0  0  0  0
 13 18  1  1  0  0  0
 14 13  1  0  0  0  0
 15  3  1  6  0  0  0
 15  2  1  0  0  0  0
 16 14  1  0  0  0  0
 17 16  1  1  0  0  0
 17 15  1  0  0  0  0
 18 20  1  0  0  0  0
 19 18  2  0  0  0  0
 22 31  2  0  0  0  0
 22 26  1  0  0  0  0
 24 29  1  0  0  0  0
 25 26  1  0  0  0  0
 25 24  2  0  0  0  0
 26 28  2  0  0  0  0
 28 23  1  0  0  0  0
 28 27  1  0  0  0  0
 29 27  2  0  0  0  0
 30 21  1  0  0  0  0
 30 23  2  0  0  0  0
 31 30  1  0  0  0  0
 32 24  1  0  0  0  0
 33 32  2  0  0  0  0
 34 32  1  0  0  0  0
M  END
>  <MODEL>
2

>  <REMARK>
 VINA RESULT:      -9.0      3.465      6.632
  Name = 
  4 active torsions:
  status: ('A' for Active; 'I' for Inactive)
    1  A    between atoms: C_3  and  C_25
    2  A    between atoms: C_7  and  C_11
    3  A    between atoms: C_8  and  O_18
    4  A    between atoms: O_18  and  C_30
                            x       y       z     vdW  Elec       q    Type
                         _______ _______ _______ _____ _____    ______ ____

>  <TORSDO>
F 4

$$$$
=
 OpenBabel11052415573D

 34 39  0  0  1  0  0  0  0  0999 V2000
  189.1950  177.9340  143.9950 N   0  0  0  0  0  0  0  0  0  0  0  0
  192.0190  177.5290  141.3720 C   0  0  0  0  0  2  0  0  0  0  0  0
  192.0390  177.1770  143.8520 C   0  0  0  0  0  2  0  0  0  0  0  0
  187.0850  177.8020  145.3020 C   0  0  1  0  0  3  0  0  0  0  0  0
  187.9020  178.5810  144.2490 C   0  0  0  0  0  2  0  0  0  0  0  0
  189.2450  177.1110  146.3120 C   0  0  0  0  0  0  0  0  0  0  0  0
  190.3790  176.4520  147.3580 S   0  0  0  0  0  0  0  0  0  0  0  0
  187.8550  177.5650  146.6130 C   0  0  0  0  0  2  0  0  0  0  0  0
  191.2020  176.9350  145.0670 C   0  0  0  0  0  0  0  0  0  0  0  0
  189.8690  177.3370  145.1090 C   0  0  0  0  0  0  0  0  0  0  0  0
  191.6800  176.4150  146.2690 C   0  0  0  0  0  3  0  0  0  0  0  0
  191.2570  177.4950  140.0420 C   0  0  0  0  0  2  0  0  0  0  0  0
  190.0750  176.5160  140.0470 C   0  0  1  0  0  3  0  0  0  0  0  0
  188.8460  177.0140  140.8330 C   0  0  0  0  0  2  0  0  0  0  0  0
  191.1540  177.2570  142.6040 C   0  0  1  0  0  3  0  0  0  0  0  0
  189.0590  178.3510  141.5530 C   0  0  0  0  0  2  0  0  0  0  0  0
  189.9730  178.2530  142.7870 C   0  0  1  0  0  3  0  0  0  0  0  0
  189.6830  176.1640  138.6520 C   0  0  0  0  0  0  0  0  0  0  0  0
  190.3480  175.1410  137.9900 O   0  0  0  0  0  0  0  0  0  0  0  0
  188.7530  176.7850  138.0700 O   0  0  0  0  0  1  0  0  0  0  0  0
  185.8200  178.4220  145.5450 O   0  0  0  0  0  0  0  0  0  0  0  0
  182.4340  178.9660  144.1590 C   0  0  0  0  0  3  0  0  0  0  0  0
  184.9960  178.3100  143.2340 C   0  0  0  0  0  3  0  0  0  0  0  0
  181.8000  178.6420  140.5220 C   0  0  0  0  0  0  0  0  0  0  0  0
  181.5870  178.8590  141.8910 C   0  0  0  0  0  3  0  0  0  0  0  0
  182.6460  178.7510  142.7960 C   0  0  0  0  0  0  0  0  0  0  0  0
  184.1510  178.2030  140.9670 C   0  0  0  0  0  3  0  0  0  0  0  0
  183.9380  178.4210  142.3300 C   0  0  0  0  0  0  0  0  0  0  0  0
  183.0860  178.3130  140.0690 C   0  0  0  0  0  3  0  0  0  0  0  0
  184.7830  178.5260  144.6070 C   0  0  0  0  0  0  0  0  0  0  0  0
  183.4990  178.8540  145.0590 C   0  0  0  0  0  3  0  0  0  0  0  0
  180.6820  178.7570  139.5700 C   0  0  0  0  0  0  0  0  0  0  0  0
  179.5240  178.3880  139.9010 O   0  0  0  0  0  0  0  0  0  0  0  0
  180.8970  179.2870  138.2640 N   0  0  0  0  0  1  0  0  0  0  0  0
  1  5  1  0  0  0  0
  1 10  1  0  0  0  0
  3  9  1  0  0  0  0
  4 21  1  1  0  0  0
  4  8  1  0  0  0  0
  5  4  1  0  0  0  0
  6  8  1  0  0  0  0
  6  7  1  0  0  0  0
  9 10  1  0  0  0  0
  9 11  2  0  0  0  0
 10  6  2  0  0  0  0
 11  7  1  0  0  0  0
 12 13  1  0  0  0  0
 12  2  1  0  0  0  0
 13 18  1  6  0  0  0
 13 14  1  0  0  0  0
 14 16  1  0  0  0  0
 15  2  1  6  0  0  0
 15 17  1  0  0  0  0
 15  3  1  0  0  0  0
 17 16  1  6  0  0  0
 17  1  1  0  0  0  0
 19 18  2  0  0  0  0
 20 18  1  0  0  0  0
 22 31  1  0  0  0  0
 23 30  1  0  0  0  0
 24 25  2  0  0  0  0
 25 26  1  0  0  0  0
 26 22  2  0  0  0  0
 27 28  1  0  0  0  0
 28 26  1  0  0  0  0
 28 23  2  0  0  0  0
 29 24  1  0  0  0  0
 29 27  2  0  0  0  0
 30 31  2  0  0  0  0
 30 21  1  0  0  0  0
 32 33  2  0  0  0  0
 32 24  1  0  0  0  0
 34 32  1  0  0  0  0
M  END
>  <MODEL>
3

>  <REMARK>
 VINA RESULT:      -8.9      3.375      9.115
  Name = 
  4 active torsions:
  status: ('A' for Active; 'I' for Inactive)
    1  A    between atoms: C_3  and  C_25
    2  A    between atoms: C_7  and  C_11
    3  A    between atoms: C_8  and  O_18
    4  A    between atoms: O_18  and  C_30
                            x       y       z     vdW  Elec       q    Type
                         _______ _______ _______ _____ _____    ______ ____

>  <TORSDO>
F 4

$$$$
=
 OpenBabel11052415573D

 34 39  0  0  1  0  0  0  0  0999 V2000
  181.8370  179.4280  140.4610 N   0  0  0  0  0  0  0  0  0  0  0  0
  179.0360  181.0210  138.3060 C   0  0  0  0  0  2  0  0  0  0  0  0
  178.9310  179.9070  140.5480 C   0  0  0  0  0  2  0  0  0  0  0  0
  183.8950  178.9640  141.7750 C   0  0  1  0  0  3  0  0  0  0  0  0
  183.1880  178.8540  140.4070 C   0  0  0  0  0  2  0  0  0  0  0  0
  181.6530  178.7910  142.8290 C   0  0  0  0  0  0  0  0  0  0  0  0
  180.4350  178.6520  143.9730 S   0  0  0  0  0  0  0  0  0  0  0  0
  183.0780  178.3570  142.9300 C   0  0  0  0  0  2  0  0  0  0  0  0
  179.7130  179.4850  141.7490 C   0  0  0  0  0  0  0  0  0  0  0  0
  181.0810  179.2360  141.6620 C   0  0  0  0  0  0  0  0  0  0  0  0
  179.1590  179.1960  142.9950 C   0  0  0  0  0  3  0  0  0  0  0  0
  179.8150  181.8610  137.2870 C   0  0  0  0  0  2  0  0  0  0  0  0
  180.8850  182.7540  137.9310 C   0  0  1  0  0  3  0  0  0  0  0  0
  182.1450  181.9980  138.3950 C   0  0  0  0  0  2  0  0  0  0  0  0
  179.8440  180.6160  139.5420 C   0  0  1  0  0  3  0  0  0  0  0  0
  182.0640  180.4770  138.2230 C   0  0  0  0  0  2  0  0  0  0  0  0
  181.1210  179.7870  139.2250 C   0  0  1  0  0  3  0  0  0  0  0  0
  181.2630  183.8630  137.0070 C   0  0  0  0  0  0  0  0  0  0  0  0
  182.1550  184.8370  137.4340 O   0  0  0  0  0  1  0  0  0  0  0  0
  180.7820  183.9220  135.8440 O   0  0  0  0  0  0  0  0  0  0  0  0
  185.2140  178.4160  141.7250 O   0  0  0  0  0  0  0  0  0  0  0  0
  186.2360  178.0450  145.2610 C   0  0  0  0  0  3  0  0  0  0  0  0
  187.3940  177.8700  142.7160 C   0  0  0  0  0  3  0  0  0  0  0  0
  189.7350  177.2030  146.1440 C   0  0  0  0  0  0  0  0  0  0  0  0
  188.3730  177.5130  146.2710 C   0  0  0  0  0  3  0  0  0  0  0  0
  187.5910  177.7350  145.1350 C   0  0  0  0  0  0  0  0  0  0  0  0
  189.5310  177.3390  143.7240 C   0  0  0  0  0  3  0  0  0  0  0  0
  188.1740  177.6460  143.8520 C   0  0  0  0  0  0  0  0  0  0  0  0
  190.3060  177.1180  144.8660 C   0  0  0  0  0  3  0  0  0  0  0  0
  186.0300  178.1840  142.8430 C   0  0  0  0  0  0  0  0  0  0  0  0
  185.4600  178.2670  144.1180 C   0  0  0  0  0  3  0  0  0  0  0  0
  190.5580  176.9690  147.3440 C   0  0  0  0  0  0  0  0  0  0  0  0
  190.3350  177.6130  148.4040 O   0  0  0  0  0  0  0  0  0  0  0  0
  191.6150  176.0120  147.3210 N   0  0  0  0  0  1  0  0  0  0  0  0
  1 10  1  0  0  0  0
  3  9  1  0  0  0  0
  4 21  1  6  0  0  0
  4  8  1  0  0  0  0
  5  1  1  0  0  0  0
  5  4  1  0  0  0  0
  6  8  1  0  0  0  0
  6  7  1  0  0  0  0
  9 11  2  0  0  0  0
 10  9  1  0  0  0  0
 10  6  2  0  0  0  0
 11  7  1  0  0  0  0
 12 13  1  0  0  0  0
 12  2  1  0  0  0  0
 13 18  1  6  0  0  0
 13 14  1  0  0  0  0
 15  2  1  6  0  0  0
 15  3  1  0  0  0  0
 16 14  1  0  0  0  0
 17 16  1  6  0  0  0
 17 15  1  0  0  0  0
 17  1  1  0  0  0  0
 18 19  1  0  0  0  0
 20 18  2  0  0  0  0
 21 30  1  0  0  0  0
 23 30  2  0  0  0  0
 23 28  1  0  0  0  0
 24 25  1  0  0  0  0
 24 32  1  0  0  0  0
 26 22  1  0  0  0  0
 26 25  2  0  0  0  0
 27 28  2  0  0  0  0
 27 29  1  0  0  0  0
 28 26  1  0  0  0  0
 29 24  2  0  0  0  0
 30 31  1  0  0  0  0
 31 22  2  0  0  0  0
 32 33  2  0  0  0  0
 34 32  1  0  0  0  0
M  END
>  <MODEL>
4

>  <REMARK>
 VINA RESULT:      -8.8      3.719      5.675
  Name = 
  4 active torsions:
  status: ('A' for Active; 'I' for Inactive)
    1  A    between atoms: C_3  and  C_25
    2  A    between atoms: C_7  and  C_11
    3  A    between atoms: C_8  and  O_18
    4  A    between atoms: O_18  and  C_30
                            x       y       z     vdW  Elec       q    Type
                         _______ _______ _______ _____ _____    ______ ____

>  <TORSDO>
F 4

$$$$
=
 OpenBabel11052415573D

 34 39  0  0  1  0  0  0  0  0999 V2000
  188.6130  176.3110  137.7260 N   0  0  0  0  0  0  0  0  0  0  0  0
  191.0640  173.8890  135.9500 C   0  0  0  0  0  2  0  0  0  0  0  0
  188.7170  174.5450  135.3690 C   0  0  0  0  0  2  0  0  0  0  0  0
  187.5110  178.2630  138.7980 C   0  0  1  0  0  3  0  0  0  0  0  0
  188.3180  176.9640  139.0080 C   0  0  0  0  0  2  0  0  0  0  0  0
  186.5220  177.1990  136.7840 C   0  0  0  0  0  0  0  0  0  0  0  0
  185.5630  176.9160  135.4380 S   0  0  0  0  0  0  0  0  0  0  0  0
  186.2280  178.0530  137.9730 C   0  0  0  0  0  2  0  0  0  0  0  0
  187.6400  175.5630  135.5650 C   0  0  0  0  0  0  0  0  0  0  0  0
  187.6060  176.3570  136.7090 C   0  0  0  0  0  0  0  0  0  0  0  0
  186.5440  175.7320  134.7200 C   0  0  0  0  0  3  0  0  0  0  0  0
  192.4210  174.2540  136.5640 C   0  0  0  0  0  2  0  0  0  0  0  0
  192.7010  175.7630  136.5600 C   0  0  1  0  0  3  0  0  0  0  0  0
  191.9140  176.5550  137.6220 C   0  0  0  0  0  2  0  0  0  0  0  0
  189.9780  174.9510  136.1390 C   0  0  1  0  0  3  0  0  0  0  0  0
  190.9180  175.7110  138.4250 C   0  0  0  0  0  2  0  0  0  0  0  0
  189.6720  175.2920  137.6250 C   0  0  1  0  0  3  0  0  0  0  0  0
  194.1630  176.0220  136.7050 C   0  0  0  0  0  0  0  0  0  0  0  0
  194.7430  177.0810  136.0210 O   0  0  0  0  0  0  0  0  0  0  0  0
  194.8740  175.2900  137.4440 O   0  0  0  0  0  1  0  0  0  0  0  0
  187.2300  178.9080  140.0420 O   0  0  0  0  0  0  0  0  0  0  0  0
  187.1690  177.4710  143.4510 C   0  0  0  0  0  3  0  0  0  0  0  0
  189.0350  178.5700  141.6730 C   0  0  0  0  0  3  0  0  0  0  0  0
  190.2720  177.2300  145.4610 C   0  0  0  0  0  0  0  0  0  0  0  0
  188.9250  177.1280  145.0840 C   0  0  0  0  0  3  0  0  0  0  0  0
  188.5100  177.5710  143.8260 C   0  0  0  0  0  0  0  0  0  0  0  0
  190.7910  178.2280  143.3050 C   0  0  0  0  0  3  0  0  0  0  0  0
  189.4500  178.1250  142.9290 C   0  0  0  0  0  0  0  0  0  0  0  0
  191.1990  177.7820  144.5650 C   0  0  0  0  0  3  0  0  0  0  0  0
  187.6850  178.4700  141.2950 C   0  0  0  0  0  0  0  0  0  0  0  0
  186.7600  177.9190  142.1900 C   0  0  0  0  0  3  0  0  0  0  0  0
  190.7090  176.7610  146.7880 C   0  0  0  0  0  0  0  0  0  0  0  0
  189.8890  176.7010  147.7430 O   0  0  0  0  0  0  0  0  0  0  0  0
  192.0620  176.3720  147.0080 N   0  0  0  0  0  1  0  0  0  0  0  0
  1  5  1  0  0  0  0
  2 15  1  0  0  0  0
  2 12  1  0  0  0  0
  3  9  1  0  0  0  0
  4  5  1  0  0  0  0
  4 21  1  1  0  0  0
  6  8  1  0  0  0  0
  7  6  1  0  0  0  0
  8  4  1  0  0  0  0
  9 10  1  0  0  0  0
 10  6  2  0  0  0  0
 10  1  1  0  0  0  0
 11  7  1  0  0  0  0
 11  9  2  0  0  0  0
 13 12  1  0  0  0  0
 13 18  1  1  0  0  0
 13 14  1  0  0  0  0
 14 16  1  0  0  0  0
 15  3  1  1  0  0  0
 15 17  1  0  0  0  0
 17  1  1  0  0  0  0
 17 16  1  6  0  0  0
 18 20  1  0  0  0  0
 19 18  2  0  0  0  0
 21 30  1  0  0  0  0
 22 26  1  0  0  0  0
 23 28  1  0  0  0  0
 24 32  1  0  0  0  0
 25 24  1  0  0  0  0
 26 25  2  0  0  0  0
 27 29  1  0  0  0  0
 28 27  2  0  0  0  0
 28 26  1  0  0  0  0
 29 24  2  0  0  0  0
 30 23  2  0  0  0  0
 30 31  1  0  0  0  0
 31 22  2  0  0  0  0
 32 34  1  0  0  0  0
 32 33  2  0  0  0  0
M  END
>  <MODEL>
5

>  <REMARK>
 VINA RESULT:      -8.7      2.653      6.329
  Name = 
  4 active torsions:
  status: ('A' for Active; 'I' for Inactive)
    1  A    between atoms: C_3  and  C_25
    2  A    between atoms: C_7  and  C_11
    3  A    between atoms: C_8  and  O_18
    4  A    between atoms: O_18  and  C_30
                            x       y       z     vdW  Elec       q    Type
                         _______ _______ _______ _____ _____    ______ ____

>  <TORSDO>
F 4

$$$$
=
 OpenBabel11052415573D

 34 39  0  0  1  0  0  0  0  0999 V2000
  183.1420  178.9620  140.8710 N   0  0  0  0  0  0  0  0  0  0  0  0
  179.6150  179.7830  139.4890 C   0  0  0  0  0  2  0  0  0  0  0  0
  180.3400  179.0670  141.7780 C   0  0  0  0  0  2  0  0  0  0  0  0
  185.5350  179.0030  141.5430 C   0  0  1  0  0  3  0  0  0  0  0  0
  184.5020  178.5680  140.4810 C   0  0  0  0  0  2  0  0  0  0  0  0
  183.7460  178.7240  143.2430 C   0  0  0  0  0  0  0  0  0  0  0  0
  182.9430  178.6280  144.7120 S   0  0  0  0  0  0  0  0  0  0  0  0
  185.1950  178.5030  142.9590 C   0  0  0  0  0  2  0  0  0  0  0  0
  181.4900  178.9650  142.7270 C   0  0  0  0  0  0  0  0  0  0  0  0
  182.8000  178.8840  142.2590 C   0  0  0  0  0  0  0  0  0  0  0  0
  181.3690  178.8250  144.1090 C   0  0  0  0  0  3  0  0  0  0  0  0
  179.9160  180.5280  138.1840 C   0  0  0  0  0  2  0  0  0  0  0  0
  180.9500  181.6500  138.3530 C   0  0  1  0  0  3  0  0  0  0  0  0
  182.4020  181.1560  138.5020 C   0  0  0  0  0  2  0  0  0  0  0  0
  180.7950  179.7050  140.4610 C   0  0  1  0  0  3  0  0  0  0  0  0
  182.5430  179.6300  138.5570 C   0  0  0  0  0  2  0  0  0  0  0  0
  182.0560  179.0070  139.8770 C   0  0  1  0  0  3  0  0  0  0  0  0
  180.8530  182.6230  137.2260 C   0  0  0  0  0  0  0  0  0  0  0  0
  181.1470  183.9610  137.4470 O   0  0  0  0  0  1  0  0  0  0  0  0
  180.5080  182.2400  136.0760 O   0  0  0  0  0  0  0  0  0  0  0  0
  186.8610  178.6310  141.1630 O   0  0  0  0  0  0  0  0  0  0  0  0
  190.1200  177.3650  142.3730 C   0  0  0  0  0  3  0  0  0  0  0  0
  187.6350  178.1060  143.4340 C   0  0  0  0  0  3  0  0  0  0  0  0
  190.6920  176.7490  145.9820 C   0  0  0  0  0  0  0  0  0  0  0  0
  190.9130  176.8320  144.5990 C   0  0  0  0  0  3  0  0  0  0  0  0
  189.9000  177.2830  143.7490 C   0  0  0  0  0  0  0  0  0  0  0  0
  188.4260  177.5740  145.6600 C   0  0  0  0  0  3  0  0  0  0  0  0
  188.6480  177.6580  144.2840 C   0  0  0  0  0  0  0  0  0  0  0  0
  189.4450  177.1220  146.5040 C   0  0  0  0  0  3  0  0  0  0  0  0
  187.8550  178.1870  142.0480 C   0  0  0  0  0  0  0  0  0  0  0  0
  189.1000  177.8160  141.5280 C   0  0  0  0  0  3  0  0  0  0  0  0
  191.7620  176.2740  146.8770 C   0  0  0  0  0  0  0  0  0  0  0  0
  192.4360  175.2530  146.5760 O   0  0  0  0  0  0  0  0  0  0  0  0
  192.0460  176.9620  148.0930 N   0  0  0  0  0  1  0  0  0  0  0  0
  1 10  1  0  0  0  0
  3  9  1  0  0  0  0
  4 21  1  6  0  0  0
  4  8  1  0  0  0  0
  5  1  1  0  0  0  0
  5  4  1  0  0  0  0
  6  7  1  0  0  0  0
  8  6  1  0  0  0  0
  9 11  2  0  0  0  0
 10  9  1  0  0  0  0
 10  6  2  0  0  0  0
 11  7  1  0  0  0  0
 12 13  1  0  0  0  0
 12  2  1  0  0  0  0
 13 18  1  6  0  0  0
 13 14  1  0  0  0  0
 14 16  1  0  0  0  0
 15  2  1  6  0  0  0
 15  3  1  0  0  0  0
 17 16  1  6  0  0  0
 17 15  1  0  0  0  0
 17  1  1  0  0  0  0
 18 19  1  0  0  0  0
 20 18  2  0  0  0  0
 21 30  1  0  0  0  0
 22 26  1  0  0  0  0
 23 28  1  0  0  0  0
 24 29  1  0  0  0  0
 24 32  1  0  0  0  0
 25 24  2  0  0  0  0
 26 28  2  0  0  0  0
 26 25  1  0  0  0  0
 27 29  2  0  0  0  0
 28 27  1  0  0  0  0
 30 23  2  0  0  0  0
 31 30  1  0  0  0  0
 31 22  2  0  0  0  0
 32 34  1  0  0  0  0
 33 32  2  0  0  0  0
M  END
>  <MODEL>
6

>  <REMARK>
 VINA RESULT:      -8.7      3.396      4.846
  Name = 
  4 active torsions:
  status: ('A' for Active; 'I' for Inactive)
    1  A    between atoms: C_3  and  C_25
    2  A    between atoms: C_7  and  C_11
    3  A    between atoms: C_8  and  O_18
    4  A    between atoms: O_18  and  C_30
                            x       y       z     vdW  Elec       q    Type
                         _______ _______ _______ _____ _____    ______ ____

>  <TORSDO>
F 4

$$$$
=
 OpenBabel11052415573D

 34 39  0  0  1  0  0  0  0  0999 V2000
  181.8120  178.4830  140.3050 N   0  0  0  0  0  0  0  0  0  0  0  0
  182.4960  177.5400  136.6080 C   0  0  0  0  0  2  0  0  0  0  0  0
  180.6160  178.8390  137.6360 C   0  0  0  0  0  2  0  0  0  0  0  0
  181.9450  179.3260  142.6390 C   0  0  1  0  0  3  0  0  0  0  0  0
  182.1200  178.1180  141.6940 C   0  0  0  0  0  2  0  0  0  0  0  0
  180.1810  180.1440  141.0950 C   0  0  0  0  0  0  0  0  0  0  0  0
  178.9310  181.0480  140.4380 S   0  0  0  0  0  0  0  0  0  0  0  0
  180.5580  179.9850  142.5310 C   0  0  0  0  0  2  0  0  0  0  0  0
  180.1700  179.6210  138.8290 C   0  0  0  0  0  0  0  0  0  0  0  0
  180.7370  179.4020  140.0820 C   0  0  0  0  0  0  0  0  0  0  0  0
  179.1080  180.5250  138.8330 C   0  0  0  0  0  3  0  0  0  0  0  0
  183.9710  177.1210  136.6220 C   0  0  0  0  0  2  0  0  0  0  0  0
  184.8800  178.1330  137.3320 C   0  0  1  0  0  3  0  0  0  0  0  0
  184.7730  178.1090  138.8700 C   0  0  0  0  0  2  0  0  0  0  0  0
  182.0590  178.3600  137.8240 C   0  0  1  0  0  3  0  0  0  0  0  0
  183.7060  177.1510  139.4110 C   0  0  0  0  0  2  0  0  0  0  0  0
  182.2630  177.6380  139.1870 C   0  0  1  0  0  3  0  0  0  0  0  0
  186.2990  177.9420  136.9140 C   0  0  0  0  0  0  0  0  0  0  0  0
  187.1910  179.0010  137.0110 O   0  0  0  0  0  1  0  0  0  0  0  0
  186.6950  176.8290  136.4760 O   0  0  0  0  0  0  0  0  0  0  0  0
  182.2530  178.9790  143.9910 O   0  0  0  0  0  0  0  0  0  0  0  0
  185.0610  178.5860  146.3670 C   0  0  0  0  0  3  0  0  0  0  0  0
  184.5720  178.2550  143.6280 C   0  0  0  0  0  3  0  0  0  0  0  0
  188.3870  177.4430  145.1970 C   0  0  0  0  0  0  0  0  0  0  0  0
  187.3560  177.8790  146.0430 C   0  0  0  0  0  3  0  0  0  0  0  0
  186.0870  178.1500  145.5260 C   0  0  0  0  0  0  0  0  0  0  0  0
  186.8650  177.5490  143.3030 C   0  0  0  0  0  3  0  0  0  0  0  0
  185.8390  177.9820  144.1450 C   0  0  0  0  0  0  0  0  0  0  0  0
  188.1330  177.2810  143.8270 C   0  0  0  0  0  3  0  0  0  0  0  0
  183.5390  178.6950  144.4740 C   0  0  0  0  0  0  0  0  0  0  0  0
  183.7930  178.8560  145.8410 C   0  0  0  0  0  3  0  0  0  0  0  0
  189.7250  177.1580  145.7450 C   0  0  0  0  0  0  0  0  0  0  0  0
  190.6970  176.9480  144.9710 O   0  0  0  0  0  0  0  0  0  0  0  0
  189.9360  177.1160  147.1540 N   0  0  0  0  0  1  0  0  0  0  0  0
  1  5  1  0  0  0  0
  2 12  1  0  0  0  0
  3 15  1  0  0  0  0
  3  9  1  0  0  0  0
  4 21  1  1  0  0  0
  5  4  1  0  0  0  0
  6  8  1  0  0  0  0
  7  6  1  0  0  0  0
  8  4  1  0  0  0  0
  9 11  2  0  0  0  0
  9 10  1  0  0  0  0
 10  1  1  0  0  0  0
 10  6  2  0  0  0  0
 11  7  1  0  0  0  0
 12 13  1  0  0  0  0
 13 18  1  1  0  0  0
 13 14  1  0  0  0  0
 14 16  1  0  0  0  0
 15  2  1  6  0  0  0
 15 17  1  0  0  0  0
 17 16  1  1  0  0  0
 17  1  1  0  0  0  0
 18 19  1  0  0  0  0
 20 18  2  0  0  0  0
 21 30  1  0  0  0  0
 23 28  2  0  0  0  0
 23 30  1  0  0  0  0
 24 32  1  0  0  0  0
 24 25  2  0  0  0  0
 26 25  1  0  0  0  0
 26 22  2  0  0  0  0
 27 29  2  0  0  0  0
 27 28  1  0  0  0  0
 28 26  1  0  0  0  0
 29 24  1  0  0  0  0
 30 31  2  0  0  0  0
 31 22  1  0  0  0  0
 32 34  1  0  0  0  0
 33 32  2  0  0  0  0
M  END
>  <MODEL>
7

>  <REMARK>
 VINA RESULT:      -8.6      3.026      5.966
  Name = 
  4 active torsions:
  status: ('A' for Active; 'I' for Inactive)
    1  A    between atoms: C_3  and  C_25
    2  A    between atoms: C_7  and  C_11
    3  A    between atoms: C_8  and  O_18
    4  A    between atoms: O_18  and  C_30
                            x       y       z     vdW  Elec       q    Type
                         _______ _______ _______ _____ _____    ______ ____

>  <TORSDO>
F 4

$$$$
=
 OpenBabel11052415573D

 34 39  0  0  1  0  0  0  0  0999 V2000
  189.2070  176.8250  137.1940 N   0  0  0  0  0  0  0  0  0  0  0  0
  186.3320  176.8530  134.5940 C   0  0  0  0  0  2  0  0  0  0  0  0
  188.4920  175.5840  134.6180 C   0  0  0  0  0  2  0  0  0  0  0  0
  190.5900  176.6630  139.2520 C   0  0  1  0  0  3  0  0  0  0  0  0
  189.8170  177.5890  138.2890 C   0  0  0  0  0  2  0  0  0  0  0  0
  191.0390  175.1880  137.3050 C   0  0  0  0  0  0  0  0  0  0  0  0
  191.6410  173.9500  136.3470 S   0  0  0  0  0  0  0  0  0  0  0  0
  191.6330  175.7820  138.5400 C   0  0  0  0  0  2  0  0  0  0  0  0
  189.6140  175.0830  135.4690 C   0  0  0  0  0  0  0  0  0  0  0  0
  189.9440  175.7160  136.6650 C   0  0  0  0  0  0  0  0  0  0  0  0
  190.4820  174.0520  135.1120 C   0  0  0  0  0  3  0  0  0  0  0  0
  185.1720  177.4960  135.3640 C   0  0  0  0  0  2  0  0  0  0  0  0
  184.9440  176.8710  136.7470 C   0  0  1  0  0  3  0  0  0  0  0  0
  185.9850  177.2840  137.8070 C   0  0  0  0  0  2  0  0  0  0  0  0
  187.4630  176.3240  135.4790 C   0  0  1  0  0  3  0  0  0  0  0  0
  187.1180  178.1630  137.2650 C   0  0  0  0  0  2  0  0  0  0  0  0
  188.1250  177.4050  136.3820 C   0  0  1  0  0  3  0  0  0  0  0  0
  183.5670  177.1740  137.2350 C   0  0  0  0  0  0  0  0  0  0  0  0
  182.4830  176.9900  136.3880 O   0  0  0  0  0  0  0  0  0  0  0  0
  183.3800  177.5930  138.4090 O   0  0  0  0  0  1  0  0  0  0  0  0
  191.1790  177.4010  140.3250 O   0  0  0  0  0  0  0  0  0  0  0  0
  190.9870  177.9210  143.9830 C   0  0  0  0  0  3  0  0  0  0  0  0
  189.2530  177.3850  141.8490 C   0  0  0  0  0  3  0  0  0  0  0  0
  187.7340  177.7660  145.7510 C   0  0  0  0  0  0  0  0  0  0  0  0
  189.1090  177.9070  145.5140 C   0  0  0  0  0  3  0  0  0  0  0  0
  189.6180  177.7820  144.2190 C   0  0  0  0  0  0  0  0  0  0  0  0
  187.3750  177.3700  143.3780 C   0  0  0  0  0  3  0  0  0  0  0  0
  188.7440  177.5120  143.1430 C   0  0  0  0  0  0  0  0  0  0  0  0
  186.8730  177.4960  144.6770 C   0  0  0  0  0  3  0  0  0  0  0  0
  190.6310  177.5240  141.6110 C   0  0  0  0  0  0  0  0  0  0  0  0
  191.4890  177.7930  142.6830 C   0  0  0  0  0  3  0  0  0  0  0  0
  187.1990  177.8980  147.1180 C   0  0  0  0  0  0  0  0  0  0  0  0
  186.0330  178.3360  147.3050 O   0  0  0  0  0  0  0  0  0  0  0  0
  187.9940  177.5330  148.2430 N   0  0  0  0  0  1  0  0  0  0  0  0
  1  5  1  0  0  0  0
  2 12  1  0  0  0  0
  3  9  1  0  0  0  0
  3 15  1  0  0  0  0
  4 21  1  1  0  0  0
  5  4  1  0  0  0  0
  6  8  1  0  0  0  0
  7  6  1  0  0  0  0
  8  4  1  0  0  0  0
  9 10  1  0  0  0  0
 10  1  1  0  0  0  0
 10  6  2  0  0  0  0
 11  9  2  0  0  0  0
 11  7  1  0  0  0  0
 12 13  1  0  0  0  0
 13 18  1  1  0  0  0
 13 14  1  0  0  0  0
 15  2  1  6  0  0  0
 15 17  1  0  0  0  0
 16 14  1  0  0  0  0
 17  1  1  0  0  0  0
 17 16  1  1  0  0  0
 18 20  1  0  0  0  0
 19 18  2  0  0  0  0
 21 30  1  0  0  0  0
 22 26  1  0  0  0  0
 23 28  1  0  0  0  0
 24 32  1  0  0  0  0
 25 24  1  0  0  0  0
 26 25  2  0  0  0  0
 27 29  1  0  0  0  0
 28 27  2  0  0  0  0
 28 26  1  0  0  0  0
 29 24  2  0  0  0  0
 30 23  2  0  0  0  0
 30 31  1  0  0  0  0
 31 22  2  0  0  0  0
 32 33  2  0  0  0  0
 32 34  1  0  0  0  0
M  END
>  <MODEL>
8

>  <REMARK>
 VINA RESULT:      -8.6      2.556      3.764
  Name = 
  4 active torsions:
  status: ('A' for Active; 'I' for Inactive)
    1  A    between atoms: C_3  and  C_25
    2  A    between atoms: C_7  and  C_11
    3  A    between atoms: C_8  and  O_18
    4  A    between atoms: O_18  and  C_30
                            x       y       z     vdW  Elec       q    Type
                         _______ _______ _______ _____ _____    ______ ____

>  <TORSDO>
F 4

$$$$
=
 OpenBabel11052415573D

 34 39  0  0  1  0  0  0  0  0999 V2000
  180.9060  179.2420  139.3560 N   0  0  0  0  0  0  0  0  0  0  0  0
  180.6110  180.2330  135.6200 C   0  0  0  0  0  2  0  0  0  0  0  0
  179.9550  178.1220  136.8010 C   0  0  0  0  0  2  0  0  0  0  0  0
  180.7770  179.1330  141.8350 C   0  0  1  0  0  3  0  0  0  0  0  0
  181.6150  179.5440  140.6050 C   0  0  0  0  0  2  0  0  0  0  0  0
  179.8020  177.3280  140.4350 C   0  0  0  0  0  0  0  0  0  0  0  0
  178.9330  175.9780  139.9510 S   0  0  0  0  0  0  0  0  0  0  0  0
  180.3210  177.6620  141.7940 C   0  0  0  0  0  2  0  0  0  0  0  0
  179.6310  177.5030  138.1210 C   0  0  0  0  0  0  0  0  0  0  0  0
  180.1260  178.0420  139.3060 C   0  0  0  0  0  0  0  0  0  0  0  0
  178.9310  176.3090  138.2870 C   0  0  0  0  0  3  0  0  0  0  0  0
  180.8000  181.7540  135.6460 C   0  0  0  0  0  2  0  0  0  0  0  0
  179.9220  182.4540  136.6930 C   0  0  1  0  0  3  0  0  0  0  0  0
  180.4130  182.2850  138.1450 C   0  0  0  0  0  2  0  0  0  0  0  0
  180.2560  179.6150  136.9740 C   0  0  1  0  0  3  0  0  0  0  0  0
  181.6300  181.3650  138.2930 C   0  0  0  0  0  2  0  0  0  0  0  0
  181.3110  179.8740  138.0890 C   0  0  1  0  0  3  0  0  0  0  0  0
  179.7770  183.9030  136.3670 C   0  0  0  0  0  0  0  0  0  0  0  0
  180.4140  184.4210  135.2470 O   0  0  0  0  0  0  0  0  0  0  0  0
  179.0800  184.6580  137.0960 O   0  0  0  0  0  1  0  0  0  0  0  0
  181.4580  179.4330  143.0550 O   0  0  0  0  0  0  0  0  0  0  0  0
  184.9110  178.1840  142.6030 C   0  0  0  0  0  3  0  0  0  0  0  0
  183.2330  178.9940  144.6950 C   0  0  0  0  0  3  0  0  0  0  0  0
  187.1520  177.7130  145.5160 C   0  0  0  0  0  0  0  0  0  0  0  0
  186.6810  177.7360  144.1950 C   0  0  0  0  0  3  0  0  0  0  0  0
  185.3800  178.1620  143.9180 C   0  0  0  0  0  0  0  0  0  0  0  0
  185.0010  178.5470  146.2880 C   0  0  0  0  0  3  0  0  0  0  0  0
  184.5340  178.5710  144.9720 C   0  0  0  0  0  0  0  0  0  0  0  0
  186.3050  178.1190  146.5570 C   0  0  0  0  0  3  0  0  0  0  0  0
  182.7590  179.0150  143.3720 C   0  0  0  0  0  0  0  0  0  0  0  0
  183.6060  178.6100  142.3330 C   0  0  0  0  0  3  0  0  0  0  0  0
  188.5250  177.2630  145.8070 C   0  0  0  0  0  0  0  0  0  0  0  0
  189.3540  177.1060  144.8720 O   0  0  0  0  0  0  0  0  0  0  0  0
  188.9310  177.0020  147.1480 N   0  0  0  0  0  1  0  0  0  0  0  0
  1  5  1  0  0  0  0
  2 12  1  0  0  0  0
  3 15  1  0  0  0  0
  3  9  1  0  0  0  0
  4 21  1  1  0  0  0
  5  4  1  0  0  0  0
  6  8  1  0  0  0  0
  7  6  1  0  0  0  0
  8  4  1  0  0  0  0
  9 11  2  0  0  0  0
  9 10  1  0  0  0  0
 10  1  1  0  0  0  0
 10  6  2  0  0  0  0
 11  7  1  0  0  0  0
 12 13  1  0  0  0  0
 13 18  1  6  0  0  0
 13 14  1  0  0  0  0
 14 16  1  0  0  0  0
 15  2  1  6  0  0  0
 15 17  1  0  0  0  0
 17 16  1  1  0  0  0
 17  1  1  0  0  0  0
 18 20  1  0  0  0  0
 19 18  2  0  0  0  0
 21 30  1  0  0  0  0
 22 26  1  0  0  0  0
 23 28  1  0  0  0  0
 24 32  1  0  0  0  0
 24 29  1  0  0  0  0
 25 24  2  0  0  0  0
 26 25  1  0  0  0  0
 26 28  2  0  0  0  0
 27 29  2  0  0  0  0
 28 27  1  0  0  0  0
 30 23  2  0  0  0  0
 31 22  2  0  0  0  0
 31 30  1  0  0  0  0
 32 34  1  0  0  0  0
 33 32  2  0  0  0  0
M  END
>  <MODEL>
9

>  <REMARK>
 VINA RESULT:      -8.6      4.123      6.249
  Name = 
  4 active torsions:
  status: ('A' for Active; 'I' for Inactive)
    1  A    between atoms: C_3  and  C_25
    2  A    between atoms: C_7  and  C_11
    3  A    between atoms: C_8  and  O_18
    4  A    between atoms: O_18  and  C_30
                            x       y       z     vdW  Elec       q    Type
                         _______ _______ _______ _____ _____    ______ ____

>  <TORSDO>
F 4

$$$$
