=
 OpenBabel11052414353D

 32 38  0  0  1  0  0  0  0  0999 V2000
  185.0060  178.5660  143.4310 C   0  0  0  0  0  0  0  0  0  0  0  0
  187.3310  177.8990  143.8110 C   0  0  0  0  0  0  0  0  0  0  0  0
  183.7420  178.8780  143.9560 C   0  0  0  0  0  3  0  0  0  0  0  0
  186.0580  178.2260  144.3160 C   0  0  1  0  0  3  0  0  0  0  0  0
  188.4190  177.3870  144.7400 C   0  0  0  0  0  0  0  0  0  0  0  0
  190.4860  176.6390  140.2120 C   0  0  0  0  0  2  0  0  0  0  0  0
  187.5750  177.9800  142.4220 C   0  0  0  0  0  0  0  0  0  0  0  0
  191.4340  177.5530  142.3880 C   0  0  0  0  0  2  0  0  0  0  0  0
  190.0020  177.3110  142.8740 C   0  0  1  0  0  3  0  0  0  0  0  0
  185.8400  178.2560  145.7050 C   0  0  0  0  0  0  0  0  0  0  0  0
  189.7850  177.8700  144.2710 C   0  0  0  0  0  2  0  0  0  0  0  0
  186.9430  177.9990  146.6390 C   0  0  0  0  0  3  0  0  0  0  0  0
  184.5770  178.5770  146.2080 C   0  0  0  0  0  3  0  0  0  0  0  0
  186.5360  178.3490  141.5620 C   0  0  0  0  0  3  0  0  0  0  0  0
  185.2460  178.6080  142.0440 C   0  0  0  0  0  0  0  0  0  0  0  0
  188.9840  177.8840  141.8770 C   0  0  1  0  0  3  0  0  0  0  0  0
  188.1580  177.6380  146.2180 C   0  0  0  0  0  0  0  0  0  0  0  0
  183.5280  178.8770  145.3370 C   0  0  0  0  0  3  0  0  0  0  0  0
  191.5580  177.5250  140.8550 C   0  0  0  0  0  2  0  0  0  0  0  0
  189.0660  177.1320  140.5380 C   0  0  0  0  0  2  0  0  0  0  0  0
  182.2510  178.0420  139.9190 N   0  0  0  0  0  0  0  0  0  0  0  0
  181.5480  176.7690  139.8450 C   0  0  0  0  0  1  0  0  0  0  0  0
  183.2490  178.0350  138.8520 C   0  0  2  0  0  3  0  0  0  0  0  0
  184.1520  178.9830  141.0810 C   0  0  1  0  0  3  0  0  0  0  0  0
  184.7410  178.9380  139.3740 S   0  0  0  0  0  0  0  0  0  0  0  0
  182.9590  178.0570  141.1920 C   0  0  1  0  0  3  0  0  0  0  0  0
  182.0390  178.5550  142.2960 C   0  0  0  0  0  1  0  0  0  0  0  0
  182.7940  177.7370  136.4290 C   0  0  0  0  0  2  0  0  0  0  0  0
  182.6810  178.6920  137.6020 C   0  0  0  0  0  3  0  0  0  0  0  0
  181.4640  177.9210  137.1260 C   0  0  0  0  0  2  0  0  0  0  0  0
  189.1350  177.3230  147.2180 N   0  0  0  0  0  2  0  0  0  0  0  0
  189.3710  178.1240  148.4080 C   0  0  0  0  0  1  0  0  0  0  0  0
  1  3  2  0  0  0  0
  2  4  1  0  0  0  0
  2  5  1  0  0  0  0
  3 18  1  0  0  0  0
  4  1  1  1  0  0  0
  4 10  1  0  0  0  0
  5 17  2  0  0  0  0
  6 20  1  0  0  0  0
  6 19  1  0  0  0  0
  7  2  2  0  0  0  0
  9  8  1  6  0  0  0
  9 11  1  0  0  0  0
 10 13  1  0  0  0  0
 10 12  2  0  0  0  0
 11  5  1  0  0  0  0
 14 15  2  0  0  0  0
 14  7  1  0  0  0  0
 15  1  1  0  0  0  0
 16 20  1  6  0  0  0
 16  7  1  0  0  0  0
 16  9  1  0  0  0  0
 17 12  1  0  0  0  0
 17 31  1  0  0  0  0
 18 13  2  0  0  0  0
 19  8  1  0  0  0  0
 21 26  1  0  0  0  0
 22 21  1  0  0  0  0
 23 29  1  6  0  0  0
 23 25  1  0  0  0  0
 23 21  1  0  0  0  0
 24 26  1  0  0  0  0
 24 15  1  1  0  0  0
 25 24  1  0  0  0  0
 26 27  1  1  0  0  0
 28 30  1  0  0  0  0
 28 29  1  0  0  0  0
 30 29  1  0  0  0  0
 31 32  1  0  0  0  0
M  END
>  <MODEL>
1

>  <REMARK>
 VINA RESULT:     -10.9      0.000      0.000
  Name = 
  3 active torsions:
  status: ('A' for Active; 'I' for Inactive)
    1  A    between atoms: N_13  and  C_29
    2  A    between atoms: C_15  and  C_19
    3  A    between atoms: C_16  and  C_27
                            x       y       z     vdW  Elec       q    Type
                         _______ _______ _______ _____ _____    ______ ____

>  <TORSDO>
F 3

$$$$
=
 OpenBabel11052414353D

 32 38  0  0  1  0  0  0  0  0999 V2000
  187.4070  178.4510  141.6650 C   0  0  0  0  0  0  0  0  0  0  0  0
  188.2670  177.7740  139.4740 C   0  0  0  0  0  0  0  0  0  0  0  0
  186.3480  178.9460  142.4410 C   0  0  0  0  0  3  0  0  0  0  0  0
  187.2150  178.2600  140.2750 C   0  0  0  0  0  0  0  0  0  0  0  0
  188.1170  177.7120  137.9630 C   0  0  1  0  0  3  0  0  0  0  0  0
  193.0040  176.6680  138.5670 C   0  0  0  0  0  2  0  0  0  0  0  0
  189.4930  177.4110  140.0740 C   0  0  0  0  0  0  0  0  0  0  0  0
  191.2160  175.6470  137.0750 C   0  0  0  0  0  2  0  0  0  0  0  0
  190.3330  176.6890  137.7690 C   0  0  1  0  0  3  0  0  0  0  0  0
  185.9570  178.5170  139.7020 C   0  0  0  0  0  0  0  0  0  0  0  0
  188.8680  176.5080  137.4080 C   0  0  0  0  0  2  0  0  0  0  0  0
  185.7130  178.2350  138.2810 C   0  0  0  0  0  3  0  0  0  0  0  0
  184.9140  179.0020  140.4930 C   0  0  0  0  0  3  0  0  0  0  0  0
  189.6580  177.5740  141.4530 C   0  0  0  0  0  3  0  0  0  0  0  0
  188.6450  178.1220  142.2510 C   0  0  0  0  0  0  0  0  0  0  0  0
  190.5440  176.6550  139.2900 C   0  0  1  0  0  3  0  0  0  0  0  0
  186.6840  177.8200  137.4640 C   0  0  0  0  0  0  0  0  0  0  0  0
  185.1100  179.2260  141.8580 C   0  0  0  0  0  3  0  0  0  0  0  0
  192.5560  175.4230  137.7960 C   0  0  0  0  0  2  0  0  0  0  0  0
  191.9810  177.0760  139.6400 C   0  0  0  0  0  2  0  0  0  0  0  0
  190.3960  177.6620  145.4950 N   0  0  0  0  0  0  0  0  0  0  0  0
  191.6360  176.9130  145.6400 C   0  0  0  0  0  1  0  0  0  0  0  0
  189.3040  176.7200  145.7310 C   0  0  2  0  0  3  0  0  0  0  0  0
  188.8720  178.2980  143.7280 C   0  0  1  0  0  3  0  0  0  0  0  0
  187.8720  177.1370  144.6850 S   0  0  0  0  0  0  0  0  0  0  0  0
  190.3240  178.0920  144.1050 C   0  0  1  0  0  3  0  0  0  0  0  0
  191.0800  179.3980  143.9220 C   0  0  0  0  0  1  0  0  0  0  0  0
  188.9810  178.1880  147.7080 C   0  0  0  0  0  2  0  0  0  0  0  0
  188.8820  176.7650  147.1930 C   0  0  0  0  0  3  0  0  0  0  0  0
  187.6320  177.6110  147.3390 C   0  0  0  0  0  2  0  0  0  0  0  0
  186.3560  177.6630  136.0780 N   0  0  0  0  0  2  0  0  0  0  0  0
  185.3240  176.7690  135.5810 C   0  0  0  0  0  1  0  0  0  0  0  0
  1 15  1  0  0  0  0
  1  3  2  0  0  0  0
  2  7  2  0  0  0  0
  2  4  1  0  0  0  0
  4  1  1  0  0  0  0
  5 11  1  1  0  0  0
  5  2  1  0  0  0  0
  6 20  1  0  0  0  0
  7 14  1  0  0  0  0
  8 19  1  0  0  0  0
  9  8  1  6  0  0  0
  9 16  1  0  0  0  0
 10  4  2  0  0  0  0
 10 13  1  0  0  0  0
 11  9  1  0  0  0  0
 12 10  1  0  0  0  0
 13 18  2  0  0  0  0
 14 15  2  0  0  0  0
 16 20  1  6  0  0  0
 16  7  1  0  0  0  0
 17  5  1  0  0  0  0
 17 12  2  0  0  0  0
 18  3  1  0  0  0  0
 19  6  1  0  0  0  0
 21 22  1  0  0  0  0
 21 23  1  0  0  0  0
 23 29  1  1  0  0  0
 24 15  1  6  0  0  0
 24 26  1  0  0  0  0
 24 25  1  0  0  0  0
 25 23  1  0  0  0  0
 26 27  1  1  0  0  0
 26 21  1  0  0  0  0
 29 30  1  0  0  0  0
 29 28  1  0  0  0  0
 30 28  1  0  0  0  0
 31 17  1  0  0  0  0
 32 31  1  0  0  0  0
M  END
>  <MODEL>
2

>  <REMARK>
 VINA RESULT:     -10.9      2.620      7.529
  Name = 
  3 active torsions:
  status: ('A' for Active; 'I' for Inactive)
    1  A    between atoms: N_13  and  C_29
    2  A    between atoms: C_15  and  C_19
    3  A    between atoms: C_16  and  C_27
                            x       y       z     vdW  Elec       q    Type
                         _______ _______ _______ _____ _____    ______ ____

>  <TORSDO>
F 3

$$$$
=
 OpenBabel11052414353D

 32 38  0  0  1  0  0  0  0  0999 V2000
  188.1400  177.8860  141.2280 C   0  0  0  0  0  0  0  0  0  0  0  0
  188.2580  177.4620  143.6370 C   0  0  0  0  0  0  0  0  0  0  0  0
  187.3910  178.2910  140.1130 C   0  0  0  0  0  3  0  0  0  0  0  0
  187.5290  177.8750  142.5060 C   0  0  1  0  0  3  0  0  0  0  0  0
  187.5670  177.3010  144.9810 C   0  0  0  0  0  0  0  0  0  0  0  0
  192.0930  175.2960  145.8940 C   0  0  0  0  0  2  0  0  0  0  0  0
  189.6240  177.1260  143.5050 C   0  0  0  0  0  0  0  0  0  0  0  0
  190.6210  176.8670  147.2480 C   0  0  0  0  0  2  0  0  0  0  0  0
  189.7040  176.7260  146.0300 C   0  0  1  0  0  3  0  0  0  0  0  0
  186.2020  178.3180  142.6490 C   0  0  0  0  0  0  0  0  0  0  0  0
  188.5190  177.6740  146.1110 C   0  0  0  0  0  2  0  0  0  0  0  0
  185.5830  178.4020  143.9780 C   0  0  0  0  0  3  0  0  0  0  0  0
  185.4750  178.7250  141.5280 C   0  0  0  0  0  3  0  0  0  0  0  0
  190.2240  177.1730  142.2430 C   0  0  0  0  0  3  0  0  0  0  0  0
  189.4920  177.5140  141.0980 C   0  0  0  0  0  0  0  0  0  0  0  0
  190.4930  176.9260  144.7280 C   0  0  1  0  0  3  0  0  0  0  0  0
  186.2090  177.9790  145.0790 C   0  0  0  0  0  0  0  0  0  0  0  0
  186.0640  178.7030  140.2620 C   0  0  0  0  0  3  0  0  0  0  0  0
  192.0540  176.3780  146.9780 C   0  0  0  0  0  2  0  0  0  0  0  0
  191.5330  175.8070  144.5560 C   0  0  0  0  0  2  0  0  0  0  0  0
  190.8070  176.0720  137.9360 N   0  0  0  0  0  0  0  0  0  0  0  0
  190.6650  174.6690  137.5740 C   0  0  0  0  0  1  0  0  0  0  0  0
  192.0840  176.1990  138.6350 C   0  0  2  0  0  3  0  0  0  0  0  0
  190.1730  177.5330  139.7560 C   0  0  1  0  0  3  0  0  0  0  0  0
  191.9690  177.4700  139.9350 S   0  0  0  0  0  0  0  0  0  0  0  0
  189.7450  176.3690  138.8880 C   0  0  1  0  0  3  0  0  0  0  0  0
  188.4690  176.7380  138.1480 C   0  0  0  0  0  1  0  0  0  0  0  0
  194.2550  175.5180  137.6410 C   0  0  0  0  0  2  0  0  0  0  0  0
  193.1800  176.5880  137.6530 C   0  0  0  0  0  3  0  0  0  0  0  0
  193.2370  175.5780  136.5240 C   0  0  0  0  0  2  0  0  0  0  0  0
  185.4780  178.0240  146.3110 N   0  0  0  0  0  2  0  0  0  0  0  0
  185.6810  179.0260  147.3430 C   0  0  0  0  0  1  0  0  0  0  0  0
  2  5  2  0  0  0  0
  3 18  2  0  0  0  0
  3  1  1  0  0  0  0
  4  1  1  1  0  0  0
  4 10  1  0  0  0  0
  4  2  1  0  0  0  0
  5 17  1  0  0  0  0
  5 11  1  0  0  0  0
  6 19  1  0  0  0  0
  7  2  1  0  0  0  0
  7 16  1  0  0  0  0
  9 11  1  1  0  0  0
  9  8  1  0  0  0  0
 10 12  1  0  0  0  0
 12 17  2  0  0  0  0
 13 10  2  0  0  0  0
 14  7  2  0  0  0  0
 15  1  2  0  0  0  0
 15 14  1  0  0  0  0
 16 20  1  6  0  0  0
 16  9  1  0  0  0  0
 17 31  1  0  0  0  0
 18 13  1  0  0  0  0
 19  8  1  0  0  0  0
 20  6  1  0  0  0  0
 21 23  1  0  0  0  0
 21 26  1  0  0  0  0
 22 21  1  0  0  0  0
 23 29  1  6  0  0  0
 23 25  1  0  0  0  0
 24 25  1  0  0  0  0
 24 15  1  1  0  0  0
 26 27  1  6  0  0  0
 26 24  1  0  0  0  0
 28 29  1  0  0  0  0
 30 28  1  0  0  0  0
 30 29  1  0  0  0  0
 31 32  1  0  0  0  0
M  END
>  <MODEL>
3

>  <REMARK>
 VINA RESULT:     -10.9      3.024      6.164
  Name = 
  3 active torsions:
  status: ('A' for Active; 'I' for Inactive)
    1  A    between atoms: N_13  and  C_29
    2  A    between atoms: C_15  and  C_19
    3  A    between atoms: C_16  and  C_27
                            x       y       z     vdW  Elec       q    Type
                         _______ _______ _______ _____ _____    ______ ____

>  <TORSDO>
F 3

$$$$
=
 OpenBabel11052414353D

 32 38  0  0  1  0  0  0  0  0999 V2000
  183.5060  178.7740  142.0960 C   0  0  0  0  0  0  0  0  0  0  0  0
  185.8900  178.2760  141.8330 C   0  0  0  0  0  0  0  0  0  0  0  0
  182.4030  178.9640  142.9420 C   0  0  0  0  0  3  0  0  0  0  0  0
  184.7710  178.4820  142.6630 C   0  0  0  0  0  0  0  0  0  0  0  0
  187.2110  177.8130  142.4250 C   0  0  1  0  0  3  0  0  0  0  0  0
  188.0870  177.4120  137.4840 C   0  0  0  0  0  2  0  0  0  0  0  0
  185.7620  178.4310  140.4350 C   0  0  0  0  0  0  0  0  0  0  0  0
  189.5020  178.3100  139.3980 C   0  0  0  0  0  2  0  0  0  0  0  0
  188.2620  177.9370  140.2160 C   0  0  1  0  0  3  0  0  0  0  0  0
  184.9160  178.4390  144.0610 C   0  0  0  0  0  0  0  0  0  0  0  0
  188.3760  178.4210  141.6530 C   0  0  0  0  0  2  0  0  0  0  0  0
  186.2370  178.2320  144.6680 C   0  0  0  0  0  3  0  0  0  0  0  0
  183.8070  178.6400  144.8860 C   0  0  0  0  0  3  0  0  0  0  0  0
  184.5150  178.7520  139.8900 C   0  0  0  0  0  3  0  0  0  0  0  0
  183.3780  178.8900  140.6980 C   0  0  0  0  0  0  0  0  0  0  0  0
  186.9860  178.4680  139.5460 C   0  0  1  0  0  3  0  0  0  0  0  0
  187.3240  177.9840  143.9320 C   0  0  0  0  0  0  0  0  0  0  0  0
  182.5520  178.8920  144.3290 C   0  0  0  0  0  3  0  0  0  0  0  0
  189.2290  178.3520  137.8850 C   0  0  0  0  0  2  0  0  0  0  0  0
  186.7700  177.7790  138.1880 C   0  0  0  0  0  2  0  0  0  0  0  0
  180.5840  178.5140  138.2780 N   0  0  0  0  0  0  0  0  0  0  0  0
  180.5420  177.4790  137.2550 C   0  0  0  0  0  1  0  0  0  0  0  0
  181.2110  179.6840  137.6680 C   0  0  2  0  0  3  0  0  0  0  0  0
  182.0510  179.2160  140.0680 C   0  0  1  0  0  3  0  0  0  0  0  0
  182.2020  180.5870  138.9010 S   0  0  0  0  0  0  0  0  0  0  0  0
  181.4690  178.0300  139.3290 C   0  0  1  0  0  3  0  0  0  0  0  0
  180.6930  177.1620  140.3070 C   0  0  0  0  0  1  0  0  0  0  0  0
  180.6990  181.3570  135.9060 C   0  0  0  0  0  2  0  0  0  0  0  0
  180.1450  180.6150  137.1070 C   0  0  0  0  0  3  0  0  0  0  0  0
  179.7720  180.1790  135.7030 C   0  0  0  0  0  2  0  0  0  0  0  0
  188.5430  177.7070  144.6310 N   0  0  0  0  0  2  0  0  0  0  0  0
  188.6470  177.5920  146.0760 C   0  0  0  0  0  1  0  0  0  0  0  0
  1  4  1  0  0  0  0
  1  3  2  0  0  0  0
  2  5  1  0  0  0  0
  2  4  1  0  0  0  0
  3 18  1  0  0  0  0
  4 10  2  0  0  0  0
  5 11  1  6  0  0  0
  5 17  1  0  0  0  0
  6 19  1  0  0  0  0
  6 20  1  0  0  0  0
  7  2  2  0  0  0  0
  9  8  1  6  0  0  0
  9 11  1  0  0  0  0
 10 12  1  0  0  0  0
 10 13  1  0  0  0  0
 14  7  1  0  0  0  0
 14 15  2  0  0  0  0
 15  1  1  0  0  0  0
 16 20  1  6  0  0  0
 16  9  1  0  0  0  0
 16  7  1  0  0  0  0
 17 31  1  0  0  0  0
 17 12  2  0  0  0  0
 18 13  2  0  0  0  0
 19  8  1  0  0  0  0
 21 26  1  0  0  0  0
 22 21  1  0  0  0  0
 23 29  1  1  0  0  0
 23 21  1  0  0  0  0
 23 25  1  0  0  0  0
 24 15  1  6  0  0  0
 25 24  1  0  0  0  0
 26 24  1  0  0  0  0
 26 27  1  1  0  0  0
 28 29  1  0  0  0  0
 30 28  1  0  0  0  0
 30 29  1  0  0  0  0
 31 32  1  0  0  0  0
M  END
>  <MODEL>
4

>  <REMARK>
 VINA RESULT:     -10.9      1.901      2.780
  Name = 
  3 active torsions:
  status: ('A' for Active; 'I' for Inactive)
    1  A    between atoms: N_13  and  C_29
    2  A    between atoms: C_15  and  C_19
    3  A    between atoms: C_16  and  C_27
                            x       y       z     vdW  Elec       q    Type
                         _______ _______ _______ _____ _____    ______ ____

>  <TORSDO>
F 3

$$$$
=
 OpenBabel11052414353D

 32 38  0  0  1  0  0  0  0  0999 V2000
  189.7550  177.5130  142.3330 C   0  0  0  0  0  0  0  0  0  0  0  0
  188.1400  177.8020  144.1520 C   0  0  0  0  0  0  0  0  0  0  0  0
  191.0520  177.1770  141.9190 C   0  0  0  0  0  3  0  0  0  0  0  0
  189.4330  177.4580  143.7120 C   0  0  1  0  0  3  0  0  0  0  0  0
  187.8330  177.8930  145.6380 C   0  0  0  0  0  0  0  0  0  0  0  0
  183.6510  179.8080  143.5940 C   0  0  0  0  0  2  0  0  0  0  0  0
  187.1440  178.1330  143.2070 C   0  0  0  0  0  0  0  0  0  0  0  0
  184.0180  178.1760  145.5090 C   0  0  0  0  0  2  0  0  0  0  0  0
  185.4880  178.3920  145.1400 C   0  0  1  0  0  3  0  0  0  0  0  0
  190.3970  177.0190  144.6370 C   0  0  0  0  0  0  0  0  0  0  0  0
  186.4010  177.4500  145.9080 C   0  0  0  0  0  2  0  0  0  0  0  0
  190.0530  176.8660  146.0570 C   0  0  0  0  0  3  0  0  0  0  0  0
  191.6800  176.6810  144.2030 C   0  0  0  0  0  3  0  0  0  0  0  0
  187.4660  178.1520  141.8470 C   0  0  0  0  0  3  0  0  0  0  0  0
  188.7660  177.8810  141.4000 C   0  0  0  0  0  0  0  0  0  0  0  0
  185.6940  178.2580  143.6240 C   0  0  1  0  0  3  0  0  0  0  0  0
  188.8590  177.2220  146.5380 C   0  0  0  0  0  0  0  0  0  0  0  0
  192.0110  176.7690  142.8490 C   0  0  0  0  0  3  0  0  0  0  0  0
  183.0490  178.6670  144.4200 C   0  0  0  0  0  2  0  0  0  0  0  0
  184.9440  179.3770  142.8820 C   0  0  0  0  0  2  0  0  0  0  0  0
  188.5850  176.7860  137.8540 N   0  0  0  0  0  0  0  0  0  0  0  0
  187.7660  175.6730  137.3980 C   0  0  0  0  0  1  0  0  0  0  0  0
  189.9070  176.2410  138.1570 C   0  0  2  0  0  3  0  0  0  0  0  0
  189.0740  177.9310  139.9280 C   0  0  1  0  0  3  0  0  0  0  0  0
  190.6500  177.1280  139.5630 S   0  0  0  0  0  0  0  0  0  0  0  0
  187.9990  177.2560  139.1020 C   0  0  1  0  0  3  0  0  0  0  0  0
  186.8880  178.2530  138.8150 C   0  0  0  0  0  1  0  0  0  0  0  0
  192.0510  175.5140  137.1360 C   0  0  0  0  0  2  0  0  0  0  0  0
  190.8180  176.3770  136.9440 C   0  0  0  0  0  3  0  0  0  0  0  0
  190.9300  175.0400  136.2370 C   0  0  0  0  0  2  0  0  0  0  0  0
  188.6620  177.1150  147.9540 N   0  0  0  0  0  2  0  0  0  0  0  0
  188.4970  178.2530  148.8420 C   0  0  0  0  0  1  0  0  0  0  0  0
  2  5  1  0  0  0  0
  3  1  2  0  0  0  0
  3 18  1  0  0  0  0
  4  1  1  6  0  0  0
  4  2  1  0  0  0  0
  4 10  1  0  0  0  0
  5 11  1  0  0  0  0
  5 17  2  0  0  0  0
  6 19  1  0  0  0  0
  7 16  1  0  0  0  0
  7  2  2  0  0  0  0
  9  8  1  6  0  0  0
  9 11  1  0  0  0  0
 10 12  2  0  0  0  0
 12 17  1  0  0  0  0
 13 10  1  0  0  0  0
 14  7  1  0  0  0  0
 15 14  2  0  0  0  0
 15  1  1  0  0  0  0
 16 20  1  6  0  0  0
 16  9  1  0  0  0  0
 17 31  1  0  0  0  0
 18 13  2  0  0  0  0
 19  8  1  0  0  0  0
 20  6  1  0  0  0  0
 21 23  1  0  0  0  0
 21 26  1  0  0  0  0
 22 21  1  0  0  0  0
 23 29  1  6  0  0  0
 23 25  1  0  0  0  0
 24 15  1  1  0  0  0
 25 24  1  0  0  0  0
 26 27  1  6  0  0  0
 26 24  1  0  0  0  0
 29 28  1  0  0  0  0
 30 29  1  0  0  0  0
 30 28  1  0  0  0  0
 31 32  1  0  0  0  0
M  END
>  <MODEL>
5

>  <REMARK>
 VINA RESULT:     -10.8      2.716      5.937
  Name = 
  3 active torsions:
  status: ('A' for Active; 'I' for Inactive)
    1  A    between atoms: N_13  and  C_29
    2  A    between atoms: C_15  and  C_19
    3  A    between atoms: C_16  and  C_27
                            x       y       z     vdW  Elec       q    Type
                         _______ _______ _______ _____ _____    ______ ____

>  <TORSDO>
F 3

$$$$
=
 OpenBabel11052414353D

 32 38  0  0  1  0  0  0  0  0999 V2000
  189.0490  177.8980  141.4870 C   0  0  0  0  0  0  0  0  0  0  0  0
  186.7370  178.3300  142.1700 C   0  0  0  0  0  0  0  0  0  0  0  0
  190.3760  177.6140  141.8440 C   0  0  0  0  0  3  0  0  0  0  0  0
  188.0730  178.0340  142.5040 C   0  0  1  0  0  3  0  0  0  0  0  0
  185.7200  178.6270  143.2590 C   0  0  0  0  0  0  0  0  0  0  0  0
  183.1630  179.8280  139.0930 C   0  0  0  0  0  2  0  0  0  0  0  0
  186.3600  178.4210  140.8120 C   0  0  0  0  0  0  0  0  0  0  0  0
  182.4980  178.5570  141.1930 C   0  0  0  0  0  2  0  0  0  0  0  0
  183.9540  178.8370  141.5760 C   0  0  1  0  0  3  0  0  0  0  0  0
  188.4320  177.8300  143.8490 C   0  0  0  0  0  0  0  0  0  0  0  0
  184.3460  178.1110  142.8520 C   0  0  0  0  0  2  0  0  0  0  0  0
  187.4150  177.8740  144.9070 C   0  0  0  0  0  3  0  0  0  0  0  0
  189.7570  177.5400  144.1830 C   0  0  0  0  0  3  0  0  0  0  0  0
  187.3270  178.2530  139.8170 C   0  0  0  0  0  3  0  0  0  0  0  0
  188.6730  178.0270  140.1370 C   0  0  0  0  0  0  0  0  0  0  0  0
  184.9000  178.4840  140.4180 C   0  0  1  0  0  3  0  0  0  0  0  0
  186.1440  178.1970  144.6550 C   0  0  0  0  0  0  0  0  0  0  0  0
  190.7290  177.4410  143.1850 C   0  0  0  0  0  3  0  0  0  0  0  0
  182.2180  178.7850  139.6980 C   0  0  0  0  0  2  0  0  0  0  0  0
  184.6360  179.4040  139.2140 C   0  0  0  0  0  2  0  0  0  0  0  0
  189.8710  177.1890  136.7210 N   0  0  0  0  0  0  0  0  0  0  0  0
  188.9920  176.7430  135.6490 C   0  0  0  0  0  1  0  0  0  0  0  0
  190.3550  175.9860  137.3950 C   0  0  2  0  0  3  0  0  0  0  0  0
  189.6850  177.8710  139.0340 C   0  0  1  0  0  3  0  0  0  0  0  0
  190.5680  176.3020  139.1770 S   0  0  0  0  0  0  0  0  0  0  0  0
  189.0420  177.9270  137.6640 C   0  0  1  0  0  3  0  0  0  0  0  0
  188.9180  179.3780  137.2260 C   0  0  0  0  0  1  0  0  0  0  0  0
  191.9920  174.1280  137.2130 C   0  0  0  0  0  2  0  0  0  0  0  0
  191.6900  175.5560  136.8020 C   0  0  0  0  0  3  0  0  0  0  0  0
  191.4710  174.4190  135.8230 C   0  0  0  0  0  2  0  0  0  0  0  0
  185.2560  178.2970  145.7750 N   0  0  0  0  0  2  0  0  0  0  0  0
  185.6810  178.6280  147.1260 C   0  0  0  0  0  1  0  0  0  0  0  0
  1  3  2  0  0  0  0
  2  4  1  0  0  0  0
  2  5  1  0  0  0  0
  3 18  1  0  0  0  0
  4  1  1  6  0  0  0
  4 10  1  0  0  0  0
  5 17  2  0  0  0  0
  6 20  1  0  0  0  0
  6 19  1  0  0  0  0
  7  2  2  0  0  0  0
  9  8  1  6  0  0  0
  9 11  1  0  0  0  0
 10 13  1  0  0  0  0
 10 12  2  0  0  0  0
 11  5  1  0  0  0  0
 14 15  2  0  0  0  0
 14  7  1  0  0  0  0
 15  1  1  0  0  0  0
 16 20  1  6  0  0  0
 16  7  1  0  0  0  0
 16  9  1  0  0  0  0
 17 12  1  0  0  0  0
 17 31  1  0  0  0  0
 18 13  2  0  0  0  0
 19  8  1  0  0  0  0
 21 23  1  0  0  0  0
 21 26  1  0  0  0  0
 22 21  1  0  0  0  0
 23 29  1  6  0  0  0
 23 25  1  0  0  0  0
 24 25  1  0  0  0  0
 24 15  1  1  0  0  0
 26 27  1  6  0  0  0
 26 24  1  0  0  0  0
 29 28  1  0  0  0  0
 30 29  1  0  0  0  0
 30 28  1  0  0  0  0
 31 32  1  0  0  0  0
M  END
>  <MODEL>
6

>  <REMARK>
 VINA RESULT:     -10.5      2.906      6.420
  Name = 
  3 active torsions:
  status: ('A' for Active; 'I' for Inactive)
    1  A    between atoms: N_13  and  C_29
    2  A    between atoms: C_15  and  C_19
    3  A    between atoms: C_16  and  C_27
                            x       y       z     vdW  Elec       q    Type
                         _______ _______ _______ _____ _____    ______ ____

>  <TORSDO>
F 3

$$$$
=
 OpenBabel11052414353D

 32 38  0  0  1  0  0  0  0  0999 V2000
  189.0800  177.8850  140.5910 C   0  0  0  0  0  0  0  0  0  0  0  0
  188.8400  177.8580  143.0280 C   0  0  0  0  0  0  0  0  0  0  0  0
  189.9060  177.7750  139.4630 C   0  0  0  0  0  3  0  0  0  0  0  0
  189.6480  177.7410  141.8810 C   0  0  1  0  0  3  0  0  0  0  0  0
  189.4660  177.8570  144.4130 C   0  0  0  0  0  0  0  0  0  0  0  0
  184.7020  179.1230  145.4290 C   0  0  0  0  0  2  0  0  0  0  0  0
  187.4480  178.0490  142.8870 C   0  0  0  0  0  0  0  0  0  0  0  0
  186.3180  177.5210  146.5640 C   0  0  0  0  0  2  0  0  0  0  0  0
  187.2450  177.9830  145.4360 C   0  0  1  0  0  3  0  0  0  0  0  0
  191.0150  177.4390  142.0120 C   0  0  0  0  0  0  0  0  0  0  0  0
  188.5360  177.1810  145.4120 C   0  0  0  0  0  2  0  0  0  0  0  0
  191.6010  177.1930  143.3370 C   0  0  0  0  0  3  0  0  0  0  0  0
  191.8190  177.3260  140.8760 C   0  0  0  0  0  3  0  0  0  0  0  0
  186.8950  178.1570  141.6070 C   0  0  0  0  0  3  0  0  0  0  0  0
  187.6970  178.1130  140.4590 C   0  0  0  0  0  0  0  0  0  0  0  0
  186.5250  177.9250  144.0810 C   0  0  1  0  0  3  0  0  0  0  0  0
  190.8950  177.3370  144.4610 C   0  0  0  0  0  0  0  0  0  0  0  0
  191.2690  177.5030  139.6040 C   0  0  0  0  0  3  0  0  0  0  0  0
  184.8430  177.8780  146.3100 C   0  0  0  0  0  2  0  0  0  0  0  0
  185.3600  178.9280  144.0530 C   0  0  0  0  0  2  0  0  0  0  0  0
  185.0980  177.5920  137.8550 N   0  0  0  0  0  0  0  0  0  0  0  0
  183.8640  176.8560  138.0880 C   0  0  0  0  0  1  0  0  0  0  0  0
  186.0740  176.6290  137.3490 C   0  0  2  0  0  3  0  0  0  0  0  0
  187.0630  178.2530  139.1020 C   0  0  1  0  0  3  0  0  0  0  0  0
  187.7450  177.0530  137.9360 S   0  0  0  0  0  0  0  0  0  0  0  0
  185.5620  178.0570  139.1560 C   0  0  1  0  0  3  0  0  0  0  0  0
  184.8960  179.3780  139.5060 C   0  0  0  0  0  1  0  0  0  0  0  0
  186.7200  175.3600  135.3150 C   0  0  0  0  0  2  0  0  0  0  0  0
  186.0660  176.6290  135.8270 C   0  0  0  0  0  3  0  0  0  0  0  0
  185.2130  175.4820  135.3200 C   0  0  0  0  0  2  0  0  0  0  0  0
  191.5900  177.1600  145.7010 N   0  0  0  0  0  2  0  0  0  0  0  0
  192.0550  175.8770  146.2000 C   0  0  0  0  0  1  0  0  0  0  0  0
  2  5  2  0  0  0  0
  3 18  2  0  0  0  0
  3  1  1  0  0  0  0
  4  1  1  6  0  0  0
  4 10  1  0  0  0  0
  4  2  1  0  0  0  0
  5 17  1  0  0  0  0
  5 11  1  0  0  0  0
  6 19  1  0  0  0  0
  7  2  1  0  0  0  0
  7 16  1  0  0  0  0
  9 11  1  6  0  0  0
  9  8  1  0  0  0  0
 10 12  1  0  0  0  0
 12 17  2  0  0  0  0
 13 10  2  0  0  0  0
 14  7  2  0  0  0  0
 15  1  2  0  0  0  0
 15 14  1  0  0  0  0
 16 20  1  1  0  0  0
 16  9  1  0  0  0  0
 17 31  1  0  0  0  0
 18 13  1  0  0  0  0
 19  8  1  0  0  0  0
 20  6  1  0  0  0  0
 21 22  1  0  0  0  0
 21 26  1  0  0  0  0
 23 29  1  6  0  0  0
 23 21  1  0  0  0  0
 23 25  1  0  0  0  0
 24 26  1  0  0  0  0
 24 15  1  1  0  0  0
 25 24  1  0  0  0  0
 26 27  1  6  0  0  0
 28 30  1  0  0  0  0
 28 29  1  0  0  0  0
 30 29  1  0  0  0  0
 31 32  1  0  0  0  0
M  END
>  <MODEL>
7

>  <REMARK>
 VINA RESULT:     -10.5      2.109      5.003
  Name = 
  3 active torsions:
  status: ('A' for Active; 'I' for Inactive)
    1  A    between atoms: N_13  and  C_29
    2  A    between atoms: C_15  and  C_19
    3  A    between atoms: C_16  and  C_27
                            x       y       z     vdW  Elec       q    Type
                         _______ _______ _______ _____ _____    ______ ____

>  <TORSDO>
F 3

$$$$
=
 OpenBabel11052414353D

 32 38  0  0  1  0  0  0  0  0999 V2000
  185.4550  178.3800  139.7310 C   0  0  0  0  0  0  0  0  0  0  0  0
  186.9820  178.2410  141.6410 C   0  0  0  0  0  0  0  0  0  0  0  0
  185.2660  178.3940  138.3410 C   0  0  0  0  0  3  0  0  0  0  0  0
  186.7660  178.2470  140.2490 C   0  0  1  0  0  3  0  0  0  0  0  0
  188.3950  178.2530  142.2000 C   0  0  0  0  0  0  0  0  0  0  0  0
  185.6320  179.0020  146.3410 C   0  0  0  0  0  2  0  0  0  0  0  0
  185.8780  178.2990  142.5200 C   0  0  0  0  0  0  0  0  0  0  0  0
  187.6540  177.5280  145.8860 C   0  0  0  0  0  2  0  0  0  0  0  0
  187.5110  178.1200  144.4800 C   0  0  1  0  0  3  0  0  0  0  0  0
  187.8510  178.0770  139.3700 C   0  0  0  0  0  0  0  0  0  0  0  0
  188.4560  177.4520  143.4950 C   0  0  0  0  0  2  0  0  0  0  0  0
  189.2040  177.8430  139.8910 C   0  0  0  0  0  3  0  0  0  0  0  0
  187.6400  178.0850  137.9900 C   0  0  0  0  0  3  0  0  0  0  0  0
  184.5850  178.3970  141.9950 C   0  0  0  0  0  3  0  0  0  0  0  0
  184.3620  178.4740  140.6140 C   0  0  0  0  0  0  0  0  0  0  0  0
  186.0540  178.0410  144.0010 C   0  0  1  0  0  3  0  0  0  0  0  0
  189.4750  177.8750  141.1980 C   0  0  0  0  0  0  0  0  0  0  0  0
  186.3530  178.2530  137.4750 C   0  0  0  0  0  3  0  0  0  0  0  0
  186.4040  177.7470  146.7560 C   0  0  0  0  0  2  0  0  0  0  0  0
  185.1530  178.9230  144.8820 C   0  0  0  0  0  2  0  0  0  0  0  0
  181.5800  177.9880  138.1990 N   0  0  0  0  0  0  0  0  0  0  0  0
  181.7160  177.2390  136.9580 C   0  0  0  0  0  1  0  0  0  0  0  0
  181.8690  179.3850  137.8810 C   0  0  2  0  0  3  0  0  0  0  0  0
  182.9560  178.5990  140.0920 C   0  0  1  0  0  3  0  0  0  0  0  0
  182.6990  180.1950  139.2860 S   0  0  0  0  0  0  0  0  0  0  0  0
  182.6240  177.5090  139.0960 C   0  0  1  0  0  3  0  0  0  0  0  0
  182.1430  176.2750  139.8430 C   0  0  0  0  0  1  0  0  0  0  0  0
  180.9010  181.4610  136.9220 C   0  0  0  0  0  2  0  0  0  0  0  0
  180.5770  180.1280  137.5700 C   0  0  0  0  0  3  0  0  0  0  0  0
  180.4360  180.3010  136.0700 C   0  0  0  0  0  2  0  0  0  0  0  0
  190.8450  177.7240  141.5910 N   0  0  0  0  0  2  0  0  0  0  0  0
  191.9400  177.5030  140.6600 C   0  0  0  0  0  1  0  0  0  0  0  0
  1  4  1  0  0  0  0
  1 15  2  0  0  0  0
  2  5  2  0  0  0  0
  2  7  1  0  0  0  0
  3  1  1  0  0  0  0
  4 10  1  1  0  0  0
  4  2  1  0  0  0  0
  5 11  1  0  0  0  0
  6 19  1  0  0  0  0
  7 16  1  0  0  0  0
  8 19  1  0  0  0  0
  9 11  1  6  0  0  0
  9  8  1  0  0  0  0
 10 12  1  0  0  0  0
 12 17  2  0  0  0  0
 13 10  2  0  0  0  0
 14  7  2  0  0  0  0
 15 14  1  0  0  0  0
 16  9  1  0  0  0  0
 16 20  1  1  0  0  0
 17 31  1  0  0  0  0
 17  5  1  0  0  0  0
 18 13  1  0  0  0  0
 18  3  2  0  0  0  0
 20  6  1  0  0  0  0
 21 26  1  0  0  0  0
 22 21  1  0  0  0  0
 23 29  1  1  0  0  0
 23 21  1  0  0  0  0
 23 25  1  0  0  0  0
 24 15  1  6  0  0  0
 25 24  1  0  0  0  0
 26 27  1  1  0  0  0
 26 24  1  0  0  0  0
 28 29  1  0  0  0  0
 30 28  1  0  0  0  0
 30 29  1  0  0  0  0
 32 31  1  0  0  0  0
M  END
>  <MODEL>
8

>  <REMARK>
 VINA RESULT:     -10.4      1.923      4.835
  Name = 
  3 active torsions:
  status: ('A' for Active; 'I' for Inactive)
    1  A    between atoms: N_13  and  C_29
    2  A    between atoms: C_15  and  C_19
    3  A    between atoms: C_16  and  C_27
                            x       y       z     vdW  Elec       q    Type
                         _______ _______ _______ _____ _____    ______ ____

>  <TORSDO>
F 3

$$$$
=
 OpenBabel11052414353D

 32 38  0  0  1  0  0  0  0  0999 V2000
  186.2220  178.2670  139.3800 C   0  0  0  0  0  0  0  0  0  0  0  0
  187.0800  178.2400  141.6730 C   0  0  0  0  0  0  0  0  0  0  0  0
  186.4760  178.2390  138.0000 C   0  0  0  0  0  3  0  0  0  0  0  0
  187.3100  178.2020  140.2850 C   0  0  1  0  0  3  0  0  0  0  0  0
  188.2460  178.3250  142.6440 C   0  0  0  0  0  0  0  0  0  0  0  0
  184.3070  179.0600  145.6890 C   0  0  0  0  0  2  0  0  0  0  0  0
  185.7550  178.2730  142.1620 C   0  0  0  0  0  0  0  0  0  0  0  0
  186.4160  177.6620  145.9400 C   0  0  0  0  0  2  0  0  0  0  0  0
  186.7000  178.2120  144.5390 C   0  0  1  0  0  3  0  0  0  0  0  0
  188.6190  178.0560  139.7930 C   0  0  0  0  0  0  0  0  0  0  0  0
  187.9260  177.5600  143.9220 C   0  0  0  0  0  2  0  0  0  0  0  0
  189.7490  177.8920  140.7170 C   0  0  0  0  0  3  0  0  0  0  0  0
  188.8500  178.0220  138.4160 C   0  0  0  0  0  3  0  0  0  0  0  0
  184.6890  178.3040  141.2580 C   0  0  0  0  0  3  0  0  0  0  0  0
  184.9050  178.3370  139.8750 C   0  0  0  0  0  0  0  0  0  0  0  0
  185.4690  178.0600  143.6340 C   0  0  1  0  0  3  0  0  0  0  0  0
  189.5970  177.9680  142.0420 C   0  0  0  0  0  0  0  0  0  0  0  0
  187.7830  178.1220  137.5210 C   0  0  0  0  0  3  0  0  0  0  0  0
  184.9510  177.8490  146.3700 C   0  0  0  0  0  2  0  0  0  0  0  0
  184.3100  178.9250  144.1570 C   0  0  0  0  0  2  0  0  0  0  0  0
  181.3900  179.0000  138.8720 N   0  0  0  0  0  0  0  0  0  0  0  0
  180.3930  179.5670  139.7680 C   0  0  0  0  0  1  0  0  0  0  0  0
  181.2850  177.5470  138.9910 C   0  0  2  0  0  3  0  0  0  0  0  0
  183.7290  178.3900  138.9370 C   0  0  1  0  0  3  0  0  0  0  0  0
  182.9260  176.7780  138.8070 S   0  0  0  0  0  0  0  0  0  0  0  0
  182.6930  179.3980  139.3870 C   0  0  1  0  0  3  0  0  0  0  0  0
  183.0660  180.7730  138.8560 C   0  0  0  0  0  1  0  0  0  0  0  0
  179.7460  175.6940  138.3890 C   0  0  0  0  0  2  0  0  0  0  0  0
  180.3550  177.0010  137.9170 C   0  0  0  0  0  3  0  0  0  0  0  0
  178.9320  176.9680  138.4410 C   0  0  0  0  0  2  0  0  0  0  0  0
  190.7800  177.8850  142.8460 N   0  0  0  0  0  2  0  0  0  0  0  0
  191.2580  178.9530  143.7070 C   0  0  0  0  0  1  0  0  0  0  0  0
  1 15  2  0  0  0  0
  2  7  1  0  0  0  0
  2  5  2  0  0  0  0
  3  1  1  0  0  0  0
  4  1  1  1  0  0  0
  4  2  1  0  0  0  0
  5 11  1  0  0  0  0
  6 19  1  0  0  0  0
  7 16  1  0  0  0  0
  8 19  1  0  0  0  0
  9 11  1  6  0  0  0
  9  8  1  0  0  0  0
 10  4  1  0  0  0  0
 10 12  1  0  0  0  0
 12 17  2  0  0  0  0
 13 10  2  0  0  0  0
 14  7  2  0  0  0  0
 15 14  1  0  0  0  0
 16 20  1  1  0  0  0
 16  9  1  0  0  0  0
 17  5  1  0  0  0  0
 17 31  1  0  0  0  0
 18  3  2  0  0  0  0
 18 13  1  0  0  0  0
 20  6  1  0  0  0  0
 21 23  1  0  0  0  0
 21 26  1  0  0  0  0
 21 22  1  0  0  0  0
 23 29  1  6  0  0  0
 24 26  1  0  0  0  0
 24 15  1  1  0  0  0
 25 24  1  0  0  0  0
 25 23  1  0  0  0  0
 26 27  1  6  0  0  0
 28 30  1  0  0  0  0
 29 28  1  0  0  0  0
 29 30  1  0  0  0  0
 31 32  1  0  0  0  0
M  END
>  <MODEL>
9

>  <REMARK>
 VINA RESULT:     -10.3      1.946      4.872
  Name = 
  3 active torsions:
  status: ('A' for Active; 'I' for Inactive)
    1  A    between atoms: N_13  and  C_29
    2  A    between atoms: C_15  and  C_19
    3  A    between atoms: C_16  and  C_27
                            x       y       z     vdW  Elec       q    Type
                         _______ _______ _______ _____ _____    ______ ____

>  <TORSDO>
F 3

$$$$
