=
 OpenBabel11052412453D

 25 28  0  0  1  0  0  0  0  0999 V2000
  187.4200  177.7780  145.5780 C   0  0  0  0  0  0  0  0  0  0  0  0
  188.7000  177.2580  145.2990 C   0  0  0  0  0  0  0  0  0  0  0  0
  187.9610  177.8530  147.9430 C   0  0  0  0  0  3  0  0  0  0  0  0
  186.3600  178.0550  144.6920 C   0  0  0  0  0  0  0  0  0  0  0  0
  184.0480  178.7180  143.2620 C   0  0  0  0  0  3  0  0  0  0  0  0
  189.2040  177.3800  147.6570 N   0  0  0  0  0  0  0  0  0  0  0  0
  185.2260  178.5410  145.3420 C   0  0  0  0  0  0  0  0  0  0  0  0
  184.0630  178.8770  144.6550 C   0  0  0  0  0  3  0  0  0  0  0  0
  191.0030  176.6910  146.1240 C   0  0  0  0  0  0  0  0  0  0  0  0
  191.8240  176.1130  147.2240 C   0  0  0  0  0  1  0  0  0  0  0  0
  189.1980  176.7410  143.6440 S   0  0  0  0  0  0  0  0  0  0  0  0
  185.1830  178.2320  142.5880 C   0  0  0  0  0  3  0  0  0  0  0  0
  187.0730  178.0620  146.8970 C   0  0  0  0  0  0  0  0  0  0  0  0
  185.4940  178.6430  147.0010 S   0  0  0  0  0  0  0  0  0  0  0  0
  191.5490  176.8560  144.9550 N   0  0  0  0  0  0  0  0  0  0  0  0
  186.3450  177.8980  143.3010 C   0  0  0  0  0  3  0  0  0  0  0  0
  190.8500  177.4810  143.8330 C   0  0  1  0  0  3  0  0  0  0  0  0
  189.6010  177.0920  146.3790 C   0  0  0  0  0  0  0  0  0  0  0  0
  191.6610  177.3290  142.5530 C   0  0  0  0  0  2  0  0  0  0  0  0
  190.8940  176.7310  141.5500 O   0  0  0  0  0  0  0  0  0  0  0  0
  191.3030  177.3590  140.3730 C   0  0  0  0  0  2  0  0  0  0  0  0
  190.2110  177.2550  139.3030 C   0  0  0  0  0  2  0  0  0  0  0  0
  189.3640  178.4500  139.1780 N   0  0  0  0  0  0  0  0  0  0  0  0
  188.9930  178.6550  137.7860 C   0  0  0  0  0  1  0  0  0  0  0  0
  188.1450  178.2970  139.9610 C   0  0  0  0  0  1  0  0  0  0  0  0
  1 13  1  0  0  0  0
  2  1  2  0  0  0  0
  2 18  1  0  0  0  0
  4  7  1  0  0  0  0
  4  1  1  0  0  0  0
  5  8  1  0  0  0  0
  6  3  1  0  0  0  0
  7 14  1  0  0  0  0
  8  7  2  0  0  0  0
  9 18  1  0  0  0  0
  9 10  1  0  0  0  0
 11 17  1  0  0  0  0
 11  2  1  0  0  0  0
 12  5  2  0  0  0  0
 12 16  1  0  0  0  0
 13 14  1  0  0  0  0
 13  3  2  0  0  0  0
 15  9  2  0  0  0  0
 16  4  2  0  0  0  0
 17 19  1  6  0  0  0
 17 15  1  0  0  0  0
 18  6  2  0  0  0  0
 20 19  1  0  0  0  0
 21 20  1  0  0  0  0
 22 21  1  0  0  0  0
 23 22  1  0  0  0  0
 23 25  1  0  0  0  0
 24 23  1  0  0  0  0
M  END
>  <MODEL>
1

>  <REMARK>
 VINA RESULT:      -9.4      0.000      0.000
  Name = 
  5 active torsions:
  status: ('A' for Active; 'I' for Inactive)
    1  A    between atoms: N_2  and  C_21
    2  A    between atoms: C_6  and  O_15
    3  A    between atoms: C_6  and  C_23
    4  A    between atoms: O_15  and  C_25
    5  A    between atoms: C_21  and  C_25
                            x       y       z     vdW  Elec       q    Type
                         _______ _______ _______ _____ _____    ______ ____

>  <TORSDO>
F 5

$$$$
=
 OpenBabel11052412453D

 25 28  0  0  1  0  0  0  0  0999 V2000
  187.4980  177.7640  145.4450 C   0  0  0  0  0  0  0  0  0  0  0  0
  188.7550  177.2500  145.0680 C   0  0  0  0  0  0  0  0  0  0  0  0
  188.2100  177.8150  147.7650 C   0  0  0  0  0  3  0  0  0  0  0  0
  186.3760  178.0470  144.6410 C   0  0  0  0  0  0  0  0  0  0  0  0
  183.9660  178.7200  143.3900 C   0  0  0  0  0  3  0  0  0  0  0  0
  189.4300  177.3490  147.3840 N   0  0  0  0  0  0  0  0  0  0  0  0
  185.2920  178.5230  145.3770 C   0  0  0  0  0  0  0  0  0  0  0  0
  184.0820  178.8640  144.7800 C   0  0  0  0  0  3  0  0  0  0  0  0
  191.1140  176.6810  145.7170 C   0  0  0  0  0  0  0  0  0  0  0  0
  192.0130  176.0930  146.7480 C   0  0  0  0  0  1  0  0  0  0  0  0
  189.1330  176.7520  143.3760 S   0  0  0  0  0  0  0  0  0  0  0  0
  185.0490  178.2430  142.6310 C   0  0  0  0  0  3  0  0  0  0  0  0
  187.2480  178.0330  146.7890 C   0  0  0  0  0  0  0  0  0  0  0  0
  185.6790  178.6090  147.0130 S   0  0  0  0  0  0  0  0  0  0  0  0
  191.5740  176.8600  144.5130 N   0  0  0  0  0  0  0  0  0  0  0  0
  186.2610  177.9050  143.2540 C   0  0  0  0  0  3  0  0  0  0  0  0
  190.7940  177.4940  143.4520 C   0  0  1  0  0  3  0  0  0  0  0  0
  189.7340  177.0760  146.0780 C   0  0  0  0  0  0  0  0  0  0  0  0
  191.5090  177.3580  142.1150 C   0  0  0  0  0  2  0  0  0  0  0  0
  190.7180  176.6600  141.1990 O   0  0  0  0  0  0  0  0  0  0  0  0
  190.9980  177.2540  139.9680 C   0  0  0  0  0  2  0  0  0  0  0  0
  190.6670  176.2920  138.8220 C   0  0  0  0  0  2  0  0  0  0  0  0
  191.7660  176.0800  137.8680 N   0  0  0  0  0  0  0  0  0  0  0  0
  193.0130  176.5840  138.4250 C   0  0  0  0  0  1  0  0  0  0  0  0
  191.9300  174.6600  137.5850 C   0  0  0  0  0  1  0  0  0  0  0  0
  1 13  1  0  0  0  0
  2  1  2  0  0  0  0
  2 18  1  0  0  0  0
  4  7  1  0  0  0  0
  4  1  1  0  0  0  0
  5  8  1  0  0  0  0
  6  3  1  0  0  0  0
  7 14  1  0  0  0  0
  8  7  2  0  0  0  0
  9 18  1  0  0  0  0
  9 10  1  0  0  0  0
 11 17  1  0  0  0  0
 11  2  1  0  0  0  0
 12 16  1  0  0  0  0
 12  5  2  0  0  0  0
 13 14  1  0  0  0  0
 13  3  2  0  0  0  0
 15  9  2  0  0  0  0
 16  4  2  0  0  0  0
 17 19  1  6  0  0  0
 17 15  1  0  0  0  0
 18  6  2  0  0  0  0
 20 19  1  0  0  0  0
 21 20  1  0  0  0  0
 22 21  1  0  0  0  0
 23 24  1  0  0  0  0
 23 22  1  0  0  0  0
 25 23  1  0  0  0  0
M  END
>  <MODEL>
2

>  <REMARK>
 VINA RESULT:      -8.9      1.208      1.681
  Name = 
  5 active torsions:
  status: ('A' for Active; 'I' for Inactive)
    1  A    between atoms: N_2  and  C_21
    2  A    between atoms: C_6  and  O_15
    3  A    between atoms: C_6  and  C_23
    4  A    between atoms: O_15  and  C_25
    5  A    between atoms: C_21  and  C_25
                            x       y       z     vdW  Elec       q    Type
                         _______ _______ _______ _____ _____    ______ ____

>  <TORSDO>
F 5

$$$$
=
 OpenBabel11052412453D

 25 28  0  0  1  0  0  0  0  0999 V2000
  186.0970  178.4790  142.4470 C   0  0  0  0  0  0  0  0  0  0  0  0
  187.3760  178.3320  141.8740 C   0  0  0  0  0  0  0  0  0  0  0  0
  185.1450  178.8390  140.2430 C   0  0  0  0  0  3  0  0  0  0  0  0
  185.7190  178.4290  143.8030 C   0  0  0  0  0  0  0  0  0  0  0  0
  184.5930  178.4050  146.3650 C   0  0  0  0  0  3  0  0  0  0  0  0
  186.3800  178.6640  139.7000 N   0  0  0  0  0  0  0  0  0  0  0  0
  184.3550  178.6470  143.9920 C   0  0  0  0  0  0  0  0  0  0  0  0
  183.7700  178.6420  145.2550 C   0  0  0  0  0  3  0  0  0  0  0  0
  188.7770  178.1090  139.8010 C   0  0  0  0  0  0  0  0  0  0  0  0
  189.0230  178.5780  138.4090 C   0  0  0  0  0  1  0  0  0  0  0  0
  188.8670  178.1250  142.8670 S   0  0  0  0  0  0  0  0  0  0  0  0
  185.9710  178.1800  146.1940 C   0  0  0  0  0  3  0  0  0  0  0  0
  185.0050  178.7350  141.6200 C   0  0  0  0  0  0  0  0  0  0  0  0
  183.5870  178.9030  142.5160 S   0  0  0  0  0  0  0  0  0  0  0  0
  189.7020  177.4220  140.4040 N   0  0  0  0  0  0  0  0  0  0  0  0
  186.5400  178.1910  144.9110 C   0  0  0  0  0  3  0  0  0  0  0  0
  189.5280  176.8570  141.7410 C   0  0  1  0  0  3  0  0  0  0  0  0
  187.4850  178.4020  140.4630 C   0  0  0  0  0  0  0  0  0  0  0  0
  190.8490  176.3070  142.2610 C   0  0  0  0  0  2  0  0  0  0  0  0
  190.6480  175.5460  143.4150 O   0  0  0  0  0  0  0  0  0  0  0  0
  191.7760  175.7930  144.1990 C   0  0  0  0  0  2  0  0  0  0  0  0
  191.6000  177.0910  144.9950 C   0  0  0  0  0  2  0  0  0  0  0  0
  191.6170  176.9180  146.4550 N   0  0  0  0  0  0  0  0  0  0  0  0
  190.2570  176.9300  146.9740 C   0  0  0  0  0  1  0  0  0  0  0  0
  192.2330  175.6460  146.8110 C   0  0  0  0  0  1  0  0  0  0  0  0
  1  4  1  0  0  0  0
  2  1  1  0  0  0  0
  2 11  1  0  0  0  0
  3 13  1  0  0  0  0
  4  7  2  0  0  0  0
  4 16  1  0  0  0  0
  6  3  2  0  0  0  0
  6 18  1  0  0  0  0
  7  8  1  0  0  0  0
  8  5  2  0  0  0  0
  9 15  2  0  0  0  0
  9 18  1  0  0  0  0
 10  9  1  0  0  0  0
 12  5  1  0  0  0  0
 13  1  2  0  0  0  0
 13 14  1  0  0  0  0
 14  7  1  0  0  0  0
 15 17  1  0  0  0  0
 16 12  2  0  0  0  0
 17 19  1  1  0  0  0
 17 11  1  0  0  0  0
 18  2  2  0  0  0  0
 19 20  1  0  0  0  0
 20 21  1  0  0  0  0
 21 22  1  0  0  0  0
 22 23  1  0  0  0  0
 23 25  1  0  0  0  0
 23 24  1  0  0  0  0
M  END
>  <MODEL>
3

>  <REMARK>
 VINA RESULT:      -8.5      1.779      5.466
  Name = 
  5 active torsions:
  status: ('A' for Active; 'I' for Inactive)
    1  A    between atoms: N_2  and  C_21
    2  A    between atoms: C_6  and  O_15
    3  A    between atoms: C_6  and  C_23
    4  A    between atoms: O_15  and  C_25
    5  A    between atoms: C_21  and  C_25
                            x       y       z     vdW  Elec       q    Type
                         _______ _______ _______ _____ _____    ______ ____

>  <TORSDO>
F 5

$$$$
=
 OpenBabel11052412453D

 25 28  0  0  1  0  0  0  0  0999 V2000
  189.3310  177.4560  144.1990 C   0  0  0  0  0  0  0  0  0  0  0  0
  188.5720  177.5250  143.0140 C   0  0  0  0  0  0  0  0  0  0  0  0
  191.3500  177.1220  142.8950 C   0  0  0  0  0  3  0  0  0  0  0  0
  188.8980  177.5440  145.5380 C   0  0  0  0  0  0  0  0  0  0  0  0
  188.4300  177.6620  148.2940 C   0  0  0  0  0  3  0  0  0  0  0  0
  190.6110  177.2210  141.7570 N   0  0  0  0  0  0  0  0  0  0  0  0
  189.9420  177.4050  146.4520 C   0  0  0  0  0  0  0  0  0  0  0  0
  189.7360  177.4580  147.8280 C   0  0  0  0  0  3  0  0  0  0  0  0
  188.5330  177.6440  140.5050 C   0  0  0  0  0  0  0  0  0  0  0  0
  189.1110  177.1440  139.2270 C   0  0  0  0  0  1  0  0  0  0  0  0
  186.7740  177.6600  143.0180 S   0  0  0  0  0  0  0  0  0  0  0  0
  187.3650  177.8080  147.3870 C   0  0  0  0  0  3  0  0  0  0  0  0
  190.7070  177.2510  144.1170 C   0  0  0  0  0  0  0  0  0  0  0  0
  191.4050  177.1740  145.6500 S   0  0  0  0  0  0  0  0  0  0  0  0
  187.4020  178.2860  140.4730 N   0  0  0  0  0  0  0  0  0  0  0  0
  187.5950  177.7500  146.0030 C   0  0  0  0  0  3  0  0  0  0  0  0
  186.7910  178.8760  141.6630 C   0  0  1  0  0  3  0  0  0  0  0  0
  189.2590  177.4310  141.7780 C   0  0  0  0  0  0  0  0  0  0  0  0
  185.3810  179.3570  141.3500 C   0  0  0  0  0  2  0  0  0  0  0  0
  185.1830  179.4480  139.9700 O   0  0  0  0  0  0  0  0  0  0  0  0
  183.8200  179.2050  139.7940 C   0  0  0  0  0  2  0  0  0  0  0  0
  183.2600  178.4150  140.9820 C   0  0  0  0  0  2  0  0  0  0  0  0
  181.7950  178.4580  141.1070 N   0  0  0  0  0  0  0  0  0  0  0  0
  181.4230  178.8990  142.4430 C   0  0  0  0  0  1  0  0  0  0  0  0
  181.2280  179.3890  140.1410 C   0  0  0  0  0  1  0  0  0  0  0  0
  1  4  1  0  0  0  0
  2 11  1  0  0  0  0
  2  1  1  0  0  0  0
  3 13  1  0  0  0  0
  4 16  2  0  0  0  0
  4  7  1  0  0  0  0
  6 18  1  0  0  0  0
  6  3  2  0  0  0  0
  7  8  2  0  0  0  0
  8  5  1  0  0  0  0
  9 18  1  0  0  0  0
 10  9  1  0  0  0  0
 12  5  2  0  0  0  0
 13  1  2  0  0  0  0
 13 14  1  0  0  0  0
 14  7  1  0  0  0  0
 15  9  2  0  0  0  0
 15 17  1  0  0  0  0
 16 12  1  0  0  0  0
 17 19  1  6  0  0  0
 17 11  1  0  0  0  0
 18  2  2  0  0  0  0
 20 19  1  0  0  0  0
 21 20  1  0  0  0  0
 21 22  1  0  0  0  0
 22 23  1  0  0  0  0
 23 24  1  0  0  0  0
 25 23  1  0  0  0  0
M  END
>  <MODEL>
4

>  <REMARK>
 VINA RESULT:      -8.2      2.844      5.985
  Name = 
  5 active torsions:
  status: ('A' for Active; 'I' for Inactive)
    1  A    between atoms: N_2  and  C_21
    2  A    between atoms: C_6  and  O_15
    3  A    between atoms: C_6  and  C_23
    4  A    between atoms: O_15  and  C_25
    5  A    between atoms: C_21  and  C_25
                            x       y       z     vdW  Elec       q    Type
                         _______ _______ _______ _____ _____    ______ ____

>  <TORSDO>
F 5

$$$$
=
 OpenBabel11052412453D

 25 28  0  0  1  0  0  0  0  0999 V2000
  189.3620  177.4470  144.1970 C   0  0  0  0  0  0  0  0  0  0  0  0
  188.6100  177.5250  143.0070 C   0  0  0  0  0  0  0  0  0  0  0  0
  191.3900  177.1400  142.9000 C   0  0  0  0  0  3  0  0  0  0  0  0
  188.9220  177.5170  145.5330 C   0  0  0  0  0  0  0  0  0  0  0  0
  188.4370  177.6000  148.2880 C   0  0  0  0  0  3  0  0  0  0  0  0
  190.6570  177.2480  141.7590 N   0  0  0  0  0  0  0  0  0  0  0  0
  189.9610  177.3730  146.4510 C   0  0  0  0  0  0  0  0  0  0  0  0
  189.7470  177.4090  147.8270 C   0  0  0  0  0  3  0  0  0  0  0  0
  188.5840  177.6720  140.5000 C   0  0  0  0  0  0  0  0  0  0  0  0
  189.1720  177.1910  139.2190 C   0  0  0  0  0  1  0  0  0  0  0  0
  186.8100  177.6500  143.0030 S   0  0  0  0  0  0  0  0  0  0  0  0
  187.3760  177.7500  147.3760 C   0  0  0  0  0  3  0  0  0  0  0  0
  190.7400  177.2510  144.1200 C   0  0  0  0  0  0  0  0  0  0  0  0
  191.4290  177.1600  145.6560 S   0  0  0  0  0  0  0  0  0  0  0  0
  187.4500  178.3080  140.4690 N   0  0  0  0  0  0  0  0  0  0  0  0
  187.6140  177.7090  145.9940 C   0  0  0  0  0  3  0  0  0  0  0  0
  186.8280  178.8810  141.6620 C   0  0  1  0  0  3  0  0  0  0  0  0
  189.3040  177.4490  141.7750 C   0  0  0  0  0  0  0  0  0  0  0  0
  185.4170  179.3580  141.3470 C   0  0  0  0  0  2  0  0  0  0  0  0
  185.2160  179.4320  139.9660 O   0  0  0  0  0  0  0  0  0  0  0  0
  183.8540  179.1780  139.7960 C   0  0  0  0  0  2  0  0  0  0  0  0
  183.5460  177.7040  140.0820 C   0  0  0  0  0  2  0  0  0  0  0  0
  183.1290  176.9290  138.9050 N   0  0  0  0  0  0  0  0  0  0  0  0
  182.2010  175.8800  139.3020 C   0  0  0  0  0  1  0  0  0  0  0  0
  182.4610  177.7890  137.9370 C   0  0  0  0  0  1  0  0  0  0  0  0
  1  4  1  0  0  0  0
  2  1  1  0  0  0  0
  3 13  1  0  0  0  0
  4 16  2  0  0  0  0
  4  7  1  0  0  0  0
  6 18  1  0  0  0  0
  6  3  2  0  0  0  0
  7  8  2  0  0  0  0
  8  5  1  0  0  0  0
  9 18  1  0  0  0  0
 10  9  1  0  0  0  0
 11  2  1  0  0  0  0
 12  5  2  0  0  0  0
 13  1  2  0  0  0  0
 13 14  1  0  0  0  0
 14  7  1  0  0  0  0
 15  9  2  0  0  0  0
 15 17  1  0  0  0  0
 16 12  1  0  0  0  0
 17 19  1  6  0  0  0
 17 11  1  0  0  0  0
 18  2  2  0  0  0  0
 20 19  1  0  0  0  0
 21 20  1  0  0  0  0
 21 22  1  0  0  0  0
 23 24  1  0  0  0  0
 23 22  1  0  0  0  0
 25 23  1  0  0  0  0
M  END
>  <MODEL>
5

>  <REMARK>
 VINA RESULT:      -8.0      2.925      5.771
  Name = 
  5 active torsions:
  status: ('A' for Active; 'I' for Inactive)
    1  A    between atoms: N_2  and  C_21
    2  A    between atoms: C_6  and  O_15
    3  A    between atoms: C_6  and  C_23
    4  A    between atoms: O_15  and  C_25
    5  A    between atoms: C_21  and  C_25
                            x       y       z     vdW  Elec       q    Type
                         _______ _______ _______ _____ _____    ______ ____

>  <TORSDO>
F 5

$$$$
=
 OpenBabel11052412453D

 25 28  0  0  1  0  0  0  0  0999 V2000
  186.4750  178.1420  144.7180 C   0  0  0  0  0  0  0  0  0  0  0  0
  185.4610  178.5520  143.8300 C   0  0  0  0  0  0  0  0  0  0  0  0
  184.9080  178.2530  146.5680 C   0  0  0  0  0  3  0  0  0  0  0  0
  187.8280  177.8520  144.4500 C   0  0  0  0  0  0  0  0  0  0  0  0
  190.5470  177.2050  144.3160 C   0  0  0  0  0  3  0  0  0  0  0  0
  183.9300  178.6170  145.6950 N   0  0  0  0  0  0  0  0  0  0  0  0
  188.5410  177.5010  145.5950 C   0  0  0  0  0  0  0  0  0  0  0  0
  189.8950  177.1760  145.5560 C   0  0  0  0  0  3  0  0  0  0  0  0
  183.0280  179.0450  143.4440 C   0  0  0  0  0  0  0  0  0  0  0  0
  181.7860  179.6700  143.9770 C   0  0  0  0  0  1  0  0  0  0  0  0
  185.7730  178.8790  142.0840 S   0  0  0  0  0  0  0  0  0  0  0  0
  189.8430  177.5540  143.1490 C   0  0  0  0  0  3  0  0  0  0  0  0
  186.1800  178.0040  146.0730 C   0  0  0  0  0  0  0  0  0  0  0  0
  187.5420  177.5370  146.9500 S   0  0  0  0  0  0  0  0  0  0  0  0
  183.0840  178.7380  142.1820 N   0  0  0  0  0  0  0  0  0  0  0  0
  188.4790  177.8790  143.2110 C   0  0  0  0  0  3  0  0  0  0  0  0
  184.2290  178.0570  141.5800 C   0  0  1  0  0  3  0  0  0  0  0  0
  184.1610  178.7590  144.3540 C   0  0  0  0  0  0  0  0  0  0  0  0
  184.0970  178.0370  140.0630 C   0  0  0  0  0  2  0  0  0  0  0  0
  185.0160  178.9100  139.4750 O   0  0  0  0  0  0  0  0  0  0  0  0
  185.4640  178.2340  138.3390 C   0  0  0  0  0  2  0  0  0  0  0  0
  186.9960  178.2010  138.3070 C   0  0  0  0  0  2  0  0  0  0  0  0
  187.5980  178.9310  137.1820 N   0  0  0  0  0  0  0  0  0  0  0  0
  189.0420  179.0020  137.3500 C   0  0  0  0  0  1  0  0  0  0  0  0
  187.3150  178.2550  135.9230 C   0  0  0  0  0  1  0  0  0  0  0  0
  1 13  2  0  0  0  0
  2 18  2  0  0  0  0
  2  1  1  0  0  0  0
  4  1  1  0  0  0  0
  4  7  1  0  0  0  0
  5  8  1  0  0  0  0
  6  3  2  0  0  0  0
  7 14  1  0  0  0  0
  8  7  2  0  0  0  0
  9 10  1  0  0  0  0
  9 18  1  0  0  0  0
 11  2  1  0  0  0  0
 12 16  1  0  0  0  0
 12  5  2  0  0  0  0
 13  3  1  0  0  0  0
 13 14  1  0  0  0  0
 15  9  2  0  0  0  0
 16  4  2  0  0  0  0
 17 19  1  6  0  0  0
 17 11  1  0  0  0  0
 17 15  1  0  0  0  0
 18  6  1  0  0  0  0
 20 19  1  0  0  0  0
 21 20  1  0  0  0  0
 22 21  1  0  0  0  0
 23 24  1  0  0  0  0
 23 22  1  0  0  0  0
 25 23  1  0  0  0  0
M  END
>  <MODEL>
6

>  <REMARK>
 VINA RESULT:      -7.3      2.950      5.526
  Name = 
  5 active torsions:
  status: ('A' for Active; 'I' for Inactive)
    1  A    between atoms: N_2  and  C_21
    2  A    between atoms: C_6  and  O_15
    3  A    between atoms: C_6  and  C_23
    4  A    between atoms: O_15  and  C_25
    5  A    between atoms: C_21  and  C_25
                            x       y       z     vdW  Elec       q    Type
                         _______ _______ _______ _____ _____    ______ ____

>  <TORSDO>
F 5

$$$$
=
 OpenBabel11052412453D

 25 28  0  0  1  0  0  0  0  0999 V2000
  185.9360  178.4030  143.5940 C   0  0  0  0  0  0  0  0  0  0  0  0
  186.1220  178.6540  142.2200 C   0  0  0  0  0  0  0  0  0  0  0  0
  183.5430  178.7140  143.3310 C   0  0  0  0  0  3  0  0  0  0  0  0
  186.8970  178.1240  144.5850 C   0  0  0  0  0  0  0  0  0  0  0  0
  188.4940  177.5560  146.8120 C   0  0  0  0  0  3  0  0  0  0  0  0
  183.7330  178.9230  142.0000 N   0  0  0  0  0  0  0  0  0  0  0  0
  186.3350  177.9560  145.8500 C   0  0  0  0  0  0  0  0  0  0  0  0
  187.1060  177.6750  146.9740 C   0  0  0  0  0  3  0  0  0  0  0  0
  185.0990  179.0100  139.9540 C   0  0  0  0  0  0  0  0  0  0  0  0
  184.0160  179.6600  139.1660 C   0  0  0  0  0  1  0  0  0  0  0  0
  187.7570  178.7500  141.4630 S   0  0  0  0  0  0  0  0  0  0  0  0
  189.0790  177.7180  145.5430 C   0  0  0  0  0  3  0  0  0  0  0  0
  184.6480  178.4430  144.1250 C   0  0  0  0  0  0  0  0  0  0  0  0
  184.6630  178.1440  145.7840 S   0  0  0  0  0  0  0  0  0  0  0  0
  186.1330  178.5350  139.3240 N   0  0  0  0  0  0  0  0  0  0  0  0
  188.2820  178.0030  144.4230 C   0  0  0  0  0  3  0  0  0  0  0  0
  187.2130  177.8160  139.9990 C   0  0  1  0  0  3  0  0  0  0  0  0
  184.9740  178.8880  141.4240 C   0  0  0  0  0  0  0  0  0  0  0  0
  188.3750  177.5850  139.0420 C   0  0  0  0  0  2  0  0  0  0  0  0
  189.5390  178.1900  139.5230 O   0  0  0  0  0  0  0  0  0  0  0  0
  190.5060  177.1840  139.4670 C   0  0  0  0  0  2  0  0  0  0  0  0
  191.4830  177.3170  140.6400 C   0  0  0  0  0  2  0  0  0  0  0  0
  190.8450  177.3490  141.9640 N   0  0  0  0  0  0  0  0  0  0  0  0
  190.3440  176.0260  142.3080 C   0  0  0  0  0  1  0  0  0  0  0  0
  191.8030  177.7550  142.9840 C   0  0  0  0  0  1  0  0  0  0  0  0
  1 13  2  0  0  0  0
  1  4  1  0  0  0  0
  2  1  1  0  0  0  0
  3 13  1  0  0  0  0
  4  7  1  0  0  0  0
  5  8  1  0  0  0  0
  6  3  2  0  0  0  0
  7  8  2  0  0  0  0
  9 18  1  0  0  0  0
 10  9  1  0  0  0  0
 11  2  1  0  0  0  0
 12  5  2  0  0  0  0
 13 14  1  0  0  0  0
 14  7  1  0  0  0  0
 15  9  2  0  0  0  0
 15 17  1  0  0  0  0
 16  4  2  0  0  0  0
 16 12  1  0  0  0  0
 17 19  1  6  0  0  0
 17 11  1  0  0  0  0
 18  6  1  0  0  0  0
 18  2  2  0  0  0  0
 19 20  1  0  0  0  0
 21 20  1  0  0  0  0
 21 22  1  0  0  0  0
 22 23  1  0  0  0  0
 23 24  1  0  0  0  0
 23 25  1  0  0  0  0
M  END
>  <MODEL>
7

>  <REMARK>
 VINA RESULT:      -7.2      2.196      5.276
  Name = 
  5 active torsions:
  status: ('A' for Active; 'I' for Inactive)
    1  A    between atoms: N_2  and  C_21
    2  A    between atoms: C_6  and  O_15
    3  A    between atoms: C_6  and  C_23
    4  A    between atoms: O_15  and  C_25
    5  A    between atoms: C_21  and  C_25
                            x       y       z     vdW  Elec       q    Type
                         _______ _______ _______ _____ _____    ______ ____

>  <TORSDO>
F 5

$$$$
=
 OpenBabel11052412453D

 25 28  0  0  1  0  0  0  0  0999 V2000
  185.8000  178.2770  144.4490 C   0  0  0  0  0  0  0  0  0  0  0  0
  187.0540  177.8700  144.9480 C   0  0  0  0  0  0  0  0  0  0  0  0
  184.9520  178.4570  146.7160 C   0  0  0  0  0  3  0  0  0  0  0  0
  185.3830  178.4350  143.1130 C   0  0  0  0  0  0  0  0  0  0  0  0
  184.1950  178.8500  140.6140 C   0  0  0  0  0  3  0  0  0  0  0  0
  186.1760  178.0940  147.1850 N   0  0  0  0  0  0  0  0  0  0  0  0
  184.0500  178.8300  143.0070 C   0  0  0  0  0  0  0  0  0  0  0  0
  183.4350  179.0420  141.7760 C   0  0  0  0  0  3  0  0  0  0  0  0
  188.5610  177.5370  146.9290 C   0  0  0  0  0  0  0  0  0  0  0  0
  188.6800  177.0620  148.3360 C   0  0  0  0  0  1  0  0  0  0  0  0
  188.4090  177.3630  143.8710 S   0  0  0  0  0  0  0  0  0  0  0  0
  185.5420  178.4540  140.7010 C   0  0  0  0  0  3  0  0  0  0  0  0
  184.7700  178.5590  145.3450 C   0  0  0  0  0  0  0  0  0  0  0  0
  183.3580  178.9950  144.5320 S   0  0  0  0  0  0  0  0  0  0  0  0
  189.6460  177.7240  146.2370 N   0  0  0  0  0  0  0  0  0  0  0  0
  186.1420  178.2450  141.9520 C   0  0  0  0  0  3  0  0  0  0  0  0
  189.6370  178.2560  144.8750 C   0  0  1  0  0  3  0  0  0  0  0  0
  187.2250  177.8140  146.3530 C   0  0  0  0  0  0  0  0  0  0  0  0
  191.0230  178.1490  144.2550 C   0  0  0  0  0  2  0  0  0  0  0  0
  190.9800  178.4510  142.8920 O   0  0  0  0  0  0  0  0  0  0  0  0
  191.2790  177.2440  142.2560 C   0  0  0  0  0  2  0  0  0  0  0  0
  191.3910  177.4510  140.7420 C   0  0  0  0  0  2  0  0  0  0  0  0
  190.5170  176.5820  139.9410 N   0  0  0  0  0  0  0  0  0  0  0  0
  189.1700  177.1320  139.9000 C   0  0  0  0  0  1  0  0  0  0  0  0
  191.0120  176.4770  138.5750 C   0  0  0  0  0  1  0  0  0  0  0  0
  1  2  2  0  0  0  0
  1 13  1  0  0  0  0
  2 18  1  0  0  0  0
  3  6  1  0  0  0  0
  4  1  1  0  0  0  0
  5 12  2  0  0  0  0
  5  8  1  0  0  0  0
  7  4  1  0  0  0  0
  7 14  1  0  0  0  0
  8  7  2  0  0  0  0
  9 10  1  0  0  0  0
 11 17  1  0  0  0  0
 11  2  1  0  0  0  0
 12 16  1  0  0  0  0
 13  3  2  0  0  0  0
 14 13  1  0  0  0  0
 15  9  2  0  0  0  0
 16  4  2  0  0  0  0
 17 19  1  6  0  0  0
 17 15  1  0  0  0  0
 18  9  1  0  0  0  0
 18  6  2  0  0  0  0
 20 19  1  0  0  0  0
 21 20  1  0  0  0  0
 22 21  1  0  0  0  0
 23 22  1  0  0  0  0
 24 23  1  0  0  0  0
 25 23  1  0  0  0  0
M  END
>  <MODEL>
8

>  <REMARK>
 VINA RESULT:      -7.2      1.661      2.499
  Name = 
  5 active torsions:
  status: ('A' for Active; 'I' for Inactive)
    1  A    between atoms: N_2  and  C_21
    2  A    between atoms: C_6  and  O_15
    3  A    between atoms: C_6  and  C_23
    4  A    between atoms: O_15  and  C_25
    5  A    between atoms: C_21  and  C_25
                            x       y       z     vdW  Elec       q    Type
                         _______ _______ _______ _____ _____    ______ ____

>  <TORSDO>
F 5

$$$$
=
 OpenBabel11052412453D

 25 28  0  0  1  0  0  0  0  0999 V2000
  187.7550  177.7470  142.5920 C   0  0  0  0  0  0  0  0  0  0  0  0
  186.4460  178.2620  142.6670 C   0  0  0  0  0  0  0  0  0  0  0  0
  187.7220  177.2980  144.9770 C   0  0  0  0  0  3  0  0  0  0  0  0
  188.6060  177.6410  141.4730 C   0  0  0  0  0  0  0  0  0  0  0  0
  190.5670  177.2750  139.5110 C   0  0  0  0  0  3  0  0  0  0  0  0
  186.4460  177.7690  145.0300 N   0  0  0  0  0  0  0  0  0  0  0  0
  189.8510  177.0980  141.7920 C   0  0  0  0  0  0  0  0  0  0  0  0
  190.8440  176.9070  140.8360 C   0  0  0  0  0  3  0  0  0  0  0  0
  184.3660  178.6230  144.0280 C   0  0  0  0  0  0  0  0  0  0  0  0
  183.7940  179.0020  145.3500 C   0  0  0  0  0  1  0  0  0  0  0  0
  185.6120  179.0060  141.2510 S   0  0  0  0  0  0  0  0  0  0  0  0
  189.3170  177.8210  139.1700 C   0  0  0  0  0  3  0  0  0  0  0  0
  188.3710  177.2780  143.7510 C   0  0  0  0  0  0  0  0  0  0  0  0
  189.9370  176.7390  143.4350 S   0  0  0  0  0  0  0  0  0  0  0  0
  183.5870  178.6190  142.9860 N   0  0  0  0  0  0  0  0  0  0  0  0
  188.3300  178.0060  140.1510 C   0  0  0  0  0  3  0  0  0  0  0  0
  184.0360  178.1940  141.6610 C   0  0  1  0  0  3  0  0  0  0  0  0
  185.7900  178.2330  143.9220 C   0  0  0  0  0  0  0  0  0  0  0  0
  182.9760  178.5110  140.6150 C   0  0  0  0  0  2  0  0  0  0  0  0
  181.9210  177.5970  140.6870 O   0  0  0  0  0  0  0  0  0  0  0  0
  180.7700  178.3850  140.6360 C   0  0  0  0  0  2  0  0  0  0  0  0
  179.7260  177.8710  141.6340 C   0  0  0  0  0  2  0  0  0  0  0  0
  179.4670  178.7750  142.7650 N   0  0  0  0  0  0  0  0  0  0  0  0
  180.0620  178.2360  143.9790 C   0  0  0  0  0  1  0  0  0  0  0  0
  180.0470  180.0870  142.5120 C   0  0  0  0  0  1  0  0  0  0  0  0
  1  2  2  0  0  0  0
  1 13  1  0  0  0  0
  2 18  1  0  0  0  0
  3  6  1  0  0  0  0
  4  7  1  0  0  0  0
  4  1  1  0  0  0  0
  5  8  1  0  0  0  0
  7 14  1  0  0  0  0
  8  7  2  0  0  0  0
  9 10  1  0  0  0  0
 11 17  1  0  0  0  0
 11  2  1  0  0  0  0
 12  5  2  0  0  0  0
 12 16  1  0  0  0  0
 13  3  2  0  0  0  0
 14 13  1  0  0  0  0
 15  9  2  0  0  0  0
 16  4  2  0  0  0  0
 17 19  1  6  0  0  0
 17 15  1  0  0  0  0
 18  9  1  0  0  0  0
 18  6  2  0  0  0  0
 19 20  1  0  0  0  0
 21 20  1  0  0  0  0
 21 22  1  0  0  0  0
 22 23  1  0  0  0  0
 23 24  1  0  0  0  0
 25 23  1  0  0  0  0
M  END
>  <MODEL>
9

>  <REMARK>
 VINA RESULT:      -7.1      3.910      7.219
  Name = 
  5 active torsions:
  status: ('A' for Active; 'I' for Inactive)
    1  A    between atoms: N_2  and  C_21
    2  A    between atoms: C_6  and  O_15
    3  A    between atoms: C_6  and  C_23
    4  A    between atoms: O_15  and  C_25
    5  A    between atoms: C_21  and  C_25
                            x       y       z     vdW  Elec       q    Type
                         _______ _______ _______ _____ _____    ______ ____

>  <TORSDO>
F 5

$$$$
