=
 OpenBabel11122414133D

 28 32  0  0  1  0  0  0  0  0999 V2000
  160.9040  208.2710  155.8260 C   0  0  0  0  0  0  0  0  0  0  0  0
  156.0710  209.7090  154.4650 O   0  0  0  0  0  0  0  0  0  0  0  0
  162.6310  210.6500  152.2210 C   0  0  0  0  0  1  0  0  0  0  0  0
  162.0290  210.4640  157.1540 C   0  0  0  0  0  3  0  0  0  0  0  0
  160.2910  211.4390  152.0670 C   0  0  2  0  0  3  0  0  0  0  0  0
  160.3600  207.1950  155.1200 O   0  0  0  0  0  0  0  0  0  0  0  0
  156.4910  210.3370  156.8030 O   0  0  0  0  0  0  0  0  0  0  0  0
  156.6440  210.7630  155.3690 S   0  0  0  0  0  0  0  0  0  0  0  0
  156.7190  213.3030  154.4350 C   0  0  2  0  0  3  0  0  0  0  0  0
  158.3810  211.0300  154.9940 C   0  0  2  0  0  3  0  0  0  0  0  0
  162.4350  206.0860  152.2140 C   0  0  0  0  0  1  0  0  0  0  0  0
  159.3760  209.5930  153.3140 C   0  0  1  0  0  3  0  0  0  0  0  0
  157.4790  212.6280  153.2990 C   0  0  0  0  0  2  0  0  0  0  0  0
  155.7890  212.3010  155.1010 C   0  0  0  0  0  2  0  0  0  0  0  0
  161.8140  207.0830  153.1690 C   0  0  1  0  0  3  0  0  0  0  0  0
  160.2970  209.5350  155.7200 C   0  0  0  0  0  0  0  0  0  0  0  0
  161.1920  210.2310  151.9800 C   0  0  2  0  0  3  0  0  0  0  0  0
  155.9020  214.4530  153.8850 C   0  0  0  0  0  1  0  0  0  0  0  0
  160.8130  207.9530  152.4150 C   0  0  0  0  0  2  0  0  0  0  0  0
  160.8780  210.6310  156.3820 C   0  0  0  0  0  3  0  0  0  0  0  0
  162.0650  208.1110  156.5940 C   0  0  0  0  0  3  0  0  0  0  0  0
  162.6220  209.2040  157.2610 C   0  0  0  0  0  3  0  0  0  0  0  0
  161.1600  206.3250  154.3270 C   0  0  0  0  0  2  0  0  0  0  0  0
  159.0250  210.9420  152.7180 C   0  0  1  0  0  3  0  0  0  0  0  0
  160.7750  209.2860  153.0070 N   0  0  2  0  0  0  0  0  0  0  0  0
  158.6280  211.8510  153.7890 N   0  0  2  0  0  0  0  0  0  0  0  0
  160.0080  211.9140  150.7870 O   0  0  0  0  0  1  0  0  0  0  0  0
  159.0910  209.7010  154.8150 C   0  0  1  0  0  3  0  0  0  0  0  0
  1 21  1  0  0  0  0
  2  8  2  0  0  0  0
  4 22  1  0  0  0  0
  5 27  1  6  0  0  0
  5 24  1  0  0  0  0
  6  1  1  0  0  0  0
  8  7  2  0  0  0  0
  9 18  1  6  0  0  0
  9 14  1  0  0  0  0
 10  8  1  6  0  0  0
 11 15  1  0  0  0  0
 12 28  1  0  0  0  0
 13 26  1  0  0  0  0
 13  9  1  0  0  0  0
 14  8  1  0  0  0  0
 15 23  1  0  0  0  0
 16  1  2  0  0  0  0
 16 20  1  0  0  0  0
 17  5  1  0  0  0  0
 17  3  1  0  0  0  0
 17 25  1  0  0  0  0
 19 25  1  0  0  0  0
 19 15  1  0  0  0  0
 20  4  2  0  0  0  0
 21 22  2  0  0  0  0
 23  6  1  0  0  0  0
 24 12  1  0  0  0  0
 24 26  1  0  0  0  0
 25 12  1  0  0  0  0
 26 10  1  0  0  0  0
 28 10  1  0  0  0  0
 28 16  1  0  0  0  0
M  END
>  <MODEL>
1

>  <REMARK>
 VINA RESULT:      -1.1      0.000      0.000
  Name = 
  0 active torsions:
  status: ('A' for Active; 'I' for Inactive)
                            x       y       z     vdW  Elec       q    Type
                         _______ _______ _______ _____ _____    ______ ____

>  <TORSDO>
F 0

$$$$
=
 OpenBabel11122414133D

 28 32  0  0  1  0  0  0  0  0999 V2000
  162.0260  209.8650  152.8760 C   0  0  0  0  0  0  0  0  0  0  0  0
  160.8360  214.4490  150.6750 O   0  0  0  0  0  0  0  0  0  0  0  0
  158.1470  210.0820  155.4350 C   0  0  0  0  0  1  0  0  0  0  0  0
  160.4540  207.9430  151.5830 C   0  0  0  0  0  3  0  0  0  0  0  0
  157.6980  212.0170  153.9610 C   0  0  2  0  0  3  0  0  0  0  0  0
  162.7740  210.8300  153.5550 O   0  0  0  0  0  0  0  0  0  0  0  0
  161.1870  212.7600  148.9260 O   0  0  0  0  0  0  0  0  0  0  0  0
  160.1860  213.3540  149.8770 S   0  0  0  0  0  0  0  0  0  0  0  0
  157.5040  213.4860  149.5290 C   0  0  2  0  0  3  0  0  0  0  0  0
  159.5500  212.0780  150.9690 C   0  0  2  0  0  3  0  0  0  0  0  0
  162.2730  210.8050  157.2610 C   0  0  0  0  0  1  0  0  0  0  0  0
  160.0030  212.3320  153.3380 C   0  0  1  0  0  3  0  0  0  0  0  0
  157.5320  213.5490  151.0530 C   0  0  0  0  0  2  0  0  0  0  0  0
  158.8110  214.0240  148.9660 C   0  0  0  0  0  2  0  0  0  0  0  0
  161.8610  210.6860  155.8090 C   0  0  1  0  0  3  0  0  0  0  0  0
  160.9310  210.2730  152.0950 C   0  0  0  0  0  0  0  0  0  0  0  0
  158.6230  211.4610  155.0180 C   0  0  2  0  0  3  0  0  0  0  0  0
  156.3550  214.3230  149.0090 C   0  0  0  0  0  1  0  0  0  0  0  0
  160.9030  211.8200  155.4570 C   0  0  0  0  0  2  0  0  0  0  0  0
  160.1410  209.2980  151.4610 C   0  0  0  0  0  3  0  0  0  0  0  0
  162.3300  208.5030  153.0040 C   0  0  0  0  0  3  0  0  0  0  0  0
  161.5480  207.5450  152.3540 C   0  0  0  0  0  3  0  0  0  0  0  0
  163.1140  210.6980  154.9300 C   0  0  0  0  0  2  0  0  0  0  0  0
  158.5910  212.7810  153.0160 C   0  0  1  0  0  3  0  0  0  0  0  0
  159.9570  211.3700  154.4410 N   0  0  2  0  0  0  0  0  0  0  0  0
  158.2750  212.4220  151.6370 N   0  0  2  0  0  0  0  0  0  0  0  0
  156.7770  212.8860  154.5460 O   0  0  0  0  0  1  0  0  0  0  0  0
  160.5710  211.7460  152.0410 C   0  0  1  0  0  3  0  0  0  0  0  0
  1 21  1  0  0  0  0
  1  6  1  0  0  0  0
  4 22  1  0  0  0  0
  5 27  1  1  0  0  0
  5 17  1  0  0  0  0
  6 23  1  0  0  0  0
  7  8  2  0  0  0  0
  8  2  2  0  0  0  0
  9 18  1  6  0  0  0
  9 13  1  0  0  0  0
 10  8  1  1  0  0  0
 10 26  1  0  0  0  0
 10 28  1  0  0  0  0
 12 25  1  0  0  0  0
 13 26  1  0  0  0  0
 14  9  1  0  0  0  0
 14  8  1  0  0  0  0
 15 11  1  0  0  0  0
 16  1  2  0  0  0  0
 17  3  1  0  0  0  0
 19 15  1  0  0  0  0
 20  4  2  0  0  0  0
 20 16  1  0  0  0  0
 22 21  2  0  0  0  0
 23 15  1  0  0  0  0
 24 12  1  0  0  0  0
 24  5  1  0  0  0  0
 25 17  1  0  0  0  0
 25 19  1  0  0  0  0
 26 24  1  0  0  0  0
 28 16  1  0  0  0  0
 28 12  1  0  0  0  0
M  END
>  <MODEL>
2

>  <REMARK>
 VINA RESULT:      -0.2      2.567      5.053
  Name = 
  0 active torsions:
  status: ('A' for Active; 'I' for Inactive)
                            x       y       z     vdW  Elec       q    Type
                         _______ _______ _______ _____ _____    ______ ____

>  <TORSDO>
F 0

$$$$
=
 OpenBabel11122414133D

 28 32  0  0  1  0  0  0  0  0999 V2000
  161.2530  207.6470  156.1450 C   0  0  0  0  0  0  0  0  0  0  0  0
  163.6700  206.4540  151.6720 O   0  0  0  0  0  0  0  0  0  0  0  0
  159.4980  211.4800  154.1800 C   0  0  0  0  0  1  0  0  0  0  0  0
  158.5810  206.8770  155.8220 C   0  0  0  0  0  3  0  0  0  0  0  0
  160.4550  210.4540  152.1430 C   0  0  2  0  0  3  0  0  0  0  0  0
  162.5740  208.0760  156.2890 O   0  0  0  0  0  0  0  0  0  0  0  0
  162.2750  204.5620  152.3850 O   0  0  0  0  0  0  0  0  0  0  0  0
  162.2880  205.8660  151.6380 S   0  0  0  0  0  0  0  0  0  0  0  0
  160.6870  206.5610  149.5680 C   0  0  2  0  0  3  0  0  0  0  0  0
  161.1080  207.0040  152.3730 C   0  0  2  0  0  3  0  0  0  0  0  0
  162.9030  211.6830  157.2200 C   0  0  0  0  0  1  0  0  0  0  0  0
  161.9990  209.0420  153.3370 C   0  0  1  0  0  3  0  0  0  0  0  0
  161.0220  207.9620  150.0680 C   0  0  0  0  0  2  0  0  0  0  0  0
  161.8020  205.5980  149.9470 C   0  0  0  0  0  2  0  0  0  0  0  0
  162.3030  210.4870  156.5130 C   0  0  1  0  0  3  0  0  0  0  0  0
  160.7600  207.3710  154.8590 C   0  0  0  0  0  0  0  0  0  0  0  0
  160.7790  211.0350  153.4980 C   0  0  2  0  0  3  0  0  0  0  0  0
  160.5370  206.5830  148.0620 C   0  0  0  0  0  1  0  0  0  0  0  0
  162.5290  210.6180  155.0100 C   0  0  0  0  0  2  0  0  0  0  0  0
  159.4130  206.9970  154.7070 C   0  0  0  0  0  3  0  0  0  0  0  0
  160.4120  207.5340  157.2610 C   0  0  0  0  0  3  0  0  0  0  0  0
  159.0800  207.1450  157.0990 C   0  0  0  0  0  3  0  0  0  0  0  0
  162.9240  209.2070  157.0790 C   0  0  0  0  0  2  0  0  0  0  0  0
  161.4240  209.3130  151.9610 C   0  0  1  0  0  3  0  0  0  0  0  0
  161.4240  209.9960  154.2890 N   0  0  2  0  0  0  0  0  0  0  0  0
  160.7110  208.1270  151.4960 N   0  0  2  0  0  0  0  0  0  0  0  0
  160.6650  211.4140  151.1530 O   0  0  0  0  0  1  0  0  0  0  0  0
  161.6650  207.5820  153.6600 C   0  0  1  0  0  3  0  0  0  0  0  0
  1  6  1  0  0  0  0
  1 21  1  0  0  0  0
  4 22  1  0  0  0  0
  5 27  1  6  0  0  0
  5 17  1  0  0  0  0
  6 23  1  0  0  0  0
  8  2  2  0  0  0  0
  8  7  2  0  0  0  0
  9 18  1  6  0  0  0
  9 14  1  0  0  0  0
  9 13  1  0  0  0  0
 10  8  1  6  0  0  0
 10 28  1  0  0  0  0
 12 28  1  0  0  0  0
 12 25  1  0  0  0  0
 13 26  1  0  0  0  0
 14  8  1  0  0  0  0
 15 23  1  0  0  0  0
 15 11  1  0  0  0  0
 16  1  2  0  0  0  0
 17  3  1  0  0  0  0
 17 25  1  0  0  0  0
 19 15  1  0  0  0  0
 20 16  1  0  0  0  0
 20  4  2  0  0  0  0
 22 21  2  0  0  0  0
 24  5  1  0  0  0  0
 24 12  1  0  0  0  0
 25 19  1  0  0  0  0
 26 24  1  0  0  0  0
 26 10  1  0  0  0  0
 28 16  1  0  0  0  0
M  END
>  <MODEL>
3

>  <REMARK>
 VINA RESULT:      -0.0      3.017      5.622
  Name = 
  0 active torsions:
  status: ('A' for Active; 'I' for Inactive)
                            x       y       z     vdW  Elec       q    Type
                         _______ _______ _______ _____ _____    ______ ____

>  <TORSDO>
F 0

$$$$
=
 OpenBabel11122414133D

 28 32  0  0  1  0  0  0  0  0999 V2000
  162.0440  209.9280  153.1580 C   0  0  0  0  0  0  0  0  0  0  0  0
  159.5880  214.4530  152.2840 O   0  0  0  0  0  0  0  0  0  0  0  0
  159.4570  209.2540  156.9640 C   0  0  0  0  0  1  0  0  0  0  0  0
  160.3220  207.9140  152.2540 C   0  0  0  0  0  3  0  0  0  0  0  0
  158.2580  211.2270  156.0760 C   0  0  2  0  0  3  0  0  0  0  0  0
  162.8820  210.9290  153.6540 O   0  0  0  0  0  0  0  0  0  0  0  0
  159.4240  213.0270  150.2900 O   0  0  0  0  0  0  0  0  0  0  0  0
  158.8080  213.3530  151.6220 S   0  0  0  0  0  0  0  0  0  0  0  0
  156.2040  213.0790  152.3100 C   0  0  2  0  0  3  0  0  0  0  0  0
  158.7920  211.8870  152.6610 C   0  0  2  0  0  3  0  0  0  0  0  0
  163.8570  210.4540  157.2330 C   0  0  0  0  0  1  0  0  0  0  0  0
  160.0920  211.9740  154.7050 C   0  0  1  0  0  3  0  0  0  0  0  0
  156.8110  212.9940  153.7060 C   0  0  0  0  0  2  0  0  0  0  0  0
  157.1220  213.8770  151.3960 C   0  0  0  0  0  2  0  0  0  0  0  0
  162.9330  210.4140  156.0350 C   0  0  1  0  0  3  0  0  0  0  0  0
  160.6940  210.2280  152.9070 C   0  0  0  0  0  0  0  0  0  0  0  0
  159.5750  210.7270  156.6190 C   0  0  2  0  0  3  0  0  0  0  0  0
  154.8570  213.7660  152.3840 C   0  0  0  0  0  1  0  0  0  0  0  0
  161.7920  211.4070  156.2390 C   0  0  0  0  0  2  0  0  0  0  0  0
  159.8360  209.2060  152.4650 C   0  0  0  0  0  3  0  0  0  0  0  0
  162.5250  208.6270  152.9540 C   0  0  0  0  0  3  0  0  0  0  0  0
  161.6670  207.6250  152.4970 C   0  0  0  0  0  3  0  0  0  0  0  0
  163.7400  210.7190  154.7700 C   0  0  0  0  0  2  0  0  0  0  0  0
  158.6250  212.2170  154.9990 C   0  0  1  0  0  3  0  0  0  0  0  0
  160.5850  210.9120  155.5860 N   0  0  2  0  0  0  0  0  0  0  0  0
  157.8430  211.9510  153.7950 N   0  0  2  0  0  0  0  0  0  0  0  0
  157.5430  211.8710  157.0850 O   0  0  0  0  0  1  0  0  0  0  0  0
  160.1780  211.6200  153.2170 C   0  0  1  0  0  3  0  0  0  0  0  0
  1  6  1  0  0  0  0
  4 20  2  0  0  0  0
  4 22  1  0  0  0  0
  5 17  1  0  0  0  0
  5 27  1  1  0  0  0
  6 23  1  0  0  0  0
  7  8  2  0  0  0  0
  8  2  2  0  0  0  0
  9 18  1  1  0  0  0
  9 13  1  0  0  0  0
 10  8  1  1  0  0  0
 10 28  1  0  0  0  0
 10 26  1  0  0  0  0
 12 24  1  0  0  0  0
 12 25  1  0  0  0  0
 13 26  1  0  0  0  0
 14  8  1  0  0  0  0
 14  9  1  0  0  0  0
 15 19  1  0  0  0  0
 15 11  1  0  0  0  0
 16  1  2  0  0  0  0
 16 28  1  0  0  0  0
 17  3  1  0  0  0  0
 20 16  1  0  0  0  0
 21  1  1  0  0  0  0
 22 21  2  0  0  0  0
 23 15  1  0  0  0  0
 24  5  1  0  0  0  0
 25 19  1  0  0  0  0
 25 17  1  0  0  0  0
 26 24  1  0  0  0  0
 28 12  1  0  0  0  0
M  END
>  <MODEL>
4

>  <REMARK>
 VINA RESULT:       1.5      2.117      4.507
  Name = 
  0 active torsions:
  status: ('A' for Active; 'I' for Inactive)
                            x       y       z     vdW  Elec       q    Type
                         _______ _______ _______ _____ _____    ______ ____

>  <TORSDO>
F 0

$$$$
