=
 OpenBabel11122412383D

 30 35  0  0  1  0  0  0  0  0999 V2000
  161.7310  208.5320  151.4880 C   0  0  0  0  0  0  0  0  0  0  0  0
  161.2040  209.0980  153.8440 C   0  0  0  0  0  0  0  0  0  0  0  0
  160.8840  204.4580  152.2860 N   0  0  0  0  0  0  0  0  0  0  0  0
  162.0050  207.4960  150.3810 C   0  0  0  0  0  0  0  0  0  0  0  0
  161.9150  209.9880  151.1070 C   0  0  0  0  0  2  0  0  0  0  0  0
  161.3510  209.7860  147.6070 O   0  0  0  0  0  0  0  0  0  0  0  0
  162.1360  205.8890  147.8440 C   0  0  1  0  0  3  0  0  0  0  0  0
  161.7200  209.3350  148.7270 C   0  0  0  0  0  0  0  0  0  0  0  0
  161.8370  204.7970  148.7540 N   0  0  0  0  0  0  0  0  0  0  0  0
  161.1030  203.9520  151.1120 C   0  0  0  0  0  0  0  0  0  0  0  0
  162.4480  210.2150  149.6970 C   0  0  1  0  0  3  0  0  0  0  0  0
  161.5040  207.9580  149.0690 N   0  0  0  0  0  0  0  0  0  0  0  0
  160.8300  208.6700  155.0790 N   0  0  0  0  0  0  0  0  0  0  0  0
  161.7610  203.5170  148.0800 C   0  0  0  0  0  2  0  0  0  0  0  0
  162.0790  205.2920  146.4510 C   0  0  0  0  0  2  0  0  0  0  0  0
  161.4630  210.4920  153.6930 N   0  0  0  0  0  1  0  0  0  0  0  0
  161.1430  205.8520  152.1330 C   0  0  2  0  0  3  0  0  0  0  0  0
  160.5760  207.3710  155.3610 C   0  0  0  0  0  3  0  0  0  0  0  0
  161.3510  208.1640  152.7670 C   0  0  0  0  0  0  0  0  0  0  0  0
  161.5120  206.1420  150.7840 C   0  0  0  0  0  0  0  0  0  0  0  0
  160.9490  202.4970  150.8370 C   0  0  0  0  0  1  0  0  0  0  0  0
  161.5220  204.9820  150.1440 C   0  0  0  0  0  0  0  0  0  0  0  0
  162.1530  203.7840  146.6390 C   0  0  0  0  0  2  0  0  0  0  0  0
  159.6790  206.6180  148.0790 C   0  0  0  0  0  1  0  0  0  0  0  0
  160.6920  206.4140  154.3670 C   0  0  0  0  0  3  0  0  0  0  0  0
  161.0720  206.7910  153.0770 C   0  0  0  0  0  0  0  0  0  0  0  0
  161.1390  207.0470  147.9790 C   0  0  2  0  0  3  0  0  0  0  0  0
  162.3040  211.5630  149.3560 O   0  0  0  0  0  0  0  0  0  0  0  0
  160.6250  213.2450  149.4360 C   0  0  0  0  0  1  0  0  0  0  0  0
  161.1950  212.0000  150.0830 C   0  0  0  0  0  2  0  0  0  0  0  0
  1 19  1  0  0  0  0
  2 13  1  0  0  0  0
  4 20  1  0  0  0  0
  4  1  2  0  0  0  0
  5  1  1  0  0  0  0
  6  8  2  0  0  0  0
  7 15  1  6  0  0  0
  7 27  1  0  0  0  0
  7  9  1  0  0  0  0
  8 12  1  0  0  0  0
  8 11  1  0  0  0  0
  9 22  1  0  0  0  0
 10  3  2  0  0  0  0
 11 28  1  6  0  0  0
 11  5  1  0  0  0  0
 12  4  1  0  0  0  0
 13 18  2  0  0  0  0
 14  9  1  0  0  0  0
 15 23  1  0  0  0  0
 16  2  1  0  0  0  0
 17 20  1  1  0  0  0
 17  3  1  0  0  0  0
 17 26  1  0  0  0  0
 19 26  1  0  0  0  0
 19  2  2  0  0  0  0
 21 10  1  0  0  0  0
 22 20  2  0  0  0  0
 22 10  1  0  0  0  0
 23 14  1  0  0  0  0
 25 18  1  0  0  0  0
 26 25  2  0  0  0  0
 27 24  1  1  0  0  0
 27 12  1  0  0  0  0
 28 30  1  0  0  0  0
 29 30  1  0  0  0  0
M  END
>  <MODEL>
1

>  <REMARK>
 VINA RESULT:      -7.0      0.000      0.000
  Name = 
  2 active torsions:
  status: ('A' for Active; 'I' for Inactive)
    1  A    between atoms: C_11  and  O_28
    2  A    between atoms: O_28  and  C_30
                            x       y       z     vdW  Elec       q    Type
                         _______ _______ _______ _____ _____    ______ ____

>  <TORSDO>
F 2

$$$$
=
 OpenBabel11122412383D

 30 35  0  0  1  0  0  0  0  0999 V2000
  160.9190  205.4820  149.7030 C   0  0  0  0  0  0  0  0  0  0  0  0
  161.1780  203.0170  149.6190 C   0  0  0  0  0  0  0  0  0  0  0  0
  160.9720  205.3340  153.9370 N   0  0  0  0  0  0  0  0  0  0  0  0
  160.6480  206.7810  150.4850 C   0  0  2  0  0  3  0  0  0  0  0  0
  161.0300  205.6140  148.1970 C   0  0  0  0  0  2  0  0  0  0  0  0
  162.0630  209.0020  147.9490 O   0  0  0  0  0  0  0  0  0  0  0  0
  160.6350  209.5630  151.6240 C   0  0  1  0  0  3  0  0  0  0  0  0
  161.4660  208.0330  148.4950 C   0  0  0  0  0  0  0  0  0  0  0  0
  160.6170  208.8350  152.8810 N   0  0  0  0  0  0  0  0  0  0  0  0
  160.8500  206.5970  154.2040 C   0  0  0  0  0  0  0  0  0  0  0  0
  160.7540  207.0130  147.6580 C   0  0  1  0  0  3  0  0  0  0  0  0
  161.4050  207.9210  149.9230 N   0  0  0  0  0  0  0  0  0  0  0  0
  161.2920  201.8430  150.2960 N   0  0  0  0  0  0  0  0  0  0  0  0
  160.5840  209.7150  154.0310 C   0  0  0  0  0  2  0  0  0  0  0  0
  160.8000  211.0240  151.9960 C   0  0  0  0  0  2  0  0  0  0  0  0
  161.1720  202.9450  148.1950 N   0  0  0  0  0  1  0  0  0  0  0  0
  160.9660  205.2630  152.5130 C   0  0  0  0  0  0  0  0  0  0  0  0
  161.2890  201.7720  151.6470 C   0  0  0  0  0  3  0  0  0  0  0  0
  161.0420  204.2540  150.3300 C   0  0  0  0  0  0  0  0  0  0  0  0
  160.8510  206.5730  151.9520 C   0  0  0  0  0  0  0  0  0  0  0  0
  160.8070  207.1100  155.6020 C   0  0  0  0  0  1  0  0  0  0  0  0
  160.7490  207.4080  152.9770 C   0  0  0  0  0  0  0  0  0  0  0  0
  160.4570  211.1200  153.4750 C   0  0  0  0  0  2  0  0  0  0  0  0
  163.1150  208.9140  151.4050 C   0  0  0  0  0  1  0  0  0  0  0  0
  161.1690  202.9280  152.4000 C   0  0  0  0  0  3  0  0  0  0  0  0
  161.0480  204.1650  151.7620 C   0  0  0  0  0  0  0  0  0  0  0  0
  161.7750  209.1060  150.7050 C   0  0  2  0  0  3  0  0  0  0  0  0
  161.1620  207.0870  146.3230 O   0  0  0  0  0  0  0  0  0  0  0  0
  161.1360  205.4690  144.5810 C   0  0  0  0  0  1  0  0  0  0  0  0
  160.3350  206.1900  145.6440 C   0  0  0  0  0  2  0  0  0  0  0  0
  1 19  2  0  0  0  0
  2 13  2  0  0  0  0
  2 19  1  0  0  0  0
  3 10  2  0  0  0  0
  4  1  1  6  0  0  0
  4 20  1  0  0  0  0
  5  1  1  0  0  0  0
  6  8  2  0  0  0  0
  7 15  1  1  0  0  0
  7  9  1  0  0  0  0
  8 12  1  0  0  0  0
  9 22  1  0  0  0  0
  9 14  1  0  0  0  0
 10 21  1  0  0  0  0
 11 28  1  6  0  0  0
 11  5  1  0  0  0  0
 11  8  1  0  0  0  0
 12  4  1  0  0  0  0
 12 27  1  0  0  0  0
 13 18  1  0  0  0  0
 15 23  1  0  0  0  0
 16  2  1  0  0  0  0
 17  3  1  0  0  0  0
 18 25  2  0  0  0  0
 19 26  1  0  0  0  0
 20 17  1  0  0  0  0
 20 22  2  0  0  0  0
 22 10  1  0  0  0  0
 23 14  1  0  0  0  0
 26 25  1  0  0  0  0
 26 17  2  0  0  0  0
 27 24  1  1  0  0  0
 27  7  1  0  0  0  0
 29 30  1  0  0  0  0
 30 28  1  0  0  0  0
M  END
>  <MODEL>
2

>  <REMARK>
 VINA RESULT:      -6.6      1.598      5.680
  Name = 
  2 active torsions:
  status: ('A' for Active; 'I' for Inactive)
    1  A    between atoms: C_11  and  O_28
    2  A    between atoms: O_28  and  C_30
                            x       y       z     vdW  Elec       q    Type
                         _______ _______ _______ _____ _____    ______ ____

>  <TORSDO>
F 2

$$$$
=
 OpenBabel11122412383D

 30 35  0  0  1  0  0  0  0  0999 V2000
  161.0530  208.2560  151.5670 C   0  0  0  0  0  0  0  0  0  0  0  0
  161.6440  210.5640  150.8790 C   0  0  0  0  0  0  0  0  0  0  0  0
  161.8840  206.8840  147.6450 N   0  0  0  0  0  0  0  0  0  0  0  0
  160.7430  206.7860  151.2220 C   0  0  2  0  0  3  0  0  0  0  0  0
  160.8730  208.6600  153.0160 C   0  0  0  0  0  2  0  0  0  0  0  0
  161.3480  205.5160  154.5980 O   0  0  0  0  0  0  0  0  0  0  0  0
  160.5350  203.7900  151.1020 C   0  0  1  0  0  3  0  0  0  0  0  0
  161.0030  206.2690  153.6440 C   0  0  0  0  0  0  0  0  0  0  0  0
  160.8470  204.0230  149.7030 N   0  0  0  0  0  0  0  0  0  0  0  0
  161.6320  205.6210  147.7940 C   0  0  0  0  0  0  0  0  0  0  0  0
  160.3070  207.5670  153.9170 C   0  0  1  0  0  3  0  0  0  0  0  0
  161.2160  205.8700  152.2830 N   0  0  0  0  0  0  0  0  0  0  0  0
  162.0450  211.4090  149.8910 N   0  0  0  0  0  0  0  0  0  0  0  0
  160.8960  202.7960  148.9330 C   0  0  0  0  0  2  0  0  0  0  0  0
  160.5530  202.2840  151.2840 C   0  0  0  0  0  2  0  0  0  0  0  0
  161.3930  211.1380  152.1600 N   0  0  0  0  0  1  0  0  0  0  0  0
  161.6340  207.4570  148.9260 C   0  0  0  0  0  0  0  0  0  0  0  0
  162.2940  210.9950  148.6280 C   0  0  0  0  0  3  0  0  0  0  0  0
  161.4620  209.1680  150.6090 C   0  0  0  0  0  0  0  0  0  0  0  0
  161.2340  206.4440  149.8520 C   0  0  0  0  0  0  0  0  0  0  0  0
  161.7670  204.6500  146.6730 C   0  0  0  0  0  1  0  0  0  0  0  0
  161.1980  205.3090  149.1680 C   0  0  0  0  0  0  0  0  0  0  0  0
  160.4700  201.6930  149.8840 C   0  0  0  0  0  2  0  0  0  0  0  0
  163.0030  204.2950  151.6270 C   0  0  0  0  0  1  0  0  0  0  0  0
  162.1450  209.6590  148.2960 C   0  0  0  0  0  3  0  0  0  0  0  0
  161.7360  208.7420  149.2670 C   0  0  0  0  0  0  0  0  0  0  0  0
  161.5450  204.4600  152.0410 C   0  0  2  0  0  3  0  0  0  0  0  0
  160.4540  207.9440  155.2550 O   0  0  0  0  0  0  0  0  0  0  0  0
  162.0350  209.1820  156.5280 C   0  0  0  0  0  1  0  0  0  0  0  0
  161.2770  209.0720  155.2220 C   0  0  0  0  0  2  0  0  0  0  0  0
  1  5  1  0  0  0  0
  2 16  1  0  0  0  0
  3 10  2  0  0  0  0
  3 17  1  0  0  0  0
  4 20  1  6  0  0  0
  4  1  1  0  0  0  0
  4 12  1  0  0  0  0
  5 11  1  0  0  0  0
  7 15  1  6  0  0  0
  7 27  1  0  0  0  0
  8 11  1  0  0  0  0
  8  6  2  0  0  0  0
  9  7  1  0  0  0  0
 10 22  1  0  0  0  0
 11 28  1  1  0  0  0
 12  8  1  0  0  0  0
 13  2  2  0  0  0  0
 14  9  1  0  0  0  0
 14 23  1  0  0  0  0
 17 26  2  0  0  0  0
 17 20  1  0  0  0  0
 18 13  1  0  0  0  0
 19  2  1  0  0  0  0
 19  1  2  0  0  0  0
 21 10  1  0  0  0  0
 22  9  1  0  0  0  0
 22 20  2  0  0  0  0
 23 15  1  0  0  0  0
 25 18  2  0  0  0  0
 25 26  1  0  0  0  0
 26 19  1  0  0  0  0
 27 24  1  6  0  0  0
 27 12  1  0  0  0  0
 30 28  1  0  0  0  0
 30 29  1  0  0  0  0
M  END
>  <MODEL>
3

>  <REMARK>
 VINA RESULT:      -6.4      2.422      4.840
  Name = 
  2 active torsions:
  status: ('A' for Active; 'I' for Inactive)
    1  A    between atoms: C_11  and  O_28
    2  A    between atoms: O_28  and  C_30
                            x       y       z     vdW  Elec       q    Type
                         _______ _______ _______ _____ _____    ______ ____

>  <TORSDO>
F 2

$$$$
=
 OpenBabel11122412383D

 30 35  0  0  1  0  0  0  0  0999 V2000
  160.1620  212.1290  151.6260 C   0  0  0  0  0  0  0  0  0  0  0  0
  160.8320  213.2450  149.5150 C   0  0  0  0  0  0  0  0  0  0  0  0
  162.3610  208.6880  150.4950 N   0  0  0  0  0  0  0  0  0  0  0  0
  160.0670  210.8740  152.5140 C   0  0  2  0  0  3  0  0  0  0  0  0
  159.4740  213.3750  152.1470 C   0  0  0  0  0  2  0  0  0  0  0  0
  159.5410  212.7070  155.6330 O   0  0  0  0  0  0  0  0  0  0  0  0
  160.0700  208.8610  154.7460 C   0  0  1  0  0  3  0  0  0  0  0  0
  159.5060  212.3820  154.4140 C   0  0  0  0  0  0  0  0  0  0  0  0
  160.8310  208.0870  153.7810 N   0  0  0  0  0  0  0  0  0  0  0  0
  162.1390  207.9350  151.5270 C   0  0  0  0  0  0  0  0  0  0  0  0
  158.6910  213.1780  153.4400 C   0  0  1  0  0  3  0  0  0  0  0  0
  160.1940  211.2120  153.9480 N   0  0  0  0  0  0  0  0  0  0  0  0
  161.5030  213.1750  148.3340 N   0  0  0  0  0  0  0  0  0  0  0  0
  161.2050  206.7820  154.2870 C   0  0  0  0  0  2  0  0  0  0  0  0
  160.1030  208.0610  156.0340 C   0  0  0  0  0  2  0  0  0  0  0  0
  160.1270  214.4530  149.7890 N   0  0  0  0  0  1  0  0  0  0  0  0
  161.6560  209.8960  150.7710 C   0  0  0  0  0  0  0  0  0  0  0  0
  162.1920  212.0790  147.9440 C   0  0  0  0  0  3  0  0  0  0  0  0
  160.8270  212.1270  150.4110 C   0  0  0  0  0  0  0  0  0  0  0  0
  161.0160  209.8160  152.0470 C   0  0  0  0  0  0  0  0  0  0  0  0
  162.7010  206.5600  151.6390 C   0  0  0  0  0  1  0  0  0  0  0  0
  161.2770  208.6050  152.5180 C   0  0  0  0  0  0  0  0  0  0  0  0
  160.5370  206.6560  155.6440 C   0  0  0  0  0  2  0  0  0  0  0  0
  162.1780  210.2940  155.1000 C   0  0  0  0  0  1  0  0  0  0  0  0
  162.2360  210.9630  148.7630 C   0  0  0  0  0  3  0  0  0  0  0  0
  161.5670  210.9730  149.9890 C   0  0  0  0  0  0  0  0  0  0  0  0
  160.6600  210.2600  154.9620 C   0  0  2  0  0  3  0  0  0  0  0  0
  158.3510  214.4240  153.9730 O   0  0  0  0  0  0  0  0  0  0  0  0
  156.4300  214.3100  155.3700 C   0  0  0  0  0  1  0  0  0  0  0  0
  156.9550  214.4530  153.9570 C   0  0  0  0  0  2  0  0  0  0  0  0
  1  5  1  0  0  0  0
  2 16  1  0  0  0  0
  2 19  1  0  0  0  0
  3 17  1  0  0  0  0
  3 10  2  0  0  0  0
  4  1  1  6  0  0  0
  4 12  1  0  0  0  0
  5 11  1  0  0  0  0
  7 27  1  0  0  0  0
  7 15  1  1  0  0  0
  8  6  2  0  0  0  0
  9 14  1  0  0  0  0
  9  7  1  0  0  0  0
 10 21  1  0  0  0  0
 10 22  1  0  0  0  0
 11 28  1  1  0  0  0
 11  8  1  0  0  0  0
 12  8  1  0  0  0  0
 12 27  1  0  0  0  0
 13  2  2  0  0  0  0
 14 23  1  0  0  0  0
 17 20  1  0  0  0  0
 18 13  1  0  0  0  0
 18 25  2  0  0  0  0
 19  1  2  0  0  0  0
 20  4  1  0  0  0  0
 20 22  2  0  0  0  0
 22  9  1  0  0  0  0
 23 15  1  0  0  0  0
 25 26  1  0  0  0  0
 26 19  1  0  0  0  0
 26 17  2  0  0  0  0
 27 24  1  6  0  0  0
 30 28  1  0  0  0  0
 30 29  1  0  0  0  0
M  END
>  <MODEL>
4

>  <REMARK>
 VINA RESULT:      -5.8      3.389      6.557
  Name = 
  2 active torsions:
  status: ('A' for Active; 'I' for Inactive)
    1  A    between atoms: C_11  and  O_28
    2  A    between atoms: O_28  and  C_30
                            x       y       z     vdW  Elec       q    Type
                         _______ _______ _______ _____ _____    ______ ____

>  <TORSDO>
F 2

$$$$
=
 OpenBabel11122412383D

 30 35  0  0  1  0  0  0  0  0999 V2000
  161.7430  207.9790  150.9100 C   0  0  0  0  0  0  0  0  0  0  0  0
  161.2960  208.1750  153.3410 C   0  0  0  0  0  0  0  0  0  0  0  0
  160.9920  203.8140  151.1170 N   0  0  0  0  0  0  0  0  0  0  0  0
  161.9910  207.1250  149.6510 C   0  0  0  0  0  0  0  0  0  0  0  0
  161.8890  209.4780  150.7460 C   0  0  0  0  0  2  0  0  0  0  0  0
  161.1960  209.7910  147.2770 O   0  0  0  0  0  0  0  0  0  0  0  0
  162.0510  205.9190  146.8990 C   0  0  1  0  0  3  0  0  0  0  0  0
  161.6140  209.1850  148.3030 C   0  0  0  0  0  0  0  0  0  0  0  0
  161.8040  204.6980  147.6440 N   0  0  0  0  0  0  0  0  0  0  0  0
  161.1740  203.4940  149.8730 C   0  0  0  0  0  0  0  0  0  0  0  0
  162.3640  209.9260  149.3670 C   0  0  1  0  0  3  0  0  0  0  0  0
  161.4330  207.7680  148.4420 N   0  0  0  0  0  0  0  0  0  0  0  0
  160.9770  207.5580  154.5110 N   0  0  0  0  0  0  0  0  0  0  0  0
  161.7230  203.5310  146.7880 C   0  0  0  0  0  2  0  0  0  0  0  0
  161.9500  205.5370  145.4340 C   0  0  0  0  0  2  0  0  0  0  0  0
  161.5270  209.5810  153.3920 N   0  0  0  0  0  1  0  0  0  0  0  0
  161.2220  205.2200  151.1660 C   0  0  2  0  0  3  0  0  0  0  0  0
  160.7550  206.2270  154.6030 C   0  0  0  0  0  3  0  0  0  0  0  0
  161.4170  207.4150  152.1320 C   0  0  0  0  0  0  0  0  0  0  0  0
  161.5350  205.7170  149.8630 C   0  0  0  0  0  0  0  0  0  0  0  0
  161.0320  202.0930  149.3870 C   0  0  0  0  0  1  0  0  0  0  0  0
  161.5390  204.6650  149.0560 C   0  0  0  0  0  0  0  0  0  0  0  0
  162.0550  204.0200  145.3900 C   0  0  0  0  0  2  0  0  0  0  0  0
  159.5930  206.5520  147.3260 C   0  0  0  0  0  1  0  0  0  0  0  0
  160.8470  205.4320  153.4730 C   0  0  0  0  0  3  0  0  0  0  0  0
  161.1720  206.0060  152.2420 C   0  0  0  0  0  0  0  0  0  0  0  0
  161.0410  207.0220  147.2400 C   0  0  2  0  0  3  0  0  0  0  0  0
  162.1850  211.3060  149.2380 O   0  0  0  0  0  0  0  0  0  0  0  0
  162.5790  213.0020  147.6200 C   0  0  0  0  0  1  0  0  0  0  0  0
  163.0430  211.6840  148.2030 C   0  0  0  0  0  2  0  0  0  0  0  0
  1 19  1  0  0  0  0
  2 16  1  0  0  0  0
  2 13  1  0  0  0  0
  3 17  1  0  0  0  0
  4 20  1  0  0  0  0
  4  1  2  0  0  0  0
  5  1  1  0  0  0  0
  6  8  2  0  0  0  0
  7 15  1  6  0  0  0
  7 27  1  0  0  0  0
  7  9  1  0  0  0  0
  8 12  1  0  0  0  0
  8 11  1  0  0  0  0
  9 22  1  0  0  0  0
 10  3  2  0  0  0  0
 11 28  1  6  0  0  0
 11  5  1  0  0  0  0
 12  4  1  0  0  0  0
 13 18  2  0  0  0  0
 14  9  1  0  0  0  0
 17 20  1  1  0  0  0
 17 26  1  0  0  0  0
 19 26  1  0  0  0  0
 19  2  2  0  0  0  0
 21 10  1  0  0  0  0
 22 20  2  0  0  0  0
 22 10  1  0  0  0  0
 23 15  1  0  0  0  0
 23 14  1  0  0  0  0
 25 18  1  0  0  0  0
 26 25  2  0  0  0  0
 27 24  1  1  0  0  0
 27 12  1  0  0  0  0
 29 30  1  0  0  0  0
 30 28  1  0  0  0  0
M  END
>  <MODEL>
5

>  <REMARK>
 VINA RESULT:      -5.8      1.099      1.208
  Name = 
  2 active torsions:
  status: ('A' for Active; 'I' for Inactive)
    1  A    between atoms: C_11  and  O_28
    2  A    between atoms: O_28  and  C_30
                            x       y       z     vdW  Elec       q    Type
                         _______ _______ _______ _____ _____    ______ ____

>  <TORSDO>
F 2

$$$$
=
 OpenBabel11122412383D

 30 35  0  0  1  0  0  0  0  0999 V2000
  160.9810  204.1820  148.6380 C   0  0  0  0  0  0  0  0  0  0  0  0
  160.7920  201.8810  149.5450 C   0  0  0  0  0  0  0  0  0  0  0  0
  161.3100  205.6990  152.5810 N   0  0  0  0  0  0  0  0  0  0  0  0
  161.0020  205.7100  148.8370 C   0  0  0  0  0  0  0  0  0  0  0  0
  161.0060  203.6890  147.2060 C   0  0  0  0  0  2  0  0  0  0  0  0
  162.6040  206.4430  145.6330 O   0  0  0  0  0  0  0  0  0  0  0  0
  161.5640  208.6620  148.7730 C   0  0  1  0  0  3  0  0  0  0  0  0
  161.8850  205.8990  146.5170 C   0  0  0  0  0  0  0  0  0  0  0  0
  161.5070  208.5030  150.2150 N   0  0  0  0  0  0  0  0  0  0  0  0
  161.4340  206.9640  152.3220 C   0  0  2  0  0  3  0  0  0  0  0  0
  160.9450  204.7900  146.1520 C   0  0  1  0  0  3  0  0  0  0  0  0
  161.9070  206.3700  147.8720 N   0  0  0  0  0  0  0  0  0  0  0  0
  160.7440  201.0690  150.6350 N   0  0  0  0  0  0  0  0  0  0  0  0
  161.7140  209.7520  150.9200 C   0  0  0  0  0  2  0  0  0  0  0  0
  162.0120  210.0910  148.5320 C   0  0  0  0  0  2  0  0  0  0  0  0
  160.6720  201.2600  148.2680 N   0  0  0  0  0  1  0  0  0  0  0  0
  161.1900  205.0780  151.3030 C   0  0  0  0  0  0  0  0  0  0  0  0
  160.8250  201.5350  151.9020 C   0  0  0  0  0  3  0  0  0  0  0  0
  160.9290  203.2990  149.7040 C   0  0  0  0  0  0  0  0  0  0  0  0
  161.2700  206.0590  150.2660 C   0  0  0  0  0  0  0  0  0  0  0  0
  161.5830  207.9810  153.4000 C   0  0  0  0  0  1  0  0  0  0  0  0
  161.3910  207.2310  150.8730 C   0  0  0  0  0  0  0  0  0  0  0  0
  161.7990  210.8230  149.8490 C   0  0  0  0  0  2  0  0  0  0  0  0
  163.8680  207.5170  148.8430 C   0  0  0  0  0  1  0  0  0  0  0  0
  160.9660  202.8940  152.1310 C   0  0  0  0  0  3  0  0  0  0  0  0
  161.0220  203.7790  151.0520 C   0  0  0  0  0  0  0  0  0  0  0  0
  162.5360  207.6730  148.1180 C   0  0  2  0  0  3  0  0  0  0  0  0
  161.2630  204.2550  144.9010 O   0  0  0  0  0  0  0  0  0  0  0  0
  159.3760  202.9650  144.2460 C   0  0  0  0  0  1  0  0  0  0  0  0
  160.7340  202.9630  144.9170 C   0  0  0  0  0  2  0  0  0  0  0  0
  1  4  2  0  0  0  0
  1 19  1  0  0  0  0
  2 19  2  0  0  0  0
  2 13  1  0  0  0  0
  4 20  1  0  0  0  0
  5  1  1  0  0  0  0
  6  8  2  0  0  0  0
  7 15  1  1  0  0  0
  7  9  1  0  0  0  0
  8 12  1  0  0  0  0
  9 22  1  0  0  0  0
  9 14  1  0  0  0  0
 10  3  1  0  0  0  0
 10 21  1  1  0  0  0
 11 28  1  6  0  0  0
 11  8  1  0  0  0  0
 11  5  1  0  0  0  0
 12 27  1  0  0  0  0
 12  4  1  0  0  0  0
 13 18  2  0  0  0  0
 15 23  1  0  0  0  0
 16  2  1  0  0  0  0
 17  3  2  0  0  0  0
 18 25  1  0  0  0  0
 19 26  1  0  0  0  0
 20 22  2  0  0  0  0
 20 17  1  0  0  0  0
 22 10  1  0  0  0  0
 23 14  1  0  0  0  0
 26 17  1  0  0  0  0
 26 25  2  0  0  0  0
 27  7  1  0  0  0  0
 27 24  1  1  0  0  0
 28 30  1  0  0  0  0
 29 30  1  0  0  0  0
M  END
>  <MODEL>
6

>  <REMARK>
 VINA RESULT:      -5.4      2.146      6.054
  Name = 
  2 active torsions:
  status: ('A' for Active; 'I' for Inactive)
    1  A    between atoms: C_11  and  O_28
    2  A    between atoms: O_28  and  C_30
                            x       y       z     vdW  Elec       q    Type
                         _______ _______ _______ _____ _____    ______ ____

>  <TORSDO>
F 2

$$$$
=
 OpenBabel11122412383D

 30 35  0  0  1  0  0  0  0  0999 V2000
  161.2550  207.5410  150.7480 C   0  0  0  0  0  0  0  0  0  0  0  0
  161.5640  205.2600  149.8240 C   0  0  0  0  0  0  0  0  0  0  0  0
  160.5950  205.8860  154.5920 N   0  0  0  0  0  0  0  0  0  0  0  0
  160.8340  208.4850  151.8910 C   0  0  2  0  0  3  0  0  0  0  0  0
  161.6160  208.1980  149.4310 C   0  0  0  0  0  2  0  0  0  0  0  0
  162.6210  211.4000  150.5920 O   0  0  0  0  0  0  0  0  0  0  0  0
  160.5840  210.6730  153.9370 C   0  0  1  0  0  3  0  0  0  0  0  0
  161.9560  210.3270  150.6470 C   0  0  0  0  0  0  0  0  0  0  0  0
  160.3660  209.5450  154.8260 N   0  0  0  0  0  0  0  0  0  0  0  0
  160.4100  206.9740  155.2730 C   0  0  0  0  0  0  0  0  0  0  0  0
  161.4120  209.7090  149.3950 C   0  0  1  0  0  3  0  0  0  0  0  0
  161.6570  209.7150  151.9090 N   0  0  0  0  0  0  0  0  0  0  0  0
  161.5810  203.9180  150.0430 N   0  0  0  0  0  0  0  0  0  0  0  0
  160.1260  209.9550  156.1950 C   0  0  0  0  0  2  0  0  0  0  0  0
  160.6610  211.8950  154.8320 C   0  0  0  0  0  2  0  0  0  0  0  0
  161.8000  205.7030  148.4900 N   0  0  0  0  0  1  0  0  0  0  0  0
  160.8310  206.3300  153.2580 C   0  0  0  0  0  0  0  0  0  0  0  0
  161.3510  203.3680  151.2570 C   0  0  0  0  0  3  0  0  0  0  0  0
  161.2900  206.1660  150.9020 C   0  0  0  0  0  0  0  0  0  0  0  0
  160.7910  207.7570  153.1960 C   0  0  0  0  0  0  0  0  0  0  0  0
  160.1230  206.9540  156.7340 C   0  0  0  0  0  1  0  0  0  0  0  0
  160.5040  208.1740  154.4210 C   0  0  0  0  0  0  0  0  0  0  0  0
  160.0720  211.4710  156.1690 C   0  0  0  0  0  2  0  0  0  0  0  0
  163.0770  210.0320  153.9060 C   0  0  0  0  0  1  0  0  0  0  0  0
  161.0870  204.1830  152.3450 C   0  0  0  0  0  3  0  0  0  0  0  0
  161.0560  205.5700  152.1850 C   0  0  0  0  0  0  0  0  0  0  0  0
  161.8700  210.5240  153.1140 C   0  0  2  0  0  3  0  0  0  0  0  0
  162.0380  210.2360  148.2620 O   0  0  0  0  0  0  0  0  0  0  0  0
  162.1320  212.4830  147.4890 C   0  0  0  0  0  1  0  0  0  0  0  0
  161.2450  211.3220  147.8860 C   0  0  0  0  0  2  0  0  0  0  0  0
  1 19  2  0  0  0  0
  2 13  2  0  0  0  0
  2 19  1  0  0  0  0
  3 10  2  0  0  0  0
  4  1  1  6  0  0  0
  4 12  1  0  0  0  0
  4 20  1  0  0  0  0
  5  1  1  0  0  0  0
  6  8  2  0  0  0  0
  7  9  1  0  0  0  0
  7 15  1  1  0  0  0
  8 12  1  0  0  0  0
  9 14  1  0  0  0  0
 10 21  1  0  0  0  0
 11 28  1  6  0  0  0
 11  5  1  0  0  0  0
 11  8  1  0  0  0  0
 12 27  1  0  0  0  0
 13 18  1  0  0  0  0
 15 23  1  0  0  0  0
 16  2  1  0  0  0  0
 17  3  1  0  0  0  0
 18 25  2  0  0  0  0
 19 26  1  0  0  0  0
 20 17  1  0  0  0  0
 20 22  2  0  0  0  0
 22  9  1  0  0  0  0
 22 10  1  0  0  0  0
 23 14  1  0  0  0  0
 26 25  1  0  0  0  0
 26 17  2  0  0  0  0
 27 24  1  1  0  0  0
 27  7  1  0  0  0  0
 29 30  1  0  0  0  0
 30 28  1  0  0  0  0
M  END
>  <MODEL>
7

>  <REMARK>
 VINA RESULT:      -4.7      1.695      5.686
  Name = 
  2 active torsions:
  status: ('A' for Active; 'I' for Inactive)
    1  A    between atoms: C_11  and  O_28
    2  A    between atoms: O_28  and  C_30
                            x       y       z     vdW  Elec       q    Type
                         _______ _______ _______ _____ _____    ______ ____

>  <TORSDO>
F 2

$$$$
=
 OpenBabel11122412383D

 30 35  0  0  1  0  0  0  0  0999 V2000
  161.6640  206.1790  150.4410 C   0  0  0  0  0  0  0  0  0  0  0  0
  161.1850  205.4100  152.7490 C   0  0  0  0  0  0  0  0  0  0  0  0
  160.8060  202.2960  148.9780 N   0  0  0  0  0  0  0  0  0  0  0  0
  161.9100  205.8860  148.9480 C   0  0  0  0  0  0  0  0  0  0  0  0
  161.8500  207.6160  150.8850 C   0  0  0  0  0  2  0  0  0  0  0  0
  161.2190  209.2960  147.8200 O   0  0  0  0  0  0  0  0  0  0  0  0
  161.9830  205.8670  145.9430 C   0  0  1  0  0  3  0  0  0  0  0  0
  161.6060  208.3210  148.5240 C   0  0  0  0  0  0  0  0  0  0  0  0
  161.6940  204.4580  146.1430 N   0  0  0  0  0  0  0  0  0  0  0  0
  160.9990  202.4890  147.7100 C   0  0  0  0  0  0  0  0  0  0  0  0
  162.3580  208.5580  149.7980 C   0  0  1  0  0  3  0  0  0  0  0  0
  161.3870  206.9720  148.0900 N   0  0  0  0  0  0  0  0  0  0  0  0
  160.8310  204.3900  153.5770 N   0  0  0  0  0  0  0  0  0  0  0  0
  161.5970  203.7290  144.8950 C   0  0  0  0  0  2  0  0  0  0  0  0
  161.8960  206.0980  144.4470 C   0  0  0  0  0  2  0  0  0  0  0  0
  161.4500  206.6730  153.3530 N   0  0  0  0  0  1  0  0  0  0  0  0
  161.0710  203.5610  149.5810 C   0  0  2  0  0  3  0  0  0  0  0  0
  160.5750  203.1390  153.1340 C   0  0  0  0  0  3  0  0  0  0  0  0
  161.3060  205.1870  151.3380 C   0  0  0  0  0  0  0  0  0  0  0  0
  161.4160  204.5230  148.5830 C   0  0  0  0  0  0  0  0  0  0  0  0
  160.8300  201.4000  146.7090 C   0  0  0  0  0  1  0  0  0  0  0  0
  161.4060  203.8770  147.4250 C   0  0  0  0  0  0  0  0  0  0  0  0
  161.9640  204.7200  143.8060 C   0  0  0  0  0  2  0  0  0  0  0  0
  159.5360  206.3510  146.5760 C   0  0  0  0  0  1  0  0  0  0  0  0
  160.6650  202.8530  151.7810 C   0  0  0  0  0  3  0  0  0  0  0  0
  161.0240  203.8580  150.8800 C   0  0  0  0  0  0  0  0  0  0  0  0
  160.9960  206.7740  146.6900 C   0  0  2  0  0  3  0  0  0  0  0  0
  162.2160  209.8810  150.2260 O   0  0  0  0  0  0  0  0  0  0  0  0
  160.8480  210.7340  151.9730 C   0  0  0  0  0  1  0  0  0  0  0  0
  161.9720  209.7910  151.5980 C   0  0  0  0  0  2  0  0  0  0  0  0
  1  5  1  0  0  0  0
  1 19  1  0  0  0  0
  2 16  1  0  0  0  0
  2 13  1  0  0  0  0
  3 17  1  0  0  0  0
  4  1  2  0  0  0  0
  6  8  2  0  0  0  0
  7 15  1  6  0  0  0
  7  9  1  0  0  0  0
  7 27  1  0  0  0  0
  8 11  1  0  0  0  0
  9 22  1  0  0  0  0
 10  3  2  0  0  0  0
 11 28  1  1  0  0  0
 11  5  1  0  0  0  0
 12  8  1  0  0  0  0
 12  4  1  0  0  0  0
 14  9  1  0  0  0  0
 17 20  1  1  0  0  0
 17 26  1  0  0  0  0
 18 13  2  0  0  0  0
 19  2  2  0  0  0  0
 20  4  1  0  0  0  0
 21 10  1  0  0  0  0
 22 10  1  0  0  0  0
 22 20  2  0  0  0  0
 23 15  1  0  0  0  0
 23 14  1  0  0  0  0
 25 18  1  0  0  0  0
 26 19  1  0  0  0  0
 26 25  2  0  0  0  0
 27 24  1  1  0  0  0
 27 12  1  0  0  0  0
 28 30  1  0  0  0  0
 30 29  1  0  0  0  0
M  END
>  <MODEL>
8

>  <REMARK>
 VINA RESULT:      -4.3      1.799      3.044
  Name = 
  2 active torsions:
  status: ('A' for Active; 'I' for Inactive)
    1  A    between atoms: C_11  and  O_28
    2  A    between atoms: O_28  and  C_30
                            x       y       z     vdW  Elec       q    Type
                         _______ _______ _______ _____ _____    ______ ____

>  <TORSDO>
F 2

$$$$
