=
 OpenBabel11122413003D

 32 37  0  0  1  0  0  0  0  0999 V2000
  161.2640  206.6290  151.1340 C   0  0  0  0  0  0  0  0  0  0  0  0
  161.7840  210.5790  148.3910 C   0  0  0  0  0  3  0  0  0  0  0  0
  162.0660  211.3910  149.5910 C   0  0  0  0  0  3  0  0  0  0  0  0
  161.0650  206.8950  153.5690 C   0  0  0  0  0  0  0  0  0  0  0  0
  161.0740  207.7820  154.6390 C   0  0  0  0  0  0  0  0  0  0  0  0
  160.7950  204.4700  150.0640 C   0  0  0  0  0  0  0  0  0  0  0  0
  161.4630  206.3600  148.6650 C   0  0  0  0  0  3  0  0  0  0  0  0
  161.2680  209.7680  155.6790 N   0  0  0  0  0  0  0  0  0  0  0  0
  161.7720  209.2430  148.4520 C   0  0  0  0  0  3  0  0  0  0  0  0
  161.5350  207.1970  149.8330 N   0  0  0  0  0  0  0  0  0  0  0  0
  162.1590  208.5160  149.7190 C   0  0  2  0  0  3  0  0  0  0  0  0
  161.6320  208.8090  152.1340 C   0  0  0  0  0  0  0  0  0  0  0  0
  160.9670  208.8890  156.7370 N   0  0  0  0  0  0  0  0  0  0  0  0
  161.1250  205.0670  148.7430 C   0  0  0  0  0  0  0  0  0  0  0  0
  160.8280  207.5590  156.0960 C   0  0  0  0  0  3  0  0  0  0  0  0
  162.1180  210.8260  150.8010 C   0  0  0  0  0  3  0  0  0  0  0  0
  161.9230  209.3660  150.9440 C   0  0  0  0  0  0  0  0  0  0  0  0
  161.6000  209.6130  153.2420 N   0  0  0  0  0  2  0  0  0  0  0  0
  160.8700  205.2040  151.1760 C   0  0  0  0  0  3  0  0  0  0  0  0
  160.8240  205.6780  153.7910 O   0  0  0  0  0  0  0  0  0  0  0  0
  161.4950  211.1900  155.8630 C   0  0  0  0  0  1  0  0  0  0  0  0
  161.3310  207.4050  152.2550 C   0  0  0  0  0  0  0  0  0  0  0  0
  161.3230  209.0860  154.4550 C   0  0  0  0  0  0  0  0  0  0  0  0
  162.2940  204.0110  146.9460 O   0  0  0  0  0  0  0  0  0  0  0  0
  161.0120  204.2610  147.4810 C   0  0  1  0  0  3  0  0  0  0  0  0
  161.6850  202.9490  147.6340 C   0  0  1  0  0  3  0  0  0  0  0  0
  161.1270  201.9630  146.6250 C   0  0  0  0  0  2  0  0  0  0  0  0
  161.3540  200.5690  147.0950 C   0  0  0  0  0  0  0  0  0  0  0  0
  161.5660  200.3400  148.3120 O   0  0  0  0  0  1  0  0  0  0  0  0
  161.2950  199.5150  146.1920 O   0  0  0  0  0  0  0  0  0  0  0  0
  161.1220  202.3720  151.3300 C   0  0  0  0  0  1  0  0  0  0  0  0
  160.3860  203.0390  150.1820 C   0  0  0  0  0  2  0  0  0  0  0  0
  1 19  1  0  0  0  0
  1 22  2  0  0  0  0
  2  9  2  0  0  0  0
  2  3  1  0  0  0  0
  3 16  2  0  0  0  0
  4 20  2  0  0  0  0
  4  5  1  0  0  0  0
  5 15  1  0  0  0  0
  6 32  1  0  0  0  0
  6 19  2  0  0  0  0
  7 14  2  0  0  0  0
  7 10  1  0  0  0  0
  8 21  1  0  0  0  0
  8 13  1  0  0  0  0
 10  1  1  0  0  0  0
 11  9  1  6  0  0  0
 11 10  1  0  0  0  0
 11 17  1  0  0  0  0
 12 22  1  0  0  0  0
 12 18  1  0  0  0  0
 14  6  1  0  0  0  0
 15 13  2  0  0  0  0
 16 17  1  0  0  0  0
 17 12  2  0  0  0  0
 18 23  1  0  0  0  0
 22  4  1  0  0  0  0
 23  5  2  0  0  0  0
 23  8  1  0  0  0  0
 24 25  1  0  0  0  0
 24 26  1  0  0  0  0
 25 26  1  0  0  0  0
 25 14  1  1  0  0  0
 26 27  1  6  0  0  0
 27 28  1  0  0  0  0
 28 29  1  0  0  0  0
 30 28  2  0  0  0  0
 32 31  1  0  0  0  0
M  END
>  <MODEL>
1

>  <REMARK>
 VINA RESULT:      -9.5      0.000      0.000
  Name = 
  4 active torsions:
  status: ('A' for Active; 'I' for Inactive)
    1  A    between atoms: C_7  and  C_19
    2  A    between atoms: C_10  and  C_17
    3  A    between atoms: C_20  and  C_29
    4  A    between atoms: C_29  and  C_30
                            x       y       z     vdW  Elec       q    Type
                         _______ _______ _______ _____ _____    ______ ____

>  <TORSDO>
F 4

$$$$
=
 OpenBabel11122413003D

 32 37  0  0  1  0  0  0  0  0999 V2000
  161.7390  207.1380  149.6850 C   0  0  0  0  0  0  0  0  0  0  0  0
  160.7090  203.8460  153.0760 C   0  0  0  0  0  3  0  0  0  0  0  0
  160.7910  202.7680  152.0710 C   0  0  0  0  0  3  0  0  0  0  0  0
  161.6410  206.4750  147.3210 C   0  0  0  0  0  0  0  0  0  0  0  0
  161.4310  205.4380  146.4190 C   0  0  0  0  0  0  0  0  0  0  0  0
  161.9410  209.5020  150.3200 C   0  0  0  0  0  0  0  0  0  0  0  0
  161.8350  207.8120  152.0820 C   0  0  0  0  0  3  0  0  0  0  0  0
  161.0270  203.3290  145.7490 N   0  0  0  0  0  0  0  0  0  0  0  0
  161.1480  205.0780  152.7990 C   0  0  0  0  0  3  0  0  0  0  0  0
  161.7090  206.7820  151.0850 N   0  0  0  0  0  0  0  0  0  0  0  0
  161.8470  205.3830  151.4930 C   0  0  2  0  0  3  0  0  0  0  0  0
  161.4300  204.8020  149.1100 C   0  0  0  0  0  0  0  0  0  0  0  0
  161.1150  204.0310  144.5320 N   0  0  0  0  0  0  0  0  0  0  0  0
  161.9550  209.1030  151.7510 C   0  0  0  0  0  0  0  0  0  0  0  0
  161.3810  205.4370  144.9260 C   0  0  0  0  0  3  0  0  0  0  0  0
  161.1170  203.0380  150.8040 C   0  0  0  0  0  3  0  0  0  0  0  0
  161.4310  204.4280  150.4020 C   0  0  0  0  0  0  0  0  0  0  0  0
  161.2130  203.8470  148.1520 N   0  0  0  0  0  2  0  0  0  0  0  0
  161.8470  208.5780  149.3610 C   0  0  0  0  0  3  0  0  0  0  0  0
  161.8360  207.6380  146.8740 O   0  0  0  0  0  0  0  0  0  0  0  0
  160.7790  201.9010  145.8300 C   0  0  0  0  0  1  0  0  0  0  0  0
  161.6250  206.1760  148.7240 C   0  0  0  0  0  0  0  0  0  0  0  0
  161.2160  204.1850  146.8440 C   0  0  0  0  0  0  0  0  0  0  0  0
  160.7530  210.7030  153.0570 O   0  0  0  0  0  0  0  0  0  0  0  0
  162.0260  210.1350  152.8400 C   0  0  1  0  0  3  0  0  0  0  0  0
  161.1780  209.7440  153.9910 C   0  0  1  0  0  3  0  0  0  0  0  0
  161.6520  210.4540  155.2440 C   0  0  0  0  0  2  0  0  0  0  0  0
  162.0920  209.4570  156.2600 C   0  0  0  0  0  0  0  0  0  0  0  0
  161.6850  208.2700  156.1950 O   0  0  0  0  0  0  0  0  0  0  0  0
  162.9800  209.8320  157.2590 O   0  0  0  0  0  1  0  0  0  0  0  0
  162.0450  211.0630  148.4050 C   0  0  0  0  0  1  0  0  0  0  0  0
  162.0420  210.9360  149.9180 C   0  0  0  0  0  2  0  0  0  0  0  0
  1 10  1  0  0  0  0
  3  2  1  0  0  0  0
  4 22  1  0  0  0  0
  5 23  2  0  0  0  0
  5  4  1  0  0  0  0
  6 14  1  0  0  0  0
  8 21  1  0  0  0  0
  8 23  1  0  0  0  0
  9  2  2  0  0  0  0
 10 11  1  0  0  0  0
 10  7  1  0  0  0  0
 11  9  1  1  0  0  0
 12 17  2  0  0  0  0
 13 15  2  0  0  0  0
 13  8  1  0  0  0  0
 14  7  2  0  0  0  0
 15  5  1  0  0  0  0
 16  3  2  0  0  0  0
 17 16  1  0  0  0  0
 17 11  1  0  0  0  0
 18 12  1  0  0  0  0
 19  1  1  0  0  0  0
 19  6  2  0  0  0  0
 20  4  2  0  0  0  0
 22 12  1  0  0  0  0
 22  1  2  0  0  0  0
 23 18  1  0  0  0  0
 24 26  1  0  0  0  0
 25 14  1  6  0  0  0
 25 24  1  0  0  0  0
 25 26  1  0  0  0  0
 26 27  1  1  0  0  0
 27 28  1  0  0  0  0
 28 30  1  0  0  0  0
 29 28  2  0  0  0  0
 31 32  1  0  0  0  0
 32  6  1  0  0  0  0
M  END
>  <MODEL>
2

>  <REMARK>
 VINA RESULT:      -9.2      2.862      8.664
  Name = 
  4 active torsions:
  status: ('A' for Active; 'I' for Inactive)
    1  A    between atoms: C_7  and  C_19
    2  A    between atoms: C_10  and  C_17
    3  A    between atoms: C_20  and  C_29
    4  A    between atoms: C_29  and  C_30
                            x       y       z     vdW  Elec       q    Type
                         _______ _______ _______ _____ _____    ______ ____

>  <TORSDO>
F 4

$$$$
=
 OpenBabel11122413003D

 32 37  0  0  1  0  0  0  0  0999 V2000
  161.4370  206.5070  151.2790 C   0  0  0  0  0  0  0  0  0  0  0  0
  161.8500  210.5440  148.6480 C   0  0  0  0  0  3  0  0  0  0  0  0
  161.8840  211.3590  149.8790 C   0  0  0  0  0  3  0  0  0  0  0  0
  160.9020  206.7010  153.6700 C   0  0  0  0  0  0  0  0  0  0  0  0
  160.6750  207.5610  154.7380 C   0  0  0  0  0  0  0  0  0  0  0  0
  161.3540  204.3310  150.1460 C   0  0  0  0  0  0  0  0  0  0  0  0
  161.9750  206.3110  148.8550 C   0  0  0  0  0  3  0  0  0  0  0  0
  160.5090  209.5350  155.8050 N   0  0  0  0  0  0  0  0  0  0  0  0
  161.9820  209.2150  148.6990 C   0  0  0  0  0  3  0  0  0  0  0  0
  161.8040  207.1270  150.0270 N   0  0  0  0  0  0  0  0  0  0  0  0
  162.2850  208.5090  150.0020 C   0  0  2  0  0  3  0  0  0  0  0  0
  161.4260  208.6940  152.3300 C   0  0  0  0  0  0  0  0  0  0  0  0
  160.1790  208.6080  156.8110 N   0  0  0  0  0  0  0  0  0  0  0  0
  161.7790  204.9870  148.8820 C   0  0  0  0  0  0  0  0  0  0  0  0
  160.2720  207.2830  156.1500 C   0  0  0  0  0  3  0  0  0  0  0  0
  161.8460  210.7790  151.0820 C   0  0  0  0  0  3  0  0  0  0  0  0
  161.8000  209.3030  151.1900 C   0  0  0  0  0  0  0  0  0  0  0  0
  161.1630  209.4670  153.4300 N   0  0  0  0  0  2  0  0  0  0  0  0
  161.2040  205.0460  151.2630 C   0  0  0  0  0  3  0  0  0  0  0  0
  160.7730  205.4600  153.8530 O   0  0  0  0  0  0  0  0  0  0  0  0
  160.5490  210.9690  156.0240 C   0  0  0  0  0  1  0  0  0  0  0  0
  161.2730  207.2630  152.4040 C   0  0  0  0  0  0  0  0  0  0  0  0
  160.7950  208.8890  154.5940 C   0  0  0  0  0  0  0  0  0  0  0  0
  160.8370  203.3040  147.4710 O   0  0  0  0  0  0  0  0  0  0  0  0
  161.9190  204.1990  147.6110 C   0  0  1  0  0  3  0  0  0  0  0  0
  160.7860  204.4730  146.6950 C   0  0  1  0  0  3  0  0  0  0  0  0
  161.1830  204.1370  145.2710 C   0  0  0  0  0  2  0  0  0  0  0  0
  161.0200  205.3330  144.3990 C   0  0  0  0  0  0  0  0  0  0  0  0
  161.5300  205.3510  143.2500 O   0  0  0  0  0  0  0  0  0  0  0  0
  160.2740  206.4170  144.8430 O   0  0  0  0  0  1  0  0  0  0  0  0
  161.1860  202.3640  151.6340 C   0  0  0  0  0  1  0  0  0  0  0  0
  161.0980  202.8610  150.2020 C   0  0  0  0  0  2  0  0  0  0  0  0
  1 22  2  0  0  0  0
  2  9  2  0  0  0  0
  2  3  1  0  0  0  0
  3 16  2  0  0  0  0
  4 20  2  0  0  0  0
  4  5  1  0  0  0  0
  5 15  1  0  0  0  0
  6 32  1  0  0  0  0
  6 19  2  0  0  0  0
  7 14  2  0  0  0  0
  7 10  1  0  0  0  0
  8 21  1  0  0  0  0
  8 13  1  0  0  0  0
 10  1  1  0  0  0  0
 11  9  1  6  0  0  0
 11 10  1  0  0  0  0
 11 17  1  0  0  0  0
 12 22  1  0  0  0  0
 12 18  1  0  0  0  0
 14  6  1  0  0  0  0
 15 13  2  0  0  0  0
 16 17  1  0  0  0  0
 17 12  2  0  0  0  0
 18 23  1  0  0  0  0
 19  1  1  0  0  0  0
 22  4  1  0  0  0  0
 23  5  2  0  0  0  0
 23  8  1  0  0  0  0
 24 25  1  0  0  0  0
 25 14  1  1  0  0  0
 26 27  1  6  0  0  0
 26 24  1  0  0  0  0
 26 25  1  0  0  0  0
 28 30  1  0  0  0  0
 28 27  1  0  0  0  0
 29 28  2  0  0  0  0
 32 31  1  0  0  0  0
M  END
>  <MODEL>
3

>  <REMARK>
 VINA RESULT:      -9.0      1.347      2.180
  Name = 
  4 active torsions:
  status: ('A' for Active; 'I' for Inactive)
    1  A    between atoms: C_7  and  C_19
    2  A    between atoms: C_10  and  C_17
    3  A    between atoms: C_20  and  C_29
    4  A    between atoms: C_29  and  C_30
                            x       y       z     vdW  Elec       q    Type
                         _______ _______ _______ _____ _____    ______ ____

>  <TORSDO>
F 4

$$$$
=
 OpenBabel11122413003D

 32 37  0  0  1  0  0  0  0  0999 V2000
  161.1810  207.0170  152.6300 C   0  0  0  0  0  0  0  0  0  0  0  0
  162.3450  210.3880  149.3630 C   0  0  0  0  0  3  0  0  0  0  0  0
  162.0850  209.4350  148.2670 C   0  0  0  0  0  3  0  0  0  0  0  0
  160.9820  204.6790  151.9010 C   0  0  0  0  0  0  0  0  0  0  0  0
  161.0240  203.7950  150.8280 C   0  0  0  0  0  0  0  0  0  0  0  0
  161.2060  207.5900  155.0180 C   0  0  0  0  0  0  0  0  0  0  0  0
  161.3870  209.3870  153.3710 C   0  0  0  0  0  3  0  0  0  0  0  0
  161.2130  203.1570  148.6790 N   0  0  0  0  0  0  0  0  0  0  0  0
  161.9620  210.1180  150.6160 C   0  0  0  0  0  3  0  0  0  0  0  0
  161.3360  208.4170  152.3090 N   0  0  0  0  0  0  0  0  0  0  0  0
  161.1490  208.8830  150.9350 C   0  0  2  0  0  3  0  0  0  0  0  0
  161.2700  206.4900  150.2630 C   0  0  0  0  0  0  0  0  0  0  0  0
  161.0430  201.9330  149.3540 N   0  0  0  0  0  0  0  0  0  0  0  0
  161.3180  209.0270  154.6580 C   0  0  0  0  0  0  0  0  0  0  0  0
  160.9150  202.3050  150.7840 C   0  0  0  0  0  3  0  0  0  0  0  0
  161.6440  208.2000  148.5270 C   0  0  0  0  0  3  0  0  0  0  0  0
  161.3830  207.7870  149.9240 C   0  0  0  0  0  0  0  0  0  0  0  0
  161.3200  205.5470  149.2720 N   0  0  0  0  0  2  0  0  0  0  0  0
  161.1350  206.6580  154.0650 C   0  0  0  0  0  3  0  0  0  0  0  0
  160.8180  204.2170  153.0620 O   0  0  0  0  0  0  0  0  0  0  0  0
  161.3730  203.2590  147.2400 C   0  0  0  0  0  1  0  0  0  0  0  0
  161.1270  206.0810  151.6380 C   0  0  0  0  0  0  0  0  0  0  0  0
  161.1990  204.2360  149.5750 C   0  0  0  0  0  0  0  0  0  0  0  0
  161.2150  211.3610  155.1650 O   0  0  0  0  0  0  0  0  0  0  0  0
  161.4330  210.0830  155.7210 C   0  0  1  0  0  3  0  0  0  0  0  0
  160.1480  210.8030  155.8870 C   0  0  1  0  0  3  0  0  0  0  0  0
  160.0920  211.4460  157.2590 C   0  0  0  0  0  2  0  0  0  0  0  0
  159.3510  212.7360  157.1890 C   0  0  0  0  0  0  0  0  0  0  0  0
  159.9790  213.8180  157.0730 O   0  0  0  0  0  0  0  0  0  0  0  0
  157.9630  212.7400  157.2160 O   0  0  0  0  0  1  0  0  0  0  0  0
  159.7200  206.9630  156.8910 C   0  0  0  0  0  1  0  0  0  0  0  0
  161.1580  207.1540  156.4450 C   0  0  0  0  0  2  0  0  0  0  0  0
  1 19  1  0  0  0  0
  2  9  2  0  0  0  0
  3 16  2  0  0  0  0
  3  2  1  0  0  0  0
  4 20  2  0  0  0  0
  5  4  1  0  0  0  0
  6 32  1  0  0  0  0
  7 14  2  0  0  0  0
  8 13  1  0  0  0  0
  8 23  1  0  0  0  0
 10  1  1  0  0  0  0
 10  7  1  0  0  0  0
 11  9  1  6  0  0  0
 11 10  1  0  0  0  0
 12 22  1  0  0  0  0
 13 15  2  0  0  0  0
 14  6  1  0  0  0  0
 15  5  1  0  0  0  0
 16 17  1  0  0  0  0
 17 12  2  0  0  0  0
 17 11  1  0  0  0  0
 18 23  1  0  0  0  0
 18 12  1  0  0  0  0
 19  6  2  0  0  0  0
 21  8  1  0  0  0  0
 22  4  1  0  0  0  0
 22  1  2  0  0  0  0
 23  5  2  0  0  0  0
 24 25  1  0  0  0  0
 24 26  1  0  0  0  0
 25 14  1  6  0  0  0
 25 26  1  0  0  0  0
 26 27  1  1  0  0  0
 28 30  1  0  0  0  0
 28 27  1  0  0  0  0
 29 28  2  0  0  0  0
 32 31  1  0  0  0  0
M  END
>  <MODEL>
4

>  <REMARK>
 VINA RESULT:      -8.9      2.883      8.259
  Name = 
  4 active torsions:
  status: ('A' for Active; 'I' for Inactive)
    1  A    between atoms: C_7  and  C_19
    2  A    between atoms: C_10  and  C_17
    3  A    between atoms: C_20  and  C_29
    4  A    between atoms: C_29  and  C_30
                            x       y       z     vdW  Elec       q    Type
                         _______ _______ _______ _____ _____    ______ ____

>  <TORSDO>
F 4

$$$$
=
 OpenBabel11122413003D

 32 37  0  0  1  0  0  0  0  0999 V2000
  161.0660  206.5670  150.6670 C   0  0  0  0  0  0  0  0  0  0  0  0
  160.4770  202.0850  152.3860 C   0  0  0  0  0  3  0  0  0  0  0  0
  160.7960  201.5210  151.0600 C   0  0  0  0  0  3  0  0  0  0  0  0
  161.1990  206.8960  148.2360 C   0  0  0  0  0  0  0  0  0  0  0  0
  161.2190  206.2870  146.9860 C   0  0  0  0  0  0  0  0  0  0  0  0
  160.8160  208.4840  152.1820 C   0  0  0  0  0  0  0  0  0  0  0  0
  160.9280  206.2350  153.1320 C   0  0  0  0  0  3  0  0  0  0  0  0
  161.2270  204.5860  145.5140 N   0  0  0  0  0  0  0  0  0  0  0  0
  160.7040  203.3750  152.6570 C   0  0  0  0  0  3  0  0  0  0  0  0
  161.0340  205.6820  151.8080 N   0  0  0  0  0  0  0  0  0  0  0  0
  161.3980  204.2720  151.6580 C   0  0  2  0  0  3  0  0  0  0  0  0
  161.2040  204.6370  149.2040 C   0  0  0  0  0  0  0  0  0  0  0  0
  161.2470  205.7200  144.6800 N   0  0  0  0  0  0  0  0  0  0  0  0
  160.8330  207.5540  153.3410 C   0  0  0  0  0  0  0  0  0  0  0  0
  161.2400  206.8740  145.6120 C   0  0  0  0  0  3  0  0  0  0  0  0
  161.1280  202.3180  150.0410 C   0  0  0  0  0  3  0  0  0  0  0  0
  161.2100  203.7820  150.2440 C   0  0  0  0  0  0  0  0  0  0  0  0
  161.2040  204.1240  147.9350 N   0  0  0  0  0  2  0  0  0  0  0  0
  160.9330  208.0160  150.9370 C   0  0  0  0  0  3  0  0  0  0  0  0
  161.2060  208.1560  148.2970 O   0  0  0  0  0  0  0  0  0  0  0  0
  161.2320  203.2250  145.0090 C   0  0  0  0  0  1  0  0  0  0  0  0
  161.1700  206.0640  149.4030 C   0  0  0  0  0  0  0  0  0  0  0  0
  161.2100  204.9520  146.8680 C   0  0  0  0  0  0  0  0  0  0  0  0
  160.9610  207.0430  155.6720 O   0  0  0  0  0  0  0  0  0  0  0  0
  160.6680  208.0640  154.7440 C   0  0  1  0  0  3  0  0  0  0  0  0
  161.9560  208.0130  155.4760 C   0  0  1  0  0  3  0  0  0  0  0  0
  161.9280  208.9890  156.6360 C   0  0  0  0  0  2  0  0  0  0  0  0
  162.7370  210.1960  156.3090 C   0  0  0  0  0  0  0  0  0  0  0  0
  163.4490  210.7360  157.1920 O   0  0  0  0  0  1  0  0  0  0  0  0
  162.7320  210.7030  155.0160 O   0  0  0  0  0  0  0  0  0  0  0  0
  161.5240  210.7060  151.3630 C   0  0  0  0  0  1  0  0  0  0  0  0
  160.6800  209.9580  152.3790 C   0  0  0  0  0  2  0  0  0  0  0  0
  1 19  1  0  0  0  0
  1 10  1  0  0  0  0
  2  9  2  0  0  0  0
  3  2  1  0  0  0  0
  4 20  2  0  0  0  0
  4 22  1  0  0  0  0
  5  4  1  0  0  0  0
  6 32  1  0  0  0  0
  6 14  1  0  0  0  0
  7 14  2  0  0  0  0
  8 23  1  0  0  0  0
 10  7  1  0  0  0  0
 11 10  1  0  0  0  0
 11  9  1  1  0  0  0
 12 22  1  0  0  0  0
 12 17  2  0  0  0  0
 13  8  1  0  0  0  0
 13 15  2  0  0  0  0
 15  5  1  0  0  0  0
 16 17  1  0  0  0  0
 16  3  2  0  0  0  0
 17 11  1  0  0  0  0
 18 12  1  0  0  0  0
 19  6  2  0  0  0  0
 21  8  1  0  0  0  0
 22  1  2  0  0  0  0
 23  5  2  0  0  0  0
 23 18  1  0  0  0  0
 25 14  1  6  0  0  0
 25 26  1  0  0  0  0
 25 24  1  0  0  0  0
 26 24  1  0  0  0  0
 26 27  1  1  0  0  0
 28 27  1  0  0  0  0
 28 29  1  0  0  0  0
 30 28  2  0  0  0  0
 31 32  1  0  0  0  0
M  END
>  <MODEL>
5

>  <REMARK>
 VINA RESULT:      -7.2      3.148      8.692
  Name = 
  4 active torsions:
  status: ('A' for Active; 'I' for Inactive)
    1  A    between atoms: C_7  and  C_19
    2  A    between atoms: C_10  and  C_17
    3  A    between atoms: C_20  and  C_29
    4  A    between atoms: C_29  and  C_30
                            x       y       z     vdW  Elec       q    Type
                         _______ _______ _______ _____ _____    ______ ____

>  <TORSDO>
F 4

$$$$
