=
 OpenBabel11122414073D

 28 32  0  0  1  0  0  0  0  0999 V2000
  159.1730  212.8580  151.9340 C   0  0  0  0  0  0  0  0  0  0  0  0
  159.9550  214.3240  155.1400 O   0  0  0  0  0  0  0  0  0  0  0  0
  161.4980  207.2750  154.0330 O   0  0  0  0  0  0  0  0  0  0  0  0
  156.4170  213.1680  152.3310 C   0  0  0  0  0  3  0  0  0  0  0  0
  159.8910  208.3080  155.4010 N   0  0  0  0  0  0  0  0  0  0  0  0
  160.6280  212.6530  151.6560 C   0  0  0  0  0  2  0  0  0  0  0  0
  158.7930  213.8670  157.2600 O   0  0  0  0  0  0  0  0  0  0  0  0
  159.7130  213.3020  156.2150 S   0  0  0  0  0  0  0  0  0  0  0  0
  161.6350  211.4900  156.9300 C   0  0  0  0  0  0  0  0  0  0  0  0
  158.9930  211.8290  155.5310 C   0  0  2  0  0  3  0  0  0  0  0  0
  162.2870  209.3990  150.9450 O   0  0  0  0  0  1  0  0  0  0  0  0
  159.2180  210.0460  153.9090 C   0  0  2  0  0  3  0  0  0  0  0  0
  160.8430  210.5160  156.5890 N   0  0  0  0  0  0  0  0  0  0  0  0
  161.2040  212.8490  156.9410 N   0  0  0  0  0  2  0  0  0  0  0  0
  161.9850  210.5430  151.6810 C   0  0  2  0  0  3  0  0  0  0  0  0
  158.5660  212.3220  153.0890 C   0  0  0  0  0  0  0  0  0  0  0  0
  160.6770  208.2110  154.2320 C   0  0  0  0  0  0  0  0  0  0  0  0
  163.0500  211.1840  157.2610 C   0  0  0  0  0  1  0  0  0  0  0  0
  161.6860  210.1670  153.1340 C   0  0  0  0  0  2  0  0  0  0  0  0
  157.1830  212.4740  153.2710 C   0  0  0  0  0  3  0  0  0  0  0  0
  158.3970  213.5460  150.9940 C   0  0  0  0  0  3  0  0  0  0  0  0
  157.0250  213.7060  151.1950 C   0  0  0  0  0  3  0  0  0  0  0  0
  160.8330  211.2890  151.0190 C   0  0  0  0  0  2  0  0  0  0  0  0
  159.0130  209.4610  155.3200 C   0  0  2  0  0  3  0  0  0  0  0  0
  160.4250  209.3060  153.2680 C   0  0  2  0  0  3  0  0  0  0  0  0
  159.3990  210.5790  156.2980 C   0  0  2  0  0  3  0  0  0  0  0  0
  159.8760  207.3370  156.4820 C   0  0  0  0  0  1  0  0  0  0  0  0
  159.3880  211.5550  154.0900 C   0  0  1  0  0  3  0  0  0  0  0  0
  1 16  1  0  0  0  0
  2  8  2  0  0  0  0
  3 17  2  0  0  0  0
  4 20  1  0  0  0  0
  5 27  1  0  0  0  0
  6  1  1  0  0  0  0
  8 14  1  0  0  0  0
  8  7  2  0  0  0  0
  9 14  1  0  0  0  0
  9 18  1  0  0  0  0
 10  8  1  1  0  0  0
 10 26  1  0  0  0  0
 11 15  1  0  0  0  0
 12 28  1  0  0  0  0
 12 24  1  0  0  0  0
 13  9  2  0  0  0  0
 15 19  1  0  0  0  0
 16 20  2  0  0  0  0
 16 28  1  0  0  0  0
 17  5  1  0  0  0  0
 19 25  1  0  0  0  0
 21 22  1  0  0  0  0
 21  1  2  0  0  0  0
 22  4  2  0  0  0  0
 23  6  1  0  0  0  0
 23 15  1  0  0  0  0
 24  5  1  0  0  0  0
 24 26  1  0  0  0  0
 25 12  1  0  0  0  0
 25 17  1  0  0  0  0
 26 13  1  0  0  0  0
 28 10  1  0  0  0  0
M  END
>  <MODEL>
1

>  <REMARK>
 VINA RESULT:      -1.4      0.000      0.000
  Name = 
  0 active torsions:
  status: ('A' for Active; 'I' for Inactive)
                            x       y       z     vdW  Elec       q    Type
                         _______ _______ _______ _____ _____    ______ ____

>  <TORSDO>
F 0

$$$$
=
 OpenBabel11122414073D

 28 32  0  0  1  0  0  0  0  0999 V2000
  159.2580  213.0390  142.6980 C   0  0  0  0  0  0  0  0  0  0  0  0
  158.7360  210.3130  140.3890 O   0  0  0  0  0  0  0  0  0  0  0  0
  164.7580  214.3840  139.7120 O   0  0  0  0  0  0  0  0  0  0  0  0
  157.0480  214.4530  141.7130 C   0  0  0  0  0  3  0  0  0  0  0  0
  162.8550  214.2020  138.3450 N   0  0  0  0  0  0  0  0  0  0  0  0
  160.4540  212.3460  143.2690 C   0  0  0  0  0  2  0  0  0  0  0  0
  158.1710  210.5280  138.0030 O   0  0  0  0  0  0  0  0  0  0  0  0
  159.2470  210.7170  139.0340 S   0  0  0  0  0  0  0  0  0  0  0  0
  161.8730  210.3880  138.3360 C   0  0  0  0  0  0  0  0  0  0  0  0
  159.7640  212.4170  139.0400 C   0  0  2  0  0  3  0  0  0  0  0  0
  163.9210  213.6950  143.3850 O   0  0  0  0  0  1  0  0  0  0  0  0
  161.1970  214.0810  140.0590 C   0  0  2  0  0  3  0  0  0  0  0  0
  161.9850  211.6720  138.1560 N   0  0  0  0  0  0  0  0  0  0  0  0
  160.6190  209.7700  138.6180 N   0  0  0  0  0  2  0  0  0  0  0  0
  162.8930  212.8490  142.9700 C   0  0  2  0  0  3  0  0  0  0  0  0
  159.1670  213.3270  141.3210 C   0  0  0  0  0  0  0  0  0  0  0  0
  163.5140  214.2190  139.5940 C   0  0  0  0  0  0  0  0  0  0  0  0
  163.0970  209.5490  138.3070 C   0  0  0  0  0  1  0  0  0  0  0  0
  162.9080  212.7170  141.4460 C   0  0  0  0  0  2  0  0  0  0  0  0
  158.0610  214.0470  140.8410 C   0  0  0  0  0  3  0  0  0  0  0  0
  158.2420  213.4560  143.5660 C   0  0  0  0  0  3  0  0  0  0  0  0
  157.1380  214.1560  143.0750 C   0  0  0  0  0  3  0  0  0  0  0  0
  161.5610  213.3610  143.5030 C   0  0  0  0  0  2  0  0  0  0  0  0
  161.4240  214.0410  138.5350 C   0  0  2  0  0  3  0  0  0  0  0  0
  162.5940  214.0410  140.7400 C   0  0  2  0  0  3  0  0  0  0  0  0
  160.9070  212.6750  138.0680 C   0  0  2  0  0  3  0  0  0  0  0  0
  163.4940  214.4250  137.0600 C   0  0  0  0  0  1  0  0  0  0  0  0
  160.2700  212.9090  140.3850 C   0  0  1  0  0  3  0  0  0  0  0  0
  1  6  1  0  0  0  0
  1 21  1  0  0  0  0
  4 22  1  0  0  0  0
  5 24  1  0  0  0  0
  5 17  1  0  0  0  0
  6 23  1  0  0  0  0
  7  8  2  0  0  0  0
  8  2  2  0  0  0  0
  9 14  1  0  0  0  0
 10  8  1  1  0  0  0
 10 28  1  0  0  0  0
 12 28  1  0  0  0  0
 12 25  1  0  0  0  0
 13  9  2  0  0  0  0
 14  8  1  0  0  0  0
 15 11  1  0  0  0  0
 15 23  1  0  0  0  0
 16  1  2  0  0  0  0
 17  3  2  0  0  0  0
 17 25  1  0  0  0  0
 18  9  1  0  0  0  0
 19 15  1  0  0  0  0
 20 16  1  0  0  0  0
 20  4  2  0  0  0  0
 22 21  2  0  0  0  0
 24 12  1  0  0  0  0
 25 19  1  0  0  0  0
 26 13  1  0  0  0  0
 26 24  1  0  0  0  0
 26 10  1  0  0  0  0
 27  5  1  0  0  0  0
 28 16  1  0  0  0  0
M  END
>  <MODEL>
2

>  <REMARK>
 VINA RESULT:      -0.8     12.195     14.855
  Name = 
  0 active torsions:
  status: ('A' for Active; 'I' for Inactive)
                            x       y       z     vdW  Elec       q    Type
                         _______ _______ _______ _____ _____    ______ ____

>  <TORSDO>
F 0

$$$$
=
 OpenBabel11122414073D

 28 32  0  0  1  0  0  0  0  0999 V2000
  157.9160  212.9390  153.8310 C   0  0  0  0  0  0  0  0  0  0  0  0
  160.1780  212.0100  156.4890 O   0  0  0  0  0  0  0  0  0  0  0  0
  162.0270  210.4560  149.5990 O   0  0  0  0  0  0  0  0  0  0  0  0
  155.9560  211.1390  154.7100 C   0  0  0  0  0  3  0  0  0  0  0  0
  161.4100  209.0600  151.3850 N   0  0  0  0  0  0  0  0  0  0  0  0
  158.9170  213.9140  153.3010 C   0  0  0  0  0  2  0  0  0  0  0  0
  160.6370  209.7180  157.2610 O   0  0  0  0  0  0  0  0  0  0  0  0
  160.8280  210.6990  156.1390 S   0  0  0  0  0  0  0  0  0  0  0  0
  163.0900  210.5860  154.6030 C   0  0  0  0  0  0  0  0  0  0  0  0
  160.1320  210.0310  154.6470 C   0  0  2  0  0  3  0  0  0  0  0  0
  160.3860  213.9050  149.8810 O   0  0  0  0  0  1  0  0  0  0  0  0
  159.6640  210.4060  152.3020 C   0  0  2  0  0  3  0  0  0  0  0  0
  162.4510  209.8790  153.7160 N   0  0  0  0  0  0  0  0  0  0  0  0
  162.5070  210.9340  155.8560 N   0  0  0  0  0  2  0  0  0  0  0  0
  160.3800  213.7660  151.2680 C   0  0  2  0  0  3  0  0  0  0  0  0
  158.2400  211.5760  153.9990 C   0  0  0  0  0  0  0  0  0  0  0  0
  161.3350  210.2520  150.6320 C   0  0  0  0  0  0  0  0  0  0  0  0
  164.4440  211.0970  154.2740 C   0  0  0  0  0  1  0  0  0  0  0  0
  161.0920  212.4710  151.6670 C   0  0  0  0  0  2  0  0  0  0  0  0
  157.2460  210.6820  154.4280 C   0  0  0  0  0  3  0  0  0  0  0  0
  156.6190  213.3860  154.1100 C   0  0  0  0  0  3  0  0  0  0  0  0
  155.6440  212.4910  154.5530 C   0  0  0  0  0  3  0  0  0  0  0  0
  158.9480  213.8300  151.7830 C   0  0  0  0  0  2  0  0  0  0  0  0
  160.4630  209.1010  152.4850 C   0  0  2  0  0  3  0  0  0  0  0  0
  160.3550  211.2210  151.1730 C   0  0  2  0  0  3  0  0  0  0  0  0
  161.1420  209.2130  153.8560 C   0  0  2  0  0  3  0  0  0  0  0  0
  162.2290  207.9080  151.0470 C   0  0  0  0  0  1  0  0  0  0  0  0
  159.6230  211.0810  153.6740 C   0  0  1  0  0  3  0  0  0  0  0  0
  1 16  2  0  0  0  0
  1 21  1  0  0  0  0
  3 17  2  0  0  0  0
  5 24  1  0  0  0  0
  6  1  1  0  0  0  0
  8  2  2  0  0  0  0
  8  7  2  0  0  0  0
  9 14  1  0  0  0  0
 10  8  1  1  0  0  0
 11 15  1  0  0  0  0
 12 24  1  0  0  0  0
 12 28  1  0  0  0  0
 13 26  1  0  0  0  0
 13  9  2  0  0  0  0
 14  8  1  0  0  0  0
 15 19  1  0  0  0  0
 15 23  1  0  0  0  0
 16 20  1  0  0  0  0
 17 25  1  0  0  0  0
 17  5  1  0  0  0  0
 18  9  1  0  0  0  0
 20  4  2  0  0  0  0
 21 22  2  0  0  0  0
 22  4  1  0  0  0  0
 23  6  1  0  0  0  0
 24 26  1  0  0  0  0
 25 19  1  0  0  0  0
 25 12  1  0  0  0  0
 26 10  1  0  0  0  0
 27  5  1  0  0  0  0
 28 16  1  0  0  0  0
 28 10  1  0  0  0  0
M  END
>  <MODEL>
3

>  <REMARK>
 VINA RESULT:       0.5      2.282      3.409
  Name = 
  0 active torsions:
  status: ('A' for Active; 'I' for Inactive)
                            x       y       z     vdW  Elec       q    Type
                         _______ _______ _______ _____ _____    ______ ____

>  <TORSDO>
F 0

$$$$
