=
 OpenBabel11122412483D

 32 37  0  0  1  0  0  0  0  0999 V2000
  161.9050  201.3280  149.1450 C   0  0  0  0  0  2  0  0  0  0  0  0
  161.1340  205.9660  151.2480 C   0  0  0  0  0  0  0  0  0  0  0  0
  162.1330  209.6480  148.2610 N   0  0  0  0  0  0  0  0  0  0  0  0
  162.2090  210.5130  149.3040 C   0  0  0  0  0  3  0  0  0  0  0  0
  160.9920  206.4160  153.7060 C   0  0  0  0  0  0  0  0  0  0  0  0
  161.0920  207.3680  154.7120 C   0  0  0  0  0  0  0  0  0  0  0  0
  160.3100  203.8610  150.2690 N   0  0  1  0  0  0  0  0  0  0  0  0
  161.2140  205.5450  148.7440 C   0  0  0  0  0  2  0  0  0  0  0  0
  161.3980  209.2930  155.5900 C   0  0  0  0  0  0  0  0  0  0  0  0
  160.8050  203.2580  147.8770 C   0  0  0  0  0  2  0  0  0  0  0  0
  161.8580  208.3310  148.4470 C   0  0  0  0  0  3  0  0  0  0  0  0
  161.3630  206.4570  149.9410 C   0  0  0  0  0  0  0  0  0  0  0  0
  161.6430  207.8190  149.7380 C   0  0  0  0  0  0  0  0  0  0  0  0
  161.5030  208.2280  152.1360 C   0  0  0  0  0  0  0  0  0  0  0  0
  161.1340  208.4690  156.6300 N   0  0  0  0  0  0  0  0  0  0  0  0
  161.3490  201.5680  150.5580 C   0  0  0  0  0  2  0  0  0  0  0  0
  161.2060  204.0680  149.1190 C   0  0  2  0  0  3  0  0  0  0  0  0
  160.9380  207.2410  156.0810 C   0  0  0  0  0  3  0  0  0  0  0  0
  160.0830  202.4460  150.6040 C   0  0  0  0  0  2  0  0  0  0  0  0
  160.9310  201.7350  148.0370 C   0  0  1  0  0  3  0  0  0  0  0  0
  162.0040  210.0560  150.6060 C   0  0  0  0  0  3  0  0  0  0  0  0
  161.7180  208.7030  150.8340 C   0  0  0  0  0  0  0  0  0  0  0  0
  161.5780  209.0890  153.1940 N   0  0  0  0  0  0  0  0  0  0  0  0
  160.9340  204.4810  151.4350 C   0  0  0  0  0  2  0  0  0  0  0  0
  160.6840  205.1020  154.0410 O   0  0  0  0  0  1  0  0  0  0  0  0
  161.6760  210.7480  155.7320 C   0  0  0  0  0  1  0  0  0  0  0  0
  161.2060  206.8450  152.3630 C   0  0  0  0  0  0  0  0  0  0  0  0
  161.3740  208.6340  154.4260 N   0  0  0  0  0  0  0  0  0  0  0  0
  161.3300  201.1710  146.8250 O   0  0  0  0  0  0  0  0  0  0  0  0
  160.6180  202.1430  145.6360 P   0  0  0  0  0  0  0  0  0  0  0  0
  159.3350  201.7030  144.9690 O   0  0  0  0  0  0  0  0  0  0  0  0
  161.2650  203.4500  145.2400 O   0  0  0  0  0  0  0  0  0  0  0  0
  1 16  1  0  0  0  0
  2 24  1  0  0  0  0
  2 27  1  0  0  0  0
  3 11  2  0  0  0  0
  3  4  1  0  0  0  0
  4 21  2  0  0  0  0
  5 25  1  0  0  0  0
  5  6  1  0  0  0  0
  6 18  2  0  0  0  0
  7 19  1  1  0  0  0
  7 24  1  0  0  0  0
  8 17  1  0  0  0  0
  8 12  1  0  0  0  0
  9 26  1  0  0  0  0
  9 15  2  0  0  0  0
 10 20  1  0  0  0  0
 11 13  1  0  0  0  0
 12  2  2  0  0  0  0
 13 12  1  0  0  0  0
 13 22  2  0  0  0  0
 14 27  1  0  0  0  0
 14 23  2  0  0  0  0
 16 19  1  0  0  0  0
 17 10  1  6  0  0  0
 17  7  1  0  0  0  0
 18 15  1  0  0  0  0
 20 29  1  6  0  0  0
 20  1  1  0  0  0  0
 21 22  1  0  0  0  0
 22 14  1  0  0  0  0
 23 28  1  0  0  0  0
 27  5  2  0  0  0  0
 28  6  1  0  0  0  0
 28  9  1  0  0  0  0
 30 29  1  0  0  0  0
 31 30  2  0  0  0  0
 32 30  2  0  0  0  0
M  END
>  <MODEL>
1

>  <REMARK>
 VINA RESULT:      -9.3      0.000      0.000
  Name = 
  2 active torsions:
  status: ('A' for Active; 'I' for Inactive)
    1  A    between atoms: C_20  and  O_29
    2  A    between atoms: O_29  and  P_30
                            x       y       z     vdW  Elec       q    Type
                         _______ _______ _______ _____ _____    ______ ____

>  <TORSDO>
F 2

$$$$
=
 OpenBabel11122412483D

 32 37  0  0  1  0  0  0  0  0999 V2000
  159.7620  209.8440  156.8900 C   0  0  0  0  0  2  0  0  0  0  0  0
  161.3430  207.4370  152.6190 C   0  0  0  0  0  0  0  0  0  0  0  0
  162.1150  210.4180  148.8780 N   0  0  0  0  0  0  0  0  0  0  0  0
  162.0610  209.3820  148.0030 C   0  0  0  0  0  3  0  0  0  0  0  0
  161.0650  204.9910  152.1710 C   0  0  0  0  0  0  0  0  0  0  0  0
  161.0220  203.9930  151.2070 C   0  0  0  0  0  0  0  0  0  0  0  0
  161.7270  208.3000  154.8950 N   0  0  1  0  0  0  0  0  0  0  0  0
  161.6970  209.9150  153.0600 C   0  0  0  0  0  2  0  0  0  0  0  0
  161.0940  203.1250  149.2540 C   0  0  0  0  0  0  0  0  0  0  0  0
  161.6160  210.7650  155.3870 C   0  0  0  0  0  2  0  0  0  0  0  0
  161.9550  210.2300  150.2140 C   0  0  0  0  0  3  0  0  0  0  0  0
  161.5550  208.7430  152.1150 C   0  0  0  0  0  0  0  0  0  0  0  0
  161.7270  208.9460  150.7350 C   0  0  0  0  0  0  0  0  0  0  0  0
  161.4490  206.5590  150.3260 C   0  0  0  0  0  0  0  0  0  0  0  0
  160.8770  202.0860  150.0940 N   0  0  0  0  0  0  0  0  0  0  0  0
  160.0400  208.3370  156.7860 C   0  0  0  0  0  2  0  0  0  0  0  0
  161.2010  209.6070  154.4670 C   0  0  2  0  0  3  0  0  0  0  0  0
  160.8310  202.6290  151.3400 C   0  0  0  0  0  3  0  0  0  0  0  0
  161.4610  207.9820  156.3070 C   0  0  0  0  0  2  0  0  0  0  0  0
  161.0300  210.6980  156.8060 C   0  0  1  0  0  3  0  0  0  0  0  0
  161.8370  208.0860  148.4680 C   0  0  0  0  0  3  0  0  0  0  0  0
  161.6690  207.8570  149.8410 C   0  0  0  0  0  0  0  0  0  0  0  0
  161.3930  205.5080  149.4550 N   0  0  0  0  0  0  0  0  0  0  0  0
  161.0650  207.2720  154.0940 C   0  0  0  0  0  2  0  0  0  0  0  0
  160.9040  204.6510  153.5100 O   0  0  0  0  0  1  0  0  0  0  0  0
  161.2180  202.9870  147.7780 C   0  0  0  0  0  1  0  0  0  0  0  0
  161.2820  206.3300  151.7310 C   0  0  0  0  0  0  0  0  0  0  0  0
  161.1830  204.2820  149.9200 N   0  0  0  0  0  0  0  0  0  0  0  0
  160.7610  211.9900  157.2610 O   0  0  0  0  0  0  0  0  0  0  0  0
  159.3340  212.4420  156.4700 P   0  0  0  0  0  0  0  0  0  0  0  0
  158.0150  212.3980  157.2060 O   0  0  0  0  0  0  0  0  0  0  0  0
  159.3790  212.8880  155.0260 O   0  0  0  0  0  0  0  0  0  0  0  0
  2 24  1  0  0  0  0
  3 11  1  0  0  0  0
  4 21  1  0  0  0  0
  4  3  2  0  0  0  0
  5 25  1  0  0  0  0
  6 18  2  0  0  0  0
  6  5  1  0  0  0  0
  7 24  1  6  0  0  0
  7 19  1  0  0  0  0
  9 28  1  0  0  0  0
  9 15  2  0  0  0  0
 10 20  1  0  0  0  0
 11 13  2  0  0  0  0
 12  2  2  0  0  0  0
 12  8  1  0  0  0  0
 13 12  1  0  0  0  0
 14 27  1  0  0  0  0
 15 18  1  0  0  0  0
 16  1  1  0  0  0  0
 17  8  1  6  0  0  0
 17  7  1  0  0  0  0
 17 10  1  0  0  0  0
 19 16  1  0  0  0  0
 20  1  1  0  0  0  0
 20 29  1  6  0  0  0
 21 22  2  0  0  0  0
 22 14  1  0  0  0  0
 22 13  1  0  0  0  0
 23 28  1  0  0  0  0
 23 14  2  0  0  0  0
 26  9  1  0  0  0  0
 27  5  2  0  0  0  0
 27  2  1  0  0  0  0
 28  6  1  0  0  0  0
 30 31  2  0  0  0  0
 30 29  1  0  0  0  0
 32 30  2  0  0  0  0
M  END
>  <MODEL>
2

>  <REMARK>
 VINA RESULT:      -9.2      3.817      8.078
  Name = 
  2 active torsions:
  status: ('A' for Active; 'I' for Inactive)
    1  A    between atoms: C_20  and  O_29
    2  A    between atoms: O_29  and  P_30
                            x       y       z     vdW  Elec       q    Type
                         _______ _______ _______ _____ _____    ______ ____

>  <TORSDO>
F 2

$$$$
=
 OpenBabel11122412483D

 32 37  0  0  1  0  0  0  0  0999 V2000
  162.5210  210.1130  153.8450 C   0  0  0  0  0  2  0  0  0  0  0  0
  161.0620  206.5080  150.4680 C   0  0  0  0  0  0  0  0  0  0  0  0
  160.8400  202.0510  152.3550 N   0  0  0  0  0  0  0  0  0  0  0  0
  160.8690  201.4930  151.1170 C   0  0  0  0  0  3  0  0  0  0  0  0
  161.1570  206.7580  147.9790 C   0  0  0  0  0  0  0  0  0  0  0  0
  161.1850  206.1030  146.7550 C   0  0  0  0  0  0  0  0  0  0  0  0
  160.5850  208.4230  151.9430 N   0  0  1  0  0  0  0  0  0  0  0  0
  160.8950  206.2350  152.9890 C   0  0  0  0  0  2  0  0  0  0  0  0
  161.1860  204.4560  145.3920 C   0  0  0  0  0  0  0  0  0  0  0  0
  160.8740  208.2480  154.4360 C   0  0  0  0  0  2  0  0  0  0  0  0
  160.8820  203.3970  152.5290 C   0  0  0  0  0  3  0  0  0  0  0  0
  161.0040  205.6550  151.5960 C   0  0  0  0  0  0  0  0  0  0  0  0
  160.9560  204.2610  151.4250 C   0  0  0  0  0  0  0  0  0  0  0  0
  161.0530  204.5330  149.0050 C   0  0  0  0  0  0  0  0  0  0  0  0
  161.2460  205.5590  144.6110 N   0  0  0  0  0  0  0  0  0  0  0  0
  162.1200  210.3900  152.3870 C   0  0  0  0  0  2  0  0  0  0  0  0
  161.2540  207.7140  153.0460 C   0  0  2  0  0  3  0  0  0  0  0  0
  161.2460  206.6140  145.4710 C   0  0  0  0  0  3  0  0  0  0  0  0
  160.7140  209.8880  152.0060 C   0  0  0  0  0  2  0  0  0  0  0  0
  161.3430  209.6830  154.7220 C   0  0  1  0  0  3  0  0  0  0  0  0
  160.9420  202.3060  149.9860 C   0  0  0  0  0  3  0  0  0  0  0  0
  160.9860  203.7010  150.1310 C   0  0  0  0  0  0  0  0  0  0  0  0
  161.0830  203.9830  147.7540 N   0  0  0  0  0  0  0  0  0  0  0  0
  161.2120  207.9930  150.6950 C   0  0  0  0  0  2  0  0  0  0  0  0
  161.1860  208.1480  148.0090 O   0  0  0  0  0  1  0  0  0  0  0  0
  161.1620  203.0650  144.8640 C   0  0  0  0  0  1  0  0  0  0  0  0
  161.0930  205.9570  149.1580 C   0  0  0  0  0  0  0  0  0  0  0  0
  161.1480  204.7770  146.6910 N   0  0  0  0  0  0  0  0  0  0  0  0
  161.6890  209.8000  156.0690 O   0  0  0  0  0  0  0  0  0  0  0  0
  160.6510  210.9890  156.6830 P   0  0  0  0  0  0  0  0  0  0  0  0
  161.2210  212.2640  157.2610 O   0  0  0  0  0  0  0  0  0  0  0  0
  159.1550  210.7760  156.6530 O   0  0  0  0  0  0  0  0  0  0  0  0
  1 20  1  0  0  0  0
  2 24  1  0  0  0  0
  2 12  2  0  0  0  0
  3 11  1  0  0  0  0
  4  3  2  0  0  0  0
  5 25  1  0  0  0  0
  5 27  2  0  0  0  0
  6  5  1  0  0  0  0
  7 24  1  6  0  0  0
  7 19  1  0  0  0  0
  7 17  1  0  0  0  0
  9 28  1  0  0  0  0
 10 20  1  0  0  0  0
 12  8  1  0  0  0  0
 13 12  1  0  0  0  0
 13 11  2  0  0  0  0
 14 27  1  0  0  0  0
 14 22  1  0  0  0  0
 15  9  2  0  0  0  0
 15 18  1  0  0  0  0
 16  1  1  0  0  0  0
 17  8  1  1  0  0  0
 17 10  1  0  0  0  0
 18  6  2  0  0  0  0
 19 16  1  0  0  0  0
 20 29  1  1  0  0  0
 21 22  2  0  0  0  0
 21  4  1  0  0  0  0
 22 13  1  0  0  0  0
 23 14  2  0  0  0  0
 26  9  1  0  0  0  0
 27  2  1  0  0  0  0
 28  6  1  0  0  0  0
 28 23  1  0  0  0  0
 29 30  1  0  0  0  0
 30 31  2  0  0  0  0
 32 30  2  0  0  0  0
M  END
>  <MODEL>
3

>  <REMARK>
 VINA RESULT:      -8.4      3.876      8.850
  Name = 
  2 active torsions:
  status: ('A' for Active; 'I' for Inactive)
    1  A    between atoms: C_20  and  O_29
    2  A    between atoms: O_29  and  P_30
                            x       y       z     vdW  Elec       q    Type
                         _______ _______ _______ _____ _____    ______ ____

>  <TORSDO>
F 2

$$$$
=
 OpenBabel11122412483D

 32 37  0  0  1  0  0  0  0  0999 V2000
  159.7040  202.5840  144.6530 C   0  0  0  0  0  2  0  0  0  0  0  0
  161.3660  205.4340  148.6080 C   0  0  0  0  0  0  0  0  0  0  0  0
  160.7680  203.3110  152.9230 N   0  0  0  0  0  0  0  0  0  0  0  0
  160.9080  204.5020  153.5610 C   0  0  0  0  0  3  0  0  0  0  0  0
  161.7540  207.9050  148.5270 C   0  0  0  0  0  0  0  0  0  0  0  0
  161.8810  209.0780  149.2600 C   0  0  0  0  0  0  0  0  0  0  0  0
  161.7660  203.9960  146.6480 N   0  0  1  0  0  0  0  0  0  0  0  0
  161.0410  202.9160  148.7180 C   0  0  0  0  0  2  0  0  0  0  0  0
  161.9560  210.3290  150.9920 C   0  0  0  0  0  0  0  0  0  0  0  0
  161.0090  201.5970  146.6190 C   0  0  0  0  0  2  0  0  0  0  0  0
  160.8380  203.2170  151.5700 C   0  0  0  0  0  3  0  0  0  0  0  0
  161.1270  204.2730  149.3810 C   0  0  0  0  0  0  0  0  0  0  0  0
  161.0580  204.3590  150.7820 C   0  0  0  0  0  0  0  0  0  0  0  0
  161.4340  206.7650  150.6740 C   0  0  0  0  0  0  0  0  0  0  0  0
  162.1560  211.1630  149.9460 N   0  0  0  0  0  0  0  0  0  0  0  0
  160.3910  203.9520  144.5190 C   0  0  0  0  0  2  0  0  0  0  0  0
  160.8350  203.0040  147.2110 C   0  0  2  0  0  3  0  0  0  0  0  0
  162.1100  210.3750  148.8380 C   0  0  0  0  0  3  0  0  0  0  0  0
  161.7820  204.0340  145.1770 C   0  0  0  0  0  2  0  0  0  0  0  0
  160.6500  201.4790  145.1300 C   0  0  1  0  0  3  0  0  0  0  0  0
  161.1280  205.6660  152.8260 C   0  0  0  0  0  3  0  0  0  0  0  0
  161.2060  205.6050  151.4270 C   0  0  0  0  0  0  0  0  0  0  0  0
  161.5750  207.9690  151.3050 N   0  0  0  0  0  0  0  0  0  0  0  0
  161.3350  205.3160  147.1030 C   0  0  0  0  0  2  0  0  0  0  0  0
  161.8670  207.9530  147.1420 O   0  0  0  0  0  1  0  0  0  0  0  0
  161.9290  210.7700  152.4130 C   0  0  0  0  0  1  0  0  0  0  0  0
  161.5170  206.6960  149.2450 C   0  0  0  0  0  0  0  0  0  0  0  0
  161.7890  209.0650  150.5850 N   0  0  0  0  0  0  0  0  0  0  0  0
  160.0790  200.2290  144.8860 O   0  0  0  0  0  0  0  0  0  0  0  0
  161.1180  199.1220  145.6350 P   0  0  0  0  0  0  0  0  0  0  0  0
  161.5810  197.8940  144.8860 O   0  0  0  0  0  0  0  0  0  0  0  0
  161.5810  199.3610  147.0540 O   0  0  0  0  0  0  0  0  0  0  0  0
  1 20  1  0  0  0  0
  2 27  1  0  0  0  0
  2 12  2  0  0  0  0
  3  4  1  0  0  0  0
  5 27  2  0  0  0  0
  5  6  1  0  0  0  0
  6 28  1  0  0  0  0
  7 19  1  6  0  0  0
  7 24  1  0  0  0  0
  7 17  1  0  0  0  0
  8 12  1  0  0  0  0
  9 26  1  0  0  0  0
 11  3  2  0  0  0  0
 12 13  1  0  0  0  0
 13 22  2  0  0  0  0
 13 11  1  0  0  0  0
 14 23  2  0  0  0  0
 14 22  1  0  0  0  0
 15  9  2  0  0  0  0
 16  1  1  0  0  0  0
 16 19  1  0  0  0  0
 17 10  1  6  0  0  0
 17  8  1  0  0  0  0
 18  6  2  0  0  0  0
 18 15  1  0  0  0  0
 20 29  1  1  0  0  0
 20 10  1  0  0  0  0
 21  4  2  0  0  0  0
 22 21  1  0  0  0  0
 24  2  1  0  0  0  0
 25  5  1  0  0  0  0
 27 14  1  0  0  0  0
 28  9  1  0  0  0  0
 28 23  1  0  0  0  0
 29 30  1  0  0  0  0
 30 32  2  0  0  0  0
 31 30  2  0  0  0  0
M  END
>  <MODEL>
4

>  <REMARK>
 VINA RESULT:      -7.1      2.560      4.814
  Name = 
  2 active torsions:
  status: ('A' for Active; 'I' for Inactive)
    1  A    between atoms: C_20  and  O_29
    2  A    between atoms: O_29  and  P_30
                            x       y       z     vdW  Elec       q    Type
                         _______ _______ _______ _____ _____    ______ ____

>  <TORSDO>
F 2

$$$$
=
 OpenBabel11122412483D

 32 37  0  0  1  0  0  0  0  0999 V2000
  159.7240  208.5910  155.0640 C   0  0  0  0  0  2  0  0  0  0  0  0
  161.1490  205.6210  151.1040 C   0  0  0  0  0  0  0  0  0  0  0  0
  161.3240  207.9740  146.8720 N   0  0  0  0  0  0  0  0  0  0  0  0
  161.2910  206.8040  146.1860 C   0  0  0  0  0  3  0  0  0  0  0  0
  161.0580  203.1200  151.0870 C   0  0  0  0  0  0  0  0  0  0  0  0
  161.0240  201.9730  150.3060 C   0  0  0  0  0  0  0  0  0  0  0  0
  161.6450  206.8840  153.1610 N   0  0  1  0  0  0  0  0  0  0  0  0
  161.3120  208.1570  151.1010 C   0  0  0  0  0  2  0  0  0  0  0  0
  161.0080  200.7940  148.5220 C   0  0  0  0  0  0  0  0  0  0  0  0
  161.3520  209.3810  153.2570 C   0  0  0  0  0  2  0  0  0  0  0  0
  161.2970  208.0040  148.2300 C   0  0  0  0  0  3  0  0  0  0  0  0
  161.1980  206.8340  150.3770 C   0  0  0  0  0  0  0  0  0  0  0  0
  161.2310  206.8130  148.9710 C   0  0  0  0  0  0  0  0  0  0  0  0
  161.1390  204.3780  148.9840 C   0  0  0  0  0  0  0  0  0  0  0  0
  160.9590  199.9000  149.5360 N   0  0  0  0  0  0  0  0  0  0  0  0
  160.1290  207.1130  155.1790 C   0  0  0  0  0  2  0  0  0  0  0  0
  160.9670  208.0560  152.5810 C   0  0  2  0  0  3  0  0  0  0  0  0
  160.9690  200.6410  150.6770 C   0  0  0  0  0  3  0  0  0  0  0  0
  161.5300  206.7900  154.6250 C   0  0  0  0  0  2  0  0  0  0  0  0
  160.8980  209.5120  154.7180 C   0  0  1  0  0  3  0  0  0  0  0  0
  161.2260  205.5920  146.8740 C   0  0  0  0  0  3  0  0  0  0  0  0
  161.1970  205.5870  148.2760 C   0  0  0  0  0  0  0  0  0  0  0  0
  161.1040  203.1930  148.3040 N   0  0  0  0  0  0  0  0  0  0  0  0
  161.0140  205.6880  152.6070 C   0  0  0  0  0  2  0  0  0  0  0  0
  161.0430  203.0010  152.4730 O   0  0  0  0  0  1  0  0  0  0  0  0
  161.0170  200.4180  147.0830 C   0  0  0  0  0  1  0  0  0  0  0  0
  161.1130  204.3780  150.4170 C   0  0  0  0  0  0  0  0  0  0  0  0
  161.0470  202.0510  148.9800 N   0  0  0  0  0  0  0  0  0  0  0  0
  160.5520  210.8380  154.9820 O   0  0  0  0  0  0  0  0  0  0  0  0
  161.1760  211.1510  156.5250 P   0  0  0  0  0  0  0  0  0  0  0  0
  162.1310  210.1710  157.1670 O   0  0  0  0  0  0  0  0  0  0  0  0
  160.7790  212.4100  157.2600 O   0  0  0  0  0  0  0  0  0  0  0  0
  1 16  1  0  0  0  0
  2 24  1  0  0  0  0
  3 11  1  0  0  0  0
  4  3  2  0  0  0  0
  4 21  1  0  0  0  0
  5 25  1  0  0  0  0
  6 18  2  0  0  0  0
  6  5  1  0  0  0  0
  7 24  1  6  0  0  0
  7 19  1  0  0  0  0
  9 28  1  0  0  0  0
  9 15  2  0  0  0  0
 10 20  1  0  0  0  0
 11 13  2  0  0  0  0
 12  8  1  0  0  0  0
 12  2  2  0  0  0  0
 13 12  1  0  0  0  0
 14 27  1  0  0  0  0
 15 18  1  0  0  0  0
 17  8  1  6  0  0  0
 17  7  1  0  0  0  0
 17 10  1  0  0  0  0
 19 16  1  0  0  0  0
 20 29  1  6  0  0  0
 20  1  1  0  0  0  0
 21 22  2  0  0  0  0
 22 13  1  0  0  0  0
 22 14  1  0  0  0  0
 23 28  1  0  0  0  0
 23 14  2  0  0  0  0
 26  9  1  0  0  0  0
 27  5  2  0  0  0  0
 27  2  1  0  0  0  0
 28  6  1  0  0  0  0
 29 30  1  0  0  0  0
 30 31  2  0  0  0  0
 30 32  2  0  0  0  0
M  END
>  <MODEL>
5

>  <REMARK>
 VINA RESULT:      -6.9      3.639      8.015
  Name = 
  2 active torsions:
  status: ('A' for Active; 'I' for Inactive)
    1  A    between atoms: C_20  and  O_29
    2  A    between atoms: O_29  and  P_30
                            x       y       z     vdW  Elec       q    Type
                         _______ _______ _______ _____ _____    ______ ____

>  <TORSDO>
F 2

$$$$
=
 OpenBabel11122412483D

 32 37  0  0  1  0  0  0  0  0999 V2000
  160.6040  205.8370  148.2530 C   0  0  0  0  0  2  0  0  0  0  0  0
  160.7030  208.9250  152.3740 C   0  0  0  0  0  0  0  0  0  0  0  0
  160.6550  206.5420  156.5920 N   0  0  0  0  0  0  0  0  0  0  0  0
  160.2660  207.6620  157.2550 C   0  0  0  0  0  3  0  0  0  0  0  0
  160.0950  211.3530  152.3570 C   0  0  0  0  0  0  0  0  0  0  0  0
  159.6950  212.4470  153.1120 C   0  0  0  0  0  0  0  0  0  0  0  0
  161.7850  207.8490  150.4400 N   0  0  1  0  0  0  0  0  0  0  0  0
  161.3850  206.4770  152.4240 C   0  0  0  0  0  2  0  0  0  0  0  0
  159.1390  213.5470  154.8590 C   0  0  0  0  0  0  0  0  0  0  0  0
  162.0360  205.3480  150.3150 C   0  0  0  0  0  2  0  0  0  0  0  0
  160.8600  206.5450  155.2500 C   0  0  0  0  0  3  0  0  0  0  0  0
  160.8800  207.7280  153.1080 C   0  0  0  0  0  0  0  0  0  0  0  0
  160.6750  207.7170  154.4990 C   0  0  0  0  0  0  0  0  0  0  0  0
  160.0830  210.0810  154.4530 C   0  0  0  0  0  0  0  0  0  0  0  0
  159.0750  214.4400  153.8440 N   0  0  0  0  0  0  0  0  0  0  0  0
  160.7070  207.3690  148.1970 C   0  0  0  0  0  2  0  0  0  0  0  0
  161.2780  206.5470  150.9060 C   0  0  2  0  0  3  0  0  0  0  0  0
  159.4290  213.7490  152.7280 C   0  0  0  0  0  3  0  0  0  0  0  0
  161.9000  207.9570  148.9760 C   0  0  0  0  0  2  0  0  0  0  0  0
  161.8680  205.1680  148.7980 C   0  0  1  0  0  3  0  0  0  0  0  0
  160.0680  208.8520  156.5560 C   0  0  0  0  0  3  0  0  0  0  0  0
  160.2720  208.8900  155.1690 C   0  0  0  0  0  0  0  0  0  0  0  0
  159.6910  211.2140  155.1080 N   0  0  0  0  0  0  0  0  0  0  0  0
  160.8370  208.8730  150.8710 C   0  0  0  0  0  2  0  0  0  0  0  0
  160.2870  211.5050  150.9880 O   0  0  0  0  0  1  0  0  0  0  0  0
  158.8300  213.8780  156.2770 C   0  0  0  0  0  1  0  0  0  0  0  0
  160.2970  210.1150  153.0360 C   0  0  0  0  0  0  0  0  0  0  0  0
  159.5130  212.3380  154.4240 N   0  0  0  0  0  0  0  0  0  0  0  0
  161.8540  203.8070  148.4900 O   0  0  0  0  0  0  0  0  0  0  0  0
  161.9640  203.7420  146.8020 P   0  0  0  0  0  0  0  0  0  0  0  0
  161.1410  202.7380  146.0280 O   0  0  0  0  0  0  0  0  0  0  0  0
  162.8860  204.6890  146.0680 O   0  0  0  0  0  0  0  0  0  0  0  0
  1 20  1  0  0  0  0
  2 27  1  0  0  0  0
  2 12  2  0  0  0  0
  3  4  1  0  0  0  0
  5 27  2  0  0  0  0
  5  6  1  0  0  0  0
  6 28  1  0  0  0  0
  7 19  1  6  0  0  0
  7 24  1  0  0  0  0
  7 17  1  0  0  0  0
  8 12  1  0  0  0  0
  9 26  1  0  0  0  0
 11  3  2  0  0  0  0
 12 13  1  0  0  0  0
 13 22  2  0  0  0  0
 13 11  1  0  0  0  0
 14 23  2  0  0  0  0
 14 22  1  0  0  0  0
 15  9  2  0  0  0  0
 16  1  1  0  0  0  0
 16 19  1  0  0  0  0
 17 10  1  6  0  0  0
 17  8  1  0  0  0  0
 18  6  2  0  0  0  0
 18 15  1  0  0  0  0
 20 29  1  1  0  0  0
 20 10  1  0  0  0  0
 21  4  2  0  0  0  0
 22 21  1  0  0  0  0
 24  2  1  0  0  0  0
 25  5  1  0  0  0  0
 27 14  1  0  0  0  0
 28  9  1  0  0  0  0
 28 23  1  0  0  0  0
 30 29  1  0  0  0  0
 31 30  2  0  0  0  0
 32 30  2  0  0  0  0
M  END
>  <MODEL>
6

>  <REMARK>
 VINA RESULT:      -6.5      2.803      5.094
  Name = 
  2 active torsions:
  status: ('A' for Active; 'I' for Inactive)
    1  A    between atoms: C_20  and  O_29
    2  A    between atoms: O_29  and  P_30
                            x       y       z     vdW  Elec       q    Type
                         _______ _______ _______ _____ _____    ______ ____

>  <TORSDO>
F 2

$$$$
