=
 OpenBabel11122414303D

 34 40  0  0  1  0  0  0  0  0999 V2000
  161.0140  205.0460  150.2490 C   0  0  0  0  0  0  0  0  0  0  0  0
  161.1470  204.1260  147.8500 C   0  0  0  0  0  2  0  0  0  0  0  0
  159.7810  209.5800  154.7830 C   0  0  2  0  0  3  0  0  0  0  0  0
  161.1650  206.0390  152.4750 C   0  0  0  0  0  0  0  0  0  0  0  0
  160.5160  208.4770  152.7470 C   0  0  1  0  0  3  0  0  0  0  0  0
  160.1440  211.0220  153.2600 C   0  0  0  0  0  2  0  0  0  0  0  0
  159.3740  211.0210  154.5770 C   0  0  0  0  0  2  0  0  0  0  0  0
  161.2980  207.8800  155.8720 C   0  0  0  0  0  2  0  0  0  0  0  0
  161.7120  206.3690  148.3410 C   0  0  2  0  0  3  0  0  0  0  0  0
  161.0970  208.7350  151.3650 C   0  0  0  0  0  2  0  0  0  0  0  0
  160.7070  206.9290  154.8100 C   0  0  0  0  0  2  0  0  0  0  0  0
  161.3410  207.7190  148.9770 C   0  0  1  0  0  3  0  0  0  0  0  0
  161.4990  204.8160  146.5300 C   0  0  0  0  0  2  0  0  0  0  0  0
  161.2200  207.2510  153.3840 C   0  0  1  0  0  3  0  0  0  0  0  0
  160.5350  209.2130  156.0480 C   0  0  0  0  0  2  0  0  0  0  0  0
  161.0300  206.1880  151.0750 C   0  0  0  0  0  0  0  0  0  0  0  0
  160.7510  209.6820  153.6390 C   0  0  1  0  0  3  0  0  0  0  0  0
  160.7970  207.5570  150.4360 C   0  0  1  0  0  3  0  0  0  0  0  0
  161.3600  203.6270  152.1790 C   0  0  0  0  0  3  0  0  0  0  0  0
  161.3620  204.7520  153.0060 C   0  0  0  0  0  3  0  0  0  0  0  0
  161.6510  206.3050  146.8340 C   0  0  0  0  0  2  0  0  0  0  0  0
  161.1750  203.7710  150.8040 C   0  0  0  0  0  3  0  0  0  0  0  0
  160.7970  205.2630  148.7830 C   0  0  2  0  0  3  0  0  0  0  0  0
  162.5510  208.6560  148.9050 C   0  0  0  0  0  2  0  0  0  0  0  0
  162.2030  209.9740  148.2290 C   0  0  0  0  0  2  0  0  0  0  0  0
  162.1970  211.1040  149.2440 C   0  0  0  0  0  2  0  0  0  0  0  0
  161.4390  212.1660  148.7510 O   0  0  0  0  0  0  0  0  0  0  0  0
  161.9090  212.3600  147.4510 C   0  0  0  0  0  2  0  0  0  0  0  0
  160.7600  212.7280  146.5260 C   0  0  0  0  0  2  0  0  0  0  0  0
  162.8090  213.0050  143.7840 C   0  0  0  0  0  2  0  0  0  0  0  0
  160.6180  213.2590  144.0920 C   0  0  0  0  0  2  0  0  0  0  0  0
  161.2190  213.6680  145.4210 C   0  0  2  0  0  3  0  0  0  0  0  0
  161.5630  212.4950  143.3900 O   0  0  0  0  0  0  0  0  0  0  0  0
  162.6950  213.4940  145.2090 C   0  0  0  0  0  2  0  0  0  0  0  0
  1 22  2  0  0  0  0
  1 16  1  0  0  0  0
  3  7  1  1  0  0  0
  3 15  1  0  0  0  0
  4 20  1  0  0  0  0
  4 14  1  0  0  0  0
  5 10  1  6  0  0  0
  5 14  1  0  0  0  0
  5 17  1  0  0  0  0
  6  7  1  0  0  0  0
  8 15  1  0  0  0  0
  9 21  1  6  0  0  0
  9 23  1  0  0  0  0
  9 12  1  0  0  0  0
 11  8  1  0  0  0  0
 12 24  1  1  0  0  0
 12 18  1  0  0  0  0
 13 21  1  0  0  0  0
 13  2  1  0  0  0  0
 14 11  1  1  0  0  0
 16  4  2  0  0  0  0
 17  6  1  6  0  0  0
 17  3  1  0  0  0  0
 18 16  1  0  0  0  0
 18 10  1  1  0  0  0
 19 20  2  0  0  0  0
 22 19  1  0  0  0  0
 23  2  1  6  0  0  0
 23  1  1  0  0  0  0
 25 24  1  0  0  0  0
 25 26  1  0  0  0  0
 27 26  1  0  0  0  0
 28 27  1  0  0  0  0
 29 28  1  0  0  0  0
 30 34  1  0  0  0  0
 31 32  1  0  0  0  0
 32 29  1  1  0  0  0
 33 30  1  0  0  0  0
 33 31  1  0  0  0  0
 34 32  1  0  0  0  0
M  END
>  <MODEL>
1

>  <REMARK>
 VINA RESULT:      -9.5      0.000      0.000
  Name = 
  7 active torsions:
  status: ('A' for Active; 'I' for Inactive)
    1  A    between atoms: C_10  and  O_17
    2  A    between atoms: C_10  and  C_22
    3  A    between atoms: C_13  and  C_24
    4  A    between atoms: O_17  and  C_28
    5  A    between atoms: C_22  and  C_24
    6  A    between atoms: C_28  and  C_29
    7  A    between atoms: C_29  and  C_32
                            x       y       z     vdW  Elec       q    Type
                         _______ _______ _______ _____ _____    ______ ____

>  <TORSDO>
F 7

$$$$
=
 OpenBabel11122414303D

 34 40  0  0  1  0  0  0  0  0999 V2000
  160.9860  205.0460  150.3130 C   0  0  0  0  0  0  0  0  0  0  0  0
  161.1110  204.1170  147.9160 C   0  0  0  0  0  2  0  0  0  0  0  0
  159.7830  209.6010  154.8350 C   0  0  2  0  0  3  0  0  0  0  0  0
  161.1460  206.0450  152.5360 C   0  0  0  0  0  0  0  0  0  0  0  0
  160.5100  208.4870  152.8010 C   0  0  1  0  0  3  0  0  0  0  0  0
  160.1520  211.0360  153.3060 C   0  0  0  0  0  2  0  0  0  0  0  0
  159.3830  211.0430  154.6250 C   0  0  0  0  0  2  0  0  0  0  0  0
  161.2940  207.8960  155.9260 C   0  0  0  0  0  2  0  0  0  0  0  0
  161.6890  206.3600  148.4000 C   0  0  2  0  0  3  0  0  0  0  0  0
  161.0900  208.7380  151.4170 C   0  0  0  0  0  2  0  0  0  0  0  0
  160.6960  206.9450  154.8690 C   0  0  0  0  0  2  0  0  0  0  0  0
  161.3260  207.7130  149.0320 C   0  0  1  0  0  3  0  0  0  0  0  0
  161.4640  204.8010  146.5940 C   0  0  0  0  0  2  0  0  0  0  0  0
  161.2080  207.2600  153.4400 C   0  0  1  0  0  3  0  0  0  0  0  0
  160.5370  209.2330  156.1000 C   0  0  0  0  0  2  0  0  0  0  0  0
  161.0100  206.1910  151.1350 C   0  0  0  0  0  0  0  0  0  0  0  0
  160.7520  209.6940  153.6890 C   0  0  1  0  0  3  0  0  0  0  0  0
  160.7820  207.5580  150.4920 C   0  0  1  0  0  3  0  0  0  0  0  0
  161.3290  203.6310  152.2470 C   0  0  0  0  0  3  0  0  0  0  0  0
  161.3380  204.7590  153.0700 C   0  0  0  0  0  3  0  0  0  0  0  0
  161.6250  206.2900  146.8930 C   0  0  0  0  0  2  0  0  0  0  0  0
  161.1420  203.7720  150.8720 C   0  0  0  0  0  3  0  0  0  0  0  0
  160.7680  205.2590  148.8470 C   0  0  2  0  0  3  0  0  0  0  0  0
  162.5400  208.6440  148.9550 C   0  0  0  0  0  2  0  0  0  0  0  0
  162.1970  209.9600  148.2740 C   0  0  0  0  0  2  0  0  0  0  0  0
  162.2870  211.1080  149.2660 C   0  0  0  0  0  2  0  0  0  0  0  0
  162.4110  212.3120  148.5710 O   0  0  0  0  0  0  0  0  0  0  0  0
  161.1570  212.5150  147.9940 C   0  0  0  0  0  2  0  0  0  0  0  0
  160.3000  213.3910  148.8960 C   0  0  0  0  0  2  0  0  0  0  0  0
  157.3550  212.5970  147.3170 C   0  0  0  0  0  2  0  0  0  0  0  0
  157.8720  213.9540  149.0060 C   0  0  0  0  0  2  0  0  0  0  0  0
  159.1130  213.9690  148.1380 C   0  0  2  0  0  3  0  0  0  0  0  0
  157.1120  212.8190  148.6810 O   0  0  0  0  0  0  0  0  0  0  0  0
  158.7610  213.0520  147.0030 C   0  0  0  0  0  2  0  0  0  0  0  0
  1 22  2  0  0  0  0
  1 16  1  0  0  0  0
  3  7  1  1  0  0  0
  3 15  1  0  0  0  0
  4 20  1  0  0  0  0
  4 14  1  0  0  0  0
  5 10  1  6  0  0  0
  5 14  1  0  0  0  0
  5 17  1  0  0  0  0
  6  7  1  0  0  0  0
  8 15  1  0  0  0  0
  9 21  1  6  0  0  0
  9 23  1  0  0  0  0
  9 12  1  0  0  0  0
 11  8  1  0  0  0  0
 12 24  1  1  0  0  0
 12 18  1  0  0  0  0
 13 21  1  0  0  0  0
 13  2  1  0  0  0  0
 14 11  1  1  0  0  0
 16  4  2  0  0  0  0
 17  6  1  6  0  0  0
 17  3  1  0  0  0  0
 18 16  1  0  0  0  0
 18 10  1  1  0  0  0
 19 20  2  0  0  0  0
 22 19  1  0  0  0  0
 23  2  1  6  0  0  0
 23  1  1  0  0  0  0
 25 24  1  0  0  0  0
 25 26  1  0  0  0  0
 27 26  1  0  0  0  0
 28 27  1  0  0  0  0
 28 29  1  0  0  0  0
 30 33  1  0  0  0  0
 32 29  1  1  0  0  0
 32 31  1  0  0  0  0
 33 31  1  0  0  0  0
 34 30  1  0  0  0  0
 34 32  1  0  0  0  0
M  END
>  <MODEL>
2

>  <REMARK>
 VINA RESULT:      -9.4      1.568      2.180
  Name = 
  7 active torsions:
  status: ('A' for Active; 'I' for Inactive)
    1  A    between atoms: C_10  and  O_17
    2  A    between atoms: C_10  and  C_22
    3  A    between atoms: C_13  and  C_24
    4  A    between atoms: O_17  and  C_28
    5  A    between atoms: C_22  and  C_24
    6  A    between atoms: C_28  and  C_29
    7  A    between atoms: C_29  and  C_32
                            x       y       z     vdW  Elec       q    Type
                         _______ _______ _______ _____ _____    ______ ____

>  <TORSDO>
F 7

$$$$
=
 OpenBabel11122414303D

 34 40  0  0  1  0  0  0  0  0999 V2000
  160.6700  207.4020  154.3030 C   0  0  0  0  0  0  0  0  0  0  0  0
  161.2540  205.0830  153.3530 C   0  0  0  0  0  2  0  0  0  0  0  0
  158.4610  213.5380  153.9810 C   0  0  2  0  0  3  0  0  0  0  0  0
  160.3910  209.6910  155.1050 C   0  0  0  0  0  0  0  0  0  0  0  0
  159.5850  211.4480  153.4600 C   0  0  1  0  0  3  0  0  0  0  0  0
  159.0060  213.4930  151.9240 C   0  0  0  0  0  2  0  0  0  0  0  0
  158.0240  214.3110  152.7580 C   0  0  0  0  0  2  0  0  0  0  0  0
  159.8540  213.3930  156.0830 C   0  0  0  0  0  2  0  0  0  0  0  0
  161.6160  207.0540  152.0970 C   0  0  2  0  0  3  0  0  0  0  0  0
  160.3800  210.7300  152.3800 C   0  0  0  0  0  2  0  0  0  0  0  0
  159.5000  211.8930  156.0060 C   0  0  0  0  0  2  0  0  0  0  0  0
  161.0760  208.3720  151.5160 C   0  0  1  0  0  3  0  0  0  0  0  0
  161.7900  204.6680  151.9810 C   0  0  0  0  0  2  0  0  0  0  0  0
  160.2310  211.1760  154.8430 C   0  0  1  0  0  3  0  0  0  0  0  0
  159.0060  214.3080  155.1700 C   0  0  0  0  0  2  0  0  0  0  0  0
  160.4890  208.7740  154.0330 C   0  0  0  0  0  0  0  0  0  0  0  0
  159.6060  212.9440  153.2080 C   0  0  1  0  0  3  0  0  0  0  0  0
  160.3000  209.2150  152.5820 C   0  0  1  0  0  3  0  0  0  0  0  0
  160.7540  207.8640  156.6770 C   0  0  0  0  0  3  0  0  0  0  0  0
  160.5590  209.2230  156.4190 C   0  0  0  0  0  3  0  0  0  0  0  0
  161.8150  205.9250  151.1140 C   0  0  0  0  0  2  0  0  0  0  0  0
  160.7980  206.9520  155.6220 C   0  0  0  0  0  3  0  0  0  0  0  0
  160.6950  206.4700  153.1310 C   0  0  2  0  0  3  0  0  0  0  0  0
  162.2320  209.1500  150.8810 C   0  0  0  0  0  2  0  0  0  0  0  0
  161.9950  209.4030  149.4000 C   0  0  0  0  0  2  0  0  0  0  0  0
  162.4330  208.2010  148.5810 C   0  0  0  0  0  2  0  0  0  0  0  0
  161.3150  207.6020  148.0000 O   0  0  0  0  0  0  0  0  0  0  0  0
  161.8310  206.5330  147.2670 C   0  0  0  0  0  2  0  0  0  0  0  0
  161.2360  205.2230  147.7600 C   0  0  0  0  0  2  0  0  0  0  0  0
  160.8920  202.1550  146.2550 C   0  0  0  0  0  2  0  0  0  0  0  0
  161.9630  204.0260  145.6950 C   0  0  0  0  0  2  0  0  0  0  0  0
  162.0010  204.0280  147.2100 C   0  0  2  0  0  3  0  0  0  0  0  0
  160.9460  203.1570  145.2740 O   0  0  0  0  0  0  0  0  0  0  0  0
  161.2760  202.7670  147.5820 C   0  0  0  0  0  2  0  0  0  0  0  0
  1 22  1  0  0  0  0
  3  7  1  6  0  0  0
  3 15  1  0  0  0  0
  4 20  2  0  0  0  0
  5 10  1  6  0  0  0
  5 14  1  0  0  0  0
  6  7  1  0  0  0  0
  9 21  1  6  0  0  0
  9 23  1  0  0  0  0
 11  8  1  0  0  0  0
 12 24  1  1  0  0  0
 12  9  1  0  0  0  0
 12 18  1  0  0  0  0
 13  2  1  0  0  0  0
 14  4  1  0  0  0  0
 14 11  1  1  0  0  0
 15  8  1  0  0  0  0
 16  1  2  0  0  0  0
 16  4  1  0  0  0  0
 17  6  1  6  0  0  0
 17  5  1  0  0  0  0
 17  3  1  0  0  0  0
 18 10  1  1  0  0  0
 18 16  1  0  0  0  0
 20 19  1  0  0  0  0
 21 13  1  0  0  0  0
 22 19  2  0  0  0  0
 23  2  1  1  0  0  0
 23  1  1  0  0  0  0
 25 24  1  0  0  0  0
 26 25  1  0  0  0  0
 27 26  1  0  0  0  0
 28 29  1  0  0  0  0
 28 27  1  0  0  0  0
 30 34  1  0  0  0  0
 31 32  1  0  0  0  0
 32 34  1  0  0  0  0
 32 29  1  1  0  0  0
 33 31  1  0  0  0  0
 33 30  1  0  0  0  0
M  END
>  <MODEL>
3

>  <REMARK>
 VINA RESULT:      -9.2      2.907      5.757
  Name = 
  7 active torsions:
  status: ('A' for Active; 'I' for Inactive)
    1  A    between atoms: C_10  and  O_17
    2  A    between atoms: C_10  and  C_22
    3  A    between atoms: C_13  and  C_24
    4  A    between atoms: O_17  and  C_28
    5  A    between atoms: C_22  and  C_24
    6  A    between atoms: C_28  and  C_29
    7  A    between atoms: C_29  and  C_32
                            x       y       z     vdW  Elec       q    Type
                         _______ _______ _______ _____ _____    ______ ____

>  <TORSDO>
F 7

$$$$
=
 OpenBabel11122414303D

 34 40  0  0  1  0  0  0  0  0999 V2000
  160.8190  209.3360  155.5250 C   0  0  0  0  0  0  0  0  0  0  0  0
  160.5370  211.2150  157.2600 C   0  0  0  0  0  2  0  0  0  0  0  0
  162.2930  206.8790  149.6570 C   0  0  2  0  0  3  0  0  0  0  0  0
  160.8050  207.6250  153.7810 C   0  0  0  0  0  0  0  0  0  0  0  0
  161.4380  208.3130  151.4220 C   0  0  1  0  0  3  0  0  0  0  0  0
  161.8090  208.7970  148.8710 C   0  0  0  0  0  2  0  0  0  0  0  0
  162.6660  207.6270  148.3970 C   0  0  0  0  0  2  0  0  0  0  0  0
  160.8750  205.1420  150.8190 C   0  0  0  0  0  2  0  0  0  0  0  0
  159.9760  211.5450  154.9860 C   0  0  2  0  0  3  0  0  0  0  0  0
  160.7610  209.6500  151.6830 C   0  0  0  0  0  2  0  0  0  0  0  0
  161.4060  205.8180  152.1010 C   0  0  0  0  0  2  0  0  0  0  0  0
  160.3710  211.4760  153.5020 C   0  0  1  0  0  3  0  0  0  0  0  0
  160.0880  212.6680  157.0990 C   0  0  0  0  0  2  0  0  0  0  0  0
  160.7940  207.2240  152.3190 C   0  0  1  0  0  3  0  0  0  0  0  0
  161.6310  205.5200  149.5250 C   0  0  0  0  0  2  0  0  0  0  0  0
  160.8430  208.9880  154.1580 C   0  0  0  0  0  0  0  0  0  0  0  0
  161.2470  207.9120  149.9710 C   0  0  1  0  0  3  0  0  0  0  0  0
  161.0140  210.1000  153.1240 C   0  0  1  0  0  3  0  0  0  0  0  0
  160.6220  207.0000  156.1310 C   0  0  0  0  0  3  0  0  0  0  0  0
  160.6600  206.6470  154.7810 C   0  0  0  0  0  3  0  0  0  0  0  0
  159.9370  212.9230  155.6010 C   0  0  0  0  0  2  0  0  0  0  0  0
  160.7120  208.3420  156.5050 C   0  0  0  0  0  3  0  0  0  0  0  0
  160.9340  210.7900  155.8640 C   0  0  2  0  0  3  0  0  0  0  0  0
  159.1460  211.8050  152.6420 C   0  0  0  0  0  2  0  0  0  0  0  0
  159.0510  213.2940  152.3460 C   0  0  0  0  0  2  0  0  0  0  0  0
  159.8470  213.6380  151.0990 C   0  0  0  0  0  2  0  0  0  0  0  0
  158.9720  214.0150  150.0800 O   0  0  0  0  0  0  0  0  0  0  0  0
  159.5620  213.5260  148.9130 C   0  0  0  0  0  2  0  0  0  0  0  0
  160.9360  212.9520  149.2210 C   0  0  0  0  0  2  0  0  0  0  0  0
  161.3060  213.1580  145.8130 C   0  0  0  0  0  2  0  0  0  0  0  0
  162.7460  213.0190  147.5060 C   0  0  0  0  0  2  0  0  0  0  0  0
  161.5320  212.2620  148.0020 C   0  0  2  0  0  3  0  0  0  0  0  0
  162.3540  213.8460  146.4420 O   0  0  0  0  0  0  0  0  0  0  0  0
  160.5640  212.3610  146.8600 C   0  0  0  0  0  2  0  0  0  0  0  0
  1 23  1  0  0  0  0
  1 22  1  0  0  0  0
  3  7  1  6  0  0  0
  3 17  1  0  0  0  0
  4 16  1  0  0  0  0
  4 20  2  0  0  0  0
  5 10  1  6  0  0  0
  5 14  1  0  0  0  0
  7  6  1  0  0  0  0
  8 11  1  0  0  0  0
  9 21  1  1  0  0  0
  9 23  1  0  0  0  0
 12 24  1  6  0  0  0
 12  9  1  0  0  0  0
 13  2  1  0  0  0  0
 14 11  1  1  0  0  0
 14  4  1  0  0  0  0
 15  3  1  0  0  0  0
 15  8  1  0  0  0  0
 16  1  2  0  0  0  0
 17  6  1  6  0  0  0
 17  5  1  0  0  0  0
 18 10  1  6  0  0  0
 18 12  1  0  0  0  0
 18 16  1  0  0  0  0
 19 22  2  0  0  0  0
 20 19  1  0  0  0  0
 21 13  1  0  0  0  0
 23  2  1  1  0  0  0
 25 24  1  0  0  0  0
 26 25  1  0  0  0  0
 27 26  1  0  0  0  0
 28 29  1  0  0  0  0
 28 27  1  0  0  0  0
 30 33  1  0  0  0  0
 30 34  1  0  0  0  0
 31 32  1  0  0  0  0
 32 29  1  1  0  0  0
 33 31  1  0  0  0  0
 34 32  1  0  0  0  0
M  END
>  <MODEL>
4

>  <REMARK>
 VINA RESULT:      -8.3      1.652      5.979
  Name = 
  7 active torsions:
  status: ('A' for Active; 'I' for Inactive)
    1  A    between atoms: C_10  and  O_17
    2  A    between atoms: C_10  and  C_22
    3  A    between atoms: C_13  and  C_24
    4  A    between atoms: O_17  and  C_28
    5  A    between atoms: C_22  and  C_24
    6  A    between atoms: C_28  and  C_29
    7  A    between atoms: C_29  and  C_32
                            x       y       z     vdW  Elec       q    Type
                         _______ _______ _______ _____ _____    ______ ____

>  <TORSDO>
F 7

$$$$
=
 OpenBabel11122414303D

 34 40  0  0  1  0  0  0  0  0999 V2000
  162.0260  208.2390  149.3390 C   0  0  0  0  0  0  0  0  0  0  0  0
  162.4900  206.8790  147.2040 C   0  0  0  0  0  2  0  0  0  0  0  0
  161.5730  209.1450  155.7890 C   0  0  2  0  0  3  0  0  0  0  0  0
  161.3040  209.4080  151.3570 C   0  0  0  0  0  0  0  0  0  0  0  0
  161.4260  208.1690  153.5690 C   0  0  1  0  0  3  0  0  0  0  0  0
  161.2170  207.0510  155.9320 C   0  0  0  0  0  2  0  0  0  0  0  0
  161.7320  208.1210  156.8900 C   0  0  0  0  0  2  0  0  0  0  0  0
  160.2350  210.9980  154.7150 C   0  0  0  0  0  2  0  0  0  0  0  0
  161.4360  205.9010  149.0810 C   0  0  2  0  0  3  0  0  0  0  0  0
  161.0570  206.8970  152.8200 C   0  0  0  0  0  2  0  0  0  0  0  0
  161.1710  210.7420  153.5150 C   0  0  0  0  0  2  0  0  0  0  0  0
  161.4300  205.6020  150.5900 C   0  0  1  0  0  3  0  0  0  0  0  0
  162.2510  205.4020  146.8850 C   0  0  0  0  0  2  0  0  0  0  0  0
  160.8640  209.3980  152.8080 C   0  0  1  0  0  3  0  0  0  0  0  0
  160.6920  210.3540  156.0450 C   0  0  0  0  0  2  0  0  0  0  0  0
  161.6510  208.2060  150.6970 C   0  0  0  0  0  0  0  0  0  0  0  0
  160.8160  208.1460  154.9580 C   0  0  1  0  0  3  0  0  0  0  0  0
  161.7320  206.8770  151.4470 C   0  0  1  0  0  3  0  0  0  0  0  0
  161.6200  210.6240  149.2680 C   0  0  0  0  0  3  0  0  0  0  0  0
  161.2620  210.6020  150.6180 C   0  0  0  0  0  3  0  0  0  0  0  0
  161.7710  204.7410  148.1750 C   0  0  0  0  0  2  0  0  0  0  0  0
  162.0120  209.4460  148.6310 C   0  0  0  0  0  3  0  0  0  0  0  0
  162.4510  206.9460  148.7140 C   0  0  2  0  0  3  0  0  0  0  0  0
  160.0970  204.9460  150.9650 C   0  0  0  0  0  2  0  0  0  0  0  0
  160.3010  203.7220  151.8450 C   0  0  0  0  0  2  0  0  0  0  0  0
  161.2100  202.7200  151.1560 C   0  0  0  0  0  2  0  0  0  0  0  0
  160.4500  201.6400  150.7020 O   0  0  0  0  0  0  0  0  0  0  0  0
  161.1570  201.1510  149.6030 C   0  0  0  0  0  2  0  0  0  0  0  0
  160.4440  201.5230  148.3120 C   0  0  0  0  0  2  0  0  0  0  0  0
  160.6420  199.9600  145.2610 C   0  0  0  0  0  2  0  0  0  0  0  0
  160.8310  202.0820  145.9110 C   0  0  0  0  0  2  0  0  0  0  0  0
  161.3370  201.2920  147.1010 C   0  0  2  0  0  3  0  0  0  0  0  0
  160.0650  201.2290  145.1020 O   0  0  0  0  0  0  0  0  0  0  0  0
  161.2060  199.8640  146.6590 C   0  0  0  0  0  2  0  0  0  0  0  0
  1 16  1  0  0  0  0
  3 15  1  1  0  0  0
  3  7  1  0  0  0  0
  4 14  1  0  0  0  0
  5 10  1  6  0  0  0
  5 17  1  0  0  0  0
  6  7  1  0  0  0  0
  8 15  1  0  0  0  0
  9 21  1  6  0  0  0
  9 12  1  0  0  0  0
 11  8  1  0  0  0  0
 12 24  1  1  0  0  0
 12 18  1  0  0  0  0
 13  2  1  0  0  0  0
 13 21  1  0  0  0  0
 14 11  1  1  0  0  0
 14  5  1  0  0  0  0
 16  4  2  0  0  0  0
 16 18  1  0  0  0  0
 17  3  1  0  0  0  0
 17  6  1  1  0  0  0
 18 10  1  1  0  0  0
 19 20  2  0  0  0  0
 20  4  1  0  0  0  0
 22 19  1  0  0  0  0
 22  1  2  0  0  0  0
 23  2  1  6  0  0  0
 23  9  1  0  0  0  0
 23  1  1  0  0  0  0
 24 25  1  0  0  0  0
 26 25  1  0  0  0  0
 27 26  1  0  0  0  0
 28 27  1  0  0  0  0
 29 28  1  0  0  0  0
 30 34  1  0  0  0  0
 31 32  1  0  0  0  0
 32 29  1  1  0  0  0
 33 30  1  0  0  0  0
 33 31  1  0  0  0  0
 34 32  1  0  0  0  0
M  END
>  <MODEL>
5

>  <REMARK>
 VINA RESULT:      -7.9      3.496      6.866
  Name = 
  7 active torsions:
  status: ('A' for Active; 'I' for Inactive)
    1  A    between atoms: C_10  and  O_17
    2  A    between atoms: C_10  and  C_22
    3  A    between atoms: C_13  and  C_24
    4  A    between atoms: O_17  and  C_28
    5  A    between atoms: C_22  and  C_24
    6  A    between atoms: C_28  and  C_29
    7  A    between atoms: C_29  and  C_32
                            x       y       z     vdW  Elec       q    Type
                         _______ _______ _______ _____ _____    ______ ____

>  <TORSDO>
F 7

$$$$
=
 OpenBabel11122414303D

 34 40  0  0  1  0  0  0  0  0999 V2000
  160.8450  203.9960  150.2560 C   0  0  0  0  0  0  0  0  0  0  0  0
  160.3920  201.6800  149.2300 C   0  0  0  0  0  2  0  0  0  0  0  0
  161.4060  210.5010  150.1550 C   0  0  2  0  0  3  0  0  0  0  0  0
  161.5610  206.1630  151.1260 C   0  0  0  0  0  0  0  0  0  0  0  0
  161.5440  208.1520  149.5500 C   0  0  1  0  0  3  0  0  0  0  0  0
  161.8560  210.3040  148.0840 C   0  0  0  0  0  2  0  0  0  0  0  0
  161.3170  211.4280  148.9650 C   0  0  0  0  0  2  0  0  0  0  0  0
  162.6360  209.7130  152.2160 C   0  0  0  0  0  2  0  0  0  0  0  0
  161.5310  203.3620  148.0180 C   0  0  2  0  0  3  0  0  0  0  0  0
  161.9510  207.2050  148.4300 C   0  0  0  0  0  2  0  0  0  0  0  0
  161.6850  208.5020  152.1080 C   0  0  0  0  0  2  0  0  0  0  0  0
  161.5850  204.8040  147.4870 C   0  0  1  0  0  3  0  0  0  0  0  0
  160.6880  201.1270  147.8340 C   0  0  0  0  0  2  0  0  0  0  0  0
  162.0340  207.5870  150.9080 C   0  0  1  0  0  3  0  0  0  0  0  0
  162.2380  210.9300  151.3500 C   0  0  0  0  0  2  0  0  0  0  0  0
  161.2520  205.3260  150.0280 C   0  0  0  0  0  0  0  0  0  0  0  0
  162.1860  209.5100  149.3370 C   0  0  1  0  0  3  0  0  0  0  0  0
  161.2470  205.8570  148.5950 C   0  0  1  0  0  3  0  0  0  0  0  0
  161.1440  204.2980  152.6390 C   0  0  0  0  0  3  0  0  0  0  0  0
  161.5330  205.6210  152.4220 C   0  0  0  0  0  3  0  0  0  0  0  0
  161.2260  202.2890  147.0010 C   0  0  0  0  0  2  0  0  0  0  0  0
  160.7890  203.4880  151.5600 C   0  0  0  0  0  3  0  0  0  0  0  0
  160.4620  203.1810  149.0600 C   0  0  2  0  0  3  0  0  0  0  0  0
  162.9530  205.0490  146.8430 C   0  0  0  0  0  2  0  0  0  0  0  0
  162.8260  205.4000  145.3680 C   0  0  0  0  0  2  0  0  0  0  0  0
  161.6000  204.7340  144.7690 C   0  0  0  0  0  2  0  0  0  0  0  0
  161.0040  205.6000  143.8510 O   0  0  0  0  0  0  0  0  0  0  0  0
  162.0230  205.9110  142.9500 C   0  0  0  0  0  2  0  0  0  0  0  0
  161.4340  206.4710  141.6640 C   0  0  0  0  0  2  0  0  0  0  0  0
  162.2380  206.9850  138.3650 C   0  0  0  0  0  2  0  0  0  0  0  0
  162.1650  208.3140  140.1500 C   0  0  0  0  0  2  0  0  0  0  0  0
  162.5260  206.9600  140.7230 C   0  0  2  0  0  3  0  0  0  0  0  0
  161.6040  208.1260  138.8780 O   0  0  0  0  0  0  0  0  0  0  0  0
  162.5720  206.0670  139.5180 C   0  0  0  0  0  2  0  0  0  0  0  0
  1 22  1  0  0  0  0
  3  7  1  6  0  0  0
  3 15  1  0  0  0  0
  4 20  2  0  0  0  0
  5 10  1  6  0  0  0
  5 14  1  0  0  0  0
  6  7  1  0  0  0  0
  9 21  1  6  0  0  0
  9 23  1  0  0  0  0
 11  8  1  0  0  0  0
 12 24  1  1  0  0  0
 12  9  1  0  0  0  0
 12 18  1  0  0  0  0
 13  2  1  0  0  0  0
 14  4  1  0  0  0  0
 14 11  1  1  0  0  0
 15  8  1  0  0  0  0
 16  1  2  0  0  0  0
 16  4  1  0  0  0  0
 17  6  1  6  0  0  0
 17  5  1  0  0  0  0
 17  3  1  0  0  0  0
 18 10  1  1  0  0  0
 18 16  1  0  0  0  0
 20 19  1  0  0  0  0
 21 13  1  0  0  0  0
 22 19  2  0  0  0  0
 23  2  1  1  0  0  0
 23  1  1  0  0  0  0
 25 24  1  0  0  0  0
 26 25  1  0  0  0  0
 27 26  1  0  0  0  0
 28 27  1  0  0  0  0
 29 28  1  0  0  0  0
 30 33  1  0  0  0  0
 30 34  1  0  0  0  0
 31 32  1  0  0  0  0
 32 29  1  1  0  0  0
 33 31  1  0  0  0  0
 34 32  1  0  0  0  0
M  END
>  <MODEL>
6

>  <REMARK>
 VINA RESULT:      -7.2      3.315      5.093
  Name = 
  7 active torsions:
  status: ('A' for Active; 'I' for Inactive)
    1  A    between atoms: C_10  and  O_17
    2  A    between atoms: C_10  and  C_22
    3  A    between atoms: C_13  and  C_24
    4  A    between atoms: O_17  and  C_28
    5  A    between atoms: C_22  and  C_24
    6  A    between atoms: C_28  and  C_29
    7  A    between atoms: C_29  and  C_32
                            x       y       z     vdW  Elec       q    Type
                         _______ _______ _______ _____ _____    ______ ____

>  <TORSDO>
F 7

$$$$
=
 OpenBabel11122414303D

 34 40  0  0  1  0  0  0  0  0999 V2000
  161.3910  205.4420  152.1880 C   0  0  0  0  0  0  0  0  0  0  0  0
  161.6170  206.9870  154.2340 C   0  0  0  0  0  2  0  0  0  0  0  0
  162.4160  203.6440  145.9950 C   0  0  2  0  0  3  0  0  0  0  0  0
  160.9440  204.1560  150.1610 C   0  0  0  0  0  0  0  0  0  0  0  0
  161.9530  204.9680  147.9790 C   0  0  1  0  0  3  0  0  0  0  0  0
  162.6620  205.7140  145.5670 C   0  0  0  0  0  2  0  0  0  0  0  0
  163.1150  204.4180  144.9010 C   0  0  0  0  0  2  0  0  0  0  0  0
  160.4140  202.3290  146.7960 C   0  0  0  0  0  2  0  0  0  0  0  0
  161.3780  207.8630  152.0500 C   0  0  2  0  0  3  0  0  0  0  0  0
  161.7420  206.3930  148.4690 C   0  0  0  0  0  2  0  0  0  0  0  0
  161.0380  202.5580  148.1880 C   0  0  0  0  0  2  0  0  0  0  0  0
  161.8420  207.9120  150.5850 C   0  0  1  0  0  3  0  0  0  0  0  0
  161.6930  208.5120  154.3350 C   0  0  0  0  0  2  0  0  0  0  0  0
  160.9150  204.0320  148.6500 C   0  0  1  0  0  3  0  0  0  0  0  0
  161.3520  202.6350  145.6050 C   0  0  0  0  0  2  0  0  0  0  0  0
  161.4050  205.3400  150.7820 C   0  0  0  0  0  0  0  0  0  0  0  0
  161.7530  204.9050  146.4760 C   0  0  1  0  0  3  0  0  0  0  0  0
  162.0180  206.4820  149.9720 C   0  0  1  0  0  3  0  0  0  0  0  0
  160.3800  203.2490  152.3530 C   0  0  0  0  0  3  0  0  0  0  0  0
  160.4040  203.1340  150.9610 C   0  0  0  0  0  3  0  0  0  0  0  0
  161.7530  209.0490  152.9060 C   0  0  0  0  0  2  0  0  0  0  0  0
  160.8830  204.3960  152.9680 C   0  0  0  0  0  3  0  0  0  0  0  0
  161.9570  206.6910  152.7900 C   0  0  2  0  0  3  0  0  0  0  0  0
  160.8690  208.7780  149.7800 C   0  0  0  0  0  2  0  0  0  0  0  0
  161.6010  209.6960  148.8120 C   0  0  0  0  0  2  0  0  0  0  0  0
  162.2370  210.8550  149.5590 C   0  0  0  0  0  2  0  0  0  0  0  0
  161.6250  212.0480  149.1720 O   0  0  0  0  0  0  0  0  0  0  0  0
  161.5050  211.9460  147.7850 C   0  0  0  0  0  2  0  0  0  0  0  0
  162.6200  212.7230  147.1030 C   0  0  0  0  0  2  0  0  0  0  0  0
  161.8800  212.9100  143.7550 C   0  0  0  0  0  2  0  0  0  0  0  0
  160.6790  213.1960  145.6090 C   0  0  0  0  0  2  0  0  0  0  0  0
  162.0730  213.6310  146.0110 C   0  0  2  0  0  3  0  0  0  0  0  0
  160.7730  212.4050  144.4540 O   0  0  0  0  0  0  0  0  0  0  0  0
  162.8780  213.4350  144.7600 C   0  0  0  0  0  2  0  0  0  0  0  0
  1 23  1  0  0  0  0
  1 22  1  0  0  0  0
  2 13  1  0  0  0  0
  3  7  1  6  0  0  0
  3 17  1  0  0  0  0
  4 16  1  0  0  0  0
  4 20  2  0  0  0  0
  5 10  1  1  0  0  0
  5 14  1  0  0  0  0
  7  6  1  0  0  0  0
  8 11  1  0  0  0  0
  9 23  1  0  0  0  0
  9 21  1  1  0  0  0
 12 24  1  6  0  0  0
 12  9  1  0  0  0  0
 14 11  1  1  0  0  0
 14  4  1  0  0  0  0
 15  3  1  0  0  0  0
 15  8  1  0  0  0  0
 16  1  2  0  0  0  0
 17  6  1  6  0  0  0
 17  5  1  0  0  0  0
 18 10  1  6  0  0  0
 18 12  1  0  0  0  0
 18 16  1  0  0  0  0
 19 22  2  0  0  0  0
 20 19  1  0  0  0  0
 21 13  1  0  0  0  0
 23  2  1  1  0  0  0
 25 26  1  0  0  0  0
 25 24  1  0  0  0  0
 27 26  1  0  0  0  0
 28 27  1  0  0  0  0
 29 28  1  0  0  0  0
 30 33  1  0  0  0  0
 30 34  1  0  0  0  0
 31 32  1  0  0  0  0
 32 29  1  1  0  0  0
 33 31  1  0  0  0  0
 34 32  1  0  0  0  0
M  END
>  <MODEL>
7

>  <REMARK>
 VINA RESULT:      -7.1      1.325      5.705
  Name = 
  7 active torsions:
  status: ('A' for Active; 'I' for Inactive)
    1  A    between atoms: C_10  and  O_17
    2  A    between atoms: C_10  and  C_22
    3  A    between atoms: C_13  and  C_24
    4  A    between atoms: O_17  and  C_28
    5  A    between atoms: C_22  and  C_24
    6  A    between atoms: C_28  and  C_29
    7  A    between atoms: C_29  and  C_32
                            x       y       z     vdW  Elec       q    Type
                         _______ _______ _______ _____ _____    ______ ____

>  <TORSDO>
F 7

$$$$
