=
 OpenBabel11122413093D

 31 35  0  0  1  0  0  0  0  0999 V2000
  161.6090  210.8890  156.3400 C   0  0  0  0  0  0  0  0  0  0  0  0
  161.9640  209.2640  152.9340 C   0  0  2  0  0  3  0  0  0  0  0  0
  161.5510  207.9720  152.2550 C   0  0  0  0  0  0  0  0  0  0  0  0
  161.1410  205.5790  152.4060 C   0  0  0  0  0  0  0  0  0  0  0  0
  161.2630  209.4660  154.2890 C   0  0  1  0  0  3  0  0  0  0  0  0
  160.1360  211.0280  156.4970 C   0  0  0  0  0  2  0  0  0  0  0  0
  161.4510  206.7960  153.0150 C   0  0  0  0  0  3  0  0  0  0  0  0
  160.4540  211.1060  152.0450 C   0  0  0  0  0  0  0  0  0  0  0  0
  162.3880  211.3630  157.2060 O   0  0  0  0  0  0  0  0  0  0  0  0
  161.4660  209.1160  149.9810 C   0  0  0  0  0  2  0  0  0  0  0  0
  161.0340  204.4550  153.1540 F   0  0  0  0  0  0  0  0  0  0  0  0
  159.3670  210.3670  152.7720 C   0  0  0  0  0  2  0  0  0  0  0  0
  161.8400  210.5160  152.0350 C   0  0  2  0  0  3  0  0  0  0  0  0
  160.2540  212.2500  151.4570 N   0  0  0  0  0  0  0  0  0  0  0  0
  162.1300  210.2200  155.1930 N   0  0  0  0  0  2  0  0  0  0  0  0
  160.9430  205.5200  151.0260 C   0  0  0  0  0  3  0  0  0  0  0  0
  159.8100  210.0390  154.1980 C   0  0  2  0  0  3  0  0  0  0  0  0
  159.5330  211.2360  155.1160 C   0  0  0  0  0  2  0  0  0  0  0  0
  162.3180  210.2120  150.6150 C   0  0  0  0  0  2  0  0  0  0  0  0
  161.3860  207.8970  150.8520 C   0  0  0  0  0  0  0  0  0  0  0  0
  161.0650  206.6750  150.2530 C   0  0  0  0  0  3  0  0  0  0  0  0
  158.0260  212.6910  152.0770 O   0  0  0  0  0  0  0  0  0  0  0  0
  159.0230  212.9890  151.3680 C   0  0  0  0  0  0  0  0  0  0  0  0
  157.8230  212.9160  148.0530 C   0  0  0  0  0  0  0  0  0  0  0  0
  157.4640  214.4530  150.0400 C   0  0  0  0  0  2  0  0  0  0  0  0
  161.1190  213.8260  149.5080 O   0  0  0  0  0  1  0  0  0  0  0  0
  157.3170  212.3170  147.0700 O   0  0  0  0  0  0  0  0  0  0  0  0
  156.9680  213.5210  149.0300 N   0  0  0  0  0  2  0  0  0  0  0  0
  159.7790  214.0160  149.1660 C   0  0  2  0  0  3  0  0  0  0  0  0
  158.9130  214.1530  150.4240 C   0  0  2  0  0  3  0  0  0  0  0  0
  159.3090  212.8890  148.2480 C   0  0  0  0  0  2  0  0  0  0  0  0
  1  6  1  0  0  0  0
  1  9  2  0  0  0  0
  2  3  1  6  0  0  0
  2  5  1  0  0  0  0
  3  7  1  0  0  0  0
  4  7  2  0  0  0  0
  4 11  1  0  0  0  0
  5 15  1  1  0  0  0
  8 12  1  0  0  0  0
 10 19  1  0  0  0  0
 10 20  1  0  0  0  0
 13 19  1  6  0  0  0
 13  8  1  0  0  0  0
 13  2  1  0  0  0  0
 14  8  2  0  0  0  0
 15  1  1  0  0  0  0
 16  4  1  0  0  0  0
 17 12  1  6  0  0  0
 17  5  1  0  0  0  0
 17 18  1  0  0  0  0
 18  6  1  0  0  0  0
 20  3  2  0  0  0  0
 21 20  1  0  0  0  0
 21 16  2  0  0  0  0
 23 14  1  0  0  0  0
 23 22  2  0  0  0  0
 24 31  1  0  0  0  0
 24 28  1  0  0  0  0
 25 30  1  0  0  0  0
 27 24  2  0  0  0  0
 28 25  1  0  0  0  0
 29 26  1  1  0  0  0
 29 30  1  0  0  0  0
 30 23  1  6  0  0  0
 31 29  1  0  0  0  0
M  END
>  <MODEL>
1

>  <REMARK>
 VINA RESULT:      -6.7      0.000      0.000
  Name = 
  2 active torsions:
  status: ('A' for Active; 'I' for Inactive)
    1  A    between atoms: C_5  and  N_16
    2  A    between atoms: C_5  and  C_30
                            x       y       z     vdW  Elec       q    Type
                         _______ _______ _______ _____ _____    ______ ____

>  <TORSDO>
F 2

$$$$
=
 OpenBabel11122413093D

 31 35  0  0  1  0  0  0  0  0999 V2000
  161.0220  206.5080  150.5390 C   0  0  0  0  0  0  0  0  0  0  0  0
  160.3320  209.2430  153.0710 C   0  0  2  0  0  3  0  0  0  0  0  0
  160.9420  209.7640  154.3590 C   0  0  0  0  0  0  0  0  0  0  0  0
  162.1080  209.3080  156.4450 C   0  0  0  0  0  0  0  0  0  0  0  0
  161.2580  208.2540  152.3410 C   0  0  1  0  0  3  0  0  0  0  0  0
  162.3650  206.8680  150.0080 C   0  0  0  0  0  2  0  0  0  0  0  0
  161.5980  208.8710  155.2210 C   0  0  0  0  0  3  0  0  0  0  0  0
  160.9040  210.9050  151.2340 C   0  0  0  0  0  0  0  0  0  0  0  0
  160.3840  205.5410  150.0500 O   0  0  0  0  0  0  0  0  0  0  0  0
  160.0740  212.1140  153.8980 C   0  0  0  0  0  2  0  0  0  0  0  0
  162.7510  208.4380  157.2600 F   0  0  0  0  0  0  0  0  0  0  0  0
  162.3170  210.4460  151.4580 C   0  0  0  0  0  2  0  0  0  0  0  0
  159.8210  210.3520  152.1230 C   0  0  2  0  0  3  0  0  0  0  0  0
  160.5760  211.7300  150.2830 N   0  0  0  0  0  0  0  0  0  0  0  0
  160.4610  207.2750  151.6020 N   0  0  0  0  0  2  0  0  0  0  0  0
  161.9510  210.6400  156.8300 C   0  0  0  0  0  3  0  0  0  0  0  0
  162.3820  208.9190  151.4800 C   0  0  2  0  0  3  0  0  0  0  0  0
  162.4960  208.3830  150.0470 C   0  0  0  0  0  2  0  0  0  0  0  0
  159.1150  211.4550  152.9110 C   0  0  0  0  0  2  0  0  0  0  0  0
  160.7550  211.1030  154.7740 C   0  0  0  0  0  0  0  0  0  0  0  0
  161.2780  211.5340  155.9970 C   0  0  0  0  0  3  0  0  0  0  0  0
  162.5360  211.8220  148.9820 O   0  0  0  0  0  0  0  0  0  0  0  0
  161.4450  212.3520  149.3200 C   0  0  0  0  0  0  0  0  0  0  0  0
  158.4340  213.0520  147.6230 C   0  0  0  0  0  0  0  0  0  0  0  0
  159.8280  214.2810  149.3520 C   0  0  0  0  0  2  0  0  0  0  0  0
  161.9890  213.0750  146.5390 O   0  0  0  0  0  1  0  0  0  0  0  0
  157.2880  212.7290  147.2190 O   0  0  0  0  0  0  0  0  0  0  0  0
  158.5880  213.6380  148.9210 N   0  0  0  0  0  2  0  0  0  0  0  0
  160.8430  213.5670  147.1670 C   0  0  2  0  0  3  0  0  0  0  0  0
  161.0520  213.6550  148.6840 C   0  0  2  0  0  3  0  0  0  0  0  0
  159.6330  212.7150  146.7880 C   0  0  0  0  0  2  0  0  0  0  0  0
  1 15  1  0  0  0  0
  2  3  1  1  0  0  0
  3 20  2  0  0  0  0
  3  7  1  0  0  0  0
  4 16  1  0  0  0  0
  4 11  1  0  0  0  0
  5 15  1  6  0  0  0
  5  2  1  0  0  0  0
  6 18  1  0  0  0  0
  6  1  1  0  0  0  0
  7  4  2  0  0  0  0
  8 12  1  0  0  0  0
  8 13  1  0  0  0  0
  9  1  2  0  0  0  0
 10 20  1  0  0  0  0
 12 17  1  0  0  0  0
 13 19  1  1  0  0  0
 13  2  1  0  0  0  0
 14  8  2  0  0  0  0
 17 18  1  6  0  0  0
 17  5  1  0  0  0  0
 19 10  1  0  0  0  0
 20 21  1  0  0  0  0
 21 16  2  0  0  0  0
 22 23  2  0  0  0  0
 23 14  1  0  0  0  0
 24 28  1  0  0  0  0
 27 24  2  0  0  0  0
 28 25  1  0  0  0  0
 29 26  1  6  0  0  0
 29 30  1  0  0  0  0
 30 23  1  1  0  0  0
 30 25  1  0  0  0  0
 31 29  1  0  0  0  0
 31 24  1  0  0  0  0
M  END
>  <MODEL>
2

>  <REMARK>
 VINA RESULT:      -5.3      2.540      4.619
  Name = 
  2 active torsions:
  status: ('A' for Active; 'I' for Inactive)
    1  A    between atoms: C_5  and  N_16
    2  A    between atoms: C_5  and  C_30
                            x       y       z     vdW  Elec       q    Type
                         _______ _______ _______ _____ _____    ______ ____

>  <TORSDO>
F 2

$$$$
=
 OpenBabel11122413093D

 31 35  0  0  1  0  0  0  0  0999 V2000
  161.5630  208.3800  156.2640 C   0  0  0  0  0  0  0  0  0  0  0  0
  161.9790  208.1970  152.5010 C   0  0  2  0  0  3  0  0  0  0  0  0
  161.5510  207.2880  151.3650 C   0  0  0  0  0  0  0  0  0  0  0  0
  161.0700  205.0420  150.5630 C   0  0  0  0  0  0  0  0  0  0  0  0
  161.2420  207.8820  153.8150 C   0  0  1  0  0  3  0  0  0  0  0  0
  160.0900  208.5030  156.4370 C   0  0  0  0  0  2  0  0  0  0  0  0
  161.3950  205.9130  151.6040 C   0  0  0  0  0  3  0  0  0  0  0  0
  160.5500  210.2950  152.3740 C   0  0  0  0  0  0  0  0  0  0  0  0
  162.3280  208.4500  157.2600 O   0  0  0  0  0  0  0  0  0  0  0  0
  161.5700  209.2290  149.7160 C   0  0  0  0  0  2  0  0  0  0  0  0
  160.9090  203.7200  150.8110 F   0  0  0  0  0  0  0  0  0  0  0  0
  159.4200  209.3730  152.7360 C   0  0  0  0  0  2  0  0  0  0  0  0
  161.9190  209.7030  152.1600 C   0  0  2  0  0  3  0  0  0  0  0  0
  160.4000  211.5840  152.2750 N   0  0  0  0  0  0  0  0  0  0  0  0
  162.1010  208.1910  154.9570 N   0  0  0  0  0  2  0  0  0  0  0  0
  160.9140  205.5320  149.2660 C   0  0  0  0  0  3  0  0  0  0  0  0
  159.8090  208.4990  153.9290 C   0  0  2  0  0  3  0  0  0  0  0  0
  159.5370  209.2550  155.2360 C   0  0  0  0  0  2  0  0  0  0  0  0
  162.4310  209.9580  150.7420 C   0  0  0  0  0  2  0  0  0  0  0  0
  161.4290  207.7710  150.0410 C   0  0  0  0  0  0  0  0  0  0  0  0
  161.0920  206.8920  149.0070 C   0  0  0  0  0  3  0  0  0  0  0  0
  158.1840  212.1620  151.7310 O   0  0  0  0  0  0  0  0  0  0  0  0
  159.1940  212.3470  152.4600 C   0  0  0  0  0  0  0  0  0  0  0  0
  157.3940  212.1040  155.4820 C   0  0  0  0  0  0  0  0  0  0  0  0
  159.7270  212.8870  154.8600 C   0  0  0  0  0  2  0  0  0  0  0  0
  157.1710  214.4530  152.6120 O   0  0  0  0  0  1  0  0  0  0  0  0
  156.6680  211.4740  156.2920 O   0  0  0  0  0  0  0  0  0  0  0  0
  158.8200  211.9920  155.5750 N   0  0  0  0  0  2  0  0  0  0  0  0
  157.7040  213.9230  153.7880 C   0  0  2  0  0  3  0  0  0  0  0  0
  159.1180  213.3790  153.5470 C   0  0  2  0  0  3  0  0  0  0  0  0
  156.7580  212.8680  154.3610 C   0  0  0  0  0  2  0  0  0  0  0  0
  1  6  1  0  0  0  0
  1  9  2  0  0  0  0
  2  3  1  6  0  0  0
  2  5  1  0  0  0  0
  3  7  1  0  0  0  0
  4 11  1  0  0  0  0
  4  7  2  0  0  0  0
  5 17  1  0  0  0  0
  5 15  1  1  0  0  0
  8 12  1  0  0  0  0
 10 20  1  0  0  0  0
 10 19  1  0  0  0  0
 13 19  1  6  0  0  0
 13  8  1  0  0  0  0
 13  2  1  0  0  0  0
 14  8  2  0  0  0  0
 14 23  1  0  0  0  0
 15  1  1  0  0  0  0
 16  4  1  0  0  0  0
 17 12  1  6  0  0  0
 17 18  1  0  0  0  0
 18  6  1  0  0  0  0
 20  3  2  0  0  0  0
 21 16  2  0  0  0  0
 21 20  1  0  0  0  0
 22 23  2  0  0  0  0
 24 28  1  0  0  0  0
 24 27  2  0  0  0  0
 25 28  1  0  0  0  0
 29 26  1  6  0  0  0
 29 31  1  0  0  0  0
 30 23  1  6  0  0  0
 30 29  1  0  0  0  0
 30 25  1  0  0  0  0
 31 24  1  0  0  0  0
M  END
>  <MODEL>
3

>  <REMARK>
 VINA RESULT:      -4.7      2.468      3.538
  Name = 
  2 active torsions:
  status: ('A' for Active; 'I' for Inactive)
    1  A    between atoms: C_5  and  N_16
    2  A    between atoms: C_5  and  C_30
                            x       y       z     vdW  Elec       q    Type
                         _______ _______ _______ _____ _____    ______ ____

>  <TORSDO>
F 2

$$$$
=
 OpenBabel11122413093D

 31 35  0  0  1  0  0  0  0  0999 V2000
  159.9590  213.4250  143.6660 C   0  0  0  0  0  0  0  0  0  0  0  0
  160.9400  214.2540  140.0990 C   0  0  2  0  0  3  0  0  0  0  0  0
  162.1760  214.1710  139.2240 C   0  0  0  0  0  0  0  0  0  0  0  0
  164.5960  214.3190  139.0180 C   0  0  0  0  0  0  0  0  0  0  0  0
  161.1030  213.4820  141.4210 C   0  0  1  0  0  3  0  0  0  0  0  0
  160.1770  211.9550  143.7440 C   0  0  0  0  0  2  0  0  0  0  0  0
  163.4440  214.3210  139.8070 C   0  0  0  0  0  3  0  0  0  0  0  0
  159.3710  212.3890  139.3750 C   0  0  0  0  0  0  0  0  0  0  0  0
  159.4570  214.0460  144.6370 O   0  0  0  0  0  0  0  0  0  0  0  0
  160.7560  213.8980  137.1270 C   0  0  0  0  0  2  0  0  0  0  0  0
  165.8130  214.4510  139.5960 F   0  0  0  0  0  0  0  0  0  0  0  0
  160.4340  211.4790  139.9220 C   0  0  0  0  0  2  0  0  0  0  0  0
  159.6280  213.8740  139.3740 C   0  0  2  0  0  3  0  0  0  0  0  0
  158.2270  211.9490  138.9370 N   0  0  0  0  0  0  0  0  0  0  0  0
  160.3170  214.1230  142.4740 N   0  0  0  0  0  2  0  0  0  0  0  0
  164.4920  214.1850  137.6330 C   0  0  0  0  0  3  0  0  0  0  0  0
  160.8620  211.9400  141.3150 C   0  0  2  0  0  3  0  0  0  0  0  0
  159.9070  211.3650  142.3680 C   0  0  0  0  0  2  0  0  0  0  0  0
  159.6030  214.4530  137.9600 C   0  0  0  0  0  2  0  0  0  0  0  0
  162.0770  214.0740  137.8160 C   0  0  0  0  0  0  0  0  0  0  0  0
  163.2370  214.0620  137.0350 C   0  0  0  0  0  3  0  0  0  0  0  0
  158.3450  209.6740  139.5270 O   0  0  0  0  0  0  0  0  0  0  0  0
  157.7760  210.5850  138.8710 C   0  0  0  0  0  0  0  0  0  0  0  0
  154.6590  212.2320  138.7700 C   0  0  0  0  0  0  0  0  0  0  0  0
  156.2480  211.3240  137.0110 C   0  0  0  0  0  2  0  0  0  0  0  0
  155.6350  208.7630  139.6770 O   0  0  0  0  0  1  0  0  0  0  0  0
  153.8820  213.1550  139.1210 O   0  0  0  0  0  0  0  0  0  0  0  0
  155.5210  212.4240  137.6420 N   0  0  0  0  0  2  0  0  0  0  0  0
  155.3490  209.8240  138.8170 C   0  0  2  0  0  3  0  0  0  0  0  0
  156.5940  210.2250  138.0160 C   0  0  2  0  0  3  0  0  0  0  0  0
  154.7560  210.9910  139.6050 C   0  0  0  0  0  2  0  0  0  0  0  0
  1  6  1  0  0  0  0
  1  9  2  0  0  0  0
  2  3  1  6  0  0  0
  2  5  1  0  0  0  0
  3  7  1  0  0  0  0
  4 11  1  0  0  0  0
  4  7  2  0  0  0  0
  5 15  1  1  0  0  0
  8 12  1  0  0  0  0
 10 20  1  0  0  0  0
 10 19  1  0  0  0  0
 13 19  1  6  0  0  0
 13  8  1  0  0  0  0
 13  2  1  0  0  0  0
 14  8  2  0  0  0  0
 15  1  1  0  0  0  0
 16  4  1  0  0  0  0
 17 12  1  6  0  0  0
 17  5  1  0  0  0  0
 17 18  1  0  0  0  0
 18  6  1  0  0  0  0
 20  3  2  0  0  0  0
 21 16  2  0  0  0  0
 21 20  1  0  0  0  0
 23 14  1  0  0  0  0
 23 22  2  0  0  0  0
 24 27  2  0  0  0  0
 24 31  1  0  0  0  0
 25 28  1  0  0  0  0
 25 30  1  0  0  0  0
 28 24  1  0  0  0  0
 29 31  1  0  0  0  0
 29 26  1  1  0  0  0
 30 29  1  0  0  0  0
 30 23  1  1  0  0  0
M  END
>  <MODEL>
4

>  <REMARK>
 VINA RESULT:      -3.9      9.586     13.380
  Name = 
  2 active torsions:
  status: ('A' for Active; 'I' for Inactive)
    1  A    between atoms: C_5  and  N_16
    2  A    between atoms: C_5  and  C_30
                            x       y       z     vdW  Elec       q    Type
                         _______ _______ _______ _____ _____    ______ ____

>  <TORSDO>
F 2

$$$$
