=
 OpenBabel11122412403D

 30 35  0  0  1  0  0  0  0  0999 V2000
  161.1300  204.5170  148.5390 C   0  0  0  0  0  0  0  0  0  0  0  0
  161.0200  202.0460  148.1040 C   0  0  0  0  0  0  0  0  0  0  0  0
  161.0220  203.9040  152.6100 N   0  0  0  0  0  2  0  0  0  0  0  0
  161.1840  205.5920  149.4740 C   0  0  0  0  0  0  0  0  0  0  0  0
  161.2630  204.8510  147.0760 C   0  0  0  0  0  2  0  0  0  0  0  0
  160.9060  208.4490  147.2410 O   0  0  0  0  0  0  0  0  0  0  0  0
  160.9200  208.4130  150.8870 C   0  0  1  0  0  3  0  0  0  0  0  0
  160.9490  207.2500  147.6320 C   0  0  0  0  0  0  0  0  0  0  0  0
  160.8760  207.5330  152.1120 C   0  0  2  0  0  3  0  0  0  0  0  0
  161.0210  205.2040  152.9760 C   0  0  0  0  0  0  0  0  0  0  0  0
  160.5270  206.1370  146.7140 C   0  0  1  0  0  3  0  0  0  0  0  0
  161.3310  206.9400  148.9840 N   0  0  0  0  0  0  0  0  0  0  0  0
  160.9670  200.7450  148.6130 C   0  0  0  0  0  3  0  0  0  0  0  0
  161.8750  208.1590  153.0610 C   0  0  0  0  0  2  0  0  0  0  0  0
  161.3140  209.7690  151.4390 C   0  0  0  0  0  2  0  0  0  0  0  0
  161.0180  202.1980  146.7230 O   0  0  0  0  0  1  0  0  0  0  0  0
  161.0820  203.9740  151.2690 C   0  0  0  0  0  0  0  0  0  0  0  0
  160.9550  200.5150  149.9870 C   0  0  0  0  0  3  0  0  0  0  0  0
  161.0670  203.1600  148.9880 C   0  0  0  0  0  0  0  0  0  0  0  0
  161.1250  205.2790  150.8470 C   0  0  0  0  0  0  0  0  0  0  0  0
  160.9250  205.5600  154.1810 O   0  0  0  0  0  0  0  0  0  0  0  0
  161.0920  206.0840  151.9420 N   0  0  0  0  0  0  0  0  0  0  0  0
  161.9520  209.5790  152.7420 N   0  0  0  0  0  2  0  0  0  0  0  0
  163.3130  207.6550  150.2760 C   0  0  0  0  0  1  0  0  0  0  0  0
  160.9950  201.5880  150.8710 C   0  0  0  0  0  3  0  0  0  0  0  0
  161.0520  202.9000  150.3870 C   0  0  0  0  0  0  0  0  0  0  0  0
  161.9020  207.9980  149.8010 C   0  0  2  0  0  3  0  0  0  0  0  0
  160.7090  206.4730  145.2310 C   0  0  0  0  0  2  0  0  0  0  0  0
  161.5600  205.7180  143.1380 O   0  0  0  0  0  1  0  0  0  0  0  0
  161.2490  205.2960  144.4290 C   0  0  0  0  0  2  0  0  0  0  0  0
  1 19  2  0  0  0  0
  1  4  1  0  0  0  0
  2 13  2  0  0  0  0
  2 19  1  0  0  0  0
  3 10  1  0  0  0  0
  4 20  2  0  0  0  0
  5  1  1  0  0  0  0
  6  8  2  0  0  0  0
  7 15  1  1  0  0  0
  7  9  1  0  0  0  0
  8 12  1  0  0  0  0
  9 14  1  1  0  0  0
 10 21  2  0  0  0  0
 11 28  1  6  0  0  0
 11  5  1  0  0  0  0
 11  8  1  0  0  0  0
 12  4  1  0  0  0  0
 12 27  1  0  0  0  0
 13 18  1  0  0  0  0
 15 23  1  0  0  0  0
 16  2  1  0  0  0  0
 17  3  1  0  0  0  0
 18 25  2  0  0  0  0
 19 26  1  0  0  0  0
 20 17  1  0  0  0  0
 20 22  1  0  0  0  0
 22  9  1  0  0  0  0
 22 10  1  0  0  0  0
 23 14  1  0  0  0  0
 26 25  1  0  0  0  0
 26 17  2  0  0  0  0
 27 24  1  1  0  0  0
 27  7  1  0  0  0  0
 29 30  1  0  0  0  0
 30 28  1  0  0  0  0
M  END
>  <MODEL>
1

>  <REMARK>
 VINA RESULT:      -7.4      0.000      0.000
  Name = 
  2 active torsions:
  status: ('A' for Active; 'I' for Inactive)
    1  A    between atoms: C_11  and  C_28
    2  A    between atoms: C_28  and  C_30
                            x       y       z     vdW  Elec       q    Type
                         _______ _______ _______ _____ _____    ______ ____

>  <TORSDO>
F 2

$$$$
=
 OpenBabel11122412403D

 30 35  0  0  1  0  0  0  0  0999 V2000
  161.2180  208.6360  151.8810 C   0  0  0  0  0  0  0  0  0  0  0  0
  160.8350  209.5070  154.2050 C   0  0  0  0  0  0  0  0  0  0  0  0
  161.0090  204.7410  153.2020 N   0  0  0  0  0  2  0  0  0  0  0  0
  161.3450  207.5240  150.9980 C   0  0  0  0  0  0  0  0  0  0  0  0
  161.2250  210.0160  151.2770 C   0  0  0  0  0  2  0  0  0  0  0  0
  162.3110  209.2030  147.9220 O   0  0  0  0  0  0  0  0  0  0  0  0
  162.1220  205.6240  148.5870 C   0  0  1  0  0  3  0  0  0  0  0  0
  162.0030  209.0350  149.1330 C   0  0  0  0  0  0  0  0  0  0  0  0
  161.9260  204.5770  149.6560 C   0  0  2  0  0  3  0  0  0  0  0  0
  161.2630  204.1470  152.0160 C   0  0  0  0  0  0  0  0  0  0  0  0
  162.2270  210.1350  150.1330 C   0  0  1  0  0  3  0  0  0  0  0  0
  161.5030  207.7650  149.5850 N   0  0  0  0  0  0  0  0  0  0  0  0
  160.5940  209.2410  155.5560 C   0  0  0  0  0  3  0  0  0  0  0  0
  161.0360  203.5390  149.0080 C   0  0  0  0  0  2  0  0  0  0  0  0
  161.9920  204.8400  147.2970 C   0  0  0  0  0  2  0  0  0  0  0  0
  160.9320  210.8390  153.8190 O   0  0  0  0  0  1  0  0  0  0  0  0
  161.0280  206.0480  152.8880 C   0  0  0  0  0  0  0  0  0  0  0  0
  160.4940  207.9310  156.0190 C   0  0  0  0  0  3  0  0  0  0  0  0
  160.9780  208.4380  153.2770 C   0  0  0  0  0  0  0  0  0  0  0  0
  161.2750  206.2290  151.5510 C   0  0  0  0  0  0  0  0  0  0  0  0
  161.3740  202.8970  151.9040 O   0  0  0  0  0  0  0  0  0  0  0  0
  161.4230  205.0060  150.9750 N   0  0  0  0  0  0  0  0  0  0  0  0
  161.2690  203.5980  147.5700 N   0  0  0  0  0  2  0  0  0  0  0  0
  159.6550  206.3820  148.7030 C   0  0  0  0  0  1  0  0  0  0  0  0
  160.6360  206.8680  155.1330 C   0  0  0  0  0  3  0  0  0  0  0  0
  160.8750  207.1080  153.7740 C   0  0  0  0  0  0  0  0  0  0  0  0
  161.1260  206.7750  148.5890 C   0  0  2  0  0  3  0  0  0  0  0  0
  162.1870  211.5350  149.5140 C   0  0  0  0  0  2  0  0  0  0  0  0
  160.5420  213.1340  148.8750 O   0  0  0  0  0  1  0  0  0  0  0  0
  160.9520  212.3220  149.9300 C   0  0  0  0  0  2  0  0  0  0  0  0
  1 19  1  0  0  0  0
  2 13  1  0  0  0  0
  4 20  1  0  0  0  0
  4  1  2  0  0  0  0
  5  1  1  0  0  0  0
  6  8  2  0  0  0  0
  7 15  1  6  0  0  0
  7 27  1  0  0  0  0
  7  9  1  0  0  0  0
  8 12  1  0  0  0  0
  8 11  1  0  0  0  0
  9 14  1  6  0  0  0
  9 22  1  0  0  0  0
 10  3  1  0  0  0  0
 11 28  1  6  0  0  0
 11  5  1  0  0  0  0
 12  4  1  0  0  0  0
 13 18  2  0  0  0  0
 15 23  1  0  0  0  0
 16  2  1  0  0  0  0
 17  3  1  0  0  0  0
 17 26  1  0  0  0  0
 19 26  1  0  0  0  0
 19  2  2  0  0  0  0
 20 17  2  0  0  0  0
 21 10  2  0  0  0  0
 22 20  1  0  0  0  0
 22 10  1  0  0  0  0
 23 14  1  0  0  0  0
 25 18  1  0  0  0  0
 26 25  2  0  0  0  0
 27 24  1  1  0  0  0
 27 12  1  0  0  0  0
 28 30  1  0  0  0  0
 29 30  1  0  0  0  0
M  END
>  <MODEL>
2

>  <REMARK>
 VINA RESULT:      -6.8      2.349      6.075
  Name = 
  2 active torsions:
  status: ('A' for Active; 'I' for Inactive)
    1  A    between atoms: C_11  and  C_28
    2  A    between atoms: C_28  and  C_30
                            x       y       z     vdW  Elec       q    Type
                         _______ _______ _______ _____ _____    ______ ____

>  <TORSDO>
F 2

$$$$
=
 OpenBabel11122412403D

 30 35  0  0  1  0  0  0  0  0999 V2000
  161.4140  208.5990  151.2760 C   0  0  0  0  0  0  0  0  0  0  0  0
  161.8330  206.5880  149.8300 C   0  0  0  0  0  0  0  0  0  0  0  0
  160.4790  206.2090  154.4960 N   0  0  0  0  0  2  0  0  0  0  0  0
  161.0660  209.1370  152.5490 C   0  0  0  0  0  0  0  0  0  0  0  0
  161.8210  209.5630  150.1930 C   0  0  0  0  0  2  0  0  0  0  0  0
  160.8230  212.6750  151.7480 O   0  0  0  0  0  0  0  0  0  0  0  0
  160.0030  210.9990  154.8790 C   0  0  1  0  0  3  0  0  0  0  0  0
  160.9800  211.4340  151.5930 C   0  0  0  0  0  0  0  0  0  0  0  0
  159.8300  209.6590  155.5530 C   0  0  2  0  0  3  0  0  0  0  0  0
  160.1690  207.2010  155.3590 C   0  0  0  0  0  0  0  0  0  0  0  0
  160.9780  210.8350  150.2140 C   0  0  1  0  0  3  0  0  0  0  0  0
  161.0880  210.5670  152.7350 N   0  0  0  0  0  0  0  0  0  0  0  0
  161.8890  205.1970  149.7060 C   0  0  0  0  0  3  0  0  0  0  0  0
  160.4610  209.8390  156.9170 C   0  0  0  0  0  2  0  0  0  0  0  0
  160.0210  211.9770  156.0370 C   0  0  0  0  0  2  0  0  0  0  0  0
  162.1230  207.3470  148.7030 O   0  0  0  0  0  1  0  0  0  0  0  0
  160.8320  206.8800  153.3870 C   0  0  0  0  0  0  0  0  0  0  0  0
  161.6000  204.3710  150.7900 C   0  0  0  0  0  3  0  0  0  0  0  0
  161.4830  207.1840  151.0740 C   0  0  0  0  0  0  0  0  0  0  0  0
  160.7470  208.2360  153.5840 C   0  0  0  0  0  0  0  0  0  0  0  0
  159.7400  206.9690  156.5200 O   0  0  0  0  0  0  0  0  0  0  0  0
  160.3250  208.4560  154.8580 N   0  0  0  0  0  0  0  0  0  0  0  0
  160.3640  211.2530  157.2600 N   0  0  0  0  0  2  0  0  0  0  0  0
  162.5660  210.7210  154.7100 C   0  0  0  0  0  1  0  0  0  0  0  0
  161.2510  204.9290  152.0150 C   0  0  0  0  0  3  0  0  0  0  0  0
  161.1910  206.3200  152.1660 C   0  0  0  0  0  0  0  0  0  0  0  0
  161.2650  211.1700  154.0460 C   0  0  2  0  0  3  0  0  0  0  0  0
  161.4370  211.8130  149.1280 C   0  0  0  0  0  2  0  0  0  0  0  0
  163.4450  212.3140  147.9490 O   0  0  0  0  0  1  0  0  0  0  0  0
  162.5950  211.2680  148.3040 C   0  0  0  0  0  2  0  0  0  0  0  0
  1  4  1  0  0  0  0
  2 19  1  0  0  0  0
  3 10  1  0  0  0  0
  4 12  1  0  0  0  0
  4 20  2  0  0  0  0
  5 11  1  0  0  0  0
  5  1  1  0  0  0  0
  7  9  1  0  0  0  0
  7 15  1  1  0  0  0
  8  6  2  0  0  0  0
  8 12  1  0  0  0  0
  9 14  1  1  0  0  0
 10 21  2  0  0  0  0
 11 28  1  6  0  0  0
 11  8  1  0  0  0  0
 12 27  1  0  0  0  0
 13  2  2  0  0  0  0
 13 18  1  0  0  0  0
 14 23  1  0  0  0  0
 15 23  1  0  0  0  0
 16  2  1  0  0  0  0
 17 20  1  0  0  0  0
 17  3  1  0  0  0  0
 18 25  2  0  0  0  0
 19  1  2  0  0  0  0
 19 26  1  0  0  0  0
 20 22  1  0  0  0  0
 22 10  1  0  0  0  0
 22  9  1  0  0  0  0
 25 26  1  0  0  0  0
 26 17  2  0  0  0  0
 27 24  1  1  0  0  0
 27  7  1  0  0  0  0
 29 30  1  0  0  0  0
 30 28  1  0  0  0  0
M  END
>  <MODEL>
3

>  <REMARK>
 VINA RESULT:      -5.5      3.052      5.050
  Name = 
  2 active torsions:
  status: ('A' for Active; 'I' for Inactive)
    1  A    between atoms: C_11  and  C_28
    2  A    between atoms: C_28  and  C_30
                            x       y       z     vdW  Elec       q    Type
                         _______ _______ _______ _____ _____    ______ ____

>  <TORSDO>
F 2

$$$$
=
 OpenBabel11122412403D

 30 35  0  0  1  0  0  0  0  0999 V2000
  161.5760  208.2080  149.9290 C   0  0  0  0  0  0  0  0  0  0  0  0
  161.7160  206.2140  148.4080 C   0  0  0  0  0  0  0  0  0  0  0  0
  160.7520  205.8020  153.1680 N   0  0  0  0  0  2  0  0  0  0  0  0
  161.3810  208.7340  151.2390 C   0  0  0  0  0  0  0  0  0  0  0  0
  161.9560  209.1710  148.8340 C   0  0  0  0  0  2  0  0  0  0  0  0
  161.3320  212.3020  150.5390 O   0  0  0  0  0  0  0  0  0  0  0  0
  160.6670  210.6010  153.6950 C   0  0  1  0  0  3  0  0  0  0  0  0
  161.3820  211.0560  150.3440 C   0  0  0  0  0  0  0  0  0  0  0  0
  160.4560  209.2580  154.3520 C   0  0  2  0  0  3  0  0  0  0  0  0
  160.5940  206.7890  154.0750 C   0  0  0  0  0  0  0  0  0  0  0  0
  161.2150  210.4990  148.9580 C   0  0  1  0  0  3  0  0  0  0  0  0
  161.5250  210.1530  151.4530 N   0  0  0  0  0  0  0  0  0  0  0  0
  161.6570  204.8260  148.2500 C   0  0  0  0  0  3  0  0  0  0  0  0
  161.2150  209.3540  155.6570 C   0  0  0  0  0  2  0  0  0  0  0  0
  160.8590  211.5420  154.8680 C   0  0  0  0  0  2  0  0  0  0  0  0
  161.9610  206.9810  147.2760 O   0  0  0  0  0  1  0  0  0  0  0  0
  161.0550  206.4770  152.0460 C   0  0  0  0  0  0  0  0  0  0  0  0
  161.4050  203.9930  149.3370 C   0  0  0  0  0  3  0  0  0  0  0  0
  161.5220  206.7980  149.6910 C   0  0  0  0  0  0  0  0  0  0  0  0
  161.0880  207.8290  152.2790 C   0  0  0  0  0  0  0  0  0  0  0  0
  160.2520  206.5560  155.2650 O   0  0  0  0  0  0  0  0  0  0  0  0
  160.7970  208.0430  153.5900 N   0  0  0  0  0  0  0  0  0  0  0  0
  161.2540  210.7610  156.0390 N   0  0  0  0  0  2  0  0  0  0  0  0
  163.1780  210.1450  153.2900 C   0  0  0  0  0  1  0  0  0  0  0  0
  161.2070  204.5400  150.6000 C   0  0  0  0  0  3  0  0  0  0  0  0
  161.2630  205.9270  150.7860 C   0  0  0  0  0  0  0  0  0  0  0  0
  161.8610  210.7040  152.7560 C   0  0  2  0  0  3  0  0  0  0  0  0
  161.6470  211.4710  147.8570 C   0  0  0  0  0  2  0  0  0  0  0  0
  160.5880  213.5700  147.4740 O   0  0  0  0  0  1  0  0  0  0  0  0
  160.4690  212.2030  147.2300 C   0  0  0  0  0  2  0  0  0  0  0  0
  1  4  1  0  0  0  0
  2 19  1  0  0  0  0
  3 10  1  0  0  0  0
  4 12  1  0  0  0  0
  4 20  2  0  0  0  0
  5 11  1  0  0  0  0
  5  1  1  0  0  0  0
  7  9  1  0  0  0  0
  7 15  1  1  0  0  0
  8  6  2  0  0  0  0
  8 12  1  0  0  0  0
  9 14  1  1  0  0  0
 10 21  2  0  0  0  0
 11 28  1  6  0  0  0
 11  8  1  0  0  0  0
 12 27  1  0  0  0  0
 13  2  2  0  0  0  0
 13 18  1  0  0  0  0
 14 23  1  0  0  0  0
 15 23  1  0  0  0  0
 16  2  1  0  0  0  0
 17 20  1  0  0  0  0
 17  3  1  0  0  0  0
 18 25  2  0  0  0  0
 19  1  2  0  0  0  0
 19 26  1  0  0  0  0
 20 22  1  0  0  0  0
 22 10  1  0  0  0  0
 22  9  1  0  0  0  0
 25 26  1  0  0  0  0
 26 17  2  0  0  0  0
 27 24  1  1  0  0  0
 27  7  1  0  0  0  0
 30 29  1  0  0  0  0
 30 28  1  0  0  0  0
M  END
>  <MODEL>
4

>  <REMARK>
 VINA RESULT:      -5.5      2.492      4.226
  Name = 
  2 active torsions:
  status: ('A' for Active; 'I' for Inactive)
    1  A    between atoms: C_11  and  C_28
    2  A    between atoms: C_28  and  C_30
                            x       y       z     vdW  Elec       q    Type
                         _______ _______ _______ _____ _____    ______ ____

>  <TORSDO>
F 2

$$$$
=
 OpenBabel11122412403D

 30 35  0  0  1  0  0  0  0  0999 V2000
  161.2160  204.0220  148.4090 C   0  0  0  0  0  0  0  0  0  0  0  0
  161.0010  201.6000  149.0380 C   0  0  0  0  0  0  0  0  0  0  0  0
  161.2560  205.1480  152.3690 N   0  0  0  0  0  2  0  0  0  0  0  0
  161.3460  205.3830  148.8130 C   0  0  0  0  0  0  0  0  0  0  0  0
  161.3000  203.7160  146.9360 C   0  0  0  0  0  2  0  0  0  0  0  0
  161.0760  207.0750  145.6070 O   0  0  0  0  0  0  0  0  0  0  0  0
  161.2400  208.5450  148.9390 C   0  0  1  0  0  3  0  0  0  0  0  0
  161.0930  206.1440  146.4570 C   0  0  0  0  0  0  0  0  0  0  0  0
  161.2170  208.2510  150.4190 C   0  0  2  0  0  3  0  0  0  0  0  0
  161.3160  206.4810  152.1660 C   0  0  0  0  0  0  0  0  0  0  0  0
  160.5950  204.7730  146.0920 C   0  0  1  0  0  3  0  0  0  0  0  0
  161.5200  206.4000  147.8060 N   0  0  0  0  0  0  0  0  0  0  0  0
  160.9240  200.6290  150.0400 C   0  0  0  0  0  3  0  0  0  0  0  0
  162.2760  209.1630  151.0010 C   0  0  0  0  0  2  0  0  0  0  0  0
  161.7050  209.9860  148.8720 C   0  0  0  0  0  2  0  0  0  0  0  0
  160.9470  201.1690  147.7180 O   0  0  0  0  0  1  0  0  0  0  0  0
  161.2620  204.6560  151.1190 C   0  0  0  0  0  0  0  0  0  0  0  0
  160.9610  200.9860  151.3860 C   0  0  0  0  0  3  0  0  0  0  0  0
  161.1240  202.9760  149.3800 C   0  0  0  0  0  0  0  0  0  0  0  0
  161.3340  205.6670  150.1940 C   0  0  0  0  0  0  0  0  0  0  0  0
  161.2830  207.3060  153.1170 O   0  0  0  0  0  0  0  0  0  0  0  0
  161.3750  206.8520  150.8590 N   0  0  0  0  0  0  0  0  0  0  0  0
  162.3900  210.3190  150.1200 N   0  0  0  0  0  2  0  0  0  0  0  0
  163.5780  207.4850  148.6400 C   0  0  0  0  0  1  0  0  0  0  0  0
  161.0760  202.3250  151.7460 C   0  0  0  0  0  3  0  0  0  0  0  0
  161.1580  203.3170  150.7620 C   0  0  0  0  0  0  0  0  0  0  0  0
  162.1620  207.6710  148.0990 C   0  0  2  0  0  3  0  0  0  0  0  0
  160.7260  204.4580  144.5990 C   0  0  0  0  0  2  0  0  0  0  0  0
  159.7850  202.2710  144.5550 O   0  0  0  0  0  1  0  0  0  0  0  0
  159.5990  203.5710  144.0890 C   0  0  0  0  0  2  0  0  0  0  0  0
  1  4  2  0  0  0  0
  1 19  1  0  0  0  0
  2 19  2  0  0  0  0
  2 13  1  0  0  0  0
  4 20  1  0  0  0  0
  5  1  1  0  0  0  0
  6  8  2  0  0  0  0
  7 15  1  1  0  0  0
  7  9  1  0  0  0  0
  8 12  1  0  0  0  0
  9 22  1  0  0  0  0
  9 14  1  1  0  0  0
 10  3  1  0  0  0  0
 10 21  2  0  0  0  0
 11 28  1  6  0  0  0
 11  8  1  0  0  0  0
 11  5  1  0  0  0  0
 12 27  1  0  0  0  0
 12  4  1  0  0  0  0
 13 18  2  0  0  0  0
 15 23  1  0  0  0  0
 16  2  1  0  0  0  0
 17  3  1  0  0  0  0
 18 25  1  0  0  0  0
 19 26  1  0  0  0  0
 20 22  1  0  0  0  0
 20 17  2  0  0  0  0
 22 10  1  0  0  0  0
 23 14  1  0  0  0  0
 26 17  1  0  0  0  0
 26 25  2  0  0  0  0
 27 24  1  1  0  0  0
 27  7  1  0  0  0  0
 30 29  1  0  0  0  0
 30 28  1  0  0  0  0
M  END
>  <MODEL>
5

>  <REMARK>
 VINA RESULT:      -5.4      1.398      1.772
  Name = 
  2 active torsions:
  status: ('A' for Active; 'I' for Inactive)
    1  A    between atoms: C_11  and  C_28
    2  A    between atoms: C_28  and  C_30
                            x       y       z     vdW  Elec       q    Type
                         _______ _______ _______ _____ _____    ______ ____

>  <TORSDO>
F 2

$$$$
=
 OpenBabel11122412403D

 30 35  0  0  1  0  0  0  0  0999 V2000
  161.3850  208.8850  151.6530 C   0  0  0  0  0  0  0  0  0  0  0  0
  161.7110  211.1220  150.5580 C   0  0  0  0  0  0  0  0  0  0  0  0
  161.5010  206.9740  148.0070 N   0  0  0  0  0  2  0  0  0  0  0  0
  161.2690  207.4700  151.5300 C   0  0  0  0  0  0  0  0  0  0  0  0
  161.4150  209.4700  153.0410 C   0  0  0  0  0  2  0  0  0  0  0  0
  160.4180  206.5580  154.9450 O   0  0  0  0  0  0  0  0  0  0  0  0
  160.5380  204.4240  151.9920 C   0  0  1  0  0  3  0  0  0  0  0  0
  160.6880  207.2730  153.9420 C   0  0  0  0  0  0  0  0  0  0  0  0
  160.6880  204.4030  150.4900 C   0  0  2  0  0  3  0  0  0  0  0  0
  161.2750  205.7250  148.4640 C   0  0  0  0  0  0  0  0  0  0  0  0
  160.4490  208.7570  153.9830 C   0  0  1  0  0  3  0  0  0  0  0  0
  161.1560  206.6690  152.7240 N   0  0  0  0  0  0  0  0  0  0  0  0
  161.9080  211.8610  149.3890 C   0  0  0  0  0  3  0  0  0  0  0  0
  161.5830  203.2140  150.2170 C   0  0  0  0  0  2  0  0  0  0  0  0
  160.6960  202.9680  152.3830 C   0  0  0  0  0  2  0  0  0  0  0  0
  161.6440  211.8200  151.7580 O   0  0  0  0  0  1  0  0  0  0  0  0
  161.5100  207.7050  149.1350 C   0  0  0  0  0  0  0  0  0  0  0  0
  161.9760  211.2320  148.1480 C   0  0  0  0  0  3  0  0  0  0  0  0
  161.5800  209.7060  150.4980 C   0  0  0  0  0  0  0  0  0  0  0  0
  161.3050  206.9130  150.2360 C   0  0  0  0  0  0  0  0  0  0  0  0
  161.1490  204.7400  147.6880 O   0  0  0  0  0  0  0  0  0  0  0  0
  161.1580  205.6280  149.8160 N   0  0  0  0  0  0  0  0  0  0  0  0
  161.3930  202.2640  151.3070 N   0  0  0  0  0  2  0  0  0  0  0  0
  163.0110  205.0790  152.3530 C   0  0  0  0  0  1  0  0  0  0  0  0
  161.8460  209.8500  148.0620 C   0  0  0  0  0  3  0  0  0  0  0  0
  161.6500  209.0860  149.2190 C   0  0  0  0  0  0  0  0  0  0  0  0
  161.5490  205.2700  152.7520 C   0  0  2  0  0  3  0  0  0  0  0  0
  160.5270  209.3450  155.3940 C   0  0  0  0  0  2  0  0  0  0  0  0
  162.3300  208.8490  156.8690 O   0  0  0  0  0  1  0  0  0  0  0  0
  161.9540  209.6740  155.8110 C   0  0  0  0  0  2  0  0  0  0  0  0
  1  5  1  0  0  0  0
  2 16  1  0  0  0  0
  3 10  1  0  0  0  0
  3 17  1  0  0  0  0
  4  1  1  0  0  0  0
  4 12  1  0  0  0  0
  5 11  1  0  0  0  0
  7 15  1  1  0  0  0
  7 27  1  0  0  0  0
  8 11  1  0  0  0  0
  8  6  2  0  0  0  0
  9 14  1  1  0  0  0
  9  7  1  0  0  0  0
 10 22  1  0  0  0  0
 11 28  1  1  0  0  0
 12 27  1  0  0  0  0
 12  8  1  0  0  0  0
 13  2  2  0  0  0  0
 14 23  1  0  0  0  0
 17 26  2  0  0  0  0
 17 20  1  0  0  0  0
 18 13  1  0  0  0  0
 19  2  1  0  0  0  0
 19  1  2  0  0  0  0
 20  4  2  0  0  0  0
 21 10  2  0  0  0  0
 22 20  1  0  0  0  0
 22  9  1  0  0  0  0
 23 15  1  0  0  0  0
 25 18  2  0  0  0  0
 25 26  1  0  0  0  0
 26 19  1  0  0  0  0
 27 24  1  6  0  0  0
 28 30  1  0  0  0  0
 30 29  1  0  0  0  0
M  END
>  <MODEL>
6

>  <REMARK>
 VINA RESULT:      -5.2      2.201      7.434
  Name = 
  2 active torsions:
  status: ('A' for Active; 'I' for Inactive)
    1  A    between atoms: C_11  and  C_28
    2  A    between atoms: C_28  and  C_30
                            x       y       z     vdW  Elec       q    Type
                         _______ _______ _______ _____ _____    ______ ____

>  <TORSDO>
F 2

$$$$
=
 OpenBabel11122412403D

 30 35  0  0  1  0  0  0  0  0999 V2000
  161.2310  205.4660  150.1800 C   0  0  0  0  0  0  0  0  0  0  0  0
  160.8330  204.3740  152.4060 C   0  0  0  0  0  0  0  0  0  0  0  0
  160.8800  201.8530  148.2360 N   0  0  0  0  0  2  0  0  0  0  0  0
  161.3400  205.3480  148.7630 C   0  0  0  0  0  0  0  0  0  0  0  0
  161.2910  206.8480  150.7770 C   0  0  0  0  0  2  0  0  0  0  0  0
  162.4120  208.7090  147.8830 O   0  0  0  0  0  0  0  0  0  0  0  0
  162.1020  205.7890  145.7220 C   0  0  1  0  0  3  0  0  0  0  0  0
  162.0770  207.7190  148.5890 C   0  0  0  0  0  0  0  0  0  0  0  0
  161.8540  204.3010  145.6880 C   0  0  2  0  0  3  0  0  0  0  0  0
  161.1360  202.3060  146.9900 C   0  0  0  0  0  0  0  0  0  0  0  0
  162.3170  207.7300  150.0730 C   0  0  1  0  0  3  0  0  0  0  0  0
  161.5310  206.5400  147.9740 N   0  0  0  0  0  0  0  0  0  0  0  0
  160.5590  203.2130  153.1350 C   0  0  0  0  0  3  0  0  0  0  0  0
  160.9450  204.0980  144.4950 C   0  0  0  0  0  2  0  0  0  0  0  0
  161.9710  206.2030  144.2690 C   0  0  0  0  0  2  0  0  0  0  0  0
  160.9780  205.5600  153.1150 O   0  0  0  0  0  1  0  0  0  0  0  0
  160.9440  202.9720  148.9770 C   0  0  0  0  0  0  0  0  0  0  0  0
  160.4120  201.9850  152.4950 C   0  0  0  0  0  3  0  0  0  0  0  0
  160.9600  204.3180  150.9900 C   0  0  0  0  0  0  0  0  0  0  0  0
  161.2200  204.0650  148.1940 C   0  0  0  0  0  0  0  0  0  0  0  0
  161.2110  201.5320  145.9980 O   0  0  0  0  0  0  0  0  0  0  0  0
  161.3410  203.6470  146.9060 N   0  0  0  0  0  0  0  0  0  0  0  0
  161.2060  205.1810  143.5560 N   0  0  0  0  0  2  0  0  0  0  0  0
  159.6570  206.3050  146.3800 C   0  0  0  0  0  1  0  0  0  0  0  0
  160.5370  201.9040  151.1110 C   0  0  0  0  0  3  0  0  0  0  0  0
  160.8080  203.0520  150.3580 C   0  0  0  0  0  0  0  0  0  0  0  0
  161.1420  206.6070  146.5750 C   0  0  2  0  0  3  0  0  0  0  0  0
  162.3310  209.1390  150.6750 C   0  0  0  0  0  2  0  0  0  0  0  0
  161.9580  210.0560  152.8410 O   0  0  0  0  0  1  0  0  0  0  0  0
  161.3660  209.2830  151.8440 C   0  0  0  0  0  2  0  0  0  0  0  0
  1  5  1  0  0  0  0
  1 19  1  0  0  0  0
  2 16  1  0  0  0  0
  2 13  1  0  0  0  0
  3 17  1  0  0  0  0
  4  1  2  0  0  0  0
  6  8  2  0  0  0  0
  7 15  1  6  0  0  0
  7 27  1  0  0  0  0
  8 11  1  0  0  0  0
  9 14  1  6  0  0  0
  9  7  1  0  0  0  0
  9 22  1  0  0  0  0
 10  3  1  0  0  0  0
 11 28  1  1  0  0  0
 11  5  1  0  0  0  0
 12  8  1  0  0  0  0
 12  4  1  0  0  0  0
 17 26  1  0  0  0  0
 18 13  2  0  0  0  0
 19  2  2  0  0  0  0
 20  4  1  0  0  0  0
 20 17  2  0  0  0  0
 21 10  2  0  0  0  0
 22 10  1  0  0  0  0
 22 20  1  0  0  0  0
 23 15  1  0  0  0  0
 23 14  1  0  0  0  0
 25 18  1  0  0  0  0
 26 19  1  0  0  0  0
 26 25  2  0  0  0  0
 27 24  1  1  0  0  0
 27 12  1  0  0  0  0
 28 30  1  0  0  0  0
 30 29  1  0  0  0  0
M  END
>  <MODEL>
7

>  <REMARK>
 VINA RESULT:      -5.1      2.105      5.697
  Name = 
  2 active torsions:
  status: ('A' for Active; 'I' for Inactive)
    1  A    between atoms: C_11  and  C_28
    2  A    between atoms: C_28  and  C_30
                            x       y       z     vdW  Elec       q    Type
                         _______ _______ _______ _____ _____    ______ ____

>  <TORSDO>
F 2

$$$$
=
 OpenBabel11122412403D

 30 35  0  0  1  0  0  0  0  0999 V2000
  161.2930  210.2770  150.8660 C   0  0  0  0  0  0  0  0  0  0  0  0
  162.0500  209.6690  148.5490 C   0  0  0  0  0  0  0  0  0  0  0  0
  161.6990  206.3780  152.1270 N   0  0  0  0  0  2  0  0  0  0  0  0
  161.0220  209.8770  152.2070 C   0  0  0  0  0  0  0  0  0  0  0  0
  161.1940  211.7430  150.5360 C   0  0  0  0  0  2  0  0  0  0  0  0
  159.5780  212.9320  153.5480 O   0  0  0  0  0  0  0  0  0  0  0  0
  159.8590  209.6670  155.1440 C   0  0  1  0  0  3  0  0  0  0  0  0
  160.0770  212.1210  152.7210 C   0  0  0  0  0  0  0  0  0  0  0  0
  160.2220  208.2170  154.9320 C   0  0  2  0  0  3  0  0  0  0  0  0
  161.2560  206.5610  153.3890 C   0  0  0  0  0  0  0  0  0  0  0  0
  160.0210  212.4110  151.2470 C   0  0  1  0  0  3  0  0  0  0  0  0
  160.6390  210.8770  153.1720 N   0  0  0  0  0  0  0  0  0  0  0  0
  162.5050  208.6910  147.6600 C   0  0  0  0  0  3  0  0  0  0  0  0
  160.9920  207.8350  156.1770 C   0  0  0  0  0  2  0  0  0  0  0  0
  159.7770  209.7940  156.6530 C   0  0  0  0  0  2  0  0  0  0  0  0
  161.8960  210.9610  148.0620 O   0  0  0  0  0  1  0  0  0  0  0  0
  161.6350  207.6150  151.6070 C   0  0  0  0  0  0  0  0  0  0  0  0
  162.6730  207.3710  148.0720 C   0  0  0  0  0  3  0  0  0  0  0  0
  161.7540  209.3280  149.8990 C   0  0  0  0  0  0  0  0  0  0  0  0
  161.1760  208.5150  152.5360 C   0  0  0  0  0  0  0  0  0  0  0  0
  161.1230  205.6050  154.1980 O   0  0  0  0  0  0  0  0  0  0  0  0
  160.9330  207.8460  153.6940 N   0  0  0  0  0  0  0  0  0  0  0  0
  160.5300  208.6970  157.2600 N   0  0  0  0  0  2  0  0  0  0  0  0
  162.3160  210.4400  154.9340 C   0  0  0  0  0  1  0  0  0  0  0  0
  162.3860  207.0130  149.3850 C   0  0  0  0  0  3  0  0  0  0  0  0
  161.9320  207.9730  150.2970 C   0  0  0  0  0  0  0  0  0  0  0  0
  160.8470  210.6890  154.5990 C   0  0  2  0  0  3  0  0  0  0  0  0
  159.9650  213.9070  150.9240 C   0  0  0  0  0  2  0  0  0  0  0  0
  157.7970  213.3800  150.0900 O   0  0  0  0  0  1  0  0  0  0  0  0
  158.8740  214.2460  149.9160 C   0  0  0  0  0  2  0  0  0  0  0  0
  1  4  1  0  0  0  0
  2 19  1  0  0  0  0
  3 10  1  0  0  0  0
  4 20  2  0  0  0  0
  4 12  1  0  0  0  0
  5  1  1  0  0  0  0
  5 11  1  0  0  0  0
  7 15  1  1  0  0  0
  8 12  1  0  0  0  0
  8  6  2  0  0  0  0
  9  7  1  0  0  0  0
  9 14  1  1  0  0  0
 10 22  1  0  0  0  0
 10 21  2  0  0  0  0
 11 28  1  1  0  0  0
 11  8  1  0  0  0  0
 12 27  1  0  0  0  0
 13 18  1  0  0  0  0
 13  2  2  0  0  0  0
 14 23  1  0  0  0  0
 15 23  1  0  0  0  0
 16  2  1  0  0  0  0
 17  3  1  0  0  0  0
 17 20  1  0  0  0  0
 18 25  2  0  0  0  0
 19 26  1  0  0  0  0
 19  1  2  0  0  0  0
 20 22  1  0  0  0  0
 22  9  1  0  0  0  0
 25 26  1  0  0  0  0
 26 17  2  0  0  0  0
 27 24  1  6  0  0  0
 27  7  1  0  0  0  0
 30 29  1  0  0  0  0
 30 28  1  0  0  0  0
M  END
>  <MODEL>
8

>  <REMARK>
 VINA RESULT:      -4.9      3.748      6.351
  Name = 
  2 active torsions:
  status: ('A' for Active; 'I' for Inactive)
    1  A    between atoms: C_11  and  C_28
    2  A    between atoms: C_28  and  C_30
                            x       y       z     vdW  Elec       q    Type
                         _______ _______ _______ _____ _____    ______ ____

>  <TORSDO>
F 2

$$$$
=
 OpenBabel11122412403D

 30 35  0  0  1  0  0  0  0  0999 V2000
  161.2370  208.9540  151.7640 C   0  0  0  0  0  0  0  0  0  0  0  0
  160.9110  208.1680  154.1270 C   0  0  0  0  0  0  0  0  0  0  0  0
  159.9560  212.7430  152.7450 N   0  0  0  0  0  2  0  0  0  0  0  0
  161.1840  210.0120  150.8100 C   0  0  0  0  0  0  0  0  0  0  0  0
  161.8030  207.6320  151.3160 C   0  0  0  0  0  2  0  0  0  0  0  0
  161.9090  208.1990  147.7430 O   0  0  0  0  0  0  0  0  0  0  0  0
  160.9370  211.6900  148.1370 C   0  0  1  0  0  3  0  0  0  0  0  0
  161.6820  208.4180  148.9640 C   0  0  0  0  0  0  0  0  0  0  0  0
  160.4460  212.7320  149.1130 C   0  0  2  0  0  3  0  0  0  0  0  0
  160.0330  213.2730  151.5060 C   0  0  0  0  0  0  0  0  0  0  0  0
  161.3740  207.2790  149.8960 C   0  0  1  0  0  3  0  0  0  0  0  0
  161.6400  209.7660  149.4650 N   0  0  0  0  0  0  0  0  0  0  0  0
  160.5460  208.4620  155.4440 C   0  0  0  0  0  3  0  0  0  0  0  0
  161.2280  213.9780  148.7590 C   0  0  0  0  0  2  0  0  0  0  0  0
  161.3500  212.5060  146.9270 C   0  0  0  0  0  2  0  0  0  0  0  0
  161.3010  206.8650  153.8430 O   0  0  0  0  0  1  0  0  0  0  0  0
  160.3820  211.4830  152.5550 C   0  0  0  0  0  0  0  0  0  0  0  0
  160.1340  209.7430  155.8020 C   0  0  0  0  0  3  0  0  0  0  0  0
  160.8710  209.1810  153.1280 C   0  0  0  0  0  0  0  0  0  0  0  0
  160.7160  211.2700  151.2410 C   0  0  0  0  0  0  0  0  0  0  0  0
  159.6670  214.4530  151.2590 O   0  0  0  0  0  0  0  0  0  0  0  0
  160.5000  212.4230  150.5540 N   0  0  0  0  0  0  0  0  0  0  0  0
  161.5820  213.8870  147.3480 N   0  0  0  0  0  2  0  0  0  0  0  0
  163.2800  211.5990  149.2230 C   0  0  0  0  0  1  0  0  0  0  0  0
  160.0810  210.7490  154.8430 C   0  0  0  0  0  3  0  0  0  0  0  0
  160.4440  210.4820  153.5180 C   0  0  0  0  0  0  0  0  0  0  0  0
  162.1090  210.8380  148.6030 C   0  0  2  0  0  3  0  0  0  0  0  0
  161.9920  205.9500  149.4520 C   0  0  0  0  0  2  0  0  0  0  0  0
  161.5600  203.9210  148.2810 O   0  0  0  0  0  1  0  0  0  0  0  0
  160.9440  204.9380  149.0070 C   0  0  0  0  0  2  0  0  0  0  0  0
  1 19  1  0  0  0  0
  2 13  1  0  0  0  0
  4 20  1  0  0  0  0
  4  1  2  0  0  0  0
  5  1  1  0  0  0  0
  6  8  2  0  0  0  0
  7 15  1  6  0  0  0
  7 27  1  0  0  0  0
  7  9  1  0  0  0  0
  8 12  1  0  0  0  0
  8 11  1  0  0  0  0
  9 14  1  1  0  0  0
  9 22  1  0  0  0  0
 10  3  1  0  0  0  0
 11 28  1  6  0  0  0
 11  5  1  0  0  0  0
 12  4  1  0  0  0  0
 13 18  2  0  0  0  0
 15 23  1  0  0  0  0
 16  2  1  0  0  0  0
 17  3  1  0  0  0  0
 17 26  1  0  0  0  0
 19 26  1  0  0  0  0
 19  2  2  0  0  0  0
 20 17  2  0  0  0  0
 21 10  2  0  0  0  0
 22 20  1  0  0  0  0
 22 10  1  0  0  0  0
 23 14  1  0  0  0  0
 25 18  1  0  0  0  0
 26 25  2  0  0  0  0
 27 24  1  1  0  0  0
 27 12  1  0  0  0  0
 29 30  1  0  0  0  0
 30 28  1  0  0  0  0
M  END
>  <MODEL>
9

>  <REMARK>
 VINA RESULT:      -4.5      3.279      6.710
  Name = 
  2 active torsions:
  status: ('A' for Active; 'I' for Inactive)
    1  A    between atoms: C_11  and  C_28
    2  A    between atoms: C_28  and  C_30
                            x       y       z     vdW  Elec       q    Type
                         _______ _______ _______ _____ _____    ______ ____

>  <TORSDO>
F 2

$$$$
