=
 OpenBabel11122414053D

 28 31  0  0  1  0  0  0  0  0999 V2000
  158.5800  212.3380  152.3550 C   0  0  0  0  0  0  0  0  0  0  0  0
  161.0240  209.3560  150.2010 O   0  0  0  0  0  0  0  0  0  0  0  0
  162.0240  210.4960  157.1920 O   0  0  0  0  0  1  0  0  0  0  0  0
  160.4670  213.0680  150.4210 C   0  0  0  0  0  3  0  0  0  0  0  0
  161.1960  208.6950  156.0770 C   0  0  2  0  0  3  0  0  0  0  0  0
  157.6230  212.1140  153.4730 C   0  0  0  0  0  2  0  0  0  0  0  0
  162.8390  209.9920  151.7480 O   0  0  0  0  0  0  0  0  0  0  0  0
  161.6910  209.0520  151.5130 S   0  0  0  0  0  0  0  0  0  0  0  0
  161.9170  206.4860  152.3800 C   0  0  0  0  0  0  0  0  0  0  0  0
  160.5020  209.1710  152.8500 C   0  0  1  0  0  3  0  0  0  0  0  0
  158.0350  212.7590  157.0910 C   0  0  0  0  0  1  0  0  0  0  0  0
  160.9430  211.1710  154.5330 C   0  0  0  0  0  2  0  0  0  0  0  0
  160.8770  206.7700  153.4330 C   0  0  0  0  0  2  0  0  0  0  0  0
  162.3030  207.4010  151.4800 C   0  0  0  0  0  3  0  0  0  0  0  0
  157.8420  211.9590  155.8160 C   0  0  2  0  0  3  0  0  0  0  0  0
  159.8210  211.6640  152.3030 C   0  0  0  0  0  0  0  0  0  0  0  0
  160.8620  209.9550  156.7540 N   0  0  0  0  0  0  0  0  0  0  0  0
  162.5000  205.1180  152.3090 C   0  0  0  0  0  1  0  0  0  0  0  0
  158.7040  210.6930  155.8280 C   0  0  0  0  0  2  0  0  0  0  0  0
  160.7670  212.0710  151.3500 C   0  0  0  0  0  3  0  0  0  0  0  0
  158.2880  213.3430  151.4260 C   0  0  0  0  0  3  0  0  0  0  0  0
  159.2230  213.6970  150.4520 C   0  0  0  0  0  3  0  0  0  0  0  0
  158.1260  212.7940  154.6580 N   0  0  0  0  0  2  0  0  0  0  0  0
  160.2310  208.3360  155.1250 O   0  0  0  0  0  0  0  0  0  0  0  0
  160.2170  210.9530  155.8880 C   0  0  2  0  0  3  0  0  0  0  0  0
  160.9650  208.2040  153.9470 C   0  0  2  0  0  3  0  0  0  0  0  0
  161.3270  207.5840  157.1040 C   0  0  0  0  0  1  0  0  0  0  0  0
  160.1730  210.6130  153.3330 C   0  0  1  0  0  3  0  0  0  0  0  0
  1  6  1  0  0  0  0
  2  8  2  0  0  0  0
  4 22  2  0  0  0  0
  4 20  1  0  0  0  0
  5 17  1  0  0  0  0
  5 27  1  1  0  0  0
  6 23  1  0  0  0  0
  8  7  2  0  0  0  0
  9 13  1  0  0  0  0
 10  8  1  6  0  0  0
 10 28  1  0  0  0  0
 10 26  1  0  0  0  0
 14  8  1  0  0  0  0
 14  9  2  0  0  0  0
 15 19  1  0  0  0  0
 15 11  1  1  0  0  0
 16  1  1  0  0  0  0
 16 28  1  0  0  0  0
 17  3  1  0  0  0  0
 18  9  1  0  0  0  0
 19 25  1  0  0  0  0
 20 16  2  0  0  0  0
 21  1  2  0  0  0  0
 22 21  1  0  0  0  0
 23 15  1  0  0  0  0
 24  5  1  0  0  0  0
 25 12  1  6  0  0  0
 25 17  1  0  0  0  0
 26 13  1  6  0  0  0
 26 24  1  0  0  0  0
 28 12  1  6  0  0  0
M  END
>  <MODEL>
1

>  <REMARK>
 VINA RESULT:      -5.7      0.000      0.000
  Name = 
  0 active torsions:
  status: ('A' for Active; 'I' for Inactive)
                            x       y       z     vdW  Elec       q    Type
                         _______ _______ _______ _____ _____    ______ ____

>  <TORSDO>
F 0

$$$$
=
 OpenBabel11122414053D

 28 31  0  0  1  0  0  0  0  0999 V2000
  159.6030  212.2180  151.6930 C   0  0  0  0  0  0  0  0  0  0  0  0
  161.0020  208.4810  149.8000 O   0  0  0  0  0  0  0  0  0  0  0  0
  162.8390  210.0430  156.5340 O   0  0  0  0  0  1  0  0  0  0  0  0
  161.4470  212.2090  149.5870 C   0  0  0  0  0  3  0  0  0  0  0  0
  161.4830  208.4210  155.6950 C   0  0  2  0  0  3  0  0  0  0  0  0
  158.7160  212.3770  152.8780 C   0  0  0  0  0  2  0  0  0  0  0  0
  163.0410  208.7680  151.1600 O   0  0  0  0  0  0  0  0  0  0  0  0
  161.6730  208.1500  151.1030 S   0  0  0  0  0  0  0  0  0  0  0  0
  161.2960  205.7230  152.2680 C   0  0  0  0  0  0  0  0  0  0  0  0
  160.6710  208.7230  152.4750 C   0  0  1  0  0  3  0  0  0  0  0  0
  159.5800  213.2660  156.3620 C   0  0  0  0  0  1  0  0  0  0  0  0
  161.7530  210.6980  153.8730 C   0  0  0  0  0  2  0  0  0  0  0  0
  160.4570  206.3850  153.3300 C   0  0  0  0  0  2  0  0  0  0  0  0
  161.8310  206.4020  151.2430 C   0  0  0  0  0  3  0  0  0  0  0  0
  159.0810  212.4170  155.2080 C   0  0  2  0  0  3  0  0  0  0  0  0
  160.6170  211.2350  151.6600 C   0  0  0  0  0  0  0  0  0  0  0  0
  161.5440  209.7890  156.2280 N   0  0  0  0  0  0  0  0  0  0  0  0
  161.4970  204.2500  152.3360 C   0  0  0  0  0  1  0  0  0  0  0  0
  159.5820  210.9750  155.3310 C   0  0  0  0  0  2  0  0  0  0  0  0
  161.5540  211.2720  150.6170 C   0  0  0  0  0  3  0  0  0  0  0  0
  159.5050  213.1610  150.6630 C   0  0  0  0  0  3  0  0  0  0  0  0
  160.4150  213.1480  149.6060 C   0  0  0  0  0  3  0  0  0  0  0  0
  159.4740  213.0200  153.9430 N   0  0  0  0  0  2  0  0  0  0  0  0
  160.3820  208.2350  154.8470 O   0  0  0  0  0  0  0  0  0  0  0  0
  161.1110  210.8260  155.2800 C   0  0  2  0  0  3  0  0  0  0  0  0
  160.9570  207.7890  153.6570 C   0  0  2  0  0  3  0  0  0  0  0  0
  161.4050  207.4310  156.8440 C   0  0  0  0  0  1  0  0  0  0  0  0
  160.7690  210.2430  152.7920 C   0  0  1  0  0  3  0  0  0  0  0  0
  1  6  1  0  0  0  0
  2  8  2  0  0  0  0
  4 22  2  0  0  0  0
  4 20  1  0  0  0  0
  5 17  1  0  0  0  0
  5 27  1  1  0  0  0
  6 23  1  0  0  0  0
  8  7  2  0  0  0  0
  8 14  1  0  0  0  0
  9 18  1  0  0  0  0
  9 13  1  0  0  0  0
 10  8  1  6  0  0  0
 10 28  1  0  0  0  0
 10 26  1  0  0  0  0
 14  9  2  0  0  0  0
 15 19  1  0  0  0  0
 15 11  1  1  0  0  0
 16  1  1  0  0  0  0
 16 28  1  0  0  0  0
 17  3  1  0  0  0  0
 20 16  2  0  0  0  0
 21  1  2  0  0  0  0
 22 21  1  0  0  0  0
 23 15  1  0  0  0  0
 24  5  1  0  0  0  0
 25 12  1  6  0  0  0
 25 19  1  0  0  0  0
 25 17  1  0  0  0  0
 26 13  1  6  0  0  0
 26 24  1  0  0  0  0
 28 12  1  6  0  0  0
M  END
>  <MODEL>
2

>  <REMARK>
 VINA RESULT:      -5.3      1.029      1.142
  Name = 
  0 active torsions:
  status: ('A' for Active; 'I' for Inactive)
                            x       y       z     vdW  Elec       q    Type
                         _______ _______ _______ _____ _____    ______ ____

>  <TORSDO>
F 0

$$$$
=
 OpenBabel11122414053D

 28 31  0  0  1  0  0  0  0  0999 V2000
  162.1440  205.9940  151.5530 C   0  0  0  0  0  0  0  0  0  0  0  0
  161.3940  201.6850  150.9420 O   0  0  0  0  0  0  0  0  0  0  0  0
  159.2700  206.4640  146.0610 O   0  0  0  0  0  1  0  0  0  0  0  0
  160.3440  204.5510  153.1380 C   0  0  0  0  0  3  0  0  0  0  0  0
  160.8820  204.8610  145.9770 C   0  0  2  0  0  3  0  0  0  0  0  0
  162.9830  206.9110  150.7340 C   0  0  0  0  0  2  0  0  0  0  0  0
  159.3240  202.3920  149.7980 O   0  0  0  0  0  0  0  0  0  0  0  0
  160.7760  202.0470  149.6210 S   0  0  0  0  0  0  0  0  0  0  0  0
  161.5370  200.7670  147.3470 C   0  0  0  0  0  0  0  0  0  0  0  0
  161.6590  203.4230  148.8850 C   0  0  1  0  0  3  0  0  0  0  0  0
  161.9560  209.4620  148.2610 C   0  0  0  0  0  1  0  0  0  0  0  0
  160.2550  205.6660  148.7230 C   0  0  0  0  0  2  0  0  0  0  0  0
  162.2480  202.0200  146.9030 C   0  0  0  0  0  2  0  0  0  0  0  0
  160.9060  200.6740  148.5260 C   0  0  0  0  0  3  0  0  0  0  0  0
  162.5970  208.1930  148.7920 C   0  0  2  0  0  3  0  0  0  0  0  0
  161.3050  205.0290  150.9520 C   0  0  0  0  0  0  0  0  0  0  0  0
  160.5920  206.2680  146.2850 N   0  0  0  0  0  0  0  0  0  0  0  0
  161.5810  199.5730  146.4600 C   0  0  0  0  0  1  0  0  0  0  0  0
  162.3390  207.0130  147.8510 C   0  0  0  0  0  2  0  0  0  0  0  0
  160.3840  204.3440  151.7570 C   0  0  0  0  0  3  0  0  0  0  0  0
  162.0930  206.2030  152.9360 C   0  0  0  0  0  3  0  0  0  0  0  0
  161.2060  205.4740  153.7280 C   0  0  0  0  0  3  0  0  0  0  0  0
  162.1200  207.9240  150.1410 N   0  0  0  0  0  2  0  0  0  0  0  0
  162.0050  204.3900  146.6720 O   0  0  0  0  0  0  0  0  0  0  0  0
  160.8560  206.6470  147.6810 C   0  0  2  0  0  3  0  0  0  0  0  0
  161.5210  203.2790  147.3640 C   0  0  2  0  0  3  0  0  0  0  0  0
  161.1120  204.7030  144.4840 C   0  0  0  0  0  1  0  0  0  0  0  0
  161.3100  204.8290  149.4520 C   0  0  1  0  0  3  0  0  0  0  0  0
  1 21  1  0  0  0  0
  3 17  1  0  0  0  0
  4 22  1  0  0  0  0
  5 27  1  6  0  0  0
  5 17  1  0  0  0  0
  5 24  1  0  0  0  0
  6  1  1  0  0  0  0
  8  7  2  0  0  0  0
  8  2  2  0  0  0  0
  9 14  2  0  0  0  0
 10 28  1  0  0  0  0
 10  8  1  1  0  0  0
 13  9  1  0  0  0  0
 14  8  1  0  0  0  0
 15 11  1  6  0  0  0
 15 23  1  0  0  0  0
 16  1  2  0  0  0  0
 16 20  1  0  0  0  0
 17 25  1  0  0  0  0
 18  9  1  0  0  0  0
 19 15  1  0  0  0  0
 20  4  2  0  0  0  0
 21 22  2  0  0  0  0
 23  6  1  0  0  0  0
 24 26  1  0  0  0  0
 25 19  1  6  0  0  0
 25 12  1  0  0  0  0
 26 13  1  6  0  0  0
 26 10  1  0  0  0  0
 28 12  1  1  0  0  0
 28 16  1  0  0  0  0
M  END
>  <MODEL>
3

>  <REMARK>
 VINA RESULT:      -5.3      5.861      8.852
  Name = 
  0 active torsions:
  status: ('A' for Active; 'I' for Inactive)
                            x       y       z     vdW  Elec       q    Type
                         _______ _______ _______ _____ _____    ______ ____

>  <TORSDO>
F 0

$$$$
=
 OpenBabel11122414053D

 28 31  0  0  1  0  0  0  0  0999 V2000
  161.0970  210.6160  156.2670 C   0  0  0  0  0  0  0  0  0  0  0  0
  162.5640  209.4020  152.2830 O   0  0  0  0  0  0  0  0  0  0  0  0
  156.1960  212.5840  152.9880 O   0  0  0  0  0  1  0  0  0  0  0  0
  161.3700  207.9300  155.5310 C   0  0  0  0  0  3  0  0  0  0  0  0
  158.1300  213.3100  152.0350 C   0  0  2  0  0  3  0  0  0  0  0  0
  160.8010  211.9880  156.7640 C   0  0  0  0  0  2  0  0  0  0  0  0
  160.1940  208.9770  151.7390 O   0  0  0  0  0  0  0  0  0  0  0  0
  161.3040  209.9900  151.7120 S   0  0  0  0  0  0  0  0  0  0  0  0
  161.4180  211.7360  149.6320 C   0  0  0  0  0  0  0  0  0  0  0  0
  160.8350  211.4540  152.6350 C   0  0  1  0  0  3  0  0  0  0  0  0
  157.5400  213.6680  157.2370 C   0  0  0  0  0  1  0  0  0  0  0  0
  158.5890  211.2060  154.0200 C   0  0  0  0  0  2  0  0  0  0  0  0
  161.0350  212.8500  150.5720 C   0  0  0  0  0  2  0  0  0  0  0  0
  161.5950  210.4730  150.0440 C   0  0  0  0  0  3  0  0  0  0  0  0
  158.9160  213.4020  156.6550 C   0  0  2  0  0  3  0  0  0  0  0  0
  160.7330  210.2120  154.9630 C   0  0  0  0  0  0  0  0  0  0  0  0
  157.3300  213.2710  153.2670 N   0  0  0  0  0  0  0  0  0  0  0  0
  161.6550  212.0630  148.2000 C   0  0  0  0  0  1  0  0  0  0  0  0
  158.9080  213.5670  155.1330 C   0  0  0  0  0  2  0  0  0  0  0  0
  160.8420  208.8550  154.6270 C   0  0  0  0  0  3  0  0  0  0  0  0
  161.6170  209.6840  157.1720 C   0  0  0  0  0  3  0  0  0  0  0  0
  161.7670  208.3480  156.8000 C   0  0  0  0  0  3  0  0  0  0  0  0
  159.3760  212.0800  157.0540 N   0  0  0  0  0  2  0  0  0  0  0  0
  159.4980  213.4670  152.3000 O   0  0  0  0  0  0  0  0  0  0  0  0
  157.9860  212.5870  154.3910 C   0  0  2  0  0  3  0  0  0  0  0  0
  160.0820  212.3720  151.6630 C   0  0  2  0  0  3  0  0  0  0  0  0
  157.6540  214.4530  151.1560 C   0  0  0  0  0  1  0  0  0  0  0  0
  160.1200  211.1960  153.9920 C   0  0  1  0  0  3  0  0  0  0  0  0
  1  6  1  0  0  0  0
  1 21  1  0  0  0  0
  3 17  1  0  0  0  0
  4 22  1  0  0  0  0
  5 27  1  6  0  0  0
  5 24  1  0  0  0  0
  5 17  1  0  0  0  0
  6 23  1  0  0  0  0
  8  7  2  0  0  0  0
  8  2  2  0  0  0  0
  9 14  2  0  0  0  0
  9 13  1  0  0  0  0
 10  8  1  6  0  0  0
 10 28  1  0  0  0  0
 14  8  1  0  0  0  0
 15 23  1  0  0  0  0
 15 11  1  6  0  0  0
 16  1  2  0  0  0  0
 17 25  1  0  0  0  0
 18  9  1  0  0  0  0
 19 15  1  0  0  0  0
 20 16  1  0  0  0  0
 20  4  2  0  0  0  0
 22 21  2  0  0  0  0
 25 12  1  6  0  0  0
 25 19  1  0  0  0  0
 26 13  1  6  0  0  0
 26 24  1  0  0  0  0
 26 10  1  0  0  0  0
 28 12  1  6  0  0  0
 28 16  1  0  0  0  0
M  END
>  <MODEL>
4

>  <REMARK>
 VINA RESULT:      -3.1      2.117      5.256
  Name = 
  0 active torsions:
  status: ('A' for Active; 'I' for Inactive)
                            x       y       z     vdW  Elec       q    Type
                         _______ _______ _______ _____ _____    ______ ____

>  <TORSDO>
F 0

$$$$
