=
 OpenBabel11122413493D

 37 42  0  0  1  0  0  0  0  0999 V2000
  159.1340  212.0820  155.7500 C   0  0  0  0  0  0  0  0  0  0  0  0
  158.8860  212.6800  151.6160 C   0  0  0  0  0  0  0  0  0  0  0  0
  161.9780  211.7590  149.6260 O   0  0  0  0  0  0  0  0  0  0  0  0
  158.0660  213.3210  153.7880 C   0  0  0  0  0  0  0  0  0  0  0  0
  159.9620  211.8180  151.0450 C   0  0  1  0  0  3  0  0  0  0  0  0
  158.9080  212.5860  152.9690 C   0  0  0  0  0  0  0  0  0  0  0  0
  160.8360  212.5220  149.9850 C   0  0  2  0  0  3  0  0  0  0  0  0
  157.1320  214.1740  153.1750 C   0  0  0  0  0  3  0  0  0  0  0  0
  159.9390  211.7590  153.4390 N   0  0  0  0  0  0  0  0  0  0  0  0
  158.2610  210.8380  155.8010 C   0  0  0  0  0  1  0  0  0  0  0  0
  157.9880  213.6370  149.4850 C   0  0  0  0  0  2  0  0  0  0  0  0
  157.0750  214.2610  151.7640 C   0  0  0  0  0  3  0  0  0  0  0  0
  160.3530  211.8190  154.8380 C   0  0  0  0  0  2  0  0  0  0  0  0
  162.2880  209.3950  150.0450 C   0  0  1  0  0  3  0  0  0  0  0  0
  161.5630  210.4720  149.2350 C   0  0  0  0  0  2  0  0  0  0  0  0
  157.9630  213.5050  150.9710 C   0  0  0  0  0  0  0  0  0  0  0  0
  160.7840  211.4150  152.2960 C   0  0  1  0  0  3  0  0  0  0  0  0
  158.2860  213.2890  155.2770 C   0  0  0  0  0  2  0  0  0  0  0  0
  160.0130  212.9900  148.7580 C   0  0  1  0  0  3  0  0  0  0  0  0
  159.6340  212.3660  157.1490 C   0  0  0  0  0  1  0  0  0  0  0  0
  162.4190  209.6860  151.5490 C   0  0  0  0  0  2  0  0  0  0  0  0
  161.0940  209.9260  152.2690 C   0  0  0  0  0  2  0  0  0  0  0  0
  159.2410  214.1180  149.0850 O   0  0  0  0  0  0  0  0  0  0  0  0
  162.0100  214.1210  147.7630 C   0  0  0  0  0  3  0  0  0  0  0  0
  160.8810  213.3150  147.5800 C   0  0  0  0  0  0  0  0  0  0  0  0
  160.5740  212.8280  146.3010 C   0  0  0  0  0  3  0  0  0  0  0  0
  161.0650  212.6310  143.8610 C   0  0  0  0  0  1  0  0  0  0  0  0
  162.5190  213.9540  145.4020 C   0  0  0  0  0  3  0  0  0  0  0  0
  161.3920  213.1480  145.2150 C   0  0  0  0  0  0  0  0  0  0  0  0
  162.8280  214.4410  146.6750 C   0  0  0  0  0  3  0  0  0  0  0  0
  160.6700  205.3310  149.6720 O   0  0  0  0  0  0  0  0  0  0  0  0
  161.2190  205.7310  150.7330 C   0  0  0  0  0  0  0  0  0  0  0  0
  161.7040  208.0440  149.7890 C   0  0  0  0  0  0  0  0  0  0  0  0
  161.7420  207.0630  150.8300 N   0  0  0  0  0  2  0  0  0  0  0  0
  161.1740  207.7850  148.6740 O   0  0  0  0  0  0  0  0  0  0  0  0
  160.8180  203.5820  151.8220 C   0  0  0  0  0  2  0  0  0  0  0  0
  161.3160  204.8110  151.8700 C   0  0  0  0  0  3  0  0  0  0  0  0
  1 10  1  0  0  0  0
  1 20  1  0  0  0  0
  2  6  1  0  0  0  0
  4 18  1  0  0  0  0
  5  2  1  1  0  0  0
  5 17  1  0  0  0  0
  6  9  1  0  0  0  0
  6  4  2  0  0  0  0
  7  3  1  6  0  0  0
  7  5  1  0  0  0  0
  8  4  1  0  0  0  0
  9 13  1  0  0  0  0
 11 16  1  0  0  0  0
 12  8  2  0  0  0  0
 13  1  1  0  0  0  0
 14 33  1  1  0  0  0
 14 21  1  0  0  0  0
 15  3  1  0  0  0  0
 15 14  1  0  0  0  0
 16  2  2  0  0  0  0
 16 12  1  0  0  0  0
 17 22  1  6  0  0  0
 17  9  1  0  0  0  0
 18  1  1  0  0  0  0
 19 25  1  6  0  0  0
 19 23  1  0  0  0  0
 19  7  1  0  0  0  0
 21 22  1  0  0  0  0
 23 11  1  0  0  0  0
 25 24  1  0  0  0  0
 26 25  2  0  0  0  0
 27 29  1  0  0  0  0
 28 30  1  0  0  0  0
 29 28  2  0  0  0  0
 29 26  1  0  0  0  0
 30 24  2  0  0  0  0
 31 32  2  0  0  0  0
 32 34  1  0  0  0  0
 32 37  1  0  0  0  0
 33 34  1  0  0  0  0
 35 33  2  0  0  0  0
 36 37  2  0  0  0  0
M  END
>  <MODEL>
1

>  <REMARK>
 VINA RESULT:      -6.8      0.000      0.000
  Name = 
  3 active torsions:
  status: ('A' for Active; 'I' for Inactive)
    1  A    between atoms: C_4  and  C_37
    2  A    between atoms: C_8  and  C_18
    3  A    between atoms: C_23  and  C_30
                            x       y       z     vdW  Elec       q    Type
                         _______ _______ _______ _____ _____    ______ ____

>  <TORSDO>
F 3

$$$$
=
 OpenBabel11122413493D

 37 42  0  0  1  0  0  0  0  0999 V2000
  160.9440  210.5460  155.9900 C   0  0  0  0  0  0  0  0  0  0  0  0
  159.8710  211.9130  152.1830 C   0  0  0  0  0  0  0  0  0  0  0  0
  162.3220  211.1360  149.3980 O   0  0  0  0  0  0  0  0  0  0  0  0
  159.6270  212.2050  154.5620 C   0  0  0  0  0  0  0  0  0  0  0  0
  160.6860  211.0890  151.2430 C   0  0  1  0  0  3  0  0  0  0  0  0
  160.1760  211.5700  153.4600 C   0  0  0  0  0  0  0  0  0  0  0  0
  161.3850  211.9070  150.1350 C   0  0  2  0  0  3  0  0  0  0  0  0
  158.6880  213.2260  154.3320 C   0  0  0  0  0  3  0  0  0  0  0  0
  161.1810  210.5920  153.5340 N   0  0  0  0  0  0  0  0  0  0  0  0
  159.9630  209.3860  156.0440 C   0  0  0  0  0  1  0  0  0  0  0  0
  158.6470  213.3120  150.5080 C   0  0  0  0  0  2  0  0  0  0  0  0
  158.3350  213.5740  153.0080 C   0  0  0  0  0  3  0  0  0  0  0  0
  161.8950  210.3630  154.7860 C   0  0  0  0  0  2  0  0  0  0  0  0
  162.4360  208.7190  149.3460 C   0  0  1  0  0  3  0  0  0  0  0  0
  161.6840  209.9790  148.9140 C   0  0  0  0  0  2  0  0  0  0  0  0
  158.9330  212.9110  151.9160 C   0  0  0  0  0  0  0  0  0  0  0  0
  161.7080  210.4000  152.1840 C   0  0  1  0  0  3  0  0  0  0  0  0
  160.1610  211.8820  155.9320 C   0  0  0  0  0  2  0  0  0  0  0  0
  160.3740  212.6550  149.2290 C   0  0  1  0  0  3  0  0  0  0  0  0
  161.7670  210.5280  157.2590 C   0  0  0  0  0  1  0  0  0  0  0  0
  162.9260  208.7170  150.8030 C   0  0  0  0  0  2  0  0  0  0  0  0
  161.8280  208.9230  151.8440 C   0  0  0  0  0  2  0  0  0  0  0  0
  159.8310  213.7600  149.9060 O   0  0  0  0  0  0  0  0  0  0  0  0
  162.0880  213.9960  147.9950 C   0  0  0  0  0  3  0  0  0  0  0  0
  160.9960  213.1220  147.9480 C   0  0  0  0  0  0  0  0  0  0  0  0
  160.4950  212.7020  146.7070 C   0  0  0  0  0  3  0  0  0  0  0  0
  160.5520  212.7080  144.2110 C   0  0  0  0  0  1  0  0  0  0  0  0
  162.1750  214.0280  145.5760 C   0  0  0  0  0  3  0  0  0  0  0  0
  161.0840  213.1550  145.5240 C   0  0  0  0  0  0  0  0  0  0  0  0
  162.6760  214.4480  146.8110 C   0  0  0  0  0  3  0  0  0  0  0  0
  160.4250  205.0150  148.1170 O   0  0  0  0  0  0  0  0  0  0  0  0
  161.4940  205.4010  147.5730 C   0  0  0  0  0  0  0  0  0  0  0  0
  161.6550  207.4880  149.0210 C   0  0  0  0  0  0  0  0  0  0  0  0
  162.1310  206.6160  147.9910 N   0  0  0  0  0  2  0  0  0  0  0  0
  160.6000  207.2200  149.6590 O   0  0  0  0  0  0  0  0  0  0  0  0
  161.7410  204.7560  145.2310 C   0  0  0  0  0  2  0  0  0  0  0  0
  162.0770  204.5870  146.5030 C   0  0  0  0  0  3  0  0  0  0  0  0
  1 10  1  0  0  0  0
  1 20  1  0  0  0  0
  2  6  1  0  0  0  0
  4 18  1  0  0  0  0
  5  2  1  1  0  0  0
  5 17  1  0  0  0  0
  6  9  1  0  0  0  0
  6  4  2  0  0  0  0
  7  3  1  6  0  0  0
  7  5  1  0  0  0  0
  8  4  1  0  0  0  0
  9 13  1  0  0  0  0
 11 16  1  0  0  0  0
 12  8  2  0  0  0  0
 13  1  1  0  0  0  0
 14 33  1  1  0  0  0
 14 21  1  0  0  0  0
 15 14  1  0  0  0  0
 15  3  1  0  0  0  0
 16  2  2  0  0  0  0
 16 12  1  0  0  0  0
 17 22  1  6  0  0  0
 17  9  1  0  0  0  0
 18  1  1  0  0  0  0
 19 25  1  6  0  0  0
 19 23  1  0  0  0  0
 19  7  1  0  0  0  0
 21 22  1  0  0  0  0
 23 11  1  0  0  0  0
 25 24  1  0  0  0  0
 26 25  2  0  0  0  0
 27 29  1  0  0  0  0
 28 30  1  0  0  0  0
 29 28  2  0  0  0  0
 29 26  1  0  0  0  0
 30 24  2  0  0  0  0
 32 34  1  0  0  0  0
 32 31  2  0  0  0  0
 33 35  2  0  0  0  0
 34 33  1  0  0  0  0
 36 37  2  0  0  0  0
 37 32  1  0  0  0  0
M  END
>  <MODEL>
2

>  <REMARK>
 VINA RESULT:      -6.2      1.766      2.104
  Name = 
  3 active torsions:
  status: ('A' for Active; 'I' for Inactive)
    1  A    between atoms: C_4  and  C_37
    2  A    between atoms: C_8  and  C_18
    3  A    between atoms: C_23  and  C_30
                            x       y       z     vdW  Elec       q    Type
                         _______ _______ _______ _____ _____    ______ ____

>  <TORSDO>
F 3

$$$$
