=
 OpenBabel11122413223D

 31 35  0  0  0  0  0  0  0  0999 V2000
  161.1340  201.2580  149.4900 C   0  0  0  0  0  0  0  0  0  0  0  0
  161.0720  204.9810  149.0150 C   0  0  0  0  0  0  0  0  0  0  0  0
  161.0780  205.1900  147.6110 C   0  0  0  0  0  0  0  0  0  0  0  0
  161.0070  206.0170  154.1690 O   0  0  0  0  0  0  0  0  0  0  0  0
  160.9940  207.1110  153.5450 C   0  0  0  0  0  0  0  0  0  0  0  0
  161.1360  204.3350  145.3250 C   0  0  0  0  0  0  0  0  0  0  0  0
  161.0880  203.6940  149.6140 C   0  0  0  0  0  0  0  0  0  0  0  0
  161.1220  201.1770  150.8820 C   0  0  0  0  0  3  0  0  0  0  0  0
  161.0610  204.1250  146.7030 O   0  0  0  0  0  0  0  0  0  0  0  0
  161.0350  205.9620  151.2560 C   0  0  0  0  0  0  0  0  0  0  0  0
  161.1630  200.1270  148.7450 F   0  0  0  0  0  0  0  0  0  0  0  0
  161.0360  207.5610  147.9510 N   0  0  0  0  0  0  0  0  0  0  0  0
  161.0190  203.3610  144.5360 O   0  0  0  0  0  0  0  0  0  0  0  0
  161.0510  204.7130  151.7920 N   0  0  0  0  0  0  0  0  0  0  0  0
  161.0450  206.1190  149.8620 C   0  0  0  0  0  0  0  0  0  0  0  0
  161.0080  207.1180  152.1090 N   0  0  0  0  0  2  0  0  0  0  0  0
  161.1190  202.5060  148.8620 C   0  0  0  0  0  3  0  0  0  0  0  0
  161.4320  205.7000  144.7870 C   0  0  0  0  0  2  0  0  0  0  0  0
  161.0770  203.5950  151.0270 C   0  0  0  0  0  0  0  0  0  0  0  0
  161.0940  202.3430  151.6490 C   0  0  0  0  0  3  0  0  0  0  0  0
  161.0240  207.4000  149.2970 C   0  0  0  0  0  3  0  0  0  0  0  0
  161.0720  206.5010  147.1060 C   0  0  0  0  0  0  0  0  0  0  0  0
  161.0770  206.7180  145.7250 O   0  0  0  0  0  0  0  0  0  0  0  0
  160.9720  210.9260  155.5300 C   0  0  0  0  0  0  0  0  0  0  0  0
  161.4290  209.5460  153.6030 C   0  0  0  0  0  3  0  0  0  0  0  0
  159.8860  207.2100  156.5760 Cl  0  0  0  0  0  0  0  0  0  0  0  0
  160.9740  212.1390  156.1340 F   0  0  0  0  0  0  0  0  0  0  0  0
  161.4330  210.7970  154.2220 C   0  0  0  0  0  3  0  0  0  0  0  0
  160.4960  208.5470  155.6080 C   0  0  0  0  0  0  0  0  0  0  0  0
  160.9640  208.4040  154.2760 C   0  0  0  0  0  0  0  0  0  0  0  0
  160.5050  209.8060  156.2180 C   0  0  0  0  0  3  0  0  0  0  0  0
  1  8  1  0  0  0  0
  2  7  1  0  0  0  0
  2 15  1  0  0  0  0
  3  2  2  0  0  0  0
  5  4  2  0  0  0  0
  5 30  1  0  0  0  0
  6  9  1  0  0  0  0
  7 19  2  0  0  0  0
  8 20  2  0  0  0  0
  9  3  1  0  0  0  0
 10 14  2  0  0  0  0
 10 16  1  0  0  0  0
 11  1  1  0  0  0  0
 12 21  1  0  0  0  0
 13  6  2  0  0  0  0
 15 10  1  0  0  0  0
 16  5  1  0  0  0  0
 17  1  2  0  0  0  0
 17  7  1  0  0  0  0
 18  6  1  0  0  0  0
 18 23  1  0  0  0  0
 19 20  1  0  0  0  0
 19 14  1  0  0  0  0
 21 15  2  0  0  0  0
 22  3  1  0  0  0  0
 22 12  2  0  0  0  0
 23 22  1  0  0  0  0
 24 27  1  0  0  0  0
 24 31  1  0  0  0  0
 25 28  1  0  0  0  0
 25 30  2  0  0  0  0
 28 24  2  0  0  0  0
 29 31  2  0  0  0  0
 29 26  1  0  0  0  0
 30 29  1  0  0  0  0
M  END
>  <MODEL>
1

>  <REMARK>
 VINA RESULT:     -11.3      0.000      0.000
  Name = 
  1 active torsions:
  status: ('A' for Active; 'I' for Inactive)
    1  A    between atoms: C_5  and  C_30
                            x       y       z     vdW  Elec       q    Type
                         _______ _______ _______ _____ _____    ______ ____

>  <TORSDO>
F 1

$$$$
=
 OpenBabel11122413223D

 31 35  0  0  0  0  0  0  0  0999 V2000
  161.0750  201.2880  149.5320 C   0  0  0  0  0  0  0  0  0  0  0  0
  161.1070  205.0170  149.1060 C   0  0  0  0  0  0  0  0  0  0  0  0
  161.1010  205.2450  147.7050 C   0  0  0  0  0  0  0  0  0  0  0  0
  161.1390  205.9850  154.2740 O   0  0  0  0  0  0  0  0  0  0  0  0
  161.1470  207.0880  153.6650 C   0  0  0  0  0  0  0  0  0  0  0  0
  161.1050  204.4190  145.4080 C   0  0  0  0  0  0  0  0  0  0  0  0
  161.0970  203.7220  149.6890 C   0  0  0  0  0  0  0  0  0  0  0  0
  161.0790  201.1880  150.9230 C   0  0  0  0  0  3  0  0  0  0  0  0
  161.0420  204.1930  146.7840 O   0  0  0  0  0  0  0  0  0  0  0  0
  161.1270  205.9690  151.3610 C   0  0  0  0  0  0  0  0  0  0  0  0
  161.0630  200.1670  148.7720 F   0  0  0  0  0  0  0  0  0  0  0  0
  161.1270  207.6120  148.0770 N   0  0  0  0  0  0  0  0  0  0  0  0
  160.9510  203.4600  144.6080 O   0  0  0  0  0  0  0  0  0  0  0  0
  161.1160  204.7130  151.8800 N   0  0  0  0  0  0  0  0  0  0  0  0
  161.1230  206.1440  149.9680 C   0  0  0  0  0  0  0  0  0  0  0  0
  161.1420  207.1130  152.2290 N   0  0  0  0  0  2  0  0  0  0  0  0
  161.0850  202.5440  148.9210 C   0  0  0  0  0  3  0  0  0  0  0  0
  161.4300  205.7830  144.8840 C   0  0  0  0  0  2  0  0  0  0  0  0
  161.1020  203.6050  151.1000 C   0  0  0  0  0  0  0  0  0  0  0  0
  161.0920  202.3440  151.7050 C   0  0  0  0  0  3  0  0  0  0  0  0
  161.1290  207.4330  149.4200 C   0  0  0  0  0  3  0  0  0  0  0  0
  161.1230  206.5620  147.2180 C   0  0  0  0  0  0  0  0  0  0  0  0
  161.1160  206.7970  145.8390 O   0  0  0  0  0  0  0  0  0  0  0  0
  161.2350  210.7220  155.9630 C   0  0  0  0  0  0  0  0  0  0  0  0
  161.5080  208.3310  155.7730 C   0  0  0  0  0  3  0  0  0  0  0  0
  160.3970  209.8350  152.1430 Cl  0  0  0  0  0  0  0  0  0  0  0  0
  161.2700  211.8530  156.7080 F   0  0  0  0  0  0  0  0  0  0  0  0
  161.5450  209.4940  156.5440 C   0  0  0  0  0  3  0  0  0  0  0  0
  160.8480  209.6270  153.8300 C   0  0  0  0  0  0  0  0  0  0  0  0
  161.1620  208.3710  154.4130 C   0  0  0  0  0  0  0  0  0  0  0  0
  160.8880  210.7870  154.6130 C   0  0  0  0  0  3  0  0  0  0  0  0
  1  8  1  0  0  0  0
  2  7  1  0  0  0  0
  2 15  1  0  0  0  0
  3  2  2  0  0  0  0
  5  4  2  0  0  0  0
  5 30  1  0  0  0  0
  6  9  1  0  0  0  0
  7 19  2  0  0  0  0
  8 20  2  0  0  0  0
  9  3  1  0  0  0  0
 10 14  2  0  0  0  0
 10 16  1  0  0  0  0
 11  1  1  0  0  0  0
 12 21  1  0  0  0  0
 13  6  2  0  0  0  0
 15 10  1  0  0  0  0
 16  5  1  0  0  0  0
 17  1  2  0  0  0  0
 17  7  1  0  0  0  0
 18  6  1  0  0  0  0
 18 23  1  0  0  0  0
 19 20  1  0  0  0  0
 19 14  1  0  0  0  0
 21 15  2  0  0  0  0
 22  3  1  0  0  0  0
 22 12  2  0  0  0  0
 23 22  1  0  0  0  0
 24 28  1  0  0  0  0
 24 27  1  0  0  0  0
 25 28  2  0  0  0  0
 26 29  1  0  0  0  0
 29 30  2  0  0  0  0
 29 31  1  0  0  0  0
 30 25  1  0  0  0  0
 31 24  2  0  0  0  0
M  END
>  <MODEL>
2

>  <REMARK>
 VINA RESULT:     -10.9      1.004      1.263
  Name = 
  1 active torsions:
  status: ('A' for Active; 'I' for Inactive)
    1  A    between atoms: C_5  and  C_30
                            x       y       z     vdW  Elec       q    Type
                         _______ _______ _______ _____ _____    ______ ____

>  <TORSDO>
F 1

$$$$
=
 OpenBabel11122413223D

 31 35  0  0  0  0  0  0  0  0999 V2000
  161.7070  205.2840  145.9420 C   0  0  0  0  0  0  0  0  0  0  0  0
  161.2060  204.4610  149.5700 C   0  0  0  0  0  0  0  0  0  0  0  0
  161.1280  203.0450  149.6360 C   0  0  0  0  0  0  0  0  0  0  0  0
  161.2670  209.4880  151.1080 O   0  0  0  0  0  0  0  0  0  0  0  0
  161.1010  208.7650  152.1260 C   0  0  0  0  0  0  0  0  0  0  0  0
  161.1310  200.8540  148.5600 C   0  0  0  0  0  0  0  0  0  0  0  0
  161.3970  205.1780  148.3590 C   0  0  0  0  0  0  0  0  0  0  0  0
  161.7710  206.6760  146.0010 C   0  0  0  0  0  3  0  0  0  0  0  0
  161.2760  202.2410  148.5000 O   0  0  0  0  0  0  0  0  0  0  0  0
  161.1630  206.5970  150.7620 C   0  0  0  0  0  0  0  0  0  0  0  0
  161.8230  204.6500  144.7510 F   0  0  0  0  0  0  0  0  0  0  0  0
  160.8310  203.1600  152.0110 N   0  0  0  0  0  0  0  0  0  0  0  0
  161.3670  200.1550  147.5400 O   0  0  0  0  0  0  0  0  0  0  0  0
  161.3460  207.2480  149.5830 N   0  0  0  0  0  0  0  0  0  0  0  0
  161.0900  205.1960  150.7770 C   0  0  0  0  0  0  0  0  0  0  0  0
  161.0450  207.3360  151.9880 N   0  0  0  0  0  2  0  0  0  0  0  0
  161.5200  204.5430  147.1110 C   0  0  0  0  0  3  0  0  0  0  0  0
  160.6220  200.2040  149.8090 C   0  0  0  0  0  2  0  0  0  0  0  0
  161.4630  206.5920  148.4030 C   0  0  0  0  0  0  0  0  0  0  0  0
  161.6490  207.3280  147.2290 C   0  0  0  0  0  3  0  0  0  0  0  0
  160.9050  204.5130  151.9860 C   0  0  0  0  0  3  0  0  0  0  0  0
  160.9270  202.4210  150.8780 C   0  0  0  0  0  0  0  0  0  0  0  0
  160.8500  201.0260  150.9540 O   0  0  0  0  0  0  0  0  0  0  0  0
  160.7040  210.6620  155.9650 C   0  0  0  0  0  0  0  0  0  0  0  0
  160.9580  210.7710  153.5670 C   0  0  0  0  0  3  0  0  0  0  0  0
  160.8180  206.8540  154.7130 Cl  0  0  0  0  0  0  0  0  0  0  0  0
  160.5800  211.2840  157.1620 F   0  0  0  0  0  0  0  0  0  0  0  0
  160.8310  211.4140  154.7990 C   0  0  0  0  0  3  0  0  0  0  0  0
  160.8310  208.6130  154.6690 C   0  0  0  0  0  0  0  0  0  0  0  0
  160.9610  209.3700  153.4750 C   0  0  0  0  0  0  0  0  0  0  0  0
  160.7040  209.2690  155.8990 C   0  0  0  0  0  3  0  0  0  0  0  0
  1  8  2  0  0  0  0
  1 17  1  0  0  0  0
  2  3  2  0  0  0  0
  2 15  1  0  0  0  0
  3 22  1  0  0  0  0
  4  5  2  0  0  0  0
  5 30  1  0  0  0  0
  6 18  1  0  0  0  0
  7 19  1  0  0  0  0
  7  2  1  0  0  0  0
  8 20  1  0  0  0  0
  9  6  1  0  0  0  0
  9  3  1  0  0  0  0
 10 15  1  0  0  0  0
 10 16  1  0  0  0  0
 11  1  1  0  0  0  0
 13  6  2  0  0  0  0
 14 10  2  0  0  0  0
 15 21  2  0  0  0  0
 16  5  1  0  0  0  0
 17  7  2  0  0  0  0
 18 23  1  0  0  0  0
 19 14  1  0  0  0  0
 20 19  2  0  0  0  0
 21 12  1  0  0  0  0
 22 23  1  0  0  0  0
 22 12  2  0  0  0  0
 24 27  1  0  0  0  0
 25 28  1  0  0  0  0
 28 24  2  0  0  0  0
 29 26  1  0  0  0  0
 29 31  2  0  0  0  0
 30 25  2  0  0  0  0
 30 29  1  0  0  0  0
 31 24  1  0  0  0  0
M  END
>  <MODEL>
3

>  <REMARK>
 VINA RESULT:      -9.4      2.146      4.022
  Name = 
  1 active torsions:
  status: ('A' for Active; 'I' for Inactive)
    1  A    between atoms: C_5  and  C_30
                            x       y       z     vdW  Elec       q    Type
                         _______ _______ _______ _____ _____    ______ ____

>  <TORSDO>
F 1

$$$$
=
 OpenBabel11122413223D

 31 35  0  0  0  0  0  0  0  0999 V2000
  161.8600  210.8710  150.0780 C   0  0  0  0  0  0  0  0  0  0  0  0
  161.3320  207.4130  151.4390 C   0  0  0  0  0  0  0  0  0  0  0  0
  161.1850  207.5700  152.8420 C   0  0  0  0  0  0  0  0  0  0  0  0
  161.6260  205.1040  146.7250 O   0  0  0  0  0  0  0  0  0  0  0  0
  161.4310  204.2100  147.5920 C   0  0  0  0  0  0  0  0  0  0  0  0
  161.1290  208.9730  154.8400 C   0  0  0  0  0  0  0  0  0  0  0  0
  161.5490  208.4980  150.5490 C   0  0  0  0  0  0  0  0  0  0  0  0
  161.9850  210.5940  148.7170 C   0  0  0  0  0  3  0  0  0  0  0  0
  161.2050  208.8290  153.4530 O   0  0  0  0  0  0  0  0  0  0  0  0
  161.3910  205.8990  149.5180 C   0  0  0  0  0  0  0  0  0  0  0  0
  161.9480  212.1480  150.5210 F   0  0  0  0  0  0  0  0  0  0  0  0
  160.9060  205.2030  153.0900 N   0  0  0  0  0  0  0  0  0  0  0  0
  161.0500  210.1220  155.3470 O   0  0  0  0  0  0  0  0  0  0  0  0
  161.5980  206.9630  148.6980 N   0  0  0  0  0  0  0  0  0  0  0  0
  161.2550  206.1030  150.9000 C   0  0  0  0  0  0  0  0  0  0  0  0
  161.3120  204.5700  148.9770 N   0  0  0  0  0  2  0  0  0  0  0  0
  161.6450  209.8310  150.9850 C   0  0  0  0  0  3  0  0  0  0  0  0
  161.2170  207.7700  155.7270 C   0  0  0  0  0  2  0  0  0  0  0  0
  161.6800  208.2330  149.1640 C   0  0  0  0  0  0  0  0  0  0  0  0
  161.8960  209.2780  148.2610 C   0  0  0  0  0  3  0  0  0  0  0  0
  161.0360  205.0160  151.7550 C   0  0  0  0  0  3  0  0  0  0  0  0
  160.9830  206.4370  153.6480 C   0  0  0  0  0  0  0  0  0  0  0  0
  160.8370  206.5810  155.0320 O   0  0  0  0  0  0  0  0  0  0  0  0
  161.1680  200.0320  146.6100 C   0  0  0  0  0  0  0  0  0  0  0  0
  161.6570  201.8140  148.1630 C   0  0  0  0  0  3  0  0  0  0  0  0
  160.4540  203.4360  144.6140 Cl  0  0  0  0  0  0  0  0  0  0  0  0
  161.0930  198.7090  146.3260 F   0  0  0  0  0  0  0  0  0  0  0  0
  161.5810  200.4510  147.8730 C   0  0  0  0  0  3  0  0  0  0  0  0
  160.9030  202.3440  145.9180 C   0  0  0  0  0  0  0  0  0  0  0  0
  161.3230  202.7810  147.2020 C   0  0  0  0  0  0  0  0  0  0  0  0
  160.8310  200.9740  145.6390 C   0  0  0  0  0  3  0  0  0  0  0  0
  1 11  1  0  0  0  0
  1 17  1  0  0  0  0
  2  3  2  0  0  0  0
  3  9  1  0  0  0  0
  3 22  1  0  0  0  0
  4  5  2  0  0  0  0
  5 16  1  0  0  0  0
  6 13  2  0  0  0  0
  6 18  1  0  0  0  0
  7 17  2  0  0  0  0
  7  2  1  0  0  0  0
  8  1  2  0  0  0  0
  9  6  1  0  0  0  0
 10 15  1  0  0  0  0
 12 22  2  0  0  0  0
 14 19  1  0  0  0  0
 14 10  2  0  0  0  0
 15  2  1  0  0  0  0
 15 21  2  0  0  0  0
 16 10  1  0  0  0  0
 19  7  1  0  0  0  0
 20  8  1  0  0  0  0
 20 19  2  0  0  0  0
 21 12  1  0  0  0  0
 22 23  1  0  0  0  0
 23 18  1  0  0  0  0
 24 28  1  0  0  0  0
 26 29  1  0  0  0  0
 27 24  1  0  0  0  0
 28 25  2  0  0  0  0
 29 30  2  0  0  0  0
 30  5  1  0  0  0  0
 30 25  1  0  0  0  0
 31 29  1  0  0  0  0
 31 24  2  0  0  0  0
M  END
>  <MODEL>
4

>  <REMARK>
 VINA RESULT:      -9.3      3.217      9.155
  Name = 
  1 active torsions:
  status: ('A' for Active; 'I' for Inactive)
    1  A    between atoms: C_5  and  C_30
                            x       y       z     vdW  Elec       q    Type
                         _______ _______ _______ _____ _____    ______ ____

>  <TORSDO>
F 1

$$$$
=
 OpenBabel11122413223D

 31 35  0  0  0  0  0  0  0  0999 V2000
  161.0100  205.5000  153.4350 C   0  0  0  0  0  0  0  0  0  0  0  0
  161.2430  205.8510  149.7050 C   0  0  0  0  0  0  0  0  0  0  0  0
  161.1710  204.5300  149.1890 C   0  0  0  0  0  0  0  0  0  0  0  0
  161.6230  211.0920  149.8440 O   0  0  0  0  0  0  0  0  0  0  0  0
  161.6630  210.7240  148.6390 C   0  0  0  0  0  0  0  0  0  0  0  0
  160.9970  202.1170  149.5150 C   0  0  0  0  0  0  0  0  0  0  0  0
  161.1870  206.1530  151.0920 C   0  0  0  0  0  0  0  0  0  0  0  0
  161.0870  206.8370  153.8240 C   0  0  0  0  0  3  0  0  0  0  0  0
  160.9980  203.4180  150.0220 O   0  0  0  0  0  0  0  0  0  0  0  0
  161.4460  208.2460  149.2490 C   0  0  0  0  0  0  0  0  0  0  0  0
  160.8880  204.5280  154.3710 F   0  0  0  0  0  0  0  0  0  0  0  0
  161.3610  205.3790  146.9570 N   0  0  0  0  0  0  0  0  0  0  0  0
  160.7410  201.1480  150.2770 O   0  0  0  0  0  0  0  0  0  0  0  0
  161.3890  208.4950  150.5840 N   0  0  0  0  0  0  0  0  0  0  0  0
  161.3740  206.9230  148.7870 C   0  0  0  0  0  0  0  0  0  0  0  0
  161.5790  209.3280  148.3140 N   0  0  0  0  0  2  0  0  0  0  0  0
  161.0610  205.1620  152.0810 C   0  0  0  0  0  3  0  0  0  0  0  0
  161.3740  201.8640  148.0890 C   0  0  0  0  0  2  0  0  0  0  0  0
  161.2640  207.5060  151.5020 C   0  0  0  0  0  0  0  0  0  0  0  0
  161.2130  207.8380  152.8590 C   0  0  0  0  0  3  0  0  0  0  0  0
  161.4270  206.6530  147.4130 C   0  0  0  0  0  3  0  0  0  0  0  0
  161.2450  204.3240  147.8020 C   0  0  0  0  0  0  0  0  0  0  0  0
  161.1750  203.0270  147.2830 O   0  0  0  0  0  0  0  0  0  0  0  0
  161.9030  213.5630  145.4180 C   0  0  0  0  0  0  0  0  0  0  0  0
  160.7040  211.8910  146.6790 C   0  0  0  0  0  3  0  0  0  0  0  0
  164.4110  212.3890  148.3190 Cl  0  0  0  0  0  0  0  0  0  0  0  0
  161.9530  214.4520  144.3960 F   0  0  0  0  0  0  0  0  0  0  0  0
  160.7530  212.8050  145.6260 C   0  0  0  0  0  3  0  0  0  0  0  0
  162.9640  212.4960  147.3230 C   0  0  0  0  0  0  0  0  0  0  0  0
  161.7980  211.7180  147.5430 C   0  0  0  0  0  0  0  0  0  0  0  0
  163.0020  213.4090  146.2630 C   0  0  0  0  0  3  0  0  0  0  0  0
  1  8  1  0  0  0  0
  1 11  1  0  0  0  0
  2  7  1  0  0  0  0
  3  2  2  0  0  0  0
  3  9  1  0  0  0  0
  5  4  2  0  0  0  0
  6  9  1  0  0  0  0
  6 13  2  0  0  0  0
  7 19  2  0  0  0  0
  7 17  1  0  0  0  0
 10 14  2  0  0  0  0
 12 21  1  0  0  0  0
 12 22  2  0  0  0  0
 14 19  1  0  0  0  0
 15 10  1  0  0  0  0
 15  2  1  0  0  0  0
 16  5  1  0  0  0  0
 16 10  1  0  0  0  0
 17  1  2  0  0  0  0
 18  6  1  0  0  0  0
 19 20  1  0  0  0  0
 20  8  2  0  0  0  0
 21 15  2  0  0  0  0
 22  3  1  0  0  0  0
 23 22  1  0  0  0  0
 23 18  1  0  0  0  0
 24 28  2  0  0  0  0
 24 31  1  0  0  0  0
 25 30  2  0  0  0  0
 27 24  1  0  0  0  0
 28 25  1  0  0  0  0
 29 30  1  0  0  0  0
 29 26  1  0  0  0  0
 30  5  1  0  0  0  0
 31 29  2  0  0  0  0
M  END
>  <MODEL>
5

>  <REMARK>
 VINA RESULT:      -8.8      4.571      6.295
  Name = 
  1 active torsions:
  status: ('A' for Active; 'I' for Inactive)
    1  A    between atoms: C_5  and  C_30
                            x       y       z     vdW  Elec       q    Type
                         _______ _______ _______ _____ _____    ______ ____

>  <TORSDO>
F 1

$$$$
