=
 OpenBabel11122413553D

 37 44  0  0  1  0  0  0  0  0999 V2000
  159.9900  210.9510  153.5320 C   0  0  1  0  0  0  0  0  0  0  0  0
  161.6640  207.7070  152.5400 C   0  0  1  0  0  3  0  0  0  0  0  0
  162.6980  207.3320  149.3820 O   0  0  0  0  0  0  0  0  0  0  0  0
  161.3160  209.3500  154.5320 C   0  0  2  0  0  3  0  0  0  0  0  0
  161.2300  208.0690  151.1250 C   0  0  2  0  0  3  0  0  0  0  0  0
  161.9900  209.0620  153.1920 C   0  0  2  0  0  3  0  0  0  0  0  0
  161.5040  207.0170  150.0490 C   0  0  2  0  0  3  0  0  0  0  0  0
  161.3380  208.0890  155.3800 C   0  0  0  0  0  2  0  0  0  0  0  0
  161.6980  210.1510  152.1580 C   0  0  2  0  0  3  0  0  0  0  0  0
  160.8280  211.9680  154.0190 O   0  0  0  0  0  1  0  0  0  0  0  0
  160.6940  205.4680  152.8470 N   0  0  0  0  0  2  0  0  0  0  0  0
  160.5120  206.9630  154.7540 C   0  0  0  0  0  2  0  0  0  0  0  0
  160.3470  210.5770  152.2170 O   0  0  0  0  0  0  0  0  0  0  0  0
  161.1050  208.3710  147.9170 O   0  0  0  0  0  0  0  0  0  0  0  0
  162.4400  207.9660  148.1360 C   0  0  1  0  0  3  0  0  0  0  0  0
  160.5590  206.8740  153.2190 C   0  0  1  0  0  3  0  0  0  0  0  0
  161.9240  209.3950  150.8550 C   0  0  2  0  0  3  0  0  0  0  0  0
  159.9950  209.8230  154.3840 O   0  0  0  0  0  0  0  0  0  0  0  0
  161.4920  205.5610  150.5360 C   0  0  1  0  0  3  0  0  0  0  0  0
  158.5780  211.4960  153.4910 C   0  0  0  0  0  1  0  0  0  0  0  0
  162.0010  209.4060  148.2540 C   0  0  2  0  0  3  0  0  0  0  0  0
  161.4590  210.0680  149.5490 C   0  0  2  0  0  3  0  0  0  0  0  0
  160.3010  205.2790  151.4540 C   0  0  0  0  0  2  0  0  0  0  0  0
  161.1360  203.2770  149.5890 C   0  0  0  0  0  3  0  0  0  0  0  0
  161.4970  204.6110  149.3790 C   0  0  0  0  0  0  0  0  0  0  0  0
  161.8650  205.0360  148.0920 C   0  0  0  0  0  3  0  0  0  0  0  0
  162.2350  204.5520  145.7580 O   0  0  0  0  0  1  0  0  0  0  0  0
  161.5090  202.7960  147.2450 C   0  0  0  0  0  3  0  0  0  0  0  0
  161.8700  204.1290  147.0290 C   0  0  0  0  0  0  0  0  0  0  0  0
  161.1410  202.3690  148.5240 C   0  0  0  0  0  3  0  0  0  0  0  0
  161.8800  211.5500  149.5060 C   0  0  1  0  0  3  0  0  0  0  0  0
  161.5800  212.2670  148.2330 N   0  0  0  0  0  0  0  0  0  0  0  0
  160.7270  212.4420  149.4170 C   0  0  2  0  0  3  0  0  0  0  0  0
  161.1260  214.0190  150.2160 S   0  0  0  0  0  0  0  0  0  0  0  0
  159.5030  214.0930  151.0210 C   0  0  0  0  0  1  0  0  0  0  0  0
  159.9630  212.4570  146.4300 C   0  0  0  0  0  1  0  0  0  0  0  0
  160.7740  211.5050  147.2840 C   0  0  0  0  0  2  0  0  0  0  0  0
  1 20  1  6  0  0  0
  1 10  1  0  0  0  0
  1 18  1  0  0  0  0
  2  6  1  0  0  0  0
  2 16  1  0  0  0  0
  3  7  1  0  0  0  0
  4  8  1  0  0  0  0
  5  2  1  0  0  0  0
  6  4  1  0  0  0  0
  7 19  1  0  0  0  0
  7  5  1  0  0  0  0
  9 13  1  0  0  0  0
  9  6  1  0  0  0  0
 11 16  1  0  0  0  0
 12  8  1  0  0  0  0
 13  1  1  0  0  0  0
 14 15  1  0  0  0  0
 14 21  1  0  0  0  0
 15 21  1  0  0  0  0
 15  3  1  0  0  0  0
 16 12  1  0  0  0  0
 17  5  1  0  0  0  0
 17  9  1  0  0  0  0
 18  4  1  0  0  0  0
 19 23  1  0  0  0  0
 21 22  1  0  0  0  0
 22 17  1  0  0  0  0
 23 11  1  0  0  0  0
 25 24  1  0  0  0  0
 25 19  1  0  0  0  0
 26 25  2  0  0  0  0
 27 29  1  0  0  0  0
 28 30  1  0  0  0  0
 29 28  2  0  0  0  0
 29 26  1  0  0  0  0
 30 24  2  0  0  0  0
 31 22  1  0  0  0  0
 32 33  1  0  0  0  0
 32 31  1  0  0  0  0
 33 31  1  0  0  0  0
 33 34  1  0  0  0  0
 34 35  1  0  0  0  0
 36 37  1  0  0  0  0
 37 32  1  0  0  0  0
M  END
>  <MODEL>
1

>  <REMARK>
 VINA RESULT:      -6.7      0.000      0.000
  Name = 
  4 active torsions:
  status: ('A' for Active; 'I' for Inactive)
    1  A    between atoms: C_1  and  C_27
    2  A    between atoms: N_4  and  C_37
    3  A    between atoms: S_8  and  C_12
    4  A    between atoms: C_23  and  C_30
                            x       y       z     vdW  Elec       q    Type
                         _______ _______ _______ _____ _____    ______ ____

>  <TORSDO>
F 4

$$$$
=
 OpenBabel11122413553D

 37 44  0  0  1  0  0  0  0  0999 V2000
  162.6830  205.8120  147.3550 C   0  0  1  0  0  0  0  0  0  0  0  0
  160.6140  206.0110  150.5160 C   0  0  1  0  0  3  0  0  0  0  0  0
  160.4680  208.9190  152.1610 O   0  0  0  0  0  0  0  0  0  0  0  0
  160.7730  204.8310  148.1990 C   0  0  2  0  0  3  0  0  0  0  0  0
  161.5110  207.1910  150.8700 C   0  0  2  0  0  3  0  0  0  0  0  0
  160.4620  206.1010  148.9870 C   0  0  2  0  0  3  0  0  0  0  0  0
  161.3040  207.7970  152.2600 C   0  0  2  0  0  3  0  0  0  0  0  0
  160.1980  203.6340  148.9370 C   0  0  0  0  0  2  0  0  0  0  0  0
  161.2980  207.2910  148.5110 C   0  0  2  0  0  3  0  0  0  0  0  0
  162.0200  206.0990  146.1500 O   0  0  0  0  0  1  0  0  0  0  0  0
  160.8710  204.5330  152.4650 N   0  0  0  0  0  2  0  0  0  0  0  0
  160.8640  203.4290  150.3000 C   0  0  0  0  0  2  0  0  0  0  0  0
  162.6360  206.9130  148.2410 O   0  0  0  0  0  0  0  0  0  0  0  0
  162.6190  209.9810  152.0520 O   0  0  0  0  0  0  0  0  0  0  0  0
  161.2200  210.1250  152.1800 C   0  0  1  0  0  3  0  0  0  0  0  0
  161.2370  204.7120  151.0630 C   0  0  1  0  0  3  0  0  0  0  0  0
  161.2740  208.1850  149.7450 C   0  0  2  0  0  3  0  0  0  0  0  0
  162.1550  204.6570  147.9760 O   0  0  0  0  0  0  0  0  0  0  0  0
  160.8150  206.8180  153.3370 C   0  0  1  0  0  3  0  0  0  0  0  0
  164.1370  205.5420  147.0300 C   0  0  0  0  0  1  0  0  0  0  0  0
  161.9490  210.4210  150.8910 C   0  0  2  0  0  3  0  0  0  0  0  0
  162.2450  209.3820  149.7770 C   0  0  2  0  0  3  0  0  0  0  0  0
  161.5850  205.4970  153.2950 C   0  0  0  0  0  2  0  0  0  0  0  0
  160.0710  206.9660  155.7170 C   0  0  0  0  0  3  0  0  0  0  0  0
  160.9070  207.4340  154.6990 C   0  0  0  0  0  0  0  0  0  0  0  0
  161.8090  208.4760  154.9660 C   0  0  0  0  0  3  0  0  0  0  0  0
  162.7640  210.0710  156.5030 O   0  0  0  0  0  1  0  0  0  0  0  0
  161.0320  208.5700  157.2570 C   0  0  0  0  0  3  0  0  0  0  0  0
  161.8710  209.0410  156.2430 C   0  0  0  0  0  0  0  0  0  0  0  0
  160.1330  207.5320  156.9950 C   0  0  0  0  0  3  0  0  0  0  0  0
  162.2340  210.1440  148.4370 C   0  0  1  0  0  3  0  0  0  0  0  0
  161.3300  211.3280  148.3790 N   0  0  0  0  0  0  0  0  0  0  0  0
  162.7770  211.4930  148.5730 C   0  0  2  0  0  3  0  0  0  0  0  0
  163.5400  211.9910  147.0060 S   0  0  0  0  0  0  0  0  0  0  0  0
  162.3320  213.3230  146.7710 C   0  0  0  0  0  1  0  0  0  0  0  0
  160.2920  213.1430  149.6170 C   0  0  0  0  0  1  0  0  0  0  0  0
  160.7240  211.6910  149.6560 C   0  0  0  0  0  2  0  0  0  0  0  0
  1 20  1  6  0  0  0
  1 18  1  0  0  0  0
  1 13  1  0  0  0  0
  2  5  1  0  0  0  0
  2 16  1  0  0  0  0
  3 15  1  0  0  0  0
  3  7  1  0  0  0  0
  4  8  1  0  0  0  0
  4  6  1  0  0  0  0
  5  7  1  0  0  0  0
  6  2  1  0  0  0  0
  7 19  1  0  0  0  0
  8 12  1  0  0  0  0
  9  6  1  0  0  0  0
  9 17  1  0  0  0  0
 10  1  1  0  0  0  0
 11 23  1  0  0  0  0
 12 16  1  0  0  0  0
 13  9  1  0  0  0  0
 14 15  1  0  0  0  0
 16 11  1  0  0  0  0
 17 22  1  0  0  0  0
 17  5  1  0  0  0  0
 18  4  1  0  0  0  0
 19 25  1  0  0  0  0
 21 14  1  0  0  0  0
 21 15  1  0  0  0  0
 22 21  1  0  0  0  0
 23 19  1  0  0  0  0
 24 30  1  0  0  0  0
 25 26  1  0  0  0  0
 25 24  2  0  0  0  0
 26 29  2  0  0  0  0
 29 27  1  0  0  0  0
 29 28  1  0  0  0  0
 30 28  2  0  0  0  0
 31 33  1  0  0  0  0
 31 22  1  0  0  0  0
 32 31  1  0  0  0  0
 32 33  1  0  0  0  0
 32 37  1  0  0  0  0
 34 33  1  0  0  0  0
 35 34  1  0  0  0  0
 36 37  1  0  0  0  0
M  END
>  <MODEL>
2

>  <REMARK>
 VINA RESULT:      -4.1      1.736      6.180
  Name = 
  4 active torsions:
  status: ('A' for Active; 'I' for Inactive)
    1  A    between atoms: C_1  and  C_27
    2  A    between atoms: N_4  and  C_37
    3  A    between atoms: S_8  and  C_12
    4  A    between atoms: C_23  and  C_30
                            x       y       z     vdW  Elec       q    Type
                         _______ _______ _______ _____ _____    ______ ____

>  <TORSDO>
F 4

$$$$
=
 OpenBabel11122413553D

 37 44  0  0  1  0  0  0  0  0999 V2000
  161.7270  208.4470  148.9540 C   0  0  1  0  0  0  0  0  0  0  0  0
  161.2680  211.6490  150.9160 C   0  0  1  0  0  3  0  0  0  0  0  0
  160.6690  211.4500  154.2000 O   0  0  0  0  0  0  0  0  0  0  0  0
  162.5020  210.6190  148.8650 C   0  0  2  0  0  3  0  0  0  0  0  0
  160.5070  210.7770  151.9060 C   0  0  2  0  0  3  0  0  0  0  0  0
  162.3810  210.7290  150.3840 C   0  0  2  0  0  3  0  0  0  0  0  0
  159.8380  211.5110  153.0710 C   0  0  2  0  0  3  0  0  0  0  0  0
  162.3120  211.9950  148.2500 C   0  0  0  0  0  2  0  0  0  0  0  0
  162.2030  209.3620  151.0470 C   0  0  2  0  0  3  0  0  0  0  0  0
  163.0390  207.9590  148.8430 O   0  0  0  0  0  1  0  0  0  0  0  0
  159.6360  213.4100  150.3810 N   0  0  0  0  0  2  0  0  0  0  0  0
  160.9060  212.5440  148.4980 C   0  0  0  0  0  2  0  0  0  0  0  0
  161.3230  208.5340  150.3060 O   0  0  0  0  0  0  0  0  0  0  0  0
  159.2470  209.5600  154.6150 O   0  0  0  0  0  0  0  0  0  0  0  0
  160.2360  210.4420  155.1040 C   0  0  1  0  0  3  0  0  0  0  0  0
  160.2880  212.2080  149.8660 C   0  0  1  0  0  3  0  0  0  0  0  0
  161.5330  209.7510  152.3580 C   0  0  2  0  0  3  0  0  0  0  0  0
  161.5830  209.7000  148.3150 O   0  0  0  0  0  0  0  0  0  0  0  0
  159.3920  212.9490  152.7710 C   0  0  1  0  0  3  0  0  0  0  0  0
  160.8080  207.4630  148.2590 C   0  0  0  0  0  1  0  0  0  0  0  0
  160.5560  209.0340  154.6610 C   0  0  2  0  0  3  0  0  0  0  0  0
  160.9260  208.6200  153.2120 C   0  0  2  0  0  3  0  0  0  0  0  0
  158.6780  213.0520  151.4220 C   0  0  0  0  0  2  0  0  0  0  0  0
  159.1080  213.9500  155.0420 C   0  0  0  0  0  3  0  0  0  0  0  0
  158.5180  213.4750  153.8660 C   0  0  0  0  0  0  0  0  0  0  0  0
  157.1200  213.4910  153.7370 C   0  0  0  0  0  3  0  0  0  0  0  0
  154.9430  213.9940  154.6460 O   0  0  0  0  0  1  0  0  0  0  0  0
  156.9200  214.4530  155.9500 C   0  0  0  0  0  3  0  0  0  0  0  0
  156.3250  213.9800  154.7770 C   0  0  0  0  0  0  0  0  0  0  0  0
  158.3110  214.4390  156.0830 C   0  0  0  0  0  3  0  0  0  0  0  0
  161.8920  207.4230  153.3200 C   0  0  1  0  0  3  0  0  0  0  0  0
  161.5330  206.3980  154.3410 N   0  0  0  0  0  0  0  0  0  0  0  0
  161.2570  206.1720  152.9160 C   0  0  2  0  0  3  0  0  0  0  0  0
  162.5120  205.0580  152.2310 S   0  0  0  0  0  0  0  0  0  0  0  0
  161.2700  203.7970  151.8400 C   0  0  0  0  0  1  0  0  0  0  0  0
  160.3970  206.7510  156.4590 C   0  0  0  0  0  1  0  0  0  0  0  0
  160.2270  206.5930  154.9620 C   0  0  0  0  0  2  0  0  0  0  0  0
  1 20  1  6  0  0  0
  1 13  1  0  0  0  0
  2  5  1  0  0  0  0
  3 15  1  0  0  0  0
  4  6  1  0  0  0  0
  5 17  1  0  0  0  0
  5  7  1  0  0  0  0
  6  2  1  0  0  0  0
  6  9  1  0  0  0  0
  7  3  1  0  0  0  0
  8 12  1  0  0  0  0
  8  4  1  0  0  0  0
  9 17  1  0  0  0  0
 10  1  1  0  0  0  0
 11 23  1  0  0  0  0
 12 16  1  0  0  0  0
 13  9  1  0  0  0  0
 14 21  1  0  0  0  0
 14 15  1  0  0  0  0
 16 11  1  0  0  0  0
 16  2  1  0  0  0  0
 17 22  1  0  0  0  0
 18  4  1  0  0  0  0
 18  1  1  0  0  0  0
 19  7  1  0  0  0  0
 19 25  1  0  0  0  0
 21 15  1  0  0  0  0
 22 31  1  0  0  0  0
 22 21  1  0  0  0  0
 23 19  1  0  0  0  0
 24 30  1  0  0  0  0
 25 24  2  0  0  0  0
 26 25  1  0  0  0  0
 26 29  2  0  0  0  0
 27 29  1  0  0  0  0
 28 30  2  0  0  0  0
 29 28  1  0  0  0  0
 31 32  1  0  0  0  0
 32 37  1  0  0  0  0
 33 31  1  0  0  0  0
 33 32  1  0  0  0  0
 34 33  1  0  0  0  0
 35 34  1  0  0  0  0
 37 36  1  0  0  0  0
M  END
>  <MODEL>
3

>  <REMARK>
 VINA RESULT:      -3.8      2.580      8.500
  Name = 
  4 active torsions:
  status: ('A' for Active; 'I' for Inactive)
    1  A    between atoms: C_1  and  C_27
    2  A    between atoms: N_4  and  C_37
    3  A    between atoms: S_8  and  C_12
    4  A    between atoms: C_23  and  C_30
                            x       y       z     vdW  Elec       q    Type
                         _______ _______ _______ _____ _____    ______ ____

>  <TORSDO>
F 4

$$$$
