=
 OpenBabel11122413493D

 37 42  0  0  1  0  0  0  0  0999 V2000
  162.0890  210.9060  147.7450 C   0  0  1  0  0  0  0  0  0  0  0  0
  161.3990  209.7030  151.7580 C   0  0  0  0  0  0  0  0  0  0  0  0
  158.5750  210.6150  153.0200 C   0  0  0  0  0  2  0  0  0  0  0  0
  161.7730  208.9470  149.4070 C   0  0  0  0  0  0  0  0  0  0  0  0
  160.9840  210.8590  152.2670 C   0  0  2  0  0  3  0  0  0  0  0  0
  161.9380  209.9970  150.4260 C   0  0  0  0  0  0  0  0  0  0  0  0
  160.0150  210.9640  153.4190 C   0  0  2  0  0  3  0  0  0  0  0  0
  161.3820  207.7110  149.7540 C   0  0  0  0  0  3  0  0  0  0  0  0
  161.2120  211.1640  150.0010 N   0  0  0  0  0  0  0  0  0  0  0  0
  160.8210  211.1960  146.9640 C   0  0  0  0  0  1  0  0  0  0  0  0
  160.5190  207.9900  153.5040 C   0  0  0  0  0  2  0  0  0  0  0  0
  161.0070  207.3940  151.1650 C   0  0  0  0  0  3  0  0  0  0  0  0
  162.0870  211.7940  149.0270 C   0  0  0  0  0  2  0  0  0  0  0  0
  158.0810  212.7110  151.6220 C   0  0  1  0  0  3  0  0  0  0  0  0
  158.1750  211.1820  151.6530 C   0  0  0  0  0  2  0  0  0  0  0  0
  161.0140  208.3290  152.1320 C   0  0  0  0  0  0  0  0  0  0  0  0
  161.0600  211.8470  151.2200 N   0  0  1  0  0  0  0  0  0  0  0  0
  162.1550  209.3580  148.0050 C   0  0  0  0  0  2  0  0  0  0  0  0
  160.4320  210.2370  154.7120 C   0  0  1  0  0  3  0  0  0  0  0  0
  163.1790  211.2690  146.9560 O   0  0  0  0  0  1  0  0  0  0  0  0
  159.3340  213.4450  152.1200 C   0  0  0  0  0  2  0  0  0  0  0  0
  160.6030  213.2390  151.2810 C   0  0  0  0  0  2  0  0  0  0  0  0
  161.1590  208.8920  154.5530 C   0  0  0  0  0  2  0  0  0  0  0  0
  157.2000  214.1820  147.5800 O   0  0  0  0  0  0  0  0  0  0  0  0
  158.3810  214.0820  148.0060 C   0  0  0  0  0  0  0  0  0  0  0  0
  157.6470  213.2000  150.2780 C   0  0  0  0  0  0  0  0  0  0  0  0
  158.6440  213.6030  149.3310 N   0  0  0  0  0  2  0  0  0  0  0  0
  156.4220  213.2350  149.9800 O   0  0  0  0  0  0  0  0  0  0  0  0
  160.8470  214.3630  147.5780 C   0  0  0  0  0  1  0  0  0  0  0  0
  159.4610  214.4530  147.1500 N   0  0  0  0  0  2  0  0  0  0  0  0
  160.6060  212.3350  156.0570 C   0  0  0  0  0  3  0  0  0  0  0  0
  161.2000  211.1520  155.6120 C   0  0  0  0  0  0  0  0  0  0  0  0
  162.5100  210.8460  156.0040 C   0  0  0  0  0  3  0  0  0  0  0  0
  164.5880  211.4200  157.2610 C   0  0  0  0  0  1  0  0  0  0  0  0
  162.5980  212.8760  157.2600 N   0  0  0  0  0  0  0  0  0  0  0  0
  163.1980  211.7300  156.8370 C   0  0  0  0  0  0  0  0  0  0  0  0
  161.3280  213.1920  156.8900 C   0  0  0  0  0  3  0  0  0  0  0  0
  1 10  1  6  0  0  0
  1 18  1  0  0  0  0
  1 13  1  0  0  0  0
  2 16  1  0  0  0  0
  4  8  2  0  0  0  0
  4  6  1  0  0  0  0
  5  2  1  6  0  0  0
  5  7  1  0  0  0  0
  6  2  2  0  0  0  0
  7  3  1  6  0  0  0
  7 19  1  0  0  0  0
  8 12  1  0  0  0  0
  9  6  1  0  0  0  0
  9 17  1  0  0  0  0
 11 23  1  0  0  0  0
 12 16  2  0  0  0  0
 13  9  1  0  0  0  0
 14 26  1  6  0  0  0
 14 15  1  0  0  0  0
 14 21  1  0  0  0  0
 15  3  1  0  0  0  0
 16 11  1  0  0  0  0
 17 22  1  6  0  0  0
 17  5  1  0  0  0  0
 18  4  1  0  0  0  0
 19 32  1  6  0  0  0
 20  1  1  0  0  0  0
 22 21  1  0  0  0  0
 23 19  1  0  0  0  0
 24 25  2  0  0  0  0
 25 27  1  0  0  0  0
 27 26  1  0  0  0  0
 28 26  2  0  0  0  0
 30 29  1  0  0  0  0
 30 25  1  0  0  0  0
 31 37  1  0  0  0  0
 32 33  1  0  0  0  0
 32 31  2  0  0  0  0
 33 36  2  0  0  0  0
 36 35  1  0  0  0  0
 36 34  1  0  0  0  0
 37 35  2  0  0  0  0
M  END
>  <MODEL>
1

>  <REMARK>
 VINA RESULT:       4.2      0.000      0.000
  Name = 
  2 active torsions:
  status: ('A' for Active; 'I' for Inactive)
    1  A    between atoms: C_8  and  C_18
    2  A    between atoms: C_23  and  C_30
                            x       y       z     vdW  Elec       q    Type
                         _______ _______ _______ _____ _____    ______ ____

>  <TORSDO>
F 2

$$$$
=
 OpenBabel11122413493D

 37 42  0  0  1  0  0  0  0  0999 V2000
  161.8680  207.3680  148.5420 C   0  0  1  0  0  0  0  0  0  0  0  0
  161.7890  208.1060  152.7220 C   0  0  0  0  0  0  0  0  0  0  0  0
  159.9860  210.6100  153.6610 C   0  0  0  0  0  2  0  0  0  0  0  0
  161.2220  206.5010  150.8940 C   0  0  0  0  0  0  0  0  0  0  0  0
  162.0160  209.4160  152.7190 C   0  0  2  0  0  3  0  0  0  0  0  0
  162.0460  207.6300  151.3590 C   0  0  0  0  0  0  0  0  0  0  0  0
  161.4950  210.3560  153.7800 C   0  0  2  0  0  3  0  0  0  0  0  0
  160.4690  205.8020  151.7570 C   0  0  0  0  0  3  0  0  0  0  0  0
  161.7680  208.7710  150.5280 N   0  0  0  0  0  0  0  0  0  0  0  0
  160.6720  207.9270  147.7970 C   0  0  0  0  0  1  0  0  0  0  0  0
  160.7660  207.7340  155.0830 C   0  0  0  0  0  2  0  0  0  0  0  0
  160.3670  206.2100  153.1900 C   0  0  0  0  0  3  0  0  0  0  0  0
  162.5460  208.5340  149.3250 C   0  0  0  0  0  2  0  0  0  0  0  0
  160.0410  212.0600  151.5420 C   0  0  1  0  0  3  0  0  0  0  0  0
  159.5180  210.7840  152.2120 C   0  0  0  0  0  2  0  0  0  0  0  0
  160.9920  207.3010  153.6680 C   0  0  0  0  0  0  0  0  0  0  0  0
  162.2160  209.8190  151.3500 N   0  0  1  0  0  0  0  0  0  0  0  0
  161.3700  206.1690  149.4280 C   0  0  0  0  0  2  0  0  0  0  0  0
  161.8960  210.0180  155.2280 C   0  0  1  0  0  3  0  0  0  0  0  0
  162.7750  206.8770  147.6050 O   0  0  0  0  0  1  0  0  0  0  0  0
  161.5650  212.2390  151.5990 C   0  0  0  0  0  2  0  0  0  0  0  0
  162.3870  211.1850  150.8460 C   0  0  0  0  0  2  0  0  0  0  0  0
  161.9560  208.5300  155.6070 C   0  0  0  0  0  2  0  0  0  0  0  0
  158.1880  212.6560  147.6070 O   0  0  0  0  0  0  0  0  0  0  0  0
  157.6340  213.0510  148.6670 C   0  0  0  0  0  0  0  0  0  0  0  0
  159.5170  212.1940  150.1490 C   0  0  0  0  0  0  0  0  0  0  0  0
  158.2560  212.8410  149.9410 N   0  0  0  0  0  2  0  0  0  0  0  0
  160.1890  211.7610  149.1730 O   0  0  0  0  0  0  0  0  0  0  0  0
  155.6780  214.1940  149.7680 C   0  0  0  0  0  1  0  0  0  0  0  0
  156.3720  213.7130  148.5850 N   0  0  0  0  0  2  0  0  0  0  0  0
  163.3410  211.1620  156.9140 C   0  0  0  0  0  3  0  0  0  0  0  0
  163.1660  210.7120  155.6030 C   0  0  0  0  0  0  0  0  0  0  0  0
  164.1780  210.9280  154.6580 C   0  0  0  0  0  3  0  0  0  0  0  0
  166.4270  211.8250  154.0530 C   0  0  0  0  0  1  0  0  0  0  0  0
  165.4940  212.0160  156.3280 N   0  0  0  0  0  0  0  0  0  0  0  0
  165.3450  211.5880  155.0450 C   0  0  0  0  0  0  0  0  0  0  0  0
  164.5250  211.8180  157.2610 C   0  0  0  0  0  3  0  0  0  0  0  0
  1 10  1  6  0  0  0
  1 13  1  0  0  0  0
  1 18  1  0  0  0  0
  2 16  1  0  0  0  0
  4  6  1  0  0  0  0
  4  8  2  0  0  0  0
  5  2  1  6  0  0  0
  5  7  1  0  0  0  0
  6  2  2  0  0  0  0
  7  3  1  1  0  0  0
  7 19  1  0  0  0  0
  8 12  1  0  0  0  0
  9 17  1  0  0  0  0
  9  6  1  0  0  0  0
 11 23  1  0  0  0  0
 12 16  2  0  0  0  0
 13  9  1  0  0  0  0
 14 26  1  6  0  0  0
 14 21  1  0  0  0  0
 14 15  1  0  0  0  0
 15  3  1  0  0  0  0
 16 11  1  0  0  0  0
 17 22  1  6  0  0  0
 17  5  1  0  0  0  0
 18  4  1  0  0  0  0
 19 32  1  6  0  0  0
 19 23  1  0  0  0  0
 20  1  1  0  0  0  0
 22 21  1  0  0  0  0
 24 25  2  0  0  0  0
 25 27  1  0  0  0  0
 27 26  1  0  0  0  0
 28 26  2  0  0  0  0
 30 25  1  0  0  0  0
 30 29  1  0  0  0  0
 31 37  1  0  0  0  0
 32 31  2  0  0  0  0
 33 36  2  0  0  0  0
 33 32  1  0  0  0  0
 34 36  1  0  0  0  0
 35 37  2  0  0  0  0
 36 35  1  0  0  0  0
M  END
>  <MODEL>
2

>  <REMARK>
 VINA RESULT:       4.3      2.006      2.783
  Name = 
  2 active torsions:
  status: ('A' for Active; 'I' for Inactive)
    1  A    between atoms: C_8  and  C_18
    2  A    between atoms: C_23  and  C_30
                            x       y       z     vdW  Elec       q    Type
                         _______ _______ _______ _____ _____    ______ ____

>  <TORSDO>
F 2

$$$$
=
 OpenBabel11122413493D

 37 42  0  0  1  0  0  0  0  0999 V2000
  161.4230  207.8660  151.4340 C   0  0  1  0  0  0  0  0  0  0  0  0
  159.9230  211.8190  151.0450 C   0  0  0  0  0  0  0  0  0  0  0  0
  160.0830  213.6380  153.7030 C   0  0  0  0  0  2  0  0  0  0  0  0
  161.6490  210.1780  150.2900 C   0  0  0  0  0  0  0  0  0  0  0  0
  159.1600  211.8740  152.1320 C   0  0  2  0  0  3  0  0  0  0  0  0
  160.3180  210.4170  150.8760 C   0  0  0  0  0  0  0  0  0  0  0  0
  158.8770  213.1480  152.8900 C   0  0  2  0  0  3  0  0  0  0  0  0
  162.3360  211.1800  149.7210 C   0  0  0  0  0  3  0  0  0  0  0  0
  160.3050  209.8840  152.2120 N   0  0  0  0  0  0  0  0  0  0  0  0
  162.4180  207.6960  152.5660 C   0  0  0  0  0  1  0  0  0  0  0  0
  160.2500  214.3350  150.4800 C   0  0  0  0  0  2  0  0  0  0  0  0
  161.8170  212.5800  149.7530 C   0  0  0  0  0  3  0  0  0  0  0  0
  160.1060  208.4560  152.0240 C   0  0  0  0  0  2  0  0  0  0  0  0
  160.0360  211.8290  155.5240 C   0  0  1  0  0  3  0  0  0  0  0  0
  160.8360  212.5030  154.4050 C   0  0  0  0  0  2  0  0  0  0  0  0
  160.6680  212.9020  150.3750 C   0  0  0  0  0  0  0  0  0  0  0  0
  159.2230  210.5840  152.7710 N   0  0  1  0  0  0  0  0  0  0  0  0
  162.1040  208.7380  150.3180 C   0  0  0  0  0  2  0  0  0  0  0  0
  158.2520  214.2910  152.0670 C   0  0  1  0  0  3  0  0  0  0  0  0
  161.1460  206.6080  150.9030 O   0  0  0  0  0  1  0  0  0  0  0  0
  158.6460  211.3240  155.1090 C   0  0  0  0  0  2  0  0  0  0  0  0
  158.6320  210.2050  154.0590 C   0  0  0  0  0  2  0  0  0  0  0  0
  158.7370  214.4530  150.6170 C   0  0  0  0  0  2  0  0  0  0  0  0
  162.2000  208.4270  157.2610 O   0  0  0  0  0  0  0  0  0  0  0  0
  161.3100  208.2670  156.3840 C   0  0  0  0  0  0  0  0  0  0  0  0
  160.8370  210.7610  156.1960 C   0  0  0  0  0  0  0  0  0  0  0  0
  160.6130  209.3940  155.8350 N   0  0  0  0  0  2  0  0  0  0  0  0
  161.7110  211.0680  157.0530 O   0  0  0  0  0  0  0  0  0  0  0  0
  159.9840  206.6920  154.9340 C   0  0  0  0  0  1  0  0  0  0  0  0
  160.9990  206.9470  155.9420 N   0  0  0  0  0  2  0  0  0  0  0  0
  156.1250  214.0140  153.3480 C   0  0  0  0  0  3  0  0  0  0  0  0
  156.7580  214.2300  152.1220 C   0  0  0  0  0  0  0  0  0  0  0  0
  155.9860  214.3750  150.9620 C   0  0  0  0  0  3  0  0  0  0  0  0
  153.7630  214.4530  149.8310 C   0  0  0  0  0  1  0  0  0  0  0  0
  154.0010  214.0930  152.2580 N   0  0  0  0  0  0  0  0  0  0  0  0
  154.5950  214.3030  151.0530 C   0  0  0  0  0  0  0  0  0  0  0  0
  154.7310  213.9490  153.3970 C   0  0  0  0  0  3  0  0  0  0  0  0
  1 13  1  0  0  0  0
  1 10  1  1  0  0  0
  3 15  1  0  0  0  0
  4 18  1  0  0  0  0
  4  6  2  0  0  0  0
  5  2  1  1  0  0  0
  5 17  1  0  0  0  0
  5  7  1  0  0  0  0
  6  2  1  0  0  0  0
  6  9  1  0  0  0  0
  7  3  1  6  0  0  0
  8 12  2  0  0  0  0
  8  4  1  0  0  0  0
  9 17  1  0  0  0  0
 11 23  1  0  0  0  0
 12 16  1  0  0  0  0
 13  9  1  0  0  0  0
 14 26  1  6  0  0  0
 15 14  1  0  0  0  0
 16 11  1  0  0  0  0
 16  2  2  0  0  0  0
 17 22  1  1  0  0  0
 18  1  1  0  0  0  0
 19 32  1  6  0  0  0
 19  7  1  0  0  0  0
 20  1  1  0  0  0  0
 21 14  1  0  0  0  0
 22 21  1  0  0  0  0
 23 19  1  0  0  0  0
 25 24  2  0  0  0  0
 26 28  2  0  0  0  0
 27 26  1  0  0  0  0
 27 25  1  0  0  0  0
 29 30  1  0  0  0  0
 30 25  1  0  0  0  0
 31 37  1  0  0  0  0
 32 31  2  0  0  0  0
 33 36  2  0  0  0  0
 33 32  1  0  0  0  0
 34 36  1  0  0  0  0
 35 37  2  0  0  0  0
 36 35  1  0  0  0  0
M  END
>  <MODEL>
3

>  <REMARK>
 VINA RESULT:       4.7      3.444      6.925
  Name = 
  2 active torsions:
  status: ('A' for Active; 'I' for Inactive)
    1  A    between atoms: C_8  and  C_18
    2  A    between atoms: C_23  and  C_30
                            x       y       z     vdW  Elec       q    Type
                         _______ _______ _______ _____ _____    ______ ____

>  <TORSDO>
F 2

$$$$
=
 OpenBabel11122413493D

 37 42  0  0  1  0  0  0  0  0999 V2000
  158.2710  213.4010  151.6430 C   0  0  1  0  0  0  0  0  0  0  0  0
  160.2900  210.0040  153.1990 C   0  0  0  0  0  0  0  0  0  0  0  0
  163.2390  209.4710  152.0090 C   0  0  0  0  0  2  0  0  0  0  0  0
  159.3050  212.2420  153.7140 C   0  0  0  0  0  0  0  0  0  0  0  0
  160.7030  209.4540  152.0620 C   0  0  2  0  0  3  0  0  0  0  0  0
  159.3390  211.0610  152.8350 C   0  0  0  0  0  0  0  0  0  0  0  0
  161.9600  208.6250  151.9450 C   0  0  2  0  0  3  0  0  0  0  0  0
  159.9240  212.2280  154.9050 C   0  0  0  0  0  3  0  0  0  0  0  0
  159.7600  211.4790  151.5250 N   0  0  0  0  0  0  0  0  0  0  0  0
  159.1970  214.4520  151.0620 C   0  0  0  0  0  1  0  0  0  0  0  0
  161.8540  208.8870  154.9490 C   0  0  0  0  0  2  0  0  0  0  0  0
  160.7460  211.0540  155.3260 C   0  0  0  0  0  3  0  0  0  0  0  0
  158.5620  212.0450  150.9280 C   0  0  0  0  0  2  0  0  0  0  0  0
  163.0350  210.5890  149.7060 C   0  0  1  0  0  3  0  0  0  0  0  0
  163.1330  210.7820  151.2230 C   0  0  0  0  0  2  0  0  0  0  0  0
  160.9270  209.9860  154.5290 C   0  0  0  0  0  0  0  0  0  0  0  0
  160.1970  210.2590  150.9790 N   0  0  1  0  0  0  0  0  0  0  0  0
  158.4670  213.3890  153.2020 C   0  0  0  0  0  2  0  0  0  0  0  0
  162.0450  207.4040  152.8800 C   0  0  1  0  0  3  0  0  0  0  0  0
  156.9580  213.7750  151.3660 O   0  0  0  0  0  1  0  0  0  0  0  0
  161.9180  209.6400  149.2480 C   0  0  0  0  0  2  0  0  0  0  0  0
  160.4870  210.1040  149.5500 C   0  0  0  0  0  2  0  0  0  0  0  0
  161.4650  207.5660  154.2940 C   0  0  0  0  0  2  0  0  0  0  0  0
  162.4630  214.3960  147.5960 O   0  0  0  0  0  0  0  0  0  0  0  0
  161.5000  213.6230  147.8400 C   0  0  0  0  0  0  0  0  0  0  0  0
  162.9770  211.9020  148.9950 C   0  0  0  0  0  0  0  0  0  0  0  0
  161.7120  212.3820  148.5270 N   0  0  0  0  0  2  0  0  0  0  0  0
  164.0270  212.5820  148.8310 O   0  0  0  0  0  0  0  0  0  0  0  0
  159.0320  213.1510  147.6720 C   0  0  0  0  0  1  0  0  0  0  0  0
  160.1870  213.9960  147.4220 N   0  0  0  0  0  2  0  0  0  0  0  0
  161.0730  205.1070  153.0000 C   0  0  0  0  0  3  0  0  0  0  0  0
  161.4880  206.1860  152.2160 C   0  0  0  0  0  0  0  0  0  0  0  0
  161.3880  206.1050  150.8200 C   0  0  0  0  0  3  0  0  0  0  0  0
  160.7610  204.8460  148.7590 C   0  0  0  0  0  1  0  0  0  0  0  0
  160.4720  203.9090  151.0220 N   0  0  0  0  0  0  0  0  0  0  0  0
  160.8720  204.9470  150.2380 C   0  0  0  0  0  0  0  0  0  0  0  0
  160.5610  203.9650  152.3770 C   0  0  0  0  0  3  0  0  0  0  0  0
  1 10  1  6  0  0  0
  1 18  1  0  0  0  0
  2 16  1  0  0  0  0
  4  8  2  0  0  0  0
  5  2  1  1  0  0  0
  6  2  2  0  0  0  0
  6  4  1  0  0  0  0
  7  3  1  1  0  0  0
  7  5  1  0  0  0  0
  7 19  1  0  0  0  0
  8 12  1  0  0  0  0
  9  6  1  0  0  0  0
 13  9  1  0  0  0  0
 13  1  1  0  0  0  0
 14 26  1  6  0  0  0
 14 15  1  0  0  0  0
 15  3  1  0  0  0  0
 16 11  1  0  0  0  0
 16 12  2  0  0  0  0
 17 22  1  6  0  0  0
 17  9  1  0  0  0  0
 17  5  1  0  0  0  0
 18  4  1  0  0  0  0
 19 32  1  6  0  0  0
 19 23  1  0  0  0  0
 20  1  1  0  0  0  0
 21 22  1  0  0  0  0
 21 14  1  0  0  0  0
 23 11  1  0  0  0  0
 24 25  2  0  0  0  0
 25 27  1  0  0  0  0
 27 26  1  0  0  0  0
 28 26  2  0  0  0  0
 30 29  1  0  0  0  0
 30 25  1  0  0  0  0
 32 31  2  0  0  0  0
 33 32  1  0  0  0  0
 34 36  1  0  0  0  0
 35 37  2  0  0  0  0
 36 33  2  0  0  0  0
 36 35  1  0  0  0  0
 37 31  1  0  0  0  0
M  END
>  <MODEL>
4

>  <REMARK>
 VINA RESULT:       5.2      2.077      5.836
  Name = 
  2 active torsions:
  status: ('A' for Active; 'I' for Inactive)
    1  A    between atoms: C_8  and  C_18
    2  A    between atoms: C_23  and  C_30
                            x       y       z     vdW  Elec       q    Type
                         _______ _______ _______ _____ _____    ______ ____

>  <TORSDO>
F 2

$$$$
=
 OpenBabel11122413493D

 37 42  0  0  1  0  0  0  0  0999 V2000
  160.9570  205.5030  152.3190 C   0  0  1  0  0  0  0  0  0  0  0  0
  161.2560  209.0290  149.9730 C   0  0  0  0  0  0  0  0  0  0  0  0
  162.5300  211.5900  151.4630 C   0  0  0  0  0  2  0  0  0  0  0  0
  161.9970  206.6590  150.2500 C   0  0  0  0  0  0  0  0  0  0  0  0
  160.7420  209.9070  150.8280 C   0  0  2  0  0  3  0  0  0  0  0  0
  160.9870  207.6960  150.5230 C   0  0  0  0  0  0  0  0  0  0  0  0
  161.1350  211.3640  150.8650 C   0  0  2  0  0  3  0  0  0  0  0  0
  162.9650  206.8680  149.3440 C   0  0  0  0  0  3  0  0  0  0  0  0
  160.9240  207.9080  151.9450 N   0  0  0  0  0  0  0  0  0  0  0  0
  161.9220  205.4590  153.4880 C   0  0  0  0  0  1  0  0  0  0  0  0
  162.5520  210.5660  148.3240 C   0  0  0  0  0  2  0  0  0  0  0  0
  163.1060  208.1900  148.6630 C   0  0  0  0  0  3  0  0  0  0  0  0
  160.1090  206.8080  152.4330 C   0  0  0  0  0  2  0  0  0  0  0  0
  161.9540  211.0560  153.9080 C   0  0  1  0  0  3  0  0  0  0  0  0
  162.8100  210.7090  152.6850 C   0  0  0  0  0  2  0  0  0  0  0  0
  162.2980  209.2280  148.9470 C   0  0  0  0  0  0  0  0  0  0  0  0
  160.3300  209.1800  152.0020 N   0  0  1  0  0  0  0  0  0  0  0  0
  161.7910  205.3620  150.9950 C   0  0  0  0  0  2  0  0  0  0  0  0
  160.9570  212.1390  149.5460 C   0  0  1  0  0  3  0  0  0  0  0  0
  160.1000  204.4080  152.4200 O   0  0  0  0  0  1  0  0  0  0  0  0
  160.4400  211.0830  153.6480 C   0  0  0  0  0  2  0  0  0  0  0  0
  159.8090  209.7410  153.2530 C   0  0  0  0  0  2  0  0  0  0  0  0
  161.2680  211.3830  148.2440 C   0  0  0  0  0  2  0  0  0  0  0  0
  162.6410  208.3070  157.2610 O   0  0  0  0  0  0  0  0  0  0  0  0
  161.6170  208.2210  156.5340 C   0  0  0  0  0  0  0  0  0  0  0  0
  162.3020  210.1920  155.0770 C   0  0  0  0  0  0  0  0  0  0  0  0
  161.4110  209.1340  155.4470 N   0  0  0  0  0  2  0  0  0  0  0  0
  163.3760  210.3840  155.7100 O   0  0  0  0  0  0  0  0  0  0  0  0
  159.4520  207.0480  156.0070 C   0  0  0  0  0  1  0  0  0  0  0  0
  160.6560  207.2020  156.8060 N   0  0  0  0  0  2  0  0  0  0  0  0
  158.9790  213.1840  150.6590 C   0  0  0  0  0  3  0  0  0  0  0  0
  159.6030  212.7720  149.4790 C   0  0  0  0  0  0  0  0  0  0  0  0
  158.9470  212.9470  148.2540 C   0  0  0  0  0  3  0  0  0  0  0  0
  156.9710  213.7240  146.9420 C   0  0  0  0  0  1  0  0  0  0  0  0
  157.0930  213.9280  149.3960 N   0  0  0  0  0  0  0  0  0  0  0  0
  157.6800  213.5320  148.2340 C   0  0  0  0  0  0  0  0  0  0  0  0
  157.7110  213.7660  150.5970 C   0  0  0  0  0  3  0  0  0  0  0  0
  1 20  1  0  0  0  0
  1 13  1  0  0  0  0
  1 10  1  1  0  0  0
  2  6  1  0  0  0  0
  3 15  1  0  0  0  0
  4  6  2  0  0  0  0
  4 18  1  0  0  0  0
  5  2  1  1  0  0  0
  5  7  1  0  0  0  0
  5 17  1  0  0  0  0
  6  9  1  0  0  0  0
  7  3  1  6  0  0  0
  8  4  1  0  0  0  0
  9 17  1  0  0  0  0
  9 13  1  0  0  0  0
 11 16  1  0  0  0  0
 12 16  1  0  0  0  0
 12  8  2  0  0  0  0
 14 26  1  1  0  0  0
 15 14  1  0  0  0  0
 16  2  2  0  0  0  0
 17 22  1  1  0  0  0
 18  1  1  0  0  0  0
 19 32  1  6  0  0  0
 19  7  1  0  0  0  0
 21 14  1  0  0  0  0
 22 21  1  0  0  0  0
 23 11  1  0  0  0  0
 23 19  1  0  0  0  0
 25 30  1  0  0  0  0
 25 24  2  0  0  0  0
 26 27  1  0  0  0  0
 26 28  2  0  0  0  0
 27 25  1  0  0  0  0
 29 30  1  0  0  0  0
 32 31  2  0  0  0  0
 33 32  1  0  0  0  0
 34 36  1  0  0  0  0
 35 37  2  0  0  0  0
 36 33  2  0  0  0  0
 36 35  1  0  0  0  0
 37 31  1  0  0  0  0
M  END
>  <MODEL>
5

>  <REMARK>
 VINA RESULT:       6.8      3.431      7.157
  Name = 
  2 active torsions:
  status: ('A' for Active; 'I' for Inactive)
    1  A    between atoms: C_8  and  C_18
    2  A    between atoms: C_23  and  C_30
                            x       y       z     vdW  Elec       q    Type
                         _______ _______ _______ _____ _____    ______ ____

>  <TORSDO>
F 2

$$$$
