=
 OpenBabel11122414113D

 28 32  0  0  1  0  0  0  0  0999 V2000
  160.9790  209.3250  155.1420 C   0  0  0  0  0  0  0  0  0  0  0  0
  157.9280  210.3120  155.2430 O   0  0  0  0  0  0  0  0  0  0  0  0
  161.1420  212.2360  149.9050 O   0  0  0  0  0  0  0  0  0  0  0  0
  162.4360  210.5810  157.1830 C   0  0  0  0  0  3  0  0  0  0  0  0
  159.2980  212.9940  151.2570 C   0  0  1  0  0  3  0  0  0  0  0  0
  160.3700  208.5630  154.0180 C   0  0  0  0  0  2  0  0  0  0  0  0
  158.5390  211.5790  157.2610 O   0  0  0  0  0  0  0  0  0  0  0  0
  158.1280  211.6860  155.8200 S   0  0  0  0  0  0  0  0  0  0  0  0
  156.5130  213.6540  154.7980 C   0  0  0  0  0  0  0  0  0  0  0  0
  159.3730  212.6110  154.9160 C   0  0  2  0  0  3  0  0  0  0  0  0
  162.9100  208.7780  151.4430 O   0  0  0  0  0  0  0  0  0  0  0  0
  159.6630  211.2070  152.9460 C   0  0  1  0  0  3  0  0  0  0  0  0
  157.4570  214.0000  153.9720 N   0  0  0  0  0  0  0  0  0  0  0  0
  156.6540  212.5620  155.7040 N   0  0  0  0  0  2  0  0  0  0  0  0
  161.7590  208.8780  151.9380 C   0  0  0  0  0  0  0  0  0  0  0  0
  161.0790  210.7400  155.1620 C   0  0  0  0  0  0  0  0  0  0  0  0
  160.4310  212.1050  150.9370 C   0  0  0  0  0  0  0  0  0  0  0  0
  155.2600  214.4530  154.8310 C   0  0  0  0  0  1  0  0  0  0  0  0
  160.7310  209.6960  151.2370 C   0  0  0  0  0  2  0  0  0  0  0  0
  161.8210  211.3430  156.1900 C   0  0  0  0  0  3  0  0  0  0  0  0
  161.6020  208.5720  156.1460 C   0  0  0  0  0  3  0  0  0  0  0  0
  162.3200  209.1940  157.1660 C   0  0  0  0  0  3  0  0  0  0  0  0
  161.4360  208.1500  153.1200 N   0  0  0  0  0  2  0  0  0  0  0  0
  158.7300  212.3760  152.5570 C   0  0  1  0  0  3  0  0  0  0  0  0
  160.5820  211.0170  151.8300 N   0  0  0  0  0  0  0  0  0  0  0  0
  158.7480  213.3400  153.7430 C   0  0  2  0  0  3  0  0  0  0  0  0
  159.7790  214.4380  151.3670 C   0  0  0  0  0  1  0  0  0  0  0  0
  160.3770  211.6970  154.2150 C   0  0  2  0  0  3  0  0  0  0  0  0
  1 16  2  0  0  0  0
  1 21  1  0  0  0  0
  2  8  2  0  0  0  0
  3 17  2  0  0  0  0
  5 27  1  1  0  0  0
  5 24  1  0  0  0  0
  6  1  1  0  0  0  0
  8  7  2  0  0  0  0
  9 18  1  0  0  0  0
  9 14  1  0  0  0  0
 10  8  1  6  0  0  0
 11 15  2  0  0  0  0
 12 25  1  6  0  0  0
 12 28  1  0  0  0  0
 13  9  2  0  0  0  0
 14  8  1  0  0  0  0
 15 23  1  0  0  0  0
 16 20  1  0  0  0  0
 17  5  1  0  0  0  0
 17 25  1  0  0  0  0
 19 25  1  0  0  0  0
 19 15  1  0  0  0  0
 20  4  2  0  0  0  0
 21 22  2  0  0  0  0
 22  4  1  0  0  0  0
 23  6  1  0  0  0  0
 24 12  1  0  0  0  0
 24 26  1  0  0  0  0
 26 13  1  0  0  0  0
 26 10  1  0  0  0  0
 28 10  1  0  0  0  0
 28 16  1  0  0  0  0
M  END
>  <MODEL>
1

>  <REMARK>
 VINA RESULT:      -3.9      0.000      0.000
  Name = 
  0 active torsions:
  status: ('A' for Active; 'I' for Inactive)
                            x       y       z     vdW  Elec       q    Type
                         _______ _______ _______ _____ _____    ______ ____

>  <TORSDO>
F 0

$$$$
=
 OpenBabel11122414113D

 28 32  0  0  1  0  0  0  0  0999 V2000
  157.8400  213.3970  153.3600 C   0  0  0  0  0  0  0  0  0  0  0  0
  160.2360  212.9340  155.4430 O   0  0  0  0  0  0  0  0  0  0  0  0
  161.3620  210.4160  149.5330 O   0  0  0  0  0  0  0  0  0  0  0  0
  155.5860  211.9470  154.1910 C   0  0  0  0  0  3  0  0  0  0  0  0
  162.0160  209.9990  151.8140 C   0  0  1  0  0  3  0  0  0  0  0  0
  158.9240  214.2320  152.7740 C   0  0  0  0  0  2  0  0  0  0  0  0
  158.6480  211.6160  156.7800 O   0  0  0  0  0  0  0  0  0  0  0  0
  159.8840  211.5560  155.9280 S   0  0  0  0  0  0  0  0  0  0  0  0
  162.0030  209.8690  156.3660 C   0  0  0  0  0  0  0  0  0  0  0  0
  159.6080  210.4210  154.5650 C   0  0  2  0  0  3  0  0  0  0  0  0
  158.6220  213.5540  149.2270 O   0  0  0  0  0  0  0  0  0  0  0  0
  160.4580  211.7260  152.6910 C   0  0  1  0  0  3  0  0  0  0  0  0
  161.8400  209.3580  155.1800 N   0  0  0  0  0  0  0  0  0  0  0  0
  161.1930  210.9370  156.8530 N   0  0  0  0  0  2  0  0  0  0  0  0
  159.2060  213.6560  150.3360 C   0  0  0  0  0  0  0  0  0  0  0  0
  157.9200  211.9860  153.4800 C   0  0  0  0  0  0  0  0  0  0  0  0
  161.2420  210.6810  150.7600 C   0  0  0  0  0  0  0  0  0  0  0  0
  163.0390  209.2920  157.2610 C   0  0  0  0  0  1  0  0  0  0  0  0
  160.5340  213.0100  150.5250 C   0  0  0  0  0  2  0  0  0  0  0  0
  156.7750  211.2840  153.8900 C   0  0  0  0  0  3  0  0  0  0  0  0
  156.6390  214.0510  153.6660 C   0  0  0  0  0  3  0  0  0  0  0  0
  155.5200  213.3340  154.0870 C   0  0  0  0  0  3  0  0  0  0  0  0
  158.6220  214.4460  151.3690 N   0  0  0  0  0  2  0  0  0  0  0  0
  161.5590  210.7230  153.1030 C   0  0  1  0  0  3  0  0  0  0  0  0
  160.4330  211.7420  151.2320 N   0  0  0  0  0  0  0  0  0  0  0  0
  160.9140  209.7890  154.1260 C   0  0  2  0  0  3  0  0  0  0  0  0
  161.7510  208.4960  151.7720 C   0  0  0  0  0  1  0  0  0  0  0  0
  159.1700  211.1440  153.2910 C   0  0  2  0  0  3  0  0  0  0  0  0
  1 16  2  0  0  0  0
  1 21  1  0  0  0  0
  2  8  2  0  0  0  0
  3 17  2  0  0  0  0
  5 27  1  1  0  0  0
  5 24  1  0  0  0  0
  6  1  1  0  0  0  0
  8  7  2  0  0  0  0
  8 14  1  0  0  0  0
  9 14  1  0  0  0  0
  9 18  1  0  0  0  0
 10  8  1  1  0  0  0
 11 15  2  0  0  0  0
 12 25  1  6  0  0  0
 12 24  1  0  0  0  0
 12 28  1  0  0  0  0
 13  9  2  0  0  0  0
 15 19  1  0  0  0  0
 15 23  1  0  0  0  0
 16 20  1  0  0  0  0
 17 25  1  0  0  0  0
 17  5  1  0  0  0  0
 19 25  1  0  0  0  0
 20  4  2  0  0  0  0
 21 22  2  0  0  0  0
 22  4  1  0  0  0  0
 23  6  1  0  0  0  0
 24 26  1  0  0  0  0
 26 10  1  0  0  0  0
 26 13  1  0  0  0  0
 28 16  1  0  0  0  0
 28 10  1  0  0  0  0
M  END
>  <MODEL>
2

>  <REMARK>
 VINA RESULT:      -3.0      1.831      5.226
  Name = 
  0 active torsions:
  status: ('A' for Active; 'I' for Inactive)
                            x       y       z     vdW  Elec       q    Type
                         _______ _______ _______ _____ _____    ______ ____

>  <TORSDO>
F 0

$$$$
=
 OpenBabel11122414113D

 28 32  0  0  1  0  0  0  0  0999 V2000
  159.0380  213.6660  149.6440 C   0  0  0  0  0  0  0  0  0  0  0  0
  159.6910  214.4530  152.6850 O   0  0  0  0  0  0  0  0  0  0  0  0
  162.1350  208.6830  150.8760 O   0  0  0  0  0  0  0  0  0  0  0  0
  156.2790  213.2450  149.3590 C   0  0  0  0  0  3  0  0  0  0  0  0
  161.3900  209.7600  152.8980 C   0  0  1  0  0  3  0  0  0  0  0  0
  160.5140  213.8560  149.6030 C   0  0  0  0  0  2  0  0  0  0  0  0
  157.2650  214.4040  153.0840 O   0  0  0  0  0  0  0  0  0  0  0  0
  158.5730  213.7270  153.3780 S   0  0  0  0  0  0  0  0  0  0  0  0
  159.2200  212.5490  155.7700 C   0  0  0  0  0  0  0  0  0  0  0  0
  158.4780  212.0090  152.8640 C   0  0  2  0  0  3  0  0  0  0  0  0
  161.6140  211.1070  147.5140 O   0  0  0  0  0  0  0  0  0  0  0  0
  160.5830  211.7610  151.6640 C   0  0  1  0  0  3  0  0  0  0  0  0
  159.4100  211.4150  155.1600 N   0  0  0  0  0  0  0  0  0  0  0  0
  158.8620  213.7390  155.0720 N   0  0  0  0  0  2  0  0  0  0  0  0
  161.5930  211.8460  148.5320 C   0  0  0  0  0  0  0  0  0  0  0  0
  158.4030  212.6500  150.4030 C   0  0  0  0  0  0  0  0  0  0  0  0
  161.5970  209.6740  151.4410 C   0  0  0  0  0  0  0  0  0  0  0  0
  159.3330  212.5950  157.2510 C   0  0  0  0  0  1  0  0  0  0  0  0
  162.2240  211.3690  149.7940 C   0  0  0  0  0  2  0  0  0  0  0  0
  157.0230  212.4550  150.2360 C   0  0  0  0  0  3  0  0  0  0  0  0
  158.2790  214.4520  148.7670 C   0  0  0  0  0  3  0  0  0  0  0  0
  156.9070  214.2500  148.6300 C   0  0  0  0  0  3  0  0  0  0  0  0
  161.0300  213.1520  148.4410 N   0  0  0  0  0  2  0  0  0  0  0  0
  160.7760  211.1690  153.0790 C   0  0  1  0  0  3  0  0  0  0  0  0
  161.2440  210.8500  150.7360 N   0  0  0  0  0  0  0  0  0  0  0  0
  159.3880  211.1470  153.7170 C   0  0  2  0  0  3  0  0  0  0  0  0
  160.5260  208.5960  153.3770 C   0  0  0  0  0  1  0  0  0  0  0  0
  159.0600  211.7890  151.4690 C   0  0  2  0  0  3  0  0  0  0  0  0
  1 16  1  0  0  0  0
  2  8  2  0  0  0  0
  3 17  2  0  0  0  0
  4 20  1  0  0  0  0
  5 24  1  0  0  0  0
  5 27  1  6  0  0  0
  6  1  1  0  0  0  0
  7  8  2  0  0  0  0
  8 14  1  0  0  0  0
  9 18  1  0  0  0  0
 10  8  1  1  0  0  0
 10 26  1  0  0  0  0
 11 15  2  0  0  0  0
 12 25  1  6  0  0  0
 12 24  1  0  0  0  0
 13  9  2  0  0  0  0
 14  9  1  0  0  0  0
 15 19  1  0  0  0  0
 16 28  1  0  0  0  0
 17  5  1  0  0  0  0
 19 25  1  0  0  0  0
 20 16  2  0  0  0  0
 21  1  2  0  0  0  0
 22 21  1  0  0  0  0
 22  4  2  0  0  0  0
 23 15  1  0  0  0  0
 23  6  1  0  0  0  0
 24 26  1  0  0  0  0
 25 17  1  0  0  0  0
 26 13  1  0  0  0  0
 28 12  1  0  0  0  0
 28 10  1  0  0  0  0
M  END
>  <MODEL>
3

>  <REMARK>
 VINA RESULT:      -1.3      2.627      5.514
  Name = 
  0 active torsions:
  status: ('A' for Active; 'I' for Inactive)
                            x       y       z     vdW  Elec       q    Type
                         _______ _______ _______ _____ _____    ______ ____

>  <TORSDO>
F 0

$$$$
=
 OpenBabel11122414113D

 28 32  0  0  1  0  0  0  0  0999 V2000
  161.3020  209.5030  155.0800 C   0  0  0  0  0  0  0  0  0  0  0  0
  163.0310  210.7030  152.6590 O   0  0  0  0  0  0  0  0  0  0  0  0
  157.4670  213.9190  153.7670 O   0  0  0  0  0  0  0  0  0  0  0  0
  160.3700  206.9490  154.3880 C   0  0  0  0  0  3  0  0  0  0  0  0
  158.9450  213.4810  151.9170 C   0  0  1  0  0  3  0  0  0  0  0  0
  161.7120  210.8280  155.6200 C   0  0  0  0  0  2  0  0  0  0  0  0
  162.7030  208.5460  151.5250 O   0  0  0  0  0  0  0  0  0  0  0  0
  162.3630  210.0090  151.5050 S   0  0  0  0  0  0  0  0  0  0  0  0
  162.0500  211.5110  149.2310 C   0  0  0  0  0  0  0  0  0  0  0  0
  160.5790  210.2030  151.5560 C   0  0  2  0  0  3  0  0  0  0  0  0
  158.6950  211.9860  157.2610 O   0  0  0  0  0  0  0  0  0  0  0  0
  160.3430  211.9260  153.2620 C   0  0  1  0  0  3  0  0  0  0  0  0
  160.8360  211.8070  149.5930 N   0  0  0  0  0  0  0  0  0  0  0  0
  162.9120  210.7100  150.0360 N   0  0  0  0  0  2  0  0  0  0  0  0
  159.6830  212.0490  156.4850 C   0  0  0  0  0  0  0  0  0  0  0  0
  160.4590  209.3490  153.9500 C   0  0  0  0  0  0  0  0  0  0  0  0
  158.4760  213.3220  153.3060 C   0  0  0  0  0  0  0  0  0  0  0  0
  162.5410  211.9850  147.9100 C   0  0  0  0  0  1  0  0  0  0  0  0
  159.7020  213.0780  155.4080 C   0  0  0  0  0  2  0  0  0  0  0  0
  160.0000  208.0600  153.6300 C   0  0  0  0  0  3  0  0  0  0  0  0
  161.6660  208.3790  155.8330 C   0  0  0  0  0  3  0  0  0  0  0  0
  161.2100  207.1070  155.4860 C   0  0  0  0  0  3  0  0  0  0  0  0
  160.7960  211.1840  156.6920 N   0  0  0  0  0  2  0  0  0  0  0  0
  160.2250  212.6120  151.8820 C   0  0  1  0  0  3  0  0  0  0  0  0
  159.3240  212.5270  154.1150 N   0  0  0  0  0  0  0  0  0  0  0  0
  160.1620  211.4810  150.8560 C   0  0  2  0  0  3  0  0  0  0  0  0
  157.8450  213.0740  150.9400 C   0  0  0  0  0  1  0  0  0  0  0  0
  160.0640  210.4440  152.9740 C   0  0  2  0  0  3  0  0  0  0  0  0
  1  6  1  0  0  0  0
  1 21  1  0  0  0  0
  4 22  1  0  0  0  0
  5 27  1  6  0  0  0
  5 17  1  0  0  0  0
  6 23  1  0  0  0  0
  8  7  2  0  0  0  0
  8  2  2  0  0  0  0
  9 13  2  0  0  0  0
  9 14  1  0  0  0  0
 10  8  1  1  0  0  0
 10 28  1  0  0  0  0
 12 25  1  1  0  0  0
 13 26  1  0  0  0  0
 14  8  1  0  0  0  0
 15 23  1  0  0  0  0
 15 11  2  0  0  0  0
 16  1  2  0  0  0  0
 17  3  2  0  0  0  0
 17 25  1  0  0  0  0
 18  9  1  0  0  0  0
 19 15  1  0  0  0  0
 20 16  1  0  0  0  0
 20  4  2  0  0  0  0
 22 21  2  0  0  0  0
 24  5  1  0  0  0  0
 24 12  1  0  0  0  0
 25 19  1  0  0  0  0
 26 10  1  0  0  0  0
 26 24  1  0  0  0  0
 28 12  1  0  0  0  0
 28 16  1  0  0  0  0
M  END
>  <MODEL>
4

>  <REMARK>
 VINA RESULT:      -1.0      2.227      5.104
  Name = 
  0 active torsions:
  status: ('A' for Active; 'I' for Inactive)
                            x       y       z     vdW  Elec       q    Type
                         _______ _______ _______ _____ _____    ______ ____

>  <TORSDO>
F 0

$$$$
=
 OpenBabel11122414113D

 28 32  0  0  1  0  0  0  0  0999 V2000
  160.4840  210.2010  156.0010 C   0  0  0  0  0  0  0  0  0  0  0  0
  162.5680  210.7020  153.6140 O   0  0  0  0  0  0  0  0  0  0  0  0
  157.2420  214.4530  153.2900 O   0  0  0  0  0  0  0  0  0  0  0  0
  159.3970  207.6250  155.7680 C   0  0  0  0  0  3  0  0  0  0  0  0
  158.8640  213.5080  151.7800 C   0  0  1  0  0  3  0  0  0  0  0  0
  160.9550  211.5830  156.2880 C   0  0  0  0  0  2  0  0  0  0  0  0
  162.1630  208.3710  152.9430 O   0  0  0  0  0  0  0  0  0  0  0  0
  161.9650  209.8110  152.5640 S   0  0  0  0  0  0  0  0  0  0  0  0
  162.0410  210.7760  149.9970 C   0  0  0  0  0  0  0  0  0  0  0  0
  160.2120  210.1310  152.3470 C   0  0  2  0  0  3  0  0  0  0  0  0
  157.9020  213.2830  157.2460 O   0  0  0  0  0  0  0  0  0  0  0  0
  159.9570  212.2080  153.5950 C   0  0  1  0  0  3  0  0  0  0  0  0
  160.8280  211.2280  150.1310 N   0  0  0  0  0  0  0  0  0  0  0  0
  162.7330  210.1230  151.0580 N   0  0  0  0  0  2  0  0  0  0  0  0
  158.9690  213.1020  156.6050 C   0  0  0  0  0  0  0  0  0  0  0  0
  159.7570  209.8510  154.8340 C   0  0  0  0  0  0  0  0  0  0  0  0
  158.2350  213.7000  153.1000 C   0  0  0  0  0  0  0  0  0  0  0  0
  162.7130  210.9050  148.6780 C   0  0  0  0  0  1  0  0  0  0  0  0
  159.1990  213.8570  155.3420 C   0  0  0  0  0  2  0  0  0  0  0  0
  159.2160  208.5580  154.7460 C   0  0  0  0  0  3  0  0  0  0  0  0
  160.6570  209.2540  157.0200 C   0  0  0  0  0  3  0  0  0  0  0  0
  160.1250  207.9710  156.9020 C   0  0  0  0  0  3  0  0  0  0  0  0
  159.9670  212.2330  157.1330 N   0  0  0  0  0  2  0  0  0  0  0  0
  160.0530  212.5690  152.0950 C   0  0  1  0  0  3  0  0  0  0  0  0
  158.9130  213.0540  154.1620 N   0  0  0  0  0  0  0  0  0  0  0  0
  159.9950  211.2430  151.3390 C   0  0  2  0  0  3  0  0  0  0  0  0
  157.8410  212.9660  150.7850 C   0  0  0  0  0  1  0  0  0  0  0  0
  159.5730  210.7210  153.6030 C   0  0  2  0  0  3  0  0  0  0  0  0
  1  6  1  0  0  0  0
  1 21  1  0  0  0  0
  4 22  1  0  0  0  0
  5 27  1  6  0  0  0
  5 24  1  0  0  0  0
  5 17  1  0  0  0  0
  6 23  1  0  0  0  0
  8  7  2  0  0  0  0
  8  2  2  0  0  0  0
  9 13  2  0  0  0  0
  9 14  1  0  0  0  0
 10  8  1  1  0  0  0
 10 28  1  0  0  0  0
 12 28  1  0  0  0  0
 12 25  1  6  0  0  0
 13 26  1  0  0  0  0
 14  8  1  0  0  0  0
 15 23  1  0  0  0  0
 15 11  2  0  0  0  0
 16  1  2  0  0  0  0
 17  3  2  0  0  0  0
 17 25  1  0  0  0  0
 18  9  1  0  0  0  0
 19 15  1  0  0  0  0
 20 16  1  0  0  0  0
 20  4  2  0  0  0  0
 22 21  2  0  0  0  0
 24 12  1  0  0  0  0
 25 19  1  0  0  0  0
 26 24  1  0  0  0  0
 26 10  1  0  0  0  0
 28 16  1  0  0  0  0
M  END
>  <MODEL>
5

>  <REMARK>
 VINA RESULT:      -0.9      2.221      5.061
  Name = 
  0 active torsions:
  status: ('A' for Active; 'I' for Inactive)
                            x       y       z     vdW  Elec       q    Type
                         _______ _______ _______ _____ _____    ______ ____

>  <TORSDO>
F 0

$$$$
