=
 OpenBabel11122412543D

 32 37  0  0  1  0  0  0  0  0999 V2000
  160.6810  208.8750  156.9360 C   0  0  0  0  0  2  0  0  0  0  0  0
  161.0030  206.8630  152.1460 C   0  0  0  0  0  0  0  0  0  0  0  0
  162.0330  210.7400  149.3900 C   0  0  0  0  0  3  0  0  0  0  0  0
  162.2950  209.9050  148.3030 C   0  0  0  0  0  3  0  0  0  0  0  0
  161.1430  204.5060  151.2330 C   0  0  1  0  0  3  0  0  0  0  0  0
  160.8920  203.8180  149.9280 C   0  0  0  0  0  0  0  0  0  0  0  0
  160.9230  207.1820  154.6390 C   0  0  1  0  0  3  0  0  0  0  0  0
  160.8780  209.1190  153.1180 N   0  0  0  0  0  2  0  0  0  0  0  0
  161.0040  203.3220  147.7610 C   0  0  0  0  0  0  0  0  0  0  0  0
  160.7860  209.5480  155.5570 C   0  0  2  0  0  3  0  0  0  0  0  0
  161.6400  210.1930  150.6120 C   0  0  0  0  0  3  0  0  0  0  0  0
  161.1140  208.2590  151.9930 C   0  0  0  0  0  0  0  0  0  0  0  0
  161.5080  208.8040  150.7630 C   0  0  0  0  0  0  0  0  0  0  0  0
  161.6410  206.5590  149.8010 C   0  0  0  0  0  0  0  0  0  0  0  0
  160.5170  202.2440  148.2790 N   0  0  0  0  0  0  0  0  0  0  0  0
  159.8040  207.6260  156.9090 C   0  0  0  0  0  2  0  0  0  0  0  0
  160.4030  208.6040  154.4000 C   0  0  2  0  0  3  0  0  0  0  0  0
  160.3890  202.4260  149.7250 C   0  0  0  0  0  2  0  0  0  0  0  0
  160.3720  206.5810  155.9410 C   0  0  0  0  0  2  0  0  0  0  0  0
  162.1660  208.5220  148.4380 C   0  0  0  0  0  3  0  0  0  0  0  0
  161.7730  207.9540  149.6620 C   0  0  0  0  0  0  0  0  0  0  0  0
  161.9300  205.6510  148.6210 C   0  0  0  0  0  2  0  0  0  0  0  0
  160.5370  206.2910  153.4630 C   0  0  0  0  0  2  0  0  0  0  0  0
  162.6390  203.8690  151.9640 Cl  0  0  0  0  0  0  0  0  0  0  0  0
  161.2780  203.4710  146.3070 C   0  0  0  0  0  1  0  0  0  0  0  0
  161.2570  206.0090  151.0540 C   0  0  0  0  0  0  0  0  0  0  0  0
  161.2450  204.3300  148.7690 C   0  0  0  0  0  0  0  0  0  0  0  0
  162.0870  210.0360  155.3900 O   0  0  0  0  0  0  0  0  0  0  0  0
  162.6750  209.9320  156.6520 C   0  0  0  0  0  2  0  0  0  0  0  0
  163.1660  211.2680  157.0850 C   0  0  0  0  0  0  0  0  0  0  0  0
  162.3510  212.2100  157.2610 O   0  0  0  0  0  0  0  0  0  0  0  0
  164.5600  211.4920  157.2580 N   0  0  0  0  0  1  0  0  0  0  0  0
  2 23  1  0  0  0  0
  3 11  2  0  0  0  0
  4 20  2  0  0  0  0
  4  3  1  0  0  0  0
  5 24  1  6  0  0  0
  6  5  1  0  0  0  0
  7 23  1  6  0  0  0
  7 19  1  0  0  0  0
  9 15  2  0  0  0  0
  9 27  1  0  0  0  0
 10 28  1  6  0  0  0
 10  1  1  0  0  0  0
 11 13  1  0  0  0  0
 12  2  1  0  0  0  0
 12  8  1  0  0  0  0
 13 12  2  0  0  0  0
 14 26  1  0  0  0  0
 15 18  1  0  0  0  0
 16  1  1  0  0  0  0
 17  8  1  6  0  0  0
 17  7  1  0  0  0  0
 17 10  1  0  0  0  0
 18  6  1  0  0  0  0
 19 16  1  0  0  0  0
 20 21  1  0  0  0  0
 21 14  2  0  0  0  0
 21 13  1  0  0  0  0
 22 27  1  0  0  0  0
 22 14  1  0  0  0  0
 25  9  1  0  0  0  0
 26  5  1  0  0  0  0
 26  2  2  0  0  0  0
 27  6  2  0  0  0  0
 28 29  1  0  0  0  0
 29 30  1  0  0  0  0
 30 32  1  0  0  0  0
 30 31  2  0  0  0  0
M  END
>  <MODEL>
1

>  <REMARK>
 VINA RESULT:      -8.1      0.000      0.000
  Name = 
  3 active torsions:
  status: ('A' for Active; 'I' for Inactive)
    1  A    between atoms: C_10  and  O_20
    2  A    between atoms: O_20  and  C_29
    3  A    between atoms: C_29  and  C_30
                            x       y       z     vdW  Elec       q    Type
                         _______ _______ _______ _____ _____    ______ ____

>  <TORSDO>
F 3

$$$$
=
 OpenBabel11122412543D

 32 37  0  0  1  0  0  0  0  0999 V2000
  160.3060  209.8750  157.0900 C   0  0  0  0  0  2  0  0  0  0  0  0
  160.9730  207.9000  152.3200 C   0  0  0  0  0  0  0  0  0  0  0  0
  161.7400  211.8540  149.5880 C   0  0  0  0  0  3  0  0  0  0  0  0
  162.1140  211.0460  148.5130 C   0  0  0  0  0  3  0  0  0  0  0  0
  161.3580  205.5650  151.4200 C   0  0  1  0  0  3  0  0  0  0  0  0
  161.2150  204.8560  150.1090 C   0  0  0  0  0  0  0  0  0  0  0  0
  160.7790  208.2100  154.8080 C   0  0  1  0  0  3  0  0  0  0  0  0
  160.6100  210.1350  153.2800 N   0  0  0  0  0  2  0  0  0  0  0  0
  161.4460  204.3730  147.9500 C   0  0  0  0  0  0  0  0  0  0  0  0
  160.3970  210.5550  155.7120 C   0  0  2  0  0  3  0  0  0  0  0  0
  161.3570  211.2730  150.7980 C   0  0  0  0  0  3  0  0  0  0  0  0
  160.9620  209.3000  152.1660 C   0  0  0  0  0  0  0  0  0  0  0  0
  161.3460  209.8780  150.9490 C   0  0  0  0  0  0  0  0  0  0  0  0
  161.7160  207.6550  150.0000 C   0  0  0  0  0  0  0  0  0  0  0  0
  161.0410  203.2540  148.4540 N   0  0  0  0  0  0  0  0  0  0  0  0
  159.5470  208.5510  157.0370 C   0  0  0  0  0  2  0  0  0  0  0  0
  160.1400  209.5800  154.5460 C   0  0  2  0  0  3  0  0  0  0  0  0
  160.8480  203.4250  149.8950 C   0  0  0  0  0  2  0  0  0  0  0  0
  160.2410  207.5620  156.0920 C   0  0  0  0  0  2  0  0  0  0  0  0
  162.1070  209.6570  148.6490 C   0  0  0  0  0  3  0  0  0  0  0  0
  161.7260  209.0550  149.8600 C   0  0  0  0  0  0  0  0  0  0  0  0
  162.1270  206.7760  148.8330 C   0  0  0  0  0  2  0  0  0  0  0  0
  160.5160  207.2880  153.6220 C   0  0  0  0  0  2  0  0  0  0  0  0
  162.8800  205.0670  152.2040 Cl  0  0  0  0  0  0  0  0  0  0  0  0
  161.7550  204.5460  146.5050 C   0  0  0  0  0  1  0  0  0  0  0  0
  161.3410  207.0720  151.2400 C   0  0  0  0  0  0  0  0  0  0  0  0
  161.5590  205.3980  148.9620 C   0  0  0  0  0  0  0  0  0  0  0  0
  161.6520  211.1590  155.5880 O   0  0  0  0  0  0  0  0  0  0  0  0
  162.0630  211.4060  156.8990 C   0  0  0  0  0  2  0  0  0  0  0  0
  163.3880  210.7700  157.1340 C   0  0  0  0  0  0  0  0  0  0  0  0
  163.4720  209.5220  157.2590 O   0  0  0  0  0  0  0  0  0  0  0  0
  164.5520  211.5780  157.2600 N   0  0  0  0  0  1  0  0  0  0  0  0
  2 23  1  0  0  0  0
  3 11  2  0  0  0  0
  4 20  2  0  0  0  0
  4  3  1  0  0  0  0
  5 24  1  6  0  0  0
  6  5  1  0  0  0  0
  7 23  1  6  0  0  0
  7 19  1  0  0  0  0
  9 15  2  0  0  0  0
  9 27  1  0  0  0  0
 10 28  1  6  0  0  0
 10  1  1  0  0  0  0
 11 13  1  0  0  0  0
 12  2  1  0  0  0  0
 12  8  1  0  0  0  0
 13 12  2  0  0  0  0
 14 26  1  0  0  0  0
 15 18  1  0  0  0  0
 16  1  1  0  0  0  0
 17  8  1  6  0  0  0
 17  7  1  0  0  0  0
 17 10  1  0  0  0  0
 18  6  1  0  0  0  0
 19 16  1  0  0  0  0
 20 21  1  0  0  0  0
 21 14  2  0  0  0  0
 21 13  1  0  0  0  0
 22 27  1  0  0  0  0
 22 14  1  0  0  0  0
 25  9  1  0  0  0  0
 26  5  1  0  0  0  0
 26  2  2  0  0  0  0
 27  6  2  0  0  0  0
 28 29  1  0  0  0  0
 29 30  1  0  0  0  0
 30 31  2  0  0  0  0
 30 32  1  0  0  0  0
M  END
>  <MODEL>
2

>  <REMARK>
 VINA RESULT:      -7.3      1.005      1.198
  Name = 
  3 active torsions:
  status: ('A' for Active; 'I' for Inactive)
    1  A    between atoms: C_10  and  O_20
    2  A    between atoms: O_20  and  C_29
    3  A    between atoms: C_29  and  C_30
                            x       y       z     vdW  Elec       q    Type
                         _______ _______ _______ _____ _____    ______ ____

>  <TORSDO>
F 3

$$$$
=
 OpenBabel11122412543D

 32 37  0  0  1  0  0  0  0  0999 V2000
  161.0770  202.1480  148.9220 C   0  0  0  0  0  2  0  0  0  0  0  0
  161.4850  206.4150  151.8750 C   0  0  0  0  0  0  0  0  0  0  0  0
  162.2220  209.9490  148.6100 C   0  0  0  0  0  3  0  0  0  0  0  0
  162.0410  210.9120  149.6030 C   0  0  0  0  0  3  0  0  0  0  0  0
  160.9830  206.9310  154.3020 C   0  0  1  0  0  3  0  0  0  0  0  0
  161.3740  207.9680  155.3080 C   0  0  0  0  0  0  0  0  0  0  0  0
  161.0050  204.1020  151.0140 C   0  0  1  0  0  3  0  0  0  0  0  0
  161.9310  205.8330  149.5270 N   0  0  0  0  0  2  0  0  0  0  0  0
  161.6960  209.9560  156.2550 C   0  0  0  0  0  0  0  0  0  0  0  0
  161.5040  203.5860  148.5760 C   0  0  2  0  0  3  0  0  0  0  0  0
  162.1360  208.5920  148.9280 C   0  0  0  0  0  3  0  0  0  0  0  0
  161.7780  206.8210  150.5580 C   0  0  0  0  0  0  0  0  0  0  0  0
  161.8650  208.1840  150.2430 C   0  0  0  0  0  0  0  0  0  0  0  0
  161.4110  208.7610  152.5760 C   0  0  0  0  0  0  0  0  0  0  0  0
  161.7420  209.1460  157.2610 N   0  0  0  0  0  0  0  0  0  0  0  0
  161.5810  201.7050  150.2930 C   0  0  0  0  0  2  0  0  0  0  0  0
  161.9150  204.4020  149.8180 C   0  0  2  0  0  3  0  0  0  0  0  0
  161.5390  207.7790  156.7800 C   0  0  0  0  0  2  0  0  0  0  0  0
  161.0310  202.6150  151.3980 C   0  0  0  0  0  2  0  0  0  0  0  0
  161.7730  210.5200  150.9150 C   0  0  0  0  0  3  0  0  0  0  0  0
  161.6810  209.1600  151.2530 C   0  0  0  0  0  0  0  0  0  0  0  0
  161.2100  209.8090  153.6550 C   0  0  0  0  0  2  0  0  0  0  0  0
  161.4360  204.9440  152.2100 C   0  0  0  0  0  2  0  0  0  0  0  0
  159.2390  206.5920  154.4440 Cl  0  0  0  0  0  0  0  0  0  0  0  0
  161.8500  211.4290  156.3930 C   0  0  0  0  0  1  0  0  0  0  0  0
  161.3080  207.3780  152.8880 C   0  0  0  0  0  0  0  0  0  0  0  0
  161.4730  209.2460  155.0160 C   0  0  0  0  0  0  0  0  0  0  0  0
  160.4590  204.2150  147.8910 O   0  0  0  0  0  0  0  0  0  0  0  0
  160.8270  204.1590  146.5450 C   0  0  0  0  0  2  0  0  0  0  0  0
  161.0910  205.5350  146.0440 C   0  0  0  0  0  0  0  0  0  0  0  0
  162.1770  206.1060  146.3210 O   0  0  0  0  0  0  0  0  0  0  0  0
  160.1000  206.2190  145.2870 N   0  0  0  0  0  1  0  0  0  0  0  0
  1 16  1  0  0  0  0
  2 23  1  0  0  0  0
  2 26  1  0  0  0  0
  3 11  2  0  0  0  0
  3  4  1  0  0  0  0
  4 20  2  0  0  0  0
  5 24  1  6  0  0  0
  5  6  1  0  0  0  0
  6 18  1  0  0  0  0
  7 19  1  1  0  0  0
  7 23  1  0  0  0  0
  8 12  1  0  0  0  0
  9 25  1  0  0  0  0
  9 15  2  0  0  0  0
 10 28  1  1  0  0  0
 10  1  1  0  0  0  0
 10 17  1  0  0  0  0
 11 13  1  0  0  0  0
 12  2  2  0  0  0  0
 13 12  1  0  0  0  0
 13 21  2  0  0  0  0
 14 26  2  0  0  0  0
 14 22  1  0  0  0  0
 16 19  1  0  0  0  0
 17  8  1  6  0  0  0
 17  7  1  0  0  0  0
 18 15  1  0  0  0  0
 20 21  1  0  0  0  0
 21 14  1  0  0  0  0
 22 27  1  0  0  0  0
 26  5  1  0  0  0  0
 27  6  2  0  0  0  0
 27  9  1  0  0  0  0
 29 28  1  0  0  0  0
 30 31  2  0  0  0  0
 30 29  1  0  0  0  0
 32 30  1  0  0  0  0
M  END
>  <MODEL>
3

>  <REMARK>
 VINA RESULT:      -7.1      3.303      7.659
  Name = 
  3 active torsions:
  status: ('A' for Active; 'I' for Inactive)
    1  A    between atoms: C_10  and  O_20
    2  A    between atoms: O_20  and  C_29
    3  A    between atoms: C_29  and  C_30
                            x       y       z     vdW  Elec       q    Type
                         _______ _______ _______ _____ _____    ______ ____

>  <TORSDO>
F 3

$$$$
=
 OpenBabel11122412543D

 32 37  0  0  1  0  0  0  0  0999 V2000
  161.8370  212.8190  149.4160 C   0  0  0  0  0  2  0  0  0  0  0  0
  161.6330  207.6220  149.2070 C   0  0  0  0  0  0  0  0  0  0  0  0
  161.2060  206.3470  153.8850 C   0  0  0  0  0  3  0  0  0  0  0  0
  160.9320  205.0320  153.5080 C   0  0  0  0  0  3  0  0  0  0  0  0
  161.3080  205.9470  147.3370 C   0  0  1  0  0  3  0  0  0  0  0  0
  161.5740  204.4920  147.1080 C   0  0  0  0  0  0  0  0  0  0  0  0
  161.5760  210.0720  148.6480 C   0  0  1  0  0  3  0  0  0  0  0  0
  161.9280  209.3170  150.9650 N   0  0  0  0  0  2  0  0  0  0  0  0
  161.5580  202.2850  147.3960 C   0  0  0  0  0  0  0  0  0  0  0  0
  161.8980  211.7550  150.5260 C   0  0  2  0  0  3  0  0  0  0  0  0
  161.4550  207.3160  152.9120 C   0  0  0  0  0  3  0  0  0  0  0  0
  161.6800  207.9580  150.5750 C   0  0  0  0  0  0  0  0  0  0  0  0
  161.4300  206.9810  151.5490 C   0  0  0  0  0  0  0  0  0  0  0  0
  161.1270  205.3000  149.7990 C   0  0  0  0  0  0  0  0  0  0  0  0
  161.8930  202.4120  146.1550 N   0  0  0  0  0  0  0  0  0  0  0  0
  162.5780  212.3860  148.1530 C   0  0  0  0  0  2  0  0  0  0  0  0
  162.2580  210.3540  149.9920 C   0  0  2  0  0  3  0  0  0  0  0  0
  161.9410  203.8350  145.8180 C   0  0  0  0  0  3  0  0  0  0  0  0
  161.9700  211.1020  147.5770 C   0  0  0  0  0  2  0  0  0  0  0  0
  160.9060  204.6850  152.1570 C   0  0  0  0  0  3  0  0  0  0  0  0
  161.1520  205.6470  151.1630 C   0  0  0  0  0  0  0  0  0  0  0  0
  160.8250  203.8710  149.3890 C   0  0  0  0  0  2  0  0  0  0  0  0
  161.9450  208.6730  148.1700 C   0  0  0  0  0  2  0  0  0  0  0  0
  159.7070  206.3710  146.6770 Cl  0  0  0  0  0  0  0  0  0  0  0  0
  161.4010  200.9650  148.0630 C   0  0  0  0  0  1  0  0  0  0  0  0
  161.3650  206.2960  148.8140 C   0  0  0  0  0  0  0  0  0  0  0  0
  161.3570  203.5720  148.0230 C   0  0  2  0  0  3  0  0  0  0  0  0
  160.6700  211.7310  151.1960 O   0  0  0  0  0  0  0  0  0  0  0  0
  160.0800  212.9630  150.9100 C   0  0  0  0  0  2  0  0  0  0  0  0
  158.6640  212.9560  151.3700 C   0  0  0  0  0  0  0  0  0  0  0  0
  158.3300  212.2590  152.3620 O   0  0  0  0  0  0  0  0  0  0  0  0
  157.6830  213.7040  150.6630 N   0  0  0  0  0  1  0  0  0  0  0  0
  1 10  1  0  0  0  0
  2 12  1  0  0  0  0
  4  3  1  0  0  0  0
  5 24  1  1  0  0  0
  5 26  1  0  0  0  0
  6  5  1  0  0  0  0
  6 27  1  0  0  0  0
  7 19  1  6  0  0  0
  7 17  1  0  0  0  0
  9 27  1  0  0  0  0
  9 25  1  0  0  0  0
 10 28  1  6  0  0  0
 11  3  2  0  0  0  0
 12  8  1  0  0  0  0
 12 13  2  0  0  0  0
 13 11  1  0  0  0  0
 14 21  2  0  0  0  0
 15  9  2  0  0  0  0
 16  1  1  0  0  0  0
 17 10  1  0  0  0  0
 17  8  1  1  0  0  0
 18 15  1  0  0  0  0
 18  6  2  0  0  0  0
 19 16  1  0  0  0  0
 20  4  2  0  0  0  0
 21 13  1  0  0  0  0
 21 20  1  0  0  0  0
 22 14  1  0  0  0  0
 23  7  1  0  0  0  0
 23  2  1  0  0  0  0
 26  2  2  0  0  0  0
 26 14  1  0  0  0  0
 27 22  1  6  0  0  0
 29 28  1  0  0  0  0
 29 30  1  0  0  0  0
 30 31  2  0  0  0  0
 32 30  1  0  0  0  0
M  END
>  <MODEL>
4

>  <REMARK>
 VINA RESULT:      -6.9      3.027      5.476
  Name = 
  3 active torsions:
  status: ('A' for Active; 'I' for Inactive)
    1  A    between atoms: C_10  and  O_20
    2  A    between atoms: O_20  and  C_29
    3  A    between atoms: C_29  and  C_30
                            x       y       z     vdW  Elec       q    Type
                         _______ _______ _______ _____ _____    ______ ____

>  <TORSDO>
F 3

$$$$
