=
 OpenBabel11122412343D

 30 35  0  0  1  0  0  0  0  0999 V2000
  161.5830  205.5860  149.7030 C   0  0  0  0  0  0  0  0  0  0  0  0
  161.3580  203.1200  149.3530 C   0  0  0  0  0  0  0  0  0  0  0  0
  160.8340  205.1870  153.7360 N   0  0  0  0  0  2  0  0  0  0  0  0
  161.6090  206.6930  150.6000 C   0  0  0  0  0  0  0  0  0  0  0  0
  161.8630  205.8410  148.2350 C   0  0  0  0  0  2  0  0  0  0  0  0
  161.3410  209.4610  148.3560 O   0  0  0  0  0  0  0  0  0  0  0  0
  160.8730  209.5230  151.6880 C   0  0  1  0  0  3  0  0  0  0  0  0
  161.6180  208.2840  148.7160 C   0  0  0  0  0  0  0  0  0  0  0  0
  160.6310  208.7350  152.9540 C   0  0  2  0  0  3  0  0  0  0  0  0
  160.8120  206.5060  154.0290 C   0  0  0  0  0  0  0  0  0  0  0  0
  161.4290  207.1770  147.8220 N   0  0  0  0  0  0  0  0  0  0  0  0
  162.1750  207.9920  150.0770 C   0  0  1  0  0  3  0  0  0  0  0  0
  161.1550  201.8460  149.8930 C   0  0  0  0  0  3  0  0  0  0  0  0
  161.2970  209.5720  153.9960 C   0  0  0  0  0  2  0  0  0  0  0  0
  160.9010  210.8890  152.0350 O   0  0  0  0  0  0  0  0  0  0  0  0
  161.5500  203.2100  148.0130 F   0  0  0  0  0  0  0  0  0  0  0  0
  161.1100  205.1820  152.4200 C   0  0  0  0  0  0  0  0  0  0  0  0
  160.9470  201.6780  151.2600 C   0  0  0  0  0  3  0  0  0  0  0  0
  161.3610  204.2620  150.1930 C   0  0  0  0  0  0  0  0  0  0  0  0
  161.2770  206.4580  151.9510 C   0  0  0  0  0  0  0  0  0  0  0  0
  160.5100  206.9310  155.1770 O   0  0  0  0  0  0  0  0  0  0  0  0
  161.0730  207.3270  152.9770 N   0  0  0  0  0  0  0  0  0  0  0  0
  161.1470  210.9650  153.4250 C   0  0  0  0  0  2  0  0  0  0  0  0
  163.1960  209.7260  151.2800 O   0  0  0  0  0  0  0  0  0  0  0  0
  160.9400  202.7840  152.1050 C   0  0  0  0  0  3  0  0  0  0  0  0
  161.1460  204.0680  151.5870 C   0  0  0  0  0  0  0  0  0  0  0  0
  162.1550  209.1390  151.0250 C   0  0  0  0  0  0  0  0  0  0  0  0
  160.8610  207.3510  146.4940 C   0  0  0  0  0  2  0  0  0  0  0  0
  161.1030  205.6970  144.6700 C   0  0  0  0  0  1  0  0  0  0  0  0
  160.3680  206.0210  145.9530 C   0  0  0  0  0  2  0  0  0  0  0  0
  1 19  2  0  0  0  0
  1  4  1  0  0  0  0
  2 13  2  0  0  0  0
  2 19  1  0  0  0  0
  3 10  1  0  0  0  0
  4 20  2  0  0  0  0
  5  1  1  0  0  0  0
  6  8  2  0  0  0  0
  7 27  1  1  0  0  0
  7 15  1  0  0  0  0
  7  9  1  0  0  0  0
  9 22  1  0  0  0  0
  9 14  1  1  0  0  0
 10 21  2  0  0  0  0
 11  5  1  0  0  0  0
 11  8  1  0  0  0  0
 12  8  1  6  0  0  0
 12  4  1  0  0  0  0
 12 27  1  0  0  0  0
 13 18  1  0  0  0  0
 15 23  1  0  0  0  0
 16  2  1  0  0  0  0
 17  3  1  0  0  0  0
 18 25  2  0  0  0  0
 19 26  1  0  0  0  0
 20 17  1  0  0  0  0
 20 22  1  0  0  0  0
 22 10  1  0  0  0  0
 23 14  1  0  0  0  0
 26 25  1  0  0  0  0
 26 17  2  0  0  0  0
 27 24  2  0  0  0  0
 28 11  1  0  0  0  0
 29 30  1  0  0  0  0
 30 28  1  0  0  0  0
M  END
>  <MODEL>
1

>  <REMARK>
 VINA RESULT:      -8.2      0.000      0.000
  Name = 
  2 active torsions:
  status: ('A' for Active; 'I' for Inactive)
    1  A    between atoms: N_11  and  C_28
    2  A    between atoms: C_28  and  C_30
                            x       y       z     vdW  Elec       q    Type
                         _______ _______ _______ _____ _____    ______ ____

>  <TORSDO>
F 2

$$$$
=
 OpenBabel11122412343D

 30 35  0  0  1  0  0  0  0  0999 V2000
  161.7820  207.6170  151.4420 C   0  0  0  0  0  0  0  0  0  0  0  0
  162.0180  210.0670  150.9970 C   0  0  0  0  0  0  0  0  0  0  0  0
  161.5890  206.7970  147.4070 N   0  0  0  0  0  2  0  0  0  0  0  0
  161.6880  206.2890  150.9330 C   0  0  0  0  0  0  0  0  0  0  0  0
  161.8390  207.8120  152.9440 C   0  0  0  0  0  2  0  0  0  0  0  0
  160.6200  204.4750  153.8200 O   0  0  0  0  0  0  0  0  0  0  0  0
  160.5280  203.4080  150.6290 C   0  0  1  0  0  3  0  0  0  0  0  0
  161.1650  205.4130  153.1780 C   0  0  0  0  0  0  0  0  0  0  0  0
  160.5930  203.7710  149.1640 C   0  0  2  0  0  3  0  0  0  0  0  0
  161.3360  205.4740  147.5210 C   0  0  0  0  0  0  0  0  0  0  0  0
  161.1020  206.7660  153.6550 N   0  0  0  0  0  0  0  0  0  0  0  0
  161.9200  205.1590  151.9080 C   0  0  1  0  0  3  0  0  0  0  0  0
  162.1360  211.1120  150.0750 C   0  0  0  0  0  3  0  0  0  0  0  0
  161.1910  202.5490  148.5480 C   0  0  0  0  0  2  0  0  0  0  0  0
  160.3210  202.0170  150.7160 O   0  0  0  0  0  0  0  0  0  0  0  0
  162.0350  210.3880  152.3140 F   0  0  0  0  0  0  0  0  0  0  0  0
  161.7100  207.1860  148.6880 C   0  0  0  0  0  0  0  0  0  0  0  0
  162.1220  210.8580  148.7050 C   0  0  0  0  0  3  0  0  0  0  0  0
  161.8870  208.7280  150.5480 C   0  0  0  0  0  0  0  0  0  0  0  0
  161.5640  206.1210  149.5370 C   0  0  0  0  0  0  0  0  0  0  0  0
  161.0880  204.7530  146.5190 O   0  0  0  0  0  0  0  0  0  0  0  0
  161.3080  205.0090  148.7980 N   0  0  0  0  0  0  0  0  0  0  0  0
  160.7030  201.4570  149.4750 C   0  0  0  0  0  2  0  0  0  0  0  0
  162.7020  202.9930  151.4690 O   0  0  0  0  0  0  0  0  0  0  0  0
  161.9890  209.5530  148.2400 C   0  0  0  0  0  3  0  0  0  0  0  0
  161.8740  208.4910  149.1450 C   0  0  0  0  0  0  0  0  0  0  0  0
  161.7780  203.7850  151.3570 C   0  0  0  0  0  0  0  0  0  0  0  0
  160.3640  207.1220  154.8590 C   0  0  0  0  0  2  0  0  0  0  0  0
  161.6600  208.3030  156.6040 C   0  0  0  0  0  1  0  0  0  0  0  0
  160.8070  208.4820  155.3660 C   0  0  0  0  0  2  0  0  0  0  0  0
  1  5  1  0  0  0  0
  2 16  1  0  0  0  0
  3 10  1  0  0  0  0
  3 17  1  0  0  0  0
  4  1  1  0  0  0  0
  5 11  1  0  0  0  0
  7 15  1  6  0  0  0
  7 27  1  0  0  0  0
  8 11  1  0  0  0  0
  8  6  2  0  0  0  0
  9 14  1  6  0  0  0
  9  7  1  0  0  0  0
 10 22  1  0  0  0  0
 11 28  1  0  0  0  0
 12  4  1  6  0  0  0
 12  8  1  0  0  0  0
 13  2  2  0  0  0  0
 14 23  1  0  0  0  0
 17 26  2  0  0  0  0
 17 20  1  0  0  0  0
 18 13  1  0  0  0  0
 19  2  1  0  0  0  0
 19  1  2  0  0  0  0
 20  4  2  0  0  0  0
 21 10  2  0  0  0  0
 22  9  1  0  0  0  0
 22 20  1  0  0  0  0
 23 15  1  0  0  0  0
 25 18  2  0  0  0  0
 25 26  1  0  0  0  0
 26 19  1  0  0  0  0
 27 24  2  0  0  0  0
 27 12  1  0  0  0  0
 28 30  1  0  0  0  0
 30 29  1  0  0  0  0
M  END
>  <MODEL>
2

>  <REMARK>
 VINA RESULT:      -8.0      2.828      7.115
  Name = 
  2 active torsions:
  status: ('A' for Active; 'I' for Inactive)
    1  A    between atoms: N_11  and  C_28
    2  A    between atoms: C_28  and  C_30
                            x       y       z     vdW  Elec       q    Type
                         _______ _______ _______ _____ _____    ______ ____

>  <TORSDO>
F 2

$$$$
=
 OpenBabel11122412343D

 30 35  0  0  1  0  0  0  0  0999 V2000
  161.1580  208.3700  151.8260 C   0  0  0  0  0  0  0  0  0  0  0  0
  161.0780  209.2290  154.1730 C   0  0  0  0  0  0  0  0  0  0  0  0
  160.9410  204.4680  153.1360 N   0  0  0  0  0  2  0  0  0  0  0  0
  161.1040  207.2630  150.9300 C   0  0  0  0  0  0  0  0  0  0  0  0
  161.2460  209.7660  151.2410 C   0  0  0  0  0  2  0  0  0  0  0  0
  162.2700  208.7270  147.8860 O   0  0  0  0  0  0  0  0  0  0  0  0
  162.0050  205.4410  148.5620 C   0  0  1  0  0  3  0  0  0  0  0  0
  161.7470  208.7020  149.0330 C   0  0  0  0  0  0  0  0  0  0  0  0
  161.8440  204.3670  149.6120 C   0  0  2  0  0  3  0  0  0  0  0  0
  161.0990  203.8820  151.9280 C   0  0  0  0  0  0  0  0  0  0  0  0
  161.9560  209.7770  149.9620 N   0  0  0  0  0  0  0  0  0  0  0  0
  160.8690  207.5670  149.4690 C   0  0  1  0  0  3  0  0  0  0  0  0
  160.9640  208.9680  155.5420 C   0  0  0  0  0  3  0  0  0  0  0  0
  161.1020  203.2980  148.8800 C   0  0  0  0  0  2  0  0  0  0  0  0
  162.1090  204.8020  147.3110 O   0  0  0  0  0  0  0  0  0  0  0  0
  161.1980  210.5250  153.7900 F   0  0  0  0  0  0  0  0  0  0  0  0
  160.9620  205.7780  152.8320 C   0  0  0  0  0  0  0  0  0  0  0  0
  160.8410  207.6610  156.0090 C   0  0  0  0  0  3  0  0  0  0  0  0
  161.0640  208.1640  153.2370 C   0  0  0  0  0  0  0  0  0  0  0  0
  161.0960  205.9640  151.4820 C   0  0  0  0  0  0  0  0  0  0  0  0
  161.2030  202.6330  151.8010 O   0  0  0  0  0  0  0  0  0  0  0  0
  161.2000  204.7470  150.8840 N   0  0  0  0  0  0  0  0  0  0  0  0
  161.5810  203.4990  147.4590 C   0  0  0  0  0  2  0  0  0  0  0  0
  159.8860  206.2030  147.8360 O   0  0  0  0  0  0  0  0  0  0  0  0
  160.8310  206.5980  155.1110 C   0  0  0  0  0  3  0  0  0  0  0  0
  160.9390  206.8370  153.7350 C   0  0  0  0  0  0  0  0  0  0  0  0
  160.8560  206.3950  148.5540 C   0  0  0  0  0  0  0  0  0  0  0  0
  162.8200  210.9050  149.6480 C   0  0  0  0  0  2  0  0  0  0  0  0
  163.0750  212.5830  147.8470 C   0  0  0  0  0  1  0  0  0  0  0  0
  162.0870  211.9030  148.7710 C   0  0  0  0  0  2  0  0  0  0  0  0
  1 19  1  0  0  0  0
  2 13  1  0  0  0  0
  4 20  1  0  0  0  0
  4  1  2  0  0  0  0
  5  1  1  0  0  0  0
  6  8  2  0  0  0  0
  7 15  1  6  0  0  0
  7  9  1  0  0  0  0
  8 12  1  0  0  0  0
  8 11  1  0  0  0  0
  9 14  1  6  0  0  0
  9 22  1  0  0  0  0
 10  3  1  0  0  0  0
 11  5  1  0  0  0  0
 12 27  1  6  0  0  0
 12  4  1  0  0  0  0
 13 18  2  0  0  0  0
 15 23  1  0  0  0  0
 16  2  1  0  0  0  0
 17  3  1  0  0  0  0
 17 26  1  0  0  0  0
 19 26  1  0  0  0  0
 19  2  2  0  0  0  0
 20 17  2  0  0  0  0
 21 10  2  0  0  0  0
 22 20  1  0  0  0  0
 22 10  1  0  0  0  0
 23 14  1  0  0  0  0
 24 27  2  0  0  0  0
 25 18  1  0  0  0  0
 26 25  2  0  0  0  0
 27  7  1  0  0  0  0
 28 11  1  0  0  0  0
 29 30  1  0  0  0  0
 30 28  1  0  0  0  0
M  END
>  <MODEL>
3

>  <REMARK>
 VINA RESULT:      -7.7      2.818      5.534
  Name = 
  2 active torsions:
  status: ('A' for Active; 'I' for Inactive)
    1  A    between atoms: N_11  and  C_28
    2  A    between atoms: C_28  and  C_30
                            x       y       z     vdW  Elec       q    Type
                         _______ _______ _______ _____ _____    ______ ____

>  <TORSDO>
F 2

$$$$
=
 OpenBabel11122412343D

 30 35  0  0  1  0  0  0  0  0999 V2000
  161.8050  207.9680  149.7160 C   0  0  0  0  0  0  0  0  0  0  0  0
  161.6360  206.0630  148.1030 C   0  0  0  0  0  0  0  0  0  0  0  0
  160.8450  205.5090  152.8810 N   0  0  0  0  0  2  0  0  0  0  0  0
  161.7670  208.4320  151.0630 C   0  0  0  0  0  0  0  0  0  0  0  0
  162.1610  208.9560  148.6230 C   0  0  0  0  0  2  0  0  0  0  0  0
  161.5810  211.9720  150.6120 O   0  0  0  0  0  0  0  0  0  0  0  0
  160.9320  210.2700  153.4420 C   0  0  1  0  0  3  0  0  0  0  0  0
  161.8540  210.7780  150.3100 C   0  0  0  0  0  0  0  0  0  0  0  0
  160.6330  208.9360  154.0850 C   0  0  2  0  0  3  0  0  0  0  0  0
  160.7880  206.4740  153.8260 C   0  0  0  0  0  0  0  0  0  0  0  0
  161.7310  210.3140  148.9560 N   0  0  0  0  0  0  0  0  0  0  0  0
  162.3410  209.8020  151.3380 C   0  0  1  0  0  3  0  0  0  0  0  0
  161.4220  204.7010  147.8760 C   0  0  0  0  0  3  0  0  0  0  0  0
  161.2290  209.0840  155.4450 C   0  0  0  0  0  2  0  0  0  0  0  0
  160.9220  211.2450  154.4590 O   0  0  0  0  0  0  0  0  0  0  0  0
  161.8990  206.8450  147.0270 F   0  0  0  0  0  0  0  0  0  0  0  0
  161.1920  206.1960  151.7790 C   0  0  0  0  0  0  0  0  0  0  0  0
  161.1430  203.8380  148.9340 C   0  0  0  0  0  3  0  0  0  0  0  0
  161.5770  206.5880  149.4200 C   0  0  0  0  0  0  0  0  0  0  0  0
  161.3650  207.5240  152.0660 C   0  0  0  0  0  0  0  0  0  0  0  0
  160.4190  206.2320  155.0060 O   0  0  0  0  0  0  0  0  0  0  0  0
  161.0940  207.7220  153.3830 N   0  0  0  0  0  0  0  0  0  0  0  0
  161.0910  210.5710  155.6900 C   0  0  0  0  0  2  0  0  0  0  0  0
  163.2700  210.6200  153.3280 O   0  0  0  0  0  0  0  0  0  0  0  0
  161.0740  204.3300  150.2340 C   0  0  0  0  0  3  0  0  0  0  0  0
  161.2890  205.6900  150.4860 C   0  0  0  0  0  0  0  0  0  0  0  0
  162.2540  210.2740  152.7450 C   0  0  0  0  0  0  0  0  0  0  0  0
  161.2320  211.1740  147.8930 C   0  0  0  0  0  2  0  0  0  0  0  0
  161.5660  213.5860  147.4560 C   0  0  0  0  0  1  0  0  0  0  0  0
  162.2560  212.2420  147.5550 C   0  0  0  0  0  2  0  0  0  0  0  0
  1  4  1  0  0  0  0
  2 19  1  0  0  0  0
  3 10  1  0  0  0  0
  4 12  1  0  0  0  0
  4 20  2  0  0  0  0
  5 11  1  0  0  0  0
  5  1  1  0  0  0  0
  7 27  1  1  0  0  0
  7  9  1  0  0  0  0
  7 15  1  0  0  0  0
  8  6  2  0  0  0  0
  9 14  1  1  0  0  0
 10 21  2  0  0  0  0
 11  8  1  0  0  0  0
 12  8  1  6  0  0  0
 12 27  1  0  0  0  0
 13  2  2  0  0  0  0
 13 18  1  0  0  0  0
 14 23  1  0  0  0  0
 15 23  1  0  0  0  0
 16  2  1  0  0  0  0
 17 20  1  0  0  0  0
 17  3  1  0  0  0  0
 18 25  2  0  0  0  0
 19  1  2  0  0  0  0
 19 26  1  0  0  0  0
 20 22  1  0  0  0  0
 22 10  1  0  0  0  0
 22  9  1  0  0  0  0
 25 26  1  0  0  0  0
 26 17  2  0  0  0  0
 27 24  2  0  0  0  0
 28 11  1  0  0  0  0
 29 30  1  0  0  0  0
 30 28  1  0  0  0  0
M  END
>  <MODEL>
4

>  <REMARK>
 VINA RESULT:      -7.6      1.993      3.066
  Name = 
  2 active torsions:
  status: ('A' for Active; 'I' for Inactive)
    1  A    between atoms: N_11  and  C_28
    2  A    between atoms: C_28  and  C_30
                            x       y       z     vdW  Elec       q    Type
                         _______ _______ _______ _____ _____    ______ ____

>  <TORSDO>
F 2

$$$$
=
 OpenBabel11122412343D

 30 35  0  0  1  0  0  0  0  0999 V2000
  161.3220  209.0800  151.9440 C   0  0  0  0  0  0  0  0  0  0  0  0
  160.8310  208.0060  154.1490 C   0  0  0  0  0  0  0  0  0  0  0  0
  159.6570  212.6390  153.1880 N   0  0  0  0  0  2  0  0  0  0  0  0
  161.3080  210.2470  151.1260 C   0  0  0  0  0  0  0  0  0  0  0  0
  161.9510  207.8180  151.3880 C   0  0  0  0  0  2  0  0  0  0  0  0
  161.9360  208.8770  147.8860 O   0  0  0  0  0  0  0  0  0  0  0  0
  160.7610  211.9550  148.5730 C   0  0  1  0  0  3  0  0  0  0  0  0
  161.9560  208.9280  149.1460 C   0  0  0  0  0  0  0  0  0  0  0  0
  160.1370  212.8820  149.5900 C   0  0  2  0  0  3  0  0  0  0  0  0
  159.7580  213.2880  152.0080 C   0  0  0  0  0  0  0  0  0  0  0  0
  161.8130  207.7360  149.9340 N   0  0  0  0  0  0  0  0  0  0  0  0
  162.1540  210.2230  149.8740 C   0  0  1  0  0  3  0  0  0  0  0  0
  160.3350  208.1160  155.4510 C   0  0  0  0  0  3  0  0  0  0  0  0
  160.6700  214.2180  149.1900 C   0  0  0  0  0  2  0  0  0  0  0  0
  160.9060  212.6770  147.3710 O   0  0  0  0  0  0  0  0  0  0  0  0
  161.3230  206.8020  153.7650 F   0  0  0  0  0  0  0  0  0  0  0  0
  160.2110  211.4450  152.9170 C   0  0  0  0  0  0  0  0  0  0  0  0
  159.8100  209.3210  155.9140 C   0  0  0  0  0  3  0  0  0  0  0  0
  160.8120  209.1260  153.2780 C   0  0  0  0  0  0  0  0  0  0  0  0
  160.6560  211.3960  151.6220 C   0  0  0  0  0  0  0  0  0  0  0  0
  159.2760  214.4400  151.8350 O   0  0  0  0  0  0  0  0  0  0  0  0
  160.3590  212.5770  151.0170 N   0  0  0  0  0  0  0  0  0  0  0  0
  160.8490  214.0520  147.6970 C   0  0  0  0  0  2  0  0  0  0  0  0
  163.1210  212.0290  148.7350 O   0  0  0  0  0  0  0  0  0  0  0  0
  159.7750  210.4320  155.0770 C   0  0  0  0  0  3  0  0  0  0  0  0
  160.2700  210.3470  153.7700 C   0  0  0  0  0  0  0  0  0  0  0  0
  162.0900  211.4410  149.0220 C   0  0  0  0  0  0  0  0  0  0  0  0
  161.5800  206.4350  149.3220 C   0  0  0  0  0  2  0  0  0  0  0  0
  160.8390  204.1130  149.7450 C   0  0  0  0  0  1  0  0  0  0  0  0
  160.8310  205.5290  150.2810 C   0  0  0  0  0  2  0  0  0  0  0  0
  1 19  1  0  0  0  0
  2 13  1  0  0  0  0
  4 20  1  0  0  0  0
  4  1  2  0  0  0  0
  5  1  1  0  0  0  0
  6  8  2  0  0  0  0
  7 15  1  6  0  0  0
  7 27  1  0  0  0  0
  7  9  1  0  0  0  0
  8 12  1  0  0  0  0
  8 11  1  0  0  0  0
  9 14  1  6  0  0  0
  9 22  1  0  0  0  0
 10  3  1  0  0  0  0
 11  5  1  0  0  0  0
 12 27  1  6  0  0  0
 12  4  1  0  0  0  0
 13 18  2  0  0  0  0
 15 23  1  0  0  0  0
 16  2  1  0  0  0  0
 17  3  1  0  0  0  0
 17 26  1  0  0  0  0
 19 26  1  0  0  0  0
 19  2  2  0  0  0  0
 20 17  2  0  0  0  0
 21 10  2  0  0  0  0
 22 20  1  0  0  0  0
 22 10  1  0  0  0  0
 23 14  1  0  0  0  0
 24 27  2  0  0  0  0
 25 18  1  0  0  0  0
 26 25  2  0  0  0  0
 28 11  1  0  0  0  0
 28 30  1  0  0  0  0
 29 30  1  0  0  0  0
M  END
>  <MODEL>
5

>  <REMARK>
 VINA RESULT:      -6.8      3.138      5.650
  Name = 
  2 active torsions:
  status: ('A' for Active; 'I' for Inactive)
    1  A    between atoms: N_11  and  C_28
    2  A    between atoms: C_28  and  C_30
                            x       y       z     vdW  Elec       q    Type
                         _______ _______ _______ _____ _____    ______ ____

>  <TORSDO>
F 2

$$$$
=
 OpenBabel11122412343D

 30 35  0  0  1  0  0  0  0  0999 V2000
  161.5360  209.6090  151.0490 C   0  0  0  0  0  0  0  0  0  0  0  0
  161.9240  209.0410  148.6440 C   0  0  0  0  0  0  0  0  0  0  0  0
  161.5670  205.6240  152.1020 N   0  0  0  0  0  2  0  0  0  0  0  0
  161.4090  209.1720  152.4000 C   0  0  0  0  0  0  0  0  0  0  0  0
  161.5030  211.0980  150.7660 C   0  0  0  0  0  2  0  0  0  0  0  0
  160.0630  212.0780  153.9840 O   0  0  0  0  0  0  0  0  0  0  0  0
  160.1270  208.9560  155.2360 C   0  0  1  0  0  3  0  0  0  0  0  0
  160.6960  211.4230  153.1120 C   0  0  0  0  0  0  0  0  0  0  0  0
  160.3060  207.4800  154.9670 C   0  0  2  0  0  3  0  0  0  0  0  0
  161.2410  205.7970  153.4020 C   0  0  0  0  0  0  0  0  0  0  0  0
  160.6700  211.8160  151.7320 N   0  0  0  0  0  0  0  0  0  0  0  0
  161.5180  210.2240  153.4780 C   0  0  1  0  0  3  0  0  0  0  0  0
  162.1540  208.0710  147.6630 C   0  0  0  0  0  3  0  0  0  0  0  0
  160.8820  206.9770  156.2500 C   0  0  0  0  0  2  0  0  0  0  0  0
  159.8460  209.1070  156.6090 O   0  0  0  0  0  0  0  0  0  0  0  0
  161.8700  210.3360  148.2450 F   0  0  0  0  0  0  0  0  0  0  0  0
  161.6230  206.8860  151.6420 C   0  0  0  0  0  0  0  0  0  0  0  0
  162.2170  206.7210  147.9990 C   0  0  0  0  0  3  0  0  0  0  0  0
  161.7550  208.6630  150.0000 C   0  0  0  0  0  0  0  0  0  0  0  0
  161.3680  207.7830  152.6460 C   0  0  0  0  0  0  0  0  0  0  0  0
  161.0230  204.8220  154.1710 O   0  0  0  0  0  0  0  0  0  0  0  0
  161.1060  207.0930  153.7880 N   0  0  0  0  0  0  0  0  0  0  0  0
  160.2790  207.9290  157.2600 C   0  0  0  0  0  2  0  0  0  0  0  0
  162.2180  209.9640  155.7000 O   0  0  0  0  0  0  0  0  0  0  0  0
  162.0500  206.3240  149.3220 C   0  0  0  0  0  3  0  0  0  0  0  0
  161.8220  207.2770  150.3210 C   0  0  0  0  0  0  0  0  0  0  0  0
  161.3440  209.7440  154.8750 C   0  0  0  0  0  0  0  0  0  0  0  0
  159.8730  212.9430  151.2690 C   0  0  0  0  0  2  0  0  0  0  0  0
  159.1720  213.6520  149.0050 C   0  0  0  0  0  1  0  0  0  0  0  0
  160.3610  213.4120  149.9110 C   0  0  0  0  0  2  0  0  0  0  0  0
  1  4  1  0  0  0  0
  2 19  1  0  0  0  0
  3 10  1  0  0  0  0
  4 20  2  0  0  0  0
  5  1  1  0  0  0  0
  5 11  1  0  0  0  0
  7 27  1  1  0  0  0
  7 15  1  0  0  0  0
  8 12  1  0  0  0  0
  8  6  2  0  0  0  0
  9  7  1  0  0  0  0
  9 14  1  1  0  0  0
 10 22  1  0  0  0  0
 10 21  2  0  0  0  0
 11  8  1  0  0  0  0
 12  4  1  6  0  0  0
 12 27  1  0  0  0  0
 13 18  1  0  0  0  0
 13  2  2  0  0  0  0
 14 23  1  0  0  0  0
 15 23  1  0  0  0  0
 16  2  1  0  0  0  0
 17  3  1  0  0  0  0
 17 20  1  0  0  0  0
 18 25  2  0  0  0  0
 19 26  1  0  0  0  0
 19  1  2  0  0  0  0
 20 22  1  0  0  0  0
 22  9  1  0  0  0  0
 25 26  1  0  0  0  0
 26 17  2  0  0  0  0
 27 24  2  0  0  0  0
 28 11  1  0  0  0  0
 29 30  1  0  0  0  0
 30 28  1  0  0  0  0
M  END
>  <MODEL>
6

>  <REMARK>
 VINA RESULT:      -6.2      2.942      5.014
  Name = 
  2 active torsions:
  status: ('A' for Active; 'I' for Inactive)
    1  A    between atoms: N_11  and  C_28
    2  A    between atoms: C_28  and  C_30
                            x       y       z     vdW  Elec       q    Type
                         _______ _______ _______ _____ _____    ______ ____

>  <TORSDO>
F 2

$$$$
=
 OpenBabel11122412343D

 30 35  0  0  1  0  0  0  0  0999 V2000
  161.5300  208.2780  151.7180 C   0  0  0  0  0  0  0  0  0  0  0  0
  161.7520  206.2270  150.3030 C   0  0  0  0  0  0  0  0  0  0  0  0
  160.4040  206.0300  154.9830 N   0  0  0  0  0  2  0  0  0  0  0  0
  161.2740  208.8560  152.9950 C   0  0  0  0  0  0  0  0  0  0  0  0
  161.9310  209.1950  150.5790 C   0  0  0  0  0  2  0  0  0  0  0  0
  160.8150  212.3000  152.1600 O   0  0  0  0  0  0  0  0  0  0  0  0
  159.9680  210.8040  155.0530 C   0  0  1  0  0  3  0  0  0  0  0  0
  161.2370  211.1200  152.0180 C   0  0  0  0  0  0  0  0  0  0  0  0
  159.7150  209.5100  155.7900 C   0  0  2  0  0  3  0  0  0  0  0  0
  160.1340  207.0650  155.8090 C   0  0  0  0  0  0  0  0  0  0  0  0
  161.3350  210.5240  150.7160 N   0  0  0  0  0  0  0  0  0  0  0  0
  161.6770  210.2990  153.1930 C   0  0  1  0  0  3  0  0  0  0  0  0
  161.6980  204.8350  150.1950 C   0  0  0  0  0  3  0  0  0  0  0  0
  160.1140  209.8440  157.1900 C   0  0  0  0  0  2  0  0  0  0  0  0
  159.7340  211.8610  155.9550 O   0  0  0  0  0  0  0  0  0  0  0  0
  162.0770  206.9310  149.1900 F   0  0  0  0  0  0  0  0  0  0  0  0
  160.8240  206.6460  153.8650 C   0  0  0  0  0  0  0  0  0  0  0  0
  161.3670  204.0470  151.2950 C   0  0  0  0  0  3  0  0  0  0  0  0
  161.4730  206.8610  151.5410 C   0  0  0  0  0  0  0  0  0  0  0  0
  160.8330  208.0060  154.0310 C   0  0  0  0  0  0  0  0  0  0  0  0
  159.6390  206.8940  156.9550 O   0  0  0  0  0  0  0  0  0  0  0  0
  160.3760  208.2930  155.2790 N   0  0  0  0  0  0  0  0  0  0  0  0
  159.8050  211.3240  157.2610 C   0  0  0  0  0  2  0  0  0  0  0  0
  162.2580  211.3900  155.1850 O   0  0  0  0  0  0  0  0  0  0  0  0
  161.0840  204.6450  152.5190 C   0  0  0  0  0  3  0  0  0  0  0  0
  161.1360  206.0380  152.6520 C   0  0  0  0  0  0  0  0  0  0  0  0
  161.3630  210.8850  154.5230 C   0  0  0  0  0  0  0  0  0  0  0  0
  160.8990  211.2250  149.5160 C   0  0  0  0  0  2  0  0  0  0  0  0
  161.7240  212.3480  147.4720 C   0  0  0  0  0  1  0  0  0  0  0  0
  162.0570  211.9920  148.9050 C   0  0  0  0  0  2  0  0  0  0  0  0
  1  4  1  0  0  0  0
  2 19  1  0  0  0  0
  3 10  1  0  0  0  0
  4 12  1  0  0  0  0
  4 20  2  0  0  0  0
  5 11  1  0  0  0  0
  5  1  1  0  0  0  0
  7 27  1  1  0  0  0
  7  9  1  0  0  0  0
  7 15  1  0  0  0  0
  8  6  2  0  0  0  0
  9 14  1  1  0  0  0
 10 21  2  0  0  0  0
 11  8  1  0  0  0  0
 12  8  1  6  0  0  0
 12 27  1  0  0  0  0
 13  2  2  0  0  0  0
 13 18  1  0  0  0  0
 14 23  1  0  0  0  0
 15 23  1  0  0  0  0
 16  2  1  0  0  0  0
 17 20  1  0  0  0  0
 17  3  1  0  0  0  0
 18 25  2  0  0  0  0
 19  1  2  0  0  0  0
 19 26  1  0  0  0  0
 20 22  1  0  0  0  0
 22  9  1  0  0  0  0
 22 10  1  0  0  0  0
 25 26  1  0  0  0  0
 26 17  2  0  0  0  0
 27 24  2  0  0  0  0
 28 11  1  0  0  0  0
 29 30  1  0  0  0  0
 30 28  1  0  0  0  0
M  END
>  <MODEL>
7

>  <REMARK>
 VINA RESULT:      -5.6      2.525      3.786
  Name = 
  2 active torsions:
  status: ('A' for Active; 'I' for Inactive)
    1  A    between atoms: N_11  and  C_28
    2  A    between atoms: C_28  and  C_30
                            x       y       z     vdW  Elec       q    Type
                         _______ _______ _______ _____ _____    ______ ____

>  <TORSDO>
F 2

$$$$
=
 OpenBabel11122412343D

 30 35  0  0  1  0  0  0  0  0999 V2000
  160.8290  203.7200  147.7470 C   0  0  0  0  0  0  0  0  0  0  0  0
  160.8680  203.8060  145.2480 C   0  0  0  0  0  0  0  0  0  0  0  0
  161.6630  207.7490  148.0020 N   0  0  0  0  0  2  0  0  0  0  0  0
  160.9060  204.4100  148.9930 C   0  0  0  0  0  0  0  0  0  0  0  0
  160.5250  202.2350  147.7630 C   0  0  0  0  0  2  0  0  0  0  0  0
  161.3060  201.7100  151.2990 O   0  0  0  0  0  0  0  0  0  0  0  0
  161.8720  204.9710  151.9060 C   0  0  1  0  0  3  0  0  0  0  0  0
  160.9570  202.2760  150.2270 C   0  0  0  0  0  0  0  0  0  0  0  0
  162.0940  206.3520  151.3350 C   0  0  2  0  0  3  0  0  0  0  0  0
  161.7870  207.8050  149.3470 C   0  0  0  0  0  0  0  0  0  0  0  0
  161.0410  201.5880  148.9700 N   0  0  0  0  0  0  0  0  0  0  0  0
  160.4190  203.6750  150.2190 C   0  0  1  0  0  3  0  0  0  0  0  0
  160.9970  204.5580  144.0760 C   0  0  0  0  0  3  0  0  0  0  0  0
  161.5190  207.2410  152.3870 C   0  0  0  0  0  2  0  0  0  0  0  0
  161.9500  205.0730  153.3090 O   0  0  0  0  0  0  0  0  0  0  0  0
  160.6450  202.4750  145.1170 F   0  0  0  0  0  0  0  0  0  0  0  0
  161.3500  206.4590  147.7890 C   0  0  0  0  0  0  0  0  0  0  0  0
  161.2310  205.9300  144.1330 C   0  0  0  0  0  3  0  0  0  0  0  0
  160.9700  204.4330  146.5160 C   0  0  0  0  0  0  0  0  0  0  0  0
  161.2600  205.7760  148.9720 C   0  0  0  0  0  0  0  0  0  0  0  0
  162.1500  208.8550  149.9410 O   0  0  0  0  0  0  0  0  0  0  0  0
  161.5540  206.6290  149.9890 N   0  0  0  0  0  0  0  0  0  0  0  0
  161.7500  206.4320  153.6440 C   0  0  0  0  0  2  0  0  0  0  0  0
  159.5590  204.5700  152.2070 O   0  0  0  0  0  0  0  0  0  0  0  0
  161.3400  206.5670  145.3660 C   0  0  0  0  0  3  0  0  0  0  0  0
  161.2110  205.8350  146.5520 C   0  0  0  0  0  0  0  0  0  0  0  0
  160.5470  204.4060  151.5080 C   0  0  0  0  0  0  0  0  0  0  0  0
  161.5830  200.2400  148.8670 C   0  0  0  0  0  2  0  0  0  0  0  0
  161.2020  199.4550  146.5520 C   0  0  0  0  0  1  0  0  0  0  0  0
  162.2240  200.0330  147.5080 C   0  0  0  0  0  2  0  0  0  0  0  0
  1  5  1  0  0  0  0
  1  4  1  0  0  0  0
  2 19  1  0  0  0  0
  3 10  1  0  0  0  0
  5 11  1  0  0  0  0
  7 27  1  1  0  0  0
  7 15  1  0  0  0  0
  8  6  2  0  0  0  0
  9  7  1  0  0  0  0
  9 14  1  1  0  0  0
 10 21  2  0  0  0  0
 10 22  1  0  0  0  0
 11  8  1  0  0  0  0
 12  4  1  6  0  0  0
 12  8  1  0  0  0  0
 12 27  1  0  0  0  0
 13 18  1  0  0  0  0
 13  2  2  0  0  0  0
 14 23  1  0  0  0  0
 15 23  1  0  0  0  0
 16  2  1  0  0  0  0
 17  3  1  0  0  0  0
 17 20  1  0  0  0  0
 18 25  2  0  0  0  0
 19 26  1  0  0  0  0
 19  1  2  0  0  0  0
 20  4  2  0  0  0  0
 20 22  1  0  0  0  0
 22  9  1  0  0  0  0
 25 26  1  0  0  0  0
 26 17  2  0  0  0  0
 27 24  2  0  0  0  0
 28 11  1  0  0  0  0
 29 30  1  0  0  0  0
 30 28  1  0  0  0  0
M  END
>  <MODEL>
8

>  <REMARK>
 VINA RESULT:      -5.5      2.435      5.410
  Name = 
  2 active torsions:
  status: ('A' for Active; 'I' for Inactive)
    1  A    between atoms: N_11  and  C_28
    2  A    between atoms: C_28  and  C_30
                            x       y       z     vdW  Elec       q    Type
                         _______ _______ _______ _____ _____    ______ ____

>  <TORSDO>
F 2

$$$$
=
 OpenBabel11122412343D

 30 35  0  0  1  0  0  0  0  0999 V2000
  161.1290  204.9870  149.3290 C   0  0  0  0  0  0  0  0  0  0  0  0
  161.2060  203.7900  147.1340 C   0  0  0  0  0  0  0  0  0  0  0  0
  161.9520  208.5930  147.5110 N   0  0  0  0  0  2  0  0  0  0  0  0
  161.1860  206.2140  150.0520 C   0  0  0  0  0  0  0  0  0  0  0  0
  160.8270  203.7130  150.0950 C   0  0  0  0  0  2  0  0  0  0  0  0
  161.5550  205.0660  153.4160 O   0  0  0  0  0  0  0  0  0  0  0  0
  162.1070  208.1880  152.2860 C   0  0  1  0  0  3  0  0  0  0  0  0
  161.2210  205.0050  152.2010 C   0  0  0  0  0  0  0  0  0  0  0  0
  162.3350  209.0890  151.0950 C   0  0  2  0  0  3  0  0  0  0  0  0
  162.0560  209.3260  148.6420 C   0  0  0  0  0  0  0  0  0  0  0  0
  161.3250  203.7740  151.4690 N   0  0  0  0  0  0  0  0  0  0  0  0
  160.6820  206.2010  151.4760 C   0  0  1  0  0  3  0  0  0  0  0  0
  161.3510  203.8440  145.7450 C   0  0  0  0  0  3  0  0  0  0  0  0
  161.7430  210.3840  151.5420 C   0  0  0  0  0  2  0  0  0  0  0  0
  162.1630  208.9900  153.4440 O   0  0  0  0  0  0  0  0  0  0  0  0
  160.9870  202.5760  147.6960 F   0  0  0  0  0  0  0  0  0  0  0  0
  161.6450  207.3710  147.9790 C   0  0  0  0  0  0  0  0  0  0  0  0
  161.5820  205.0560  145.0990 C   0  0  0  0  0  3  0  0  0  0  0  0
  161.2870  204.9760  147.9090 C   0  0  0  0  0  0  0  0  0  0  0  0
  161.5380  207.3840  149.3440 C   0  0  0  0  0  0  0  0  0  0  0  0
  162.4080  210.5360  148.6230 O   0  0  0  0  0  0  0  0  0  0  0  0
  161.8150  208.6380  149.7890 N   0  0  0  0  0  0  0  0  0  0  0  0
  161.9560  210.3280  153.0390 C   0  0  0  0  0  2  0  0  0  0  0  0
  159.7900  207.9750  152.7220 O   0  0  0  0  0  0  0  0  0  0  0  0
  161.6720  206.2320  145.8380 C   0  0  0  0  0  3  0  0  0  0  0  0
  161.5260  206.2040  147.2300 C   0  0  0  0  0  0  0  0  0  0  0  0
  160.7890  207.4870  152.2160 C   0  0  0  0  0  0  0  0  0  0  0  0
  161.8710  202.5670  152.0730 C   0  0  0  0  0  2  0  0  0  0  0  0
  160.8310  200.9540  150.5110 C   0  0  0  0  0  1  0  0  0  0  0  0
  162.1440  201.5220  151.0060 C   0  0  0  0  0  2  0  0  0  0  0  0
  1  4  1  0  0  0  0
  1  5  1  0  0  0  0
  2 16  1  0  0  0  0
  2 19  1  0  0  0  0
  3 17  1  0  0  0  0
  3 10  1  0  0  0  0
  5 11  1  0  0  0  0
  7 27  1  6  0  0  0
  7 15  1  0  0  0  0
  8  6  2  0  0  0  0
  9 14  1  1  0  0  0
  9  7  1  0  0  0  0
 10 22  1  0  0  0  0
 11 28  1  0  0  0  0
 11  8  1  0  0  0  0
 12  4  1  6  0  0  0
 12  8  1  0  0  0  0
 12 27  1  0  0  0  0
 13  2  2  0  0  0  0
 14 23  1  0  0  0  0
 17 20  1  0  0  0  0
 18 13  1  0  0  0  0
 18 25  2  0  0  0  0
 19  1  2  0  0  0  0
 20 22  1  0  0  0  0
 20  4  2  0  0  0  0
 21 10  2  0  0  0  0
 22  9  1  0  0  0  0
 23 15  1  0  0  0  0
 25 26  1  0  0  0  0
 26 19  1  0  0  0  0
 26 17  2  0  0  0  0
 27 24  2  0  0  0  0
 29 30  1  0  0  0  0
 30 28  1  0  0  0  0
M  END
>  <MODEL>
9

>  <REMARK>
 VINA RESULT:      -5.4      1.577      4.735
  Name = 
  2 active torsions:
  status: ('A' for Active; 'I' for Inactive)
    1  A    between atoms: N_11  and  C_28
    2  A    between atoms: C_28  and  C_30
                            x       y       z     vdW  Elec       q    Type
                         _______ _______ _______ _____ _____    ______ ____

>  <TORSDO>
F 2

$$$$
