=
 OpenBabel11122414233D

 34 41  0  0  1  0  0  0  0  0999 V2000
  160.8840  207.8640  154.0770 C   0  0  0  0  0  0  0  0  0  0  0  0
  162.3050  206.2030  152.7870 C   0  0  0  0  0  2  0  0  0  0  0  0
  159.7130  213.3910  155.9550 C   0  0  2  0  0  3  0  0  0  0  0  0
  159.1850  209.3660  154.9800 C   0  0  0  0  0  0  0  0  0  0  0  0
  158.9490  211.7430  154.0240 C   0  0  1  0  0  3  0  0  0  0  0  0
  160.9890  211.7820  155.4320 O   0  0  0  0  0  0  0  0  0  0  0  0
  160.7870  212.5450  156.5980 C   0  0  0  0  0  2  0  0  0  0  0  0
  158.0660  211.7420  157.0560 C   0  0  0  0  0  2  0  0  0  0  0  0
  162.2710  208.5090  152.0540 C   0  0  2  0  0  3  0  0  0  0  0  0
  161.6600  208.8020  148.8580 C   0  0  0  0  0  2  0  0  0  0  0  0
  159.4870  211.1600  152.7160 C   0  0  0  0  0  2  0  0  0  0  0  0
  157.3750  210.9660  155.9560 C   0  0  0  0  0  2  0  0  0  0  0  0
  161.1300  209.4870  151.7010 C   0  0  1  0  0  3  0  0  0  0  0  0
  163.0900  206.2850  151.4880 C   0  0  0  0  0  2  0  0  0  0  0  0
  158.3190  210.5910  154.8160 C   0  0  2  0  0  3  0  0  0  0  0  0
  158.3340  213.1710  156.5950 C   0  0  0  0  0  2  0  0  0  0  0  0
  161.8100  207.5190  149.6970 C   0  0  1  0  0  3  0  0  0  0  0  0
  160.1850  209.0860  154.0190 C   0  0  0  0  0  0  0  0  0  0  0  0
  160.0540  212.5650  154.7330 C   0  0  2  0  0  3  0  0  0  0  0  0
  160.5930  210.1280  152.9880 C   0  0  2  0  0  3  0  0  0  0  0  0
  159.5930  207.2140  156.0260 C   0  0  0  0  0  3  0  0  0  0  0  0
  162.3180  210.0400  149.4730 C   0  0  0  0  0  2  0  0  0  0  0  0
  158.8900  208.4160  155.9670 C   0  0  0  0  0  3  0  0  0  0  0  0
  161.5830  210.5680  150.7070 C   0  0  0  0  0  2  0  0  0  0  0  0
  162.7890  207.6530  150.8860 C   0  0  1  0  0  3  0  0  0  0  0  0
  160.5800  206.9350  155.0820 C   0  0  0  0  0  3  0  0  0  0  0  0
  161.8570  207.5540  153.0680 N   0  0  0  0  0  0  0  0  0  0  0  0
  160.5490  207.0810  150.1220 O   0  0  0  0  0  0  0  0  0  0  0  0
  160.0890  206.2380  149.1080 C   0  0  0  0  0  2  0  0  0  0  0  0
  161.2340  202.8810  149.1650 C   0  0  0  0  0  3  0  0  0  0  0  0
  160.3930  204.2540  150.5910 N   0  0  0  0  0  0  0  0  0  0  0  0
  160.5220  204.8420  149.3920 C   0  0  0  0  0  0  0  0  0  0  0  0
  160.8440  203.0210  150.4470 N   0  0  0  0  0  0  0  0  0  0  0  0
  161.0410  204.0170  148.4650 N   0  0  0  0  0  2  0  0  0  0  0  0
  1 26  1  0  0  0  0
  2 27  1  0  0  0  0
  3 16  1  1  0  0  0
  3  7  1  0  0  0  0
  4 23  2  0  0  0  0
  5 11  1  6  0  0  0
  5 19  1  0  0  0  0
  5 15  1  0  0  0  0
  6  7  1  0  0  0  0
  9 27  1  1  0  0  0
 10 22  1  0  0  0  0
 10 17  1  0  0  0  0
 12  8  1  0  0  0  0
 13 24  1  6  0  0  0
 13  9  1  0  0  0  0
 13 20  1  0  0  0  0
 14  2  1  0  0  0  0
 15  4  1  0  0  0  0
 15 12  1  1  0  0  0
 16  8  1  0  0  0  0
 17 28  1  1  0  0  0
 17 25  1  0  0  0  0
 18  1  2  0  0  0  0
 18  4  1  0  0  0  0
 19  6  1  1  0  0  0
 19  3  1  0  0  0  0
 20 11  1  6  0  0  0
 20 18  1  0  0  0  0
 22 24  1  0  0  0  0
 23 21  1  0  0  0  0
 25 14  1  1  0  0  0
 25  9  1  0  0  0  0
 26 21  2  0  0  0  0
 27  1  1  0  0  0  0
 29 32  1  0  0  0  0
 29 28  1  0  0  0  0
 30 33  2  0  0  0  0
 32 31  2  0  0  0  0
 33 31  1  0  0  0  0
 34 30  1  0  0  0  0
 34 32  1  0  0  0  0
M  END
>  <MODEL>
1

>  <REMARK>
 VINA RESULT:      -5.5      0.000      0.000
  Name = 
  3 active torsions:
  status: ('A' for Active; 'I' for Inactive)
    1  A    between atoms: C_17  and  O_28
    2  A    between atoms: O_28  and  C_29
    3  A    between atoms: C_29  and  C_32
                            x       y       z     vdW  Elec       q    Type
                         _______ _______ _______ _____ _____    ______ ____

>  <TORSDO>
F 3

$$$$
=
 OpenBabel11122414233D

 34 41  0  0  1  0  0  0  0  0999 V2000
  160.9000  207.8000  154.0430 C   0  0  0  0  0  0  0  0  0  0  0  0
  162.2720  206.1410  152.6970 C   0  0  0  0  0  2  0  0  0  0  0  0
  159.8670  213.3030  156.0680 C   0  0  2  0  0  3  0  0  0  0  0  0
  159.2430  209.3150  154.9990 C   0  0  0  0  0  0  0  0  0  0  0  0
  159.0480  211.7190  154.1050 C   0  0  1  0  0  3  0  0  0  0  0  0
  161.1030  211.6800  155.4920 O   0  0  0  0  0  0  0  0  0  0  0  0
  160.9290  212.4180  156.6790 C   0  0  0  0  0  2  0  0  0  0  0  0
  158.1960  211.6620  157.1450 C   0  0  0  0  0  2  0  0  0  0  0  0
  162.2800  208.4660  152.0210 C   0  0  2  0  0  3  0  0  0  0  0  0
  161.6450  208.8500  148.8410 C   0  0  0  0  0  2  0  0  0  0  0  0
  159.5610  211.1580  152.7780 C   0  0  0  0  0  2  0  0  0  0  0  0
  157.4770  210.9290  156.0340 C   0  0  0  0  0  2  0  0  0  0  0  0
  161.1570  209.4760  151.7050 C   0  0  1  0  0  3  0  0  0  0  0  0
  163.0460  206.2390  151.3930 C   0  0  0  0  0  2  0  0  0  0  0  0
  158.4010  210.5620  154.8750 C   0  0  2  0  0  3  0  0  0  0  0  0
  158.4890  213.0950  156.7170 C   0  0  0  0  0  2  0  0  0  0  0  0
  161.7750  207.5440  149.6460 C   0  0  1  0  0  3  0  0  0  0  0  0
  160.2270  209.0380  154.0220 C   0  0  0  0  0  0  0  0  0  0  0  0
  160.1780  212.5000  154.8220 C   0  0  2  0  0  3  0  0  0  0  0  0
  160.6470  210.0950  153.0130 C   0  0  2  0  0  3  0  0  0  0  0  0
  159.6140  207.1290  155.9880 C   0  0  0  0  0  3  0  0  0  0  0  0
  162.3350  210.0580  149.4790 C   0  0  0  0  0  2  0  0  0  0  0  0
  158.9370  208.3470  155.9660 C   0  0  0  0  0  3  0  0  0  0  0  0
  161.6240  210.5710  150.7330 C   0  0  0  0  0  2  0  0  0  0  0  0
  162.7680  207.6270  150.8280 C   0  0  1  0  0  3  0  0  0  0  0  0
  160.5860  206.8530  155.0270 C   0  0  0  0  0  3  0  0  0  0  0  0
  161.8560  207.4940  153.0160 N   0  0  0  0  0  0  0  0  0  0  0  0
  160.5100  207.1220  150.0730 O   0  0  0  0  0  0  0  0  0  0  0  0
  160.4340  205.7710  149.7290 C   0  0  0  0  0  2  0  0  0  0  0  0
  160.9250  205.7900  146.2170 C   0  0  0  0  0  3  0  0  0  0  0  0
  161.7150  204.6850  147.8840 N   0  0  0  0  0  0  0  0  0  0  0  0
  160.8300  205.6010  148.3050 C   0  0  0  0  0  0  0  0  0  0  0  0
  161.7760  204.8080  146.5700 N   0  0  0  0  0  2  0  0  0  0  0  0
  160.3040  206.3150  147.2920 N   0  0  0  0  0  0  0  0  0  0  0  0
  1 26  1  0  0  0  0
  2 27  1  0  0  0  0
  3  7  1  1  0  0  0
  3 16  1  0  0  0  0
  4 23  2  0  0  0  0
  5 11  1  6  0  0  0
  5 19  1  0  0  0  0
  5 15  1  0  0  0  0
  6  7  1  0  0  0  0
  9 27  1  1  0  0  0
 10 22  1  0  0  0  0
 10 17  1  0  0  0  0
 12  8  1  0  0  0  0
 13 24  1  6  0  0  0
 13  9  1  0  0  0  0
 13 20  1  0  0  0  0
 14  2  1  0  0  0  0
 15  4  1  0  0  0  0
 15 12  1  1  0  0  0
 16  8  1  0  0  0  0
 17 28  1  1  0  0  0
 17 25  1  0  0  0  0
 18  1  2  0  0  0  0
 18  4  1  0  0  0  0
 19  6  1  1  0  0  0
 19  3  1  0  0  0  0
 20 11  1  6  0  0  0
 20 18  1  0  0  0  0
 22 24  1  0  0  0  0
 23 21  1  0  0  0  0
 25 14  1  1  0  0  0
 25  9  1  0  0  0  0
 26 21  2  0  0  0  0
 27  1  1  0  0  0  0
 29 28  1  0  0  0  0
 30 33  1  0  0  0  0
 30 34  2  0  0  0  0
 31 32  2  0  0  0  0
 32 29  1  0  0  0  0
 33 31  1  0  0  0  0
 34 32  1  0  0  0  0
M  END
>  <MODEL>
2

>  <REMARK>
 VINA RESULT:      -4.9      0.955      1.281
  Name = 
  3 active torsions:
  status: ('A' for Active; 'I' for Inactive)
    1  A    between atoms: C_17  and  O_28
    2  A    between atoms: O_28  and  C_29
    3  A    between atoms: C_29  and  C_32
                            x       y       z     vdW  Elec       q    Type
                         _______ _______ _______ _____ _____    ______ ____

>  <TORSDO>
F 3

$$$$
=
 OpenBabel11122414233D

 34 41  0  0  1  0  0  0  0  0999 V2000
  162.0140  207.4780  150.4790 C   0  0  0  0  0  0  0  0  0  0  0  0
  162.6410  209.8490  151.1330 C   0  0  0  0  0  2  0  0  0  0  0  0
  161.6650  201.6510  151.6530 C   0  0  2  0  0  3  0  0  0  0  0  0
  160.9570  205.3620  149.8750 C   0  0  0  0  0  0  0  0  0  0  0  0
  160.1020  203.7920  151.7250 C   0  0  1  0  0  3  0  0  0  0  0  0
  162.5710  203.5650  151.7360 O   0  0  0  0  0  0  0  0  0  0  0  0
  162.9680  202.3040  151.2520 C   0  0  0  0  0  2  0  0  0  0  0  0
  160.9560  202.0810  149.2120 C   0  0  0  0  0  2  0  0  0  0  0  0
  162.0790  208.2770  152.8860 C   0  0  2  0  0  3  0  0  0  0  0  0
  159.8560  209.4590  154.9670 C   0  0  0  0  0  2  0  0  0  0  0  0
  159.9040  205.0550  152.5640 C   0  0  0  0  0  2  0  0  0  0  0  0
  159.8390  203.1010  149.2210 C   0  0  0  0  0  2  0  0  0  0  0  0
  160.8650  207.3550  153.1260 C   0  0  1  0  0  3  0  0  0  0  0  0
  162.6150  210.6140  152.4460 C   0  0  0  0  0  2  0  0  0  0  0  0
  160.0590  204.2080  150.2500 C   0  0  2  0  0  3  0  0  0  0  0  0
  160.8490  201.1810  150.4380 C   0  0  0  0  0  2  0  0  0  0  0  0
  160.5070  210.1530  153.7550 C   0  0  1  0  0  3  0  0  0  0  0  0
  161.3140  206.3150  150.8580 C   0  0  0  0  0  0  0  0  0  0  0  0
  161.3610  203.0270  152.2060 C   0  0  2  0  0  3  0  0  0  0  0  0
  161.0500  206.0540  152.3330 C   0  0  2  0  0  3  0  0  0  0  0  0
  161.9910  206.7430  148.1670 C   0  0  0  0  0  3  0  0  0  0  0  0
  160.6600  208.2840  155.5300 C   0  0  0  0  0  2  0  0  0  0  0  0
  161.2880  205.5960  148.5340 C   0  0  0  0  0  3  0  0  0  0  0  0
  160.6550  207.0540  154.6180 C   0  0  0  0  0  2  0  0  0  0  0  0
  161.9550  209.6950  153.4690 C   0  0  1  0  0  3  0  0  0  0  0  0
  162.3460  207.6830  149.1340 C   0  0  0  0  0  3  0  0  0  0  0  0
  162.3250  208.4730  151.4660 N   0  0  0  0  0  0  0  0  0  0  0  0
  159.6920  210.0000  152.6270 O   0  0  0  0  0  0  0  0  0  0  0  0
  158.6190  210.8730  152.8240 C   0  0  0  0  0  2  0  0  0  0  0  0
  159.0600  214.3070  152.0520 C   0  0  0  0  0  3  0  0  0  0  0  0
  159.8400  212.4420  151.3160 N   0  0  0  0  0  0  0  0  0  0  0  0
  158.9890  212.2280  152.3310 C   0  0  0  0  0  0  0  0  0  0  0  0
  159.8850  213.7510  151.1440 N   0  0  0  0  0  2  0  0  0  0  0  0
  158.4720  213.3690  152.8220 N   0  0  0  0  0  0  0  0  0  0  0  0
  1 18  1  0  0  0  0
  1 27  1  0  0  0  0
  2 27  1  0  0  0  0
  2 14  1  0  0  0  0
  3 16  1  6  0  0  0
  3 19  1  0  0  0  0
  4 15  1  0  0  0  0
  4 18  2  0  0  0  0
  5 19  1  0  0  0  0
  5 11  1  1  0  0  0
  7  3  1  0  0  0  0
  7  6  1  0  0  0  0
  8 12  1  0  0  0  0
  8 16  1  0  0  0  0
  9 27  1  6  0  0  0
  9 13  1  0  0  0  0
  9 25  1  0  0  0  0
 10 22  1  0  0  0  0
 13 24  1  1  0  0  0
 15 12  1  6  0  0  0
 15  5  1  0  0  0  0
 17 28  1  6  0  0  0
 17 10  1  0  0  0  0
 18 20  1  0  0  0  0
 19  6  1  6  0  0  0
 20 11  1  6  0  0  0
 20 13  1  0  0  0  0
 21 23  2  0  0  0  0
 21 26  1  0  0  0  0
 23  4  1  0  0  0  0
 24 22  1  0  0  0  0
 25 14  1  6  0  0  0
 25 17  1  0  0  0  0
 26  1  2  0  0  0  0
 28 29  1  0  0  0  0
 30 34  2  0  0  0  0
 31 32  2  0  0  0  0
 32 34  1  0  0  0  0
 32 29  1  0  0  0  0
 33 31  1  0  0  0  0
 33 30  1  0  0  0  0
M  END
>  <MODEL>
3

>  <REMARK>
 VINA RESULT:      -2.8      2.674      7.942
  Name = 
  3 active torsions:
  status: ('A' for Active; 'I' for Inactive)
    1  A    between atoms: C_17  and  O_28
    2  A    between atoms: O_28  and  C_29
    3  A    between atoms: C_29  and  C_32
                            x       y       z     vdW  Elec       q    Type
                         _______ _______ _______ _____ _____    ______ ____

>  <TORSDO>
F 3

$$$$
