=
 OpenBabel11122412473D

 32 37  0  0  1  0  0  0  0  0999 V2000
  159.3330  209.1210  156.2940 C   0  0  0  0  0  2  0  0  0  0  0  0
  161.3790  206.4790  152.3180 C   0  0  1  0  0  3  0  0  0  0  0  0
  162.2020  209.9150  148.8280 C   0  0  0  0  0  3  0  0  0  0  0  0
  162.4110  208.9030  147.8910 C   0  0  0  0  0  3  0  0  0  0  0  0
  160.8960  204.0550  151.5770 C   0  0  0  0  0  0  0  0  0  0  0  0
  160.9030  203.1010  150.4630 C   0  0  0  0  0  0  0  0  0  0  0  0
  161.2970  207.2540  154.6860 C   0  0  1  0  0  3  0  0  0  0  0  0
  161.7210  208.8590  152.9670 C   0  0  0  0  0  2  0  0  0  0  0  0
  160.9630  202.4010  148.4540 C   0  0  0  0  0  0  0  0  0  0  0  0
  161.6010  209.5930  155.1940 C   0  0  0  0  0  2  0  0  0  0  0  0
  161.8060  209.5890  150.1260 C   0  0  0  0  0  3  0  0  0  0  0  0
  161.1290  207.9340  151.8990 C   0  0  1  0  0  3  0  0  0  0  0  0
  161.6280  208.2500  150.5090 C   0  0  0  0  0  0  0  0  0  0  0  0
  161.6390  205.7720  149.9170 C   0  0  2  0  0  3  0  0  0  0  0  0
  160.8490  201.3090  149.2960 C   0  0  0  0  0  3  0  0  0  0  0  0
  159.3640  207.5850  156.3610 C   0  0  0  0  0  2  0  0  0  0  0  0
  161.0380  208.6360  154.2410 N   0  0  2  0  0  0  0  0  0  0  0  0
  160.8120  201.7600  150.5740 N   0  0  0  0  0  0  0  0  0  0  0  0
  160.7380  206.9570  156.0850 C   0  0  0  0  0  2  0  0  0  0  0  0
  160.7150  209.7770  156.4380 C   0  0  1  0  0  3  0  0  0  0  0  0
  162.2090  207.5700  148.2480 C   0  0  0  0  0  3  0  0  0  0  0  0
  161.7820  207.2300  149.5420 C   0  0  0  0  0  0  0  0  0  0  0  0
  161.0730  204.9130  148.7700 C   0  0  0  0  0  2  0  0  0  0  0  0
  160.7140  206.2630  153.6780 C   0  0  0  0  0  2  0  0  0  0  0  0
  160.8520  203.6370  152.7650 O   0  0  0  0  0  0  0  0  0  0  0  0
  161.0230  202.3550  146.9670 C   0  0  0  0  0  1  0  0  0  0  0  0
  160.8500  205.5330  151.2290 C   0  0  2  0  0  3  0  0  0  0  0  0
  161.0090  203.5170  149.1940 N   0  0  0  0  0  0  0  0  0  0  0  0
  160.5700  211.2610  156.7310 C   0  0  0  0  0  2  0  0  0  0  0  0
  159.6260  211.9010  155.7720 C   0  0  0  0  0  0  0  0  0  0  0  0
  158.3280  212.1940  156.1660 O   0  0  0  0  0  1  0  0  0  0  0  0
  160.0130  212.2010  154.6130 O   0  0  0  0  0  0  0  0  0  0  0  0
  1 16  1  0  0  0  0
  1 20  1  0  0  0  0
  2 24  1  1  0  0  0
  3 11  1  0  0  0  0
  4 21  1  0  0  0  0
  4  3  2  0  0  0  0
  5 25  2  0  0  0  0
  6 18  2  0  0  0  0
  6  5  1  0  0  0  0
  7 24  1  6  0  0  0
  7 19  1  0  0  0  0
  9 28  1  0  0  0  0
  9 15  2  0  0  0  0
 10 20  1  0  0  0  0
 11 13  2  0  0  0  0
 12  2  1  0  0  0  0
 12  8  1  1  0  0  0
 13 12  1  0  0  0  0
 14 23  1  6  0  0  0
 14 27  1  0  0  0  0
 15 18  1  0  0  0  0
 17  8  1  6  0  0  0
 17  7  1  0  0  0  0
 17 10  1  0  0  0  0
 19 16  1  0  0  0  0
 20 29  1  6  0  0  0
 21 22  2  0  0  0  0
 22 14  1  0  0  0  0
 22 13  1  0  0  0  0
 23 28  1  0  0  0  0
 26  9  1  0  0  0  0
 27  5  1  1  0  0  0
 27  2  1  0  0  0  0
 28  6  1  0  0  0  0
 30 31  1  0  0  0  0
 30 29  1  0  0  0  0
 32 30  2  0  0  0  0
M  END
>  <MODEL>
1

>  <REMARK>
 VINA RESULT:      -9.2      0.000      0.000
  Name = 
  2 active torsions:
  status: ('A' for Active; 'I' for Inactive)
    1  A    between atoms: C_20  and  C_29
    2  A    between atoms: C_29  and  C_30
                            x       y       z     vdW  Elec       q    Type
                         _______ _______ _______ _____ _____    ______ ____

>  <TORSDO>
F 2

$$$$
=
 OpenBabel11122412473D

 32 37  0  0  1  0  0  0  0  0999 V2000
  162.0590  202.1540  148.8830 C   0  0  0  0  0  2  0  0  0  0  0  0
  160.9130  206.4630  151.5490 C   0  0  1  0  0  3  0  0  0  0  0  0
  162.1950  210.1830  148.5190 C   0  0  0  0  0  3  0  0  0  0  0  0
  162.0770  211.0790  149.5810 C   0  0  0  0  0  3  0  0  0  0  0  0
  161.0140  206.8530  154.0970 C   0  0  0  0  0  0  0  0  0  0  0  0
  161.1560  207.8440  155.1700 C   0  0  0  0  0  0  0  0  0  0  0  0
  160.3700  204.2690  150.4970 C   0  0  1  0  0  3  0  0  0  0  0  0
  160.9620  206.1030  149.0840 C   0  0  0  0  0  2  0  0  0  0  0  0
  161.6160  209.6990  156.1050 C   0  0  0  0  0  0  0  0  0  0  0  0
  160.4900  204.0260  148.0980 C   0  0  0  0  0  2  0  0  0  0  0  0
  162.0320  208.8150  148.7420 C   0  0  0  0  0  3  0  0  0  0  0  0
  161.6380  206.8350  150.2480 C   0  0  1  0  0  3  0  0  0  0  0  0
  161.7370  208.3260  150.0240 C   0  0  0  0  0  0  0  0  0  0  0  0
  161.3240  208.7550  152.5020 C   0  0  2  0  0  3  0  0  0  0  0  0
  161.1660  208.8180  157.0730 C   0  0  0  0  0  3  0  0  0  0  0  0
  161.6330  202.0260  150.3550 C   0  0  0  0  0  2  0  0  0  0  0  0
  161.0940  204.6590  149.2720 N   0  0  2  0  0  0  0  0  0  0  0  0
  160.8740  207.6400  156.4730 N   0  0  0  0  0  0  0  0  0  0  0  0
  160.3270  202.7490  150.7130 C   0  0  0  0  0  2  0  0  0  0  0  0
  160.9150  202.5550  147.9380 C   0  0  1  0  0  3  0  0  0  0  0  0
  161.8140  210.6050  150.8660 C   0  0  0  0  0  3  0  0  0  0  0  0
  161.6780  209.2300  151.1110 C   0  0  0  0  0  0  0  0  0  0  0  0
  162.0200  209.5720  153.6070 C   0  0  0  0  0  2  0  0  0  0  0  0
  161.0010  204.9450  151.7140 C   0  0  0  0  0  2  0  0  0  0  0  0
  160.5480  205.7110  154.3510 O   0  0  0  0  0  0  0  0  0  0  0  0
  162.0570  211.1020  156.3370 C   0  0  0  0  0  1  0  0  0  0  0  0
  161.5350  207.2350  152.7220 C   0  0  2  0  0  3  0  0  0  0  0  0
  161.5930  209.0840  154.9150 N   0  0  0  0  0  0  0  0  0  0  0  0
  161.3090  202.3060  146.4920 C   0  0  0  0  0  2  0  0  0  0  0  0
  161.5780  203.5920  145.7870 C   0  0  0  0  0  0  0  0  0  0  0  0
  162.6900  204.3500  146.1260 O   0  0  0  0  0  1  0  0  0  0  0  0
  160.8130  203.9760  144.8650 O   0  0  0  0  0  0  0  0  0  0  0  0
  1 16  1  0  0  0  0
  2 24  1  1  0  0  0
  2 27  1  0  0  0  0
  3 11  2  0  0  0  0
  3  4  1  0  0  0  0
  4 21  2  0  0  0  0
  5 25  2  0  0  0  0
  5  6  1  0  0  0  0
  6 18  2  0  0  0  0
  7 19  1  1  0  0  0
  7 24  1  0  0  0  0
  8 17  1  0  0  0  0
  9 26  1  0  0  0  0
  9 15  2  0  0  0  0
 11 13  1  0  0  0  0
 12  8  1  6  0  0  0
 12  2  1  0  0  0  0
 13 12  1  0  0  0  0
 13 22  2  0  0  0  0
 14 27  1  0  0  0  0
 14 23  1  1  0  0  0
 16 19  1  0  0  0  0
 17 10  1  6  0  0  0
 17  7  1  0  0  0  0
 18 15  1  0  0  0  0
 20 29  1  6  0  0  0
 20 10  1  0  0  0  0
 20  1  1  0  0  0  0
 21 22  1  0  0  0  0
 22 14  1  0  0  0  0
 23 28  1  0  0  0  0
 27  5  1  1  0  0  0
 28  6  1  0  0  0  0
 28  9  1  0  0  0  0
 30 31  1  0  0  0  0
 30 29  1  0  0  0  0
 32 30  2  0  0  0  0
M  END
>  <MODEL>
2

>  <REMARK>
 VINA RESULT:      -8.0      2.191      7.778
  Name = 
  2 active torsions:
  status: ('A' for Active; 'I' for Inactive)
    1  A    between atoms: C_20  and  C_29
    2  A    between atoms: C_29  and  C_30
                            x       y       z     vdW  Elec       q    Type
                         _______ _______ _______ _____ _____    ______ ____

>  <TORSDO>
F 2

$$$$
=
 OpenBabel11122412473D

 32 37  0  0  1  0  0  0  0  0999 V2000
  162.1050  202.2810  148.8630 C   0  0  0  0  0  2  0  0  0  0  0  0
  160.9330  206.5630  151.5600 C   0  0  1  0  0  3  0  0  0  0  0  0
  162.1990  210.3120  148.5600 C   0  0  0  0  0  3  0  0  0  0  0  0
  162.0760  211.2000  149.6290 C   0  0  0  0  0  3  0  0  0  0  0  0
  161.0290  206.9340  154.1120 C   0  0  0  0  0  0  0  0  0  0  0  0
  161.1640  207.9170  155.1920 C   0  0  0  0  0  0  0  0  0  0  0  0
  160.4020  204.3750  150.4910 C   0  0  1  0  0  3  0  0  0  0  0  0
  160.9870  206.2220  149.0930 C   0  0  0  0  0  2  0  0  0  0  0  0
  161.6130  209.7670  156.1420 C   0  0  0  0  0  0  0  0  0  0  0  0
  160.5270  204.1500  148.0910 C   0  0  0  0  0  2  0  0  0  0  0  0
  162.0430  208.9420  148.7730 C   0  0  0  0  0  3  0  0  0  0  0  0
  161.6580  206.9490  150.2630 C   0  0  1  0  0  3  0  0  0  0  0  0
  161.7490  208.4420  150.0510 C   0  0  0  0  0  0  0  0  0  0  0  0
  161.3310  208.8500  152.5320 C   0  0  2  0  0  3  0  0  0  0  0  0
  161.1670  208.8780  157.1030 C   0  0  0  0  0  3  0  0  0  0  0  0
  161.6780  202.1390  150.3340 C   0  0  0  0  0  2  0  0  0  0  0  0
  161.1260  204.7780  149.2700 N   0  0  2  0  0  0  0  0  0  0  0  0
  160.8810  207.7020  156.4930 N   0  0  0  0  0  0  0  0  0  0  0  0
  160.3680  202.8530  150.6950 C   0  0  0  0  0  2  0  0  0  0  0  0
  160.9600  202.6830  147.9200 C   0  0  1  0  0  3  0  0  0  0  0  0
  161.8140  210.7150  150.9100 C   0  0  0  0  0  3  0  0  0  0  0  0
  161.6840  209.3370  151.1450 C   0  0  0  0  0  0  0  0  0  0  0  0
  162.0210  209.6620  153.6430 C   0  0  0  0  0  2  0  0  0  0  0  0
  161.0280  205.0440  151.7140 C   0  0  0  0  0  2  0  0  0  0  0  0
  160.5680  205.7880  154.3560 O   0  0  0  0  0  0  0  0  0  0  0  0
  162.0470  211.1710  156.3850 C   0  0  0  0  0  1  0  0  0  0  0  0
  161.5490  207.3300  152.7400 C   0  0  2  0  0  3  0  0  0  0  0  0
  161.5950  209.1620  154.9480 N   0  0  0  0  0  0  0  0  0  0  0  0
  161.3560  202.4470  146.4730 C   0  0  0  0  0  2  0  0  0  0  0  0
  160.8360  201.1380  145.9870 C   0  0  0  0  0  0  0  0  0  0  0  0
  159.9730  201.0930  144.9010 O   0  0  0  0  0  0  0  0  0  0  0  0
  161.2000  200.0700  146.5440 O   0  0  0  0  0  1  0  0  0  0  0  0
  1 16  1  0  0  0  0
  2 24  1  1  0  0  0
  2 27  1  0  0  0  0
  3 11  2  0  0  0  0
  3  4  1  0  0  0  0
  4 21  2  0  0  0  0
  5 25  2  0  0  0  0
  5  6  1  0  0  0  0
  6 18  2  0  0  0  0
  7 19  1  1  0  0  0
  7 24  1  0  0  0  0
  8 17  1  0  0  0  0
  9 26  1  0  0  0  0
  9 15  2  0  0  0  0
 11 13  1  0  0  0  0
 12  8  1  6  0  0  0
 12  2  1  0  0  0  0
 13 12  1  0  0  0  0
 13 22  2  0  0  0  0
 14 27  1  0  0  0  0
 14 23  1  1  0  0  0
 16 19  1  0  0  0  0
 17 10  1  6  0  0  0
 17  7  1  0  0  0  0
 18 15  1  0  0  0  0
 20 29  1  6  0  0  0
 20 10  1  0  0  0  0
 20  1  1  0  0  0  0
 21 22  1  0  0  0  0
 22 14  1  0  0  0  0
 23 28  1  0  0  0  0
 27  5  1  1  0  0  0
 28  6  1  0  0  0  0
 28  9  1  0  0  0  0
 30 29  1  0  0  0  0
 30 32  1  0  0  0  0
 31 30  2  0  0  0  0
M  END
>  <MODEL>
3

>  <REMARK>
 VINA RESULT:      -8.0      2.266      8.103
  Name = 
  2 active torsions:
  status: ('A' for Active; 'I' for Inactive)
    1  A    between atoms: C_20  and  C_29
    2  A    between atoms: C_29  and  C_30
                            x       y       z     vdW  Elec       q    Type
                         _______ _______ _______ _____ _____    ______ ____

>  <TORSDO>
F 2

$$$$
=
 OpenBabel11122412473D

 32 37  0  0  1  0  0  0  0  0999 V2000
  159.5400  202.5940  144.7830 C   0  0  0  0  0  2  0  0  0  0  0  0
  161.5350  205.6070  148.5150 C   0  0  1  0  0  3  0  0  0  0  0  0
  160.6470  203.1290  152.7260 C   0  0  0  0  0  3  0  0  0  0  0  0
  160.9780  204.2690  153.4580 C   0  0  0  0  0  3  0  0  0  0  0  0
  161.6760  208.1820  148.6010 C   0  0  0  0  0  0  0  0  0  0  0  0
  161.7670  209.3650  149.4630 C   0  0  0  0  0  0  0  0  0  0  0  0
  161.6510  204.2750  146.4100 C   0  0  1  0  0  3  0  0  0  0  0  0
  161.2570  203.1310  148.4710 C   0  0  0  0  0  2  0  0  0  0  0  0
  161.6720  210.5360  151.2370 C   0  0  0  0  0  0  0  0  0  0  0  0
  161.3260  201.8850  146.4830 C   0  0  0  0  0  2  0  0  0  0  0  0
  160.6070  203.1850  151.3320 C   0  0  0  0  0  3  0  0  0  0  0  0
  160.7880  204.4230  149.1470 C   0  0  1  0  0  3  0  0  0  0  0  0
  160.9100  204.3750  150.6520 C   0  0  0  0  0  0  0  0  0  0  0  0
  161.5580  206.8390  150.7090 C   0  0  2  0  0  3  0  0  0  0  0  0
  162.0440  211.3570  150.1880 C   0  0  0  0  0  3  0  0  0  0  0  0
  160.0430  204.0000  144.4130 C   0  0  0  0  0  2  0  0  0  0  0  0
  160.9140  203.1700  147.0500 N   0  0  2  0  0  0  0  0  0  0  0  0
  162.1040  210.6080  149.0610 N   0  0  0  0  0  0  0  0  0  0  0  0
  161.4680  204.3180  144.8860 C   0  0  0  0  0  2  0  0  0  0  0  0
  160.6640  201.6020  145.1220 C   0  0  1  0  0  3  0  0  0  0  0  0
  161.2520  205.4660  152.7970 C   0  0  0  0  0  3  0  0  0  0  0  0
  161.1870  205.5450  151.3970 C   0  0  0  0  0  0  0  0  0  0  0  0
  161.0790  208.0840  151.4790 C   0  0  0  0  0  2  0  0  0  0  0  0
  161.2210  205.6110  147.0180 C   0  0  0  0  0  2  0  0  0  0  0  0
  161.9730  208.2660  147.3800 O   0  0  0  0  0  0  0  0  0  0  0  0
  161.4750  210.9590  152.6510 C   0  0  0  0  0  1  0  0  0  0  0  0
  161.1270  206.9080  149.2220 C   0  0  2  0  0  3  0  0  0  0  0  0
  161.5140  209.2880  150.7760 N   0  0  0  0  0  0  0  0  0  0  0  0
  160.1360  200.1770  145.1140 C   0  0  0  0  0  2  0  0  0  0  0  0
  161.1310  199.2400  145.7080 C   0  0  0  0  0  0  0  0  0  0  0  0
  161.5850  199.4400  147.0040 O   0  0  0  0  0  1  0  0  0  0  0  0
  161.5380  198.2510  145.0460 O   0  0  0  0  0  0  0  0  0  0  0  0
  1 20  1  0  0  0  0
  2 24  1  6  0  0  0
  2 12  1  0  0  0  0
  2 27  1  0  0  0  0
  3  4  1  0  0  0  0
  5  6  1  0  0  0  0
  6 28  1  0  0  0  0
  7 19  1  6  0  0  0
  7 24  1  0  0  0  0
  7 17  1  0  0  0  0
  9 26  1  0  0  0  0
 11  3  2  0  0  0  0
 12  8  1  6  0  0  0
 12 13  1  0  0  0  0
 13 11  1  0  0  0  0
 13 22  2  0  0  0  0
 14 22  1  0  0  0  0
 14 23  1  1  0  0  0
 15  9  2  0  0  0  0
 16  1  1  0  0  0  0
 16 19  1  0  0  0  0
 17 10  1  6  0  0  0
 17  8  1  0  0  0  0
 18  6  2  0  0  0  0
 18 15  1  0  0  0  0
 20 29  1  1  0  0  0
 20 10  1  0  0  0  0
 21  4  2  0  0  0  0
 22 21  1  0  0  0  0
 25  5  2  0  0  0  0
 27  5  1  6  0  0  0
 27 14  1  0  0  0  0
 28  9  1  0  0  0  0
 28 23  1  0  0  0  0
 29 30  1  0  0  0  0
 30 31  1  0  0  0  0
 32 30  2  0  0  0  0
M  END
>  <MODEL>
4

>  <REMARK>
 VINA RESULT:      -6.9      3.538      9.539
  Name = 
  2 active torsions:
  status: ('A' for Active; 'I' for Inactive)
    1  A    between atoms: C_20  and  C_29
    2  A    between atoms: C_29  and  C_30
                            x       y       z     vdW  Elec       q    Type
                         _______ _______ _______ _____ _____    ______ ____

>  <TORSDO>
F 2

$$$$
=
 OpenBabel11122412473D

 32 37  0  0  1  0  0  0  0  0999 V2000
  162.7450  209.9880  154.0110 C   0  0  0  0  0  2  0  0  0  0  0  0
  160.8780  206.7810  150.3770 C   0  0  1  0  0  3  0  0  0  0  0  0
  160.9980  202.2910  152.4940 C   0  0  0  0  0  3  0  0  0  0  0  0
  160.7710  201.7050  151.2480 C   0  0  0  0  0  3  0  0  0  0  0  0
  161.1090  206.9460  147.8120 C   0  0  0  0  0  0  0  0  0  0  0  0
  161.1130  206.2100  146.5430 C   0  0  0  0  0  0  0  0  0  0  0  0
  160.7630  208.7560  151.8940 C   0  0  1  0  0  3  0  0  0  0  0  0
  160.7910  206.5690  152.8570 C   0  0  0  0  0  2  0  0  0  0  0  0
  161.2140  204.5510  145.2150 C   0  0  0  0  0  0  0  0  0  0  0  0
  160.7250  208.4310  154.2850 C   0  0  0  0  0  2  0  0  0  0  0  0
  161.1750  203.6720  152.5910 C   0  0  0  0  0  3  0  0  0  0  0  0
  161.3800  205.9670  151.5780 C   0  0  1  0  0  3  0  0  0  0  0  0
  161.1130  204.4860  151.4490 C   0  0  0  0  0  0  0  0  0  0  0  0
  160.8320  204.7240  148.9280 C   0  0  2  0  0  3  0  0  0  0  0  0
  161.0660  205.7040  144.4660 C   0  0  0  0  0  3  0  0  0  0  0  0
  162.4910  210.5360  152.5970 C   0  0  0  0  0  2  0  0  0  0  0  0
  161.2670  207.9420  153.0160 N   0  0  2  0  0  0  0  0  0  0  0  0
  161.0010  206.7580  145.3150 N   0  0  0  0  0  0  0  0  0  0  0  0
  161.0910  210.2500  152.0380 C   0  0  0  0  0  2  0  0  0  0  0  0
  161.4620  209.6810  154.7980 C   0  0  1  0  0  3  0  0  0  0  0  0
  160.7380  202.4980  150.1010 C   0  0  0  0  0  3  0  0  0  0  0  0
  160.9440  203.8850  150.1800 C   0  0  0  0  0  0  0  0  0  0  0  0
  161.4160  204.0240  147.6860 C   0  0  0  0  0  2  0  0  0  0  0  0
  161.3260  208.2300  150.5740 C   0  0  0  0  0  2  0  0  0  0  0  0
  160.9420  208.1950  147.8170 O   0  0  0  0  0  0  0  0  0  0  0  0
  161.3400  203.1680  144.6770 C   0  0  0  0  0  1  0  0  0  0  0  0
  161.4050  206.1560  149.0760 C   0  0  2  0  0  3  0  0  0  0  0  0
  161.2290  204.8770  146.5150 N   0  0  0  0  0  0  0  0  0  0  0  0
  161.7730  209.5040  156.2750 C   0  0  0  0  0  2  0  0  0  0  0  0
  162.3190  210.7630  156.8560 C   0  0  0  0  0  0  0  0  0  0  0  0
  163.6450  210.8230  157.2610 O   0  0  0  0  0  1  0  0  0  0  0  0
  161.5850  211.7800  156.9540 O   0  0  0  0  0  0  0  0  0  0  0  0
  1 20  1  0  0  0  0
  2 24  1  1  0  0  0
  2 12  1  0  0  0  0
  3 11  1  0  0  0  0
  4  3  2  0  0  0  0
  5 25  2  0  0  0  0
  6  5  1  0  0  0  0
  7 24  1  6  0  0  0
  7 19  1  0  0  0  0
  7 17  1  0  0  0  0
  9 28  1  0  0  0  0
 10 20  1  0  0  0  0
 12  8  1  1  0  0  0
 13 12  1  0  0  0  0
 13 11  2  0  0  0  0
 14 23  1  6  0  0  0
 14 27  1  0  0  0  0
 14 22  1  0  0  0  0
 15  9  2  0  0  0  0
 15 18  1  0  0  0  0
 16  1  1  0  0  0  0
 17  8  1  6  0  0  0
 17 10  1  0  0  0  0
 18  6  2  0  0  0  0
 19 16  1  0  0  0  0
 20 29  1  1  0  0  0
 21 22  2  0  0  0  0
 21  4  1  0  0  0  0
 22 13  1  0  0  0  0
 26  9  1  0  0  0  0
 27  5  1  6  0  0  0
 27  2  1  0  0  0  0
 28  6  1  0  0  0  0
 28 23  1  0  0  0  0
 29 30  1  0  0  0  0
 30 32  2  0  0  0  0
 30 31  1  0  0  0  0
M  END
>  <MODEL>
5

>  <REMARK>
 VINA RESULT:      -6.7      2.396      4.494
  Name = 
  2 active torsions:
  status: ('A' for Active; 'I' for Inactive)
    1  A    between atoms: C_20  and  C_29
    2  A    between atoms: C_29  and  C_30
                            x       y       z     vdW  Elec       q    Type
                         _______ _______ _______ _____ _____    ______ ____

>  <TORSDO>
F 2

$$$$
