=
 OpenBabel11122414283D

 34 40  0  0  1  0  0  0  0  0999 V2000
  161.1300  203.4370  150.9320 C   0  0  0  0  0  0  0  0  0  0  0  0
  160.8500  204.6680  153.1350 C   0  0  0  0  0  3  0  0  0  0  0  0
  160.1700  205.3900  144.7900 C   0  0  0  0  0  2  0  0  0  0  0  0
  161.4500  202.6130  148.6710 C   0  0  0  0  0  0  0  0  0  0  0  0
  162.3030  204.1860  146.9160 C   0  0  0  0  0  0  0  0  0  0  0  0
  162.6650  205.6850  144.9270 C   0  0  0  0  0  2  0  0  0  0  0  0
  161.4550  205.6150  144.0030 C   0  0  0  0  0  2  0  0  0  0  0  0
  160.3490  202.8690  145.0160 C   0  0  0  0  0  2  0  0  0  0  0  0
  161.4670  205.8200  151.3020 C   0  0  0  0  0  0  0  0  0  0  0  0
  160.9490  208.7920  151.1400 C   0  0  0  0  0  3  0  0  0  0  0  0
  162.2960  205.1520  147.7900 N   0  0  0  0  0  0  0  0  0  0  0  0
  160.2510  202.8320  146.5360 C   0  0  0  0  0  2  0  0  0  0  0  0
  161.8080  206.0530  150.0030 N   0  0  0  0  0  0  0  0  0  0  0  0
  160.9870  205.9770  153.4770 N   0  0  0  0  0  0  0  0  0  0  0  0
  161.6310  202.8580  147.1970 C   0  0  2  0  0  3  0  0  0  0  0  0
  159.5460  204.0370  144.4510 C   0  0  0  0  0  2  0  0  0  0  0  0
  161.6120  208.1600  152.3350 C   0  0  2  0  0  3  0  0  0  0  0  0
  161.4590  203.6830  149.5770 C   0  0  0  0  0  0  0  0  0  0  0  0
  162.8380  204.4140  145.6120 N   0  0  0  0  0  2  0  0  0  0  0  0
  161.8200  204.9850  149.1350 C   0  0  0  0  0  0  0  0  0  0  0  0
  160.8470  201.1050  150.4170 C   0  0  0  0  0  3  0  0  0  0  0  0
  161.2390  208.4390  149.8800 C   0  0  0  0  0  3  0  0  0  0  0  0
  161.1440  201.3610  149.1130 N   0  0  0  0  0  0  0  0  0  0  0  0
  162.2520  207.3760  149.5560 C   0  0  0  0  0  2  0  0  0  0  0  0
  161.3450  206.6780  152.3700 C   0  0  0  0  0  0  0  0  0  0  0  0
  160.8290  202.1410  151.3540 C   0  0  0  0  0  3  0  0  0  0  0  0
  161.1310  204.5250  151.7920 C   0  0  0  0  0  0  0  0  0  0  0  0
  161.1320  208.8410  153.6090 C   0  0  0  0  0  2  0  0  0  0  0  0
  161.9840  209.9790  153.9170 N   0  0  0  0  0  2  0  0  0  0  0  0
  161.9740  208.7310  156.8360 O   0  0  0  0  0  0  0  0  0  0  0  0
  162.8570  210.7670  156.0250 C   0  0  0  0  0  2  0  0  0  0  0  0
  161.6160  210.4440  155.2440 C   0  0  2  0  0  3  0  0  0  0  0  0
  162.8320  209.7870  157.1750 C   0  0  0  0  0  2  0  0  0  0  0  0
  160.9910  209.3060  156.0190 C   0  0  0  0  0  2  0  0  0  0  0  0
  1 26  1  0  0  0  0
  1 27  2  0  0  0  0
  2 14  2  0  0  0  0
  4 23  2  0  0  0  0
  4 18  1  0  0  0  0
  5 15  1  0  0  0  0
  5 11  2  0  0  0  0
  6 19  1  0  0  0  0
  7  3  1  0  0  0  0
  7  6  1  0  0  0  0
  8 12  1  0  0  0  0
  9 27  1  0  0  0  0
  9 25  2  0  0  0  0
 10 17  1  0  0  0  0
 11 20  1  0  0  0  0
 13  9  1  0  0  0  0
 15 12  1  6  0  0  0
 15  4  1  0  0  0  0
 16  3  1  0  0  0  0
 16  8  1  0  0  0  0
 17 25  1  0  0  0  0
 17 28  1  1  0  0  0
 18  1  1  0  0  0  0
 19  5  1  0  0  0  0
 20 18  2  0  0  0  0
 20 13  1  0  0  0  0
 21 26  2  0  0  0  0
 22 10  2  0  0  0  0
 23 21  1  0  0  0  0
 24 22  1  0  0  0  0
 24 13  1  0  0  0  0
 25 14  1  0  0  0  0
 27  2  1  0  0  0  0
 28 29  1  0  0  0  0
 30 33  1  0  0  0  0
 31 33  1  0  0  0  0
 32 29  1  6  0  0  0
 32 34  1  0  0  0  0
 32 31  1  0  0  0  0
 34 30  1  0  0  0  0
M  END
>  <MODEL>
1

>  <REMARK>
 VINA RESULT:      -7.5      0.000      0.000
  Name = 
  3 active torsions:
  status: ('A' for Active; 'I' for Inactive)
    1  A    between atoms: C_17  and  C_28
    2  A    between atoms: C_28  and  N_29
    3  A    between atoms: N_29  and  C_32
                            x       y       z     vdW  Elec       q    Type
                         _______ _______ _______ _____ _____    ______ ____

>  <TORSDO>
F 3

$$$$
=
 OpenBabel11122414283D

 34 40  0  0  1  0  0  0  0  0999 V2000
  161.1480  203.5280  150.9150 C   0  0  0  0  0  0  0  0  0  0  0  0
  160.9100  204.8150  153.0920 C   0  0  0  0  0  3  0  0  0  0  0  0
  160.1670  205.3550  144.7380 C   0  0  0  0  0  2  0  0  0  0  0  0
  161.4320  202.6460  148.6720 C   0  0  0  0  0  0  0  0  0  0  0  0
  162.2970  204.1620  146.8730 C   0  0  0  0  0  0  0  0  0  0  0  0
  162.6690  205.6070  144.8470 C   0  0  0  0  0  2  0  0  0  0  0  0
  161.4490  205.5380  143.9350 C   0  0  0  0  0  2  0  0  0  0  0  0
  160.3020  202.8380  145.0220 C   0  0  0  0  0  2  0  0  0  0  0  0
  161.5310  205.9130  151.2270 C   0  0  0  0  0  0  0  0  0  0  0  0
  161.0660  208.8890  150.9990 C   0  0  0  0  0  3  0  0  0  0  0  0
  162.3160  205.1480  147.7240 N   0  0  0  0  0  0  0  0  0  0  0  0
  160.2180  202.8380  146.5430 C   0  0  0  0  0  2  0  0  0  0  0  0
  161.8650  206.1090  149.9200 N   0  0  0  0  0  0  0  0  0  0  0  0
  161.0740  206.1290  153.4020 N   0  0  0  0  0  0  0  0  0  0  0  0
  161.6040  202.8540  147.1910 C   0  0  2  0  0  3  0  0  0  0  0  0
  159.5160  204.0070  144.4370 C   0  0  0  0  0  2  0  0  0  0  0  0
  161.7280  208.2730  152.2040 C   0  0  2  0  0  3  0  0  0  0  0  0
  161.4680  203.7360  149.5530 C   0  0  0  0  0  0  0  0  0  0  0  0
  162.8240  204.3490  145.5600 N   0  0  0  0  0  2  0  0  0  0  0  0
  161.8490  205.0210  149.0770 C   0  0  0  0  0  0  0  0  0  0  0  0
  160.8170  201.1910  150.4570 C   0  0  0  0  0  3  0  0  0  0  0  0
  161.3380  208.5010  149.7460 C   0  0  0  0  0  3  0  0  0  0  0  0
  161.1070  201.4100  149.1450 N   0  0  0  0  0  0  0  0  0  0  0  0
  162.3280  207.4130  149.4380 C   0  0  0  0  0  2  0  0  0  0  0  0
  161.4350  206.7980  152.2750 C   0  0  0  0  0  0  0  0  0  0  0  0
  160.8260  202.2480  151.3700 C   0  0  0  0  0  3  0  0  0  0  0  0
  161.1760  204.6360  151.7490 C   0  0  0  0  0  0  0  0  0  0  0  0
  161.2730  208.9930  153.4650 C   0  0  0  0  0  2  0  0  0  0  0  0
  161.2220  210.4270  153.2300 N   0  0  0  0  0  2  0  0  0  0  0  0
  158.5700  211.6690  154.4530 O   0  0  0  0  0  0  0  0  0  0  0  0
  160.0820  210.0800  155.3290 C   0  0  0  0  0  2  0  0  0  0  0  0
  160.8540  211.0550  154.4880 C   0  0  2  0  0  3  0  0  0  0  0  0
  158.7190  210.7160  155.4690 C   0  0  0  0  0  2  0  0  0  0  0  0
  159.8610  212.1630  154.2230 C   0  0  0  0  0  2  0  0  0  0  0  0
  1 26  1  0  0  0  0
  1 27  2  0  0  0  0
  2 14  2  0  0  0  0
  4 23  2  0  0  0  0
  4 18  1  0  0  0  0
  5 15  1  0  0  0  0
  5 11  2  0  0  0  0
  6 19  1  0  0  0  0
  7  3  1  0  0  0  0
  7  6  1  0  0  0  0
  8 12  1  0  0  0  0
  9 27  1  0  0  0  0
  9 25  2  0  0  0  0
 10 17  1  0  0  0  0
 11 20  1  0  0  0  0
 13  9  1  0  0  0  0
 15 12  1  6  0  0  0
 15  4  1  0  0  0  0
 16  3  1  0  0  0  0
 16  8  1  0  0  0  0
 17 25  1  0  0  0  0
 17 28  1  1  0  0  0
 18  1  1  0  0  0  0
 19  5  1  0  0  0  0
 20 18  2  0  0  0  0
 20 13  1  0  0  0  0
 21 26  2  0  0  0  0
 22 10  2  0  0  0  0
 23 21  1  0  0  0  0
 24 22  1  0  0  0  0
 24 13  1  0  0  0  0
 25 14  1  0  0  0  0
 27  2  1  0  0  0  0
 29 28  1  0  0  0  0
 30 33  1  0  0  0  0
 31 33  1  0  0  0  0
 32 29  1  6  0  0  0
 32 31  1  0  0  0  0
 34 30  1  0  0  0  0
 34 32  1  0  0  0  0
M  END
>  <MODEL>
2

>  <REMARK>
 VINA RESULT:      -7.5      1.195      1.446
  Name = 
  3 active torsions:
  status: ('A' for Active; 'I' for Inactive)
    1  A    between atoms: C_17  and  C_28
    2  A    between atoms: C_28  and  N_29
    3  A    between atoms: N_29  and  C_32
                            x       y       z     vdW  Elec       q    Type
                         _______ _______ _______ _____ _____    ______ ____

>  <TORSDO>
F 3

$$$$
=
 OpenBabel11122414283D

 34 40  0  0  1  0  0  0  0  0999 V2000
  161.8060  208.3570  149.7510 C   0  0  0  0  0  0  0  0  0  0  0  0
  161.8300  206.0580  148.6730 C   0  0  0  0  0  3  0  0  0  0  0  0
  158.9600  210.4920  155.2090 C   0  0  0  0  0  2  0  0  0  0  0  0
  161.7190  210.3650  151.1130 C   0  0  0  0  0  0  0  0  0  0  0  0
  161.7580  210.1400  153.6080 C   0  0  0  0  0  0  0  0  0  0  0  0
  161.2910  210.1230  156.0810 C   0  0  0  0  0  2  0  0  0  0  0  0
  159.9320  210.7570  156.3520 C   0  0  0  0  0  2  0  0  0  0  0  0
  159.7150  212.3710  153.6800 C   0  0  0  0  0  2  0  0  0  0  0  0
  161.7150  206.2210  150.9160 C   0  0  0  0  0  0  0  0  0  0  0  0
  160.5610  203.9500  152.5390 C   0  0  0  0  0  3  0  0  0  0  0  0
  161.7670  208.8430  153.4830 N   0  0  0  0  0  0  0  0  0  0  0  0
  160.0090  211.4920  152.4710 C   0  0  0  0  0  2  0  0  0  0  0  0
  161.6660  206.8060  152.1460 N   0  0  0  0  0  0  0  0  0  0  0  0
  161.7700  204.8020  149.1920 N   0  0  0  0  0  0  0  0  0  0  0  0
  161.4720  211.0470  152.4310 C   0  0  2  0  0  3  0  0  0  0  0  0
  158.5700  211.7910  154.5050 C   0  0  0  0  0  2  0  0  0  0  0  0
  161.6180  203.7260  151.4890 C   0  0  2  0  0  3  0  0  0  0  0  0
  161.7280  208.9650  151.0260 C   0  0  0  0  0  0  0  0  0  0  0  0
  161.8920  210.7270  154.9030 N   0  0  0  0  0  2  0  0  0  0  0  0
  161.6860  208.1800  152.2110 C   0  0  0  0  0  0  0  0  0  0  0  0
  161.9000  210.5380  148.7420 C   0  0  0  0  0  3  0  0  0  0  0  0
  160.5960  204.9810  153.3940 C   0  0  0  0  0  3  0  0  0  0  0  0
  161.8020  211.1090  149.9740 N   0  0  0  0  0  0  0  0  0  0  0  0
  161.6970  206.0060  153.3730 C   0  0  0  0  0  2  0  0  0  0  0  0
  161.6860  204.8970  150.5450 C   0  0  0  0  0  0  0  0  0  0  0  0
  161.8980  209.1480  148.6040 C   0  0  0  0  0  3  0  0  0  0  0  0
  161.7920  206.9720  149.7070 C   0  0  0  0  0  0  0  0  0  0  0  0
  161.3380  202.4270  150.7470 C   0  0  0  0  0  2  0  0  0  0  0  0
  160.1280  202.5590  149.9520 N   0  0  0  0  0  2  0  0  0  0  0  0
  160.9040  201.5590  147.0400 O   0  0  0  0  0  0  0  0  0  0  0  0
  161.2810  200.5910  149.1620 C   0  0  0  0  0  2  0  0  0  0  0  0
  159.9710  201.3240  149.2020 C   0  0  2  0  0  3  0  0  0  0  0  0
  161.6410  200.5620  147.6950 C   0  0  0  0  0  2  0  0  0  0  0  0
  159.6990  201.6490  147.7510 C   0  0  0  0  0  2  0  0  0  0  0  0
  1 18  1  0  0  0  0
  2 14  2  0  0  0  0
  2 27  1  0  0  0  0
  3  7  1  0  0  0  0
  4 15  1  0  0  0  0
  5 19  1  0  0  0  0
  6  7  1  0  0  0  0
  8 16  1  0  0  0  0
  9 13  1  0  0  0  0
 10 22  2  0  0  0  0
 11  5  2  0  0  0  0
 12  8  1  0  0  0  0
 13 20  1  0  0  0  0
 13 24  1  0  0  0  0
 14 25  1  0  0  0  0
 15 12  1  6  0  0  0
 15  5  1  0  0  0  0
 16  3  1  0  0  0  0
 17 28  1  6  0  0  0
 17 10  1  0  0  0  0
 18  4  1  0  0  0  0
 18 20  2  0  0  0  0
 19  6  1  0  0  0  0
 20 11  1  0  0  0  0
 21 23  1  0  0  0  0
 23  4  2  0  0  0  0
 24 22  1  0  0  0  0
 25  9  2  0  0  0  0
 25 17  1  0  0  0  0
 26 21  2  0  0  0  0
 26  1  1  0  0  0  0
 27  1  2  0  0  0  0
 27  9  1  0  0  0  0
 29 28  1  0  0  0  0
 30 33  1  0  0  0  0
 30 34  1  0  0  0  0
 31 32  1  0  0  0  0
 32 29  1  1  0  0  0
 33 31  1  0  0  0  0
 34 32  1  0  0  0  0
M  END
>  <MODEL>
3

>  <REMARK>
 VINA RESULT:      -7.1      2.960      8.820
  Name = 
  3 active torsions:
  status: ('A' for Active; 'I' for Inactive)
    1  A    between atoms: C_17  and  C_28
    2  A    between atoms: C_28  and  N_29
    3  A    between atoms: N_29  and  C_32
                            x       y       z     vdW  Elec       q    Type
                         _______ _______ _______ _____ _____    ______ ____

>  <TORSDO>
F 3

$$$$
=
 OpenBabel11122414283D

 34 40  0  0  1  0  0  0  0  0999 V2000
  160.9700  211.0780  150.9030 C   0  0  0  0  0  0  0  0  0  0  0  0
  161.9560  209.0790  149.6860 C   0  0  0  0  0  3  0  0  0  0  0  0
  156.7530  211.4130  155.8590 C   0  0  0  0  0  2  0  0  0  0  0  0
  159.9840  212.7450  152.3660 C   0  0  0  0  0  0  0  0  0  0  0  0
  159.7120  212.2140  154.8000 C   0  0  0  0  0  0  0  0  0  0  0  0
  158.9030  211.7160  157.1310 C   0  0  0  0  0  2  0  0  0  0  0  0
  157.3840  211.8270  157.1820 C   0  0  0  0  0  2  0  0  0  0  0  0
  157.0370  213.6220  154.6430 C   0  0  0  0  0  2  0  0  0  0  0  0
  161.4460  208.8950  151.8710 C   0  0  0  0  0  0  0  0  0  0  0  0
  160.9130  206.1750  153.0740 C   0  0  0  0  0  3  0  0  0  0  0  0
  160.1880  211.0210  154.5850 N   0  0  0  0  0  0  0  0  0  0  0  0
  157.8010  213.0580  153.4520 C   0  0  0  0  0  2  0  0  0  0  0  0
  161.0080  209.2610  153.1090 N   0  0  0  0  0  0  0  0  0  0  0  0
  162.2550  207.8160  150.0910 N   0  0  0  0  0  0  0  0  0  0  0  0
  159.3150  213.1270  153.6600 C   0  0  2  0  0  3  0  0  0  0  0  0
  156.0520  212.5940  155.1900 C   0  0  0  0  0  2  0  0  0  0  0  0
  162.1310  206.4530  152.2320 C   0  0  2  0  0  3  0  0  0  0  0  0
  160.4900  211.4510  152.1810 C   0  0  0  0  0  0  0  0  0  0  0  0
  159.4320  212.6350  156.1360 N   0  0  0  0  0  2  0  0  0  0  0  0
  160.5400  210.5440  153.2760 C   0  0  0  0  0  0  0  0  0  0  0  0
  160.4580  213.2830  150.0930 C   0  0  0  0  0  3  0  0  0  0  0  0
  160.4560  207.0380  153.9920 C   0  0  0  0  0  3  0  0  0  0  0  0
  159.9800  213.6210  151.3220 N   0  0  0  0  0  0  0  0  0  0  0  0
  161.1230  208.3590  154.2570 C   0  0  0  0  0  2  0  0  0  0  0  0
  161.9350  207.6960  151.4060 C   0  0  0  0  0  0  0  0  0  0  0  0
  160.9590  212.0010  149.8560 C   0  0  0  0  0  3  0  0  0  0  0  0
  161.4440  209.7830  150.7570 C   0  0  0  0  0  0  0  0  0  0  0  0
  162.4370  205.2460  151.3570 C   0  0  0  0  0  2  0  0  0  0  0  0
  161.6180  204.1150  151.7640 N   0  0  0  0  0  2  0  0  0  0  0  0
  161.5810  203.5690  148.6370 O   0  0  0  0  0  0  0  0  0  0  0  0
  160.4560  202.4890  150.4110 C   0  0  0  0  0  2  0  0  0  0  0  0
  160.5890  203.9450  150.7510 C   0  0  2  0  0  3  0  0  0  0  0  0
  160.8520  202.4150  148.9550 C   0  0  0  0  0  2  0  0  0  0  0  0
  161.0510  204.5740  149.4560 C   0  0  0  0  0  2  0  0  0  0  0  0
  1 18  1  0  0  0  0
  2 14  2  0  0  0  0
  2 27  1  0  0  0  0
  3  7  1  0  0  0  0
  4 15  1  0  0  0  0
  5 19  1  0  0  0  0
  6  7  1  0  0  0  0
  8 16  1  0  0  0  0
  9 13  1  0  0  0  0
 10 22  2  0  0  0  0
 11  5  2  0  0  0  0
 12  8  1  0  0  0  0
 13 20  1  0  0  0  0
 13 24  1  0  0  0  0
 14 25  1  0  0  0  0
 15 12  1  6  0  0  0
 15  5  1  0  0  0  0
 16  3  1  0  0  0  0
 17 28  1  6  0  0  0
 17 10  1  0  0  0  0
 18  4  1  0  0  0  0
 18 20  2  0  0  0  0
 19  6  1  0  0  0  0
 20 11  1  0  0  0  0
 21 23  1  0  0  0  0
 22 24  1  0  0  0  0
 23  4  2  0  0  0  0
 25  9  2  0  0  0  0
 25 17  1  0  0  0  0
 26 21  2  0  0  0  0
 26  1  1  0  0  0  0
 27  1  2  0  0  0  0
 27  9  1  0  0  0  0
 28 29  1  0  0  0  0
 30 33  1  0  0  0  0
 30 34  1  0  0  0  0
 31 32  1  0  0  0  0
 32 29  1  1  0  0  0
 33 31  1  0  0  0  0
 34 32  1  0  0  0  0
M  END
>  <MODEL>
4

>  <REMARK>
 VINA RESULT:      -7.0      3.442      9.578
  Name = 
  3 active torsions:
  status: ('A' for Active; 'I' for Inactive)
    1  A    between atoms: C_17  and  C_28
    2  A    between atoms: C_28  and  N_29
    3  A    between atoms: N_29  and  C_32
                            x       y       z     vdW  Elec       q    Type
                         _______ _______ _______ _____ _____    ______ ____

>  <TORSDO>
F 3

$$$$
=
 OpenBabel11122414283D

 34 40  0  0  1  0  0  0  0  0999 V2000
  161.6440  208.3140  149.4920 C   0  0  0  0  0  0  0  0  0  0  0  0
  161.3770  206.4580  147.7790 C   0  0  0  0  0  3  0  0  0  0  0  0
  159.1460  209.0080  155.4690 C   0  0  0  0  0  2  0  0  0  0  0  0
  161.8180  209.8140  151.3920 C   0  0  0  0  0  0  0  0  0  0  0  0
  161.8610  208.8450  153.7030 C   0  0  0  0  0  0  0  0  0  0  0  0
  161.4270  208.1370  156.0780 C   0  0  0  0  0  2  0  0  0  0  0  0
  160.1580  208.8070  156.5910 C   0  0  0  0  0  2  0  0  0  0  0  0
  160.1030  211.1640  154.5340 C   0  0  0  0  0  2  0  0  0  0  0  0
  161.3110  205.9500  149.9710 C   0  0  0  0  0  0  0  0  0  0  0  0
  159.9110  203.4390  150.8990 C   0  0  0  0  0  3  0  0  0  0  0  0
  161.7110  207.6540  153.1970 N   0  0  0  0  0  0  0  0  0  0  0  0
  160.2730  210.6630  153.1050 C   0  0  0  0  0  2  0  0  0  0  0  0
  161.3480  206.1380  151.3210 N   0  0  0  0  0  0  0  0  0  0  0  0
  161.1720  205.1190  147.9030 N   0  0  0  0  0  0  0  0  0  0  0  0
  161.6720  210.0910  152.8640 C   0  0  2  0  0  3  0  0  0  0  0  0
  158.9070  210.4940  155.2030 C   0  0  0  0  0  2  0  0  0  0  0  0
  160.9200  203.4250  149.7800 C   0  0  2  0  0  3  0  0  0  0  0  0
  161.6570  208.5140  150.8920 C   0  0  0  0  0  0  0  0  0  0  0  0
  162.0810  208.9960  155.1050 N   0  0  0  0  0  2  0  0  0  0  0  0
  161.5340  207.4180  151.7910 C   0  0  0  0  0  0  0  0  0  0  0  0
  161.9880  210.6730  149.1740 C   0  0  0  0  0  3  0  0  0  0  0  0
  160.0810  204.1540  152.0190 C   0  0  0  0  0  3  0  0  0  0  0  0
  161.9760  210.8530  150.5240 N   0  0  0  0  0  0  0  0  0  0  0  0
  161.2970  205.0080  152.2510 C   0  0  0  0  0  2  0  0  0  0  0  0
  161.1170  204.8110  149.2250 C   0  0  0  0  0  0  0  0  0  0  0  0
  161.8170  209.3980  148.6290 C   0  0  0  0  0  3  0  0  0  0  0  0
  161.4620  207.0170  149.0380 C   0  0  0  0  0  0  0  0  0  0  0  0
  160.4760  202.4500  148.6990 C   0  0  0  0  0  2  0  0  0  0  0  0
  161.3660  201.3010  148.6680 N   0  0  0  0  0  2  0  0  0  0  0  0
  160.4270  199.9170  145.9700 O   0  0  0  0  0  0  0  0  0  0  0  0
  161.1300  202.1280  146.4130 C   0  0  0  0  0  2  0  0  0  0  0  0
  161.8900  201.2000  147.3160 C   0  0  2  0  0  3  0  0  0  0  0  0
  160.4560  201.2070  145.4230 C   0  0  0  0  0  2  0  0  0  0  0  0
  161.5810  199.8280  146.7600 C   0  0  0  0  0  2  0  0  0  0  0  0
  1 18  1  0  0  0  0
  2 14  2  0  0  0  0
  2 27  1  0  0  0  0
  3  7  1  0  0  0  0
  4 15  1  0  0  0  0
  5 19  1  0  0  0  0
  6  7  1  0  0  0  0
  8 16  1  0  0  0  0
  9 13  1  0  0  0  0
 10 22  2  0  0  0  0
 11  5  2  0  0  0  0
 12  8  1  0  0  0  0
 13 20  1  0  0  0  0
 13 24  1  0  0  0  0
 14 25  1  0  0  0  0
 15 12  1  6  0  0  0
 15  5  1  0  0  0  0
 16  3  1  0  0  0  0
 17 28  1  6  0  0  0
 17 10  1  0  0  0  0
 18  4  1  0  0  0  0
 18 20  2  0  0  0  0
 19  6  1  0  0  0  0
 20 11  1  0  0  0  0
 21 23  1  0  0  0  0
 22 24  1  0  0  0  0
 23  4  2  0  0  0  0
 25 17  1  0  0  0  0
 25  9  2  0  0  0  0
 26 21  2  0  0  0  0
 26  1  1  0  0  0  0
 27  1  2  0  0  0  0
 27  9  1  0  0  0  0
 29 28  1  0  0  0  0
 30 34  1  0  0  0  0
 31 32  1  0  0  0  0
 32 29  1  1  0  0  0
 33 30  1  0  0  0  0
 33 31  1  0  0  0  0
 34 32  1  0  0  0  0
M  END
>  <MODEL>
5

>  <REMARK>
 VINA RESULT:      -6.8      3.029      9.066
  Name = 
  3 active torsions:
  status: ('A' for Active; 'I' for Inactive)
    1  A    between atoms: C_17  and  C_28
    2  A    between atoms: C_28  and  N_29
    3  A    between atoms: N_29  and  C_32
                            x       y       z     vdW  Elec       q    Type
                         _______ _______ _______ _____ _____    ______ ____

>  <TORSDO>
F 3

$$$$
=
 OpenBabel11122414283D

 34 40  0  0  1  0  0  0  0  0999 V2000
  160.7980  211.8780  150.6610 C   0  0  0  0  0  0  0  0  0  0  0  0
  162.0010  209.8560  149.7060 C   0  0  0  0  0  3  0  0  0  0  0  0
  156.1420  212.3340  155.1970 C   0  0  0  0  0  2  0  0  0  0  0  0
  159.5910  213.5890  151.8880 C   0  0  0  0  0  0  0  0  0  0  0  0
  159.1330  213.2370  154.3270 C   0  0  0  0  0  0  0  0  0  0  0  0
  158.1490  212.8750  156.6150 C   0  0  0  0  0  2  0  0  0  0  0  0
  156.6270  212.8920  156.5290 C   0  0  0  0  0  2  0  0  0  0  0  0
  156.4070  214.4520  153.8260 C   0  0  0  0  0  2  0  0  0  0  0  0
  161.3100  209.8140  151.8480 C   0  0  0  0  0  0  0  0  0  0  0  0
  160.8280  207.1700  153.2280 C   0  0  0  0  0  3  0  0  0  0  0  0
  159.6940  212.0640  154.2550 N   0  0  0  0  0  0  0  0  0  0  0  0
  157.3050  213.8460  152.7550 C   0  0  0  0  0  2  0  0  0  0  0  0
  160.7420  210.2490  153.0080 N   0  0  0  0  0  0  0  0  0  0  0  0
  162.3350  208.6510  150.2410 N   0  0  0  0  0  0  0  0  0  0  0  0
  158.7880  214.0280  153.0840 C   0  0  2  0  0  3  0  0  0  0  0  0
  155.4370  213.4100  154.3730 C   0  0  0  0  0  2  0  0  0  0  0  0
  162.0990  207.4580  152.4720 C   0  0  2  0  0  3  0  0  0  0  0  0
  160.1850  212.3200  151.8580 C   0  0  0  0  0  0  0  0  0  0  0  0
  158.7110  213.7440  155.5940 N   0  0  0  0  0  2  0  0  0  0  0  0
  160.1880  211.5080  153.0260 C   0  0  0  0  0  0  0  0  0  0  0  0
  160.2350  213.9740  149.6260 C   0  0  0  0  0  3  0  0  0  0  0  0
  160.2420  208.0720  154.0280 C   0  0  0  0  0  3  0  0  0  0  0  0
  159.6290  214.3760  150.7770 N   0  0  0  0  0  0  0  0  0  0  0  0
  160.8060  209.4500  154.2350 C   0  0  0  0  0  2  0  0  0  0  0  0
  161.9060  208.6160  151.5290 C   0  0  0  0  0  0  0  0  0  0  0  0
  160.8270  212.7110  149.5420 C   0  0  0  0  0  3  0  0  0  0  0  0
  161.3560  210.6090  150.6660 C   0  0  0  0  0  0  0  0  0  0  0  0
  162.5500  206.2070  151.7320 C   0  0  0  0  0  2  0  0  0  0  0  0
  161.4060  205.5490  151.1210 N   0  0  0  0  0  2  0  0  0  0  0  0
  160.4190  202.5420  151.3590 O   0  0  0  0  0  0  0  0  0  0  0  0
  161.0050  203.8350  149.4700 C   0  0  0  0  0  2  0  0  0  0  0  0
  161.8660  204.2630  150.6230 C   0  0  2  0  0  3  0  0  0  0  0  0
  160.3400  202.5690  149.9590 C   0  0  0  0  0  2  0  0  0  0  0  0
  161.6150  203.2020  151.6700 C   0  0  0  0  0  2  0  0  0  0  0  0
  1 27  2  0  0  0  0
  1 18  1  0  0  0  0
  2 14  2  0  0  0  0
  2 27  1  0  0  0  0
  3  7  1  0  0  0  0
  4 15  1  0  0  0  0
  5 19  1  0  0  0  0
  7  6  1  0  0  0  0
  8 16  1  0  0  0  0
  9 13  1  0  0  0  0
 10 22  2  0  0  0  0
 11  5  2  0  0  0  0
 12  8  1  0  0  0  0
 13 20  1  0  0  0  0
 13 24  1  0  0  0  0
 14 25  1  0  0  0  0
 15 12  1  6  0  0  0
 15  5  1  0  0  0  0
 16  3  1  0  0  0  0
 17 28  1  6  0  0  0
 17 10  1  0  0  0  0
 18  4  1  0  0  0  0
 18 20  2  0  0  0  0
 19  6  1  0  0  0  0
 20 11  1  0  0  0  0
 21 23  1  0  0  0  0
 22 24  1  0  0  0  0
 23  4  2  0  0  0  0
 25  9  2  0  0  0  0
 25 17  1  0  0  0  0
 26 21  2  0  0  0  0
 26  1  1  0  0  0  0
 27  9  1  0  0  0  0
 29 28  1  0  0  0  0
 30 34  1  0  0  0  0
 31 33  1  0  0  0  0
 31 32  1  0  0  0  0
 32 29  1  1  0  0  0
 32 34  1  0  0  0  0
 33 30  1  0  0  0  0
M  END
>  <MODEL>
6

>  <REMARK>
 VINA RESULT:      -6.1      3.959      9.799
  Name = 
  3 active torsions:
  status: ('A' for Active; 'I' for Inactive)
    1  A    between atoms: C_17  and  C_28
    2  A    between atoms: C_28  and  N_29
    3  A    between atoms: N_29  and  C_32
                            x       y       z     vdW  Elec       q    Type
                         _______ _______ _______ _____ _____    ______ ____

>  <TORSDO>
F 3

$$$$
=
 OpenBabel11122414283D

 34 40  0  0  1  0  0  0  0  0999 V2000
  160.9020  212.0940  150.1250 C   0  0  0  0  0  0  0  0  0  0  0  0
  161.9280  210.4240  148.5100 C   0  0  0  0  0  3  0  0  0  0  0  0
  156.8880  211.2360  155.1860 C   0  0  0  0  0  2  0  0  0  0  0  0
  159.9020  213.3910  151.9170 C   0  0  0  0  0  0  0  0  0  0  0  0
  159.7590  212.3850  154.2080 C   0  0  0  0  0  0  0  0  0  0  0  0
  159.0740  211.4030  156.4210 C   0  0  0  0  0  2  0  0  0  0  0  0
  157.5550  211.4200  156.5430 C   0  0  0  0  0  2  0  0  0  0  0  0
  157.0170  213.6500  154.4160 C   0  0  0  0  0  2  0  0  0  0  0  0
  161.5200  209.7930  150.6320 C   0  0  0  0  0  0  0  0  0  0  0  0
  161.1670  206.8680  151.2980 C   0  0  0  0  0  3  0  0  0  0  0  0
  160.2810  211.2840  153.7480 N   0  0  0  0  0  0  0  0  0  0  0  0
  157.7550  213.3690  153.1130 C   0  0  0  0  0  2  0  0  0  0  0  0
  161.1180  209.8900  151.9310 N   0  0  0  0  0  0  0  0  0  0  0  0
  162.3020  209.1240  148.6500 N   0  0  0  0  0  0  0  0  0  0  0  0
  159.2720  213.4780  153.2810 C   0  0  2  0  0  3  0  0  0  0  0  0
  156.1050  212.4840  154.7830 C   0  0  0  0  0  2  0  0  0  0  0  0
  162.3340  207.3690  150.4870 C   0  0  2  0  0  3  0  0  0  0  0  0
  160.4600  212.1860  151.4660 C   0  0  0  0  0  0  0  0  0  0  0  0
  159.5170  212.5240  155.6080 N   0  0  0  0  0  2  0  0  0  0  0  0
  160.5980  211.0890  152.3610 C   0  0  0  0  0  0  0  0  0  0  0  0
  160.2530  214.3830  149.7780 C   0  0  0  0  0  3  0  0  0  0  0  0
  160.7090  207.5110  152.3810 C   0  0  0  0  0  3  0  0  0  0  0  0
  159.8120  214.4500  151.0640 N   0  0  0  0  0  0  0  0  0  0  0  0
  161.3240  208.7900  152.8770 C   0  0  0  0  0  2  0  0  0  0  0  0
  162.0440  208.7360  149.9260 C   0  0  0  0  0  0  0  0  0  0  0  0
  160.8030  213.1990  149.2790 C   0  0  0  0  0  3  0  0  0  0  0  0
  161.4290  210.8790  149.7140 C   0  0  0  0  0  0  0  0  0  0  0  0
  162.6580  206.3720  149.3840 C   0  0  0  0  0  2  0  0  0  0  0  0
  161.4490  205.6820  148.9640 N   0  0  0  0  0  2  0  0  0  0  0  0
  160.8690  205.8270  145.8460 O   0  0  0  0  0  0  0  0  0  0  0  0
  162.8930  205.5510  147.0340 C   0  0  0  0  0  2  0  0  0  0  0  0
  161.7950  204.8760  147.8050 C   0  0  2  0  0  3  0  0  0  0  0  0
  162.2620  205.8640  145.6970 C   0  0  0  0  0  2  0  0  0  0  0  0
  160.6330  204.8650  146.8370 C   0  0  0  0  0  2  0  0  0  0  0  0
  1 18  1  0  0  0  0
  2 14  2  0  0  0  0
  2 27  1  0  0  0  0
  3  7  1  0  0  0  0
  4 15  1  0  0  0  0
  5 19  1  0  0  0  0
  6  7  1  0  0  0  0
  8 16  1  0  0  0  0
  9 13  1  0  0  0  0
 10 22  2  0  0  0  0
 11  5  2  0  0  0  0
 12  8  1  0  0  0  0
 13 20  1  0  0  0  0
 13 24  1  0  0  0  0
 14 25  1  0  0  0  0
 15 12  1  6  0  0  0
 15  5  1  0  0  0  0
 16  3  1  0  0  0  0
 17 28  1  6  0  0  0
 17 10  1  0  0  0  0
 18  4  1  0  0  0  0
 18 20  2  0  0  0  0
 19  6  1  0  0  0  0
 20 11  1  0  0  0  0
 21 23  1  0  0  0  0
 22 24  1  0  0  0  0
 23  4  2  0  0  0  0
 25 17  1  0  0  0  0
 25  9  2  0  0  0  0
 26 21  2  0  0  0  0
 26  1  1  0  0  0  0
 27  1  2  0  0  0  0
 27  9  1  0  0  0  0
 29 28  1  0  0  0  0
 30 34  1  0  0  0  0
 31 32  1  0  0  0  0
 32 29  1  1  0  0  0
 33 30  1  0  0  0  0
 33 31  1  0  0  0  0
 34 32  1  0  0  0  0
M  END
>  <MODEL>
7

>  <REMARK>
 VINA RESULT:      -5.4      3.857      9.863
  Name = 
  3 active torsions:
  status: ('A' for Active; 'I' for Inactive)
    1  A    between atoms: C_17  and  C_28
    2  A    between atoms: C_28  and  N_29
    3  A    between atoms: N_29  and  C_32
                            x       y       z     vdW  Elec       q    Type
                         _______ _______ _______ _____ _____    ______ ____

>  <TORSDO>
F 3

$$$$
=
 OpenBabel11122414283D

 34 40  0  0  1  0  0  0  0  0999 V2000
  161.7400  209.3080  150.9250 C   0  0  0  0  0  0  0  0  0  0  0  0
  162.4990  210.1340  148.6460 C   0  0  0  0  0  3  0  0  0  0  0  0
  160.5120  212.5350  156.4510 C   0  0  0  0  0  2  0  0  0  0  0  0
  160.8690  208.8760  153.1490 C   0  0  0  0  0  0  0  0  0  0  0  0
  159.3140  210.5450  154.1880 C   0  0  0  0  0  0  0  0  0  0  0  0
  158.1600  212.2850  155.5920 C   0  0  0  0  0  2  0  0  0  0  0  0
  159.0300  212.6380  156.7920 C   0  0  0  0  0  2  0  0  0  0  0  0
  160.7650  210.0340  156.7940 C   0  0  0  0  0  2  0  0  0  0  0  0
  161.2010  211.4600  149.9210 C   0  0  0  0  0  0  0  0  0  0  0  0
  161.2240  214.4520  149.5000 C   0  0  0  0  0  3  0  0  0  0  0  0
  159.4490  211.3100  153.1420 N   0  0  0  0  0  0  0  0  0  0  0  0
  161.3220  209.7320  155.4080 C   0  0  0  0  0  2  0  0  0  0  0  0
  160.4530  211.8590  150.9880 N   0  0  0  0  0  0  0  0  0  0  0  0
  162.2900  211.2990  147.9780 N   0  0  0  0  0  0  0  0  0  0  0  0
  160.2180  209.3530  154.4200 C   0  0  2  0  0  3  0  0  0  0  0  0
  161.1860  211.4250  157.2550 C   0  0  0  0  0  2  0  0  0  0  0  0
  161.0490  213.4840  148.3580 C   0  0  2  0  0  3  0  0  0  0  0  0
  160.9860  209.7320  152.0440 C   0  0  0  0  0  0  0  0  0  0  0  0
  158.3820  210.9000  155.2100 N   0  0  0  0  0  2  0  0  0  0  0  0
  160.3290  210.9940  152.0510 C   0  0  0  0  0  0  0  0  0  0  0  0
  162.1770  207.2220  152.0380 C   0  0  0  0  0  3  0  0  0  0  0  0
  160.6190  214.2900  150.6840 C   0  0  0  0  0  3  0  0  0  0  0  0
  161.4670  207.6520  153.1170 N   0  0  0  0  0  0  0  0  0  0  0  0
  159.7140  213.1240  150.9730 C   0  0  0  0  0  2  0  0  0  0  0  0
  161.5190  212.1090  148.7500 C   0  0  0  0  0  0  0  0  0  0  0  0
  162.3330  208.0450  150.9200 C   0  0  0  0  0  3  0  0  0  0  0  0
  161.8470  210.1920  149.8620 C   0  0  0  0  0  0  0  0  0  0  0  0
  161.7920  213.9970  147.1320 C   0  0  0  0  0  2  0  0  0  0  0  0
  160.9020  214.0190  145.9830 N   0  0  0  0  0  2  0  0  0  0  0  0
  161.3530  213.8300  142.8470 O   0  0  0  0  0  0  0  0  0  0  0  0
  162.7800  213.2950  144.6510 C   0  0  0  0  0  2  0  0  0  0  0  0
  161.3660  212.9970  145.0610 C   0  0  2  0  0  3  0  0  0  0  0  0
  162.6870  213.5400  143.1630 C   0  0  0  0  0  2  0  0  0  0  0  0
  160.5910  213.0980  143.7670 C   0  0  0  0  0  2  0  0  0  0  0  0
  1 18  1  0  0  0  0
  2 27  1  0  0  0  0
  3  7  1  0  0  0  0
  3 16  1  0  0  0  0
  4 15  1  0  0  0  0
  5 15  1  0  0  0  0
  5 19  1  0  0  0  0
  6  7  1  0  0  0  0
  8 16  1  0  0  0  0
  9 13  1  0  0  0  0
 10 22  2  0  0  0  0
 11  5  2  0  0  0  0
 12  8  1  0  0  0  0
 13 20  1  0  0  0  0
 14  2  2  0  0  0  0
 14 25  1  0  0  0  0
 15 12  1  1  0  0  0
 17 28  1  6  0  0  0
 17 25  1  0  0  0  0
 17 10  1  0  0  0  0
 18 20  2  0  0  0  0
 18  4  1  0  0  0  0
 19  6  1  0  0  0  0
 20 11  1  0  0  0  0
 21 23  1  0  0  0  0
 22 24  1  0  0  0  0
 23  4  2  0  0  0  0
 24 13  1  0  0  0  0
 25  9  2  0  0  0  0
 26  1  1  0  0  0  0
 26 21  2  0  0  0  0
 27  9  1  0  0  0  0
 27  1  2  0  0  0  0
 29 28  1  0  0  0  0
 30 33  1  0  0  0  0
 30 34  1  0  0  0  0
 31 32  1  0  0  0  0
 32 29  1  1  0  0  0
 33 31  1  0  0  0  0
 34 32  1  0  0  0  0
M  END
>  <MODEL>
8

>  <REMARK>
 VINA RESULT:      -5.2      5.285      9.821
  Name = 
  3 active torsions:
  status: ('A' for Active; 'I' for Inactive)
    1  A    between atoms: C_17  and  C_28
    2  A    between atoms: C_28  and  N_29
    3  A    between atoms: N_29  and  C_32
                            x       y       z     vdW  Elec       q    Type
                         _______ _______ _______ _____ _____    ______ ____

>  <TORSDO>
F 3

$$$$
