=
 OpenBabel11122412473D

 32 38  0  0  1  0  0  0  0  0999 V2000
  160.2640  203.6000  150.4500 C   0  0  2  0  0  3  0  0  0  0  0  0
  161.2720  208.2060  152.4250 C   0  0  0  0  0  0  0  0  0  0  0  0
  160.2010  207.2890  157.0920 C   0  0  0  0  0  3  0  0  0  0  0  0
  159.7930  208.6120  157.2600 C   0  0  0  0  0  3  0  0  0  0  0  0
  161.0660  210.5400  151.4330 C   0  0  0  0  0  0  0  0  0  0  0  0
  160.3300  211.8190  151.6760 C   0  0  0  0  0  0  0  0  0  0  0  0
  161.6050  206.2600  150.8370 C   0  0  1  0  0  3  0  0  0  0  0  0
  161.5690  205.8850  153.2940 C   0  0  0  0  0  3  0  0  0  0  0  0
  159.3270  213.4230  152.7300 C   0  0  0  0  0  0  0  0  0  0  0  0
  162.0620  203.8990  151.9580 C   0  0  0  0  0  2  0  0  0  0  0  0
  160.6720  206.8550  155.8510 C   0  0  0  0  0  3  0  0  0  0  0  0
  161.2000  207.3020  153.5050 C   0  0  0  0  0  0  0  0  0  0  0  0
  160.7440  207.7400  154.7630 C   0  0  0  0  0  0  0  0  0  0  0  0
  160.3880  209.9830  153.8600 C   0  0  0  0  0  0  0  0  0  0  0  0
  159.5000  213.8090  151.4490 N   0  0  0  0  0  0  0  0  0  0  0  0
  160.1240  204.7050  149.4180 C   0  0  0  0  0  2  0  0  0  0  0  0
  161.8030  205.3870  152.0790 C   0  0  0  0  0  0  0  0  0  0  0  0
  160.1240  212.8260  150.8020 N   0  0  0  0  0  0  0  0  0  0  0  0
  160.2350  206.0560  150.1540 C   0  0  0  0  0  2  0  0  0  0  0  0
  161.7760  203.4660  150.5330 C   0  0  1  0  0  3  0  0  0  0  0  0
  159.8560  209.5040  156.1870 C   0  0  0  0  0  3  0  0  0  0  0  0
  160.3310  209.0830  154.9350 C   0  0  1  0  0  3  0  0  0  0  0  0
  159.8870  211.3220  154.0300 N   0  0  0  0  0  0  0  0  0  0  0  0
  161.8650  207.7410  151.1180 C   0  0  0  0  0  2  0  0  0  0  0  0
  162.5400  210.8560  151.2350 C   0  0  0  0  0  1  0  0  0  0  0  0
  158.6840  214.2070  153.7280 N   0  0  0  0  0  1  0  0  0  0  0  0
  160.8960  209.5550  152.5950 C   0  0  0  0  0  0  0  0  0  0  0  0
  159.8510  212.1730  152.8930 C   0  0  0  0  0  0  0  0  0  0  0  0
  160.9360  202.2480  150.2270 C   0  0  2  0  0  3  0  0  0  0  0  0
  161.0050  201.8980  148.7740 C   0  0  0  0  0  0  0  0  0  0  0  0
  161.6380  202.7510  147.8780 O   0  0  0  0  0  0  0  0  0  0  0  0
  160.5220  200.8100  148.3640 O   0  0  0  0  0  1  0  0  0  0  0  0
  1 16  1  6  0  0  0
  1 20  1  0  0  0  0
  2 27  2  0  0  0  0
  2 12  1  0  0  0  0
  3  4  1  0  0  0  0
  5  6  2  0  0  0  0
  5 27  1  0  0  0  0
  6 28  1  0  0  0  0
  7 19  1  1  0  0  0
  7 24  1  0  0  0  0
  7 17  1  0  0  0  0
  8 12  1  0  0  0  0
  9 28  2  0  0  0  0
  9 26  1  0  0  0  0
 10 17  1  0  0  0  0
 11  3  2  0  0  0  0
 12 13  2  0  0  0  0
 13 22  1  0  0  0  0
 13 11  1  0  0  0  0
 14 23  2  0  0  0  0
 14 22  1  0  0  0  0
 15  9  1  0  0  0  0
 16 19  1  0  0  0  0
 17  8  2  0  0  0  0
 18 15  2  0  0  0  0
 18  6  1  0  0  0  0
 20 10  1  1  0  0  0
 21  4  2  0  0  0  0
 22 21  1  6  0  0  0
 24  2  1  0  0  0  0
 25  5  1  0  0  0  0
 27 14  1  0  0  0  0
 28 23  1  0  0  0  0
 29 30  1  6  0  0  0
 29  1  1  0  0  0  0
 29 20  1  0  0  0  0
 31 30  2  0  0  0  0
 32 30  1  0  0  0  0
M  END
>  <MODEL>
1

>  <REMARK>
 VINA RESULT:      -8.3      0.000      0.000
  Name = 
  1 active torsions:
  status: ('A' for Active; 'I' for Inactive)
    1  A    between atoms: C_29  and  C_30
                            x       y       z     vdW  Elec       q    Type
                         _______ _______ _______ _____ _____    ______ ____

>  <TORSDO>
F 1

$$$$
=
 OpenBabel11122412473D

 32 38  0  0  1  0  0  0  0  0999 V2000
  160.2130  203.2870  150.0780 C   0  0  2  0  0  3  0  0  0  0  0  0
  161.6320  208.0450  151.2950 C   0  0  0  0  0  0  0  0  0  0  0  0
  159.8950  208.2220  155.8470 C   0  0  0  0  0  3  0  0  0  0  0  0
  159.6640  209.5900  155.7080 C   0  0  0  0  0  3  0  0  0  0  0  0
  161.8820  210.1390  149.8710 C   0  0  0  0  0  0  0  0  0  0  0  0
  161.3150  211.5190  149.7660 C   0  0  0  0  0  0  0  0  0  0  0  0
  161.8670  205.7940  150.1570 C   0  0  1  0  0  3  0  0  0  0  0  0
  161.4870  205.9290  152.6100 C   0  0  0  0  0  3  0  0  0  0  0  0
  160.4350  213.4090  150.3500 C   0  0  0  0  0  0  0  0  0  0  0  0
  161.8440  203.6700  151.7470 C   0  0  0  0  0  2  0  0  0  0  0  0
  160.4420  207.4930  154.7880 C   0  0  0  0  0  3  0  0  0  0  0  0
  161.3030  207.3930  152.5010 C   0  0  0  0  0  0  0  0  0  0  0  0
  160.7690  208.1260  153.5770 C   0  0  0  0  0  0  0  0  0  0  0  0
  160.8490  210.1670  152.2350 C   0  0  0  0  0  0  0  0  0  0  0  0
  160.8120  213.5060  149.0590 N   0  0  0  0  0  0  0  0  0  0  0  0
  160.3570  204.1700  148.8510 C   0  0  0  0  0  2  0  0  0  0  0  0
  161.7890  205.1720  151.5540 C   0  0  0  0  0  0  0  0  0  0  0  0
  161.3610  212.3460  148.7010 N   0  0  0  0  0  0  0  0  0  0  0  0
  160.5730  205.6190  149.3330 C   0  0  0  0  0  2  0  0  0  0  0  0
  161.6700  202.9960  150.4010 C   0  0  1  0  0  3  0  0  0  0  0  0
  159.9820  210.2330  154.5090 C   0  0  0  0  0  3  0  0  0  0  0  0
  160.5360  209.5150  153.4380 C   0  0  1  0  0  3  0  0  0  0  0  0
  160.5290  211.5630  152.0810 N   0  0  0  0  0  0  0  0  0  0  0  0
  162.3020  207.2600  150.1950 C   0  0  0  0  0  2  0  0  0  0  0  0
  163.4000  210.2320  149.8330 C   0  0  0  0  0  1  0  0  0  0  0  0
  159.7970  214.4480  151.0830 N   0  0  0  0  0  1  0  0  0  0  0  0
  161.4360  209.4360  151.1580 C   0  0  0  0  0  0  0  0  0  0  0  0
  160.7510  212.1650  150.8140 C   0  0  0  0  0  0  0  0  0  0  0  0
  160.7050  201.8490  150.2060 C   0  0  2  0  0  3  0  0  0  0  0  0
  160.8950  201.2080  148.8680 C   0  0  0  0  0  0  0  0  0  0  0  0
  162.1690  201.0780  148.3280 O   0  0  0  0  0  1  0  0  0  0  0  0
  159.9030  200.7480  148.2430 O   0  0  0  0  0  0  0  0  0  0  0  0
  1 16  1  6  0  0  0
  1 29  1  0  0  0  0
  1 20  1  0  0  0  0
  2 12  1  0  0  0  0
  4  3  1  0  0  0  0
  5 27  1  0  0  0  0
  6  5  2  0  0  0  0
  6 28  1  0  0  0  0
  7 19  1  1  0  0  0
  7 24  1  0  0  0  0
  7 17  1  0  0  0  0
  9 28  2  0  0  0  0
  9 26  1  0  0  0  0
 11  3  2  0  0  0  0
 12  8  1  0  0  0  0
 12 13  2  0  0  0  0
 13 11  1  0  0  0  0
 14 22  1  0  0  0  0
 15  9  1  0  0  0  0
 16 19  1  0  0  0  0
 17 10  1  0  0  0  0
 17  8  2  0  0  0  0
 18 15  2  0  0  0  0
 18  6  1  0  0  0  0
 20 10  1  1  0  0  0
 21  4  2  0  0  0  0
 22 13  1  0  0  0  0
 22 21  1  6  0  0  0
 23 14  2  0  0  0  0
 24  2  1  0  0  0  0
 25  5  1  0  0  0  0
 27  2  2  0  0  0  0
 27 14  1  0  0  0  0
 28 23  1  0  0  0  0
 29 30  1  6  0  0  0
 29 20  1  0  0  0  0
 31 30  1  0  0  0  0
 32 30  2  0  0  0  0
M  END
>  <MODEL>
2

>  <REMARK>
 VINA RESULT:      -5.7      1.269      1.595
  Name = 
  1 active torsions:
  status: ('A' for Active; 'I' for Inactive)
    1  A    between atoms: C_29  and  C_30
                            x       y       z     vdW  Elec       q    Type
                         _______ _______ _______ _____ _____    ______ ____

>  <TORSDO>
F 1

$$$$
