=
 OpenBabel11122414143D

 28 32  0  0  1  0  0  0  0  0999 V2000
  160.8690  209.0830  153.3990 C   0  0  0  0  0  0  0  0  0  0  0  0
  158.3180  210.8910  152.5290 F   0  0  0  0  0  0  0  0  0  0  0  0
  163.3240  212.1640  148.5350 C   0  0  0  0  0  1  0  0  0  0  0  0
  162.0220  209.9650  155.8030 C   0  0  0  0  0  3  0  0  0  0  0  0
  160.9680  212.5650  149.2330 C   0  0  2  0  0  3  0  0  0  0  0  0
  160.2610  208.5140  152.1490 C   0  0  0  0  0  2  0  0  0  0  0  0
  158.6480  211.8290  154.6690 C   0  0  0  0  0  1  0  0  0  0  0  0
  158.6340  212.0760  153.1730 C   0  0  1  0  0  0  0  0  0  0  0  0
  157.4810  213.4250  151.4100 C   0  0  1  0  0  3  0  0  0  0  0  0
  160.0220  212.6180  152.7180 C   0  0  2  0  0  3  0  0  0  0  0  0
  161.2750  208.3100  149.0270 O   0  0  0  0  0  0  0  0  0  0  0  0
  160.8960  211.0980  151.0590 C   0  0  1  0  0  3  0  0  0  0  0  0
  158.7790  214.1080  151.0150 C   0  0  0  0  0  2  0  0  0  0  0  0
  157.5290  213.0900  152.8920 C   0  0  0  0  0  2  0  0  0  0  0  0
  161.7560  208.5250  150.1700 C   0  0  0  0  0  0  0  0  0  0  0  0
  161.2330  210.4520  153.5510 C   0  0  0  0  0  0  0  0  0  0  0  0
  162.0430  211.5150  149.0180 C   0  0  2  0  0  3  0  0  0  0  0  0
  156.4120  214.2840  151.1630 O   0  0  0  0  0  1  0  0  0  0  0  0
  162.6560  209.5740  150.3690 O   0  0  0  0  0  0  0  0  0  0  0  0
  161.8150  210.8650  154.7570 C   0  0  0  0  0  3  0  0  0  0  0  0
  161.0820  208.1930  154.4590 C   0  0  0  0  0  3  0  0  0  0  0  0
  161.6540  208.6300  155.6550 C   0  0  0  0  0  3  0  0  0  0  0  0
  161.2870  207.7240  151.3400 C   0  0  0  0  0  2  0  0  0  0  0  0
  160.1320  212.1280  150.3510 N   0  0  1  0  0  0  0  0  0  0  0  0
  162.2450  210.9420  150.3920 C   0  0  2  0  0  3  0  0  0  0  0  0
  159.9950  213.2260  151.3090 C   0  0  2  0  0  3  0  0  0  0  0  0
  160.1230  212.7010  147.9810 C   0  0  0  0  0  1  0  0  0  0  0  0
  161.0650  211.5300  152.4990 C   0  0  2  0  0  3  0  0  0  0  0  0
  1 16  2  0  0  0  0
  1 21  1  0  0  0  0
  2  8  1  0  0  0  0
  3 17  1  0  0  0  0
  5 27  1  6  0  0  0
  5 24  1  0  0  0  0
  6  1  1  0  0  0  0
  8  7  1  1  0  0  0
  9 18  1  1  0  0  0
  9 14  1  0  0  0  0
 10  8  1  0  0  0  0
 11 15  2  0  0  0  0
 12 28  1  0  0  0  0
 13 26  1  0  0  0  0
 13  9  1  0  0  0  0
 14  8  1  0  0  0  0
 15 19  1  0  0  0  0
 15 23  1  0  0  0  0
 16 20  1  0  0  0  0
 17  5  1  0  0  0  0
 17 25  1  0  0  0  0
 19 25  1  0  0  0  0
 20  4  2  0  0  0  0
 21 22  2  0  0  0  0
 22  4  1  0  0  0  0
 23  6  1  0  0  0  0
 24 12  1  0  0  0  0
 24 26  1  0  0  0  0
 25 12  1  0  0  0  0
 26 10  1  0  0  0  0
 28 10  1  0  0  0  0
 28 16  1  0  0  0  0
M  END
>  <MODEL>
1

>  <REMARK>
 VINA RESULT:      -3.7      0.000      0.000
  Name = 
  0 active torsions:
  status: ('A' for Active; 'I' for Inactive)
                            x       y       z     vdW  Elec       q    Type
                         _______ _______ _______ _____ _____    ______ ____

>  <TORSDO>
F 0

$$$$
=
 OpenBabel11122414143D

 28 32  0  0  1  0  0  0  0  0999 V2000
  161.0580  209.4000  155.2230 C   0  0  0  0  0  0  0  0  0  0  0  0
  158.0330  210.5700  155.1420 F   0  0  0  0  0  0  0  0  0  0  0  0
  161.3590  212.8350  150.0010 C   0  0  0  0  0  1  0  0  0  0  0  0
  162.5940  210.5740  157.2610 C   0  0  0  0  0  3  0  0  0  0  0  0
  159.2520  212.7160  151.3210 C   0  0  2  0  0  3  0  0  0  0  0  0
  160.2760  208.6790  154.1630 C   0  0  0  0  0  2  0  0  0  0  0  0
  158.7130  211.6090  157.1490 C   0  0  0  0  0  1  0  0  0  0  0  0
  158.2400  211.8110  155.7220 C   0  0  1  0  0  0  0  0  0  0  0  0
  156.3830  212.8260  154.3880 C   0  0  1  0  0  3  0  0  0  0  0  0
  159.2970  212.6380  154.9320 C   0  0  2  0  0  3  0  0  0  0  0  0
  160.4260  208.6340  150.8770 O   0  0  0  0  0  0  0  0  0  0  0  0
  160.0040  211.3140  153.0420 C   0  0  1  0  0  3  0  0  0  0  0  0
  157.3410  213.7720  153.6840 C   0  0  0  0  0  2  0  0  0  0  0  0
  156.9040  212.5450  155.7880 C   0  0  0  0  0  2  0  0  0  0  0  0
  161.1380  208.9780  151.8570 C   0  0  0  0  0  0  0  0  0  0  0  0
  161.1370  210.8190  155.3250 C   0  0  0  0  0  0  0  0  0  0  0  0
  160.4330  211.9270  150.7850 C   0  0  2  0  0  3  0  0  0  0  0  0
  155.1250  213.4180  154.4700 O   0  0  0  0  0  1  0  0  0  0  0  0
  161.8030  210.2060  151.8460 O   0  0  0  0  0  0  0  0  0  0  0  0
  161.9170  211.3790  156.3450 C   0  0  0  0  0  3  0  0  0  0  0  0
  161.7420  208.6060  156.1530 C   0  0  0  0  0  3  0  0  0  0  0  0
  162.5040  209.1870  157.1660 C   0  0  0  0  0  3  0  0  0  0  0  0
  161.1930  208.1210  153.0770 C   0  0  0  0  0  2  0  0  0  0  0  0
  158.8680  212.1300  152.6050 N   0  0  1  0  0  0  0  0  0  0  0  0
  161.1210  211.4470  152.0310 C   0  0  2  0  0  3  0  0  0  0  0  0
  158.7550  213.1910  153.6060 C   0  0  2  0  0  3  0  0  0  0  0  0
  158.0910  212.6300  150.3490 C   0  0  0  0  0  1  0  0  0  0  0  0
  160.4560  211.8070  154.3980 C   0  0  2  0  0  3  0  0  0  0  0  0
  1 16  2  0  0  0  0
  1 21  1  0  0  0  0
  2  8  1  0  0  0  0
  3 17  1  0  0  0  0
  5 27  1  6  0  0  0
  5 24  1  0  0  0  0
  6  1  1  0  0  0  0
  8 14  1  0  0  0  0
  8  7  1  1  0  0  0
  9 18  1  1  0  0  0
  9 14  1  0  0  0  0
 10  8  1  0  0  0  0
 11 15  2  0  0  0  0
 12 28  1  0  0  0  0
 13  9  1  0  0  0  0
 15 23  1  0  0  0  0
 16 20  1  0  0  0  0
 17  5  1  0  0  0  0
 17 25  1  0  0  0  0
 19 15  1  0  0  0  0
 19 25  1  0  0  0  0
 20  4  2  0  0  0  0
 21 22  2  0  0  0  0
 22  4  1  0  0  0  0
 23  6  1  0  0  0  0
 24 12  1  0  0  0  0
 24 26  1  0  0  0  0
 25 12  1  0  0  0  0
 26 13  1  0  0  0  0
 26 10  1  0  0  0  0
 28 10  1  0  0  0  0
 28 16  1  0  0  0  0
M  END
>  <MODEL>
2

>  <REMARK>
 VINA RESULT:      -2.7      1.694      2.397
  Name = 
  0 active torsions:
  status: ('A' for Active; 'I' for Inactive)
                            x       y       z     vdW  Elec       q    Type
                         _______ _______ _______ _____ _____    ______ ____

>  <TORSDO>
F 0

$$$$
=
 OpenBabel11122414143D

 28 32  0  0  1  0  0  0  0  0999 V2000
  158.4430  213.1640  151.0500 C   0  0  0  0  0  0  0  0  0  0  0  0
  159.2180  210.2100  152.1470 F   0  0  0  0  0  0  0  0  0  0  0  0
  158.8570  214.3530  157.1810 C   0  0  0  0  0  1  0  0  0  0  0  0
  160.5680  214.3740  149.6690 C   0  0  0  0  0  3  0  0  0  0  0  0
  159.2680  212.0600  156.3020 C   0  0  2  0  0  3  0  0  0  0  0  0
  157.2420  212.5510  151.7110 C   0  0  0  0  0  2  0  0  0  0  0  0
  161.1550  210.5780  150.8510 C   0  0  0  0  0  1  0  0  0  0  0  0
  160.5940  210.3430  152.2400 C   0  0  1  0  0  0  0  0  0  0  0  0
  160.6910  208.7400  154.1580 C   0  0  1  0  0  3  0  0  0  0  0  0
  160.9890  211.5260  153.1720 C   0  0  2  0  0  3  0  0  0  0  0  0
  155.5880  213.2230  154.4740 O   0  0  0  0  0  0  0  0  0  0  0  0
  158.9530  212.5040  154.0220 C   0  0  1  0  0  3  0  0  0  0  0  0
  161.2260  209.8140  155.0900 C   0  0  0  0  0  2  0  0  0  0  0  0
  161.1740  209.0260  152.7450 C   0  0  0  0  0  2  0  0  0  0  0  0
  156.4170  213.7750  153.7040 C   0  0  0  0  0  0  0  0  0  0  0  0
  159.7280  213.2490  151.6590 C   0  0  0  0  0  0  0  0  0  0  0  0
  158.3970  213.2980  156.1930 C   0  0  2  0  0  3  0  0  0  0  0  0
  161.1620  207.4950  154.5670 O   0  0  0  0  0  1  0  0  0  0  0  0
  157.5200  214.4530  154.2280 O   0  0  0  0  0  0  0  0  0  0  0  0
  160.7690  213.8650  150.9530 C   0  0  0  0  0  3  0  0  0  0  0  0
  158.2590  213.6780  149.7600 C   0  0  0  0  0  3  0  0  0  0  0  0
  159.3140  214.2780  149.0720 C   0  0  0  0  0  3  0  0  0  0  0  0
  156.2820  213.6210  152.2250 C   0  0  0  0  0  2  0  0  0  0  0  0
  159.3700  211.4660  154.9690 N   0  0  1  0  0  0  0  0  0  0  0  0
  158.6420  213.7710  154.7890 C   0  0  2  0  0  3  0  0  0  0  0  0
  160.7770  211.2120  154.6600 C   0  0  2  0  0  3  0  0  0  0  0  0
  158.6360  211.0680  157.2600 C   0  0  0  0  0  1  0  0  0  0  0  0
  160.0810  212.7410  153.0430 C   0  0  2  0  0  3  0  0  0  0  0  0
  1 16  1  0  0  0  0
  1  6  1  0  0  0  0
  2  8  1  0  0  0  0
  4 20  1  0  0  0  0
  5 27  1  1  0  0  0
  6 23  1  0  0  0  0
  8  7  1  6  0  0  0
  8 14  1  0  0  0  0
  8 10  1  0  0  0  0
  9 18  1  1  0  0  0
  9 13  1  0  0  0  0
 10 26  1  0  0  0  0
 12 25  1  0  0  0  0
 12 24  1  0  0  0  0
 14  9  1  0  0  0  0
 15 19  1  0  0  0  0
 15 11  2  0  0  0  0
 16 28  1  0  0  0  0
 17  5  1  0  0  0  0
 17  3  1  0  0  0  0
 19 25  1  0  0  0  0
 20 16  2  0  0  0  0
 21  1  2  0  0  0  0
 22  4  2  0  0  0  0
 22 21  1  0  0  0  0
 23 15  1  0  0  0  0
 24  5  1  0  0  0  0
 25 17  1  0  0  0  0
 26 24  1  0  0  0  0
 26 13  1  0  0  0  0
 28 10  1  0  0  0  0
 28 12  1  0  0  0  0
M  END
>  <MODEL>
3

>  <REMARK>
 VINA RESULT:      -2.0      2.242      6.559
  Name = 
  0 active torsions:
  status: ('A' for Active; 'I' for Inactive)
                            x       y       z     vdW  Elec       q    Type
                         _______ _______ _______ _____ _____    ______ ____

>  <TORSDO>
F 0

$$$$
=
 OpenBabel11122414143D

 28 32  0  0  1  0  0  0  0  0999 V2000
  160.3350  211.0990  151.4840 C   0  0  0  0  0  0  0  0  0  0  0  0
  159.7070  207.9160  151.5270 F   0  0  0  0  0  0  0  0  0  0  0  0
  162.5970  209.6190  157.1280 C   0  0  0  0  0  1  0  0  0  0  0  0
  162.4270  211.7420  149.7250 C   0  0  0  0  0  3  0  0  0  0  0  0
  161.5810  207.8750  155.6710 C   0  0  2  0  0  3  0  0  0  0  0  0
  159.1630  210.8380  152.3860 C   0  0  0  0  0  2  0  0  0  0  0  0
  161.2310  207.9060  149.7250 C   0  0  0  0  0  1  0  0  0  0  0  0
  160.9400  207.4230  151.1330 C   0  0  1  0  0  0  0  0  0  0  0  0
  160.6130  205.3340  152.4690 C   0  0  1  0  0  3  0  0  0  0  0  0
  162.0730  207.8930  152.0930 C   0  0  2  0  0  3  0  0  0  0  0  0
  158.7190  211.0450  155.6390 O   0  0  0  0  0  0  0  0  0  0  0  0
  161.0580  209.2270  153.8300 C   0  0  1  0  0  3  0  0  0  0  0  0
  161.8060  205.6550  153.3530 C   0  0  0  0  0  2  0  0  0  0  0  0
  160.8590  205.9010  151.0810 C   0  0  0  0  0  2  0  0  0  0  0  0
  159.5280  211.4490  154.7620 C   0  0  0  0  0  0  0  0  0  0  0  0
  161.5790  210.4110  151.5790 C   0  0  0  0  0  0  0  0  0  0  0  0
  161.4650  209.3030  156.1710 C   0  0  2  0  0  3  0  0  0  0  0  0
  160.4560  203.9520  152.3860 O   0  0  0  0  0  1  0  0  0  0  0  0
  160.9040  211.3600  154.9800 O   0  0  0  0  0  0  0  0  0  0  0  0
  162.6090  210.7570  150.6950 C   0  0  0  0  0  3  0  0  0  0  0  0
  160.1680  212.0850  150.5020 C   0  0  0  0  0  3  0  0  0  0  0  0
  161.2060  212.4040  149.6270 C   0  0  0  0  0  3  0  0  0  0  0  0
  159.0190  211.9300  153.4430 C   0  0  0  0  0  2  0  0  0  0  0  0
  161.0780  207.8390  154.2980 N   0  0  1  0  0  0  0  0  0  0  0  0
  161.6100  210.1200  154.9190 C   0  0  2  0  0  3  0  0  0  0  0  0
  162.0540  207.1630  153.4430 C   0  0  2  0  0  3  0  0  0  0  0  0
  160.7530  206.9530  156.5470 C   0  0  0  0  0  1  0  0  0  0  0  0
  161.9090  209.3250  152.5830 C   0  0  2  0  0  3  0  0  0  0  0  0
  1 16  1  0  0  0  0
  1  6  1  0  0  0  0
  4 20  1  0  0  0  0
  5 17  1  0  0  0  0
  5 27  1  1  0  0  0
  6 23  1  0  0  0  0
  8  7  1  6  0  0  0
  8  2  1  0  0  0  0
  8 10  1  0  0  0  0
  9 18  1  6  0  0  0
  9 13  1  0  0  0  0
 10 28  1  0  0  0  0
 10 26  1  0  0  0  0
 12 24  1  0  0  0  0
 12 25  1  0  0  0  0
 13 26  1  0  0  0  0
 14  8  1  0  0  0  0
 14  9  1  0  0  0  0
 15 19  1  0  0  0  0
 15 11  2  0  0  0  0
 16 28  1  0  0  0  0
 17  3  1  0  0  0  0
 20 16  2  0  0  0  0
 21  1  2  0  0  0  0
 22  4  2  0  0  0  0
 22 21  1  0  0  0  0
 23 15  1  0  0  0  0
 24  5  1  0  0  0  0
 25 19  1  0  0  0  0
 25 17  1  0  0  0  0
 26 24  1  0  0  0  0
 28 12  1  0  0  0  0
M  END
>  <MODEL>
4

>  <REMARK>
 VINA RESULT:      -2.0      2.567      6.551
  Name = 
  0 active torsions:
  status: ('A' for Active; 'I' for Inactive)
                            x       y       z     vdW  Elec       q    Type
                         _______ _______ _______ _____ _____    ______ ____

>  <TORSDO>
F 0

$$$$
=
 OpenBabel11122414143D

 28 32  0  0  1  0  0  0  0  0999 V2000
  160.9460  211.5210  151.0260 C   0  0  0  0  0  0  0  0  0  0  0  0
  162.3220  210.6110  153.8190 F   0  0  0  0  0  0  0  0  0  0  0  0
  160.0820  205.3310  150.6990 C   0  0  0  0  0  1  0  0  0  0  0  0
  158.4970  212.8350  151.4290 C   0  0  0  0  0  3  0  0  0  0  0  0
  161.2320  206.3510  152.6580 C   0  0  2  0  0  3  0  0  0  0  0  0
  162.2800  210.8940  150.7390 C   0  0  0  0  0  2  0  0  0  0  0  0
  160.5670  211.8910  154.7410 C   0  0  0  0  0  1  0  0  0  0  0  0
  161.1970  210.5160  154.6210 C   0  0  1  0  0  0  0  0  0  0  0  0
  162.2370  208.7000  155.9910 C   0  0  1  0  0  3  0  0  0  0  0  0
  160.1600  209.5150  154.0300 C   0  0  2  0  0  3  0  0  0  0  0  0
  163.1970  208.0880  149.2870 O   0  0  0  0  0  0  0  0  0  0  0  0
  161.0980  208.5970  152.0040 C   0  0  1  0  0  3  0  0  0  0  0  0
  161.1660  207.7060  155.5750 C   0  0  0  0  0  2  0  0  0  0  0  0
  161.6330  210.0950  156.0210 C   0  0  0  0  0  2  0  0  0  0  0  0
  162.1800  208.8260  149.3730 C   0  0  0  0  0  0  0  0  0  0  0  0
  159.9390  210.9140  151.8300 C   0  0  0  0  0  0  0  0  0  0  0  0
  161.0810  206.3790  151.1480 C   0  0  2  0  0  3  0  0  0  0  0  0
  162.7060  208.3700  157.2610 O   0  0  0  0  0  1  0  0  0  0  0  0
  160.9220  208.2660  149.6050 O   0  0  0  0  0  0  0  0  0  0  0  0
  158.7230  211.5860  152.0080 C   0  0  0  0  0  3  0  0  0  0  0  0
  160.7040  212.7770  150.4540 C   0  0  0  0  0  3  0  0  0  0  0  0
  159.4880  213.4320  150.6540 C   0  0  0  0  0  3  0  0  0  0  0  0
  162.3300  210.3100  149.3290 C   0  0  0  0  0  2  0  0  0  0  0  0
  161.4930  207.7180  153.1080 N   0  0  1  0  0  0  0  0  0  0  0  0
  160.5360  207.7530  150.8810 C   0  0  2  0  0  3  0  0  0  0  0  0
  160.5800  208.0480  154.2030 C   0  0  2  0  0  3  0  0  0  0  0  0
  162.3920  205.4520  153.0430 C   0  0  0  0  0  1  0  0  0  0  0  0
  160.0530  209.5650  152.5120 C   0  0  2  0  0  3  0  0  0  0  0  0
  1 16  1  0  0  0  0
  2  8  1  0  0  0  0
  3 17  1  0  0  0  0
  4 20  1  0  0  0  0
  5 27  1  6  0  0  0
  5 24  1  0  0  0  0
  6  1  1  0  0  0  0
  8  7  1  1  0  0  0
  8 14  1  0  0  0  0
  9 14  1  0  0  0  0
  9 18  1  1  0  0  0
 10 26  1  0  0  0  0
 10  8  1  0  0  0  0
 11 15  2  0  0  0  0
 12 28  1  0  0  0  0
 12 24  1  0  0  0  0
 13  9  1  0  0  0  0
 15 19  1  0  0  0  0
 16 20  2  0  0  0  0
 16 28  1  0  0  0  0
 17  5  1  0  0  0  0
 19 25  1  0  0  0  0
 21 22  1  0  0  0  0
 21  1  2  0  0  0  0
 22  4  2  0  0  0  0
 23 15  1  0  0  0  0
 23  6  1  0  0  0  0
 24 26  1  0  0  0  0
 25 17  1  0  0  0  0
 25 12  1  0  0  0  0
 26 13  1  0  0  0  0
 28 10  1  0  0  0  0
M  END
>  <MODEL>
5

>  <REMARK>
 VINA RESULT:      -1.6      2.299      5.475
  Name = 
  0 active torsions:
  status: ('A' for Active; 'I' for Inactive)
                            x       y       z     vdW  Elec       q    Type
                         _______ _______ _______ _____ _____    ______ ____

>  <TORSDO>
F 0

$$$$
=
 OpenBabel11122414143D

 28 32  0  0  1  0  0  0  0  0999 V2000
  160.8260  211.5890  150.1350 C   0  0  0  0  0  0  0  0  0  0  0  0
  160.1040  208.4270  150.0350 F   0  0  0  0  0  0  0  0  0  0  0  0
  162.3200  209.9440  155.9860 C   0  0  0  0  0  1  0  0  0  0  0  0
  163.1410  212.1940  148.6640 C   0  0  0  0  0  3  0  0  0  0  0  0
  161.4430  208.2580  154.3780 C   0  0  2  0  0  3  0  0  0  0  0  0
  159.5440  211.3500  150.8790 C   0  0  0  0  0  2  0  0  0  0  0  0
  161.8400  208.3990  148.4370 C   0  0  0  0  0  1  0  0  0  0  0  0
  161.3610  207.9020  149.7880 C   0  0  1  0  0  0  0  0  0  0  0  0
  160.8080  205.8020  151.0300 C   0  0  1  0  0  3  0  0  0  0  0  0
  162.3790  208.3190  150.8910 C   0  0  2  0  0  3  0  0  0  0  0  0
  158.7030  211.5180  154.0540 O   0  0  0  0  0  0  0  0  0  0  0  0
  161.1950  209.6560  152.5140 C   0  0  1  0  0  3  0  0  0  0  0  0
  161.8900  206.0710  152.0620 C   0  0  0  0  0  2  0  0  0  0  0  0
  161.2430  206.3840  149.6950 C   0  0  0  0  0  2  0  0  0  0  0  0
  159.6260  211.9100  153.2940 C   0  0  0  0  0  0  0  0  0  0  0  0
  162.0270  210.8600  150.3700 C   0  0  0  0  0  0  0  0  0  0  0  0
  161.3080  209.6810  154.8890 C   0  0  2  0  0  3  0  0  0  0  0  0
  160.6220  204.4280  150.9000 O   0  0  0  0  0  1  0  0  0  0  0  0
  160.9610  211.7740  153.6790 O   0  0  0  0  0  0  0  0  0  0  0  0
  163.1700  211.1870  149.6290 C   0  0  0  0  0  3  0  0  0  0  0  0
  160.8130  212.5950  149.1610 C   0  0  0  0  0  3  0  0  0  0  0  0
  161.9610  212.8960  148.4280 C   0  0  0  0  0  3  0  0  0  0  0  0
  159.3010  212.4290  151.9320 C   0  0  0  0  0  2  0  0  0  0  0  0
  161.1140  208.2610  152.9530 N   0  0  1  0  0  0  0  0  0  0  0  0
  161.6320  210.5130  153.6820 C   0  0  2  0  0  3  0  0  0  0  0  0
  162.1690  207.5680  152.2130 C   0  0  2  0  0  3  0  0  0  0  0  0
  160.4850  207.3490  155.1250 C   0  0  0  0  0  1  0  0  0  0  0  0
  162.1970  209.7470  151.3860 C   0  0  2  0  0  3  0  0  0  0  0  0
  1 16  1  0  0  0  0
  1  6  1  0  0  0  0
  4 20  1  0  0  0  0
  5 17  1  0  0  0  0
  5 27  1  1  0  0  0
  6 23  1  0  0  0  0
  8  7  1  6  0  0  0
  8  2  1  0  0  0  0
  8 10  1  0  0  0  0
  9 18  1  6  0  0  0
  9 13  1  0  0  0  0
 10 28  1  0  0  0  0
 10 26  1  0  0  0  0
 12 24  1  0  0  0  0
 12 25  1  0  0  0  0
 13 26  1  0  0  0  0
 14  8  1  0  0  0  0
 14  9  1  0  0  0  0
 15 19  1  0  0  0  0
 15 11  2  0  0  0  0
 16 28  1  0  0  0  0
 17  3  1  0  0  0  0
 19 25  1  0  0  0  0
 20 16  2  0  0  0  0
 21  1  2  0  0  0  0
 22  4  2  0  0  0  0
 22 21  1  0  0  0  0
 23 15  1  0  0  0  0
 24  5  1  0  0  0  0
 25 17  1  0  0  0  0
 26 24  1  0  0  0  0
 28 12  1  0  0  0  0
M  END
>  <MODEL>
6

>  <REMARK>
 VINA RESULT:      -0.7      2.183      6.352
  Name = 
  0 active torsions:
  status: ('A' for Active; 'I' for Inactive)
                            x       y       z     vdW  Elec       q    Type
                         _______ _______ _______ _____ _____    ______ ____

>  <TORSDO>
F 0

$$$$
