=
 OpenBabel11122413543D

 37 44  0  0  1  0  0  0  0  0999 V2000
  160.7480  207.6030  154.7360 C   0  0  2  0  0  3  0  0  0  0  0  0
  161.1470  203.8620  151.7980 C   0  0  0  0  0  0  0  0  0  0  0  0
  161.2270  207.5610  149.9240 C   0  0  0  0  0  0  0  0  0  0  0  0
  159.9020  208.1640  155.8580 C   0  0  2  0  0  3  0  0  0  0  0  0
  162.6830  210.4120  151.9980 N   0  0  0  0  0  2  0  0  0  0  0  0
  160.7200  205.2220  149.7110 C   0  0  0  0  0  0  0  0  0  0  0  0
  161.5960  208.4490  151.0330 C   0  0  0  0  0  0  0  0  0  0  0  0
  161.4440  210.0490  155.4500 C   0  0  2  0  0  3  0  0  0  0  0  0
  160.8610  206.3670  150.4720 C   0  0  0  0  0  0  0  0  0  0  0  0
  162.0640  209.7100  150.9000 C   0  0  0  0  0  0  0  0  0  0  0  0
  160.9060  205.3030  148.3650 N   0  0  0  0  0  0  0  0  0  0  0  0
  161.3760  208.5500  155.7740 C   0  0  2  0  0  3  0  0  0  0  0  0
  160.9900  206.3400  151.8720 N   0  0  0  0  0  0  0  0  0  0  0  0
  162.6500  203.7230  151.6270 C   0  0  0  0  0  1  0  0  0  0  0  0
  162.1590  208.7780  147.9100 C   0  0  0  0  0  3  0  0  0  0  0  0
  161.3020  206.4750  147.7800 C   0  0  0  0  0  3  0  0  0  0  0  0
  160.8370  205.1120  152.6520 C   0  0  0  0  0  2  0  0  0  0  0  0
  161.4570  210.3870  153.9620 C   0  0  1  0  0  3  0  0  0  0  0  0
  162.7040  209.9580  153.3260 N   0  0  0  0  0  2  0  0  0  0  0  0
  161.5100  207.6350  148.5530 C   0  0  0  0  0  0  0  0  0  0  0  0
  161.4540  207.6460  152.3340 C   0  0  2  0  0  3  0  0  0  0  0  0
  160.4630  203.9180  150.4100 C   0  0  0  0  0  2  0  0  0  0  0  0
  161.8420  210.4570  149.6840 N   0  0  0  0  0  0  0  0  0  0  0  0
  160.6380  202.6410  152.5330 C   0  0  0  0  0  1  0  0  0  0  0  0
  160.2550  209.7160  153.3220 C   0  0  0  0  0  2  0  0  0  0  0  0
  162.6070  210.6970  156.1780 C   0  0  0  0  0  1  0  0  0  0  0  0
  160.4230  208.1940  153.3460 C   0  0  2  0  0  3  0  0  0  0  0  0
  162.3070  210.0050  148.4020 C   0  0  0  0  0  3  0  0  0  0  0  0
  161.7330  212.7840  148.8260 C   0  0  0  0  0  3  0  0  0  0  0  0
  161.3620  211.8170  149.7790 C   0  0  0  0  0  0  0  0  0  0  0  0
  160.4850  212.1940  150.8120 C   0  0  0  0  0  3  0  0  0  0  0  0
  159.1640  213.8490  151.9040 F   0  0  0  0  0  0  0  0  0  0  0  0
  160.3880  214.4520  149.9510 C   0  0  0  0  0  3  0  0  0  0  0  0
  160.0040  213.5030  150.9000 C   0  0  0  0  0  0  0  0  0  0  0  0
  161.2510  214.0930  148.9130 C   0  0  0  0  0  3  0  0  0  0  0  0
  160.9740  206.7660  157.2600 O   0  0  0  0  0  1  0  0  0  0  0  0
  159.7320  207.1490  156.8810 N   0  0  0  0  0  2  0  0  0  0  0  0
  1 12  1  0  0  0  0
  1  4  1  0  0  0  0
  2 24  1  0  0  0  0
  2 17  1  0  0  0  0
  3  9  1  0  0  0  0
  3  7  1  0  0  0  0
  4 37  1  0  0  0  0
  5 19  1  0  0  0  0
  6 22  1  0  0  0  0
  6  9  2  0  0  0  0
  7 21  1  0  0  0  0
  8 12  1  0  0  0  0
  8 26  1  0  0  0  0
  9 13  1  0  0  0  0
 10  7  2  0  0  0  0
 10  5  1  0  0  0  0
 11  6  1  0  0  0  0
 12  4  1  0  0  0  0
 13 21  1  0  0  0  0
 13 17  1  0  0  0  0
 14  2  1  0  0  0  0
 15 28  2  0  0  0  0
 15 20  1  0  0  0  0
 16 11  2  0  0  0  0
 16 20  1  0  0  0  0
 18  8  1  0  0  0  0
 19 18  1  0  0  0  0
 20  3  2  0  0  0  0
 21 27  1  0  0  0  0
 22  2  1  0  0  0  0
 23 30  1  0  0  0  0
 23 10  1  0  0  0  0
 25 27  1  0  0  0  0
 25 18  1  0  0  0  0
 27  1  1  0  0  0  0
 28 23  1  0  0  0  0
 29 35  2  0  0  0  0
 29 30  1  0  0  0  0
 30 31  2  0  0  0  0
 31 34  1  0  0  0  0
 33 34  2  0  0  0  0
 34 32  1  0  0  0  0
 35 33  1  0  0  0  0
 37 36  1  0  0  0  0
M  END
>  <MODEL>
1

>  <REMARK>
 VINA RESULT:      -7.0      0.000      0.000
  Name = 
  2 active torsions:
  status: ('A' for Active; 'I' for Inactive)
    1  A    between atoms: C_4  and  N_37
    2  A    between atoms: N_23  and  C_30
                            x       y       z     vdW  Elec       q    Type
                         _______ _______ _______ _____ _____    ______ ____

>  <TORSDO>
F 2

$$$$
=
 OpenBabel11122413543D

 37 44  0  0  1  0  0  0  0  0999 V2000
  161.6750  210.8830  148.9040 C   0  0  2  0  0  3  0  0  0  0  0  0
  161.4660  206.2380  147.8240 C   0  0  0  0  0  0  0  0  0  0  0  0
  161.3960  207.0850  151.8840 C   0  0  0  0  0  0  0  0  0  0  0  0
  162.4640  212.1460  148.6320 C   0  0  2  0  0  3  0  0  0  0  0  0
  159.8030  210.4190  152.8300 N   0  0  0  0  0  2  0  0  0  0  0  0
  161.9530  205.4790  150.1840 C   0  0  0  0  0  0  0  0  0  0  0  0
  160.9650  208.4880  151.8880 C   0  0  0  0  0  0  0  0  0  0  0  0
  160.9050  212.9370  150.3760 C   0  0  2  0  0  3  0  0  0  0  0  0
  161.7600  206.7820  150.6040 C   0  0  0  0  0  0  0  0  0  0  0  0
  160.4800  209.1510  152.9610 C   0  0  0  0  0  0  0  0  0  0  0  0
  161.8210  204.4730  151.0910 N   0  0  0  0  0  0  0  0  0  0  0  0
  160.9880  212.2570  149.0020 C   0  0  2  0  0  3  0  0  0  0  0  0
  161.5750  207.8510  149.7100 N   0  0  0  0  0  0  0  0  0  0  0  0
  159.9740  205.9530  147.8390 C   0  0  0  0  0  1  0  0  0  0  0  0
  160.5240  206.2330  154.1030 C   0  0  0  0  0  3  0  0  0  0  0  0
  161.4290  204.7310  152.3760 C   0  0  0  0  0  3  0  0  0  0  0  0
  161.7180  207.6980  148.2630 C   0  0  0  0  0  2  0  0  0  0  0  0
  160.9470  211.9880  151.5690 C   0  0  1  0  0  3  0  0  0  0  0  0
  159.7360  211.1690  151.6460 N   0  0  0  0  0  2  0  0  0  0  0  0
  161.1670  206.0490  152.8010 C   0  0  0  0  0  0  0  0  0  0  0  0
  161.0680  209.0070  150.4470 C   0  0  2  0  0  3  0  0  0  0  0  0
  162.2050  205.2210  148.7270 C   0  0  0  0  0  2  0  0  0  0  0  0
  160.7380  208.6790  154.3010 N   0  0  0  0  0  0  0  0  0  0  0  0
  161.9660  206.0710  146.4060 C   0  0  0  0  0  1  0  0  0  0  0  0
  162.1870  211.1220  151.4320 C   0  0  0  0  0  2  0  0  0  0  0  0
  159.7020  213.8590  150.4400 C   0  0  0  0  0  1  0  0  0  0  0  0
  162.0460  210.1830  150.2310 C   0  0  2  0  0  3  0  0  0  0  0  0
  160.3340  207.3770  154.7550 C   0  0  0  0  0  3  0  0  0  0  0  0
  160.3060  210.1220  156.2750 C   0  0  0  0  0  3  0  0  0  0  0  0
  161.1880  209.6240  155.2980 C   0  0  0  0  0  0  0  0  0  0  0  0
  162.5310  210.0400  155.3320 C   0  0  0  0  0  3  0  0  0  0  0  0
  164.2730  211.3320  156.3190 F   0  0  0  0  0  0  0  0  0  0  0  0
  162.0870  211.4300  157.2610 C   0  0  0  0  0  3  0  0  0  0  0  0
  162.9770  210.9390  156.3040 C   0  0  0  0  0  0  0  0  0  0  0  0
  160.7520  211.0210  157.2470 C   0  0  0  0  0  3  0  0  0  0  0  0
  161.3910  212.6580  146.7200 O   0  0  0  0  0  1  0  0  0  0  0  0
  162.6100  212.3170  147.1990 N   0  0  0  0  0  2  0  0  0  0  0  0
  1 12  1  0  0  0  0
  1 27  1  0  0  0  0
  2 14  1  0  0  0  0
  2 17  1  0  0  0  0
  2 22  1  0  0  0  0
  3  7  1  0  0  0  0
  3 20  1  0  0  0  0
  4  1  1  0  0  0  0
  4 12  1  0  0  0  0
  5 10  1  0  0  0  0
  6  9  1  0  0  0  0
  6 11  2  0  0  0  0
  7 10  2  0  0  0  0
  8 26  1  0  0  0  0
  8 18  1  0  0  0  0
  9  3  2  0  0  0  0
 10 23  1  0  0  0  0
 11 16  1  0  0  0  0
 12  8  1  0  0  0  0
 13 21  1  0  0  0  0
 13  9  1  0  0  0  0
 15 28  2  0  0  0  0
 16 20  2  0  0  0  0
 17 13  1  0  0  0  0
 18 19  1  0  0  0  0
 19  5  1  0  0  0  0
 20 15  1  0  0  0  0
 21  7  1  0  0  0  0
 22  6  1  0  0  0  0
 23 28  1  0  0  0  0
 23 30  1  0  0  0  0
 24  2  1  0  0  0  0
 25 18  1  0  0  0  0
 27 21  1  0  0  0  0
 27 25  1  0  0  0  0
 29 35  1  0  0  0  0
 30 31  1  0  0  0  0
 30 29  2  0  0  0  0
 31 34  2  0  0  0  0
 34 32  1  0  0  0  0
 34 33  1  0  0  0  0
 35 33  2  0  0  0  0
 36 37  1  0  0  0  0
 37  4  1  0  0  0  0
M  END
>  <MODEL>
2

>  <REMARK>
 VINA RESULT:      -5.1      2.768      5.942
  Name = 
  2 active torsions:
  status: ('A' for Active; 'I' for Inactive)
    1  A    between atoms: C_4  and  N_37
    2  A    between atoms: N_23  and  C_30
                            x       y       z     vdW  Elec       q    Type
                         _______ _______ _______ _____ _____    ______ ____

>  <TORSDO>
F 2

$$$$
