=
 OpenBabel11122413163D

 31 35  0  0  1  0  0  0  0  0999 V2000
  162.5750  213.9120  143.7480 C   0  0  0  0  0  0  0  0  0  0  0  0
  160.9480  214.4300  140.3410 C   0  0  2  0  0  3  0  0  0  0  0  0
  162.0280  214.1940  139.3120 C   0  0  0  0  0  0  0  0  0  0  0  0
  164.3450  214.1540  138.7600 C   0  0  0  0  0  0  0  0  0  0  0  0
  161.2600  213.8530  141.7060 C   0  0  0  0  0  0  0  0  0  0  0  0
  161.8150  212.8650  144.2750 C   0  0  0  0  0  3  0  0  0  0  0  0
  163.3410  214.2730  139.6690 N   0  0  0  0  0  0  0  0  0  0  0  0
  159.2240  212.5220  140.0890 C   0  0  1  0  0  3  0  0  0  0  0  0
  163.5800  214.4530  144.4770 F   0  0  0  0  0  0  0  0  0  0  0  0
  160.2660  213.8770  137.5100 C   0  0  0  0  0  2  0  0  0  0  0  0
  165.7610  214.2330  139.2050 C   0  0  0  0  0  1  0  0  0  0  0  0
  159.3980  212.2450  141.5100 N   0  0  0  0  0  2  0  0  0  0  0  0
  159.5550  214.0060  139.8330 C   0  0  2  0  0  3  0  0  0  0  0  0
  162.2920  214.4100  142.4740 C   0  0  0  0  0  3  0  0  0  0  0  0
  164.0470  213.9630  137.4110 C   0  0  0  0  0  3  0  0  0  0  0  0
  160.4950  212.7940  142.2460 C   0  0  0  0  0  0  0  0  0  0  0  0
  160.7730  212.3130  143.5270 C   0  0  0  0  0  3  0  0  0  0  0  0
  159.3050  214.4530  138.4570 N   0  0  0  0  0  2  0  0  0  0  0  0
  161.6920  214.0360  137.9540 C   0  0  0  0  0  0  0  0  0  0  0  0
  162.7120  213.9000  137.0110 C   0  0  0  0  0  3  0  0  0  0  0  0
  158.5710  211.2720  137.5920 O   0  0  0  0  0  0  0  0  0  0  0  0
  159.7010  211.0200  138.0930 C   0  0  0  0  0  0  0  0  0  0  0  0
  160.0970  211.6420  139.3190 N   0  0  0  0  0  2  0  0  0  0  0  0
  161.9420  207.8120  138.4650 N   0  0  0  0  0  0  0  0  0  0  0  0
  160.0020  208.7230  137.2490 C   0  0  0  0  0  2  0  0  0  0  0  0
  162.5910  211.4830  137.7140 C   0  0  0  0  0  1  0  0  0  0  0  0
  162.3020  207.0120  139.6220 C   0  0  0  0  0  1  0  0  0  0  0  0
  160.4760  207.8200  138.3940 C   0  0  0  0  0  2  0  0  0  0  0  0
  162.0180  210.0820  137.5740 C   0  0  2  0  0  3  0  0  0  0  0  0
  160.5560  210.0540  137.4610 N   0  0  0  0  0  0  0  0  0  0  0  0
  162.4370  209.1680  138.7210 C   0  0  0  0  0  2  0  0  0  0  0  0
  1  6  1  0  0  0  0
  1  9  1  0  0  0  0
  2  3  1  6  0  0  0
  2  5  1  0  0  0  0
  3  7  1  0  0  0  0
  4 11  1  0  0  0  0
  4  7  2  0  0  0  0
  5 16  2  0  0  0  0
  5 14  1  0  0  0  0
  8 23  1  6  0  0  0
  8 12  1  0  0  0  0
 10 19  1  0  0  0  0
 10 18  1  0  0  0  0
 12 16  1  0  0  0  0
 13 18  1  6  0  0  0
 13  8  1  0  0  0  0
 13  2  1  0  0  0  0
 14  1  2  0  0  0  0
 15  4  1  0  0  0  0
 16 17  1  0  0  0  0
 17  6  2  0  0  0  0
 19  3  2  0  0  0  0
 20 15  2  0  0  0  0
 20 19  1  0  0  0  0
 21 22  2  0  0  0  0
 22 23  1  0  0  0  0
 24 31  1  0  0  0  0
 24 27  1  0  0  0  0
 25 30  1  0  0  0  0
 25 28  1  0  0  0  0
 28 24  1  0  0  0  0
 29 26  1  1  0  0  0
 29 31  1  0  0  0  0
 30 29  1  0  0  0  0
 30 22  1  0  0  0  0
M  END
>  <MODEL>
1

>  <REMARK>
 VINA RESULT:      -4.3      0.000      0.000
  Name = 
  1 active torsions:
  status: ('A' for Active; 'I' for Inactive)
    1  A    between atoms: C_10  and  N_16
                            x       y       z     vdW  Elec       q    Type
                         _______ _______ _______ _____ _____    ______ ____

>  <TORSDO>
F 1

$$$$
=
 OpenBabel11122413163D

 31 35  0  0  1  0  0  0  0  0999 V2000
  161.8170  207.3030  139.8750 C   0  0  0  0  0  0  0  0  0  0  0  0
  161.5520  210.6200  138.0160 C   0  0  2  0  0  3  0  0  0  0  0  0
  160.1600  211.1450  138.2790 C   0  0  0  0  0  0  0  0  0  0  0  0
  157.8890  210.7090  138.8510 C   0  0  0  0  0  0  0  0  0  0  0  0
  162.0060  209.5630  139.0010 C   0  0  0  0  0  0  0  0  0  0  0  0
  162.8760  207.5490  140.7520 C   0  0  0  0  0  3  0  0  0  0  0  0
  159.1750  210.2970  138.6870 N   0  0  0  0  0  0  0  0  0  0  0  0
  163.2050  212.2200  139.1940 C   0  0  1  0  0  3  0  0  0  0  0  0
  161.2090  206.0930  139.8670 F   0  0  0  0  0  0  0  0  0  0  0  0
  160.8870  213.4750  137.5720 C   0  0  0  0  0  2  0  0  0  0  0  0
  156.8550  209.7450  139.3130 C   0  0  0  0  0  1  0  0  0  0  0  0
  163.7630  211.0580  139.8770 N   0  0  0  0  0  2  0  0  0  0  0  0
  162.5840  211.7550  137.8610 C   0  0  2  0  0  3  0  0  0  0  0  0
  161.3910  208.3030  138.9960 C   0  0  0  0  0  3  0  0  0  0  0  0
  157.5390  212.0310  138.5800 C   0  0  0  0  0  3  0  0  0  0  0  0
  163.0770  209.8030  139.8900 C   0  0  0  0  0  0  0  0  0  0  0  0
  163.5090  208.7930  140.7540 C   0  0  0  0  0  3  0  0  0  0  0  0
  162.0890  212.8450  137.0120 N   0  0  0  0  0  2  0  0  0  0  0  0
  159.8340  212.4790  137.9640 C   0  0  0  0  0  0  0  0  0  0  0  0
  158.5200  212.9190  138.1390 C   0  0  0  0  0  3  0  0  0  0  0  0
  163.6530  214.4530  140.9350 O   0  0  0  0  0  0  0  0  0  0  0  0
  162.5000  213.9410  140.9290 C   0  0  0  0  0  0  0  0  0  0  0  0
  162.2070  212.8470  140.0540 N   0  0  0  0  0  2  0  0  0  0  0  0
  159.8090  213.0750  143.6610 N   0  0  0  0  0  0  0  0  0  0  0  0
  161.8580  214.3870  143.2670 C   0  0  0  0  0  2  0  0  0  0  0  0
  159.7100  214.4530  140.1180 C   0  0  0  0  0  1  0  0  0  0  0  0
  159.3400  211.8060  144.1880 C   0  0  0  0  0  1  0  0  0  0  0  0
  161.2600  213.1150  143.8810 C   0  0  0  0  0  2  0  0  0  0  0  0
  160.0680  214.3400  141.5910 C   0  0  2  0  0  3  0  0  0  0  0  0
  161.5090  214.4160  141.8530 N   0  0  0  0  0  0  0  0  0  0  0  0
  159.5230  213.0640  142.2230 C   0  0  0  0  0  2  0  0  0  0  0  0
  1  6  1  0  0  0  0
  2  3  1  1  0  0  0
  2  5  1  0  0  0  0
  3  7  1  0  0  0  0
  4 11  1  0  0  0  0
  5 16  2  0  0  0  0
  6 17  2  0  0  0  0
  7  4  2  0  0  0  0
  8 12  1  0  0  0  0
  8 23  1  1  0  0  0
  9  1  1  0  0  0  0
 10 19  1  0  0  0  0
 12 16  1  0  0  0  0
 13 18  1  1  0  0  0
 13  2  1  0  0  0  0
 13  8  1  0  0  0  0
 14  5  1  0  0  0  0
 14  1  2  0  0  0  0
 15  4  1  0  0  0  0
 16 17  1  0  0  0  0
 18 10  1  0  0  0  0
 19 20  1  0  0  0  0
 19  3  2  0  0  0  0
 20 15  2  0  0  0  0
 22 21  2  0  0  0  0
 22 30  1  0  0  0  0
 23 22  1  0  0  0  0
 24 28  1  0  0  0  0
 24 27  1  0  0  0  0
 25 28  1  0  0  0  0
 29 26  1  6  0  0  0
 29 30  1  0  0  0  0
 29 31  1  0  0  0  0
 30 25  1  0  0  0  0
 31 24  1  0  0  0  0
M  END
>  <MODEL>
2

>  <REMARK>
 VINA RESULT:      -3.4      2.769      6.077
  Name = 
  1 active torsions:
  status: ('A' for Active; 'I' for Inactive)
    1  A    between atoms: C_10  and  N_16
                            x       y       z     vdW  Elec       q    Type
                         _______ _______ _______ _____ _____    ______ ____

>  <TORSDO>
F 1

$$$$
=
 OpenBabel11122413163D

 31 35  0  0  1  0  0  0  0  0999 V2000
  155.5340  210.1340  155.5380 C   0  0  0  0  0  0  0  0  0  0  0  0
  158.9050  211.4560  156.7270 C   0  0  2  0  0  3  0  0  0  0  0  0
  159.8160  210.2560  156.8440 C   0  0  0  0  0  0  0  0  0  0  0  0
  160.0660  207.9070  157.1420 C   0  0  0  0  0  0  0  0  0  0  0  0
  157.6840  211.2190  155.8640 C   0  0  0  0  0  0  0  0  0  0  0  0
  155.3650  210.8190  154.3320 C   0  0  0  0  0  3  0  0  0  0  0  0
  159.2880  209.0050  156.9480 N   0  0  0  0  0  0  0  0  0  0  0  0
  159.8090  212.9150  154.7950 C   0  0  1  0  0  3  0  0  0  0  0  0
  154.5790  209.2770  155.9700 F   0  0  0  0  0  0  0  0  0  0  0  0
  161.8500  211.7780  156.8240 C   0  0  0  0  0  2  0  0  0  0  0  0
  159.4400  206.5610  157.2330 C   0  0  0  0  0  1  0  0  0  0  0  0
  158.4810  212.8550  154.1960 N   0  0  0  0  0  2  0  0  0  0  0  0
  159.6690  212.7320  156.3200 C   0  0  2  0  0  3  0  0  0  0  0  0
  156.6830  210.3420  156.3050 C   0  0  0  0  0  3  0  0  0  0  0  0
  161.4490  208.0420  157.2610 C   0  0  0  0  0  3  0  0  0  0  0  0
  157.5050  211.9090  154.6430 C   0  0  0  0  0  0  0  0  0  0  0  0
  156.3460  211.7090  153.8900 C   0  0  0  0  0  3  0  0  0  0  0  0
  160.9240  212.8900  157.0660 N   0  0  0  0  0  2  0  0  0  0  0  0
  161.2060  210.4330  156.9940 C   0  0  0  0  0  0  0  0  0  0  0  0
  162.0170  209.3130  157.1810 C   0  0  0  0  0  3  0  0  0  0  0  0
  160.3140  212.5390  151.9980 O   0  0  0  0  0  0  0  0  0  0  0  0
  160.8320  211.7150  152.8000 C   0  0  0  0  0  0  0  0  0  0  0  0
  160.6460  211.8720  154.2100 N   0  0  0  0  0  2  0  0  0  0  0  0
  161.3830  207.8230  152.8440 N   0  0  0  0  0  0  0  0  0  0  0  0
  160.8360  209.7130  151.3610 C   0  0  0  0  0  2  0  0  0  0  0  0
  163.4180  210.8470  153.9260 C   0  0  0  0  0  1  0  0  0  0  0  0
  160.7750  206.7680  153.6350 C   0  0  0  0  0  1  0  0  0  0  0  0
  160.2910  208.5180  152.1520 C   0  0  0  0  0  2  0  0  0  0  0  0
  162.6270  209.9140  153.0250 C   0  0  2  0  0  3  0  0  0  0  0  0
  161.5510  210.5830  152.2860 N   0  0  0  0  0  0  0  0  0  0  0  0
  162.0350  208.7350  153.7890 C   0  0  0  0  0  2  0  0  0  0  0  0
  1  9  1  0  0  0  0
  1 14  1  0  0  0  0
  2  5  1  6  0  0  0
  2  3  1  0  0  0  0
  3  7  2  0  0  0  0
  3 19  1  0  0  0  0
  4 11  1  0  0  0  0
  4 15  2  0  0  0  0
  5 14  2  0  0  0  0
  6  1  2  0  0  0  0
  7  4  1  0  0  0  0
  8 23  1  6  0  0  0
  8 13  1  0  0  0  0
 10 19  1  0  0  0  0
 10 18  1  0  0  0  0
 12 16  1  0  0  0  0
 12  8  1  0  0  0  0
 13  2  1  0  0  0  0
 13 18  1  1  0  0  0
 16  5  1  0  0  0  0
 17  6  1  0  0  0  0
 17 16  2  0  0  0  0
 19 20  2  0  0  0  0
 20 15  1  0  0  0  0
 21 22  2  0  0  0  0
 22 23  1  0  0  0  0
 24 27  1  0  0  0  0
 24 31  1  0  0  0  0
 25 28  1  0  0  0  0
 25 30  1  0  0  0  0
 28 24  1  0  0  0  0
 29 31  1  0  0  0  0
 29 26  1  1  0  0  0
 30 22  1  0  0  0  0
 30 29  1  0  0  0  0
M  END
>  <MODEL>
3

>  <REMARK>
 VINA RESULT:      -1.7     12.897     16.199
  Name = 
  1 active torsions:
  status: ('A' for Active; 'I' for Inactive)
    1  A    between atoms: C_10  and  N_16
                            x       y       z     vdW  Elec       q    Type
                         _______ _______ _______ _____ _____    ______ ____

>  <TORSDO>
F 1

$$$$
