=
 OpenBabel11122412413D

 30 35  0  0  1  0  0  0  0  0999 V2000
  161.5480  205.9260  150.1630 C   0  0  0  0  0  0  0  0  0  0  0  0
  161.0200  203.4980  149.9170 C   0  0  0  0  0  0  0  0  0  0  0  0
  161.1780  205.6820  154.3460 N   0  0  0  0  0  2  0  0  0  0  0  0
  161.7180  207.0530  151.0050 C   0  0  0  0  0  0  0  0  0  0  0  0
  161.6740  206.1000  148.7460 N   0  0  0  0  0  2  0  0  0  0  0  0
  162.2550  209.7060  148.4070 O   0  0  0  0  0  1  0  0  0  0  0  0
  160.4360  209.5370  152.0330 C   0  0  1  0  0  3  0  0  0  0  0  0
  161.7000  208.5420  148.9500 C   0  0  1  0  0  3  0  0  0  0  0  0
  160.5880  208.9150  153.3620 N   0  0  2  0  0  0  0  0  0  0  0  0
  161.4500  207.0440  154.6660 C   0  0  0  0  0  0  0  0  0  0  0  0
  162.1690  207.3340  148.1430 C   0  0  2  0  0  3  0  0  0  0  0  0
  162.1430  208.3880  150.4110 C   0  0  1  0  0  3  0  0  0  0  0  0
  160.7000  202.2750  150.5150 C   0  0  0  0  0  3  0  0  0  0  0  0
  160.8700  210.0290  154.2610 C   0  0  0  0  0  2  0  0  0  0  0  0
  159.8800  210.9300  152.2580 C   0  0  0  0  0  2  0  0  0  0  0  0
  161.1400  203.5350  148.5330 O   0  0  0  0  0  1  0  0  0  0  0  0
  161.2620  205.6520  152.9300 C   0  0  0  0  0  0  0  0  0  0  0  0
  160.5710  202.1710  151.8980 C   0  0  0  0  0  3  0  0  0  0  0  0
  161.2140  204.6540  150.7160 C   0  0  0  0  0  0  0  0  0  0  0  0
  161.5650  206.8800  152.3890 C   0  0  0  0  0  0  0  0  0  0  0  0
  161.5090  207.4550  155.8530 O   0  0  0  0  0  0  0  0  0  0  0  0
  161.6740  207.9220  153.4660 C   0  0  1  0  0  3  0  0  0  0  0  0
  160.1540  211.2440  153.7130 C   0  0  0  0  0  2  0  0  0  0  0  0
  162.4660  210.5470  151.3000 O   0  0  0  0  0  0  0  0  0  0  0  0
  160.7600  203.2920  152.7040 C   0  0  0  0  0  3  0  0  0  0  0  0
  161.0780  204.5270  152.1280 C   0  0  0  0  0  0  0  0  0  0  0  0
  161.7240  209.5780  151.2340 C   0  0  0  0  0  0  0  0  0  0  0  0
  161.6800  207.4280  146.7060 C   0  0  0  0  0  2  0  0  0  0  0  0
  160.3940  206.2020  145.4030 C   0  0  0  0  0  1  0  0  0  0  0  0
  161.5660  206.1500  146.1560 O   0  0  0  0  0  0  0  0  0  0  0  0
  1 19  2  0  0  0  0
  1  4  1  0  0  0  0
  2 13  2  0  0  0  0
  2 19  1  0  0  0  0
  3 10  1  0  0  0  0
  4 20  2  0  0  0  0
  5  1  1  0  0  0  0
  7 15  1  1  0  0  0
  7  9  1  0  0  0  0
  8  6  1  6  0  0  0
  8 12  1  0  0  0  0
  9 22  1  0  0  0  0
  9 14  1  1  0  0  0
 10 21  2  0  0  0  0
 11 28  1  6  0  0  0
 11  5  1  0  0  0  0
 11  8  1  0  0  0  0
 12  4  1  1  0  0  0
 12 27  1  0  0  0  0
 13 18  1  0  0  0  0
 15 23  1  0  0  0  0
 16  2  1  0  0  0  0
 17  3  1  0  0  0  0
 18 25  2  0  0  0  0
 19 26  1  0  0  0  0
 20 17  1  0  0  0  0
 22 20  1  6  0  0  0
 22 10  1  0  0  0  0
 23 14  1  0  0  0  0
 26 25  1  0  0  0  0
 26 17  2  0  0  0  0
 27 24  2  0  0  0  0
 27  7  1  0  0  0  0
 29 30  1  0  0  0  0
 30 28  1  0  0  0  0
M  END
>  <MODEL>
1

>  <REMARK>
 VINA RESULT:      -7.7      0.000      0.000
  Name = 
  2 active torsions:
  status: ('A' for Active; 'I' for Inactive)
    1  A    between atoms: C_11  and  C_28
    2  A    between atoms: C_28  and  O_30
                            x       y       z     vdW  Elec       q    Type
                         _______ _______ _______ _____ _____    ______ ____

>  <TORSDO>
F 2

$$$$
=
 OpenBabel11122412413D

 30 35  0  0  1  0  0  0  0  0999 V2000
  160.2610  209.9500  153.5420 C   0  0  0  0  0  0  0  0  0  0  0  0
  158.9250  211.9000  154.3470 C   0  0  0  0  0  0  0  0  0  0  0  0
  161.2500  211.9710  149.9890 N   0  0  0  0  0  2  0  0  0  0  0  0
  161.0570  209.3580  152.5320 C   0  0  0  0  0  0  0  0  0  0  0  0
  159.9560  209.1850  154.7160 N   0  0  0  0  0  2  0  0  0  0  0  0
  161.5250  205.9450  154.0160 O   0  0  0  0  0  1  0  0  0  0  0  0
  161.0700  207.4280  150.2640 C   0  0  1  0  0  3  0  0  0  0  0  0
  160.8380  207.1270  153.7210 C   0  0  1  0  0  3  0  0  0  0  0  0
  161.4470  208.5910  149.4390 N   0  0  2  0  0  0  0  0  0  0  0  0
  162.0390  210.9550  149.3760 C   0  0  0  0  0  0  0  0  0  0  0  0
  160.5920  207.9050  155.0110 C   0  0  2  0  0  3  0  0  0  0  0  0
  161.6670  207.9820  152.7540 C   0  0  1  0  0  3  0  0  0  0  0  0
  158.4450  213.1950  154.1300 C   0  0  0  0  0  3  0  0  0  0  0  0
  162.3570  208.0530  148.4350 C   0  0  0  0  0  2  0  0  0  0  0  0
  161.1040  206.2130  149.3560 C   0  0  0  0  0  2  0  0  0  0  0  0
  158.5810  211.2700  155.5380 O   0  0  0  0  0  1  0  0  0  0  0  0
  160.8420  211.3800  151.2130 C   0  0  0  0  0  0  0  0  0  0  0  0
  158.7580  213.8840  152.9590 C   0  0  0  0  0  3  0  0  0  0  0  0
  159.7370  211.2670  153.3730 C   0  0  0  0  0  0  0  0  0  0  0  0
  161.3270  210.1030  151.3740 C   0  0  0  0  0  0  0  0  0  0  0  0
  162.6200  211.1310  148.2740 O   0  0  0  0  0  0  0  0  0  0  0  0
  162.1210  209.6810  150.1690 C   0  0  1  0  0  3  0  0  0  0  0  0
  161.9330  206.6270  148.1600 C   0  0  0  0  0  2  0  0  0  0  0  0
  162.9490  206.5250  151.4180 O   0  0  0  0  0  0  0  0  0  0  0  0
  159.5570  213.2830  151.9890 C   0  0  0  0  0  3  0  0  0  0  0  0
  160.0470  211.9870  152.1840 C   0  0  0  0  0  0  0  0  0  0  0  0
  161.9570  207.2340  151.4790 C   0  0  0  0  0  0  0  0  0  0  0  0
  159.7110  207.1070  155.9580 C   0  0  0  0  0  2  0  0  0  0  0  0
  161.3990  207.9060  157.1270 C   0  0  0  0  0  1  0  0  0  0  0  0
  160.2160  207.1790  157.2570 O   0  0  0  0  0  0  0  0  0  0  0  0
  1  5  1  0  0  0  0
  2 16  1  0  0  0  0
  3 17  1  0  0  0  0
  4 12  1  0  0  0  0
  4  1  2  0  0  0  0
  5 11  1  0  0  0  0
  7 15  1  6  0  0  0
  7 27  1  0  0  0  0
  8  6  1  1  0  0  0
  8 11  1  0  0  0  0
  9 14  1  6  0  0  0
  9 22  1  0  0  0  0
  9  7  1  0  0  0  0
 10  3  1  0  0  0  0
 11 28  1  1  0  0  0
 12 27  1  6  0  0  0
 12  8  1  0  0  0  0
 13  2  1  0  0  0  0
 17 20  2  0  0  0  0
 17 26  1  0  0  0  0
 18 13  2  0  0  0  0
 19  1  1  0  0  0  0
 19  2  2  0  0  0  0
 20  4  1  0  0  0  0
 21 10  2  0  0  0  0
 22 10  1  6  0  0  0
 22 20  1  0  0  0  0
 23 14  1  0  0  0  0
 23 15  1  0  0  0  0
 24 27  2  0  0  0  0
 25 26  2  0  0  0  0
 25 18  1  0  0  0  0
 26 19  1  0  0  0  0
 28 30  1  0  0  0  0
 29 30  1  0  0  0  0
M  END
>  <MODEL>
2

>  <REMARK>
 VINA RESULT:      -6.8      2.528      7.484
  Name = 
  2 active torsions:
  status: ('A' for Active; 'I' for Inactive)
    1  A    between atoms: C_11  and  C_28
    2  A    between atoms: C_28  and  O_30
                            x       y       z     vdW  Elec       q    Type
                         _______ _______ _______ _____ _____    ______ ____

>  <TORSDO>
F 2

$$$$
=
 OpenBabel11122412413D

 30 35  0  0  1  0  0  0  0  0999 V2000
  161.6430  207.9460  151.4170 C   0  0  0  0  0  0  0  0  0  0  0  0
  161.5100  210.4090  151.0290 C   0  0  0  0  0  0  0  0  0  0  0  0
  162.4110  207.2490  147.3410 N   0  0  0  0  0  2  0  0  0  0  0  0
  161.8210  206.6430  150.8920 C   0  0  0  0  0  0  0  0  0  0  0  0
  161.3680  208.0950  152.8160 N   0  0  0  0  0  2  0  0  0  0  0  0
  161.1920  204.6250  153.9920 O   0  0  0  0  0  1  0  0  0  0  0  0
  160.4270  204.1550  150.0320 C   0  0  1  0  0  3  0  0  0  0  0  0
  161.0110  205.6870  153.1000 C   0  0  1  0  0  3  0  0  0  0  0  0
  161.0230  204.4270  148.7110 N   0  0  2  0  0  0  0  0  0  0  0  0
  162.5100  205.8280  147.3800 C   0  0  0  0  0  0  0  0  0  0  0  0
  161.4630  206.9870  153.7610 C   0  0  2  0  0  3  0  0  0  0  0  0
  161.8340  205.4430  151.8280 C   0  0  1  0  0  3  0  0  0  0  0  0
  161.5780  211.4880  150.1420 C   0  0  0  0  0  3  0  0  0  0  0  0
  161.3250  203.1100  148.1630 C   0  0  0  0  0  2  0  0  0  0  0  0
  159.7080  202.8230  149.9270 C   0  0  0  0  0  2  0  0  0  0  0  0
  161.2620  210.6830  152.3690 O   0  0  0  0  0  1  0  0  0  0  0  0
  162.1320  207.5990  148.6870 C   0  0  0  0  0  0  0  0  0  0  0  0
  161.8290  211.2810  148.7870 C   0  0  0  0  0  3  0  0  0  0  0  0
  161.6940  209.0850  150.5580 C   0  0  0  0  0  0  0  0  0  0  0  0
  162.0620  206.5040  149.5170 C   0  0  0  0  0  0  0  0  0  0  0  0
  162.7980  205.1480  146.3630 O   0  0  0  0  0  0  0  0  0  0  0  0
  162.2580  205.2340  148.7380 C   0  0  1  0  0  3  0  0  0  0  0  0
  160.2870  202.1490  148.7020 C   0  0  0  0  0  2  0  0  0  0  0  0
  161.9860  203.1140  151.5020 O   0  0  0  0  0  0  0  0  0  0  0  0
  162.0170  209.9890  148.3020 C   0  0  0  0  0  3  0  0  0  0  0  0
  161.9510  208.8940  149.1700 C   0  0  0  0  0  0  0  0  0  0  0  0
  161.4370  204.1510  151.1630 C   0  0  0  0  0  0  0  0  0  0  0  0
  160.6130  207.2890  154.9840 C   0  0  0  0  0  2  0  0  0  0  0  0
  161.7740  208.3500  156.5260 C   0  0  0  0  0  1  0  0  0  0  0  0
  160.9010  208.5680  155.4620 O   0  0  0  0  0  0  0  0  0  0  0  0
  1  5  1  0  0  0  0
  2 16  1  0  0  0  0
  3 10  1  0  0  0  0
  3 17  1  0  0  0  0
  4  1  1  0  0  0  0
  5 11  1  0  0  0  0
  7 15  1  6  0  0  0
  7 27  1  0  0  0  0
  8 11  1  0  0  0  0
  8  6  1  1  0  0  0
  9 14  1  1  0  0  0
  9 22  1  0  0  0  0
  9  7  1  0  0  0  0
 11 28  1  1  0  0  0
 12  4  1  6  0  0  0
 12  8  1  0  0  0  0
 13  2  2  0  0  0  0
 14 23  1  0  0  0  0
 17 26  2  0  0  0  0
 17 20  1  0  0  0  0
 18 13  1  0  0  0  0
 19  2  1  0  0  0  0
 19  1  2  0  0  0  0
 20  4  2  0  0  0  0
 21 10  2  0  0  0  0
 22 10  1  6  0  0  0
 22 20  1  0  0  0  0
 23 15  1  0  0  0  0
 25 18  2  0  0  0  0
 25 26  1  0  0  0  0
 26 19  1  0  0  0  0
 27 24  2  0  0  0  0
 27 12  1  0  0  0  0
 28 30  1  0  0  0  0
 30 29  1  0  0  0  0
M  END
>  <MODEL>
3

>  <REMARK>
 VINA RESULT:      -6.7      1.867      7.181
  Name = 
  2 active torsions:
  status: ('A' for Active; 'I' for Inactive)
    1  A    between atoms: C_11  and  C_28
    2  A    between atoms: C_28  and  O_30
                            x       y       z     vdW  Elec       q    Type
                         _______ _______ _______ _____ _____    ______ ____

>  <TORSDO>
F 2

$$$$
=
 OpenBabel11122412413D

 30 35  0  0  1  0  0  0  0  0999 V2000
  160.9810  210.4540  151.6670 C   0  0  0  0  0  0  0  0  0  0  0  0
  161.9580  208.4930  150.4700 C   0  0  0  0  0  0  0  0  0  0  0  0
  160.6110  208.2250  155.2150 N   0  0  0  0  0  2  0  0  0  0  0  0
  160.4310  211.0020  152.8520 C   0  0  0  0  0  0  0  0  0  0  0  0
  161.0550  211.2780  150.4960 N   0  0  0  0  0  2  0  0  0  0  0  0
  159.4730  214.4020  151.5870 O   0  0  0  0  0  1  0  0  0  0  0  0
  157.9040  211.7560  154.2380 C   0  0  1  0  0  3  0  0  0  0  0  0
  159.6620  213.0180  151.5150 C   0  0  1  0  0  3  0  0  0  0  0  0
  158.3200  210.7770  155.2590 N   0  0  2  0  0  0  0  0  0  0  0  0
  160.0350  209.2320  156.0420 C   0  0  0  0  0  0  0  0  0  0  0  0
  160.7790  212.7110  150.5210 C   0  0  2  0  0  3  0  0  0  0  0  0
  160.0390  212.4720  152.8980 C   0  0  1  0  0  3  0  0  0  0  0  0
  162.3710  207.1570  150.4950 C   0  0  0  0  0  3  0  0  0  0  0  0
  157.8650  211.3460  156.5230 C   0  0  0  0  0  2  0  0  0  0  0  0
  156.6370  212.4170  154.7480 C   0  0  0  0  0  2  0  0  0  0  0  0
  162.1040  209.1970  149.2790 O   0  0  0  0  0  1  0  0  0  0  0  0
  160.7670  208.8750  153.9630 C   0  0  0  0  0  0  0  0  0  0  0  0
  162.2560  206.3990  151.6580 C   0  0  0  0  0  3  0  0  0  0  0  0
  161.4120  209.0940  151.6320 C   0  0  0  0  0  0  0  0  0  0  0  0
  160.3360  210.1810  153.9850 C   0  0  0  0  0  0  0  0  0  0  0  0
  159.7870  209.0380  157.2600 O   0  0  0  0  0  0  0  0  0  0  0  0
  159.7720  210.5310  155.3340 C   0  0  1  0  0  3  0  0  0  0  0  0
  156.6090  212.1380  156.2350 C   0  0  0  0  0  2  0  0  0  0  0  0
  159.0180  213.8440  154.5190 O   0  0  0  0  0  0  0  0  0  0  0  0
  161.7260  206.9690  152.8140 C   0  0  0  0  0  3  0  0  0  0  0  0
  161.3040  208.3030  152.8110 C   0  0  0  0  0  0  0  0  0  0  0  0
  158.9720  212.7840  153.9150 C   0  0  0  0  0  0  0  0  0  0  0  0
  160.3980  213.1780  149.1250 C   0  0  0  0  0  2  0  0  0  0  0  0
  160.3650  212.4380  147.0500 C   0  0  0  0  0  1  0  0  0  0  0  0
  161.1860  212.5310  148.1730 O   0  0  0  0  0  0  0  0  0  0  0  0
  1  4  1  0  0  0  0
  2 13  2  0  0  0  0
  2 19  1  0  0  0  0
  3 10  1  0  0  0  0
  4 20  2  0  0  0  0
  5 11  1  0  0  0  0
  5  1  1  0  0  0  0
  7 15  1  1  0  0  0
  7  9  1  0  0  0  0
  8  6  1  1  0  0  0
  8 12  1  0  0  0  0
  9 22  1  0  0  0  0
  9 14  1  1  0  0  0
 10 21  2  0  0  0  0
 11 28  1  6  0  0  0
 11  8  1  0  0  0  0
 12  4  1  6  0  0  0
 12 27  1  0  0  0  0
 13 18  1  0  0  0  0
 15 23  1  0  0  0  0
 16  2  1  0  0  0  0
 17 20  1  0  0  0  0
 17  3  1  0  0  0  0
 18 25  2  0  0  0  0
 19  1  2  0  0  0  0
 19 26  1  0  0  0  0
 22 20  1  6  0  0  0
 22 10  1  0  0  0  0
 23 14  1  0  0  0  0
 26 25  1  0  0  0  0
 26 17  2  0  0  0  0
 27  7  1  0  0  0  0
 27 24  2  0  0  0  0
 29 30  1  0  0  0  0
 30 28  1  0  0  0  0
M  END
>  <MODEL>
4

>  <REMARK>
 VINA RESULT:      -6.6      2.907      4.823
  Name = 
  2 active torsions:
  status: ('A' for Active; 'I' for Inactive)
    1  A    between atoms: C_11  and  C_28
    2  A    between atoms: C_28  and  O_30
                            x       y       z     vdW  Elec       q    Type
                         _______ _______ _______ _____ _____    ______ ____

>  <TORSDO>
F 2

$$$$
=
 OpenBabel11122412413D

 30 35  0  0  1  0  0  0  0  0999 V2000
  161.4890  208.1750  150.1430 C   0  0  0  0  0  0  0  0  0  0  0  0
  161.4620  206.1520  148.6790 C   0  0  0  0  0  0  0  0  0  0  0  0
  160.8940  205.8180  153.5750 N   0  0  0  0  0  2  0  0  0  0  0  0
  161.3790  208.7380  151.4370 C   0  0  0  0  0  0  0  0  0  0  0  0
  161.6730  209.0520  149.0230 N   0  0  0  0  0  2  0  0  0  0  0  0
  161.5610  212.3810  150.5590 O   0  0  0  0  0  1  0  0  0  0  0  0
  159.5710  210.1700  153.3230 C   0  0  1  0  0  3  0  0  0  0  0  0
  161.2090  211.0390  150.3800 C   0  0  1  0  0  3  0  0  0  0  0  0
  159.7520  208.9930  154.1930 N   0  0  2  0  0  0  0  0  0  0  0  0
  160.8730  206.8580  154.5490 C   0  0  0  0  0  0  0  0  0  0  0  0
  161.9570  210.4750  149.1740 C   0  0  2  0  0  3  0  0  0  0  0  0
  161.5740  210.2350  151.6340 C   0  0  1  0  0  3  0  0  0  0  0  0
  161.3480  204.7640  148.5550 C   0  0  0  0  0  3  0  0  0  0  0  0
  159.7500  209.5310  155.5480 C   0  0  0  0  0  2  0  0  0  0  0  0
  158.7400  211.1720  154.1010 C   0  0  0  0  0  2  0  0  0  0  0  0
  161.6660  206.8950  147.5210 O   0  0  0  0  0  1  0  0  0  0  0  0
  161.0760  206.5140  152.3520 C   0  0  0  0  0  0  0  0  0  0  0  0
  161.1490  203.9630  149.6780 C   0  0  0  0  0  3  0  0  0  0  0  0
  161.3730  206.7650  149.9540 C   0  0  0  0  0  0  0  0  0  0  0  0
  161.1700  207.8750  152.5240 C   0  0  0  0  0  0  0  0  0  0  0  0
  160.7710  206.6210  155.7800 O   0  0  0  0  0  0  0  0  0  0  0  0
  161.0010  208.2400  153.9720 C   0  0  1  0  0  3  0  0  0  0  0  0
  158.8490  210.7470  155.5490 C   0  0  0  0  0  2  0  0  0  0  0  0
  161.4090  211.6760  153.4910 O   0  0  0  0  0  0  0  0  0  0  0  0
  161.0610  204.5430  150.9420 C   0  0  0  0  0  3  0  0  0  0  0  0
  161.1700  205.9300  151.0900 C   0  0  0  0  0  0  0  0  0  0  0  0
  160.8770  210.7820  152.8530 C   0  0  0  0  0  0  0  0  0  0  0  0
  161.5570  211.2100  147.9050 C   0  0  0  0  0  2  0  0  0  0  0  0
  161.8670  213.0820  146.7850 C   0  0  0  0  0  1  0  0  0  0  0  0
  162.5390  212.1390  147.5610 O   0  0  0  0  0  0  0  0  0  0  0  0
  1  4  1  0  0  0  0
  2 19  1  0  0  0  0
  3 10  1  0  0  0  0
  4 20  2  0  0  0  0
  5 11  1  0  0  0  0
  5  1  1  0  0  0  0
  7 15  1  1  0  0  0
  7  9  1  0  0  0  0
  8  6  1  1  0  0  0
  8 12  1  0  0  0  0
  9 14  1  1  0  0  0
 10 21  2  0  0  0  0
 11 28  1  6  0  0  0
 11  8  1  0  0  0  0
 12  4  1  6  0  0  0
 12 27  1  0  0  0  0
 13  2  2  0  0  0  0
 13 18  1  0  0  0  0
 14 23  1  0  0  0  0
 15 23  1  0  0  0  0
 16  2  1  0  0  0  0
 17 20  1  0  0  0  0
 17  3  1  0  0  0  0
 18 25  2  0  0  0  0
 19  1  2  0  0  0  0
 19 26  1  0  0  0  0
 22 20  1  6  0  0  0
 22  9  1  0  0  0  0
 22 10  1  0  0  0  0
 25 26  1  0  0  0  0
 26 17  2  0  0  0  0
 27  7  1  0  0  0  0
 27 24  2  0  0  0  0
 29 30  1  0  0  0  0
 30 28  1  0  0  0  0
M  END
>  <MODEL>
5

>  <REMARK>
 VINA RESULT:      -6.5      1.826      2.875
  Name = 
  2 active torsions:
  status: ('A' for Active; 'I' for Inactive)
    1  A    between atoms: C_11  and  C_28
    2  A    between atoms: C_28  and  O_30
                            x       y       z     vdW  Elec       q    Type
                         _______ _______ _______ _____ _____    ______ ____

>  <TORSDO>
F 2

$$$$
=
 OpenBabel11122412413D

 30 35  0  0  1  0  0  0  0  0999 V2000
  161.1460  209.5180  152.2190 C   0  0  0  0  0  0  0  0  0  0  0  0
  161.5140  207.2050  153.0830 C   0  0  0  0  0  0  0  0  0  0  0  0
  159.0660  210.5960  155.7120 N   0  0  0  0  0  2  0  0  0  0  0  0
  160.5920  210.8080  152.4020 C   0  0  0  0  0  0  0  0  0  0  0  0
  161.8260  209.2270  150.9900 N   0  0  0  0  0  2  0  0  0  0  0  0
  161.4150  212.3260  149.0710 O   0  0  0  0  0  1  0  0  0  0  0  0
  158.3260  212.6060  151.6910 C   0  0  1  0  0  3  0  0  0  0  0  0
  161.0450  211.3070  149.9550 C   0  0  1  0  0  3  0  0  0  0  0  0
  158.0530  212.6280  153.1410 N   0  0  2  0  0  0  0  0  0  0  0  0
  158.7590  211.9450  155.3720 C   0  0  0  0  0  0  0  0  0  0  0  0
  162.1500  210.2550  150.0060 C   0  0  2  0  0  3  0  0  0  0  0  0
  160.8240  211.8900  151.3560 C   0  0  1  0  0  3  0  0  0  0  0  0
  161.3370  206.2640  154.1030 C   0  0  0  0  0  3  0  0  0  0  0  0
  157.5730  213.9790  153.4060 C   0  0  0  0  0  2  0  0  0  0  0  0
  157.3480  213.5680  151.0420 C   0  0  0  0  0  2  0  0  0  0  0  0
  162.2140  206.8110  151.9480 O   0  0  0  0  0  1  0  0  0  0  0  0
  159.7680  210.1200  154.5740 C   0  0  0  0  0  0  0  0  0  0  0  0
  160.6500  206.5980  155.2680 C   0  0  0  0  0  3  0  0  0  0  0  0
  160.9910  208.5150  153.2220 C   0  0  0  0  0  0  0  0  0  0  0  0
  159.9040  211.0760  153.5950 C   0  0  0  0  0  0  0  0  0  0  0  0
  158.1670  212.7190  156.1670 O   0  0  0  0  0  0  0  0  0  0  0  0
  159.2190  212.3510  154.0000 C   0  0  1  0  0  3  0  0  0  0  0  0
  156.8510  214.4530  152.1640 C   0  0  0  0  0  2  0  0  0  0  0  0
  160.0780  214.1120  151.1060 O   0  0  0  0  0  0  0  0  0  0  0  0
  160.1300  207.8800  155.4280 C   0  0  0  0  0  3  0  0  0  0  0  0
  160.2920  208.8380  154.4200 C   0  0  0  0  0  0  0  0  0  0  0  0
  159.7600  212.9560  151.3400 C   0  0  0  0  0  0  0  0  0  0  0  0
  162.3390  209.6100  148.6430 C   0  0  0  0  0  2  0  0  0  0  0  0
  162.3840  207.4500  148.2120 C   0  0  0  0  0  1  0  0  0  0  0  0
  161.5120  208.4920  148.5240 O   0  0  0  0  0  0  0  0  0  0  0  0
  1  4  2  0  0  0  0
  1 19  1  0  0  0  0
  2 19  2  0  0  0  0
  2 13  1  0  0  0  0
  4 20  1  0  0  0  0
  5  1  1  0  0  0  0
  7 15  1  6  0  0  0
  7  9  1  0  0  0  0
  8  6  1  6  0  0  0
  8 11  1  0  0  0  0
  8 12  1  0  0  0  0
  9 14  1  1  0  0  0
  9 22  1  0  0  0  0
 10  3  1  0  0  0  0
 10 21  2  0  0  0  0
 11 28  1  6  0  0  0
 11  5  1  0  0  0  0
 12 27  1  6  0  0  0
 12  4  1  0  0  0  0
 13 18  2  0  0  0  0
 15 23  1  0  0  0  0
 16  2  1  0  0  0  0
 17  3  1  0  0  0  0
 18 25  1  0  0  0  0
 19 26  1  0  0  0  0
 20 17  2  0  0  0  0
 22 20  1  6  0  0  0
 22 10  1  0  0  0  0
 23 14  1  0  0  0  0
 24 27  2  0  0  0  0
 26 17  1  0  0  0  0
 26 25  2  0  0  0  0
 27  7  1  0  0  0  0
 29 30  1  0  0  0  0
 30 28  1  0  0  0  0
M  END
>  <MODEL>
6

>  <REMARK>
 VINA RESULT:      -5.8      2.893      4.534
  Name = 
  2 active torsions:
  status: ('A' for Active; 'I' for Inactive)
    1  A    between atoms: C_11  and  C_28
    2  A    between atoms: C_28  and  O_30
                            x       y       z     vdW  Elec       q    Type
                         _______ _______ _______ _____ _____    ______ ____

>  <TORSDO>
F 2

$$$$
=
 OpenBabel11122412413D

 30 35  0  0  1  0  0  0  0  0999 V2000
  161.3580  207.8880  151.0580 C   0  0  0  0  0  0  0  0  0  0  0  0
  161.5800  208.1760  153.5280 C   0  0  0  0  0  0  0  0  0  0  0  0
  160.6050  203.7750  151.5080 N   0  0  0  0  0  2  0  0  0  0  0  0
  161.1390  207.0330  149.9500 C   0  0  0  0  0  0  0  0  0  0  0  0
  161.6250  209.2760  150.8150 N   0  0  0  0  0  2  0  0  0  0  0  0
  161.6690  209.4770  147.1530 O   0  0  0  0  0  1  0  0  0  0  0  0
  162.4540  205.5370  147.7360 C   0  0  1  0  0  3  0  0  0  0  0  0
  161.8950  208.9030  148.4080 C   0  0  1  0  0  3  0  0  0  0  0  0
  161.8800  204.3370  148.3730 N   0  0  2  0  0  0  0  0  0  0  0  0
  160.4560  203.4320  150.1320 C   0  0  0  0  0  0  0  0  0  0  0  0
  161.4830  209.8880  149.4990 C   0  0  2  0  0  3  0  0  0  0  0  0
  161.0760  207.6130  148.5440 C   0  0  1  0  0  3  0  0  0  0  0  0
  161.5590  207.6110  154.8070 C   0  0  0  0  0  3  0  0  0  0  0  0
  161.5380  203.4560  147.2630 C   0  0  0  0  0  2  0  0  0  0  0  0
  163.1270  205.0780  146.4550 C   0  0  0  0  0  2  0  0  0  0  0  0
  161.8260  209.5400  153.4230 O   0  0  0  0  0  1  0  0  0  0  0  0
  160.8830  205.1650  151.4730 C   0  0  0  0  0  0  0  0  0  0  0  0
  161.3130  206.2500  154.9800 C   0  0  0  0  0  3  0  0  0  0  0  0
  161.3550  207.3660  152.3860 C   0  0  0  0  0  0  0  0  0  0  0  0
  160.9070  205.6710  150.1940 C   0  0  0  0  0  0  0  0  0  0  0  0
  160.1540  202.2690  149.7600 O   0  0  0  0  0  0  0  0  0  0  0  0
  160.6740  204.5800  149.1880 C   0  0  1  0  0  3  0  0  0  0  0  0
  162.5360  203.7170  146.1560 C   0  0  0  0  0  2  0  0  0  0  0  0
  160.8450  206.6730  146.3950 O   0  0  0  0  0  0  0  0  0  0  0  0
  161.0860  205.4350  153.8730 C   0  0  0  0  0  3  0  0  0  0  0  0
  161.1040  205.9780  152.5830 C   0  0  0  0  0  0  0  0  0  0  0  0
  161.4340  206.6250  147.4640 C   0  0  0  0  0  0  0  0  0  0  0  0
  162.3310  211.1480  149.4310 C   0  0  0  0  0  2  0  0  0  0  0  0
  162.3500  212.8540  148.0370 C   0  0  0  0  0  1  0  0  0  0  0  0
  161.5570  212.2230  148.9940 O   0  0  0  0  0  0  0  0  0  0  0  0
  1 19  1  0  0  0  0
  2 13  1  0  0  0  0
  4 20  1  0  0  0  0
  4  1  2  0  0  0  0
  5  1  1  0  0  0  0
  7 15  1  6  0  0  0
  7  9  1  0  0  0  0
  8  6  1  6  0  0  0
  8 12  1  0  0  0  0
  8 11  1  0  0  0  0
  9 14  1  6  0  0  0
  9 22  1  0  0  0  0
 10  3  1  0  0  0  0
 11 28  1  1  0  0  0
 11  5  1  0  0  0  0
 12 27  1  6  0  0  0
 12  4  1  0  0  0  0
 13 18  2  0  0  0  0
 16  2  1  0  0  0  0
 17  3  1  0  0  0  0
 17 26  1  0  0  0  0
 19 26  1  0  0  0  0
 19  2  2  0  0  0  0
 20 17  2  0  0  0  0
 21 10  2  0  0  0  0
 22 10  1  1  0  0  0
 22 20  1  0  0  0  0
 23 15  1  0  0  0  0
 23 14  1  0  0  0  0
 24 27  2  0  0  0  0
 25 18  1  0  0  0  0
 26 25  2  0  0  0  0
 27  7  1  0  0  0  0
 29 30  1  0  0  0  0
 30 28  1  0  0  0  0
M  END
>  <MODEL>
7

>  <REMARK>
 VINA RESULT:      -5.6      1.937      5.599
  Name = 
  2 active torsions:
  status: ('A' for Active; 'I' for Inactive)
    1  A    between atoms: C_11  and  C_28
    2  A    between atoms: C_28  and  O_30
                            x       y       z     vdW  Elec       q    Type
                         _______ _______ _______ _____ _____    ______ ____

>  <TORSDO>
F 2

$$$$
=
 OpenBabel11122412413D

 30 35  0  0  1  0  0  0  0  0999 V2000
  161.0440  209.4070  152.4550 C   0  0  0  0  0  0  0  0  0  0  0  0
  160.4550  211.8260  152.2740 C   0  0  0  0  0  0  0  0  0  0  0  0
  161.9730  209.2270  148.3580 N   0  0  0  0  0  2  0  0  0  0  0  0
  161.4700  208.2100  151.8280 C   0  0  0  0  0  0  0  0  0  0  0  0
  160.7310  209.3770  153.8540 N   0  0  0  0  0  2  0  0  0  0  0  0
  161.1960  205.8450  154.7270 O   0  0  0  0  0  1  0  0  0  0  0  0
  160.5770  205.5920  150.7230 C   0  0  1  0  0  3  0  0  0  0  0  0
  160.8290  206.9290  153.9240 C   0  0  1  0  0  3  0  0  0  0  0  0
  161.1260  206.0860  149.4460 N   0  0  2  0  0  0  0  0  0  0  0  0
  162.3370  207.8510  148.2790 C   0  0  0  0  0  0  0  0  0  0  0  0
  161.0220  208.2270  154.7040 C   0  0  2  0  0  3  0  0  0  0  0  0
  161.6980  206.9560  152.6590 C   0  0  1  0  0  3  0  0  0  0  0  0
  160.3280  212.9730  151.4840 C   0  0  0  0  0  3  0  0  0  0  0  0
  161.6750  204.9010  148.7970 C   0  0  0  0  0  2  0  0  0  0  0  0
  160.1220  204.1650  150.4860 C   0  0  0  0  0  2  0  0  0  0  0  0
  160.1450  211.9300  153.6260 O   0  0  0  0  0  1  0  0  0  0  0  0
  161.6190  209.3980  149.7210 C   0  0  0  0  0  0  0  0  0  0  0  0
  160.6290  212.9360  150.1240 C   0  0  0  0  0  3  0  0  0  0  0  0
  160.8900  210.6060  151.6980 C   0  0  0  0  0  0  0  0  0  0  0  0
  161.7470  208.2410  150.4530 C   0  0  0  0  0  0  0  0  0  0  0  0
  162.7590  207.3280  147.2160 O   0  0  0  0  0  0  0  0  0  0  0  0
  162.1860  207.1030  149.5740 C   0  0  1  0  0  3  0  0  0  0  0  0
  160.8300  203.7210  149.2250 C   0  0  0  0  0  2  0  0  0  0  0  0
  162.2880  204.7340  152.1410 O   0  0  0  0  0  0  0  0  0  0  0  0
  161.0610  211.7500  149.5360 C   0  0  0  0  0  3  0  0  0  0  0  0
  161.1930  210.5890  150.3060 C   0  0  0  0  0  0  0  0  0  0  0  0
  161.5570  205.6760  151.8760 C   0  0  0  0  0  0  0  0  0  0  0  0
  160.1170  208.2570  155.9250 C   0  0  0  0  0  2  0  0  0  0  0  0
  161.9700  208.7550  157.0070 C   0  0  0  0  0  1  0  0  0  0  0  0
  160.6340  209.1310  156.8820 O   0  0  0  0  0  0  0  0  0  0  0  0
  1  5  1  0  0  0  0
  2 16  1  0  0  0  0
  3 17  1  0  0  0  0
  4  1  1  0  0  0  0
  5 11  1  0  0  0  0
  7 15  1  6  0  0  0
  7 27  1  0  0  0  0
  8 11  1  0  0  0  0
  8  6  1  1  0  0  0
  9 14  1  1  0  0  0
  9 22  1  0  0  0  0
  9  7  1  0  0  0  0
 10  3  1  0  0  0  0
 11 28  1  1  0  0  0
 12  4  1  6  0  0  0
 12  8  1  0  0  0  0
 13  2  2  0  0  0  0
 14 23  1  0  0  0  0
 17 26  2  0  0  0  0
 17 20  1  0  0  0  0
 18 13  1  0  0  0  0
 19  2  1  0  0  0  0
 19  1  2  0  0  0  0
 20  4  2  0  0  0  0
 21 10  2  0  0  0  0
 22 10  1  6  0  0  0
 22 20  1  0  0  0  0
 23 15  1  0  0  0  0
 25 18  2  0  0  0  0
 25 26  1  0  0  0  0
 26 19  1  0  0  0  0
 27 24  2  0  0  0  0
 27 12  1  0  0  0  0
 28 30  1  0  0  0  0
 30 29  1  0  0  0  0
M  END
>  <MODEL>
8

>  <REMARK>
 VINA RESULT:      -5.6      1.956      7.311
  Name = 
  2 active torsions:
  status: ('A' for Active; 'I' for Inactive)
    1  A    between atoms: C_11  and  C_28
    2  A    between atoms: C_28  and  O_30
                            x       y       z     vdW  Elec       q    Type
                         _______ _______ _______ _____ _____    ______ ____

>  <TORSDO>
F 2

$$$$
=
 OpenBabel11122412413D

 30 35  0  0  1  0  0  0  0  0999 V2000
  161.3680  208.2940  150.8520 C   0  0  0  0  0  0  0  0  0  0  0  0
  162.1330  209.1800  148.6460 C   0  0  0  0  0  0  0  0  0  0  0  0
  160.5500  212.1800  152.2370 N   0  0  0  0  0  2  0  0  0  0  0  0
  160.8770  208.5450  152.1560 C   0  0  0  0  0  0  0  0  0  0  0  0
  161.6370  206.9400  150.4650 N   0  0  0  0  0  2  0  0  0  0  0  0
  160.8950  205.0490  153.5190 O   0  0  0  0  0  1  0  0  0  0  0  0
  161.6130  208.7460  155.0350 C   0  0  1  0  0  3  0  0  0  0  0  0
  161.3620  206.1270  152.7610 C   0  0  1  0  0  3  0  0  0  0  0  0
  161.1390  210.1390  154.9300 N   0  0  2  0  0  0  0  0  0  0  0  0
  160.0920  211.8500  153.5450 C   0  0  0  0  0  0  0  0  0  0  0  0
  161.2390  205.7940  151.2760 C   0  0  2  0  0  3  0  0  0  0  0  0
  160.5350  207.3810  153.0760 C   0  0  1  0  0  3  0  0  0  0  0  0
  162.3650  210.2770  147.8100 C   0  0  0  0  0  3  0  0  0  0  0  0
  160.5260  210.4190  156.2230 C   0  0  0  0  0  2  0  0  0  0  0  0
  161.9710  208.5100  156.4910 C   0  0  0  0  0  2  0  0  0  0  0  0
  162.4100  207.9120  148.1470 O   0  0  0  0  0  1  0  0  0  0  0  0
  160.8750  210.9200  151.6730 C   0  0  0  0  0  0  0  0  0  0  0  0
  162.1030  211.5730  148.2490 C   0  0  0  0  0  3  0  0  0  0  0  0
  161.6300  209.3750  149.9570 C   0  0  0  0  0  0  0  0  0  0  0  0
  160.6430  209.8750  152.5370 C   0  0  0  0  0  0  0  0  0  0  0  0
  159.6650  212.7210  154.3460 O   0  0  0  0  0  0  0  0  0  0  0  0
  160.1500  210.3820  153.8630 C   0  0  1  0  0  3  0  0  0  0  0  0
  161.2700  209.6080  157.2610 C   0  0  0  0  0  2  0  0  0  0  0  0
  159.8030  207.2210  155.3100 O   0  0  0  0  0  0  0  0  0  0  0  0
  161.6050  211.7890  149.5310 C   0  0  0  0  0  3  0  0  0  0  0  0
  161.3680  210.7070  150.3870 C   0  0  0  0  0  0  0  0  0  0  0  0
  160.6070  207.7250  154.5410 C   0  0  0  0  0  0  0  0  0  0  0  0
  162.1080  204.5970  150.9230 C   0  0  0  0  0  2  0  0  0  0  0  0
  161.1760  203.6350  149.1730 C   0  0  0  0  0  1  0  0  0  0  0  0
  161.3050  203.5160  150.5560 O   0  0  0  0  0  0  0  0  0  0  0  0
  1  4  1  0  0  0  0
  2 19  1  0  0  0  0
  3 10  1  0  0  0  0
  4 20  2  0  0  0  0
  5  1  1  0  0  0  0
  5 11  1  0  0  0  0
  7 15  1  1  0  0  0
  8 12  1  0  0  0  0
  8  6  1  1  0  0  0
  9  7  1  0  0  0  0
  9 14  1  1  0  0  0
 10 22  1  0  0  0  0
 10 21  2  0  0  0  0
 11 28  1  6  0  0  0
 11  8  1  0  0  0  0
 12  4  1  6  0  0  0
 12 27  1  0  0  0  0
 13 18  1  0  0  0  0
 13  2  2  0  0  0  0
 14 23  1  0  0  0  0
 15 23  1  0  0  0  0
 16  2  1  0  0  0  0
 17  3  1  0  0  0  0
 17 20  1  0  0  0  0
 18 25  2  0  0  0  0
 19 26  1  0  0  0  0
 19  1  2  0  0  0  0
 22 20  1  6  0  0  0
 22  9  1  0  0  0  0
 25 26  1  0  0  0  0
 26 17  2  0  0  0  0
 27  7  1  0  0  0  0
 27 24  2  0  0  0  0
 29 30  1  0  0  0  0
 30 28  1  0  0  0  0
M  END
>  <MODEL>
9

>  <REMARK>
 VINA RESULT:      -5.5      2.073      5.265
  Name = 
  2 active torsions:
  status: ('A' for Active; 'I' for Inactive)
    1  A    between atoms: C_11  and  C_28
    2  A    between atoms: C_28  and  O_30
                            x       y       z     vdW  Elec       q    Type
                         _______ _______ _______ _____ _____    ______ ____

>  <TORSDO>
F 2

$$$$
