=
 OpenBabel11122413463D

 37 42  0  0  1  0  0  0  0  0999 V2000
  160.9370  208.2610  150.9260 C   0  0  0  0  0  2  0  0  0  0  0  0
  161.8250  209.9750  155.8220 S   0  0  0  0  0  0  0  0  0  0  0  0
  160.0860  211.4720  152.0200 C   0  0  0  0  0  0  0  0  0  0  0  0
  160.6310  207.1250  149.9360 C   0  0  1  0  0  3  0  0  0  0  0  0
  161.5500  211.3370  148.6220 C   0  0  0  0  0  2  0  0  0  0  0  0
  159.6970  210.5420  154.2490 C   0  0  0  0  0  0  0  0  0  0  0  0
  160.9240  211.6350  150.9100 O   0  0  0  0  0  0  0  0  0  0  0  0
  162.6000  207.0590  148.4480 C   0  0  0  0  0  0  0  0  0  0  0  0
  160.5260  210.6630  153.1060 C   0  0  0  0  0  0  0  0  0  0  0  0
  160.4730  211.8300  149.5780 C   0  0  1  0  0  3  0  0  0  0  0  0
  158.4560  211.1740  154.2940 C   0  0  0  0  0  3  0  0  0  0  0  0
  161.8730  206.3340  149.5360 C   0  0  0  0  0  2  0  0  0  0  0  0
  161.8540  209.9000  153.1210 C   0  0  2  0  0  3  0  0  0  0  0  0
  162.3890  208.7410  156.4690 O   0  0  0  0  0  0  0  0  0  0  0  0
  158.2730  212.9840  150.9950 C   0  0  0  0  0  2  0  0  0  0  0  0
  158.0240  211.9540  153.2250 C   0  0  0  0  0  3  0  0  0  0  0  0
  162.7050  210.3220  154.3110 C   0  0  0  0  0  2  0  0  0  0  0  0
  163.4500  208.2650  148.7540 C   0  0  0  0  0  2  0  0  0  0  0  0
  161.6060  209.8150  148.6340 C   0  0  0  0  0  2  0  0  0  0  0  0
  158.8240  212.1200  152.0950 C   0  0  0  0  0  0  0  0  0  0  0  0
  162.6930  209.9490  151.8430 C   0  0  0  0  0  2  0  0  0  0  0  0
  160.1020  209.7070  155.4280 C   0  0  0  0  0  2  0  0  0  0  0  0
  160.1530  213.3090  149.3280 C   0  0  2  0  0  3  0  0  0  0  0  0
  161.9580  211.1420  156.7600 O   0  0  0  0  0  0  0  0  0  0  0  0
  162.7270  209.3340  149.4520 N   0  0  1  0  0  0  0  0  0  0  0  0
  162.4910  206.6800  147.2970 O   0  0  0  0  0  0  0  0  0  0  0  0
  162.3490  208.8760  150.8030 C   0  0  2  0  0  3  0  0  0  0  0  0
  159.3280  213.9430  150.4500 C   0  0  0  0  0  2  0  0  0  0  0  0
  158.1180  213.3890  147.8220 C   0  0  0  0  0  3  0  0  0  0  0  0
  159.5050  213.5290  147.9950 C   0  0  0  0  0  0  0  0  0  0  0  0
  160.3030  213.8870  146.9020 C   0  0  0  0  0  3  0  0  0  0  0  0
  160.5230  214.4530  144.5690 O   0  0  0  0  0  1  0  0  0  0  0  0
  158.3450  213.9540  145.4800 C   0  0  0  0  0  3  0  0  0  0  0  0
  159.7260  214.0980  145.6480 C   0  0  0  0  0  0  0  0  0  0  0  0
  157.5420  213.6000  146.5670 C   0  0  0  0  0  3  0  0  0  0  0  0
  160.4090  205.1140  150.8460 C   0  0  0  0  0  1  0  0  0  0  0  0
  159.6930  206.2610  150.5050 O   0  0  0  0  0  0  0  0  0  0  0  0
  2 14  2  0  0  0  0
  2 24  2  0  0  0  0
  3 20  2  0  0  0  0
  3  9  1  0  0  0  0
  4 37  1  1  0  0  0
  4  1  1  0  0  0  0
  5 19  1  0  0  0  0
  6 11  1  0  0  0  0
  6 22  1  0  0  0  0
  7  3  1  0  0  0  0
  8 18  1  0  0  0  0
  8 12  1  0  0  0  0
  9 13  1  0  0  0  0
  9  6  2  0  0  0  0
 10  5  1  6  0  0  0
 10  7  1  0  0  0  0
 12  4  1  0  0  0  0
 13 21  1  6  0  0  0
 13 17  1  0  0  0  0
 15 20  1  0  0  0  0
 16 11  2  0  0  0  0
 17  2  1  0  0  0  0
 18 25  1  0  0  0  0
 20 16  1  0  0  0  0
 22  2  1  0  0  0  0
 23 30  1  6  0  0  0
 23 10  1  0  0  0  0
 23 28  1  0  0  0  0
 25 19  1  6  0  0  0
 25 27  1  0  0  0  0
 26  8  2  0  0  0  0
 27  1  1  6  0  0  0
 27 21  1  0  0  0  0
 28 15  1  0  0  0  0
 29 30  1  0  0  0  0
 31 30  2  0  0  0  0
 32 34  1  0  0  0  0
 33 34  2  0  0  0  0
 33 35  1  0  0  0  0
 34 31  1  0  0  0  0
 35 29  2  0  0  0  0
 37 36  1  0  0  0  0
M  END
>  <MODEL>
1

>  <REMARK>
 VINA RESULT:      -1.6      0.000      0.000
  Name = 
  2 active torsions:
  status: ('A' for Active; 'I' for Inactive)
    1  A    between atoms: C_4  and  O_37
    2  A    between atoms: C_23  and  C_30
                            x       y       z     vdW  Elec       q    Type
                         _______ _______ _______ _____ _____    ______ ____

>  <TORSDO>
F 2

$$$$
