=
 OpenBabel11122414223D

 34 40  0  0  1  0  0  0  0  0999 V2000
  161.4570  204.9350  151.6980 C   0  0  2  0  0  3  0  0  0  0  0  0
  161.1880  206.1560  153.8720 C   0  0  0  0  0  2  0  0  0  0  0  0
  161.8120  204.9910  144.9020 C   0  0  0  0  0  0  0  0  0  0  0  0
  161.1740  203.9510  149.4000 C   0  0  0  0  0  0  0  0  0  0  0  0
  161.9020  205.3080  147.3860 C   0  0  1  0  0  3  0  0  0  0  0  0
  160.0520  206.1210  146.0490 O   0  0  0  0  0  1  0  0  0  0  0  0
  162.5520  205.4620  144.0010 O   0  0  0  0  0  0  0  0  0  0  0  0
  160.5030  203.0440  145.7320 C   0  0  0  0  0  2  0  0  0  0  0  0
  160.5810  207.3690  151.8440 C   0  0  2  0  0  3  0  0  0  0  0  0
  161.9470  210.3230  151.8510 C   0  0  0  0  0  2  0  0  0  0  0  0
  162.1160  206.4560  148.3890 C   0  0  0  0  0  2  0  0  0  0  0  0
  161.1680  202.8940  147.0910 C   0  0  0  0  0  2  0  0  0  0  0  0
  161.4420  207.5250  150.5720 C   0  0  1  0  0  3  0  0  0  0  0  0
  160.8170  207.5660  154.2640 C   0  0  0  0  0  2  0  0  0  0  0  0
  160.9920  204.1700  147.9090 C   0  0  1  0  0  3  0  0  0  0  0  0
  161.3840  203.6630  144.8020 O   0  0  0  0  0  0  0  0  0  0  0  0
  162.1530  209.1820  152.8410 C   0  0  2  0  0  3  0  0  0  0  0  0
  161.1920  205.0420  150.2060 C   0  0  0  0  0  0  0  0  0  0  0  0
  161.4270  205.8750  146.0480 C   0  0  2  0  0  3  0  0  0  0  0  0
  161.1340  206.4100  149.5650 C   0  0  2  0  0  3  0  0  0  0  0  0
  161.8610  202.5040  151.3500 C   0  0  0  0  0  2  0  0  0  0  0  0
  162.2290  209.8840  150.4220 C   0  0  0  0  0  2  0  0  0  0  0  0
  161.2100  202.5500  149.9740 C   0  0  0  0  0  2  0  0  0  0  0  0
  161.1950  208.8840  149.9310 C   0  0  0  0  0  2  0  0  0  0  0  0
  160.8430  208.3810  152.9790 C   0  0  1  0  0  3  0  0  0  0  0  0
  161.1920  203.5330  152.2440 C   0  0  0  0  0  2  0  0  0  0  0  0
  160.6340  205.9680  152.4760 C   0  0  1  0  0  3  0  0  0  0  0  0
  162.5280  209.7290  154.0710 O   0  0  0  0  0  0  0  0  0  0  0  0
  161.6800  210.8260  154.2470 C   0  0  0  0  0  2  0  0  0  0  0  0
  160.4250  209.6600  157.2600 C   0  0  0  0  0  2  0  0  0  0  0  0
  162.4770  210.3530  156.5040 N   0  0  0  0  0  2  0  0  0  0  0  0
  161.4920  211.1000  155.7290 C   0  0  2  0  0  3  0  0  0  0  0  0
  161.8110  209.2610  157.0930 N   0  0  0  0  0  2  0  0  0  0  0  0
  160.1290  210.6310  156.1570 C   0  0  0  0  0  2  0  0  0  0  0  0
  1 26  1  1  0  0  0
  1 27  1  0  0  0  0
  2 14  1  0  0  0  0
  3 19  1  0  0  0  0
  4 23  1  0  0  0  0
  4 18  2  0  0  0  0
  5 15  1  0  0  0  0
  5 11  1  1  0  0  0
  7  3  2  0  0  0  0
  8 12  1  0  0  0  0
  9 27  1  0  0  0  0
  9 25  1  0  0  0  0
 10 17  1  0  0  0  0
 11 20  1  0  0  0  0
 12 15  1  0  0  0  0
 13  9  1  0  0  0  0
 15  4  1  0  0  0  0
 16  3  1  0  0  0  0
 16  8  1  0  0  0  0
 17 25  1  0  0  0  0
 17 28  1  0  0  0  0
 18  1  1  0  0  0  0
 19  6  1  0  0  0  0
 19  5  1  0  0  0  0
 20 18  1  0  0  0  0
 20 13  1  0  0  0  0
 21 26  1  0  0  0  0
 22 10  1  0  0  0  0
 23 21  1  0  0  0  0
 24 22  1  0  0  0  0
 24 13  1  0  0  0  0
 25 14  1  0  0  0  0
 27  2  1  0  0  0  0
 28 29  1  0  0  0  0
 29 32  1  0  0  0  0
 31 33  1  0  0  0  0
 32 34  1  0  0  0  0
 32 31  1  0  0  0  0
 33 30  1  0  0  0  0
 34 30  1  0  0  0  0
M  END
>  <MODEL>
1

>  <REMARK>
 VINA RESULT:      -8.9      0.000      0.000
  Name = 
  3 active torsions:
  status: ('A' for Active; 'I' for Inactive)
    1  A    between atoms: C_17  and  O_28
    2  A    between atoms: O_28  and  C_29
    3  A    between atoms: C_29  and  C_32
                            x       y       z     vdW  Elec       q    Type
                         _______ _______ _______ _____ _____    ______ ____

>  <TORSDO>
F 3

$$$$
=
 OpenBabel11122414223D

 34 40  0  0  1  0  0  0  0  0999 V2000
  161.3950  207.6210  149.3540 C   0  0  2  0  0  3  0  0  0  0  0  0
  161.9320  209.8370  150.3970 C   0  0  0  0  0  2  0  0  0  0  0  0
  160.1380  200.9600  149.9620 C   0  0  0  0  0  0  0  0  0  0  0  0
  161.3850  205.2290  148.5710 C   0  0  0  0  0  0  0  0  0  0  0  0
  160.3740  203.4520  150.0700 C   0  0  1  0  0  3  0  0  0  0  0  0
  162.0180  201.9590  151.0400 O   0  0  0  0  0  1  0  0  0  0  0  0
  159.2780  200.2070  150.4860 O   0  0  0  0  0  0  0  0  0  0  0  0
  161.5760  201.4420  147.9890 C   0  0  0  0  0  2  0  0  0  0  0  0
  162.2440  207.8580  151.7910 C   0  0  2  0  0  3  0  0  0  0  0  0
  160.8450  208.2970  154.6960 C   0  0  0  0  0  2  0  0  0  0  0  0
  160.2780  204.5690  151.1250 C   0  0  0  0  0  2  0  0  0  0  0  0
  161.1000  202.8580  147.7090 C   0  0  0  0  0  2  0  0  0  0  0  0
  161.2190  206.7280  152.0280 C   0  0  1  0  0  3  0  0  0  0  0  0
  162.3290  210.2950  151.7800 C   0  0  0  0  0  2  0  0  0  0  0  0
  161.3630  203.7520  148.9170 C   0  0  1  0  0  3  0  0  0  0  0  0
  160.5690  200.6920  148.6590 O   0  0  0  0  0  0  0  0  0  0  0  0
  160.7910  209.2040  153.4720 C   0  0  2  0  0  3  0  0  0  0  0  0
  161.4570  206.1210  149.5910 C   0  0  0  0  0  0  0  0  0  0  0  0
  160.6580  202.1170  150.7580 C   0  0  2  0  0  3  0  0  0  0  0  0
  161.4080  205.5980  151.0090 C   0  0  2  0  0  3  0  0  0  0  0  0
  160.9870  207.1220  146.9500 C   0  0  0  0  0  2  0  0  0  0  0  0
  160.3830  206.8850  154.3690 C   0  0  0  0  0  2  0  0  0  0  0  0
  161.4470  205.6820  147.1270 C   0  0  0  0  0  2  0  0  0  0  0  0
  161.3580  206.1790  153.4410 C   0  0  0  0  0  2  0  0  0  0  0  0
  162.1200  209.0990  152.6980 C   0  0  1  0  0  3  0  0  0  0  0  0
  161.7520  208.0050  147.9190 C   0  0  0  0  0  2  0  0  0  0  0  0
  162.2980  208.3690  150.3410 C   0  0  1  0  0  3  0  0  0  0  0  0
  160.5750  210.5150  153.9050 O   0  0  0  0  0  0  0  0  0  0  0  0
  160.1070  210.3850  155.2150 C   0  0  0  0  0  2  0  0  0  0  0  0
  157.7830  212.6440  153.9870 C   0  0  0  0  0  2  0  0  0  0  0  0
  157.7900  211.0320  155.6210 N   0  0  0  0  0  2  0  0  0  0  0  0
  159.1610  211.5270  155.5400 C   0  0  2  0  0  3  0  0  0  0  0  0
  157.1280  211.4310  154.4440 N   0  0  0  0  0  2  0  0  0  0  0  0
  159.2100  212.5480  154.4380 C   0  0  0  0  0  2  0  0  0  0  0  0
  1 26  1  6  0  0  0
  1 18  1  0  0  0  0
  1 27  1  0  0  0  0
  2 14  1  0  0  0  0
  3  7  2  0  0  0  0
  3 19  1  0  0  0  0
  4 15  1  0  0  0  0
  4 18  2  0  0  0  0
  5 19  1  0  0  0  0
  5 11  1  1  0  0  0
  8 16  1  0  0  0  0
  9 13  1  0  0  0  0
  9 25  1  0  0  0  0
 12  8  1  0  0  0  0
 12 15  1  0  0  0  0
 13 24  1  0  0  0  0
 14 25  1  0  0  0  0
 15  5  1  0  0  0  0
 16  3  1  0  0  0  0
 17 28  1  0  0  0  0
 17 10  1  0  0  0  0
 18 20  1  0  0  0  0
 19  6  1  0  0  0  0
 20 11  1  0  0  0  0
 20 13  1  0  0  0  0
 21 23  1  0  0  0  0
 21 26  1  0  0  0  0
 22 10  1  0  0  0  0
 23  4  1  0  0  0  0
 24 22  1  0  0  0  0
 25 17  1  0  0  0  0
 27  2  1  0  0  0  0
 27  9  1  0  0  0  0
 28 29  1  0  0  0  0
 29 32  1  0  0  0  0
 30 34  1  0  0  0  0
 30 33  1  0  0  0  0
 32 31  1  0  0  0  0
 33 31  1  0  0  0  0
 34 32  1  0  0  0  0
M  END
>  <MODEL>
2

>  <REMARK>
 VINA RESULT:      -8.7      2.594      4.269
  Name = 
  3 active torsions:
  status: ('A' for Active; 'I' for Inactive)
    1  A    between atoms: C_17  and  O_28
    2  A    between atoms: O_28  and  C_29
    3  A    between atoms: C_29  and  C_32
                            x       y       z     vdW  Elec       q    Type
                         _______ _______ _______ _____ _____    ______ ____

>  <TORSDO>
F 3

$$$$
=
 OpenBabel11122414223D

 34 40  0  0  1  0  0  0  0  0999 V2000
  161.4090  207.6850  149.3960 C   0  0  2  0  0  3  0  0  0  0  0  0
  161.9610  209.8860  150.4610 C   0  0  0  0  0  2  0  0  0  0  0  0
  160.0940  201.0300  149.9370 C   0  0  0  0  0  0  0  0  0  0  0  0
  161.3820  205.3010  148.5900 C   0  0  0  0  0  0  0  0  0  0  0  0
  160.3500  203.5180  150.0690 C   0  0  1  0  0  3  0  0  0  0  0  0
  161.9770  202.0020  151.0300 O   0  0  0  0  0  1  0  0  0  0  0  0
  159.2250  200.2790  150.4510 O   0  0  0  0  0  0  0  0  0  0  0  0
  161.5430  201.5170  147.9730 C   0  0  0  0  0  2  0  0  0  0  0  0
  162.2520  207.8920  151.8370 C   0  0  2  0  0  3  0  0  0  0  0  0
  160.8460  208.3160  154.7410 C   0  0  0  0  0  2  0  0  0  0  0  0
  160.2600  204.6270  151.1340 C   0  0  0  0  0  2  0  0  0  0  0  0
  161.0800  202.9400  147.7050 C   0  0  0  0  0  2  0  0  0  0  0  0
  161.2170  206.7690  152.0600 C   0  0  1  0  0  3  0  0  0  0  0  0
  162.3580  210.3290  151.8490 C   0  0  0  0  0  2  0  0  0  0  0  0
  161.3460  203.8210  148.9220 C   0  0  1  0  0  3  0  0  0  0  0  0
  160.5270  200.7700  148.6330 O   0  0  0  0  0  0  0  0  0  0  0  0
  160.8040  209.2340  153.5260 C   0  0  2  0  0  3  0  0  0  0  0  0
  161.4580  206.1830  149.6180 C   0  0  0  0  0  0  0  0  0  0  0  0
  160.6200  202.1750  150.7460 C   0  0  2  0  0  3  0  0  0  0  0  0
  161.3990  205.6470  151.0310 C   0  0  2  0  0  3  0  0  0  0  0  0
  161.0050  207.2120  146.9850 C   0  0  0  0  0  2  0  0  0  0  0  0
  160.3740  206.9110  154.4000 C   0  0  0  0  0  2  0  0  0  0  0  0
  161.4530  205.7660  147.1510 C   0  0  0  0  0  2  0  0  0  0  0  0
  161.3460  206.2050  153.4680 C   0  0  0  0  0  2  0  0  0  0  0  0
  162.1350  209.1260  152.7550 C   0  0  1  0  0  3  0  0  0  0  0  0
  161.7750  208.0800  147.9650 C   0  0  0  0  0  2  0  0  0  0  0  0
  162.3150  208.4160  150.3920 C   0  0  1  0  0  3  0  0  0  0  0  0
  160.5980  210.5430  153.9710 O   0  0  0  0  0  0  0  0  0  0  0  0
  159.4530  210.9730  153.2950 C   0  0  0  0  0  2  0  0  0  0  0  0
  158.5270  213.7020  151.3690 C   0  0  0  0  0  2  0  0  0  0  0  0
  158.1870  213.0440  153.5410 N   0  0  0  0  0  2  0  0  0  0  0  0
  159.4770  212.4850  153.1510 C   0  0  2  0  0  3  0  0  0  0  0  0
  157.5090  213.4040  152.3610 N   0  0  0  0  0  2  0  0  0  0  0  0
  159.7110  212.8470  151.7100 C   0  0  0  0  0  2  0  0  0  0  0  0
  1 26  1  6  0  0  0
  1 18  1  0  0  0  0
  1 27  1  0  0  0  0
  2 14  1  0  0  0  0
  3  7  2  0  0  0  0
  3 19  1  0  0  0  0
  4 15  1  0  0  0  0
  4 18  2  0  0  0  0
  5 19  1  0  0  0  0
  5 11  1  1  0  0  0
  8 16  1  0  0  0  0
  9 13  1  0  0  0  0
  9 25  1  0  0  0  0
 12  8  1  0  0  0  0
 12 15  1  0  0  0  0
 13 24  1  0  0  0  0
 14 25  1  0  0  0  0
 15  5  1  0  0  0  0
 16  3  1  0  0  0  0
 17 28  1  0  0  0  0
 17 10  1  0  0  0  0
 18 20  1  0  0  0  0
 19  6  1  0  0  0  0
 20 11  1  0  0  0  0
 20 13  1  0  0  0  0
 21 23  1  0  0  0  0
 21 26  1  0  0  0  0
 22 10  1  0  0  0  0
 23  4  1  0  0  0  0
 24 22  1  0  0  0  0
 25 17  1  0  0  0  0
 27  2  1  0  0  0  0
 27  9  1  0  0  0  0
 29 28  1  0  0  0  0
 30 34  1  0  0  0  0
 30 33  1  0  0  0  0
 32 29  1  0  0  0  0
 32 31  1  0  0  0  0
 33 31  1  0  0  0  0
 34 32  1  0  0  0  0
M  END
>  <MODEL>
3

>  <REMARK>
 VINA RESULT:      -8.5      2.883      4.563
  Name = 
  3 active torsions:
  status: ('A' for Active; 'I' for Inactive)
    1  A    between atoms: C_17  and  O_28
    2  A    between atoms: O_28  and  C_29
    3  A    between atoms: C_29  and  C_32
                            x       y       z     vdW  Elec       q    Type
                         _______ _______ _______ _____ _____    ______ ____

>  <TORSDO>
F 3

$$$$
=
 OpenBabel11122414223D

 34 40  0  0  1  0  0  0  0  0999 V2000
  161.8260  208.1740  149.4800 C   0  0  2  0  0  3  0  0  0  0  0  0
  161.5960  206.9480  147.3050 C   0  0  0  0  0  2  0  0  0  0  0  0
  161.2200  208.3390  156.2560 C   0  0  0  0  0  0  0  0  0  0  0  0
  161.4540  209.2960  151.7010 C   0  0  0  0  0  0  0  0  0  0  0  0
  161.5800  207.9020  153.8150 C   0  0  1  0  0  3  0  0  0  0  0  0
  159.4290  207.5700  154.8810 O   0  0  0  0  0  1  0  0  0  0  0  0
  161.7060  207.7580  157.2600 O   0  0  0  0  0  0  0  0  0  0  0  0
  160.5020  210.4860  155.2230 C   0  0  0  0  0  2  0  0  0  0  0  0
  160.4620  205.9850  149.2380 C   0  0  2  0  0  3  0  0  0  0  0  0
  161.1280  202.8070  149.4640 C   0  0  0  0  0  2  0  0  0  0  0  0
  161.6710  206.6920  152.8670 C   0  0  0  0  0  2  0  0  0  0  0  0
  161.3640  210.4280  153.9720 C   0  0  0  0  0  2  0  0  0  0  0  0
  161.0840  205.7020  150.6230 C   0  0  1  0  0  3  0  0  0  0  0  0
  160.9790  205.6370  146.8810 C   0  0  0  0  0  2  0  0  0  0  0  0
  161.0250  209.1870  153.1530 C   0  0  1  0  0  3  0  0  0  0  0  0
  161.0880  209.7310  156.2780 O   0  0  0  0  0  0  0  0  0  0  0  0
  161.7160  203.8320  148.5010 C   0  0  2  0  0  3  0  0  0  0  0  0
  161.3410  208.1930  150.9200 C   0  0  0  0  0  0  0  0  0  0  0  0
  160.8120  207.5100  155.0780 C   0  0  2  0  0  3  0  0  0  0  0  0
  160.8940  206.8990  151.5610 C   0  0  2  0  0  3  0  0  0  0  0  0
  162.7060  210.4730  149.8530 C   0  0  0  0  0  2  0  0  0  0  0  0
  161.3000  203.2370  150.9130 C   0  0  0  0  0  2  0  0  0  0  0  0
  161.8780  210.6290  151.1210 C   0  0  0  0  0  2  0  0  0  0  0  0
  160.4560  204.4580  151.2380 C   0  0  0  0  0  2  0  0  0  0  0  0
  160.6480  204.8920  148.1660 C   0  0  1  0  0  3  0  0  0  0  0  0
  161.9560  209.5760  148.8840 C   0  0  0  0  0  2  0  0  0  0  0  0
  160.9100  207.3130  148.6040 C   0  0  1  0  0  3  0  0  0  0  0  0
  162.1260  203.1640  147.3440 O   0  0  0  0  0  0  0  0  0  0  0  0
  161.1100  202.2390  147.0870 C   0  0  0  0  0  2  0  0  0  0  0  0
  159.1330  202.7700  144.2900 C   0  0  0  0  0  2  0  0  0  0  0  0
  161.2910  203.2760  144.8860 N   0  0  0  0  0  2  0  0  0  0  0  0
  160.9600  202.0410  145.5890 C   0  0  2  0  0  3  0  0  0  0  0  0
  160.0800  203.8580  144.4630 N   0  0  0  0  0  2  0  0  0  0  0  0
  159.5300  201.7060  145.2680 C   0  0  0  0  0  2  0  0  0  0  0  0
  1 26  1  6  0  0  0
  1 18  1  0  0  0  0
  2 27  1  0  0  0  0
  3 16  1  0  0  0  0
  3  7  2  0  0  0  0
  4 15  1  0  0  0  0
  5 11  1  6  0  0  0
  5 19  1  0  0  0  0
  6 19  1  0  0  0  0
  8 16  1  0  0  0  0
  9 13  1  0  0  0  0
 10 22  1  0  0  0  0
 12  8  1  0  0  0  0
 13 24  1  0  0  0  0
 13 20  1  0  0  0  0
 14  2  1  0  0  0  0
 14 25  1  0  0  0  0
 15  5  1  0  0  0  0
 15 12  1  0  0  0  0
 17 10  1  0  0  0  0
 18 20  1  0  0  0  0
 18  4  2  0  0  0  0
 19  3  1  0  0  0  0
 20 11  1  0  0  0  0
 21 23  1  0  0  0  0
 22 24  1  0  0  0  0
 23  4  1  0  0  0  0
 25 17  1  0  0  0  0
 25  9  1  0  0  0  0
 26 21  1  0  0  0  0
 27  9  1  0  0  0  0
 27  1  1  0  0  0  0
 28 17  1  0  0  0  0
 29 28  1  0  0  0  0
 30 33  1  0  0  0  0
 30 34  1  0  0  0  0
 31 32  1  0  0  0  0
 32 29  1  0  0  0  0
 33 31  1  0  0  0  0
 34 32  1  0  0  0  0
M  END
>  <MODEL>
4

>  <REMARK>
 VINA RESULT:      -8.0      3.659      9.091
  Name = 
  3 active torsions:
  status: ('A' for Active; 'I' for Inactive)
    1  A    between atoms: C_17  and  O_28
    2  A    between atoms: O_28  and  C_29
    3  A    between atoms: C_29  and  C_32
                            x       y       z     vdW  Elec       q    Type
                         _______ _______ _______ _____ _____    ______ ____

>  <TORSDO>
F 3

$$$$
=
 OpenBabel11122414223D

 34 40  0  0  1  0  0  0  0  0999 V2000
  161.4550  208.4070  150.5120 C   0  0  2  0  0  3  0  0  0  0  0  0
  161.8420  210.3590  152.0370 C   0  0  0  0  0  2  0  0  0  0  0  0
  160.1860  201.7820  149.6080 C   0  0  0  0  0  0  0  0  0  0  0  0
  161.5610  206.2220  149.2680 C   0  0  0  0  0  0  0  0  0  0  0  0
  160.3870  204.1970  150.2430 C   0  0  1  0  0  3  0  0  0  0  0  0
  161.9100  202.5120  151.0860 O   0  0  0  0  0  1  0  0  0  0  0  0
  159.2730  200.9540  149.8600 O   0  0  0  0  0  0  0  0  0  0  0  0
  161.8530  202.6250  147.9630 C   0  0  0  0  0  2  0  0  0  0  0  0
  161.9960  208.1360  153.0310 C   0  0  2  0  0  3  0  0  0  0  0  0
  160.2450  208.0060  155.7720 C   0  0  0  0  0  2  0  0  0  0  0  0
  160.1520  205.0820  151.4820 C   0  0  0  0  0  2  0  0  0  0  0  0
  161.4040  204.0770  147.9180 C   0  0  0  0  0  2  0  0  0  0  0  0
  160.9580  206.9990  152.9080 C   0  0  1  0  0  3  0  0  0  0  0  0
  162.0620  210.5240  153.5220 C   0  0  0  0  0  2  0  0  0  0  0  0
  161.5080  204.7060  149.3050 C   0  0  1  0  0  3  0  0  0  0  0  0
  160.7760  201.7730  148.3400 O   0  0  0  0  0  0  0  0  0  0  0  0
  160.3350  209.1410  154.7580 C   0  0  2  0  0  3  0  0  0  0  0  0
  161.5000  206.8900  150.4470 C   0  0  0  0  0  0  0  0  0  0  0  0
  160.5940  202.7470  150.6780 C   0  0  2  0  0  3  0  0  0  0  0  0
  161.2800  206.0930  151.7140 C   0  0  2  0  0  3  0  0  0  0  0  0
  161.3510  208.4080  148.0250 C   0  0  0  0  0  2  0  0  0  0  0  0
  159.8380  206.6970  155.1130 C   0  0  0  0  0  2  0  0  0  0  0  0
  161.7980  206.9540  147.9630 C   0  0  0  0  0  2  0  0  0  0  0  0
  160.9260  206.1750  154.1890 C   0  0  0  0  0  2  0  0  0  0  0  0
  161.7500  209.1720  154.1470 C   0  0  1  0  0  3  0  0  0  0  0  0
  161.9840  209.0660  149.2380 C   0  0  0  0  0  2  0  0  0  0  0  0
  162.2240  208.9260  151.7310 C   0  0  1  0  0  3  0  0  0  0  0  0
  160.0570  210.3420  155.4170 O   0  0  0  0  0  0  0  0  0  0  0  0
  158.6830  210.5310  155.2490 C   0  0  0  0  0  2  0  0  0  0  0  0
  158.5110  213.6610  153.7700 C   0  0  0  0  0  2  0  0  0  0  0  0
  157.0300  212.2810  154.8500 N   0  0  0  0  0  2  0  0  0  0  0  0
  158.3380  211.9980  155.4320 C   0  0  2  0  0  3  0  0  0  0  0  0
  157.2470  212.9600  153.6350 N   0  0  0  0  0  2  0  0  0  0  0  0
  159.3480  212.8450  154.7090 C   0  0  0  0  0  2  0  0  0  0  0  0
  1 26  1  6  0  0  0
  1 27  1  0  0  0  0
  2 14  1  0  0  0  0
  3  7  2  0  0  0  0
  3 19  1  0  0  0  0
  4 15  1  0  0  0  0
  4 18  2  0  0  0  0
  5 19  1  0  0  0  0
  5 11  1  1  0  0  0
  8 16  1  0  0  0  0
  9 25  1  0  0  0  0
 11 20  1  0  0  0  0
 12  8  1  0  0  0  0
 12 15  1  0  0  0  0
 13  9  1  0  0  0  0
 13 24  1  0  0  0  0
 14 25  1  0  0  0  0
 15  5  1  0  0  0  0
 16  3  1  0  0  0  0
 17 28  1  0  0  0  0
 17 10  1  0  0  0  0
 18  1  1  0  0  0  0
 18 20  1  0  0  0  0
 19  6  1  0  0  0  0
 20 13  1  0  0  0  0
 21 26  1  0  0  0  0
 22 10  1  0  0  0  0
 23 21  1  0  0  0  0
 23  4  1  0  0  0  0
 24 22  1  0  0  0  0
 25 17  1  0  0  0  0
 27  2  1  0  0  0  0
 27  9  1  0  0  0  0
 29 28  1  0  0  0  0
 29 32  1  0  0  0  0
 30 34  1  0  0  0  0
 31 32  1  0  0  0  0
 33 30  1  0  0  0  0
 33 31  1  0  0  0  0
 34 32  1  0  0  0  0
M  END
>  <MODEL>
5

>  <REMARK>
 VINA RESULT:      -7.6      2.691      4.435
  Name = 
  3 active torsions:
  status: ('A' for Active; 'I' for Inactive)
    1  A    between atoms: C_17  and  O_28
    2  A    between atoms: O_28  and  C_29
    3  A    between atoms: C_29  and  C_32
                            x       y       z     vdW  Elec       q    Type
                         _______ _______ _______ _____ _____    ______ ____

>  <TORSDO>
F 3

$$$$
=
 OpenBabel11122414223D

 34 40  0  0  1  0  0  0  0  0999 V2000
  161.0980  210.1810  151.1210 C   0  0  2  0  0  3  0  0  0  0  0  0
  162.1680  210.5740  148.8880 C   0  0  0  0  0  2  0  0  0  0  0  0
  157.2860  212.3850  156.3100 C   0  0  0  0  0  0  0  0  0  0  0  0
  160.3670  210.2680  153.5270 C   0  0  0  0  0  0  0  0  0  0  0  0
  158.4210  211.7640  154.1650 C   0  0  1  0  0  3  0  0  0  0  0  0
  159.0790  213.7060  155.4560 O   0  0  0  0  0  1  0  0  0  0  0  0
  156.1030  212.7600  156.5180 O   0  0  0  0  0  0  0  0  0  0  0  0
  159.2330  211.0560  157.1070 C   0  0  0  0  0  2  0  0  0  0  0  0
  161.3510  212.5400  150.0800 C   0  0  2  0  0  3  0  0  0  0  0  0
  159.5620  214.3960  148.0940 C   0  0  0  0  0  2  0  0  0  0  0  0
  158.5040  212.2840  152.7180 C   0  0  0  0  0  2  0  0  0  0  0  0
  159.4180  210.1780  155.8810 C   0  0  0  0  0  2  0  0  0  0  0  0
  159.9480  212.7250  150.6970 C   0  0  1  0  0  3  0  0  0  0  0  0
  162.3600  211.7770  147.9950 C   0  0  0  0  0  2  0  0  0  0  0  0
  159.6990  211.0370  154.6520 C   0  0  1  0  0  3  0  0  0  0  0  0
  157.8850  211.5020  157.2130 O   0  0  0  0  0  0  0  0  0  0  0  0
  160.1590  213.0200  147.8220 C   0  0  2  0  0  3  0  0  0  0  0  0
  160.5230  210.8930  152.3340 C   0  0  0  0  0  0  0  0  0  0  0  0
  157.9960  212.8990  155.0960 C   0  0  2  0  0  3  0  0  0  0  0  0
  159.9330  212.2760  152.1630 C   0  0  2  0  0  3  0  0  0  0  0  0
  161.1300  208.1000  152.4860 C   0  0  0  0  0  2  0  0  0  0  0  0
  158.6910  214.3940  149.3400 C   0  0  0  0  0  2  0  0  0  0  0  0
  160.9470  208.8920  153.7740 C   0  0  0  0  0  2  0  0  0  0  0  0
  159.5170  214.1820  150.5990 C   0  0  0  0  0  2  0  0  0  0  0  0
  161.4920  212.8810  148.5820 C   0  0  1  0  0  3  0  0  0  0  0  0
  161.9130  208.9440  151.4970 C   0  0  0  0  0  2  0  0  0  0  0  0
  161.9480  211.1360  150.2760 C   0  0  1  0  0  3  0  0  0  0  0  0
  160.3610  212.8930  146.4450 O   0  0  0  0  0  0  0  0  0  0  0  0
  160.1550  214.1760  145.9330 C   0  0  0  0  0  2  0  0  0  0  0  0
  162.0430  212.6550  143.4560 C   0  0  0  0  0  2  0  0  0  0  0  0
  160.2110  214.0370  143.4980 N   0  0  0  0  0  2  0  0  0  0  0  0
  160.9940  214.3730  144.6830 C   0  0  2  0  0  3  0  0  0  0  0  0
  160.6570  212.7830  143.0400 N   0  0  0  0  0  2  0  0  0  0  0  0
  162.1780  213.4470  144.7220 C   0  0  0  0  0  2  0  0  0  0  0  0
  1 26  1  1  0  0  0
  1 18  1  0  0  0  0
  2 27  1  0  0  0  0
  3  7  2  0  0  0  0
  3 16  1  0  0  0  0
  4 23  1  0  0  0  0
  4 15  1  0  0  0  0
  5 11  1  6  0  0  0
  5 15  1  0  0  0  0
  5 19  1  0  0  0  0
  8 16  1  0  0  0  0
  9 27  1  0  0  0  0
  9 13  1  0  0  0  0
 10 22  1  0  0  0  0
 12  8  1  0  0  0  0
 13 20  1  0  0  0  0
 14 25  1  0  0  0  0
 14  2  1  0  0  0  0
 15 12  1  0  0  0  0
 17 10  1  0  0  0  0
 17 25  1  0  0  0  0
 18  4  2  0  0  0  0
 19  6  1  0  0  0  0
 19  3  1  0  0  0  0
 20 18  1  0  0  0  0
 20 11  1  0  0  0  0
 21 23  1  0  0  0  0
 22 24  1  0  0  0  0
 24 13  1  0  0  0  0
 25  9  1  0  0  0  0
 26 21  1  0  0  0  0
 27  1  1  0  0  0  0
 28 17  1  0  0  0  0
 29 28  1  0  0  0  0
 30 34  1  0  0  0  0
 31 32  1  0  0  0  0
 32 34  1  0  0  0  0
 32 29  1  0  0  0  0
 33 30  1  0  0  0  0
 33 31  1  0  0  0  0
M  END
>  <MODEL>
6

>  <REMARK>
 VINA RESULT:      -6.0      5.700      9.799
  Name = 
  3 active torsions:
  status: ('A' for Active; 'I' for Inactive)
    1  A    between atoms: C_17  and  O_28
    2  A    between atoms: O_28  and  C_29
    3  A    between atoms: C_29  and  C_32
                            x       y       z     vdW  Elec       q    Type
                         _______ _______ _______ _____ _____    ______ ____

>  <TORSDO>
F 3

$$$$
