=
 OpenBabel11122412353D

 30 35  0  0  1  0  0  0  0  0999 V2000
  161.3640  205.9160  150.0870 C   0  0  0  0  0  0  0  0  0  0  0  0
  161.0370  203.4240  149.9650 C   0  0  0  0  0  0  0  0  0  0  0  0
  161.1160  205.8340  154.2780 N   0  0  0  0  0  0  0  0  0  0  0  0
  161.4530  207.0940  150.8890 C   0  0  0  0  0  0  0  0  0  0  0  0
  161.4950  206.0480  148.6980 C   0  0  0  0  0  3  0  0  0  0  0  0
  161.9320  209.6850  148.2720 O   0  0  0  0  0  1  0  0  0  0  0  0
  160.4160  209.7770  152.0100 C   0  0  1  0  0  3  0  0  0  0  0  0
  161.7530  208.4450  148.8810 C   0  0  0  0  0  0  0  0  0  0  0  0
  160.4560  209.0110  153.2780 N   0  0  2  0  0  0  0  0  0  0  0  0
  161.3050  207.0840  154.5580 C   0  0  0  0  0  0  0  0  0  0  0  0
  161.6970  207.2870  148.0960 C   0  0  0  0  0  0  0  0  0  0  0  0
  161.6260  208.3610  150.2770 C   0  0  0  0  0  0  0  0  0  0  0  0
  160.8310  202.2120  150.6300 C   0  0  0  0  0  3  0  0  0  0  0  0
  160.7010  210.0100  154.3110 C   0  0  0  0  0  2  0  0  0  0  0  0
  160.1720  211.2380  152.3400 C   0  0  0  0  0  2  0  0  0  0  0  0
  161.1280  203.3880  148.5770 O   0  0  0  0  0  1  0  0  0  0  0  0
  161.1430  205.7360  152.8650 C   0  0  0  0  0  0  0  0  0  0  0  0
  160.7290  202.1680  152.0180 C   0  0  0  0  0  3  0  0  0  0  0  0
  161.1470  204.6370  150.6990 C   0  0  0  0  0  0  0  0  0  0  0  0
  161.3450  206.9550  152.2790 C   0  0  0  0  0  0  0  0  0  0  0  0
  161.4030  207.5380  155.9050 N   0  0  0  0  0  1  0  0  0  0  0  0
  161.5050  207.9810  153.3560 C   0  0  1  0  0  3  0  0  0  0  0  0
  160.0750  211.2990  153.8410 C   0  0  0  0  0  2  0  0  0  0  0  0
  162.9830  209.9530  151.6950 C   0  0  0  0  0  1  0  0  0  0  0  0
  160.8310  203.3410  152.7610 C   0  0  0  0  0  3  0  0  0  0  0  0
  161.0350  204.5660  152.1190 C   0  0  0  0  0  0  0  0  0  0  0  0
  161.6300  209.6420  151.0670 C   0  0  2  0  0  3  0  0  0  0  0  0
  161.8140  207.3610  146.6070 C   0  0  0  0  0  2  0  0  0  0  0  0
  160.4570  205.8290  145.1740 C   0  0  0  0  0  1  0  0  0  0  0  0
  161.7350  205.9770  145.9780 C   0  0  0  0  0  2  0  0  0  0  0  0
  1 19  2  0  0  0  0
  1  4  1  0  0  0  0
  2 13  2  0  0  0  0
  2 19  1  0  0  0  0
  3 10  2  0  0  0  0
  4 20  2  0  0  0  0
  5  1  1  0  0  0  0
  6  8  1  0  0  0  0
  7 15  1  1  0  0  0
  7  9  1  0  0  0  0
  8 12  2  0  0  0  0
  9 22  1  0  0  0  0
  9 14  1  1  0  0  0
 10 21  1  0  0  0  0
 11  5  2  0  0  0  0
 11  8  1  0  0  0  0
 12  4  1  0  0  0  0
 12 27  1  0  0  0  0
 13 18  1  0  0  0  0
 15 23  1  0  0  0  0
 16  2  1  0  0  0  0
 17  3  1  0  0  0  0
 18 25  2  0  0  0  0
 19 26  1  0  0  0  0
 20 17  1  0  0  0  0
 22 20  1  6  0  0  0
 22 10  1  0  0  0  0
 23 14  1  0  0  0  0
 26 25  1  0  0  0  0
 26 17  2  0  0  0  0
 27 24  1  1  0  0  0
 27  7  1  0  0  0  0
 28 11  1  0  0  0  0
 29 30  1  0  0  0  0
 30 28  1  0  0  0  0
M  END
>  <MODEL>
1

>  <REMARK>
 VINA RESULT:      -8.1      0.000      0.000
  Name = 
  2 active torsions:
  status: ('A' for Active; 'I' for Inactive)
    1  A    between atoms: C_11  and  C_28
    2  A    between atoms: C_28  and  C_30
                            x       y       z     vdW  Elec       q    Type
                         _______ _______ _______ _____ _____    ______ ____

>  <TORSDO>
F 2

$$$$
=
 OpenBabel11122412353D

 30 35  0  0  1  0  0  0  0  0999 V2000
  161.4510  207.8770  151.4620 C   0  0  0  0  0  0  0  0  0  0  0  0
  161.5930  210.3310  150.9190 C   0  0  0  0  0  0  0  0  0  0  0  0
  162.2850  206.8540  147.4760 N   0  0  0  0  0  0  0  0  0  0  0  0
  161.5080  206.5240  151.0080 C   0  0  0  0  0  0  0  0  0  0  0  0
  161.2000  208.1110  152.8210 C   0  0  0  0  0  3  0  0  0  0  0  0
  160.8030  204.6990  154.1640 O   0  0  0  0  0  1  0  0  0  0  0  0
  160.2870  203.7890  150.2680 C   0  0  1  0  0  3  0  0  0  0  0  0
  161.0270  205.7400  153.2660 C   0  0  0  0  0  0  0  0  0  0  0  0
  160.7920  204.1720  148.9280 N   0  0  2  0  0  0  0  0  0  0  0  0
  162.2930  205.5610  147.5520 C   0  0  0  0  0  0  0  0  0  0  0  0
  161.0000  207.0650  153.7180 C   0  0  0  0  0  0  0  0  0  0  0  0
  161.2730  205.4590  151.9120 C   0  0  0  0  0  0  0  0  0  0  0  0
  161.8000  211.3330  149.9680 C   0  0  0  0  0  3  0  0  0  0  0  0
  161.0900  202.9080  148.2640 C   0  0  0  0  0  2  0  0  0  0  0  0
  159.8560  202.3340  150.2180 C   0  0  0  0  0  2  0  0  0  0  0  0
  161.3380  210.7280  152.2270 O   0  0  0  0  0  1  0  0  0  0  0  0
  161.9740  207.3260  148.7750 C   0  0  0  0  0  0  0  0  0  0  0  0
  162.0610  211.0120  148.6380 C   0  0  0  0  0  3  0  0  0  0  0  0
  161.6470  208.9600  150.5420 C   0  0  0  0  0  0  0  0  0  0  0  0
  161.7820  206.2960  149.6540 C   0  0  0  0  0  0  0  0  0  0  0  0
  162.6360  204.7510  146.4320 N   0  0  0  0  0  1  0  0  0  0  0  0
  162.0060  205.0050  148.9310 C   0  0  1  0  0  3  0  0  0  0  0  0
  160.1290  201.8820  148.8090 C   0  0  0  0  0  2  0  0  0  0  0  0
  162.6080  203.3880  151.3500 C   0  0  0  0  0  1  0  0  0  0  0  0
  162.1170  209.6800  148.2410 C   0  0  0  0  0  3  0  0  0  0  0  0
  161.9110  208.6580  149.1740 C   0  0  0  0  0  0  0  0  0  0  0  0
  161.2270  204.0220  151.4680 C   0  0  2  0  0  3  0  0  0  0  0  0
  160.7230  207.3830  155.1540 C   0  0  0  0  0  2  0  0  0  0  0  0
  161.9720  208.8800  156.7160 C   0  0  0  0  0  1  0  0  0  0  0  0
  161.0930  208.8220  155.4810 C   0  0  0  0  0  2  0  0  0  0  0  0
  1  5  2  0  0  0  0
  2 16  1  0  0  0  0
  3 10  2  0  0  0  0
  3 17  1  0  0  0  0
  4  1  1  0  0  0  0
  4 12  2  0  0  0  0
  5 11  1  0  0  0  0
  7 15  1  6  0  0  0
  7 27  1  0  0  0  0
  8 11  2  0  0  0  0
  8  6  1  0  0  0  0
  9 14  1  6  0  0  0
  9 22  1  0  0  0  0
  9  7  1  0  0  0  0
 11 28  1  0  0  0  0
 12  8  1  0  0  0  0
 13  2  2  0  0  0  0
 14 23  1  0  0  0  0
 17 26  1  0  0  0  0
 17 20  2  0  0  0  0
 18 13  1  0  0  0  0
 19  2  1  0  0  0  0
 19  1  1  0  0  0  0
 20  4  1  0  0  0  0
 21 10  1  0  0  0  0
 22 10  1  6  0  0  0
 22 20  1  0  0  0  0
 23 15  1  0  0  0  0
 25 18  2  0  0  0  0
 25 26  1  0  0  0  0
 26 19  2  0  0  0  0
 27 24  1  6  0  0  0
 27 12  1  0  0  0  0
 28 30  1  0  0  0  0
 30 29  1  0  0  0  0
M  END
>  <MODEL>
2

>  <REMARK>
 VINA RESULT:      -7.2      2.826      7.244
  Name = 
  2 active torsions:
  status: ('A' for Active; 'I' for Inactive)
    1  A    between atoms: C_11  and  C_28
    2  A    between atoms: C_28  and  C_30
                            x       y       z     vdW  Elec       q    Type
                         _______ _______ _______ _____ _____    ______ ____

>  <TORSDO>
F 2

$$$$
=
 OpenBabel11122412353D

 30 35  0  0  1  0  0  0  0  0999 V2000
  161.4330  207.6530  150.8330 C   0  0  0  0  0  0  0  0  0  0  0  0
  161.3650  205.4010  149.7110 C   0  0  0  0  0  0  0  0  0  0  0  0
  160.6500  205.9130  154.5740 N   0  0  0  0  0  0  0  0  0  0  0  0
  161.3030  208.4220  152.0290 C   0  0  0  0  0  0  0  0  0  0  0  0
  161.7300  208.3270  149.6410 C   0  0  0  0  0  3  0  0  0  0  0  0
  161.8680  211.8510  150.7220 O   0  0  0  0  0  1  0  0  0  0  0  0
  159.8770  210.4020  153.9180 C   0  0  1  0  0  3  0  0  0  0  0  0
  161.7310  210.4650  150.7710 C   0  0  0  0  0  0  0  0  0  0  0  0
  159.8240  209.2000  154.7830 N   0  0  2  0  0  0  0  0  0  0  0  0
  160.6810  206.9570  155.3400 C   0  0  0  0  0  0  0  0  0  0  0  0
  161.8890  209.7100  149.6030 C   0  0  0  0  0  0  0  0  0  0  0  0
  161.4320  209.8320  151.9880 C   0  0  0  0  0  0  0  0  0  0  0  0
  161.1910  204.0190  149.8170 C   0  0  0  0  0  3  0  0  0  0  0  0
  159.8360  209.7190  156.1460 C   0  0  0  0  0  2  0  0  0  0  0  0
  159.4530  211.6040  154.7430 C   0  0  0  0  0  2  0  0  0  0  0  0
  161.6390  205.9200  148.4500 O   0  0  0  0  0  1  0  0  0  0  0  0
  160.8700  206.3830  153.2550 C   0  0  0  0  0  0  0  0  0  0  0  0
  160.9150  203.4260  151.0470 C   0  0  0  0  0  3  0  0  0  0  0  0
  161.2610  206.2290  150.8630 C   0  0  0  0  0  0  0  0  0  0  0  0
  161.0290  207.7400  153.2230 C   0  0  0  0  0  0  0  0  0  0  0  0
  160.5590  206.8460  156.7540 N   0  0  0  0  0  1  0  0  0  0  0  0
  160.9480  208.2630  154.6220 C   0  0  1  0  0  3  0  0  0  0  0  0
  159.1560  211.0640  156.1160 C   0  0  0  0  0  2  0  0  0  0  0  0
  162.4340  210.7840  154.1040 C   0  0  0  0  0  1  0  0  0  0  0  0
  160.8060  204.2130  152.1900 C   0  0  0  0  0  3  0  0  0  0  0  0
  160.9730  205.5990  152.1090 C   0  0  0  0  0  0  0  0  0  0  0  0
  161.2100  210.6960  153.2000 C   0  0  2  0  0  3  0  0  0  0  0  0
  162.1910  210.3700  148.2940 C   0  0  0  0  0  2  0  0  0  0  0  0
  161.7860  212.6290  147.3070 C   0  0  0  0  0  1  0  0  0  0  0  0
  161.1400  211.4150  147.9480 C   0  0  0  0  0  2  0  0  0  0  0  0
  1 19  2  0  0  0  0
  1  4  1  0  0  0  0
  2 13  2  0  0  0  0
  2 19  1  0  0  0  0
  3 10  2  0  0  0  0
  4 20  2  0  0  0  0
  5  1  1  0  0  0  0
  6  8  1  0  0  0  0
  7 15  1  1  0  0  0
  7  9  1  0  0  0  0
  8 12  2  0  0  0  0
  9 14  1  1  0  0  0
 10 21  1  0  0  0  0
 11  5  2  0  0  0  0
 11  8  1  0  0  0  0
 12  4  1  0  0  0  0
 12 27  1  0  0  0  0
 13 18  1  0  0  0  0
 15 23  1  0  0  0  0
 16  2  1  0  0  0  0
 17  3  1  0  0  0  0
 18 25  2  0  0  0  0
 19 26  1  0  0  0  0
 20 17  1  0  0  0  0
 22 20  1  6  0  0  0
 22  9  1  0  0  0  0
 22 10  1  0  0  0  0
 23 14  1  0  0  0  0
 26 25  1  0  0  0  0
 26 17  2  0  0  0  0
 27  7  1  0  0  0  0
 27 24  1  1  0  0  0
 28 11  1  0  0  0  0
 29 30  1  0  0  0  0
 30 28  1  0  0  0  0
M  END
>  <MODEL>
3

>  <REMARK>
 VINA RESULT:      -6.7      1.769      2.638
  Name = 
  2 active torsions:
  status: ('A' for Active; 'I' for Inactive)
    1  A    between atoms: C_11  and  C_28
    2  A    between atoms: C_28  and  C_30
                            x       y       z     vdW  Elec       q    Type
                         _______ _______ _______ _____ _____    ______ ____

>  <TORSDO>
F 2

$$$$
=
 OpenBabel11122412353D

 30 35  0  0  1  0  0  0  0  0999 V2000
  161.4920  208.0910  151.2210 C   0  0  0  0  0  0  0  0  0  0  0  0
  161.4300  208.2990  153.7290 C   0  0  0  0  0  0  0  0  0  0  0  0
  160.5450  204.0060  151.4460 N   0  0  0  0  0  0  0  0  0  0  0  0
  161.3770  207.2610  150.0650 C   0  0  0  0  0  0  0  0  0  0  0  0
  161.7770  209.4500  151.0360 C   0  0  0  0  0  3  0  0  0  0  0  0
  162.0760  209.7170  147.3690 O   0  0  0  0  0  1  0  0  0  0  0  0
  162.4830  205.7120  147.6360 C   0  0  1  0  0  3  0  0  0  0  0  0
  161.8720  209.1730  148.6350 C   0  0  0  0  0  0  0  0  0  0  0  0
  161.9670  204.5600  148.4130 N   0  0  2  0  0  0  0  0  0  0  0  0
  160.4920  203.6990  150.1890 C   0  0  0  0  0  0  0  0  0  0  0  0
  161.9560  209.9940  149.7660 C   0  0  0  0  0  0  0  0  0  0  0  0
  161.5900  207.8040  148.7740 C   0  0  0  0  0  0  0  0  0  0  0  0
  161.2420  207.6910  154.9730 C   0  0  0  0  0  3  0  0  0  0  0  0
  161.6090  203.5620  147.4110 C   0  0  0  0  0  2  0  0  0  0  0  0
  162.8600  205.2240  146.2490 C   0  0  0  0  0  2  0  0  0  0  0  0
  161.7240  209.6580  153.7150 O   0  0  0  0  0  1  0  0  0  0  0  0
  160.8980  205.3770  151.5040 C   0  0  0  0  0  0  0  0  0  0  0  0
  160.9440  206.3340  155.0680 C   0  0  0  0  0  3  0  0  0  0  0  0
  161.3190  207.5360  152.5330 C   0  0  0  0  0  0  0  0  0  0  0  0
  161.0690  205.9070  150.2550 C   0  0  0  0  0  0  0  0  0  0  0  0
  160.0980  202.4000  149.7570 N   0  0  0  0  0  1  0  0  0  0  0  0
  160.7840  204.8430  149.2420 C   0  0  1  0  0  3  0  0  0  0  0  0
  162.5430  203.7520  146.2410 C   0  0  0  0  0  2  0  0  0  0  0  0
  160.1700  206.6960  147.0010 C   0  0  0  0  0  1  0  0  0  0  0  0
  160.8320  205.5650  153.9130 C   0  0  0  0  0  3  0  0  0  0  0  0
  161.0170  206.1480  152.6560 C   0  0  0  0  0  0  0  0  0  0  0  0
  161.5750  206.9540  147.5320 C   0  0  2  0  0  3  0  0  0  0  0  0
  162.2720  211.4500  149.6380 C   0  0  0  0  0  2  0  0  0  0  0  0
  161.1250  213.0880  148.1400 C   0  0  0  0  0  1  0  0  0  0  0  0
  161.0100  212.2710  149.4130 C   0  0  0  0  0  2  0  0  0  0  0  0
  1 19  1  0  0  0  0
  2 13  1  0  0  0  0
  3 17  1  0  0  0  0
  4 20  1  0  0  0  0
  4  1  2  0  0  0  0
  5  1  1  0  0  0  0
  6  8  1  0  0  0  0
  7 15  1  6  0  0  0
  7  9  1  0  0  0  0
  8 12  2  0  0  0  0
  8 11  1  0  0  0  0
  9 14  1  6  0  0  0
  9 22  1  0  0  0  0
 10  3  2  0  0  0  0
 11  5  2  0  0  0  0
 12  4  1  0  0  0  0
 13 18  2  0  0  0  0
 16  2  1  0  0  0  0
 17 26  1  0  0  0  0
 19 26  1  0  0  0  0
 19  2  2  0  0  0  0
 20 17  2  0  0  0  0
 21 10  1  0  0  0  0
 22 10  1  1  0  0  0
 22 20  1  0  0  0  0
 23 15  1  0  0  0  0
 23 14  1  0  0  0  0
 25 18  1  0  0  0  0
 26 25  2  0  0  0  0
 27 24  1  1  0  0  0
 27  7  1  0  0  0  0
 27 12  1  0  0  0  0
 28 11  1  0  0  0  0
 29 30  1  0  0  0  0
 30 28  1  0  0  0  0
M  END
>  <MODEL>
4

>  <REMARK>
 VINA RESULT:      -6.3      2.458      5.655
  Name = 
  2 active torsions:
  status: ('A' for Active; 'I' for Inactive)
    1  A    between atoms: C_11  and  C_28
    2  A    between atoms: C_28  and  C_30
                            x       y       z     vdW  Elec       q    Type
                         _______ _______ _______ _____ _____    ______ ____

>  <TORSDO>
F 2

$$$$
=
 OpenBabel11122412353D

 30 35  0  0  1  0  0  0  0  0999 V2000
  161.1880  208.9770  151.9020 C   0  0  0  0  0  0  0  0  0  0  0  0
  162.0660  209.0260  149.5440 C   0  0  0  0  0  0  0  0  0  0  0  0
  160.1160  213.0310  151.6850 N   0  0  0  0  0  0  0  0  0  0  0  0
  160.6000  209.6790  152.9970 C   0  0  0  0  0  0  0  0  0  0  0  0
  161.4760  207.6150  152.0650 C   0  0  0  0  0  3  0  0  0  0  0  0
  160.4220  206.9810  155.5430 O   0  0  0  0  0  1  0  0  0  0  0  0
  160.6270  211.0030  155.7850 C   0  0  1  0  0  3  0  0  0  0  0  0
  160.6630  207.6460  154.3420 C   0  0  0  0  0  0  0  0  0  0  0  0
  160.3570  212.2120  154.9710 N   0  0  2  0  0  0  0  0  0  0  0  0
  159.5840  213.2050  152.8530 C   0  0  0  0  0  0  0  0  0  0  0  0
  161.2110  206.9490  153.2600 C   0  0  0  0  0  0  0  0  0  0  0  0
  160.3600  209.0130  154.2240 C   0  0  0  0  0  0  0  0  0  0  0  0
  162.3090  209.7520  148.3750 C   0  0  0  0  0  3  0  0  0  0  0  0
  159.5900  213.0890  155.8480 C   0  0  0  0  0  2  0  0  0  0  0  0
  160.4340  211.3570  157.2480 C   0  0  0  0  0  2  0  0  0  0  0  0
  162.4260  207.6830  149.5520 O   0  0  0  0  0  1  0  0  0  0  0  0
  160.5580  211.6850  151.6480 C   0  0  0  0  0  0  0  0  0  0  0  0
  161.9750  211.1020  148.2910 C   0  0  0  0  0  3  0  0  0  0  0  0
  161.4720  209.6570  150.6720 C   0  0  0  0  0  0  0  0  0  0  0  0
  160.2920  211.0340  152.8210 C   0  0  0  0  0  0  0  0  0  0  0  0
  158.9720  214.4390  153.2140 N   0  0  0  0  0  1  0  0  0  0  0  0
  159.5840  211.9790  153.7400 C   0  0  1  0  0  3  0  0  0  0  0  0
  160.0380  212.8090  157.2610 C   0  0  0  0  0  2  0  0  0  0  0  0
  158.3150  209.8870  155.4270 C   0  0  0  0  0  1  0  0  0  0  0  0
  161.3950  211.7450  149.3800 C   0  0  0  0  0  3  0  0  0  0  0  0
  161.1440  211.0410  150.5620 C   0  0  0  0  0  0  0  0  0  0  0  0
  159.8310  209.7280  155.4380 C   0  0  2  0  0  3  0  0  0  0  0  0
  161.5560  205.4970  153.3740 C   0  0  0  0  0  2  0  0  0  0  0  0
  160.8070  203.5400  152.0140 C   0  0  0  0  0  1  0  0  0  0  0  0
  161.6010  204.8330  152.0050 C   0  0  0  0  0  2  0  0  0  0  0  0
  1  5  2  0  0  0  0
  1  4  1  0  0  0  0
  2 16  1  0  0  0  0
  2 19  1  0  0  0  0
  3 10  2  0  0  0  0
  4 12  2  0  0  0  0
  5 11  1  0  0  0  0
  7 15  1  1  0  0  0
  8  6  1  0  0  0  0
  9  7  1  0  0  0  0
  9 14  1  1  0  0  0
 10 21  1  0  0  0  0
 10 22  1  0  0  0  0
 11 28  1  0  0  0  0
 11  8  2  0  0  0  0
 12  8  1  0  0  0  0
 12 27  1  0  0  0  0
 13  2  2  0  0  0  0
 14 23  1  0  0  0  0
 15 23  1  0  0  0  0
 17  3  1  0  0  0  0
 17 20  2  0  0  0  0
 18 13  1  0  0  0  0
 18 25  2  0  0  0  0
 19  1  1  0  0  0  0
 20  4  1  0  0  0  0
 22 20  1  6  0  0  0
 22  9  1  0  0  0  0
 25 26  1  0  0  0  0
 26 19  2  0  0  0  0
 26 17  1  0  0  0  0
 27 24  1  6  0  0  0
 27  7  1  0  0  0  0
 30 29  1  0  0  0  0
 30 28  1  0  0  0  0
M  END
>  <MODEL>
5

>  <REMARK>
 VINA RESULT:      -6.3      2.648      5.939
  Name = 
  2 active torsions:
  status: ('A' for Active; 'I' for Inactive)
    1  A    between atoms: C_11  and  C_28
    2  A    between atoms: C_28  and  C_30
                            x       y       z     vdW  Elec       q    Type
                         _______ _______ _______ _____ _____    ______ ____

>  <TORSDO>
F 2

$$$$
=
 OpenBabel11122412353D

 30 35  0  0  1  0  0  0  0  0999 V2000
  160.8150  210.5430  151.6060 C   0  0  0  0  0  0  0  0  0  0  0  0
  161.9570  208.6620  150.3840 C   0  0  0  0  0  0  0  0  0  0  0  0
  160.4960  208.2110  155.0840 N   0  0  0  0  0  0  0  0  0  0  0  0
  160.1930  211.0180  152.8000 C   0  0  0  0  0  0  0  0  0  0  0  0
  160.9020  211.4130  150.5110 C   0  0  0  0  0  3  0  0  0  0  0  0
  159.2260  214.4510  151.7630 O   0  0  0  0  0  1  0  0  0  0  0  0
  157.7810  211.8840  154.5200 C   0  0  1  0  0  3  0  0  0  0  0  0
  159.7560  213.1630  151.7240 C   0  0  0  0  0  0  0  0  0  0  0  0
  158.1970  210.6990  155.3080 N   0  0  2  0  0  0  0  0  0  0  0  0
  159.9350  209.0540  155.8920 C   0  0  0  0  0  0  0  0  0  0  0  0
  160.3930  212.7080  150.5640 C   0  0  0  0  0  0  0  0  0  0  0  0
  159.6440  212.3240  152.8450 C   0  0  0  0  0  0  0  0  0  0  0  0
  162.4450  207.3520  150.3960 C   0  0  0  0  0  3  0  0  0  0  0  0
  157.7950  211.0010  156.6770 C   0  0  0  0  0  2  0  0  0  0  0  0
  156.7420  212.6500  155.3190 C   0  0  0  0  0  2  0  0  0  0  0  0
  162.1060  209.3930  149.2100 O   0  0  0  0  0  1  0  0  0  0  0  0
  160.6270  208.8800  153.8420 C   0  0  0  0  0  0  0  0  0  0  0  0
  162.3320  206.5590  151.5350 C   0  0  0  0  0  3  0  0  0  0  0  0
  161.3340  209.2070  151.5410 C   0  0  0  0  0  0  0  0  0  0  0  0
  160.1290  210.1520  153.8990 C   0  0  0  0  0  0  0  0  0  0  0  0
  159.7080  208.7330  157.2610 N   0  0  0  0  0  1  0  0  0  0  0  0
  159.6400  210.4110  155.2900 C   0  0  1  0  0  3  0  0  0  0  0  0
  156.5700  211.8770  156.5990 C   0  0  0  0  0  2  0  0  0  0  0  0
  159.8100  213.3740  155.1390 C   0  0  0  0  0  1  0  0  0  0  0  0
  161.7260  207.0670  152.6800 C   0  0  0  0  0  3  0  0  0  0  0  0
  161.2270  208.3730  152.6930 C   0  0  0  0  0  0  0  0  0  0  0  0
  158.8940  212.8400  154.0440 C   0  0  2  0  0  3  0  0  0  0  0  0
  160.5050  213.5830  149.3550 C   0  0  0  0  0  2  0  0  0  0  0  0
  162.4850  213.4520  147.8370 C   0  0  0  0  0  1  0  0  0  0  0  0
  161.1450  212.8370  148.1930 C   0  0  0  0  0  2  0  0  0  0  0  0
  1  4  1  0  0  0  0
  2 13  2  0  0  0  0
  2 19  1  0  0  0  0
  3 10  2  0  0  0  0
  4 12  1  0  0  0  0
  4 20  2  0  0  0  0
  5 11  2  0  0  0  0
  5  1  1  0  0  0  0
  7  9  1  0  0  0  0
  7 15  1  1  0  0  0
  8  6  1  0  0  0  0
  8 12  2  0  0  0  0
  9 14  1  1  0  0  0
 10 21  1  0  0  0  0
 11  8  1  0  0  0  0
 12 27  1  0  0  0  0
 13 18  1  0  0  0  0
 15 23  1  0  0  0  0
 16  2  1  0  0  0  0
 17 20  1  0  0  0  0
 17  3  1  0  0  0  0
 18 25  2  0  0  0  0
 19  1  2  0  0  0  0
 19 26  1  0  0  0  0
 22 20  1  6  0  0  0
 22  9  1  0  0  0  0
 22 10  1  0  0  0  0
 23 14  1  0  0  0  0
 25 26  1  0  0  0  0
 26 17  2  0  0  0  0
 27  7  1  0  0  0  0
 27 24  1  1  0  0  0
 28 11  1  0  0  0  0
 29 30  1  0  0  0  0
 30 28  1  0  0  0  0
M  END
>  <MODEL>
6

>  <REMARK>
 VINA RESULT:      -5.8      2.811      5.039
  Name = 
  2 active torsions:
  status: ('A' for Active; 'I' for Inactive)
    1  A    between atoms: C_11  and  C_28
    2  A    between atoms: C_28  and  C_30
                            x       y       z     vdW  Elec       q    Type
                         _______ _______ _______ _____ _____    ______ ____

>  <TORSDO>
F 2

$$$$
=
 OpenBabel11122412353D

 30 35  0  0  1  0  0  0  0  0999 V2000
  161.5590  206.8410  150.9440 C   0  0  0  0  0  0  0  0  0  0  0  0
  161.7770  209.3460  150.8370 C   0  0  0  0  0  0  0  0  0  0  0  0
  162.4020  206.5010  146.8450 N   0  0  0  0  0  0  0  0  0  0  0  0
  161.5810  205.5870  150.2630 C   0  0  0  0  0  0  0  0  0  0  0  0
  161.3020  206.8420  152.3220 C   0  0  0  0  0  3  0  0  0  0  0  0
  160.7930  203.2630  153.0500 O   0  0  0  0  0  1  0  0  0  0  0  0
  160.2890  203.0590  149.0520 C   0  0  1  0  0  3  0  0  0  0  0  0
  161.0560  204.4370  152.3480 C   0  0  0  0  0  0  0  0  0  0  0  0
  160.8180  203.6540  147.8010 N   0  0  2  0  0  0  0  0  0  0  0  0
  162.3710  205.2150  146.6950 C   0  0  0  0  0  0  0  0  0  0  0  0
  161.0630  205.6630  153.0230 C   0  0  0  0  0  0  0  0  0  0  0  0
  161.3070  204.3880  150.9670 C   0  0  0  0  0  0  0  0  0  0  0  0
  162.0210  210.4920  150.0760 C   0  0  0  0  0  3  0  0  0  0  0  0
  161.0860  202.5170  146.9300 C   0  0  0  0  0  2  0  0  0  0  0  0
  159.8170  201.6490  148.7480 C   0  0  0  0  0  2  0  0  0  0  0  0
  161.5200  209.5180  152.1930 O   0  0  0  0  0  1  0  0  0  0  0  0
  162.0920  206.7490  148.2050 C   0  0  0  0  0  0  0  0  0  0  0  0
  162.2860  210.4000  148.7110 C   0  0  0  0  0  3  0  0  0  0  0  0
  161.7940  208.0610  150.2270 C   0  0  0  0  0  0  0  0  0  0  0  0
  161.8620  205.5880  148.8900 C   0  0  0  0  0  0  0  0  0  0  0  0
  162.7020  204.6030  145.4530 N   0  0  0  0  0  1  0  0  0  0  0  0
  162.0550  204.4370  147.9540 C   0  0  1  0  0  3  0  0  0  0  0  0
  160.0910  201.4400  147.2830 C   0  0  0  0  0  2  0  0  0  0  0  0
  162.5880  202.4070  150.0590 C   0  0  0  0  0  1  0  0  0  0  0  0
  162.3070  209.1550  148.0890 C   0  0  0  0  0  3  0  0  0  0  0  0
  162.0630  207.9930  148.8290 C   0  0  0  0  0  0  0  0  0  0  0  0
  161.2240  203.0520  150.2790 C   0  0  2  0  0  3  0  0  0  0  0  0
  160.7820  205.7350  154.4910 C   0  0  0  0  0  2  0  0  0  0  0  0
  159.9410  207.6460  155.8630 C   0  0  0  0  0  1  0  0  0  0  0  0
  161.1050  207.1140  155.0470 C   0  0  0  0  0  2  0  0  0  0  0  0
  1  5  2  0  0  0  0
  2 16  1  0  0  0  0
  3 17  1  0  0  0  0
  4  1  1  0  0  0  0
  4 12  2  0  0  0  0
  5 11  1  0  0  0  0
  7 15  1  6  0  0  0
  7 27  1  0  0  0  0
  8 11  2  0  0  0  0
  8  6  1  0  0  0  0
  9 14  1  6  0  0  0
  9 22  1  0  0  0  0
  9  7  1  0  0  0  0
 10  3  2  0  0  0  0
 11 28  1  0  0  0  0
 12  8  1  0  0  0  0
 13  2  2  0  0  0  0
 14 23  1  0  0  0  0
 17 26  1  0  0  0  0
 17 20  2  0  0  0  0
 18 13  1  0  0  0  0
 19  2  1  0  0  0  0
 19  1  1  0  0  0  0
 20  4  1  0  0  0  0
 21 10  1  0  0  0  0
 22 10  1  6  0  0  0
 22 20  1  0  0  0  0
 23 15  1  0  0  0  0
 25 18  2  0  0  0  0
 25 26  1  0  0  0  0
 26 19  2  0  0  0  0
 27 24  1  6  0  0  0
 27 12  1  0  0  0  0
 28 30  1  0  0  0  0
 30 29  1  0  0  0  0
M  END
>  <MODEL>
7

>  <REMARK>
 VINA RESULT:      -5.4      3.033      7.419
  Name = 
  2 active torsions:
  status: ('A' for Active; 'I' for Inactive)
    1  A    between atoms: C_11  and  C_28
    2  A    between atoms: C_28  and  C_30
                            x       y       z     vdW  Elec       q    Type
                         _______ _______ _______ _____ _____    ______ ____

>  <TORSDO>
F 2

$$$$
=
 OpenBabel11122412353D

 30 35  0  0  1  0  0  0  0  0999 V2000
  161.3140  210.6100  150.5840 C   0  0  0  0  0  0  0  0  0  0  0  0
  161.2680  212.2580  148.6810 C   0  0  0  0  0  0  0  0  0  0  0  0
  159.3840  213.3450  153.1190 N   0  0  0  0  0  0  0  0  0  0  0  0
  161.0150  210.3180  151.9490 C   0  0  0  0  0  0  0  0  0  0  0  0
  161.9290  209.6150  149.8120 C   0  0  0  0  0  3  0  0  0  0  0  0
  162.3380  206.8600  152.2290 O   0  0  0  0  0  1  0  0  0  0  0  0
  161.7390  209.8180  154.9060 C   0  0  1  0  0  3  0  0  0  0  0  0
  161.9880  208.0970  151.6930 C   0  0  0  0  0  0  0  0  0  0  0  0
  160.9430  211.0560  155.0830 N   0  0  2  0  0  0  0  0  0  0  0  0
  159.2750  212.6410  154.2000 C   0  0  0  0  0  0  0  0  0  0  0  0
  162.2550  208.3720  150.3470 C   0  0  0  0  0  0  0  0  0  0  0  0
  161.3740  209.0660  152.5040 C   0  0  0  0  0  0  0  0  0  0  0  0
  160.9170  213.5250  148.2070 C   0  0  0  0  0  3  0  0  0  0  0  0
  160.3660  210.9430  156.4170 C   0  0  0  0  0  2  0  0  0  0  0  0
  162.0040  209.2200  156.2760 C   0  0  0  0  0  2  0  0  0  0  0  0
  161.8890  211.3880  147.7920 O   0  0  0  0  0  1  0  0  0  0  0  0
  160.0640  212.5300  152.1810 C   0  0  0  0  0  0  0  0  0  0  0  0
  160.2920  214.4510  149.0390 C   0  0  0  0  0  3  0  0  0  0  0  0
  160.9900  211.8920  150.0280 C   0  0  0  0  0  0  0  0  0  0  0  0
  160.3790  211.3080  152.7090 C   0  0  0  0  0  0  0  0  0  0  0  0
  158.5790  213.1320  155.3410 N   0  0  0  0  0  1  0  0  0  0  0  0
  159.8550  211.2450  154.1100 C   0  0  1  0  0  3  0  0  0  0  0  0
  161.3340  210.1470  157.2550 C   0  0  0  0  0  2  0  0  0  0  0  0
  159.7510  208.2800  154.2750 C   0  0  0  0  0  1  0  0  0  0  0  0
  160.0100  214.1200  150.3610 C   0  0  0  0  0  3  0  0  0  0  0  0
  160.3530  212.8600  150.8600 C   0  0  0  0  0  0  0  0  0  0  0  0
  161.1680  208.7430  153.9600 C   0  0  2  0  0  3  0  0  0  0  0  0
  162.9230  207.3580  149.4730 C   0  0  0  0  0  2  0  0  0  0  0  0
  160.8230  206.2880  148.6430 C   0  0  0  0  0  1  0  0  0  0  0  0
  162.0780  207.0440  148.2470 C   0  0  0  0  0  2  0  0  0  0  0  0
  1  4  1  0  0  0  0
  2 19  1  0  0  0  0
  3 10  2  0  0  0  0
  4 12  1  0  0  0  0
  4 20  2  0  0  0  0
  5 11  2  0  0  0  0
  5  1  1  0  0  0  0
  7  9  1  0  0  0  0
  7 15  1  1  0  0  0
  8  6  1  0  0  0  0
  8 12  2  0  0  0  0
  9 14  1  1  0  0  0
 10 21  1  0  0  0  0
 11  8  1  0  0  0  0
 12 27  1  0  0  0  0
 13  2  2  0  0  0  0
 13 18  1  0  0  0  0
 14 23  1  0  0  0  0
 15 23  1  0  0  0  0
 16  2  1  0  0  0  0
 17 20  1  0  0  0  0
 17  3  1  0  0  0  0
 18 25  2  0  0  0  0
 19  1  2  0  0  0  0
 19 26  1  0  0  0  0
 22 20  1  6  0  0  0
 22 10  1  0  0  0  0
 22  9  1  0  0  0  0
 25 26  1  0  0  0  0
 26 17  2  0  0  0  0
 27 24  1  6  0  0  0
 27  7  1  0  0  0  0
 28 11  1  0  0  0  0
 30 29  1  0  0  0  0
 30 28  1  0  0  0  0
M  END
>  <MODEL>
8

>  <REMARK>
 VINA RESULT:      -5.1      2.797      6.091
  Name = 
  2 active torsions:
  status: ('A' for Active; 'I' for Inactive)
    1  A    between atoms: C_11  and  C_28
    2  A    between atoms: C_28  and  C_30
                            x       y       z     vdW  Elec       q    Type
                         _______ _______ _______ _____ _____    ______ ____

>  <TORSDO>
F 2

$$$$
