=
 OpenBabel11122414343D

 34 41  0  0  1  0  0  0  0  0999 V2000
  160.9090  208.6410  152.8500 C   0  0  2  0  0  3  0  0  0  0  0  0
  161.1620  206.3110  153.5970 N   0  0  0  0  0  2  0  0  0  0  0  0
  162.0330  213.6670  148.7630 C   0  0  1  0  0  3  0  0  0  0  0  0
  160.6140  210.9150  151.9400 C   0  0  1  0  0  3  0  0  0  0  0  0
  161.9520  211.4710  149.7630 C   0  0  2  0  0  3  0  0  0  0  0  0
  162.7860  212.3770  147.4520 C   0  0  0  0  0  2  0  0  0  0  0  0
  162.8610  213.7740  147.6370 O   0  0  0  0  0  0  0  0  0  0  0  0
  160.0530  214.2430  150.1120 C   0  0  0  0  0  2  0  0  0  0  0  0
  161.7100  206.8430  151.3680 C   0  0  0  0  0  0  0  0  0  0  0  0
  161.2420  204.6780  149.1170 C   0  0  0  0  0  2  0  0  0  0  0  0
  161.8370  209.9950  149.5100 C   0  0  0  0  0  3  0  0  0  0  0  0
  159.7660  212.7650  150.4570 C   0  0  0  0  0  2  0  0  0  0  0  0
  161.6770  207.6560  150.2810 C   0  0  0  0  0  0  0  0  0  0  0  0
  161.3640  205.0570  152.8720 C   0  0  0  0  0  2  0  0  0  0  0  0
  161.0230  211.9890  150.9200 C   0  0  1  0  0  3  0  0  0  0  0  0
  160.7430  214.4530  148.7520 C   0  0  0  0  0  2  0  0  0  0  0  0
  160.5770  204.8220  150.4690 C   0  0  2  0  0  3  0  0  0  0  0  0
  161.5200  209.6800  151.9140 C   0  0  2  0  0  3  0  0  0  0  0  0
  161.6990  212.2430  148.4840 C   0  0  2  0  0  3  0  0  0  0  0  0
  161.6650  209.1320  150.5140 C   0  0  0  0  0  0  0  0  0  0  0  0
  160.0140  210.5080  154.2170 C   0  0  0  0  0  2  0  0  0  0  0  0
  161.3380  205.9700  148.3720 C   0  0  0  0  0  3  0  0  0  0  0  0
  160.6010  211.4820  153.2910 N   0  0  0  0  0  2  0  0  0  0  0  0
  161.5400  207.1930  148.8730 C   0  0  0  0  0  3  0  0  0  0  0  0
  161.6480  205.3650  151.4030 C   0  0  1  0  0  3  0  0  0  0  0  0
  160.8460  209.2220  154.2580 C   0  0  0  0  0  2  0  0  0  0  0  0
  161.7320  207.3620  152.7650 C   0  0  1  0  0  3  0  0  0  0  0  0
  160.1480  203.5580  150.8870 O   0  0  0  0  0  0  0  0  0  0  0  0
  161.2400  202.7170  150.6540 C   0  0  0  0  0  2  0  0  0  0  0  0
  159.9610  201.6160  147.8610 O   0  0  0  0  0  0  0  0  0  0  0  0
  161.7880  200.8430  149.1380 C   0  0  0  0  0  2  0  0  0  0  0  0
  160.7610  201.3950  150.0820 C   0  0  2  0  0  3  0  0  0  0  0  0
  161.0540  200.7400  147.8230 C   0  0  0  0  0  2  0  0  0  0  0  0
  159.5530  201.6360  149.2030 C   0  0  0  0  0  2  0  0  0  0  0  0
  1 26  1  1  0  0  0
  3 16  1  6  0  0  0
  4 23  1  1  0  0  0
  5 11  1  6  0  0  0
  5 15  1  0  0  0  0
  6  7  1  0  0  0  0
  7  3  1  0  0  0  0
  8 12  1  0  0  0  0
  9 25  1  0  0  0  0
 10 17  1  0  0  0  0
 11 20  2  0  0  0  0
 13 20  1  0  0  0  0
 13  9  2  0  0  0  0
 14  2  1  0  0  0  0
 15 12  1  6  0  0  0
 15  4  1  0  0  0  0
 16  8  1  0  0  0  0
 17 28  1  1  0  0  0
 17 25  1  0  0  0  0
 18 20  1  6  0  0  0
 18  4  1  0  0  0  0
 18  1  1  0  0  0  0
 19  6  1  6  0  0  0
 19  3  1  0  0  0  0
 19  5  1  0  0  0  0
 21 26  1  0  0  0  0
 22 24  2  0  0  0  0
 22 10  1  0  0  0  0
 23 21  1  0  0  0  0
 24 13  1  0  0  0  0
 25 14  1  1  0  0  0
 27  9  1  6  0  0  0
 27  1  1  0  0  0  0
 27  2  1  0  0  0  0
 29 28  1  0  0  0  0
 30 34  1  0  0  0  0
 31 32  1  0  0  0  0
 32 29  1  6  0  0  0
 33 30  1  0  0  0  0
 33 31  1  0  0  0  0
 34 32  1  0  0  0  0
M  END
>  <MODEL>
1

>  <REMARK>
 VINA RESULT:      -8.9      0.000      0.000
  Name = 
  3 active torsions:
  status: ('A' for Active; 'I' for Inactive)
    1  A    between atoms: C_17  and  O_28
    2  A    between atoms: O_28  and  C_29
    3  A    between atoms: C_29  and  C_32
                            x       y       z     vdW  Elec       q    Type
                         _______ _______ _______ _____ _____    ______ ____

>  <TORSDO>
F 3

$$$$
=
 OpenBabel11122414343D

 34 41  0  0  1  0  0  0  0  0999 V2000
  161.6270  209.2230  151.7970 C   0  0  2  0  0  3  0  0  0  0  0  0
  161.7480  211.0740  153.4130 N   0  0  0  0  0  2  0  0  0  0  0  0
  161.7040  202.8700  150.1080 C   0  0  1  0  0  3  0  0  0  0  0  0
  161.3870  207.2910  150.2820 C   0  0  1  0  0  3  0  0  0  0  0  0
  161.6730  204.9290  151.3680 C   0  0  2  0  0  3  0  0  0  0  0  0
  161.5240  202.4000  152.0300 C   0  0  0  0  0  2  0  0  0  0  0  0
  161.9360  201.7150  150.8680 O   0  0  0  0  0  0  0  0  0  0  0  0
  160.6980  204.1180  148.2370 C   0  0  0  0  0  2  0  0  0  0  0  0
  161.3160  208.9030  154.2200 C   0  0  0  0  0  0  0  0  0  0  0  0
  159.4810  208.5520  156.7660 C   0  0  0  0  0  2  0  0  0  0  0  0
  161.1790  205.6180  152.6070 C   0  0  0  0  0  3  0  0  0  0  0  0
  160.3250  205.3150  149.1370 C   0  0  0  0  0  2  0  0  0  0  0  0
  160.9490  207.6070  154.0510 C   0  0  0  0  0  0  0  0  0  0  0  0
  161.3590  211.1860  154.8190 C   0  0  0  0  0  2  0  0  0  0  0  0
  161.4840  205.7740  150.0560 C   0  0  1  0  0  3  0  0  0  0  0  0
  160.7230  202.7610  148.9650 C   0  0  0  0  0  2  0  0  0  0  0  0
  159.5410  209.6900  155.7710 C   0  0  2  0  0  3  0  0  0  0  0  0
  161.9320  207.7360  151.6430 C   0  0  2  0  0  3  0  0  0  0  0  0
  161.0190  203.5700  151.2300 C   0  0  2  0  0  3  0  0  0  0  0  0
  161.3210  206.9370  152.7690 C   0  0  0  0  0  0  0  0  0  0  0  0
  161.8180  209.4410  149.3330 C   0  0  0  0  0  2  0  0  0  0  0  0
  159.4710  207.2060  156.1150 C   0  0  0  0  0  3  0  0  0  0  0  0
  162.0940  208.0060  149.2160 N   0  0  0  0  0  2  0  0  0  0  0  0
  160.1040  206.8290  155.0000 C   0  0  0  0  0  3  0  0  0  0  0  0
  161.0000  209.8000  155.3530 C   0  0  1  0  0  3  0  0  0  0  0  0
  162.3200  209.9870  150.6740 C   0  0  0  0  0  2  0  0  0  0  0  0
  162.0650  209.6710  153.1850 C   0  0  1  0  0  3  0  0  0  0  0  0
  159.1180  210.8590  156.4120 O   0  0  0  0  0  0  0  0  0  0  0  0
  157.7700  210.9860  156.0670 C   0  0  0  0  0  2  0  0  0  0  0  0
  155.9910  213.5310  155.0620 O   0  0  0  0  0  0  0  0  0  0  0  0
  158.3200  213.1580  155.0230 C   0  0  0  0  0  2  0  0  0  0  0  0
  157.6340  211.8400  154.8180 C   0  0  2  0  0  3  0  0  0  0  0  0
  157.2170  214.1720  154.8420 C   0  0  0  0  0  2  0  0  0  0  0  0
  156.1810  212.2130  154.6200 C   0  0  0  0  0  2  0  0  0  0  0  0
  1 26  1  6  0  0  0
  1 27  1  0  0  0  0
  2 14  1  0  0  0  0
  3 16  1  6  0  0  0
  3  7  1  0  0  0  0
  3 19  1  0  0  0  0
  4 23  1  6  0  0  0
  4 18  1  0  0  0  0
  5 11  1  1  0  0  0
  7  6  1  0  0  0  0
  8 16  1  0  0  0  0
  8 12  1  0  0  0  0
  9 25  1  0  0  0  0
 11 20  2  0  0  0  0
 13  9  2  0  0  0  0
 13 24  1  0  0  0  0
 15 12  1  1  0  0  0
 15  4  1  0  0  0  0
 15  5  1  0  0  0  0
 17 28  1  1  0  0  0
 17 10  1  0  0  0  0
 18  1  1  0  0  0  0
 18 20  1  1  0  0  0
 19  5  1  0  0  0  0
 19  6  1  1  0  0  0
 20 13  1  0  0  0  0
 21 26  1  0  0  0  0
 22 10  1  0  0  0  0
 23 21  1  0  0  0  0
 24 22  2  0  0  0  0
 25 14  1  6  0  0  0
 25 17  1  0  0  0  0
 27  2  1  1  0  0  0
 27  9  1  0  0  0  0
 29 28  1  0  0  0  0
 32 31  1  0  0  0  0
 32 29  1  1  0  0  0
 33 31  1  0  0  0  0
 33 30  1  0  0  0  0
 34 32  1  0  0  0  0
 34 30  1  0  0  0  0
M  END
>  <MODEL>
2

>  <REMARK>
 VINA RESULT:      -8.4      3.146      8.593
  Name = 
  3 active torsions:
  status: ('A' for Active; 'I' for Inactive)
    1  A    between atoms: C_17  and  O_28
    2  A    between atoms: O_28  and  C_29
    3  A    between atoms: C_29  and  C_32
                            x       y       z     vdW  Elec       q    Type
                         _______ _______ _______ _____ _____    ______ ____

>  <TORSDO>
F 3

$$$$
=
 OpenBabel11122414343D

 34 41  0  0  1  0  0  0  0  0999 V2000
  160.9350  207.8820  153.0750 C   0  0  2  0  0  3  0  0  0  0  0  0
  161.5600  205.5040  153.1410 N   0  0  0  0  0  2  0  0  0  0  0  0
  160.9200  213.8920  150.4090 C   0  0  1  0  0  3  0  0  0  0  0  0
  160.2560  210.2430  152.8420 C   0  0  1  0  0  3  0  0  0  0  0  0
  161.2310  211.5270  150.7830 C   0  0  2  0  0  3  0  0  0  0  0  0
  161.6500  213.1050  148.7360 C   0  0  0  0  0  2  0  0  0  0  0  0
  161.5790  214.4040  149.2830 O   0  0  0  0  0  0  0  0  0  0  0  0
  159.0730  213.8030  152.0370 C   0  0  0  0  0  2  0  0  0  0  0  0
  161.7530  206.6610  151.0970 C   0  0  0  0  0  0  0  0  0  0  0  0
  161.2650  205.0940  148.3990 C   0  0  0  0  0  2  0  0  0  0  0  0
  161.2620  210.1640  150.1530 C   0  0  0  0  0  3  0  0  0  0  0  0
  159.0110  212.2610  151.9960 C   0  0  0  0  0  2  0  0  0  0  0  0
  161.4840  207.7090  150.2780 C   0  0  0  0  0  0  0  0  0  0  0  0
  161.8170  204.5200  152.0890 C   0  0  0  0  0  2  0  0  0  0  0  0
  160.4000  211.5890  152.1160 C   0  0  1  0  0  3  0  0  0  0  0  0
  159.5540  214.4530  150.7270 C   0  0  0  0  0  2  0  0  0  0  0  0
  160.7650  204.7890  149.7940 C   0  0  2  0  0  3  0  0  0  0  0  0
  161.2940  209.2040  152.4020 C   0  0  2  0  0  3  0  0  0  0  0  0
  160.7270  212.5520  149.7880 C   0  0  2  0  0  3  0  0  0  0  0  0
  161.3240  209.0580  150.9000 C   0  0  0  0  0  0  0  0  0  0  0  0
  160.0040  209.1850  154.9700 C   0  0  0  0  0  2  0  0  0  0  0  0
  161.1110  206.5330  148.0240 C   0  0  0  0  0  3  0  0  0  0  0  0
  160.3470  210.4390  154.2910 N   0  0  0  0  0  2  0  0  0  0  0  0
  161.2260  207.6040  148.8150 C   0  0  0  0  0  3  0  0  0  0  0  0
  161.8730  205.2300  150.7380 C   0  0  1  0  0  3  0  0  0  0  0  0
  160.9830  208.0700  154.5870 C   0  0  0  0  0  2  0  0  0  0  0  0
  161.8890  206.8050  152.5740 C   0  0  1  0  0  3  0  0  0  0  0  0
  160.5480  203.4110  149.8930 O   0  0  0  0  0  0  0  0  0  0  0  0
  161.1970  202.8680  148.7810 C   0  0  0  0  0  2  0  0  0  0  0  0
  160.9650  201.0240  146.0980 O   0  0  0  0  0  0  0  0  0  0  0  0
  161.4940  200.4560  148.3260 C   0  0  0  0  0  2  0  0  0  0  0  0
  160.5060  201.5850  148.3550 C   0  0  2  0  0  3  0  0  0  0  0  0
  161.4600  199.9830  146.8930 C   0  0  0  0  0  2  0  0  0  0  0  0
  160.0540  201.7100  146.9170 C   0  0  0  0  0  2  0  0  0  0  0  0
  1 26  1  1  0  0  0
  3 16  1  6  0  0  0
  4 23  1  1  0  0  0
  5 11  1  6  0  0  0
  5 15  1  0  0  0  0
  6  7  1  0  0  0  0
  7  3  1  0  0  0  0
 10 17  1  0  0  0  0
 11 20  2  0  0  0  0
 12  8  1  0  0  0  0
 13 20  1  0  0  0  0
 13  9  2  0  0  0  0
 14  2  1  0  0  0  0
 15 12  1  6  0  0  0
 15  4  1  0  0  0  0
 16  8  1  0  0  0  0
 17 28  1  6  0  0  0
 17 25  1  0  0  0  0
 18 20  1  6  0  0  0
 18  4  1  0  0  0  0
 18  1  1  0  0  0  0
 19  6  1  6  0  0  0
 19  3  1  0  0  0  0
 19  5  1  0  0  0  0
 22 10  1  0  0  0  0
 22 24  2  0  0  0  0
 23 21  1  0  0  0  0
 24 13  1  0  0  0  0
 25  9  1  0  0  0  0
 25 14  1  1  0  0  0
 26 21  1  0  0  0  0
 27  9  1  6  0  0  0
 27  1  1  0  0  0  0
 27  2  1  0  0  0  0
 29 28  1  0  0  0  0
 30 33  1  0  0  0  0
 30 34  1  0  0  0  0
 31 32  1  0  0  0  0
 32 29  1  6  0  0  0
 33 31  1  0  0  0  0
 34 32  1  0  0  0  0
M  END
>  <MODEL>
3

>  <REMARK>
 VINA RESULT:      -8.1      1.151      1.401
  Name = 
  3 active torsions:
  status: ('A' for Active; 'I' for Inactive)
    1  A    between atoms: C_17  and  O_28
    2  A    between atoms: O_28  and  C_29
    3  A    between atoms: C_29  and  C_32
                            x       y       z     vdW  Elec       q    Type
                         _______ _______ _______ _____ _____    ______ ____

>  <TORSDO>
F 3

$$$$
=
 OpenBabel11122414343D

 34 41  0  0  1  0  0  0  0  0999 V2000
  161.6300  208.4470  149.7870 C   0  0  2  0  0  3  0  0  0  0  0  0
  161.3100  207.2510  147.6620 N   0  0  0  0  0  2  0  0  0  0  0  0
  160.6870  209.3560  156.2300 C   0  0  1  0  0  3  0  0  0  0  0  0
  161.9930  209.4920  151.9930 C   0  0  1  0  0  3  0  0  0  0  0  0
  160.7000  208.4270  154.0020 C   0  0  2  0  0  3  0  0  0  0  0  0
  159.9220  207.5250  156.3330 C   0  0  0  0  0  2  0  0  0  0  0  0
  159.8780  208.6740  157.1500 O   0  0  0  0  0  0  0  0  0  0  0  0
  162.6600  210.6800  155.5800 C   0  0  0  0  0  2  0  0  0  0  0  0
  160.8070  206.1280  149.6710 C   0  0  0  0  0  0  0  0  0  0  0  0
  161.2560  203.0060  149.8340 C   0  0  0  0  0  2  0  0  0  0  0  0
  160.7840  207.1730  153.1800 C   0  0  0  0  0  3  0  0  0  0  0  0
  162.9070  209.8310  154.3150 C   0  0  0  0  0  2  0  0  0  0  0  0
  160.8760  205.9830  151.0190 C   0  0  0  0  0  0  0  0  0  0  0  0
  161.0880  205.8400  147.3450 C   0  0  0  0  0  2  0  0  0  0  0  0
  161.6250  209.5870  153.4820 C   0  0  1  0  0  3  0  0  0  0  0  0
  161.9950  209.9140  156.7380 C   0  0  0  0  0  2  0  0  0  0  0  0
  161.9050  204.0270  148.9240 C   0  0  2  0  0  3  0  0  0  0  0  0
  161.0580  208.5760  151.1960 C   0  0  2  0  0  3  0  0  0  0  0  0
  160.9900  208.1200  155.4560 C   0  0  2  0  0  3  0  0  0  0  0  0
  160.9200  207.2230  151.8520 C   0  0  0  0  0  0  0  0  0  0  0  0
  162.5490  210.7390  150.0320 C   0  0  0  0  0  2  0  0  0  0  0  0
  161.2020  203.4460  151.2610 C   0  0  0  0  0  3  0  0  0  0  0  0
  161.9990  210.8260  151.3890 N   0  0  0  0  0  2  0  0  0  0  0  0
  161.0220  204.6840  151.7320 C   0  0  0  0  0  3  0  0  0  0  0  0
  160.8330  205.0680  148.6380 C   0  0  1  0  0  3  0  0  0  0  0  0
  161.6860  209.8310  149.1500 C   0  0  0  0  0  2  0  0  0  0  0  0
  160.7780  207.4590  149.0020 C   0  0  1  0  0  3  0  0  0  0  0  0
  162.2970  203.3820  147.7470 O   0  0  0  0  0  0  0  0  0  0  0  0
  161.2000  202.5910  147.3930 C   0  0  0  0  0  2  0  0  0  0  0  0
  159.1620  201.6080  145.0420 O   0  0  0  0  0  0  0  0  0  0  0  0
  160.7280  203.3710  145.0950 C   0  0  0  0  0  2  0  0  0  0  0  0
  161.2720  202.2400  145.9170 C   0  0  2  0  0  3  0  0  0  0  0  0
  159.5740  202.7520  144.3460 C   0  0  0  0  0  2  0  0  0  0  0  0
  160.3290  201.0930  145.6260 C   0  0  0  0  0  2  0  0  0  0  0  0
  1 26  1  6  0  0  0
  1 18  1  0  0  0  0
  3 16  1  1  0  0  0
  3  7  1  0  0  0  0
  4 23  1  6  0  0  0
  4 15  1  0  0  0  0
  5 11  1  6  0  0  0
  5 19  1  0  0  0  0
  6  7  1  0  0  0  0
  8 16  1  0  0  0  0
  9 13  2  0  0  0  0
 10 22  1  0  0  0  0
 12  8  1  0  0  0  0
 13 24  1  0  0  0  0
 13 20  1  0  0  0  0
 14  2  1  0  0  0  0
 15  5  1  0  0  0  0
 15 12  1  1  0  0  0
 17 28  1  6  0  0  0
 17 10  1  0  0  0  0
 18 20  1  1  0  0  0
 18  4  1  0  0  0  0
 19  3  1  0  0  0  0
 19  6  1  1  0  0  0
 20 11  2  0  0  0  0
 21 23  1  0  0  0  0
 22 24  2  0  0  0  0
 25 14  1  6  0  0  0
 25 17  1  0  0  0  0
 25  9  1  0  0  0  0
 26 21  1  0  0  0  0
 27  2  1  6  0  0  0
 27  9  1  0  0  0  0
 27  1  1  0  0  0  0
 29 28  1  0  0  0  0
 30 34  1  0  0  0  0
 31 32  1  0  0  0  0
 32 29  1  1  0  0  0
 33 30  1  0  0  0  0
 33 31  1  0  0  0  0
 34 32  1  0  0  0  0
M  END
>  <MODEL>
4

>  <REMARK>
 VINA RESULT:      -7.3      2.883      5.243
  Name = 
  3 active torsions:
  status: ('A' for Active; 'I' for Inactive)
    1  A    between atoms: C_17  and  O_28
    2  A    between atoms: O_28  and  C_29
    3  A    between atoms: C_29  and  C_32
                            x       y       z     vdW  Elec       q    Type
                         _______ _______ _______ _____ _____    ______ ____

>  <TORSDO>
F 3

$$$$
=
 OpenBabel11122414343D

 34 41  0  0  1  0  0  0  0  0999 V2000
  161.1460  204.9570  151.9670 C   0  0  2  0  0  3  0  0  0  0  0  0
  160.8370  205.9530  154.1940 N   0  0  0  0  0  2  0  0  0  0  0  0
  160.7970  204.9980  145.4010 C   0  0  1  0  0  3  0  0  0  0  0  0
  161.5370  204.1070  149.6830 C   0  0  1  0  0  3  0  0  0  0  0  0
  160.7440  205.6490  147.7250 C   0  0  2  0  0  3  0  0  0  0  0  0
  160.4550  206.9540  145.4740 C   0  0  0  0  0  2  0  0  0  0  0  0
  160.2650  205.9410  144.5110 O   0  0  0  0  0  0  0  0  0  0  0  0
  162.3550  203.2010  146.0450 C   0  0  0  0  0  2  0  0  0  0  0  0
  160.8240  207.3750  152.3150 C   0  0  0  0  0  0  0  0  0  0  0  0
  161.9400  210.3140  152.6110 C   0  0  0  0  0  2  0  0  0  0  0  0
  160.9940  206.7540  148.7110 C   0  0  0  0  0  3  0  0  0  0  0  0
  162.6250  203.8280  147.4300 C   0  0  0  0  0  2  0  0  0  0  0  0
  161.0800  207.6470  151.0100 C   0  0  0  0  0  0  0  0  0  0  0  0
  160.8840  207.3350  154.6750 C   0  0  0  0  0  2  0  0  0  0  0  0
  161.3350  204.2610  148.1680 C   0  0  1  0  0  3  0  0  0  0  0  0
  162.0090  204.2190  144.9440 C   0  0  0  0  0  2  0  0  0  0  0  0
  162.2460  209.0810  153.4320 C   0  0  2  0  0  3  0  0  0  0  0  0
  160.7290  205.1160  150.5070 C   0  0  2  0  0  3  0  0  0  0  0  0
  161.2620  206.0410  146.3570 C   0  0  2  0  0  3  0  0  0  0  0  0
  160.9590  206.5290  150.0270 C   0  0  0  0  0  0  0  0  0  0  0  0
  161.5810  202.5590  151.5030 C   0  0  0  0  0  2  0  0  0  0  0  0
  161.9620  210.0580  151.1390 C   0  0  0  0  0  3  0  0  0  0  0  0
  161.1890  202.7470  150.1030 N   0  0  0  0  0  2  0  0  0  0  0  0
  161.5810  208.9510  150.4930 C   0  0  0  0  0  3  0  0  0  0  0  0
  160.9520  208.2810  153.4780 C   0  0  1  0  0  3  0  0  0  0  0  0
  160.8320  203.5340  152.4160 C   0  0  0  0  0  2  0  0  0  0  0  0
  160.4350  206.0190  152.7960 C   0  0  1  0  0  3  0  0  0  0  0  0
  162.6240  209.4870  154.7160 O   0  0  0  0  0  0  0  0  0  0  0  0
  162.2300  210.8260  154.7950 C   0  0  0  0  0  2  0  0  0  0  0  0
  159.3880  210.2180  156.2800 O   0  0  0  0  0  0  0  0  0  0  0  0
  161.6100  209.8510  156.9800 C   0  0  0  0  0  2  0  0  0  0  0  0
  161.5860  211.0950  156.1440 C   0  0  2  0  0  3  0  0  0  0  0  0
  160.1530  209.5730  157.2600 C   0  0  0  0  0  2  0  0  0  0  0  0
  160.1120  211.3740  155.9500 C   0  0  0  0  0  2  0  0  0  0  0  0
  1 26  1  1  0  0  0
  1 27  1  0  0  0  0
  2 14  1  0  0  0  0
  3 16  1  6  0  0  0
  3 19  1  0  0  0  0
  4 23  1  1  0  0  0
  4 18  1  0  0  0  0
  5 15  1  0  0  0  0
  5 11  1  1  0  0  0
  7  3  1  0  0  0  0
  7  6  1  0  0  0  0
  8 12  1  0  0  0  0
  9 25  1  0  0  0  0
 10 17  1  0  0  0  0
 11 20  2  0  0  0  0
 13  9  2  0  0  0  0
 15 12  1  6  0  0  0
 15  4  1  0  0  0  0
 16  8  1  0  0  0  0
 17 25  1  0  0  0  0
 17 28  1  1  0  0  0
 18 20  1  6  0  0  0
 18  1  1  0  0  0  0
 19  6  1  6  0  0  0
 19  5  1  0  0  0  0
 20 13  1  0  0  0  0
 21 26  1  0  0  0  0
 22 10  1  0  0  0  0
 23 21  1  0  0  0  0
 24 13  1  0  0  0  0
 24 22  2  0  0  0  0
 25 14  1  1  0  0  0
 27  9  1  6  0  0  0
 27  2  1  0  0  0  0
 28 29  1  0  0  0  0
 30 33  1  0  0  0  0
 31 33  1  0  0  0  0
 32 29  1  6  0  0  0
 32 31  1  0  0  0  0
 34 32  1  0  0  0  0
 34 30  1  0  0  0  0
M  END
>  <MODEL>
5

>  <REMARK>
 VINA RESULT:      -7.1      3.209      7.713
  Name = 
  3 active torsions:
  status: ('A' for Active; 'I' for Inactive)
    1  A    between atoms: C_17  and  O_28
    2  A    between atoms: O_28  and  C_29
    3  A    between atoms: C_29  and  C_32
                            x       y       z     vdW  Elec       q    Type
                         _______ _______ _______ _____ _____    ______ ____

>  <TORSDO>
F 3

$$$$
=
 OpenBabel11122414343D

 34 41  0  0  1  0  0  0  0  0999 V2000
  159.7430  210.9760  152.7790 C   0  0  2  0  0  3  0  0  0  0  0  0
  160.1870  209.3590  154.5780 N   0  0  0  0  0  2  0  0  0  0  0  0
  161.2870  214.2400  147.2840 C   0  0  1  0  0  3  0  0  0  0  0  0
  159.3420  212.4730  150.8580 C   0  0  1  0  0  3  0  0  0  0  0  0
  161.3010  212.6960  149.1400 C   0  0  2  0  0  3  0  0  0  0  0  0
  162.7920  212.9730  147.0050 C   0  0  0  0  0  2  0  0  0  0  0  0
  162.4610  214.2550  146.5190 O   0  0  0  0  0  0  0  0  0  0  0  0
  158.8510  214.4350  147.5980 C   0  0  0  0  0  2  0  0  0  0  0  0
  161.4780  209.2360  152.6110 C   0  0  0  0  0  0  0  0  0  0  0  0
  162.5020  206.4150  151.6260 C   0  0  0  0  0  2  0  0  0  0  0  0
  161.6440  211.3060  149.5960 C   0  0  0  0  0  3  0  0  0  0  0  0
  158.7920  213.1900  148.5080 C   0  0  0  0  0  2  0  0  0  0  0  0
  161.7170  209.5290  151.3070 C   0  0  0  0  0  0  0  0  0  0  0  0
  160.9550  208.1150  154.6220 C   0  0  0  0  0  2  0  0  0  0  0  0
  159.8820  213.1840  149.6070 C   0  0  1  0  0  3  0  0  0  0  0  0
  159.9770  214.4010  146.5490 C   0  0  0  0  0  2  0  0  0  0  0  0
  161.3200  206.7570  152.5060 C   0  0  2  0  0  3  0  0  0  0  0  0
  160.4330  211.7660  151.6700 C   0  0  2  0  0  3  0  0  0  0  0  0
  161.4370  212.8000  147.6350 C   0  0  2  0  0  3  0  0  0  0  0  0
  161.2700  210.8610  150.7990 C   0  0  0  0  0  0  0  0  0  0  0  0
  157.9570  212.6990  152.7920 C   0  0  0  0  0  2  0  0  0  0  0  0
  162.6020  207.2870  150.4170 C   0  0  0  0  0  3  0  0  0  0  0  0
  158.6370  213.4280  151.7160 N   0  0  0  0  0  2  0  0  0  0  0  0
  162.2910  208.5830  150.3110 C   0  0  0  0  0  3  0  0  0  0  0  0
  161.7470  207.9670  153.3240 C   0  0  1  0  0  3  0  0  0  0  0  0
  158.9660  211.9450  153.6640 C   0  0  0  0  0  2  0  0  0  0  0  0
  160.7950  210.1800  153.5400 C   0  0  1  0  0  3  0  0  0  0  0  0
  161.0580  205.6640  153.3380 O   0  0  0  0  0  0  0  0  0  0  0  0
  161.6680  204.5790  152.7020 C   0  0  0  0  0  2  0  0  0  0  0  0
  160.7560  203.6360  149.7130 O   0  0  0  0  0  0  0  0  0  0  0  0
  161.2240  202.3830  151.6570 C   0  0  0  0  0  2  0  0  0  0  0  0
  160.6100  203.6850  152.0790 C   0  0  2  0  0  3  0  0  0  0  0  0
  160.9720  202.3290  150.1700 C   0  0  0  0  0  2  0  0  0  0  0  0
  160.1330  204.2990  150.7810 C   0  0  0  0  0  2  0  0  0  0  0  0
  1 27  1  0  0  0  0
  1 26  1  1  0  0  0
  2 14  1  0  0  0  0
  3 16  1  6  0  0  0
  3 19  1  0  0  0  0
  4 18  1  0  0  0  0
  4 23  1  1  0  0  0
  5 11  1  6  0  0  0
  5 15  1  0  0  0  0
  7  6  1  0  0  0  0
  7  3  1  0  0  0  0
  8 12  1  0  0  0  0
  9 25  1  0  0  0  0
 10 17  1  0  0  0  0
 11 20  2  0  0  0  0
 13  9  2  0  0  0  0
 15 12  1  6  0  0  0
 15  4  1  0  0  0  0
 16  8  1  0  0  0  0
 17 25  1  0  0  0  0
 17 28  1  1  0  0  0
 18 20  1  6  0  0  0
 18  1  1  0  0  0  0
 19  6  1  1  0  0  0
 19  5  1  0  0  0  0
 20 13  1  0  0  0  0
 21 26  1  0  0  0  0
 22 10  1  0  0  0  0
 23 21  1  0  0  0  0
 24 22  2  0  0  0  0
 24 13  1  0  0  0  0
 25 14  1  1  0  0  0
 27  9  1  6  0  0  0
 27  2  1  0  0  0  0
 29 28  1  0  0  0  0
 30 33  1  0  0  0  0
 30 34  1  0  0  0  0
 31 32  1  0  0  0  0
 32 29  1  6  0  0  0
 33 31  1  0  0  0  0
 34 32  1  0  0  0  0
M  END
>  <MODEL>
6

>  <REMARK>
 VINA RESULT:      -6.6      1.551      2.640
  Name = 
  3 active torsions:
  status: ('A' for Active; 'I' for Inactive)
    1  A    between atoms: C_17  and  O_28
    2  A    between atoms: O_28  and  C_29
    3  A    between atoms: C_29  and  C_32
                            x       y       z     vdW  Elec       q    Type
                         _______ _______ _______ _____ _____    ______ ____

>  <TORSDO>
F 3

$$$$
=
 OpenBabel11122414343D

 34 41  0  0  1  0  0  0  0  0999 V2000
  161.4530  206.4590  147.9830 C   0  0  2  0  0  3  0  0  0  0  0  0
  162.0290  208.2040  149.6170 N   0  0  0  0  0  2  0  0  0  0  0  0
  161.1780  200.2430  145.8570 C   0  0  1  0  0  3  0  0  0  0  0  0
  160.7980  204.6200  146.4730 C   0  0  1  0  0  3  0  0  0  0  0  0
  161.4900  202.2110  147.2210 C   0  0  2  0  0  3  0  0  0  0  0  0
  161.6380  199.6400  147.6940 C   0  0  0  0  0  2  0  0  0  0  0  0
  161.6770  199.0560  146.4110 O   0  0  0  0  0  0  0  0  0  0  0  0
  159.5870  201.5550  144.5090 C   0  0  0  0  0  2  0  0  0  0  0  0
  161.9460  205.9640  150.3450 C   0  0  0  0  0  0  0  0  0  0  0  0
  161.0360  205.3490  153.3060 C   0  0  0  0  0  2  0  0  0  0  0  0
  161.3990  202.7900  148.6040 C   0  0  0  0  0  3  0  0  0  0  0  0
  159.4870  202.6690  145.5730 C   0  0  0  0  0  2  0  0  0  0  0  0
  161.5840  204.6640  150.2000 C   0  0  0  0  0  0  0  0  0  0  0  0
  162.1090  208.2020  151.0790 C   0  0  0  0  0  2  0  0  0  0  0  0
  160.8640  203.1280  146.1090 C   0  0  1  0  0  3  0  0  0  0  0  0
  159.8850  200.1570  145.0800 C   0  0  0  0  0  2  0  0  0  0  0  0
  160.7390  206.5510  152.4370 C   0  0  2  0  0  3  0  0  0  0  0  0
  161.7380  205.0030  147.6220 C   0  0  2  0  0  3  0  0  0  0  0  0
  160.8680  200.8300  147.1910 C   0  0  2  0  0  3  0  0  0  0  0  0
  161.5450  204.1010  148.8170 C   0  0  0  0  0  0  0  0  0  0  0  0
  160.8370  206.8480  145.6110 C   0  0  0  0  0  2  0  0  0  0  0  0
  160.8590  204.0500  152.5870 C   0  0  0  0  0  3  0  0  0  0  0  0
  161.1050  205.4400  145.2990 N   0  0  0  0  0  2  0  0  0  0  0  0
  161.1120  203.7810  151.3020 C   0  0  0  0  0  3  0  0  0  0  0  0
  161.9830  206.7670  151.5870 C   0  0  1  0  0  3  0  0  0  0  0  0
  161.7250  207.3310  146.7610 C   0  0  0  0  0  2  0  0  0  0  0  0
  162.3000  206.8380  149.1900 C   0  0  1  0  0  3  0  0  0  0  0  0
  160.5090  207.6510  153.2690 O   0  0  0  0  0  0  0  0  0  0  0  0
  160.8130  207.1940  154.5550 C   0  0  0  0  0  2  0  0  0  0  0  0
  162.3310  209.0490  156.7690 O   0  0  0  0  0  0  0  0  0  0  0  0
  160.8020  209.6130  155.0640 C   0  0  0  0  0  2  0  0  0  0  0  0
  160.4420  208.2510  155.5800 C   0  0  2  0  0  3  0  0  0  0  0  0
  161.7810  210.1400  156.0840 C   0  0  0  0  0  2  0  0  0  0  0  0
  161.3100  208.0870  156.8080 C   0  0  0  0  0  2  0  0  0  0  0  0
  1 26  1  6  0  0  0
  1 27  1  0  0  0  0
  2 14  1  0  0  0  0
  3 16  1  6  0  0  0
  3  7  1  0  0  0  0
  3 19  1  0  0  0  0
  4 23  1  6  0  0  0
  4 18  1  0  0  0  0
  5 11  1  1  0  0  0
  7  6  1  0  0  0  0
  8 16  1  0  0  0  0
  8 12  1  0  0  0  0
  9 25  1  0  0  0  0
 11 20  2  0  0  0  0
 13  9  2  0  0  0  0
 13 24  1  0  0  0  0
 15 12  1  1  0  0  0
 15  4  1  0  0  0  0
 15  5  1  0  0  0  0
 17 28  1  1  0  0  0
 17 10  1  0  0  0  0
 18  1  1  0  0  0  0
 18 20  1  1  0  0  0
 19  5  1  0  0  0  0
 19  6  1  1  0  0  0
 20 13  1  0  0  0  0
 21 26  1  0  0  0  0
 22 10  1  0  0  0  0
 23 21  1  0  0  0  0
 24 22  2  0  0  0  0
 25 14  1  6  0  0  0
 25 17  1  0  0  0  0
 27  2  1  1  0  0  0
 27  9  1  0  0  0  0
 28 29  1  0  0  0  0
 30 34  1  0  0  0  0
 31 32  1  0  0  0  0
 31 33  1  0  0  0  0
 32 29  1  6  0  0  0
 32 34  1  0  0  0  0
 33 30  1  0  0  0  0
M  END
>  <MODEL>
7

>  <REMARK>
 VINA RESULT:      -6.5      3.576      8.875
  Name = 
  3 active torsions:
  status: ('A' for Active; 'I' for Inactive)
    1  A    between atoms: C_17  and  O_28
    2  A    between atoms: O_28  and  C_29
    3  A    between atoms: C_29  and  C_32
                            x       y       z     vdW  Elec       q    Type
                         _______ _______ _______ _____ _____    ______ ____

>  <TORSDO>
F 3

$$$$
=
 OpenBabel11122414343D

 34 41  0  0  1  0  0  0  0  0999 V2000
  161.1020  203.8630  151.1740 C   0  0  2  0  0  3  0  0  0  0  0  0
  160.9830  205.8650  152.5980 N   0  0  0  0  0  2  0  0  0  0  0  0
  160.1880  200.5740  145.5540 C   0  0  1  0  0  3  0  0  0  0  0  0
  161.2980  201.9550  149.6210 C   0  0  1  0  0  3  0  0  0  0  0  0
  160.3330  202.3180  147.2180 C   0  0  2  0  0  3  0  0  0  0  0  0
  159.8460  202.3080  144.6450 C   0  0  0  0  0  2  0  0  0  0  0  0
  159.5780  200.9550  144.3510 O   0  0  0  0  0  0  0  0  0  0  0  0
  161.8020  199.2930  146.9040 C   0  0  0  0  0  2  0  0  0  0  0  0
  160.8030  206.1330  150.2640 C   0  0  0  0  0  0  0  0  0  0  0  0
  161.9280  208.7670  148.9340 C   0  0  0  0  0  2  0  0  0  0  0  0
  160.6630  203.7600  147.4790 C   0  0  0  0  0  3  0  0  0  0  0  0
  162.1880  200.5260  147.7500 C   0  0  0  0  0  2  0  0  0  0  0  0
  160.9440  205.6940  148.9880 C   0  0  0  0  0  0  0  0  0  0  0  0
  161.0660  207.2950  152.3020 C   0  0  0  0  0  2  0  0  0  0  0  0
  160.9650  201.3260  148.2600 C   0  0  1  0  0  3  0  0  0  0  0  0
  161.3580  199.6240  145.4670 C   0  0  0  0  0  2  0  0  0  0  0  0
  162.3090  208.1100  150.2430 C   0  0  2  0  0  3  0  0  0  0  0  0
  160.5600  203.2750  149.8740 C   0  0  2  0  0  3  0  0  0  0  0  0
  160.7290  201.9390  145.8060 C   0  0  2  0  0  3  0  0  0  0  0  0
  160.7430  204.2370  148.7250 C   0  0  0  0  0  0  0  0  0  0  0  0
  161.5050  201.5470  151.9660 C   0  0  0  0  0  2  0  0  0  0  0  0
  161.8240  207.7960  147.8020 C   0  0  0  0  0  3  0  0  0  0  0  0
  160.9930  201.0120  150.7010 N   0  0  0  0  0  2  0  0  0  0  0  0
  161.3930  206.5310  147.8410 C   0  0  0  0  0  3  0  0  0  0  0  0
  161.0270  207.4980  150.7890 C   0  0  1  0  0  3  0  0  0  0  0  0
  160.8340  202.8800  152.3090 C   0  0  0  0  0  2  0  0  0  0  0  0
  160.4620  205.2270  151.3970 C   0  0  1  0  0  3  0  0  0  0  0  0
  162.7950  209.0970  151.1060 O   0  0  0  0  0  0  0  0  0  0  0  0
  162.0450  210.2370  150.8020 C   0  0  0  0  0  2  0  0  0  0  0  0
  159.6720  210.4820  153.0300 O   0  0  0  0  0  0  0  0  0  0  0  0
  161.9970  210.1610  153.2730 C   0  0  0  0  0  2  0  0  0  0  0  0
  161.7700  211.0270  152.0690 C   0  0  2  0  0  3  0  0  0  0  0  0
  160.6570  210.1490  153.9680 C   0  0  0  0  0  2  0  0  0  0  0  0
  160.2980  211.3680  152.1390 C   0  0  0  0  0  2  0  0  0  0  0  0
  1 27  1  0  0  0  0
  1 26  1  1  0  0  0
  3 16  1  6  0  0  0
  3 19  1  0  0  0  0
  4 18  1  0  0  0  0
  4 23  1  1  0  0  0
  5 11  1  1  0  0  0
  5 15  1  0  0  0  0
  7  6  1  0  0  0  0
  7  3  1  0  0  0  0
  8 12  1  0  0  0  0
  9 25  1  0  0  0  0
 10 17  1  0  0  0  0
 11 20  2  0  0  0  0
 13  9  2  0  0  0  0
 14  2  1  0  0  0  0
 15 12  1  6  0  0  0
 15  4  1  0  0  0  0
 16  8  1  0  0  0  0
 17 25  1  0  0  0  0
 17 28  1  1  0  0  0
 18 20  1  6  0  0  0
 18  1  1  0  0  0  0
 19  6  1  6  0  0  0
 19  5  1  0  0  0  0
 20 13  1  0  0  0  0
 21 26  1  0  0  0  0
 22 24  2  0  0  0  0
 22 10  1  0  0  0  0
 23 21  1  0  0  0  0
 24 13  1  0  0  0  0
 25 14  1  1  0  0  0
 27  9  1  6  0  0  0
 27  2  1  0  0  0  0
 29 28  1  0  0  0  0
 30 33  1  0  0  0  0
 31 33  1  0  0  0  0
 32 29  1  6  0  0  0
 32 34  1  0  0  0  0
 32 31  1  0  0  0  0
 34 30  1  0  0  0  0
M  END
>  <MODEL>
8

>  <REMARK>
 VINA RESULT:      -6.2      2.602      8.785
  Name = 
  3 active torsions:
  status: ('A' for Active; 'I' for Inactive)
    1  A    between atoms: C_17  and  O_28
    2  A    between atoms: O_28  and  C_29
    3  A    between atoms: C_29  and  C_32
                            x       y       z     vdW  Elec       q    Type
                         _______ _______ _______ _____ _____    ______ ____

>  <TORSDO>
F 3

$$$$
=
 OpenBabel11122414343D

 34 41  0  0  1  0  0  0  0  0999 V2000
  158.2300  213.2920  150.0970 C   0  0  2  0  0  3  0  0  0  0  0  0
  158.2050  212.9290  152.5290 N   0  0  0  0  0  2  0  0  0  0  0  0
  161.2160  214.0110  144.2830 C   0  0  1  0  0  3  0  0  0  0  0  0
  158.3620  213.5160  147.6430 C   0  0  1  0  0  3  0  0  0  0  0  0
  160.7660  213.5870  146.6170 C   0  0  2  0  0  3  0  0  0  0  0  0
  162.8970  213.3520  145.1130 C   0  0  0  0  0  2  0  0  0  0  0  0
  162.5750  214.0740  143.9450 O   0  0  0  0  0  0  0  0  0  0  0  0
  158.8510  213.4850  143.8370 C   0  0  0  0  0  2  0  0  0  0  0  0
  160.1550  212.3730  151.3290 C   0  0  0  0  0  0  0  0  0  0  0  0
  161.9250  209.9520  152.3190 C   0  0  0  0  0  2  0  0  0  0  0  0
  161.1290  212.7660  147.8220 C   0  0  0  0  0  3  0  0  0  0  0  0
  158.6500  212.8530  145.2310 C   0  0  0  0  0  2  0  0  0  0  0  0
  160.8260  212.1040  150.1800 C   0  0  0  0  0  0  0  0  0  0  0  0
  159.0890  212.1850  153.4270 C   0  0  0  0  0  2  0  0  0  0  0  0
  159.2180  213.7170  146.3830 C   0  0  1  0  0  3  0  0  0  0  0  0
  160.2830  213.3640  143.2860 C   0  0  0  0  0  2  0  0  0  0  0  0
  160.4560  210.2310  152.5530 C   0  0  2  0  0  3  0  0  0  0  0  0
  159.1560  213.6740  148.9440 C   0  0  2  0  0  3  0  0  0  0  0  0
  161.4520  213.0350  145.3840 C   0  0  2  0  0  3  0  0  0  0  0  0
  160.3990  212.8180  148.9400 C   0  0  0  0  0  0  0  0  0  0  0  0
  156.3230  214.1100  148.7370 C   0  0  0  0  0  2  0  0  0  0  0  0
  162.3390  210.1550  150.8980 C   0  0  0  0  0  3  0  0  0  0  0  0
  157.2350  214.4530  147.6420 N   0  0  0  0  0  2  0  0  0  0  0  0
  161.8850  211.0680  150.0330 C   0  0  0  0  0  3  0  0  0  0  0  0
  160.3320  211.7440  152.6570 C   0  0  1  0  0  3  0  0  0  0  0  0
  157.0260  214.2280  150.0930 C   0  0  0  0  0  2  0  0  0  0  0  0
  159.0230  213.3400  151.3960 C   0  0  1  0  0  3  0  0  0  0  0  0
  160.0770  209.6190  153.7520 O   0  0  0  0  0  0  0  0  0  0  0  0
  161.2540  209.0580  154.2540 C   0  0  0  0  0  2  0  0  0  0  0  0
  161.2050  211.5700  156.3360 O   0  0  0  0  0  0  0  0  0  0  0  0
  159.9640  209.5640  156.3010 C   0  0  0  0  0  2  0  0  0  0  0  0
  161.3310  209.2760  155.7550 C   0  0  2  0  0  3  0  0  0  0  0  0
  160.1040  210.9330  156.9220 C   0  0  0  0  0  2  0  0  0  0  0  0
  162.1110  210.5400  156.0400 C   0  0  0  0  0  2  0  0  0  0  0  0
  1 26  1  1  0  0  0
  1 27  1  0  0  0  0
  2 14  1  0  0  0  0
  3 16  1  6  0  0  0
  3 19  1  0  0  0  0
  4 23  1  1  0  0  0
  4 18  1  0  0  0  0
  5 11  1  1  0  0  0
  7  3  1  0  0  0  0
  7  6  1  0  0  0  0
  8 12  1  0  0  0  0
  9 25  1  0  0  0  0
 10 17  1  0  0  0  0
 11 20  2  0  0  0  0
 13  9  2  0  0  0  0
 15 12  1  6  0  0  0
 15  5  1  0  0  0  0
 15  4  1  0  0  0  0
 16  8  1  0  0  0  0
 17 25  1  0  0  0  0
 17 28  1  1  0  0  0
 18 20  1  6  0  0  0
 18  1  1  0  0  0  0
 19  6  1  1  0  0  0
 19  5  1  0  0  0  0
 20 13  1  0  0  0  0
 21 26  1  0  0  0  0
 22 10  1  0  0  0  0
 23 21  1  0  0  0  0
 24 13  1  0  0  0  0
 24 22  2  0  0  0  0
 25 14  1  1  0  0  0
 27  9  1  6  0  0  0
 27  2  1  0  0  0  0
 28 29  1  0  0  0  0
 30 33  1  0  0  0  0
 31 33  1  0  0  0  0
 32 29  1  6  0  0  0
 32 34  1  0  0  0  0
 32 31  1  0  0  0  0
 34 30  1  0  0  0  0
M  END
>  <MODEL>
9

>  <REMARK>
 VINA RESULT:      -6.1      4.890      7.006
  Name = 
  3 active torsions:
  status: ('A' for Active; 'I' for Inactive)
    1  A    between atoms: C_17  and  O_28
    2  A    between atoms: O_28  and  C_29
    3  A    between atoms: C_29  and  C_32
                            x       y       z     vdW  Elec       q    Type
                         _______ _______ _______ _____ _____    ______ ____

>  <TORSDO>
F 3

$$$$
