=
 OpenBabel11122413193D

 31 35  0  0  1  0  0  0  0  0999 V2000
  160.8320  202.2960  150.9990 C   0  0  0  0  0  0  0  0  0  0  0  0
  161.2560  205.7230  149.4960 C   0  0  0  0  0  0  0  0  0  0  0  0
  161.3320  205.5600  148.0820 C   0  0  0  0  0  0  0  0  0  0  0  0
  161.1770  208.1800  154.1640 O   0  0  0  0  0  0  0  0  0  0  0  0
  161.3280  209.0310  153.2480 C   0  0  0  0  0  0  0  0  0  0  0  0
  161.3330  204.1920  146.0570 C   0  0  0  0  0  0  0  0  0  0  0  0
  161.0930  204.6580  150.4330 C   0  0  0  0  0  0  0  0  0  0  0  0
  160.7740  202.6150  152.3550 C   0  0  0  0  0  3  0  0  0  0  0  0
  161.2530  204.3070  147.4470 C   0  0  0  0  0  3  0  0  0  0  0  0
  161.2810  207.2850  151.3810 C   0  0  0  0  0  0  0  0  0  0  0  0
  160.7350  201.0060  150.6010 F   0  0  0  0  0  0  0  0  0  0  0  0
  161.5730  207.9320  147.8350 N   0  0  0  0  0  0  0  0  0  0  0  0
  161.2470  202.8550  145.4170 C   0  0  0  0  0  1  0  0  0  0  0  0
  161.1280  206.2460  152.2410 N   0  0  0  0  0  0  0  0  0  0  0  0
  161.3480  207.0450  150.0030 C   0  0  0  0  0  0  0  0  0  0  0  0
  161.3780  208.6280  151.8720 N   0  0  0  0  0  2  0  0  0  0  0  0
  160.9900  203.3090  150.0500 C   0  0  0  0  0  3  0  0  0  0  0  0
  161.4920  205.3340  145.2720 C   0  0  0  0  0  3  0  0  0  0  0  0
  161.0320  204.9640  151.8160 C   0  0  0  0  0  0  0  0  0  0  0  0
  160.8750  203.9450  152.7620 C   0  0  0  0  0  3  0  0  0  0  0  0
  161.5030  208.0950  149.1520 N   0  0  0  0  0  0  0  0  0  0  0  0
  161.4940  206.7050  147.2680 C   0  0  0  0  0  0  0  0  0  0  0  0
  161.5730  206.5880  145.8770 C   0  0  0  0  0  3  0  0  0  0  0  0
  160.1600  211.0130  156.1730 C   0  0  1  0  0  3  0  0  0  0  0  0
  162.2950  210.6860  154.8900 C   0  0  0  0  0  2  0  0  0  0  0  0
  159.3700  211.0260  152.5320 C   0  0  0  0  0  1  0  0  0  0  0  0
  159.4180  210.5570  157.2610 O   0  0  0  0  0  1  0  0  0  0  0  0
  161.5060  210.2950  156.1400 C   0  0  0  0  0  2  0  0  0  0  0  0
  160.1700  211.2120  153.7350 N   0  0  0  0  0  0  0  0  0  0  0  0
  161.4540  210.4890  153.6220 C   0  0  2  0  0  3  0  0  0  0  0  0
  159.3960  210.7370  154.8820 C   0  0  0  0  0  2  0  0  0  0  0  0
  1  8  1  0  0  0  0
  2 15  1  0  0  0  0
  2  7  1  0  0  0  0
  3  2  2  0  0  0  0
  5  4  2  0  0  0  0
  6  9  2  0  0  0  0
  7 19  2  0  0  0  0
  8 20  2  0  0  0  0
  9  3  1  0  0  0  0
 10 16  1  0  0  0  0
 10 14  2  0  0  0  0
 11  1  1  0  0  0  0
 12 21  1  0  0  0  0
 13  6  1  0  0  0  0
 15 10  1  0  0  0  0
 16  5  1  0  0  0  0
 17  7  1  0  0  0  0
 17  1  2  0  0  0  0
 18 23  2  0  0  0  0
 18  6  1  0  0  0  0
 19 14  1  0  0  0  0
 19 20  1  0  0  0  0
 21 15  2  0  0  0  0
 22 12  2  0  0  0  0
 22  3  1  0  0  0  0
 23 22  1  0  0  0  0
 24 27  1  1  0  0  0
 25 28  1  0  0  0  0
 26 29  1  0  0  0  0
 28 24  1  0  0  0  0
 29 31  1  0  0  0  0
 30  5  1  1  0  0  0
 30 29  1  0  0  0  0
 30 25  1  0  0  0  0
 31 24  1  0  0  0  0
M  END
>  <MODEL>
1

>  <REMARK>
 VINA RESULT:     -10.4      0.000      0.000
  Name = 
  1 active torsions:
  status: ('A' for Active; 'I' for Inactive)
    1  A    between atoms: C_5  and  C_30
                            x       y       z     vdW  Elec       q    Type
                         _______ _______ _______ _____ _____    ______ ____

>  <TORSDO>
F 1

$$$$
=
 OpenBabel11122413193D

 31 35  0  0  1  0  0  0  0  0999 V2000
  161.8890  207.0810  147.3790 C   0  0  0  0  0  0  0  0  0  0  0  0
  161.3170  205.8560  150.8940 C   0  0  0  0  0  0  0  0  0  0  0  0
  161.1520  204.4410  150.8280 C   0  0  0  0  0  0  0  0  0  0  0  0
  161.6630  210.6720  153.0190 O   0  0  0  0  0  0  0  0  0  0  0  0
  161.4400  209.8300  153.9280 C   0  0  0  0  0  0  0  0  0  0  0  0
  161.0390  202.3290  149.6060 C   0  0  0  0  0  0  0  0  0  0  0  0
  161.5560  206.7020  149.7690 C   0  0  0  0  0  0  0  0  0  0  0  0
  162.0310  208.4500  147.6030 C   0  0  0  0  0  3  0  0  0  0  0  0
  161.2070  203.7150  149.6250 C   0  0  0  0  0  3  0  0  0  0  0  0
  161.3910  207.8450  152.3190 C   0  0  0  0  0  0  0  0  0  0  0  0
  161.9790  206.5870  146.1220 F   0  0  0  0  0  0  0  0  0  0  0  0
  160.8590  204.3800  153.2060 N   0  0  0  0  0  0  0  0  0  0  0  0
  161.1020  201.5900  148.3190 C   0  0  0  0  0  1  0  0  0  0  0  0
  161.6160  208.6170  151.2260 N   0  0  0  0  0  0  0  0  0  0  0  0
  161.2380  206.4600  152.1750 C   0  0  0  0  0  0  0  0  0  0  0  0
  161.3060  208.4360  153.6220 N   0  0  0  0  0  2  0  0  0  0  0  0
  161.6540  206.2190  148.4520 C   0  0  0  0  0  3  0  0  0  0  0  0
  160.8110  201.6380  150.7970 C   0  0  0  0  0  3  0  0  0  0  0  0
  161.7030  208.0970  149.9780 C   0  0  0  0  0  0  0  0  0  0  0  0
  161.9370  208.9560  148.8990 C   0  0  0  0  0  3  0  0  0  0  0  0
  161.0120  205.6980  153.2780 N   0  0  0  0  0  0  0  0  0  0  0  0
  160.9190  203.7230  152.0240 C   0  0  0  0  0  0  0  0  0  0  0  0
  160.7520  202.3360  152.0040 C   0  0  0  0  0  3  0  0  0  0  0  0
  160.4050  208.1730  157.0950 C   0  0  1  0  0  3  0  0  0  0  0  0
  162.3040  209.6060  156.2890 C   0  0  0  0  0  2  0  0  0  0  0  0
  159.0090  210.9350  155.0210 C   0  0  0  0  0  1  0  0  0  0  0  0
  159.9770  206.8570  157.2600 O   0  0  0  0  0  1  0  0  0  0  0  0
  161.8450  208.1800  156.5940 C   0  0  0  0  0  2  0  0  0  0  0  0
  159.9470  210.2630  155.9090 N   0  0  0  0  0  0  0  0  0  0  0  0
  161.3170  210.3150  155.3540 C   0  0  2  0  0  3  0  0  0  0  0  0
  159.5040  208.8800  156.0880 C   0  0  0  0  0  2  0  0  0  0  0  0
  1  8  2  0  0  0  0
  1 17  1  0  0  0  0
  2 15  1  0  0  0  0
  3  2  2  0  0  0  0
  3 22  1  0  0  0  0
  4  5  2  0  0  0  0
  6  9  2  0  0  0  0
  6 18  1  0  0  0  0
  7 19  1  0  0  0  0
  7  2  1  0  0  0  0
  8 20  1  0  0  0  0
  9  3  1  0  0  0  0
 10 16  1  0  0  0  0
 11  1  1  0  0  0  0
 12 21  1  0  0  0  0
 13  6  1  0  0  0  0
 14 10  2  0  0  0  0
 15 10  1  0  0  0  0
 15 21  2  0  0  0  0
 16  5  1  0  0  0  0
 17  7  2  0  0  0  0
 18 23  2  0  0  0  0
 19 14  1  0  0  0  0
 20 19  2  0  0  0  0
 22 12  2  0  0  0  0
 23 22  1  0  0  0  0
 24 27  1  6  0  0  0
 25 28  1  0  0  0  0
 26 29  1  0  0  0  0
 28 24  1  0  0  0  0
 29 31  1  0  0  0  0
 30  5  1  6  0  0  0
 30 29  1  0  0  0  0
 30 25  1  0  0  0  0
 31 24  1  0  0  0  0
M  END
>  <MODEL>
2

>  <REMARK>
 VINA RESULT:     -10.0      2.222      4.155
  Name = 
  1 active torsions:
  status: ('A' for Active; 'I' for Inactive)
    1  A    between atoms: C_5  and  C_30
                            x       y       z     vdW  Elec       q    Type
                         _______ _______ _______ _____ _____    ______ ____

>  <TORSDO>
F 1

$$$$
=
 OpenBabel11122413193D

 31 35  0  0  1  0  0  0  0  0999 V2000
  161.8010  206.9890  147.3050 C   0  0  0  0  0  0  0  0  0  0  0  0
  161.2370  205.3050  150.6260 C   0  0  0  0  0  0  0  0  0  0  0  0
  161.0940  203.9090  150.3740 C   0  0  0  0  0  0  0  0  0  0  0  0
  161.5010  209.8050  153.3660 O   0  0  0  0  0  0  0  0  0  0  0  0
  161.2880  208.8470  154.1560 C   0  0  0  0  0  0  0  0  0  0  0  0
  161.0180  201.9740  148.8850 C   0  0  0  0  0  0  0  0  0  0  0  0
  161.4660  206.2950  149.6230 C   0  0  0  0  0  0  0  0  0  0  0  0
  161.9200  208.3190  147.7080 C   0  0  0  0  0  3  0  0  0  0  0  0
  161.1640  203.3470  149.0870 C   0  0  0  0  0  3  0  0  0  0  0  0
  161.2750  207.0900  152.3000 C   0  0  0  0  0  0  0  0  0  0  0  0
  161.9030  206.6660  145.9950 F   0  0  0  0  0  0  0  0  0  0  0  0
  160.7950  203.5310  152.7230 N   0  0  0  0  0  0  0  0  0  0  0  0
  161.0970  201.4110  147.5120 C   0  0  0  0  0  1  0  0  0  0  0  0
  161.4920  208.0020  151.3190 N   0  0  0  0  0  0  0  0  0  0  0  0
  161.1450  205.7340  151.9750 C   0  0  0  0  0  0  0  0  0  0  0  0
  161.1770  207.5030  153.6690 N   0  0  0  0  0  2  0  0  0  0  0  0
  161.5760  205.9900  148.2550 C   0  0  0  0  0  3  0  0  0  0  0  0
  160.7980  201.1290  149.9740 C   0  0  0  0  0  3  0  0  0  0  0  0
  161.5900  207.6520  150.0140 C   0  0  0  0  0  0  0  0  0  0  0  0
  161.8140  208.6490  149.0590 C   0  0  0  0  0  3  0  0  0  0  0  0
  160.9270  204.8310  152.9670 N   0  0  0  0  0  0  0  0  0  0  0  0
  160.8690  203.0360  151.4650 C   0  0  0  0  0  0  0  0  0  0  0  0
  160.7230  201.6610  151.2620 C   0  0  0  0  0  3  0  0  0  0  0  0
  159.4710  211.4690  156.0720 C   0  0  1  0  0  3  0  0  0  0  0  0
  159.7090  208.9690  156.1220 C   0  0  0  0  0  2  0  0  0  0  0  0
  163.0640  210.6110  155.5930 C   0  0  0  0  0  1  0  0  0  0  0  0
  158.7120  212.5190  155.5580 O   0  0  0  0  0  1  0  0  0  0  0  0
  158.8350  210.1410  155.6740 C   0  0  0  0  0  2  0  0  0  0  0  0
  161.6930  210.4480  156.0570 N   0  0  0  0  0  0  0  0  0  0  0  0
  161.1530  209.1390  155.6330 C   0  0  2  0  0  3  0  0  0  0  0  0
  160.8910  211.5480  155.5210 C   0  0  0  0  0  2  0  0  0  0  0  0
  1  8  2  0  0  0  0
  1 17  1  0  0  0  0
  2 15  1  0  0  0  0
  3  2  2  0  0  0  0
  3 22  1  0  0  0  0
  4  5  2  0  0  0  0
  6  9  2  0  0  0  0
  6 18  1  0  0  0  0
  7 19  1  0  0  0  0
  7  2  1  0  0  0  0
  8 20  1  0  0  0  0
  9  3  1  0  0  0  0
 10 16  1  0  0  0  0
 11  1  1  0  0  0  0
 12 21  1  0  0  0  0
 13  6  1  0  0  0  0
 14 10  2  0  0  0  0
 15 10  1  0  0  0  0
 15 21  2  0  0  0  0
 16  5  1  0  0  0  0
 17  7  2  0  0  0  0
 18 23  2  0  0  0  0
 19 14  1  0  0  0  0
 20 19  2  0  0  0  0
 22 12  2  0  0  0  0
 23 22  1  0  0  0  0
 24 27  1  6  0  0  0
 26 29  1  0  0  0  0
 28 24  1  0  0  0  0
 28 25  1  0  0  0  0
 30  5  1  6  0  0  0
 30 29  1  0  0  0  0
 30 25  1  0  0  0  0
 31 29  1  0  0  0  0
 31 24  1  0  0  0  0
M  END
>  <MODEL>
3

>  <REMARK>
 VINA RESULT:     -10.0      2.188      4.106
  Name = 
  1 active torsions:
  status: ('A' for Active; 'I' for Inactive)
    1  A    between atoms: C_5  and  C_30
                            x       y       z     vdW  Elec       q    Type
                         _______ _______ _______ _____ _____    ______ ____

>  <TORSDO>
F 1

$$$$
=
 OpenBabel11122413193D

 31 35  0  0  1  0  0  0  0  0999 V2000
  161.1990  204.8030  152.4100 C   0  0  0  0  0  0  0  0  0  0  0  0
  161.4120  205.8690  148.8050 C   0  0  0  0  0  0  0  0  0  0  0  0
  161.3380  204.6880  148.0090 C   0  0  0  0  0  0  0  0  0  0  0  0
  161.8010  211.0000  149.9650 O   0  0  0  0  0  0  0  0  0  0  0  0
  161.8420  210.8510  148.7150 C   0  0  0  0  0  0  0  0  0  0  0  0
  161.1410  202.2680  147.7370 C   0  0  0  0  0  0  0  0  0  0  0  0
  161.3660  205.8940  150.2320 C   0  0  0  0  0  0  0  0  0  0  0  0
  161.2820  206.0380  153.0500 C   0  0  0  0  0  3  0  0  0  0  0  0
  161.2090  203.3980  148.5550 C   0  0  0  0  0  3  0  0  0  0  0  0
  161.6190  208.3080  148.8370 C   0  0  0  0  0  0  0  0  0  0  0  0
  161.0770  203.6690  153.1400 F   0  0  0  0  0  0  0  0  0  0  0  0
  161.5200  206.0290  146.0300 N   0  0  0  0  0  0  0  0  0  0  0  0
  161.0050  200.9190  148.3440 C   0  0  0  0  0  1  0  0  0  0  0  0
  161.5720  208.2920  150.1930 N   0  0  0  0  0  0  0  0  0  0  0  0
  161.5400  207.1050  148.1220 C   0  0  0  0  0  0  0  0  0  0  0  0
  161.7500  209.5460  148.1270 N   0  0  0  0  0  2  0  0  0  0  0  0
  161.2400  204.7340  151.0160 C   0  0  0  0  0  3  0  0  0  0  0  0
  161.1990  202.4070  146.3500 C   0  0  0  0  0  3  0  0  0  0  0  0
  161.4490  207.1420  150.8990 C   0  0  0  0  0  0  0  0  0  0  0  0
  161.4080  207.2050  152.2960 C   0  0  0  0  0  3  0  0  0  0  0  0
  161.5890  207.1350  146.7640 N   0  0  0  0  0  0  0  0  0  0  0  0
  161.3960  204.8070  146.6000 C   0  0  0  0  0  0  0  0  0  0  0  0
  161.3270  203.6760  145.7830 C   0  0  0  0  0  3  0  0  0  0  0  0
  159.9780  214.0650  148.5120 C   0  0  1  0  0  3  0  0  0  0  0  0
  162.3720  213.3180  148.6530 C   0  0  0  0  0  2  0  0  0  0  0  0
  160.4570  211.1800  146.2050 C   0  0  0  0  0  1  0  0  0  0  0  0
  158.8710  214.4500  149.2670 O   0  0  0  0  0  1  0  0  0  0  0  0
  161.1730  213.8560  149.4350 C   0  0  0  0  0  2  0  0  0  0  0  0
  160.8230  212.3600  146.9770 N   0  0  0  0  0  0  0  0  0  0  0  0
  161.9870  212.0750  147.8410 C   0  0  2  0  0  3  0  0  0  0  0  0
  159.6640  212.7700  147.7700 C   0  0  0  0  0  2  0  0  0  0  0  0
  1  8  1  0  0  0  0
  1 11  1  0  0  0  0
  2  7  1  0  0  0  0
  3  9  1  0  0  0  0
  3  2  2  0  0  0  0
  5  4  2  0  0  0  0
  6 13  1  0  0  0  0
  6  9  2  0  0  0  0
  7 19  2  0  0  0  0
  7 17  1  0  0  0  0
 10 14  2  0  0  0  0
 12 22  2  0  0  0  0
 12 21  1  0  0  0  0
 14 19  1  0  0  0  0
 15  2  1  0  0  0  0
 15 10  1  0  0  0  0
 16  5  1  0  0  0  0
 16 10  1  0  0  0  0
 17  1  2  0  0  0  0
 18  6  1  0  0  0  0
 19 20  1  0  0  0  0
 20  8  2  0  0  0  0
 21 15  2  0  0  0  0
 22  3  1  0  0  0  0
 23 18  2  0  0  0  0
 23 22  1  0  0  0  0
 24 27  1  1  0  0  0
 24 28  1  0  0  0  0
 25 28  1  0  0  0  0
 26 29  1  0  0  0  0
 29 31  1  0  0  0  0
 29 30  1  0  0  0  0
 30 25  1  0  0  0  0
 30  5  1  1  0  0  0
 31 24  1  0  0  0  0
M  END
>  <MODEL>
4

>  <REMARK>
 VINA RESULT:     -10.0      3.305      4.507
  Name = 
  1 active torsions:
  status: ('A' for Active; 'I' for Inactive)
    1  A    between atoms: C_5  and  C_30
                            x       y       z     vdW  Elec       q    Type
                         _______ _______ _______ _____ _____    ______ ____

>  <TORSDO>
F 1

$$$$
=
 OpenBabel11122413193D

 31 35  0  0  1  0  0  0  0  0999 V2000
  161.0260  202.0920  150.9670 C   0  0  0  0  0  0  0  0  0  0  0  0
  161.2450  205.7180  149.9740 C   0  0  0  0  0  0  0  0  0  0  0  0
  161.3980  205.7610  148.5570 C   0  0  0  0  0  0  0  0  0  0  0  0
  160.7600  207.4810  154.9220 O   0  0  0  0  0  0  0  0  0  0  0  0
  160.8850  208.4600  154.1410 C   0  0  0  0  0  0  0  0  0  0  0  0
  161.6000  204.6960  146.3680 C   0  0  0  0  0  0  0  0  0  0  0  0
  161.1250  204.5220  150.7450 C   0  0  0  0  0  0  0  0  0  0  0  0
  160.8810  202.2110  152.3480 C   0  0  0  0  0  3  0  0  0  0  0  0
  161.4490  204.6080  147.7530 C   0  0  0  0  0  3  0  0  0  0  0  0
  161.0620  206.9970  152.0530 C   0  0  0  0  0  0  0  0  0  0  0  0
  161.0500  200.8670  150.3920 F   0  0  0  0  0  0  0  0  0  0  0  0
  161.4630  208.1560  148.6510 N   0  0  0  0  0  0  0  0  0  0  0  0
  161.6500  203.4600  145.5460 C   0  0  0  0  0  1  0  0  0  0  0  0
  160.9520  205.8390  152.7530 N   0  0  0  0  0  0  0  0  0  0  0  0
  161.2100  206.9590  150.6610 C   0  0  0  0  0  0  0  0  0  0  0  0
  161.0300  208.2610  152.7290 N   0  0  0  0  0  2  0  0  0  0  0  0
  161.1470  203.2370  150.1760 C   0  0  0  0  0  3  0  0  0  0  0  0
  161.7040  205.9460  145.7560 C   0  0  0  0  0  3  0  0  0  0  0  0
  160.9780  204.6250  152.1520 C   0  0  0  0  0  0  0  0  0  0  0  0
  160.8580  203.4750  152.9390 C   0  0  0  0  0  3  0  0  0  0  0  0
  161.3200  208.1260  149.9730 N   0  0  0  0  0  0  0  0  0  0  0  0
  161.5060  207.0190  147.9180 C   0  0  0  0  0  0  0  0  0  0  0  0
  161.6580  207.1050  146.5310 C   0  0  0  0  0  3  0  0  0  0  0  0
  159.4270  211.6820  152.9830 C   0  0  1  0  0  3  0  0  0  0  0  0
  159.4630  210.3180  155.0910 C   0  0  0  0  0  2  0  0  0  0  0  0
  162.8950  210.4380  153.5300 C   0  0  0  0  0  1  0  0  0  0  0  0
  158.7220  211.9160  151.8040 O   0  0  0  0  0  1  0  0  0  0  0  0
  158.6580  210.6860  153.8450 C   0  0  0  0  0  2  0  0  0  0  0  0
  161.5520  210.8740  153.8850 N   0  0  0  0  0  0  0  0  0  0  0  0
  160.8780  209.8570  154.7190 C   0  0  2  0  0  3  0  0  0  0  0  0
  160.8070  211.1230  152.6510 C   0  0  0  0  0  2  0  0  0  0  0  0
  1  8  1  0  0  0  0
  2 15  1  0  0  0  0
  2  7  1  0  0  0  0
  3  2  2  0  0  0  0
  5  4  2  0  0  0  0
  6  9  2  0  0  0  0
  7 19  2  0  0  0  0
  8 20  2  0  0  0  0
  9  3  1  0  0  0  0
 10 16  1  0  0  0  0
 10 14  2  0  0  0  0
 11  1  1  0  0  0  0
 12 21  1  0  0  0  0
 13  6  1  0  0  0  0
 15 10  1  0  0  0  0
 16  5  1  0  0  0  0
 17  7  1  0  0  0  0
 17  1  2  0  0  0  0
 18  6  1  0  0  0  0
 18 23  2  0  0  0  0
 19 14  1  0  0  0  0
 19 20  1  0  0  0  0
 21 15  2  0  0  0  0
 22  3  1  0  0  0  0
 22 12  2  0  0  0  0
 23 22  1  0  0  0  0
 24 27  1  6  0  0  0
 24 28  1  0  0  0  0
 26 29  1  0  0  0  0
 28 25  1  0  0  0  0
 29 30  1  0  0  0  0
 30  5  1  6  0  0  0
 30 25  1  0  0  0  0
 31 24  1  0  0  0  0
 31 29  1  0  0  0  0
M  END
>  <MODEL>
5

>  <REMARK>
 VINA RESULT:      -8.2      1.222      1.805
  Name = 
  1 active torsions:
  status: ('A' for Active; 'I' for Inactive)
    1  A    between atoms: C_5  and  C_30
                            x       y       z     vdW  Elec       q    Type
                         _______ _______ _______ _____ _____    ______ ____

>  <TORSDO>
F 1

$$$$
=
 OpenBabel11122413193D

 31 35  0  0  1  0  0  0  0  0999 V2000
  161.5780  205.5000  151.8660 C   0  0  0  0  0  0  0  0  0  0  0  0
  161.0540  209.0580  152.9830 C   0  0  0  0  0  0  0  0  0  0  0  0
  160.7750  209.0270  154.3810 C   0  0  0  0  0  0  0  0  0  0  0  0
  161.8610  211.0720  148.1740 O   0  0  0  0  0  0  0  0  0  0  0  0
  161.6100  212.0060  148.9800 C   0  0  0  0  0  0  0  0  0  0  0  0
  160.4480  207.8530  156.4980 C   0  0  0  0  0  0  0  0  0  0  0  0
  161.3130  207.9080  152.1780 C   0  0  0  0  0  0  0  0  0  0  0  0
  161.8350  205.6910  150.5090 C   0  0  0  0  0  3  0  0  0  0  0  0
  160.7250  207.8380  155.1300 C   0  0  0  0  0  3  0  0  0  0  0  0
  161.3410  210.4390  150.9820 C   0  0  0  0  0  0  0  0  0  0  0  0
  161.5780  204.2500  152.3870 F   0  0  0  0  0  0  0  0  0  0  0  0
  160.5750  211.4160  154.3790 N   0  0  0  0  0  0  0  0  0  0  0  0
  160.4020  206.5790  157.2610 C   0  0  0  0  0  1  0  0  0  0  0  0
  161.5810  209.3230  150.2490 N   0  0  0  0  0  0  0  0  0  0  0  0
  161.0740  210.3290  152.3530 C   0  0  0  0  0  0  0  0  0  0  0  0
  161.3550  211.7330  150.3650 N   0  0  0  0  0  2  0  0  0  0  0  0
  161.3190  206.5990  152.6890 C   0  0  0  0  0  3  0  0  0  0  0  0
  160.2150  209.0650  157.1480 C   0  0  0  0  0  3  0  0  0  0  0  0
  161.5760  208.0840  150.7950 C   0  0  0  0  0  0  0  0  0  0  0  0
  161.8330  206.9800  149.9750 C   0  0  0  0  0  3  0  0  0  0  0  0
  160.8340  211.4550  153.0760 N   0  0  0  0  0  0  0  0  0  0  0  0
  160.5360  210.2460  155.0590 C   0  0  0  0  0  0  0  0  0  0  0  0
  160.2590  210.2600  156.4280 C   0  0  0  0  0  3  0  0  0  0  0  0
  158.8510  214.4020  148.2790 C   0  0  1  0  0  3  0  0  0  0  0  0
  161.0410  214.4070  149.5090 C   0  0  0  0  0  2  0  0  0  0  0  0
  161.3930  212.6680  146.1800 C   0  0  0  0  0  1  0  0  0  0  0  0
  157.4810  214.1790  148.4160 O   0  0  0  0  0  1  0  0  0  0  0  0
  159.5230  214.2860  149.6440 C   0  0  0  0  0  2  0  0  0  0  0  0
  160.8800  213.6000  147.1740 N   0  0  0  0  0  0  0  0  0  0  0  0
  161.5830  213.4250  148.4630 C   0  0  2  0  0  3  0  0  0  0  0  0
  159.4430  213.3730  147.3220 C   0  0  0  0  0  2  0  0  0  0  0  0
  1 11  1  0  0  0  0
  1 17  1  0  0  0  0
  2  3  1  0  0  0  0
  3 22  2  0  0  0  0
  3  9  1  0  0  0  0
  4  5  2  0  0  0  0
  5 16  1  0  0  0  0
  6 18  1  0  0  0  0
  6 13  1  0  0  0  0
  7 17  2  0  0  0  0
  7  2  1  0  0  0  0
  8  1  2  0  0  0  0
  9  6  2  0  0  0  0
 10 15  1  0  0  0  0
 12 22  1  0  0  0  0
 14 19  1  0  0  0  0
 14 10  2  0  0  0  0
 15  2  2  0  0  0  0
 15 21  1  0  0  0  0
 16 10  1  0  0  0  0
 19  7  1  0  0  0  0
 20  8  1  0  0  0  0
 20 19  2  0  0  0  0
 21 12  2  0  0  0  0
 22 23  1  0  0  0  0
 23 18  2  0  0  0  0
 24 27  1  1  0  0  0
 24 28  1  0  0  0  0
 25 28  1  0  0  0  0
 26 29  1  0  0  0  0
 29 31  1  0  0  0  0
 29 30  1  0  0  0  0
 30  5  1  1  0  0  0
 30 25  1  0  0  0  0
 31 24  1  0  0  0  0
M  END
>  <MODEL>
6

>  <REMARK>
 VINA RESULT:      -7.7      3.725      7.100
  Name = 
  1 active torsions:
  status: ('A' for Active; 'I' for Inactive)
    1  A    between atoms: C_5  and  C_30
                            x       y       z     vdW  Elec       q    Type
                         _______ _______ _______ _____ _____    ______ ____

>  <TORSDO>
F 1

$$$$
=
 OpenBabel11122413193D

 31 35  0  0  1  0  0  0  0  0999 V2000
  161.2240  204.1460  145.9070 C   0  0  0  0  0  0  0  0  0  0  0  0
  161.3130  205.8130  149.2830 C   0  0  0  0  0  0  0  0  0  0  0  0
  161.1990  204.7870  150.2660 C   0  0  0  0  0  0  0  0  0  0  0  0
  161.8110  210.6670  147.2780 O   0  0  0  0  0  0  0  0  0  0  0  0
  161.7820  210.7370  148.5350 C   0  0  0  0  0  0  0  0  0  0  0  0
  160.9700  202.4500  150.9400 C   0  0  0  0  0  0  0  0  0  0  0  0
  161.3200  205.5940  147.8720 C   0  0  0  0  0  0  0  0  0  0  0  0
  161.3430  205.2530  145.0690 C   0  0  0  0  0  3  0  0  0  0  0  0
  161.0800  203.4230  149.9440 C   0  0  0  0  0  3  0  0  0  0  0  0
  161.5440  208.2100  148.8420 C   0  0  0  0  0  0  0  0  0  0  0  0
  161.1200  202.9040  145.3780 F   0  0  0  0  0  0  0  0  0  0  0  0
  161.3200  206.4470  151.9910 N   0  0  0  0  0  0  0  0  0  0  0  0
  160.8440  201.0170  150.5680 C   0  0  0  0  0  1  0  0  0  0  0  0
  161.5460  207.9620  147.5080 N   0  0  0  0  0  0  0  0  0  0  0  0
  161.4280  207.1490  149.7480 C   0  0  0  0  0  0  0  0  0  0  0  0
  161.6580  209.5520  149.3330 N   0  0  0  0  0  2  0  0  0  0  0  0
  161.2130  204.3170  147.2930 C   0  0  0  0  0  3  0  0  0  0  0  0
  160.9790  202.8240  152.2840 C   0  0  0  0  0  3  0  0  0  0  0  0
  161.4410  206.7090  147.0050 C   0  0  0  0  0  0  0  0  0  0  0  0
  161.4500  206.5320  145.6170 C   0  0  0  0  0  3  0  0  0  0  0  0
  161.4260  207.4110  151.0820 N   0  0  0  0  0  0  0  0  0  0  0  0
  161.2060  205.1460  151.6350 C   0  0  0  0  0  0  0  0  0  0  0  0
  161.0960  204.1710  152.6290 C   0  0  0  0  0  3  0  0  0  0  0  0
  160.3930  214.0820  147.6810 C   0  0  1  0  0  3  0  0  0  0  0  0
  160.5230  212.5900  149.6980 C   0  0  0  0  0  2  0  0  0  0  0  0
  163.8310  212.6620  147.8860 C   0  0  0  0  0  1  0  0  0  0  0  0
  159.6140  214.4170  146.5750 O   0  0  0  0  0  1  0  0  0  0  0  0
  159.6460  213.0670  148.5400 C   0  0  0  0  0  2  0  0  0  0  0  0
  162.5400  213.1310  148.3680 N   0  0  0  0  0  0  0  0  0  0  0  0
  161.8840  212.0940  149.1910 C   0  0  2  0  0  3  0  0  0  0  0  0
  161.7170  213.4860  147.2110 C   0  0  0  0  0  2  0  0  0  0  0  0
  1 17  1  0  0  0  0
  2 15  2  0  0  0  0
  2  3  1  0  0  0  0
  3 22  1  0  0  0  0
  4  5  2  0  0  0  0
  5 16  1  0  0  0  0
  6 18  2  0  0  0  0
  7  2  1  0  0  0  0
  8 20  1  0  0  0  0
  8  1  2  0  0  0  0
  9  3  2  0  0  0  0
  9  6  1  0  0  0  0
 10 16  1  0  0  0  0
 10 15  1  0  0  0  0
 11  1  1  0  0  0  0
 13  6  1  0  0  0  0
 14 10  2  0  0  0  0
 15 21  1  0  0  0  0
 17  7  2  0  0  0  0
 18 23  1  0  0  0  0
 19 14  1  0  0  0  0
 19  7  1  0  0  0  0
 20 19  2  0  0  0  0
 21 12  2  0  0  0  0
 22 12  1  0  0  0  0
 22 23  2  0  0  0  0
 24 27  1  6  0  0  0
 24 28  1  0  0  0  0
 26 29  1  0  0  0  0
 28 25  1  0  0  0  0
 29 30  1  0  0  0  0
 30  5  1  6  0  0  0
 30 25  1  0  0  0  0
 31 24  1  0  0  0  0
 31 29  1  0  0  0  0
M  END
>  <MODEL>
7

>  <REMARK>
 VINA RESULT:      -7.7      3.718      5.829
  Name = 
  1 active torsions:
  status: ('A' for Active; 'I' for Inactive)
    1  A    between atoms: C_5  and  C_30
                            x       y       z     vdW  Elec       q    Type
                         _______ _______ _______ _____ _____    ______ ____

>  <TORSDO>
F 1

$$$$
